PYS.pdb
     RDKit          3D

 26 27  0  0  1  0  0  0  0  0999 V2000
   28.5502  -20.2352  -18.5194 N   0  0  0  0  0  0  0  0  0  0  0  0
   29.4786  -19.9348  -19.5943 C   0  0  0  0  0  0  0  0  0  0  0  0
   29.4802  -18.4353  -19.7626 C   0  0  0  0  0  0  0  0  0  0  0  0
   28.5743  -17.9380  -18.6411 C   0  0  0  0  0  0  0  0  0  0  0  0
   28.6719  -19.0804  -17.6570 C   0  0  1  0  0  0  0  0  0  0  0  0
   27.6254  -19.0345  -16.6234 C   0  0  0  0  0  0  0  0  0  0  0  0
   27.7380  -18.2015  -15.6648 O   0  0  0  0  0  0  0  0  0  0  0  0
   19.9712  -20.0711  -12.3238 O   0  0  0  0  0  0  0  0  0  0  0  0
   20.9709  -20.1268  -13.2980 C   0  0  0  0  0  0  0  0  0  0  0  0
   21.3124  -18.9947  -13.9936 C   0  0  0  0  0  0  0  0  0  0  0  0
   22.3069  -19.0053  -14.9768 C   0  0  0  0  0  0  0  0  0  0  0  0
   22.9810  -20.1490  -15.2843 C   0  0  0  0  0  0  0  0  0  0  0  0
   24.0562  -20.2327  -16.3019 C   0  0  0  0  0  0  0  0  0  0  0  0
   25.4260  -19.8954  -15.7104 C   0  0  2  0  0  0  0  0  0  0  0  0
   26.4944  -19.8938  -16.6668 N   0  0  0  0  0  0  0  0  0  0  0  0
   25.7100  -20.6717  -14.4843 C   0  0  0  0  0  0  0  0  0  0  0  0
   26.0370  -21.9069  -14.5398 O   0  0  0  0  0  0  0  0  0  0  0  0
   22.6132  -21.2932  -14.5591 C   0  0  0  0  0  0  0  0  0  0  0  0
   21.6390  -21.2885  -13.5946 C   0  0  0  0  0  0  0  0  0  0  0  0
   27.3518  -20.9061  -10.0994 O   0  0  0  0  0  0  0  0  0  0  0  0
   26.9974  -20.1661  -11.2195 C   0  0  0  0  0  0  0  0  0  0  0  0
   25.8982  -20.9171  -11.9850 C   0  0  2  0  0  0  0  0  0  0  0  0
   25.6448  -20.1249  -13.1814 N   0  0  0  0  0  0  0  0  0  0  0  0
   24.7245  -20.9619  -11.1057 C   0  0  0  0  0  0  0  0  0  0  0  0
   24.6642  -21.8384  -10.0586 O   0  0  0  0  0  0  0  0  0  0  0  0
   23.7647  -20.1868  -11.3167 O   0  0  0  0  0  0  0  0  0  0  0  0
  1  2  1  0
  2  3  1  0
  4  3  1  0
  5  4  1  0
  5  1  1  0
  6 15  1  0
  5  6  1  1
  7  6  2  0
  9 10  2  0
  9  8  1  0
 11 10  1  0
 12 11  2  0
 13 12  1  0
 14 13  1  6
 14 15  1  0
 16 14  1  0
 16 17  2  0
 18 12  1  0
 18 19  2  0
 19  9  1  0
 20 21  1  0
 22 23  1  0
 22 21  1  1
 23 16  1  0
 24 22  1  0
 25 24  1  0
 26 24  2  0
M  END
$$$$
