PYS.pdb
     RDKit          3D

 26 27  0  0  1  0  0  0  0  0999 V2000
   16.2684  -26.3548   -3.4788 N   0  0  0  0  0  0  0  0  0  0  0  0
   17.1363  -26.2543   -4.6381 C   0  0  0  0  0  0  0  0  0  0  0  0
   16.4350  -25.3608   -5.6315 C   0  0  0  0  0  0  0  0  0  0  0  0
   15.1826  -24.9009   -4.8928 C   0  0  0  0  0  0  0  0  0  0  0  0
   15.6138  -25.0653   -3.4540 C   0  0  1  0  0  0  0  0  0  0  0  0
   14.4846  -25.0229   -2.5113 C   0  0  0  0  0  0  0  0  0  0  0  0
   13.9074  -23.9086   -2.2862 O   0  0  0  0  0  0  0  0  0  0  0  0
    9.8983  -25.1248   -6.5643 O   0  0  0  0  0  0  0  0  0  0  0  0
   10.3324  -25.6008   -5.3247 C   0  0  0  0  0  0  0  0  0  0  0  0
   11.3430  -26.5264   -5.2628 C   0  0  0  0  0  0  0  0  0  0  0  0
   11.8085  -27.0295   -4.0438 C   0  0  0  0  0  0  0  0  0  0  0  0
   11.2726  -26.6165   -2.8609 C   0  0  0  0  0  0  0  0  0  0  0  0
   11.7245  -27.0933   -1.5316 C   0  0  0  0  0  0  0  0  0  0  0  0
   12.8766  -26.2477   -0.9860 C   0  0  2  0  0  0  0  0  0  0  0  0
   14.0221  -26.1908   -1.8467 N   0  0  0  0  0  0  0  0  0  0  0  0
   13.1904  -26.5753    0.4214 C   0  0  0  0  0  0  0  0  0  0  0  0
   12.2861  -26.5594    1.3257 O   0  0  0  0  0  0  0  0  0  0  0  0
   10.2402  -25.6697   -2.9510 C   0  0  0  0  0  0  0  0  0  0  0  0
    9.7801  -25.1734   -4.1431 C   0  0  0  0  0  0  0  0  0  0  0  0
   16.3376  -28.5374    3.5131 O   0  0  0  0  0  0  0  0  0  0  0  0
   16.0711  -28.0693    2.2334 C   0  0  0  0  0  0  0  0  0  0  0  0
   14.7686  -27.2561    2.2620 C   0  0  2  0  0  0  0  0  0  0  0  0
   14.4850  -26.9244    0.8718 N   0  0  0  0  0  0  0  0  0  0  0  0
   15.0361  -26.0558    3.0622 C   0  0  0  0  0  0  0  0  0  0  0  0
   15.4904  -24.9075    2.4762 O   0  0  0  0  0  0  0  0  0  0  0  0
   14.8459  -26.0830    4.2989 O   0  0  0  0  0  0  0  0  0  0  0  0
  1  2  1  0
  2  3  1  0
  4  3  1  0
  5  4  1  0
  5  1  1  0
  6 15  1  0
  5  6  1  1
  7  6  2  0
  9 10  2  0
  9  8  1  0
 11 10  1  0
 12 11  2  0
 13 12  1  0
 14 13  1  6
 14 15  1  0
 16 14  1  0
 16 17  2  0
 18 12  1  0
 18 19  2  0
 19  9  1  0
 20 21  1  0
 22 23  1  0
 22 21  1  6
 23 16  1  0
 24 22  1  0
 25 24  1  0
 26 24  2  0
M  END
$$$$
