LPV.pdb
     RDKit          3D

 23 23  0  0  1  0  0  0  0  0999 V2000
    6.9595  -17.3192   19.1601 C   0  0  0  0  0  0  0  0  0  0  0  0
    7.7720  -18.1323   20.1728 C   0  0  2  0  0  0  0  0  0  0  0  0
    7.0196  -19.4012   20.4091 C   0  0  0  0  0  0  0  0  0  0  0  0
    7.9948  -17.2586   21.3476 C   0  0  0  0  0  0  0  0  0  0  0  0
    8.7853  -16.0166   21.1302 C   0  0  2  0  0  0  0  0  0  0  0  0
    9.8226  -16.2143   20.1934 N   0  0  0  0  0  0  0  0  0  0  0  0
    9.1803  -15.3586   22.4022 C   0  0  0  0  0  0  0  0  0  0  0  0
   10.4274  -15.3676   22.6378 O   0  0  0  0  0  0  0  0  0  0  0  0
    8.2946  -14.7531   23.3234 N   0  0  0  0  0  0  0  0  0  0  0  0
    6.8768  -14.6376   23.1861 C   0  0  0  0  0  0  0  0  0  0  0  0
    6.4420  -13.5381   24.1171 C   0  0  0  0  0  0  0  0  0  0  0  0
    7.6688  -13.0881   24.8348 C   0  0  0  0  0  0  0  0  0  0  0  0
    8.6908  -14.1688   24.5692 C   0  0  1  0  0  0  0  0  0  0  0  0
    8.5859  -15.1343   25.7032 C   0  0  0  0  0  0  0  0  0  0  0  0
    8.0571  -16.2691   25.5421 O   0  0  0  0  0  0  0  0  0  0  0  0
    9.8135  -13.7037   29.3438 C   0  0  0  0  0  0  0  0  0  0  0  0
   10.9248  -14.3001   28.5075 C   0  0  1  0  0  0  0  0  0  0  0  0
   11.8557  -14.9850   29.4970 C   0  0  0  0  0  0  0  0  0  0  0  0
   10.3028  -15.2543   27.5557 C   0  0  2  0  0  0  0  0  0  0  0  0
    9.0607  -14.8335   26.9801 N   0  0  0  0  0  0  0  0  0  0  0  0
   10.0877  -16.5623   28.2234 C   0  0  0  0  0  0  0  0  0  0  0  0
    8.8474  -17.1492   28.3949 O   0  0  0  0  0  0  0  0  0  0  0  0
   11.0728  -17.2289   28.6872 O   0  0  0  0  0  0  0  0  0  0  0  0
  2  1  1  6
  2  4  1  0
  2  3  1  0
  4  5  1  0
  5  6  1  1
  5  7  1  0
  7  9  1  0
  7  8  2  0
  9 10  1  0
 11 10  1  0
 12 11  1  0
 13 12  1  0
 13 14  1  1
 13  9  1  0
 14 20  1  0
 15 14  2  0
 17 16  1  1
 17 18  1  0
 19 17  1  0
 19 20  1  1
 21 19  1  0
 21 22  1  0
 23 21  2  0
M  END
$$$$
