LPV.pdb
     RDKit          3D

 23 23  0  0  1  0  0  0  0  0999 V2000
    7.0069  -12.6762   27.2732 C   0  0  0  0  0  0  0  0  0  0  0  0
    6.8723  -13.3438   25.9010 C   0  0  2  0  0  0  0  0  0  0  0  0
    6.5900  -12.2546   24.9181 C   0  0  0  0  0  0  0  0  0  0  0  0
    5.8475  -14.4043   26.0362 C   0  0  0  0  0  0  0  0  0  0  0  0
    5.8230  -15.4624   24.9900 C   0  0  2  0  0  0  0  0  0  0  0  0
    4.7762  -16.3850   25.2040 N   0  0  0  0  0  0  0  0  0  0  0  0
    7.1631  -16.0525   24.7402 C   0  0  0  0  0  0  0  0  0  0  0  0
    7.3523  -17.1848   25.2814 O   0  0  0  0  0  0  0  0  0  0  0  0
    8.1926  -15.4581   23.9742 N   0  0  0  0  0  0  0  0  0  0  0  0
    8.1714  -14.1525   23.3933 C   0  0  0  0  0  0  0  0  0  0  0  0
    9.2153  -14.1464   22.3092 C   0  0  0  0  0  0  0  0  0  0  0  0
    9.8718  -15.4842   22.3531 C   0  0  0  0  0  0  0  0  0  0  0  0
    9.4468  -16.0806   23.6748 C   0  0  1  0  0  0  0  0  0  0  0  0
   10.5069  -15.7155   24.6608 C   0  0  0  0  0  0  0  0  0  0  0  0
   11.3389  -14.7999   24.4095 O   0  0  0  0  0  0  0  0  0  0  0  0
   10.7302  -14.2342   28.9711 C   0  0  0  0  0  0  0  0  0  0  0  0
   10.2093  -14.6363   27.6084 C   0  0  1  0  0  0  0  0  0  0  0  0
   10.3568  -13.3991   26.7354 C   0  0  0  0  0  0  0  0  0  0  0  0
   11.0380  -15.7721   27.1323 C   0  0  2  0  0  0  0  0  0  0  0  0
   10.6287  -16.3599   25.8921 N   0  0  0  0  0  0  0  0  0  0  0  0
   11.0711  -16.8379   28.1648 C   0  0  0  0  0  0  0  0  0  0  0  0
   10.2843  -17.9746   28.1295 O   0  0  0  0  0  0  0  0  0  0  0  0
   11.8548  -16.7506   29.1689 O   0  0  0  0  0  0  0  0  0  0  0  0
  2  1  1  1
  2  4  1  0
  2  3  1  0
  4  5  1  0
  5  6  1  1
  5  7  1  0
  7  9  1  0
  7  8  2  0
  9 10  1  0
 11 10  1  0
 12 11  1  0
 13 12  1  0
 13 14  1  1
 13  9  1  0
 14 20  1  0
 15 14  2  0
 17 16  1  1
 17 18  1  0
 19 17  1  0
 19 20  1  6
 21 19  1  0
 21 22  1  0
 23 21  2  0
M  END
$$$$
