LPV.pdb
     RDKit          3D

 23 23  0  0  1  0  0  0  0  0999 V2000
    6.6032  -12.4272   27.0960 C   0  0  0  0  0  0  0  0  0  0  0  0
    6.7300  -13.2860   25.8338 C   0  0  2  0  0  0  0  0  0  0  0  0
    6.6579  -12.3531   24.6691 C   0  0  0  0  0  0  0  0  0  0  0  0
    5.6855  -14.3325   25.9176 C   0  0  0  0  0  0  0  0  0  0  0  0
    5.7497  -15.4375   24.9228 C   0  0  2  0  0  0  0  0  0  0  0  0
    4.6975  -16.3618   25.0995 N   0  0  0  0  0  0  0  0  0  0  0  0
    7.1100  -16.0222   24.8027 C   0  0  0  0  0  0  0  0  0  0  0  0
    7.2862  -17.0924   25.4618 O   0  0  0  0  0  0  0  0  0  0  0  0
    8.1705  -15.4847   24.0370 N   0  0  0  0  0  0  0  0  0  0  0  0
    8.1965  -14.2021   23.4073 C   0  0  0  0  0  0  0  0  0  0  0  0
    9.2620  -14.2648   22.3462 C   0  0  0  0  0  0  0  0  0  0  0  0
    9.8809  -15.6169   22.4543 C   0  0  0  0  0  0  0  0  0  0  0  0
    9.4132  -16.1511   23.7880 C   0  0  1  0  0  0  0  0  0  0  0  0
   10.4626  -15.7767   24.7820 C   0  0  0  0  0  0  0  0  0  0  0  0
   11.2653  -14.8300   24.5522 O   0  0  0  0  0  0  0  0  0  0  0  0
   10.5503  -14.4543   29.1625 C   0  0  0  0  0  0  0  0  0  0  0  0
   10.0999  -14.7915   27.7578 C   0  0  1  0  0  0  0  0  0  0  0  0
   10.2444  -13.5018   26.9637 C   0  0  0  0  0  0  0  0  0  0  0  0
   10.9835  -15.8729   27.2544 C   0  0  2  0  0  0  0  0  0  0  0  0
   10.6058  -16.4462   25.9975 N   0  0  0  0  0  0  0  0  0  0  0  0
   11.0656  -16.9632   28.2582 C   0  0  0  0  0  0  0  0  0  0  0  0
   12.0262  -17.0309   29.2507 O   0  0  0  0  0  0  0  0  0  0  0  0
   10.2238  -17.9230   28.2506 O   0  0  0  0  0  0  0  0  0  0  0  0
  2  1  1  1
  2  4  1  0
  2  3  1  0
  4  5  1  0
  5  6  1  1
  5  7  1  0
  7  9  1  0
  7  8  2  0
  9 10  1  0
 11 10  1  0
 12 11  1  0
 13 12  1  0
 13 14  1  1
 13  9  1  0
 14 20  1  0
 15 14  2  0
 17 16  1  1
 17 18  1  0
 19 17  1  0
 19 20  1  6
 21 19  1  0
 21 22  1  0
 23 21  2  0
M  END
$$$$
