LPV.pdb
     RDKit          3D

 23 23  0  0  1  0  0  0  0  0999 V2000
    5.6573  -12.2099   24.3921 C   0  0  0  0  0  0  0  0  0  0  0  0
    5.4072  -12.9671   25.7001 C   0  0  2  0  0  0  0  0  0  0  0  0
    5.3904  -11.9471   26.7917 C   0  0  0  0  0  0  0  0  0  0  0  0
    6.4395  -14.0251   25.7899 C   0  0  0  0  0  0  0  0  0  0  0  0
    6.1936  -15.2802   25.0289 C   0  0  2  0  0  0  0  0  0  0  0  0
    5.0941  -15.9985   25.5464 N   0  0  0  0  0  0  0  0  0  0  0  0
    7.4333  -16.0681   24.8070 C   0  0  0  0  0  0  0  0  0  0  0  0
    7.4516  -17.1993   25.3822 O   0  0  0  0  0  0  0  0  0  0  0  0
    8.5420  -15.6545   24.0326 N   0  0  0  0  0  0  0  0  0  0  0  0
    8.7111  -14.3810   23.4065 C   0  0  0  0  0  0  0  0  0  0  0  0
    9.7521  -14.5629   22.3349 C   0  0  0  0  0  0  0  0  0  0  0  0
   10.2105  -15.9781   22.4328 C   0  0  0  0  0  0  0  0  0  0  0  0
    9.6963  -16.4598   23.7695 C   0  0  1  0  0  0  0  0  0  0  0  0
   10.7914  -16.2140   24.7543 C   0  0  0  0  0  0  0  0  0  0  0  0
   11.7746  -15.4787   24.4609 O   0  0  0  0  0  0  0  0  0  0  0  0
   10.8726  -14.5740   29.0304 C   0  0  0  0  0  0  0  0  0  0  0  0
   10.6054  -14.8548   27.5676 C   0  0  1  0  0  0  0  0  0  0  0  0
   11.2430  -13.7005   26.8089 C   0  0  0  0  0  0  0  0  0  0  0  0
   11.2284  -16.1628   27.2443 C   0  0  2  0  0  0  0  0  0  0  0  0
   10.7820  -16.7778   26.0303 N   0  0  0  0  0  0  0  0  0  0  0  0
   11.0041  -17.1160   28.3596 C   0  0  0  0  0  0  0  0  0  0  0  0
   10.0512  -18.1179   28.3419 O   0  0  0  0  0  0  0  0  0  0  0  0
   11.7051  -17.0519   29.4247 O   0  0  0  0  0  0  0  0  0  0  0  0
  2  1  1  6
  2  4  1  0
  2  3  1  0
  4  5  1  0
  5  6  1  1
  5  7  1  0
  7  9  1  0
  7  8  2  0
  9 10  1  0
 11 10  1  0
 12 11  1  0
 13 12  1  0
 13 14  1  1
 13  9  1  0
 14 20  1  0
 15 14  2  0
 17 16  1  1
 17 18  1  0
 19 17  1  0
 19 20  1  6
 21 19  1  0
 21 22  1  0
 23 21  2  0
M  END
$$$$
