LPV.pdb
     RDKit          3D

 23 23  0  0  1  0  0  0  0  0999 V2000
    5.7733  -11.8174   24.6546 C   0  0  0  0  0  0  0  0  0  0  0  0
    5.7563  -12.6278   25.9544 C   0  0  2  0  0  0  0  0  0  0  0  0
    5.9850  -11.6593   27.0688 C   0  0  0  0  0  0  0  0  0  0  0  0
    6.7508  -13.7140   25.7983 C   0  0  0  0  0  0  0  0  0  0  0  0
    6.2978  -14.9568   25.1164 C   0  0  2  0  0  0  0  0  0  0  0  0
    5.2265  -15.5687   25.8024 N   0  0  0  0  0  0  0  0  0  0  0  0
    7.4248  -15.8520   24.7485 C   0  0  0  0  0  0  0  0  0  0  0  0
    7.3712  -17.0101   25.2649 O   0  0  0  0  0  0  0  0  0  0  0  0
    8.5029  -15.5091   23.9000 N   0  0  0  0  0  0  0  0  0  0  0  0
    8.7169  -14.2446   23.2695 C   0  0  0  0  0  0  0  0  0  0  0  0
    9.6651  -14.4881   22.1265 C   0  0  0  0  0  0  0  0  0  0  0  0
   10.0287  -15.9328   22.1852 C   0  0  0  0  0  0  0  0  0  0  0  0
    9.5767  -16.3903   23.5524 C   0  0  1  0  0  0  0  0  0  0  0  0
   10.7524  -16.2311   24.4589 C   0  0  0  0  0  0  0  0  0  0  0  0
   11.7932  -15.6307   24.0718 O   0  0  0  0  0  0  0  0  0  0  0  0
    9.0896  -15.1198   27.6416 C   0  0  0  0  0  0  0  0  0  0  0  0
   10.5106  -14.7780   27.2493 C   0  0  1  0  0  0  0  0  0  0  0  0
   11.1052  -14.0656   28.4549 C   0  0  0  0  0  0  0  0  0  0  0  0
   11.2059  -16.0525   26.9400 C   0  0  2  0  0  0  0  0  0  0  0  0
   10.7585  -16.7315   25.7611 N   0  0  0  0  0  0  0  0  0  0  0  0
   11.0834  -16.9838   28.0892 C   0  0  0  0  0  0  0  0  0  0  0  0
   10.3556  -18.1593   28.0588 O   0  0  0  0  0  0  0  0  0  0  0  0
   11.6642  -16.7331   29.1981 O   0  0  0  0  0  0  0  0  0  0  0  0
  2  1  1  6
  2  4  1  0
  2  3  1  0
  4  5  1  0
  5  6  1  1
  5  7  1  0
  7  9  1  0
  7  8  2  0
  9 10  1  0
 11 10  1  0
 12 11  1  0
 13 12  1  0
 13 14  1  1
 13  9  1  0
 14 20  1  0
 15 14  2  0
 17 16  1  1
 17 18  1  0
 19 17  1  0
 19 20  1  6
 21 19  1  0
 21 22  1  0
 23 21  2  0
M  END
$$$$
