LPV.pdb
     RDKit          3D

 23 23  0  0  1  0  0  0  0  0999 V2000
    6.1791  -14.0091   27.0829 C   0  0  0  0  0  0  0  0  0  0  0  0
    6.7395  -13.4941   25.7534 C   0  0  2  0  0  0  0  0  0  0  0  0
    6.8795  -12.0130   25.8900 C   0  0  0  0  0  0  0  0  0  0  0  0
    5.8373  -13.9847   24.6863 C   0  0  0  0  0  0  0  0  0  0  0  0
    5.7945  -15.4542   24.4554 C   0  0  2  0  0  0  0  0  0  0  0  0
    4.9369  -16.1024   25.3703 N   0  0  0  0  0  0  0  0  0  0  0  0
    7.1467  -16.0502   24.3039 C   0  0  0  0  0  0  0  0  0  0  0  0
    7.2759  -17.2058   24.8126 O   0  0  0  0  0  0  0  0  0  0  0  0
    8.2468  -15.4379   23.6599 N   0  0  0  0  0  0  0  0  0  0  0  0
    8.2946  -14.1050   23.1466 C   0  0  0  0  0  0  0  0  0  0  0  0
    9.4281  -14.0648   22.1574 C   0  0  0  0  0  0  0  0  0  0  0  0
   10.0590  -15.4151   22.1890 C   0  0  0  0  0  0  0  0  0  0  0  0
    9.5132  -16.0682   23.4375 C   0  0  1  0  0  0  0  0  0  0  0  0
   10.4894  -15.7721   24.5277 C   0  0  0  0  0  0  0  0  0  0  0  0
   11.5538  -15.1364   24.2903 O   0  0  0  0  0  0  0  0  0  0  0  0
   11.0159  -14.0351   28.8248 C   0  0  0  0  0  0  0  0  0  0  0  0
   10.2451  -14.4254   27.5824 C   0  0  1  0  0  0  0  0  0  0  0  0
   10.3424  -13.2269   26.6503 C   0  0  0  0  0  0  0  0  0  0  0  0
   10.8906  -15.6384   27.0207 C   0  0  2  0  0  0  0  0  0  0  0  0
   10.2761  -16.1785   25.8452 N   0  0  0  0  0  0  0  0  0  0  0  0
   10.9410  -16.7045   28.0521 C   0  0  0  0  0  0  0  0  0  0  0  0
   12.0031  -16.8952   28.9169 O   0  0  0  0  0  0  0  0  0  0  0  0
    9.9722  -17.5239   28.1926 O   0  0  0  0  0  0  0  0  0  0  0  0
  2  1  1  1
  2  4  1  0
  2  3  1  0
  4  5  1  0
  5  6  1  1
  5  7  1  0
  7  9  1  0
  7  8  2  0
  9 10  1  0
 11 10  1  0
 12 11  1  0
 13 12  1  0
 13 14  1  1
 13  9  1  0
 14 20  1  0
 15 14  2  0
 17 16  1  1
 17 18  1  0
 19 17  1  0
 19 20  1  6
 21 19  1  0
 21 22  1  0
 23 21  2  0
M  END
$$$$
