LPV.pdb
     RDKit          3D

 23 23  0  0  1  0  0  0  0  0999 V2000
    7.5127  -12.4272   19.6896 C   0  0  0  0  0  0  0  0  0  0  0  0
    7.3580  -13.8084   20.3340 C   0  0  2  0  0  0  0  0  0  0  0  0
    6.0235  -14.3325   19.9141 C   0  0  0  0  0  0  0  0  0  0  0  0
    7.5800  -13.6331   21.7878 C   0  0  0  0  0  0  0  0  0  0  0  0
    8.9491  -13.9057   22.3036 C   0  0  2  0  0  0  0  0  0  0  0  0
    9.7286  -14.6176   21.3665 N   0  0  0  0  0  0  0  0  0  0  0  0
    8.9429  -14.4505   23.6855 C   0  0  0  0  0  0  0  0  0  0  0  0
    9.8827  -15.2654   23.9375 O   0  0  0  0  0  0  0  0  0  0  0  0
    7.9985  -14.1335   24.6893 N   0  0  0  0  0  0  0  0  0  0  0  0
    6.7862  -13.3980   24.5111 C   0  0  0  0  0  0  0  0  0  0  0  0
    6.3784  -12.9034   25.8728 C   0  0  0  0  0  0  0  0  0  0  0  0
    7.3777  -13.4518   26.8336 C   0  0  0  0  0  0  0  0  0  0  0  0
    8.1072  -14.5267   26.0619 C   0  0  1  0  0  0  0  0  0  0  0  0
    7.3883  -15.8054   26.3405 C   0  0  0  0  0  0  0  0  0  0  0  0
    6.2692  -16.0492   25.8097 O   0  0  0  0  0  0  0  0  0  0  0  0
    9.0113  -19.9506   25.5323 C   0  0  0  0  0  0  0  0  0  0  0  0
    8.7985  -18.4543   25.6078 C   0  0  1  0  0  0  0  0  0  0  0  0
    7.9517  -18.1023   24.3939 C   0  0  0  0  0  0  0  0  0  0  0  0
    8.1058  -18.1672   26.8888 C   0  0  2  0  0  0  0  0  0  0  0  0
    7.9112  -16.7806   27.1900 N   0  0  0  0  0  0  0  0  0  0  0  0
    8.8496  -18.7884   28.0130 C   0  0  0  0  0  0  0  0  0  0  0  0
   10.0736  -18.3389   28.4736 O   0  0  0  0  0  0  0  0  0  0  0  0
    8.3772  -19.8028   28.6276 O   0  0  0  0  0  0  0  0  0  0  0  0
  2  1  1  6
  2  4  1  0
  2  3  1  0
  4  5  1  0
  5  6  1  6
  5  7  1  0
  7  9  1  0
  7  8  2  0
  9 10  1  0
 11 10  1  0
 12 11  1  0
 13 12  1  0
 13 14  1  6
 13  9  1  0
 14 20  1  0
 15 14  2  0
 17 16  1  6
 17 18  1  0
 19 17  1  0
 19 20  1  1
 21 19  1  0
 21 22  1  0
 23 21  2  0
M  END
$$$$
