LPV.pdb
     RDKit          3D

 23 23  0  0  1  0  0  0  0  0999 V2000
    6.9992  -13.8836   27.0406 C   0  0  0  0  0  0  0  0  0  0  0  0
    6.4898  -14.0337   25.6037 C   0  0  2  0  0  0  0  0  0  0  0  0
    5.8931  -12.7191   25.2187 C   0  0  0  0  0  0  0  0  0  0  0  0
    5.5874  -15.2079   25.5866 C   0  0  0  0  0  0  0  0  0  0  0  0
    5.6938  -16.1295   24.4230 C   0  0  2  0  0  0  0  0  0  0  0  0
    4.7866  -17.2062   24.5241 N   0  0  0  0  0  0  0  0  0  0  0  0
    7.0987  -16.4958   24.1087 C   0  0  0  0  0  0  0  0  0  0  0  0
    7.3810  -17.7192   24.2942 O   0  0  0  0  0  0  0  0  0  0  0  0
    8.0939  -15.6075   23.6393 N   0  0  0  0  0  0  0  0  0  0  0  0
    7.9337  -14.2092   23.3911 C   0  0  0  0  0  0  0  0  0  0  0  0
    9.0572  -13.8028   22.4758 C   0  0  0  0  0  0  0  0  0  0  0  0
    9.8954  -15.0195   22.2766 C   0  0  0  0  0  0  0  0  0  0  0  0
    9.4471  -15.9790   23.3542 C   0  0  1  0  0  0  0  0  0  0  0  0
   10.3513  -15.7531   24.5207 C   0  0  0  0  0  0  0  0  0  0  0  0
   11.5989  -15.6430   24.3626 O   0  0  0  0  0  0  0  0  0  0  0  0
   10.9127  -14.0651   29.0492 C   0  0  0  0  0  0  0  0  0  0  0  0
    9.9220  -14.4162   27.9605 C   0  0  1  0  0  0  0  0  0  0  0  0
    9.5096  -13.0886   27.3425 C   0  0  0  0  0  0  0  0  0  0  0  0
   10.6177  -15.3030   26.9946 C   0  0  2  0  0  0  0  0  0  0  0  0
    9.8682  -15.6540   25.8257 N   0  0  0  0  0  0  0  0  0  0  0  0
   11.0367  -16.5548   27.6730 C   0  0  0  0  0  0  0  0  0  0  0  0
   12.2098  -16.6900   28.3928 O   0  0  0  0  0  0  0  0  0  0  0  0
   10.3080  -17.6018   27.6206 O   0  0  0  0  0  0  0  0  0  0  0  0
  2  1  1  1
  2  4  1  0
  2  3  1  0
  4  5  1  0
  5  6  1  1
  5  7  1  0
  7  9  1  0
  7  8  2  0
  9 10  1  0
 11 10  1  0
 12 11  1  0
 13 12  1  0
 13 14  1  1
 13  9  1  0
 14 20  1  0
 15 14  2  0
 17 16  1  1
 17 18  1  0
 19 17  1  0
 19 20  1  6
 21 19  1  0
 21 22  1  0
 23 21  2  0
M  END
$$$$
