LPV.pdb
     RDKit          3D

 23 23  0  0  1  0  0  0  0  0999 V2000
    5.2397  -12.3863   26.5892 C   0  0  0  0  0  0  0  0  0  0  0  0
    6.5797  -12.6787   25.9070 C   0  0  2  0  0  0  0  0  0  0  0  0
    7.2810  -11.3682   25.7558 C   0  0  0  0  0  0  0  0  0  0  0  0
    6.2767  -13.4222   24.6625 C   0  0  0  0  0  0  0  0  0  0  0  0
    5.9812  -14.8748   24.7940 C   0  0  2  0  0  0  0  0  0  0  0  0
    5.0910  -15.1329   25.8586 N   0  0  0  0  0  0  0  0  0  0  0  0
    7.2061  -15.7144   24.7580 C   0  0  0  0  0  0  0  0  0  0  0  0
    7.1621  -16.7468   25.4949 O   0  0  0  0  0  0  0  0  0  0  0  0
    8.3636  -15.4462   23.9911 N   0  0  0  0  0  0  0  0  0  0  0  0
    8.6374  -14.2498   23.2589 C   0  0  0  0  0  0  0  0  0  0  0  0
    9.6966  -14.5966   22.2476 C   0  0  0  0  0  0  0  0  0  0  0  0
   10.0556  -16.0231   22.4903 C   0  0  0  0  0  0  0  0  0  0  0  0
    9.4689  -16.3447   23.8450 C   0  0  1  0  0  0  0  0  0  0  0  0
   10.5468  -16.0793   24.8435 C   0  0  0  0  0  0  0  0  0  0  0  0
   11.5530  -15.3796   24.5412 O   0  0  0  0  0  0  0  0  0  0  0  0
   10.5767  -13.8712   27.0004 C   0  0  0  0  0  0  0  0  0  0  0  0
   10.7780  -14.9871   28.0025 C   0  0  1  0  0  0  0  0  0  0  0  0
    9.4085  -15.2328   28.6180 C   0  0  0  0  0  0  0  0  0  0  0  0
   11.2887  -16.1662   27.2592 C   0  0  2  0  0  0  0  0  0  0  0  0
   10.4957  -16.5852   26.1427 N   0  0  0  0  0  0  0  0  0  0  0  0
   11.4372  -17.3177   28.1838 C   0  0  0  0  0  0  0  0  0  0  0  0
   12.3727  -17.3787   29.2004 O   0  0  0  0  0  0  0  0  0  0  0  0
   10.6817  -18.3415   28.0788 O   0  0  0  0  0  0  0  0  0  0  0  0
  2  1  1  6
  2  4  1  0
  2  3  1  0
  4  5  1  0
  5  6  1  1
  5  7  1  0
  7  9  1  0
  7  8  2  0
  9 10  1  0
 11 10  1  0
 12 11  1  0
 13 12  1  0
 13 14  1  1
 13  9  1  0
 14 20  1  0
 15 14  2  0
 17 16  1  6
 17 18  1  0
 19 17  1  0
 19 20  1  6
 21 19  1  0
 21 22  1  0
 23 21  2  0
M  END
$$$$
