LPV.pdb
     RDKit          3D

 23 23  0  0  1  0  0  0  0  0999 V2000
    3.5182  -18.2888   20.5408 C   0  0  0  0  0  0  0  0  0  0  0  0
    3.9414  -18.7394   21.9424 C   0  0  2  0  0  0  0  0  0  0  0  0
    2.7355  -18.6185   22.8160 C   0  0  0  0  0  0  0  0  0  0  0  0
    5.1226  -17.9286   22.3176 C   0  0  0  0  0  0  0  0  0  0  0  0
    6.3577  -18.1125   21.5079 C   0  0  2  0  0  0  0  0  0  0  0  0
    6.7197  -19.4733   21.4084 N   0  0  0  0  0  0  0  0  0  0  0  0
    7.4458  -17.1817   21.9031 C   0  0  0  0  0  0  0  0  0  0  0  0
    8.3823  -17.7159   22.5726 O   0  0  0  0  0  0  0  0  0  0  0  0
    7.4993  -15.8025   21.5950 N   0  0  0  0  0  0  0  0  0  0  0  0
    6.5385  -15.0652   20.8363 C   0  0  0  0  0  0  0  0  0  0  0  0
    7.2290  -13.8127   20.3679 C   0  0  0  0  0  0  0  0  0  0  0  0
    8.5990  -13.8457   20.9550 C   0  0  0  0  0  0  0  0  0  0  0  0
    8.5368  -14.9131   22.0226 C   0  0  1  0  0  0  0  0  0  0  0  0
    8.1909  -14.2143   23.2959 C   0  0  0  0  0  0  0  0  0  0  0  0
    7.5657  -13.1177   23.2848 O   0  0  0  0  0  0  0  0  0  0  0  0
    7.2031  -12.7847   27.4484 C   0  0  0  0  0  0  0  0  0  0  0  0
    7.0809  -13.5501   26.1487 C   0  0  1  0  0  0  0  0  0  0  0  0
    6.5687  -12.5427   25.1301 C   0  0  0  0  0  0  0  0  0  0  0  0
    8.4297  -14.0688   25.8090 C   0  0  2  0  0  0  0  0  0  0  0  0
    8.5373  -14.7321   24.5442 N   0  0  0  0  0  0  0  0  0  0  0  0
    8.8900  -15.0034   26.8661 C   0  0  0  0  0  0  0  0  0  0  0  0
    9.2353  -16.3226   26.6364 O   0  0  0  0  0  0  0  0  0  0  0  0
    8.9910  -14.6188   28.0793 O   0  0  0  0  0  0  0  0  0  0  0  0
  2  1  1  6
  2  4  1  0
  2  3  1  0
  4  5  1  0
  5  6  1  1
  5  7  1  0
  7  9  1  0
  7  8  2  0
  9 10  1  0
 11 10  1  0
 12 11  1  0
 13 12  1  0
 13 14  1  1
 13  9  1  0
 14 20  1  0
 15 14  2  0
 17 16  1  1
 17 18  1  0
 19 17  1  0
 19 20  1  6
 21 19  1  0
 21 22  1  0
 23 21  2  0
M  END
$$$$
