LPV.pdb
     RDKit          3D

 23 23  0  0  1  0  0  0  0  0999 V2000
    6.9625  -12.5424   27.2090 C   0  0  0  0  0  0  0  0  0  0  0  0
    6.7139  -13.2811   25.8902 C   0  0  2  0  0  0  0  0  0  0  0  0
    6.2112  -12.2660   24.9161 C   0  0  0  0  0  0  0  0  0  0  0  0
    5.8143  -14.4173   26.1954 C   0  0  0  0  0  0  0  0  0  0  0  0
    5.7139  -15.4970   25.1761 C   0  0  2  0  0  0  0  0  0  0  0  0
    4.7369  -16.4548   25.5236 N   0  0  0  0  0  0  0  0  0  0  0  0
    7.0398  -16.0397   24.7836 C   0  0  0  0  0  0  0  0  0  0  0  0
    7.3046  -17.1860   25.2596 O   0  0  0  0  0  0  0  0  0  0  0  0
    7.9810  -15.3882   23.9531 N   0  0  0  0  0  0  0  0  0  0  0  0
    7.9023  -14.0439   23.4745 C   0  0  0  0  0  0  0  0  0  0  0  0
    8.8194  -13.9560   22.2844 C   0  0  0  0  0  0  0  0  0  0  0  0
    9.4695  -15.2917   22.1578 C   0  0  0  0  0  0  0  0  0  0  0  0
    9.1909  -15.9838   23.4716 C   0  0  1  0  0  0  0  0  0  0  0  0
   10.3559  -15.6885   24.3576 C   0  0  0  0  0  0  0  0  0  0  0  0
   11.4136  -15.1818   23.8908 O   0  0  0  0  0  0  0  0  0  0  0  0
   10.5672  -13.3946   27.0853 C   0  0  0  0  0  0  0  0  0  0  0  0
   10.9659  -14.6933   27.7519 C   0  0  1  0  0  0  0  0  0  0  0  0
    9.7344  -15.1516   28.5186 C   0  0  0  0  0  0  0  0  0  0  0  0
   11.3559  -15.6427   26.6795 C   0  0  2  0  0  0  0  0  0  0  0  0
   10.3331  -15.9547   25.7268 N   0  0  0  0  0  0  0  0  0  0  0  0
   11.8350  -16.9120   27.2815 C   0  0  0  0  0  0  0  0  0  0  0  0
   12.9757  -17.0194   28.0559 O   0  0  0  0  0  0  0  0  0  0  0  0
   11.1936  -18.0017   27.1052 O   0  0  0  0  0  0  0  0  0  0  0  0
  2  1  1  1
  2  4  1  0
  2  3  1  0
  4  5  1  0
  5  6  1  1
  5  7  1  0
  7  9  1  0
  7  8  2  0
  9 10  1  0
 11 10  1  0
 12 11  1  0
 13 12  1  0
 13 14  1  1
 13  9  1  0
 14 20  1  0
 15 14  2  0
 17 16  1  6
 17 18  1  0
 19 17  1  0
 19 20  1  6
 21 19  1  0
 21 22  1  0
 23 21  2  0
M  END
$$$$
