LPV.pdb
     RDKit          3D

 23 23  0  0  1  0  0  0  0  0999 V2000
    9.1943  -13.8286   19.2769 C   0  0  0  0  0  0  0  0  0  0  0  0
    7.6866  -13.5595   19.3123 C   0  0  2  0  0  0  0  0  0  0  0  0
    7.5030  -12.1015   19.0429 C   0  0  0  0  0  0  0  0  0  0  0  0
    7.1885  -14.0671   20.6113 C   0  0  0  0  0  0  0  0  0  0  0  0
    7.2705  -15.5348   20.8436 C   0  0  2  0  0  0  0  0  0  0  0  0
    6.2307  -16.2271   20.1863 N   0  0  0  0  0  0  0  0  0  0  0  0
    7.4714  -15.8782   22.2749 C   0  0  0  0  0  0  0  0  0  0  0  0
    6.4329  -15.7689   22.9963 O   0  0  0  0  0  0  0  0  0  0  0  0
    8.6906  -16.2979   22.8557 N   0  0  0  0  0  0  0  0  0  0  0  0
    9.9388  -16.4643   22.1800 C   0  0  0  0  0  0  0  0  0  0  0  0
   10.7831  -17.3574   23.0486 C   0  0  0  0  0  0  0  0  0  0  0  0
    9.9799  -17.6290   24.2749 C   0  0  0  0  0  0  0  0  0  0  0  0
    8.8669  -16.6075   24.2425 C   0  0  1  0  0  0  0  0  0  0  0  0
    9.3523  -15.4322   25.0251 C   0  0  0  0  0  0  0  0  0  0  0  0
   10.2495  -14.6726   24.5653 O   0  0  0  0  0  0  0  0  0  0  0  0
    7.5317  -12.5226   25.9512 C   0  0  0  0  0  0  0  0  0  0  0  0
    7.9855  -13.0396   27.2991 C   0  0  1  0  0  0  0  0  0  0  0  0
    6.7796  -13.7577   27.8862 C   0  0  0  0  0  0  0  0  0  0  0  0
    9.1327  -13.9514   27.0629 C   0  0  2  0  0  0  0  0  0  0  0  0
    8.8450  -15.1201   26.2867 N   0  0  0  0  0  0  0  0  0  0  0  0
    9.7068  -14.3840   28.3615 C   0  0  0  0  0  0  0  0  0  0  0  0
   10.4214  -13.5549   29.2066 O   0  0  0  0  0  0  0  0  0  0  0  0
    9.5626  -15.5842   28.7721 O   0  0  0  0  0  0  0  0  0  0  0  0
  2  1  1  1
  2  4  1  0
  2  3  1  0
  4  5  1  0
  5  6  1  1
  5  7  1  0
  7  9  1  0
  7  8  2  0
  9 10  1  0
 11 10  1  0
 12 11  1  0
 13 12  1  0
 13 14  1  1
 13  9  1  0
 14 20  1  0
 15 14  2  0
 17 16  1  6
 17 18  1  0
 19 17  1  0
 19 20  1  1
 21 19  1  0
 21 22  1  0
 23 21  2  0
M  END
$$$$
