KDF.pdb
     RDKit          3D

 29 29  0  0  1  0  0  0  0  0999 V2000
    9.5918  -13.5374   19.2391 N   0  0  0  0  0  0  0  0  0  0  0  0
    8.3055  -13.5178   19.9533 C   0  0  1  0  0  0  0  0  0  0  0  0
    7.2238  -13.6874   18.9086 C   0  0  0  0  0  0  0  0  0  0  0  0
    7.6524  -13.2578   17.5532 C   0  0  0  0  0  0  0  0  0  0  0  0
    7.5734  -14.3004   16.4921 C   0  0  0  0  0  0  0  0  0  0  0  0
    7.8097  -13.7808   15.1011 C   0  0  0  0  0  0  0  0  0  0  0  0
    7.7907  -14.8580   14.1306 N   0  0  0  0  0  0  0  0  0  0  0  0
    8.3502  -14.6693   20.8905 C   0  0  0  0  0  0  0  0  0  0  0  0
    7.3730  -15.0916   21.5343 O   0  0  0  0  0  0  0  0  0  0  0  0
    9.6115  -15.3485   21.0704 N   0  0  0  0  0  0  0  0  0  0  0  0
    9.7323  -16.4583   21.9900 C   0  0  1  0  0  0  0  0  0  0  0  0
   10.9578  -17.2803   21.7061 C   0  0  0  0  0  0  0  0  0  0  0  0
   11.0911  -18.4207   22.6392 C   0  0  0  0  0  0  0  0  0  0  0  0
   10.3478  -19.4292   22.5960 O   0  0  0  0  0  0  0  0  0  0  0  0
    9.7818  -16.0069   23.4001 C   0  0  0  0  0  0  0  0  0  0  0  0
   10.6997  -15.2698   23.8404 O   0  0  0  0  0  0  0  0  0  0  0  0
   12.0796  -18.3858   23.6112 O   0  0  0  0  0  0  0  0  0  0  0  0
    8.7673  -16.4066   24.3110 N   0  0  0  0  0  0  0  0  0  0  0  0
    8.7999  -16.0519   25.7049 C   0  0  1  0  0  0  0  0  0  0  0  0
    7.3998  -15.6427   26.1304 C   0  0  0  0  0  0  0  0  0  0  0  0
    7.2611  -14.1917   26.2703 C   0  0  0  0  0  0  0  0  0  0  0  0
    8.3155  -13.4428   26.7444 C   0  0  0  0  0  0  0  0  0  0  0  0
    8.2296  -12.0827   26.8913 C   0  0  0  0  0  0  0  0  0  0  0  0
    7.0717  -11.4288   26.5634 C   0  0  0  0  0  0  0  0  0  0  0  0
    6.0145  -12.1797   26.0879 C   0  0  0  0  0  0  0  0  0  0  0  0
    6.0950  -13.5423   25.9388 C   0  0  0  0  0  0  0  0  0  0  0  0
    9.3087  -17.1612   26.5274 C   0  0  0  0  0  0  0  0  0  0  0  0
    9.5809  -18.3721   25.9135 O   0  0  0  0  0  0  0  0  0  0  0  0
    9.5157  -17.0883   27.7568 O   0  0  0  0  0  0  0  0  0  0  0  0
  2  1  1  6
  2  3  1  0
  4  3  1  0
  4  5  1  0
  6  7  1  0
  6  5  1  0
  8  2  1  0
  9  8  2  0
 10  8  1  0
 11 10  1  0
 11 12  1  6
 12 13  1  0
 13 17  1  0
 14 13  2  0
 15 16  2  0
 15 11  1  0
 18 15  1  0
 19 18  1  0
 19 20  1  1
 20 21  1  0
 21 26  2  0
 21 22  1  0
 22 23  2  0
 23 24  1  0
 25 24  2  0
 26 25  1  0
 27 28  1  0
 27 19  1  0
 29 27  2  0
M  END
$$$$
