KDF.pdb
     RDKit          3D

 29 29  0  0  1  0  0  0  0  0999 V2000
    7.1428  -16.9062   21.2931 N   0  0  0  0  0  0  0  0  0  0  0  0
    8.4116  -16.1784   21.4524 C   0  0  1  0  0  0  0  0  0  0  0  0
    8.0625  -14.7090   21.5488 C   0  0  0  0  0  0  0  0  0  0  0  0
    7.8218  -14.0808   20.2248 C   0  0  0  0  0  0  0  0  0  0  0  0
    7.3391  -12.6719   20.2586 C   0  0  0  0  0  0  0  0  0  0  0  0
    7.6801  -11.8757   19.0297 C   0  0  0  0  0  0  0  0  0  0  0  0
    7.5798  -12.6907   17.8345 N   0  0  0  0  0  0  0  0  0  0  0  0
    9.0087  -16.6856   22.7144 C   0  0  0  0  0  0  0  0  0  0  0  0
    8.3667  -17.2420   23.6233 O   0  0  0  0  0  0  0  0  0  0  0  0
   10.4308  -16.5246   22.9043 N   0  0  0  0  0  0  0  0  0  0  0  0
   11.0864  -17.0488   24.0821 C   0  0  1  0  0  0  0  0  0  0  0  0
   12.5463  -17.3044   23.8343 C   0  0  0  0  0  0  0  0  0  0  0  0
   12.7682  -18.1534   22.6432 C   0  0  0  0  0  0  0  0  0  0  0  0
   12.2725  -19.2980   22.5182 O   0  0  0  0  0  0  0  0  0  0  0  0
   10.9561  -16.1360   25.2416 C   0  0  0  0  0  0  0  0  0  0  0  0
   11.6195  -15.0730   25.3409 O   0  0  0  0  0  0  0  0  0  0  0  0
   13.5587  -17.6736   21.6097 O   0  0  0  0  0  0  0  0  0  0  0  0
   10.0556  -16.4484   26.2953 N   0  0  0  0  0  0  0  0  0  0  0  0
    9.9901  -15.6760   27.5072 C   0  0  1  0  0  0  0  0  0  0  0  0
    8.5309  -15.3813   27.8120 C   0  0  0  0  0  0  0  0  0  0  0  0
    8.0094  -14.2669   27.0181 C   0  0  0  0  0  0  0  0  0  0  0  0
    8.6332  -13.0396   27.0631 C   0  0  0  0  0  0  0  0  0  0  0  0
    8.1793  -11.9694   26.3368 C   0  0  0  0  0  0  0  0  0  0  0  0
    7.0756  -12.1016   25.5367 C   0  0  0  0  0  0  0  0  0  0  0  0
    6.4502  -13.3322   25.4915 C   0  0  0  0  0  0  0  0  0  0  0  0
    6.9005  -14.4075   26.2169 C   0  0  0  0  0  0  0  0  0  0  0  0
   10.6411  -16.3783   28.6249 C   0  0  0  0  0  0  0  0  0  0  0  0
   10.8682  -15.6853   29.8020 O   0  0  0  0  0  0  0  0  0  0  0  0
   11.0088  -17.5712   28.5879 O   0  0  0  0  0  0  0  0  0  0  0  0
  2  1  1  1
  2  3  1  0
  4  3  1  0
  4  5  1  0
  6  7  1  0
  6  5  1  0
  8  2  1  0
  9  8  2  0
 10  8  1  0
 11 10  1  0
 11 12  1  6
 12 13  1  0
 13 17  1  0
 14 13  2  0
 15 16  2  0
 15 11  1  0
 18 15  1  0
 19 18  1  0
 19 20  1  1
 20 21  1  0
 21 26  2  0
 21 22  1  0
 22 23  2  0
 23 24  1  0
 25 24  2  0
 26 25  1  0
 27 28  1  0
 27 19  1  0
 29 27  2  0
M  END
$$$$
