KDF.pdb
     RDKit          3D

 29 29  0  0  1  0  0  0  0  0999 V2000
    9.3581  -13.0409   20.2308 N   0  0  0  0  0  0  0  0  0  0  0  0
    8.0536  -13.5262   20.7080 C   0  0  1  0  0  0  0  0  0  0  0  0
    7.2415  -13.8743   19.4793 C   0  0  0  0  0  0  0  0  0  0  0  0
    8.0680  -13.9948   18.2514 C   0  0  0  0  0  0  0  0  0  0  0  0
    7.3122  -14.1957   16.9835 C   0  0  0  0  0  0  0  0  0  0  0  0
    8.1823  -14.3458   15.7665 C   0  0  0  0  0  0  0  0  0  0  0  0
    7.3829  -14.5568   14.5753 N   0  0  0  0  0  0  0  0  0  0  0  0
    8.3495  -14.7274   21.5301 C   0  0  0  0  0  0  0  0  0  0  0  0
    7.4846  -15.4667   22.0334 O   0  0  0  0  0  0  0  0  0  0  0  0
    9.7337  -15.0647   21.7642 N   0  0  0  0  0  0  0  0  0  0  0  0
   10.0923  -16.2270   22.5466 C   0  0  1  0  0  0  0  0  0  0  0  0
   11.4696  -16.7204   22.2038 C   0  0  0  0  0  0  0  0  0  0  0  0
   11.5469  -17.2375   20.8197 C   0  0  0  0  0  0  0  0  0  0  0  0
   10.7515  -18.0928   20.3646 O   0  0  0  0  0  0  0  0  0  0  0  0
   10.0359  -15.9547   24.0017 C   0  0  0  0  0  0  0  0  0  0  0  0
   10.8177  -15.1496   24.5678 O   0  0  0  0  0  0  0  0  0  0  0  0
   12.5399  -16.7627   19.9760 O   0  0  0  0  0  0  0  0  0  0  0  0
    9.0727  -16.6136   24.8120 N   0  0  0  0  0  0  0  0  0  0  0  0
    8.9732  -16.3868   26.2292 C   0  0  1  0  0  0  0  0  0  0  0  0
    7.5422  -15.9924   26.5543 C   0  0  0  0  0  0  0  0  0  0  0  0
    7.3454  -14.5416   26.5347 C   0  0  0  0  0  0  0  0  0  0  0  0
    8.3749  -13.7031   26.9018 C   0  0  0  0  0  0  0  0  0  0  0  0
    8.2347  -12.3396   26.8983 C   0  0  0  0  0  0  0  0  0  0  0  0
    7.0458  -11.7729   26.5226 C   0  0  0  0  0  0  0  0  0  0  0  0
    6.0136  -12.6136   26.1545 C   0  0  0  0  0  0  0  0  0  0  0  0
    6.1485  -13.9801   26.1562 C   0  0  0  0  0  0  0  0  0  0  0  0
    9.3894  -17.5749   26.9917 C   0  0  0  0  0  0  0  0  0  0  0  0
    9.7553  -17.4178   28.3178 O   0  0  0  0  0  0  0  0  0  0  0  0
    9.4371  -18.7311   26.5223 O   0  0  0  0  0  0  0  0  0  0  0  0
  2  1  1  6
  2  3  1  0
  4  3  1  0
  4  5  1  0
  6  7  1  0
  6  5  1  0
  8  2  1  0
  9  8  2  0
 10  8  1  0
 11 10  1  0
 11 12  1  6
 12 13  1  0
 13 17  1  0
 14 13  2  0
 15 16  2  0
 15 11  1  0
 18 15  1  0
 19 18  1  0
 19 20  1  6
 20 21  1  0
 21 26  2  0
 21 22  1  0
 22 23  2  0
 23 24  1  0
 25 24  2  0
 26 25  1  0
 27 28  1  0
 27 19  1  0
 29 27  2  0
M  END
$$$$
