KDF.pdb
     RDKit          3D

 29 29  0  0  1  0  0  0  0  0999 V2000
    9.8553  -13.1820   19.0916 N   0  0  0  0  0  0  0  0  0  0  0  0
    8.4595  -13.4022   19.5019 C   0  0  1  0  0  0  0  0  0  0  0  0
    7.6643  -13.6363   18.2357 C   0  0  0  0  0  0  0  0  0  0  0  0
    8.4132  -14.4114   17.2140 C   0  0  0  0  0  0  0  0  0  0  0  0
    7.7204  -14.5931   15.9078 C   0  0  0  0  0  0  0  0  0  0  0  0
    8.4471  -15.4923   14.9466 C   0  0  0  0  0  0  0  0  0  0  0  0
    7.7322  -15.6002   13.6897 N   0  0  0  0  0  0  0  0  0  0  0  0
    8.4822  -14.6088   20.3679 C   0  0  0  0  0  0  0  0  0  0  0  0
    7.4759  -15.1164   20.8947 O   0  0  0  0  0  0  0  0  0  0  0  0
    9.7565  -15.2394   20.6188 N   0  0  0  0  0  0  0  0  0  0  0  0
    9.8636  -16.3619   21.5246 C   0  0  1  0  0  0  0  0  0  0  0  0
   11.0757  -17.1985   21.2269 C   0  0  0  0  0  0  0  0  0  0  0  0
   10.9910  -17.8486   19.9005 C   0  0  0  0  0  0  0  0  0  0  0  0
   11.8387  -17.6665   18.9951 O   0  0  0  0  0  0  0  0  0  0  0  0
    9.9240  -15.9283   22.9398 C   0  0  0  0  0  0  0  0  0  0  0  0
   10.7406  -15.0634   23.3459 O   0  0  0  0  0  0  0  0  0  0  0  0
    9.9304  -18.7011   19.6329 O   0  0  0  0  0  0  0  0  0  0  0  0
    9.0380  -16.4941   23.8957 N   0  0  0  0  0  0  0  0  0  0  0  0
    8.5810  -15.7654   25.0488 C   0  0  1  0  0  0  0  0  0  0  0  0
    7.8984  -14.4932   24.5750 C   0  0  0  0  0  0  0  0  0  0  0  0
    7.4564  -13.6499   25.6874 C   0  0  0  0  0  0  0  0  0  0  0  0
    6.1224  -13.3347   25.8234 C   0  0  0  0  0  0  0  0  0  0  0  0
    5.6647  -12.5489   26.8490 C   0  0  0  0  0  0  0  0  0  0  0  0
    6.5413  -12.0519   27.7766 C   0  0  0  0  0  0  0  0  0  0  0  0
    7.8789  -12.3680   27.6402 C   0  0  0  0  0  0  0  0  0  0  0  0
    8.3428  -13.1547   26.6149 C   0  0  0  0  0  0  0  0  0  0  0  0
    7.6787  -16.5832   25.8754 C   0  0  0  0  0  0  0  0  0  0  0  0
    7.9369  -16.6920   27.2314 O   0  0  0  0  0  0  0  0  0  0  0  0
    6.6827  -17.1950   25.4359 O   0  0  0  0  0  0  0  0  0  0  0  0
  2  1  1  6
  2  3  1  0
  4  3  1  0
  4  5  1  0
  6  7  1  0
  6  5  1  0
  8  2  1  0
  9  8  2  0
 10  8  1  0
 11 10  1  0
 11 12  1  6
 12 13  1  0
 13 17  1  0
 14 13  2  0
 15 16  2  0
 15 11  1  0
 18 15  1  0
 19 18  1  0
 19 20  1  6
 20 21  1  0
 21 26  2  0
 21 22  1  0
 22 23  2  0
 23 24  1  0
 25 24  2  0
 26 25  1  0
 27 28  1  0
 27 19  1  0
 29 27  2  0
M  END
$$$$
