KDF.pdb
     RDKit          3D

 29 29  0  0  1  0  0  0  0  0999 V2000
    9.5953  -13.9123   19.5934 N   0  0  0  0  0  0  0  0  0  0  0  0
    8.4474  -13.7363   20.4969 C   0  0  1  0  0  0  0  0  0  0  0  0
    7.2005  -13.9107   19.6572 C   0  0  0  0  0  0  0  0  0  0  0  0
    7.3083  -13.2776   18.3182 C   0  0  0  0  0  0  0  0  0  0  0  0
    7.2492  -14.2102   17.1581 C   0  0  0  0  0  0  0  0  0  0  0  0
    7.2696  -13.5273   15.8188 C   0  0  0  0  0  0  0  0  0  0  0  0
    7.2049  -14.4927   14.7388 N   0  0  0  0  0  0  0  0  0  0  0  0
    8.5754  -14.8055   21.5200 C   0  0  0  0  0  0  0  0  0  0  0  0
    7.6448  -15.2022   22.2442 O   0  0  0  0  0  0  0  0  0  0  0  0
    9.8657  -15.4305   21.6898 N   0  0  0  0  0  0  0  0  0  0  0  0
   10.0325  -16.5594   22.5783 C   0  0  1  0  0  0  0  0  0  0  0  0
   11.2830  -17.3307   22.2633 C   0  0  0  0  0  0  0  0  0  0  0  0
   11.4103  -18.5478   23.0949 C   0  0  0  0  0  0  0  0  0  0  0  0
   10.4807  -19.3760   23.2404 O   0  0  0  0  0  0  0  0  0  0  0  0
   10.0783  -16.1441   23.9996 C   0  0  0  0  0  0  0  0  0  0  0  0
   10.9347  -15.3356   24.4386 O   0  0  0  0  0  0  0  0  0  0  0  0
   12.6076  -18.7964   23.7491 O   0  0  0  0  0  0  0  0  0  0  0  0
    9.1316  -16.6630   24.9233 N   0  0  0  0  0  0  0  0  0  0  0  0
    9.1352  -16.3010   26.3156 C   0  0  1  0  0  0  0  0  0  0  0  0
    7.7276  -15.8849   26.7086 C   0  0  0  0  0  0  0  0  0  0  0  0
    7.4760  -14.4641   26.4594 C   0  0  0  0  0  0  0  0  0  0  0  0
    6.5449  -14.0855   25.5175 C   0  0  0  0  0  0  0  0  0  0  0  0
    6.2778  -12.7676   25.2520 C   0  0  0  0  0  0  0  0  0  0  0  0
    6.9439  -11.7821   25.9309 C   0  0  0  0  0  0  0  0  0  0  0  0
    7.8774  -12.1616   26.8754 C   0  0  0  0  0  0  0  0  0  0  0  0
    8.1490  -13.4802   27.1453 C   0  0  0  0  0  0  0  0  0  0  0  0
    9.6222  -17.4076   27.1548 C   0  0  0  0  0  0  0  0  0  0  0  0
    9.9526  -18.6065   26.5460 O   0  0  0  0  0  0  0  0  0  0  0  0
    9.7611  -17.3425   28.3942 O   0  0  0  0  0  0  0  0  0  0  0  0
  2  1  1  6
  2  3  1  0
  4  3  1  0
  4  5  1  0
  6  7  1  0
  6  5  1  0
  8  2  1  0
  9  8  2  0
 10  8  1  0
 11 10  1  0
 11 12  1  6
 12 13  1  0
 13 17  1  0
 14 13  2  0
 15 16  2  0
 15 11  1  0
 18 15  1  0
 19 18  1  0
 19 20  1  1
 20 21  1  0
 21 26  2  0
 21 22  1  0
 22 23  2  0
 23 24  1  0
 25 24  2  0
 26 25  1  0
 27 28  1  0
 27 19  1  0
 29 27  2  0
M  END
$$$$
