KDF.pdb
     RDKit          3D

 29 29  0  0  1  0  0  0  0  0999 V2000
    7.3279  -16.4028   19.8224 N   0  0  0  0  0  0  0  0  0  0  0  0
    8.2785  -15.5468   20.5494 C   0  0  1  0  0  0  0  0  0  0  0  0
    7.5467  -14.2636   20.8783 C   0  0  0  0  0  0  0  0  0  0  0  0
    7.1677  -13.4851   19.6717 C   0  0  0  0  0  0  0  0  0  0  0  0
    8.3020  -12.9748   18.8519 C   0  0  0  0  0  0  0  0  0  0  0  0
    7.8865  -12.0791   17.7180 C   0  0  0  0  0  0  0  0  0  0  0  0
    7.8824  -12.7980   16.4587 N   0  0  0  0  0  0  0  0  0  0  0  0
    8.6414  -16.3027   21.7755 C   0  0  0  0  0  0  0  0  0  0  0  0
    7.8281  -16.9099   22.4949 O   0  0  0  0  0  0  0  0  0  0  0  0
   10.0316  -16.3383   22.1634 N   0  0  0  0  0  0  0  0  0  0  0  0
   10.4741  -17.1657   23.2640 C   0  0  1  0  0  0  0  0  0  0  0  0
   11.8755  -17.6647   23.0517 C   0  0  0  0  0  0  0  0  0  0  0  0
   12.2814  -18.6406   24.0870 C   0  0  0  0  0  0  0  0  0  0  0  0
   11.4581  -19.2832   24.7803 O   0  0  0  0  0  0  0  0  0  0  0  0
   10.4197  -16.4442   24.5567 C   0  0  0  0  0  0  0  0  0  0  0  0
   11.0757  -15.3936   24.7708 O   0  0  0  0  0  0  0  0  0  0  0  0
   13.6315  -18.8647   24.3114 O   0  0  0  0  0  0  0  0  0  0  0  0
    9.6044  -16.9351   25.6117 N   0  0  0  0  0  0  0  0  0  0  0  0
    9.5528  -16.3037   26.9034 C   0  0  1  0  0  0  0  0  0  0  0  0
    8.1140  -15.9066   27.1881 C   0  0  0  0  0  0  0  0  0  0  0  0
    7.8236  -14.5312   26.7782 C   0  0  0  0  0  0  0  0  0  0  0  0
    6.6884  -14.2567   26.0477 C   0  0  0  0  0  0  0  0  0  0  0  0
    6.3776  -12.9845   25.6430 C   0  0  0  0  0  0  0  0  0  0  0  0
    7.2051  -11.9411   25.9630 C   0  0  0  0  0  0  0  0  0  0  0  0
    8.3433  -12.2164   26.6955 C   0  0  0  0  0  0  0  0  0  0  0  0
    8.6595  -13.4887   27.1034 C   0  0  0  0  0  0  0  0  0  0  0  0
   10.0836  -17.1886   27.9528 C   0  0  0  0  0  0  0  0  0  0  0  0
   10.2547  -16.6773   29.2282 O   0  0  0  0  0  0  0  0  0  0  0  0
   10.3953  -18.3846   27.7737 O   0  0  0  0  0  0  0  0  0  0  0  0
  2  1  1  6
  2  3  1  0
  4  3  1  0
  4  5  1  0
  6  7  1  0
  6  5  1  0
  8  2  1  0
  9  8  2  0
 10  8  1  0
 11 10  1  0
 11 12  1  6
 12 13  1  0
 13 17  1  0
 14 13  2  0
 15 16  2  0
 15 11  1  0
 18 15  1  0
 19 18  1  0
 19 20  1  1
 20 21  1  0
 21 26  2  0
 21 22  1  0
 22 23  2  0
 23 24  1  0
 25 24  2  0
 26 25  1  0
 27 28  1  0
 27 19  1  0
 29 27  2  0
M  END
$$$$
