KDF.pdb
     RDKit          3D

 29 29  0  0  1  0  0  0  0  0999 V2000
    7.0347  -17.9067   19.7091 N   0  0  0  0  0  0  0  0  0  0  0  0
    6.7897  -17.6709   21.1407 C   0  0  1  0  0  0  0  0  0  0  0  0
    5.8838  -18.7854   21.6176 C   0  0  0  0  0  0  0  0  0  0  0  0
    6.1919  -20.0946   20.9877 C   0  0  0  0  0  0  0  0  0  0  0  0
    5.0264  -20.9981   20.7770 C   0  0  0  0  0  0  0  0  0  0  0  0
    5.3743  -22.3086   20.1274 C   0  0  0  0  0  0  0  0  0  0  0  0
    4.2195  -23.1833   20.0639 N   0  0  0  0  0  0  0  0  0  0  0  0
    8.1240  -17.7307   21.7906 C   0  0  0  0  0  0  0  0  0  0  0  0
    8.7065  -18.7834   22.1073 O   0  0  0  0  0  0  0  0  0  0  0  0
    8.7952  -16.4848   22.0766 N   0  0  0  0  0  0  0  0  0  0  0  0
   10.0852  -16.4698   22.7305 C   0  0  1  0  0  0  0  0  0  0  0  0
   10.9873  -15.4182   22.1490 C   0  0  0  0  0  0  0  0  0  0  0  0
   11.6727  -15.8882   20.9248 C   0  0  0  0  0  0  0  0  0  0  0  0
   12.2405  -17.0029   20.8451 O   0  0  0  0  0  0  0  0  0  0  0  0
    9.9650  -16.2363   24.1885 C   0  0  0  0  0  0  0  0  0  0  0  0
   10.9574  -15.9721   24.9132 O   0  0  0  0  0  0  0  0  0  0  0  0
   11.6959  -15.0680   19.8068 O   0  0  0  0  0  0  0  0  0  0  0  0
    8.6932  -16.3071   24.8178 N   0  0  0  0  0  0  0  0  0  0  0  0
    8.5351  -16.2362   26.2460 C   0  0  1  0  0  0  0  0  0  0  0  0
    7.1492  -15.6930   26.5508 C   0  0  0  0  0  0  0  0  0  0  0  0
    7.1013  -14.2302   26.5066 C   0  0  0  0  0  0  0  0  0  0  0  0
    8.2716  -13.5036   26.5095 C   0  0  0  0  0  0  0  0  0  0  0  0
    8.2736  -12.1336   26.4692 C   0  0  0  0  0  0  0  0  0  0  0  0
    7.0896  -11.4466   26.4244 C   0  0  0  0  0  0  0  0  0  0  0  0
    5.9162  -12.1751   26.4215 C   0  0  0  0  0  0  0  0  0  0  0  0
    5.9083  -13.5476   26.4617 C   0  0  0  0  0  0  0  0  0  0  0  0
    8.7469  -17.5506   26.8735 C   0  0  0  0  0  0  0  0  0  0  0  0
    8.7426  -18.6781   26.0699 O   0  0  0  0  0  0  0  0  0  0  0  0
    8.9329  -17.7250   28.0961 O   0  0  0  0  0  0  0  0  0  0  0  0
  2  1  1  6
  2  3  1  0
  4  3  1  0
  4  5  1  0
  6  7  1  0
  6  5  1  0
  8  2  1  0
  9  8  2  0
 10  8  1  0
 11 10  1  0
 11 12  1  6
 12 13  1  0
 13 17  1  0
 14 13  2  0
 15 16  2  0
 15 11  1  0
 18 15  1  0
 19 18  1  0
 19 20  1  6
 20 21  1  0
 21 26  2  0
 21 22  1  0
 22 23  2  0
 23 24  1  0
 25 24  2  0
 26 25  1  0
 27 28  1  0
 27 19  1  0
 29 27  2  0
M  END
$$$$
