KDF.pdb
     RDKit          3D

 29 29  0  0  1  0  0  0  0  0999 V2000
   10.1003  -14.2126   19.8573 N   0  0  0  0  0  0  0  0  0  0  0  0
    8.7591  -13.8331   20.3286 C   0  0  1  0  0  0  0  0  0  0  0  0
    7.8056  -14.0859   19.1808 C   0  0  0  0  0  0  0  0  0  0  0  0
    8.4871  -14.1525   17.8630 C   0  0  0  0  0  0  0  0  0  0  0  0
    7.6541  -13.7744   16.6873 C   0  0  0  0  0  0  0  0  0  0  0  0
    8.3240  -14.0024   15.3607 C   0  0  0  0  0  0  0  0  0  0  0  0
    7.4992  -13.5217   14.2693 N   0  0  0  0  0  0  0  0  0  0  0  0
    8.4750  -14.7206   21.4852 C   0  0  0  0  0  0  0  0  0  0  0  0
    7.3821  -14.7780   22.0770 O   0  0  0  0  0  0  0  0  0  0  0  0
    9.5361  -15.5772   21.9593 N   0  0  0  0  0  0  0  0  0  0  0  0
    9.3100  -16.5089   23.0422 C   0  0  1  0  0  0  0  0  0  0  0  0
   10.4534  -17.4726   23.1898 C   0  0  0  0  0  0  0  0  0  0  0  0
   10.1176  -18.6012   24.0857 C   0  0  0  0  0  0  0  0  0  0  0  0
    9.0106  -19.1888   24.0587 O   0  0  0  0  0  0  0  0  0  0  0  0
    9.1052  -15.8163   24.3357 C   0  0  0  0  0  0  0  0  0  0  0  0
    8.3801  -14.7956   24.4467 O   0  0  0  0  0  0  0  0  0  0  0  0
   11.0615  -19.0396   25.0024 O   0  0  0  0  0  0  0  0  0  0  0  0
    9.7394  -16.3016   25.5108 N   0  0  0  0  0  0  0  0  0  0  0  0
    9.5238  -15.7086   26.8037 C   0  0  1  0  0  0  0  0  0  0  0  0
    8.0285  -15.5357   27.0109 C   0  0  0  0  0  0  0  0  0  0  0  0
    7.5858  -14.1626   26.7603 C   0  0  0  0  0  0  0  0  0  0  0  0
    6.4650  -13.9306   25.9939 C   0  0  0  0  0  0  0  0  0  0  0  0
    6.0152  -12.6622   25.7340 C   0  0  0  0  0  0  0  0  0  0  0  0
    6.6838  -11.5797   26.2407 C   0  0  0  0  0  0  0  0  0  0  0  0
    7.8076  -11.8123   27.0093 C   0  0  0  0  0  0  0  0  0  0  0  0
    8.2627  -13.0807   27.2728 C   0  0  0  0  0  0  0  0  0  0  0  0
   10.1236  -16.5234   27.8726 C   0  0  0  0  0  0  0  0  0  0  0  0
   10.2673  -17.8852   27.6677 O   0  0  0  0  0  0  0  0  0  0  0  0
   10.5179  -16.0687   28.9669 O   0  0  0  0  0  0  0  0  0  0  0  0
  2  1  1  6
  2  3  1  0
  4  3  1  0
  4  5  1  0
  6  7  1  0
  6  5  1  0
  8  2  1  0
  9  8  2  0
 10  8  1  0
 11 10  1  0
 11 12  1  1
 12 13  1  0
 13 17  1  0
 14 13  2  0
 15 16  2  0
 15 11  1  0
 18 15  1  0
 19 18  1  0
 19 20  1  1
 20 21  1  0
 21 26  2  0
 21 22  1  0
 22 23  2  0
 23 24  1  0
 25 24  2  0
 26 25  1  0
 27 28  1  0
 27 19  1  0
 29 27  2  0
M  END
$$$$
