KDF.pdb
     RDKit          3D

 29 29  0  0  1  0  0  0  0  0999 V2000
    9.7831  -13.5293   20.2813 N   0  0  0  0  0  0  0  0  0  0  0  0
    8.4272  -13.7169   20.8209 C   0  0  1  0  0  0  0  0  0  0  0  0
    7.5151  -13.9530   19.6366 C   0  0  0  0  0  0  0  0  0  0  0  0
    8.2038  -13.7901   18.3310 C   0  0  0  0  0  0  0  0  0  0  0  0
    7.3601  -14.0188   17.1248 C   0  0  0  0  0  0  0  0  0  0  0  0
    8.1017  -13.8922   15.8231 C   0  0  0  0  0  0  0  0  0  0  0  0
    7.2357  -14.1852   14.6976 N   0  0  0  0  0  0  0  0  0  0  0  0
    8.5076  -14.9116   21.6998 C   0  0  0  0  0  0  0  0  0  0  0  0
    7.5224  -15.4994   22.1811 O   0  0  0  0  0  0  0  0  0  0  0  0
    9.8162  -15.4304   22.0207 N   0  0  0  0  0  0  0  0  0  0  0  0
    9.9700  -16.5491   22.9243 C   0  0  1  0  0  0  0  0  0  0  0  0
   11.2087  -17.3420   22.6165 C   0  0  0  0  0  0  0  0  0  0  0  0
   11.1858  -17.9001   21.2464 C   0  0  0  0  0  0  0  0  0  0  0  0
   10.3404  -18.7443   20.8667 O   0  0  0  0  0  0  0  0  0  0  0  0
   10.0260  -16.1149   24.3396 C   0  0  0  0  0  0  0  0  0  0  0  0
   10.9148  -15.3384   24.7721 O   0  0  0  0  0  0  0  0  0  0  0  0
   12.1374  -17.4789   20.3297 O   0  0  0  0  0  0  0  0  0  0  0  0
    9.0520  -16.5774   25.2648 N   0  0  0  0  0  0  0  0  0  0  0  0
    9.0714  -16.2058   26.6545 C   0  0  1  0  0  0  0  0  0  0  0  0
    7.6650  -15.8027   27.0649 C   0  0  0  0  0  0  0  0  0  0  0  0
    7.2866  -14.4884   26.5421 C   0  0  0  0  0  0  0  0  0  0  0  0
    7.8852  -13.3520   27.0401 C   0  0  0  0  0  0  0  0  0  0  0  0
    7.5615  -12.1020   26.5802 C   0  0  0  0  0  0  0  0  0  0  0  0
    6.6186  -11.9551   25.5978 C   0  0  0  0  0  0  0  0  0  0  0  0
    6.0184  -13.0945   25.0985 C   0  0  0  0  0  0  0  0  0  0  0  0
    6.3388  -14.3490   25.5555 C   0  0  0  0  0  0  0  0  0  0  0  0
    9.5829  -17.3011   27.4940 C   0  0  0  0  0  0  0  0  0  0  0  0
    9.8745  -17.0389   28.8219 O   0  0  0  0  0  0  0  0  0  0  0  0
    9.7758  -18.4667   27.0894 O   0  0  0  0  0  0  0  0  0  0  0  0
  2  1  1  6
  2  3  1  0
  4  3  1  0
  4  5  1  0
  6  7  1  0
  6  5  1  0
  8  2  1  0
  9  8  2  0
 10  8  1  0
 11 10  1  0
 11 12  1  6
 12 13  1  0
 13 17  1  0
 14 13  2  0
 15 16  2  0
 15 11  1  0
 18 15  1  0
 19 18  1  0
 19 20  1  1
 20 21  1  0
 21 26  2  0
 21 22  1  0
 22 23  2  0
 23 24  1  0
 25 24  2  0
 26 25  1  0
 27 28  1  0
 27 19  1  0
 29 27  2  0
M  END
$$$$
