KDF.pdb
     RDKit          3D

 29 29  0  0  1  0  0  0  0  0999 V2000
    8.4955  -16.0963   19.0652 N   0  0  0  0  0  0  0  0  0  0  0  0
    8.6248  -14.9311   19.9542 C   0  0  1  0  0  0  0  0  0  0  0  0
    7.4537  -14.0209   19.6536 C   0  0  0  0  0  0  0  0  0  0  0  0
    7.1649  -13.9057   18.2015 C   0  0  0  0  0  0  0  0  0  0  0  0
    8.2377  -13.2794   17.3792 C   0  0  0  0  0  0  0  0  0  0  0  0
    7.8935  -13.1410   15.9222 C   0  0  0  0  0  0  0  0  0  0  0  0
    8.8998  -12.3698   15.2184 N   0  0  0  0  0  0  0  0  0  0  0  0
    8.5602  -15.4723   21.3360 C   0  0  0  0  0  0  0  0  0  0  0  0
    8.2071  -14.8172   22.3330 O   0  0  0  0  0  0  0  0  0  0  0  0
    8.9314  -16.8523   21.5416 N   0  0  0  0  0  0  0  0  0  0  0  0
    8.8971  -17.4412   22.8622 C   0  0  1  0  0  0  0  0  0  0  0  0
    9.2111  -18.9101   22.8205 C   0  0  0  0  0  0  0  0  0  0  0  0
    8.3205  -19.6433   21.8940 C   0  0  0  0  0  0  0  0  0  0  0  0
    8.7464  -20.3113   20.9225 O   0  0  0  0  0  0  0  0  0  0  0  0
    9.8459  -16.7808   23.7885 C   0  0  0  0  0  0  0  0  0  0  0  0
   11.0729  -16.6771   23.5362 O   0  0  0  0  0  0  0  0  0  0  0  0
    6.9495  -19.5982   22.0979 O   0  0  0  0  0  0  0  0  0  0  0  0
    9.3798  -16.2352   25.0148 N   0  0  0  0  0  0  0  0  0  0  0  0
   10.2735  -15.7288   26.0220 C   0  0  1  0  0  0  0  0  0  0  0  0
   10.3768  -14.2215   25.8603 C   0  0  0  0  0  0  0  0  0  0  0  0
    9.0817  -13.5547   26.0085 C   0  0  0  0  0  0  0  0  0  0  0  0
    8.2167  -13.4869   24.9386 C   0  0  0  0  0  0  0  0  0  0  0  0
    6.9950  -12.8726   25.0326 C   0  0  0  0  0  0  0  0  0  0  0  0
    6.6025  -12.3031   26.2147 C   0  0  0  0  0  0  0  0  0  0  0  0
    7.4697  -12.3710   27.2875 C   0  0  0  0  0  0  0  0  0  0  0  0
    8.6946  -12.9851   27.1989 C   0  0  0  0  0  0  0  0  0  0  0  0
    9.8187  -16.0942   27.3733 C   0  0  0  0  0  0  0  0  0  0  0  0
   10.6353  -15.7970   28.4513 O   0  0  0  0  0  0  0  0  0  0  0  0
    8.7340  -16.6610   27.6214 O   0  0  0  0  0  0  0  0  0  0  0  0
  2  1  1  6
  2  3  1  0
  4  3  1  0
  4  5  1  0
  6  7  1  0
  6  5  1  0
  8  2  1  0
  9  8  2  0
 10  8  1  0
 11 10  1  0
 11 12  1  6
 12 13  1  0
 13 17  1  0
 14 13  2  0
 15 16  2  0
 15 11  1  0
 18 15  1  0
 19 18  1  0
 19 20  1  1
 20 21  1  0
 21 26  2  0
 21 22  1  0
 22 23  2  0
 23 24  1  0
 25 24  2  0
 26 25  1  0
 27 28  1  0
 27 19  1  0
 29 27  2  0
M  END
$$$$
