KDF.pdb
     RDKit          3D

 29 29  0  0  1  0  0  0  0  0999 V2000
    8.9920  -16.6388   18.3707 N   0  0  0  0  0  0  0  0  0  0  0  0
    7.8755  -16.7748   19.3192 C   0  0  1  0  0  0  0  0  0  0  0  0
    7.0148  -17.9149   18.8194 C   0  0  0  0  0  0  0  0  0  0  0  0
    7.4991  -18.4906   17.5389 C   0  0  0  0  0  0  0  0  0  0  0  0
    6.6919  -19.6175   16.9933 C   0  0  0  0  0  0  0  0  0  0  0  0
    7.2249  -20.1900   15.7093 C   0  0  0  0  0  0  0  0  0  0  0  0
    6.4459  -21.3372   15.2855 N   0  0  0  0  0  0  0  0  0  0  0  0
    8.4993  -17.0904   20.6297 C   0  0  0  0  0  0  0  0  0  0  0  0
    7.8659  -17.3997   21.6549 O   0  0  0  0  0  0  0  0  0  0  0  0
    9.9388  -17.0358   20.7261 N   0  0  0  0  0  0  0  0  0  0  0  0
   10.6074  -17.2625   21.9884 C   0  0  1  0  0  0  0  0  0  0  0  0
   12.0937  -17.3940   21.8108 C   0  0  0  0  0  0  0  0  0  0  0  0
   12.4578  -18.6110   21.0522 C   0  0  0  0  0  0  0  0  0  0  0  0
   11.8377  -19.6950   21.1612 O   0  0  0  0  0  0  0  0  0  0  0  0
   10.3414  -16.1759   22.9595 C   0  0  0  0  0  0  0  0  0  0  0  0
   11.0249  -15.1216   22.9958 O   0  0  0  0  0  0  0  0  0  0  0  0
   13.5323  -18.5647   20.1767 O   0  0  0  0  0  0  0  0  0  0  0  0
    9.2808  -16.3029   23.8964 N   0  0  0  0  0  0  0  0  0  0  0  0
    8.9668  -15.2718   24.8493 C   0  0  1  0  0  0  0  0  0  0  0  0
    7.8972  -14.3732   24.2514 C   0  0  0  0  0  0  0  0  0  0  0  0
    7.4747  -13.3185   25.1751 C   0  0  0  0  0  0  0  0  0  0  0  0
    8.3265  -12.2750   25.4632 C   0  0  0  0  0  0  0  0  0  0  0  0
    7.9724  -11.2669   26.3217 C   0  0  0  0  0  0  0  0  0  0  0  0
    6.7413  -11.2772   26.9216 C   0  0  0  0  0  0  0  0  0  0  0  0
    5.8871  -12.3235   26.6327 C   0  0  0  0  0  0  0  0  0  0  0  0
    6.2366  -13.3359   25.7736 C   0  0  0  0  0  0  0  0  0  0  0  0
    8.5311  -15.8446   26.1331 C   0  0  0  0  0  0  0  0  0  0  0  0
    8.9728  -15.2565   27.3062 O   0  0  0  0  0  0  0  0  0  0  0  0
    7.7810  -16.8371   26.2425 O   0  0  0  0  0  0  0  0  0  0  0  0
  2  1  1  6
  2  3  1  0
  4  3  1  0
  4  5  1  0
  6  7  1  0
  6  5  1  0
  8  2  1  0
  9  8  2  0
 10  8  1  0
 11 10  1  0
 11 12  1  6
 12 13  1  0
 13 17  1  0
 14 13  2  0
 15 16  2  0
 15 11  1  0
 18 15  1  0
 19 18  1  0
 19 20  1  6
 20 21  1  0
 21 26  2  0
 21 22  1  0
 22 23  2  0
 23 24  1  0
 25 24  2  0
 26 25  1  0
 27 28  1  0
 27 19  1  0
 29 27  2  0
M  END
$$$$
