KDF.pdb
     RDKit          3D

 29 29  0  0  1  0  0  0  0  0999 V2000
    6.5538  -17.3115   21.7598 N   0  0  0  0  0  0  0  0  0  0  0  0
    7.8988  -16.7166   21.7177 C   0  0  1  0  0  0  0  0  0  0  0  0
    7.7103  -15.2185   21.6161 C   0  0  0  0  0  0  0  0  0  0  0  0
    7.8218  -14.7117   20.2246 C   0  0  0  0  0  0  0  0  0  0  0  0
    7.8174  -13.2293   20.0768 C   0  0  0  0  0  0  0  0  0  0  0  0
    7.9346  -12.7531   18.6555 C   0  0  0  0  0  0  0  0  0  0  0  0
    7.9968  -11.3058   18.5927 N   0  0  0  0  0  0  0  0  0  0  0  0
    8.5483  -17.1037   22.9962 C   0  0  0  0  0  0  0  0  0  0  0  0
    7.9501  -17.5987   23.9682 O   0  0  0  0  0  0  0  0  0  0  0  0
    9.9709  -16.8933   23.1249 N   0  0  0  0  0  0  0  0  0  0  0  0
   10.6867  -17.3551   24.2938 C   0  0  1  0  0  0  0  0  0  0  0  0
   12.1316  -17.6281   23.9848 C   0  0  0  0  0  0  0  0  0  0  0  0
   12.8353  -18.2560   25.1249 C   0  0  0  0  0  0  0  0  0  0  0  0
   12.3416  -19.1875   25.8031 O   0  0  0  0  0  0  0  0  0  0  0  0
   10.6170  -16.3805   25.4074 C   0  0  0  0  0  0  0  0  0  0  0  0
   11.1533  -15.2455   25.3447 O   0  0  0  0  0  0  0  0  0  0  0  0
   14.0998  -17.8031   25.4701 O   0  0  0  0  0  0  0  0  0  0  0  0
    9.9250  -16.7142   26.6025 N   0  0  0  0  0  0  0  0  0  0  0  0
   10.0342  -15.9268   27.8016 C   0  0  1  0  0  0  0  0  0  0  0  0
    8.6434  -15.4635   28.2017 C   0  0  0  0  0  0  0  0  0  0  0  0
    8.1496  -14.3806   27.3488 C   0  0  0  0  0  0  0  0  0  0  0  0
    8.7221  -13.1300   27.4247 C   0  0  0  0  0  0  0  0  0  0  0  0
    8.2915  -12.0878   26.6455 C   0  0  0  0  0  0  0  0  0  0  0  0
    7.2639  -12.2725   25.7592 C   0  0  0  0  0  0  0  0  0  0  0  0
    6.6898  -13.5264   25.6831 C   0  0  0  0  0  0  0  0  0  0  0  0
    7.1171  -14.5739   26.4611 C   0  0  0  0  0  0  0  0  0  0  0  0
   10.6791  -16.6874   28.8841 C   0  0  0  0  0  0  0  0  0  0  0  0
   10.9804  -16.0331   30.0666 O   0  0  0  0  0  0  0  0  0  0  0  0
   10.9787  -17.8976   28.8121 O   0  0  0  0  0  0  0  0  0  0  0  0
  2  1  1  1
  2  3  1  0
  4  3  1  0
  4  5  1  0
  6  7  1  0
  6  5  1  0
  8  2  1  0
  9  8  2  0
 10  8  1  0
 11 10  1  0
 11 12  1  6
 12 13  1  0
 13 17  1  0
 14 13  2  0
 15 16  2  0
 15 11  1  0
 18 15  1  0
 19 18  1  0
 19 20  1  1
 20 21  1  0
 21 26  2  0
 21 22  1  0
 22 23  2  0
 23 24  1  0
 25 24  2  0
 26 25  1  0
 27 28  1  0
 27 19  1  0
 29 27  2  0
M  END
$$$$
