NRQ.pdb
     RDKit          3D

 29 28  0  0  1  0  0  0  0  0999 V2000
   18.1877  -14.8084   18.4355 N   0  0  0  0  0  0  0  0  0  0  0  0
   17.3743  -13.7048   18.0592 C   0  0  0  0  0  0  0  0  0  0  0  0
   17.8626  -12.6731   17.5090 O   0  0  0  0  0  0  0  0  0  0  0  0
   15.9095  -13.7409   18.3081 C   0  0  0  0  0  0  0  0  0  0  0  0
   15.5198  -15.0146   19.0346 C   0  0  2  0  0  0  0  0  0  0  0  0
   15.1821  -15.9750   17.9897 N   0  0  0  0  0  0  0  0  0  0  0  0
   14.3414  -14.7826   19.8675 C   0  0  0  0  0  0  0  0  0  0  0  0
   14.4222  -13.9864   20.8435 O   0  0  0  0  0  0  0  0  0  0  0  0
    6.1060  -13.7967   19.8825 N   0  0  0  0  0  0  0  0  0  0  0  0
    7.2505  -12.9522   19.8921 C   0  0  0  0  0  0  0  0  0  0  0  0
    7.0800  -11.6806   19.9769 N   0  0  0  0  0  0  0  0  0  0  0  0
    8.5284  -13.5616   19.8066 N   0  0  0  0  0  0  0  0  0  0  0  0
    8.9022  -14.0819   18.4644 C   0  0  0  0  0  0  0  0  0  0  0  0
   10.2441  -14.7169   18.5631 C   0  0  0  0  0  0  0  0  0  0  0  0
   10.6033  -15.3885   19.8104 C   0  0  0  0  0  0  0  0  0  0  0  0
   11.9396  -15.2623   20.4155 C   0  0  2  0  0  0  0  0  0  0  0  0
   13.0834  -15.4461   19.5978 N   0  0  0  0  0  0  0  0  0  0  0  0
   12.0666  -16.0150   21.7129 C   0  0  0  0  0  0  0  0  0  0  0  0
   12.7489  -17.0597   21.6995 O   0  0  0  0  0  0  0  0  0  0  0  0
    7.8894  -11.0281   19.9977 N   0  0  0  0  0  0  0  0  0  0  0  0
   10.3994  -13.9626   27.6548 C   0  0  0  0  0  0  0  0  0  0  0  0
   10.9056  -15.2801   27.8069 O   0  0  0  0  0  0  0  0  0  0  0  0
   11.0266  -15.7120   28.9821 C   0  0  0  0  0  0  0  0  0  0  0  0
   11.2774  -16.1179   26.6665 C   0  0  0  0  0  0  0  0  0  0  0  0
   11.1865  -15.4867   25.3315 C   0  0  2  0  0  0  0  0  0  0  0  0
   11.5514  -16.3389   24.1587 N   0  0  0  0  0  0  0  0  0  0  0  0
   11.4503  -15.5786   22.9076 C   0  0  0  0  0  0  0  0  0  0  0  0
   10.6278  -17.4853   24.0516 O   0  0  0  0  0  0  0  0  0  0  0  0
   10.5933  -18.3392   24.9613 O   0  0  0  0  0  0  0  0  0  0  0  0
  1  2  1  0
  2  3  2  0
  4  5  1  0
  4  2  1  0
  5  7  1  0
  5  6  1  6
  7  8  2  0
 10 12  1  0
 10  9  1  0
 11 10  2  0
 13 14  1  0
 13 12  1  0
 14 15  1  0
 16 15  1  6
 17 16  1  0
 17  7  1  0
 18 19  2  0
 18 16  1  0
 20 21  1  0
 21 22  2  0
 23 21  1  0
 23 24  1  0
 25 24  1  1
 25 27  1  0
 25 26  1  0
 26 18  1  0
 27 29  1  0
 28 27  2  0
M  END
$$$$
