NRQ.pdb
     RDKit          3D

 29 28  0  0  1  0  0  0  0  0999 V2000
   11.1834  -17.7475   14.7273 N   0  0  0  0  0  0  0  0  0  0  0  0
   12.1893  -18.1308   15.6558 C   0  0  0  0  0  0  0  0  0  0  0  0
   13.1102  -18.9434   15.3442 O   0  0  0  0  0  0  0  0  0  0  0  0
   12.1801  -17.5755   17.0344 C   0  0  0  0  0  0  0  0  0  0  0  0
   10.9700  -16.6850   17.2462 C   0  0  2  0  0  0  0  0  0  0  0  0
   11.2198  -15.4873   16.4518 N   0  0  0  0  0  0  0  0  0  0  0  0
   10.8581  -16.3084   18.6540 C   0  0  0  0  0  0  0  0  0  0  0  0
   11.7513  -15.5824   19.1718 O   0  0  0  0  0  0  0  0  0  0  0  0
    7.9178  -12.5263   18.1268 N   0  0  0  0  0  0  0  0  0  0  0  0
    8.2119  -12.2918   19.4985 C   0  0  0  0  0  0  0  0  0  0  0  0
    8.6979  -11.1517   19.8406 N   0  0  0  0  0  0  0  0  0  0  0  0
    7.9521  -13.3355   20.4230 N   0  0  0  0  0  0  0  0  0  0  0  0
    7.4707  -14.6120   19.8305 C   0  0  0  0  0  0  0  0  0  0  0  0
    7.1811  -15.5642   20.9363 C   0  0  0  0  0  0  0  0  0  0  0  0
    8.2745  -16.3901   21.4444 C   0  0  0  0  0  0  0  0  0  0  0  0
    9.6135  -16.3865   20.8320 C   0  0  2  0  0  0  0  0  0  0  0  0
    9.7452  -16.7498   19.4677 N   0  0  0  0  0  0  0  0  0  0  0  0
   10.6472  -17.0728   21.6844 C   0  0  0  0  0  0  0  0  0  0  0  0
   10.9743  -18.2320   21.3581 O   0  0  0  0  0  0  0  0  0  0  0  0
    9.0545  -10.9841   20.8029 N   0  0  0  0  0  0  0  0  0  0  0  0
   15.6875  -14.2428   21.4835 C   0  0  0  0  0  0  0  0  0  0  0  0
   16.0028  -15.2008   22.4825 O   0  0  0  0  0  0  0  0  0  0  0  0
   17.1818  -15.1999   22.9210 C   0  0  0  0  0  0  0  0  0  0  0  0
   15.0210  -16.1565   22.9957 C   0  0  0  0  0  0  0  0  0  0  0  0
   13.6026  -15.8679   22.6895 C   0  0  2  0  0  0  0  0  0  0  0  0
   12.5867  -16.7984   23.2703 N   0  0  0  0  0  0  0  0  0  0  0  0
   11.2369  -16.4532   22.8095 C   0  0  0  0  0  0  0  0  0  0  0  0
   12.5861  -16.7012   24.7432 O   0  0  0  0  0  0  0  0  0  0  0  0
   11.7011  -16.0355   25.3189 O   0  0  0  0  0  0  0  0  0  0  0  0
  1  2  1  0
  2  3  2  0
  4  5  1  0
  4  2  1  0
  5  7  1  0
  5  6  1  6
  7  8  2  0
 10 12  1  0
 10  9  1  0
 11 10  2  0
 13 14  1  0
 13 12  1  0
 14 15  1  0
 16 15  1  1
 17 16  1  0
 17  7  1  0
 18 19  2  0
 18 16  1  0
 20 21  1  0
 21 22  2  0
 23 21  1  0
 23 24  1  0
 25 24  1  6
 25 27  1  0
 25 26  1  0
 26 18  1  0
 27 29  1  0
 28 27  2  0
M  END
$$$$
