NRQ.pdb
     RDKit          3D

 29 28  0  0  1  0  0  0  0  0999 V2000
   12.8007  -20.7294   19.4458 N   0  0  0  0  0  0  0  0  0  0  0  0
   12.5901  -19.5177   18.7328 C   0  0  0  0  0  0  0  0  0  0  0  0
   12.7827  -19.4367   17.4831 O   0  0  0  0  0  0  0  0  0  0  0  0
   12.1314  -18.3008   19.4525 C   0  0  0  0  0  0  0  0  0  0  0  0
   12.1343  -18.5312   20.9522 C   0  0  2  0  0  0  0  0  0  0  0  0
   11.0060  -19.4176   21.2156 N   0  0  0  0  0  0  0  0  0  0  0  0
   11.9241  -17.2693   21.6592 C   0  0  0  0  0  0  0  0  0  0  0  0
   12.9100  -16.5120   21.8769 O   0  0  0  0  0  0  0  0  0  0  0  0
    7.3688  -12.1545   19.9318 N   0  0  0  0  0  0  0  0  0  0  0  0
    7.5076  -13.1580   18.9334 C   0  0  0  0  0  0  0  0  0  0  0  0
    7.9584  -12.8217   17.7771 N   0  0  0  0  0  0  0  0  0  0  0  0
    7.1385  -14.4859   19.2681 N   0  0  0  0  0  0  0  0  0  0  0  0
    7.2823  -14.8490   20.7032 C   0  0  0  0  0  0  0  0  0  0  0  0
    8.6705  -14.5290   21.1325 C   0  0  0  0  0  0  0  0  0  0  0  0
    9.0911  -14.9289   22.4738 C   0  0  0  0  0  0  0  0  0  0  0  0
   10.3707  -15.6120   22.7262 C   0  0  2  0  0  0  0  0  0  0  0  0
   10.6099  -16.8690   22.1152 N   0  0  0  0  0  0  0  0  0  0  0  0
   10.7445  -15.6313   24.1843 C   0  0  0  0  0  0  0  0  0  0  0  0
   11.0271  -14.5369   24.7132 O   0  0  0  0  0  0  0  0  0  0  0  0
    8.1202  -13.5309   17.0341 N   0  0  0  0  0  0  0  0  0  0  0  0
    9.6722  -13.4762   28.4664 C   0  0  0  0  0  0  0  0  0  0  0  0
   10.0943  -14.6109   29.2076 O   0  0  0  0  0  0  0  0  0  0  0  0
   10.3305  -14.4369   30.4308 C   0  0  0  0  0  0  0  0  0  0  0  0
   10.2557  -15.9327   28.6015 C   0  0  0  0  0  0  0  0  0  0  0  0
   10.0825  -16.0070   27.1340 C   0  0  1  0  0  0  0  0  0  0  0  0
   11.0827  -16.8225   26.3795 N   0  0  0  0  0  0  0  0  0  0  0  0
   10.7810  -16.8230   24.9433 C   0  0  0  0  0  0  0  0  0  0  0  0
   11.0480  -18.2259   26.8358 O   0  0  0  0  0  0  0  0  0  0  0  0
   11.2788  -18.4931   28.0330 O   0  0  0  0  0  0  0  0  0  0  0  0
  1  2  1  0
  2  3  2  0
  4  5  1  0
  4  2  1  0
  5  7  1  0
  5  6  1  6
  7  8  2  0
 10 12  1  0
 10  9  1  0
 11 10  2  0
 13 14  1  0
 13 12  1  0
 14 15  1  0
 16 15  1  1
 17 16  1  0
 17  7  1  0
 18 19  2  0
 18 16  1  0
 20 21  1  0
 21 22  2  0
 23 21  1  0
 23 24  1  0
 25 24  1  6
 25 27  1  0
 25 26  1  0
 26 18  1  0
 27 29  1  0
 28 27  2  0
M  END
$$$$
