NRQ.pdb
     RDKit          3D

 29 28  0  0  1  0  0  0  0  0999 V2000
   11.4483  -22.7458   17.6495 N   0  0  0  0  0  0  0  0  0  0  0  0
   12.2705  -22.5616   18.7945 C   0  0  0  0  0  0  0  0  0  0  0  0
   12.8373  -23.5362   19.3727 O   0  0  0  0  0  0  0  0  0  0  0  0
   12.4850  -21.1978   19.3450 C   0  0  0  0  0  0  0  0  0  0  0  0
   11.7000  -20.1694   18.5523 C   0  0  2  0  0  0  0  0  0  0  0  0
   12.4544  -19.9634   17.3208 N   0  0  0  0  0  0  0  0  0  0  0  0
   11.6322  -18.9075   19.2865 C   0  0  0  0  0  0  0  0  0  0  0  0
   12.5967  -18.0969   19.2114 O   0  0  0  0  0  0  0  0  0  0  0  0
    8.2256  -13.5479   18.6644 N   0  0  0  0  0  0  0  0  0  0  0  0
    8.2107  -12.6550   19.7715 C   0  0  0  0  0  0  0  0  0  0  0  0
    8.6143  -11.4468   19.5970 N   0  0  0  0  0  0  0  0  0  0  0  0
    7.7483  -13.1481   21.0184 N   0  0  0  0  0  0  0  0  0  0  0  0
    7.5466  -14.6199   21.0909 C   0  0  0  0  0  0  0  0  0  0  0  0
    8.8761  -15.2698   21.2446 C   0  0  0  0  0  0  0  0  0  0  0  0
    9.0655  -16.6037   20.6781 C   0  0  0  0  0  0  0  0  0  0  0  0
   10.3561  -17.3094   20.7414 C   0  0  2  0  0  0  0  0  0  0  0  0
   10.4831  -18.5668   20.0982 N   0  0  0  0  0  0  0  0  0  0  0  0
   10.9355  -17.3433   22.1303 C   0  0  0  0  0  0  0  0  0  0  0  0
   10.2943  -17.9694   22.9987 O   0  0  0  0  0  0  0  0  0  0  0  0
    8.5328  -10.7365   20.3520 N   0  0  0  0  0  0  0  0  0  0  0  0
   15.3477  -20.7414   22.4682 C   0  0  0  0  0  0  0  0  0  0  0  0
   15.6957  -19.9469   23.5920 O   0  0  0  0  0  0  0  0  0  0  0  0
   16.7599  -20.2450   24.1930 C   0  0  0  0  0  0  0  0  0  0  0  0
   14.8726  -18.8280   24.0514 C   0  0  0  0  0  0  0  0  0  0  0  0
   13.9516  -18.2387   23.0547 C   0  0  2  0  0  0  0  0  0  0  0  0
   13.0139  -17.1836   23.5472 N   0  0  0  0  0  0  0  0  0  0  0  0
   12.1509  -16.7026   22.4621 C   0  0  0  0  0  0  0  0  0  0  0  0
   13.7706  -16.0221   24.0540 O   0  0  0  0  0  0  0  0  0  0  0  0
   13.9981  -15.0546   23.2990 O   0  0  0  0  0  0  0  0  0  0  0  0
  1  2  1  0
  2  3  2  0
  4  5  1  0
  4  2  1  0
  5  7  1  0
  5  6  1  6
  7  8  2  0
 10 12  1  0
 10  9  1  0
 11 10  2  0
 13 14  1  0
 13 12  1  0
 14 15  1  0
 16 15  1  1
 17 16  1  0
 17  7  1  0
 18 19  2  0
 18 16  1  0
 20 21  1  0
 21 22  2  0
 23 21  1  0
 23 24  1  0
 25 24  1  1
 25 27  1  0
 25 26  1  0
 26 18  1  0
 27 29  1  0
 28 27  2  0
M  END
$$$$
