NRQ.pdb
     RDKit          3D

 29 28  0  0  1  0  0  0  0  0999 V2000
   12.9230  -21.8127   16.9695 N   0  0  0  0  0  0  0  0  0  0  0  0
   14.1543  -21.1371   17.1895 C   0  0  0  0  0  0  0  0  0  0  0  0
   15.1703  -21.3479   16.4621 O   0  0  0  0  0  0  0  0  0  0  0  0
   14.2757  -20.1527   18.2964 C   0  0  0  0  0  0  0  0  0  0  0  0
   13.9278  -18.7569   17.8138 C   0  0  2  0  0  0  0  0  0  0  0  0
   15.1625  -18.2146   17.2575 N   0  0  0  0  0  0  0  0  0  0  0  0
   13.5046  -17.9231   18.9372 C   0  0  0  0  0  0  0  0  0  0  0  0
   14.3774  -17.3259   19.6260 O   0  0  0  0  0  0  0  0  0  0  0  0
    6.4718  -13.1649   19.9431 N   0  0  0  0  0  0  0  0  0  0  0  0
    7.5060  -13.3893   18.9928 C   0  0  0  0  0  0  0  0  0  0  0  0
    7.3370  -12.9782   17.7863 N   0  0  0  0  0  0  0  0  0  0  0  0
    8.6773  -14.0596   19.4292 N   0  0  0  0  0  0  0  0  0  0  0  0
    8.6997  -14.4415   20.8664 C   0  0  0  0  0  0  0  0  0  0  0  0
    9.9646  -15.1762   21.1382 C   0  0  0  0  0  0  0  0  0  0  0  0
   10.4285  -16.1473   20.1494 C   0  0  0  0  0  0  0  0  0  0  0  0
   11.6718  -16.9161   20.3249 C   0  0  2  0  0  0  0  0  0  0  0  0
   12.1062  -17.7672   19.2772 N   0  0  0  0  0  0  0  0  0  0  0  0
   11.7472  -17.6078   21.6598 C   0  0  0  0  0  0  0  0  0  0  0  0
   11.6355  -18.8506   21.6632 O   0  0  0  0  0  0  0  0  0  0  0  0
    8.0418  -13.1719   17.0467 N   0  0  0  0  0  0  0  0  0  0  0  0
   16.9150  -18.0918   23.7612 C   0  0  0  0  0  0  0  0  0  0  0  0
   16.2374  -18.0500   25.0079 O   0  0  0  0  0  0  0  0  0  0  0  0
   16.9507  -17.9997   26.0427 C   0  0  0  0  0  0  0  0  0  0  0  0
   14.7782  -18.0640   25.1125 C   0  0  0  0  0  0  0  0  0  0  0  0
   14.0337  -17.4665   23.9821 C   0  0  1  0  0  0  0  0  0  0  0  0
   12.5417  -17.5314   24.0505 N   0  0  0  0  0  0  0  0  0  0  0  0
   11.9359  -16.9034   22.8706 C   0  0  0  0  0  0  0  0  0  0  0  0
   12.0513  -16.8022   25.2365 O   0  0  0  0  0  0  0  0  0  0  0  0
   11.7013  -17.4373   26.2523 O   0  0  0  0  0  0  0  0  0  0  0  0
  1  2  1  0
  2  3  2  0
  4  5  1  0
  4  2  1  0
  5  7  1  0
  5  6  1  1
  7  8  2  0
 10 12  1  0
 10  9  1  0
 11 10  2  0
 13 14  1  0
 13 12  1  0
 14 15  1  0
 16 15  1  6
 17 16  1  0
 17  7  1  0
 18 19  2  0
 18 16  1  0
 20 21  1  0
 21 22  2  0
 23 21  1  0
 23 24  1  0
 25 24  1  6
 25 27  1  0
 25 26  1  0
 26 18  1  0
 27 29  1  0
 28 27  2  0
M  END
$$$$
