NRQ.pdb
     RDKit          3D

 29 28  0  0  1  0  0  0  0  0999 V2000
    6.4576  -13.5456   17.3041 N   0  0  0  0  0  0  0  0  0  0  0  0
    7.2413  -13.0166   18.3656 C   0  0  0  0  0  0  0  0  0  0  0  0
    7.1293  -11.8117   18.7414 O   0  0  0  0  0  0  0  0  0  0  0  0
    8.2244  -13.8822   19.0679 C   0  0  0  0  0  0  0  0  0  0  0  0
    8.2691  -15.2626   18.4396 C   0  0  2  0  0  0  0  0  0  0  0  0
    6.9589  -15.8519   18.6927 N   0  0  0  0  0  0  0  0  0  0  0  0
    9.2928  -16.0809   19.0866 C   0  0  0  0  0  0  0  0  0  0  0  0
    8.9951  -16.7365   20.1232 O   0  0  0  0  0  0  0  0  0  0  0  0
   16.5973  -19.1685   15.5780 N   0  0  0  0  0  0  0  0  0  0  0  0
   16.9158  -18.4152   16.7417 C   0  0  0  0  0  0  0  0  0  0  0  0
   18.1347  -18.0508   16.9280 N   0  0  0  0  0  0  0  0  0  0  0  0
   15.8648  -18.1039   17.6418 N   0  0  0  0  0  0  0  0  0  0  0  0
   14.6664  -18.9806   17.5560 C   0  0  0  0  0  0  0  0  0  0  0  0
   13.6726  -18.5186   18.5622 C   0  0  0  0  0  0  0  0  0  0  0  0
   12.6494  -17.5647   18.1390 C   0  0  0  0  0  0  0  0  0  0  0  0
   11.5878  -17.0959   19.0450 C   0  0  2  0  0  0  0  0  0  0  0  0
   10.6409  -16.1561   18.5646 N   0  0  0  0  0  0  0  0  0  0  0  0
   12.1089  -16.7042   20.4018 C   0  0  0  0  0  0  0  0  0  0  0  0
   12.6544  -15.5862   20.5002 O   0  0  0  0  0  0  0  0  0  0  0  0
   18.4168  -17.5270   17.7808 N   0  0  0  0  0  0  0  0  0  0  0  0
   12.0777  -18.4542   27.7203 C   0  0  0  0  0  0  0  0  0  0  0  0
   11.7475  -18.5848   26.3458 O   0  0  0  0  0  0  0  0  0  0  0  0
   10.9356  -19.4952   26.0389 C   0  0  0  0  0  0  0  0  0  0  0  0
   12.3113  -17.7144   25.3138 C   0  0  0  0  0  0  0  0  0  0  0  0
   11.8246  -17.9329   23.9338 C   0  0  1  0  0  0  0  0  0  0  0  0
   12.4963  -17.1494   22.8522 N   0  0  0  0  0  0  0  0  0  0  0  0
   11.9974  -17.5474   21.5307 C   0  0  0  0  0  0  0  0  0  0  0  0
   13.9509  -17.4001   22.8661 O   0  0  0  0  0  0  0  0  0  0  0  0
   14.4540  -18.1704   22.0226 O   0  0  0  0  0  0  0  0  0  0  0  0
  1  2  1  0
  2  3  2  0
  4  5  1  0
  4  2  1  0
  5  7  1  0
  5  6  1  1
  7  8  2  0
 10 12  1  0
 10  9  1  0
 11 10  2  0
 13 14  1  0
 13 12  1  0
 14 15  1  0
 16 15  1  6
 17 16  1  0
 17  7  1  0
 18 19  2  0
 18 16  1  0
 20 21  1  0
 21 22  2  0
 23 21  1  0
 23 24  1  0
 25 24  1  1
 25 27  1  0
 25 26  1  0
 26 18  1  0
 27 29  1  0
 28 27  2  0
M  END
$$$$
