NRQ.pdb
     RDKit          3D

 29 28  0  0  1  0  0  0  0  0999 V2000
    8.1730  -13.8008   16.9764 N   0  0  0  0  0  0  0  0  0  0  0  0
    9.2800  -13.9753   17.8511 C   0  0  0  0  0  0  0  0  0  0  0  0
   10.4749  -13.8516   17.4481 O   0  0  0  0  0  0  0  0  0  0  0  0
    9.0529  -14.3120   19.2809 C   0  0  0  0  0  0  0  0  0  0  0  0
    7.5714  -14.4751   19.5650 C   0  0  2  0  0  0  0  0  0  0  0  0
    6.9907  -13.1475   19.3962 N   0  0  0  0  0  0  0  0  0  0  0  0
    7.3651  -14.9136   20.9439 C   0  0  0  0  0  0  0  0  0  0  0  0
    7.5326  -14.0899   21.8854 O   0  0  0  0  0  0  0  0  0  0  0  0
    2.3892  -21.1834   20.7331 N   0  0  0  0  0  0  0  0  0  0  0  0
    2.0853  -19.8177   20.4767 C   0  0  0  0  0  0  0  0  0  0  0  0
    1.2745  -19.5337   19.5202 N   0  0  0  0  0  0  0  0  0  0  0  0
    2.6973  -18.8344   21.2955 N   0  0  0  0  0  0  0  0  0  0  0  0
    4.1253  -19.0785   21.6321 C   0  0  0  0  0  0  0  0  0  0  0  0
    4.5994  -17.9695   22.5033 C   0  0  0  0  0  0  0  0  0  0  0  0
    6.0171  -17.9217   22.8551 C   0  0  0  0  0  0  0  0  0  0  0  0
    6.8551  -16.7413   22.5865 C   0  0  2  0  0  0  0  0  0  0  0  0
    6.9729  -16.2722   21.2536 N   0  0  0  0  0  0  0  0  0  0  0  0
    8.1978  -16.8123   23.2633 C   0  0  0  0  0  0  0  0  0  0  0  0
    9.1710  -16.3320   22.6473 O   0  0  0  0  0  0  0  0  0  0  0  0
    0.9801  -18.5536   19.3358 N   0  0  0  0  0  0  0  0  0  0  0  0
    6.8227  -13.0426   26.7474 C   0  0  0  0  0  0  0  0  0  0  0  0
    7.9687  -13.4492   27.4800 O   0  0  0  0  0  0  0  0  0  0  0  0
    8.2871  -12.7486   28.4750 C   0  0  0  0  0  0  0  0  0  0  0  0
    8.7607  -14.6242   27.1158 C   0  0  0  0  0  0  0  0  0  0  0  0
    8.2753  -15.4100   25.9601 C   0  0  1  0  0  0  0  0  0  0  0  0
    9.0194  -16.6669   25.6416 N   0  0  0  0  0  0  0  0  0  0  0  0
    8.3750  -17.3917   24.5403 C   0  0  0  0  0  0  0  0  0  0  0  0
    9.0301  -17.5662   26.8121 O   0  0  0  0  0  0  0  0  0  0  0  0
    9.8831  -17.4044   27.7088 O   0  0  0  0  0  0  0  0  0  0  0  0
  1  2  1  0
  2  3  2  0
  4  5  1  0
  4  2  1  0
  5  7  1  0
  5  6  1  1
  7  8  2  0
 10 12  1  0
 10  9  1  0
 11 10  2  0
 13 14  1  0
 13 12  1  0
 14 15  1  0
 16 15  1  6
 17 16  1  0
 17  7  1  0
 18 19  2  0
 18 16  1  0
 20 21  1  0
 21 22  2  0
 23 21  1  0
 23 24  1  0
 25 24  1  6
 25 27  1  0
 25 26  1  0
 26 18  1  0
 27 29  1  0
 28 27  2  0
M  END
$$$$
