NRQ.pdb
     RDKit          3D

 29 28  0  0  1  0  0  0  0  0999 V2000
    8.9489  -12.4215   16.7721 N   0  0  0  0  0  0  0  0  0  0  0  0
    8.1974  -13.6282   16.7620 C   0  0  0  0  0  0  0  0  0  0  0  0
    7.8395  -14.1823   15.6802 O   0  0  0  0  0  0  0  0  0  0  0  0
    7.8106  -14.2747   18.0432 C   0  0  0  0  0  0  0  0  0  0  0  0
    8.9343  -15.1524   18.5621 C   0  0  2  0  0  0  0  0  0  0  0  0
    8.9555  -16.3205   17.6885 N   0  0  0  0  0  0  0  0  0  0  0  0
    8.6497  -15.5847   19.9290 C   0  0  0  0  0  0  0  0  0  0  0  0
    7.4815  -15.4518   20.3880 O   0  0  0  0  0  0  0  0  0  0  0  0
   11.4011  -22.8458   23.0368 N   0  0  0  0  0  0  0  0  0  0  0  0
   11.0289  -21.8220   22.1223 C   0  0  0  0  0  0  0  0  0  0  0  0
   11.6592  -21.7316   21.0052 N   0  0  0  0  0  0  0  0  0  0  0  0
    9.9750  -20.9484   22.4935 N   0  0  0  0  0  0  0  0  0  0  0  0
   10.1958  -20.1717   23.7425 C   0  0  0  0  0  0  0  0  0  0  0  0
    9.6307  -18.8083   23.5547 C   0  0  0  0  0  0  0  0  0  0  0  0
    9.9302  -18.0987   22.3126 C   0  0  0  0  0  0  0  0  0  0  0  0
    9.3867  -16.7622   22.0193 C   0  0  2  0  0  0  0  0  0  0  0  0
    9.6783  -16.1621   20.7681 N   0  0  0  0  0  0  0  0  0  0  0  0
    9.5828  -15.7906   23.1522 C   0  0  0  0  0  0  0  0  0  0  0  0
   10.7463  -15.3928   23.3649 O   0  0  0  0  0  0  0  0  0  0  0  0
   11.4527  -20.9687   20.3295 N   0  0  0  0  0  0  0  0  0  0  0  0
    5.0126  -12.1063   25.8461 C   0  0  0  0  0  0  0  0  0  0  0  0
    6.2000  -11.8486   26.5802 O   0  0  0  0  0  0  0  0  0  0  0  0
    6.1459  -10.9432   27.4518 C   0  0  0  0  0  0  0  0  0  0  0  0
    7.4427  -12.5867   26.3532 C   0  0  0  0  0  0  0  0  0  0  0  0
    7.4232  -13.5836   25.2602 C   0  0  1  0  0  0  0  0  0  0  0  0
    8.6994  -14.3157   24.9952 N   0  0  0  0  0  0  0  0  0  0  0  0
    8.5127  -15.3331   23.9543 C   0  0  0  0  0  0  0  0  0  0  0  0
    9.1524  -15.0131   26.2147 O   0  0  0  0  0  0  0  0  0  0  0  0
    9.7178  -14.3690   27.1220 O   0  0  0  0  0  0  0  0  0  0  0  0
  1  2  1  0
  2  3  2  0
  4  5  1  0
  4  2  1  0
  5  7  1  0
  5  6  1  6
  7  8  2  0
 10 12  1  0
 10  9  1  0
 11 10  2  0
 13 14  1  0
 13 12  1  0
 14 15  1  0
 16 15  1  1
 17 16  1  0
 17  7  1  0
 18 19  2  0
 18 16  1  0
 20 21  1  0
 21 22  2  0
 23 21  1  0
 23 24  1  0
 25 24  1  6
 25 27  1  0
 25 26  1  0
 26 18  1  0
 27 29  1  0
 28 27  2  0
M  END
$$$$
