NRQ.pdb
     RDKit          3D

 29 28  0  0  1  0  0  0  0  0999 V2000
    4.6727  -21.9631   25.8857 N   0  0  0  0  0  0  0  0  0  0  0  0
    5.8637  -21.5888   26.5655 C   0  0  0  0  0  0  0  0  0  0  0  0
    6.1432  -22.0363   27.7176 O   0  0  0  0  0  0  0  0  0  0  0  0
    6.8214  -20.6488   25.9264 C   0  0  0  0  0  0  0  0  0  0  0  0
    6.2834  -20.1569   24.5957 C   0  0  2  0  0  0  0  0  0  0  0  0
    6.2126  -21.3366   23.7405 N   0  0  0  0  0  0  0  0  0  0  0  0
    7.2065  -19.1921   24.0014 C   0  0  0  0  0  0  0  0  0  0  0  0
    8.4394  -19.4594   23.9641 O   0  0  0  0  0  0  0  0  0  0  0  0
    8.5877  -13.3685   17.2409 N   0  0  0  0  0  0  0  0  0  0  0  0
    8.1183  -13.0479   18.5447 C   0  0  0  0  0  0  0  0  0  0  0  0
    8.2464  -11.8408   18.9686 N   0  0  0  0  0  0  0  0  0  0  0  0
    7.5297  -14.0840   19.3139 N   0  0  0  0  0  0  0  0  0  0  0  0
    7.2499  -13.7475   20.7354 C   0  0  0  0  0  0  0  0  0  0  0  0
    7.8914  -14.7766   21.5974 C   0  0  0  0  0  0  0  0  0  0  0  0
    7.0592  -15.8563   22.1245 C   0  0  0  0  0  0  0  0  0  0  0  0
    7.6203  -16.9758   22.8987 C   0  0  2  0  0  0  0  0  0  0  0  0
    6.7377  -17.9365   23.4545 N   0  0  0  0  0  0  0  0  0  0  0  0
    8.6510  -16.5329   23.9026 C   0  0  0  0  0  0  0  0  0  0  0  0
    8.2642  -15.7810   24.8203 O   0  0  0  0  0  0  0  0  0  0  0  0
    8.0116  -11.5856   19.9489 N   0  0  0  0  0  0  0  0  0  0  0  0
   12.1338  -19.5334   27.5888 C   0  0  0  0  0  0  0  0  0  0  0  0
   10.8409  -18.9480   27.6206 O   0  0  0  0  0  0  0  0  0  0  0  0
   10.0439  -19.3739   28.4956 C   0  0  0  0  0  0  0  0  0  0  0  0
   10.4287  -17.8970   26.6901 C   0  0  0  0  0  0  0  0  0  0  0  0
   11.4538  -17.4318   25.7300 C   0  0  2  0  0  0  0  0  0  0  0  0
   11.0256  -16.3997   24.7368 N   0  0  0  0  0  0  0  0  0  0  0  0
   10.0035  -16.9371   23.8313 C   0  0  0  0  0  0  0  0  0  0  0  0
   12.1719  -15.9816   23.9063 O   0  0  0  0  0  0  0  0  0  0  0  0
   12.1857  -16.2543   22.6884 O   0  0  0  0  0  0  0  0  0  0  0  0
  1  2  1  0
  2  3  2  0
  4  5  1  0
  4  2  1  0
  5  7  1  0
  5  6  1  6
  7  8  2  0
 10 12  1  0
 10  9  1  0
 11 10  2  0
 13 14  1  0
 13 12  1  0
 14 15  1  0
 16 15  1  1
 17 16  1  0
 17  7  1  0
 18 19  2  0
 18 16  1  0
 20 21  1  0
 21 22  2  0
 23 21  1  0
 23 24  1  0
 25 24  1  1
 25 27  1  0
 25 26  1  0
 26 18  1  0
 27 29  1  0
 28 27  2  0
M  END
$$$$
