NRQ.pdb
     RDKit          3D

 29 28  0  0  1  0  0  0  0  0999 V2000
   16.9835  -14.4061   19.5826 N   0  0  0  0  0  0  0  0  0  0  0  0
   15.7939  -14.4208   18.8043 C   0  0  0  0  0  0  0  0  0  0  0  0
   15.8233  -14.5351   17.5427 O   0  0  0  0  0  0  0  0  0  0  0  0
   14.4692  -14.3004   19.4675 C   0  0  0  0  0  0  0  0  0  0  0  0
   14.1208  -15.5791   20.2063 C   0  0  2  0  0  0  0  0  0  0  0  0
   13.5790  -16.4812   19.1960 N   0  0  0  0  0  0  0  0  0  0  0  0
   13.0937  -15.3188   21.2130 C   0  0  0  0  0  0  0  0  0  0  0  0
   13.3652  -14.5717   22.1933 O   0  0  0  0  0  0  0  0  0  0  0  0
    7.1824  -12.5703   19.5866 N   0  0  0  0  0  0  0  0  0  0  0  0
    7.3126  -13.3301   18.3912 C   0  0  0  0  0  0  0  0  0  0  0  0
    7.4302  -12.7075   17.2725 N   0  0  0  0  0  0  0  0  0  0  0  0
    7.3056  -14.7445   18.4972 N   0  0  0  0  0  0  0  0  0  0  0  0
    7.4753  -15.2853   19.8723 C   0  0  0  0  0  0  0  0  0  0  0  0
    8.8873  -15.0732   20.2902 C   0  0  0  0  0  0  0  0  0  0  0  0
    9.3327  -15.6610   21.5520 C   0  0  0  0  0  0  0  0  0  0  0  0
   10.7281  -15.5708   22.0128 C   0  0  2  0  0  0  0  0  0  0  0  0
   11.7715  -15.8992   21.1104 N   0  0  0  0  0  0  0  0  0  0  0  0
   10.9422  -16.2152   23.3562 C   0  0  0  0  0  0  0  0  0  0  0  0
   11.3226  -17.4038   23.3624 O   0  0  0  0  0  0  0  0  0  0  0  0
    7.5579  -13.2235   16.3788 N   0  0  0  0  0  0  0  0  0  0  0  0
    9.1731  -14.3180   29.8497 C   0  0  0  0  0  0  0  0  0  0  0  0
   10.4389  -14.8212   29.4500 O   0  0  0  0  0  0  0  0  0  0  0  0
   11.4439  -14.3993   30.0778 C   0  0  0  0  0  0  0  0  0  0  0  0
   10.5953  -15.7862   28.3614 C   0  0  0  0  0  0  0  0  0  0  0  0
   10.6399  -15.2284   26.9918 C   0  0  1  0  0  0  0  0  0  0  0  0
   10.7624  -16.2092   25.8702 N   0  0  0  0  0  0  0  0  0  0  0  0
   10.7293  -15.5262   24.5718 C   0  0  0  0  0  0  0  0  0  0  0  0
    9.6332  -17.1595   25.8953 O   0  0  0  0  0  0  0  0  0  0  0  0
    8.5841  -16.8903   25.2750 O   0  0  0  0  0  0  0  0  0  0  0  0
  1  2  1  0
  2  3  2  0
  4  5  1  0
  4  2  1  0
  5  7  1  0
  5  6  1  6
  7  8  2  0
 10 12  1  0
 10  9  1  0
 11 10  2  0
 13 14  1  0
 13 12  1  0
 14 15  1  0
 16 15  1  6
 17 16  1  0
 17  7  1  0
 18 19  2  0
 18 16  1  0
 20 21  1  0
 21 22  2  0
 23 21  1  0
 23 24  1  0
 25 24  1  1
 25 27  1  0
 25 26  1  0
 26 18  1  0
 27 29  1  0
 28 27  2  0
M  END
$$$$
