NRQ.pdb
     RDKit          3D

 29 28  0  0  1  0  0  0  0  0999 V2000
   18.1994  -13.1463   15.4888 N   0  0  0  0  0  0  0  0  0  0  0  0
   17.1313  -14.0819   15.4189 C   0  0  0  0  0  0  0  0  0  0  0  0
   17.2056  -15.1273   14.7067 O   0  0  0  0  0  0  0  0  0  0  0  0
   15.8849  -13.8478   16.1940 C   0  0  0  0  0  0  0  0  0  0  0  0
   16.0956  -14.1748   17.6606 C   0  0  2  0  0  0  0  0  0  0  0  0
   16.4570  -15.5876   17.6999 N   0  0  0  0  0  0  0  0  0  0  0  0
   14.8541  -13.9795   18.4067 C   0  0  0  0  0  0  0  0  0  0  0  0
   14.2395  -12.8818   18.3061 O   0  0  0  0  0  0  0  0  0  0  0  0
    7.1860  -13.2157   17.0645 N   0  0  0  0  0  0  0  0  0  0  0  0
    7.1332  -13.3170   18.4823 C   0  0  0  0  0  0  0  0  0  0  0  0
    6.1746  -12.7324   19.1087 N   0  0  0  0  0  0  0  0  0  0  0  0
    8.1481  -14.0626   19.1348 N   0  0  0  0  0  0  0  0  0  0  0  0
    9.4416  -14.1586   18.4070 C   0  0  0  0  0  0  0  0  0  0  0  0
   10.5213  -14.4135   19.3984 C   0  0  0  0  0  0  0  0  0  0  0  0
   11.8882  -14.5780   18.9080 C   0  0  0  0  0  0  0  0  0  0  0  0
   13.0027  -14.9514   19.7947 C   0  0  2  0  0  0  0  0  0  0  0  0
   14.3138  -15.0176   19.2587 N   0  0  0  0  0  0  0  0  0  0  0  0
   12.6956  -16.1568   20.6425 C   0  0  0  0  0  0  0  0  0  0  0  0
   12.4999  -17.2358   20.0469 O   0  0  0  0  0  0  0  0  0  0  0  0
    6.1106  -12.7627   20.1461 N   0  0  0  0  0  0  0  0  0  0  0  0
   18.3969  -16.8334   22.8444 C   0  0  0  0  0  0  0  0  0  0  0  0
   17.4135  -15.8260   23.0275 O   0  0  0  0  0  0  0  0  0  0  0  0
   17.7194  -14.6595   22.6700 C   0  0  0  0  0  0  0  0  0  0  0  0
   16.0976  -16.1047   23.6031 C   0  0  0  0  0  0  0  0  0  0  0  0
   14.9281  -15.7321   22.7771 C   0  0  1  0  0  0  0  0  0  0  0  0
   13.7117  -16.5913   22.9077 N   0  0  0  0  0  0  0  0  0  0  0  0
   12.6267  -16.0958   22.0529 C   0  0  0  0  0  0  0  0  0  0  0  0
   13.2183  -16.5723   24.2987 O   0  0  0  0  0  0  0  0  0  0  0  0
   12.1614  -15.9671   24.5721 O   0  0  0  0  0  0  0  0  0  0  0  0
  1  2  1  0
  2  3  2  0
  4  5  1  0
  4  2  1  0
  5  7  1  0
  5  6  1  6
  7  8  2  0
 10 12  1  0
 10  9  1  0
 11 10  2  0
 13 14  1  0
 13 12  1  0
 14 15  1  0
 16 15  1  6
 17 16  1  0
 17  7  1  0
 18 19  2  0
 18 16  1  0
 20 21  1  0
 21 22  2  0
 23 21  1  0
 23 24  1  0
 25 24  1  6
 25 27  1  0
 25 26  1  0
 26 18  1  0
 27 29  1  0
 28 27  2  0
M  END
$$$$
