NRQ.pdb
     RDKit          3D

 29 28  0  0  1  0  0  0  0  0999 V2000
   10.0583  -20.8211   16.9527 N   0  0  0  0  0  0  0  0  0  0  0  0
   10.7611  -19.7336   16.3658 C   0  0  0  0  0  0  0  0  0  0  0  0
   10.8510  -19.5977   15.1092 O   0  0  0  0  0  0  0  0  0  0  0  0
   11.4153  -18.7169   17.2303 C   0  0  0  0  0  0  0  0  0  0  0  0
   11.0711  -18.9515   18.6893 C   0  0  2  0  0  0  0  0  0  0  0  0
    9.6190  -19.0836   18.7339 N   0  0  0  0  0  0  0  0  0  0  0  0
   11.4698  -17.7996   19.4956 C   0  0  0  0  0  0  0  0  0  0  0  0
   12.6970  -17.5734   19.6846 O   0  0  0  0  0  0  0  0  0  0  0  0
    7.2788  -12.9871   16.3368 N   0  0  0  0  0  0  0  0  0  0  0  0
    7.3929  -13.4699   17.6698 C   0  0  0  0  0  0  0  0  0  0  0  0
    6.9612  -14.6507   17.9389 N   0  0  0  0  0  0  0  0  0  0  0  0
    7.9807  -12.6171   18.6389 N   0  0  0  0  0  0  0  0  0  0  0  0
    8.0984  -13.1871   20.0076 C   0  0  0  0  0  0  0  0  0  0  0  0
    8.9095  -14.4320   19.9304 C   0  0  0  0  0  0  0  0  0  0  0  0
   10.0151  -14.5987   20.8716 C   0  0  0  0  0  0  0  0  0  0  0  0
   10.8539  -15.8084   20.8937 C   0  0  2  0  0  0  0  0  0  0  0  0
   10.4881  -16.9123   20.0824 N   0  0  0  0  0  0  0  0  0  0  0  0
   11.2085  -16.2476   22.2892 C   0  0  0  0  0  0  0  0  0  0  0  0
   10.4308  -17.0475   22.8483 O   0  0  0  0  0  0  0  0  0  0  0  0
    7.0968  -15.0734   18.8792 N   0  0  0  0  0  0  0  0  0  0  0  0
   13.6803  -20.7133   22.4393 C   0  0  0  0  0  0  0  0  0  0  0  0
   14.2690  -20.2912   23.6601 O   0  0  0  0  0  0  0  0  0  0  0  0
   14.9683  -21.1352   24.2773 C   0  0  0  0  0  0  0  0  0  0  0  0
   14.0866  -18.9431   24.1983 C   0  0  0  0  0  0  0  0  0  0  0  0
   13.2938  -18.0079   23.3701 C   0  0  1  0  0  0  0  0  0  0  0  0
   13.0969  -16.6294   23.9142 N   0  0  0  0  0  0  0  0  0  0  0  0
   12.3658  -15.7891   22.9587 C   0  0  0  0  0  0  0  0  0  0  0  0
   14.4018  -15.9838   24.1578 O   0  0  0  0  0  0  0  0  0  0  0  0
   14.8543  -15.1701   23.3265 O   0  0  0  0  0  0  0  0  0  0  0  0
  1  2  1  0
  2  3  2  0
  4  5  1  0
  4  2  1  0
  5  7  1  0
  5  6  1  6
  7  8  2  0
 10 12  1  0
 10  9  1  0
 11 10  2  0
 13 14  1  0
 13 12  1  0
 14 15  1  0
 16 15  1  1
 17 16  1  0
 17  7  1  0
 18 19  2  0
 18 16  1  0
 20 21  1  0
 21 22  2  0
 23 21  1  0
 23 24  1  0
 25 24  1  1
 25 27  1  0
 25 26  1  0
 26 18  1  0
 27 29  1  0
 28 27  2  0
M  END
$$$$
