NRQ.pdb
     RDKit          3D

 29 28  0  0  1  0  0  0  0  0999 V2000
    0.9097  -19.8409   21.1978 N   0  0  0  0  0  0  0  0  0  0  0  0
    1.1853  -19.8069   22.5921 C   0  0  0  0  0  0  0  0  0  0  0  0
    0.2854  -20.0305   23.4557 O   0  0  0  0  0  0  0  0  0  0  0  0
    2.5588  -19.5036   23.0720 C   0  0  0  0  0  0  0  0  0  0  0  0
    3.4325  -19.0217   21.9289 C   0  0  2  0  0  0  0  0  0  0  0  0
    3.5943  -20.1720   21.0464 N   0  0  0  0  0  0  0  0  0  0  0  0
    4.7446  -18.6169   22.4297 C   0  0  0  0  0  0  0  0  0  0  0  0
    5.4873  -19.4762   22.9801 O   0  0  0  0  0  0  0  0  0  0  0  0
    7.8892  -11.8553   18.7201 N   0  0  0  0  0  0  0  0  0  0  0  0
    8.1980  -13.0735   18.0539 C   0  0  0  0  0  0  0  0  0  0  0  0
    8.5639  -13.0291   16.8222 N   0  0  0  0  0  0  0  0  0  0  0  0
    8.0849  -14.2814   18.7887 N   0  0  0  0  0  0  0  0  0  0  0  0
    7.5369  -14.1460   20.1647 C   0  0  0  0  0  0  0  0  0  0  0  0
    7.5874  -15.4786   20.8243 C   0  0  0  0  0  0  0  0  0  0  0  0
    7.0688  -15.5987   22.1854 C   0  0  0  0  0  0  0  0  0  0  0  0
    6.5135  -16.8584   22.7076 C   0  0  2  0  0  0  0  0  0  0  0  0
    5.2111  -17.2520   22.3083 N   0  0  0  0  0  0  0  0  0  0  0  0
    6.6995  -17.0066   24.1940 C   0  0  0  0  0  0  0  0  0  0  0  0
    5.8004  -16.5479   24.9279 O   0  0  0  0  0  0  0  0  0  0  0  0
    8.8949  -13.8813   16.3268 N   0  0  0  0  0  0  0  0  0  0  0  0
    7.2643  -21.8689   27.5820 C   0  0  0  0  0  0  0  0  0  0  0  0
    7.7134  -20.8703   28.4856 O   0  0  0  0  0  0  0  0  0  0  0  0
    7.8932  -21.2218   29.6799 C   0  0  0  0  0  0  0  0  0  0  0  0
    7.9627  -19.4889   28.0731 C   0  0  0  0  0  0  0  0  0  0  0  0
    7.7381  -19.1804   26.6437 C   0  0  1  0  0  0  0  0  0  0  0  0
    8.0032  -17.7747   26.2096 N   0  0  0  0  0  0  0  0  0  0  0  0
    7.8331  -17.6340   24.7588 C   0  0  0  0  0  0  0  0  0  0  0  0
    9.3935  -17.3941   26.5275 O   0  0  0  0  0  0  0  0  0  0  0  0
   10.2152  -17.2244   25.6034 O   0  0  0  0  0  0  0  0  0  0  0  0
  1  2  1  0
  2  3  2  0
  4  5  1  0
  4  2  1  0
  5  7  1  0
  5  6  1  6
  7  8  2  0
 10 12  1  0
 10  9  1  0
 11 10  2  0
 13 14  1  0
 13 12  1  0
 14 15  1  0
 16 15  1  1
 17 16  1  0
 17  7  1  0
 18 19  2  0
 18 16  1  0
 20 21  1  0
 21 22  2  0
 23 21  1  0
 23 24  1  0
 25 24  1  1
 25 27  1  0
 25 26  1  0
 26 18  1  0
 27 29  1  0
 28 27  2  0
M  END
$$$$
