FSW.pdb
     RDKit          3D

 32 34  0  0  1  0  0  0  0  0999 V2000
    6.5146  -17.1466   17.8872 N   0  0  0  0  0  0  0  0  0  0  0  0
    7.2892  -16.3221   18.8105 C   0  0  1  0  0  0  0  0  0  0  0  0
    6.2363  -15.5015   19.5613 C   0  0  0  0  0  0  0  0  0  0  0  0
    6.8302  -14.7143   20.6445 C   0  0  0  0  0  0  0  0  0  0  0  0
    6.7094  -15.0840   21.9513 C   0  0  0  0  0  0  0  0  0  0  0  0
    7.2548  -14.3764   23.0049 C   0  0  0  0  0  0  0  0  0  0  0  0
    7.9615  -13.2272   22.7038 C   0  0  0  0  0  0  0  0  0  0  0  0
    8.0992  -12.8306   21.3939 C   0  0  0  0  0  0  0  0  0  0  0  0
    7.5395  -13.5641   20.3587 C   0  0  0  0  0  0  0  0  0  0  0  0
    8.0269  -17.1435   19.8059 C   0  0  0  0  0  0  0  0  0  0  0  0
    7.7515  -18.3803   20.0145 O   0  0  0  0  0  0  0  0  0  0  0  0
   11.5200  -17.4217   19.3890 O   0  0  0  0  0  0  0  0  0  0  0  0
   10.8829  -18.2436   20.2837 C   0  0  0  0  0  0  0  0  0  0  0  0
   10.0897  -17.3780   21.2583 C   0  0  2  0  0  0  0  0  0  0  0  0
    9.0835  -16.6203   20.5885 N   0  0  0  0  0  0  0  0  0  0  0  0
   11.0156  -16.5273   22.0484 C   0  0  0  0  0  0  0  0  0  0  0  0
   11.2558  -15.3917   21.6017 O   0  0  0  0  0  0  0  0  0  0  0  0
   11.6454  -16.8962   23.2559 N   0  0  0  0  0  0  0  0  0  0  0  0
   11.2725  -16.3714   24.5622 C   0  0  1  0  0  0  0  0  0  0  0  0
    9.8276  -16.3172   24.7936 C   0  0  0  0  0  0  0  0  0  0  0  0
    9.4982  -15.7736   26.1341 C   0  0  0  0  0  0  0  0  0  0  0  0
    9.4238  -16.4562   27.3326 C   0  0  0  0  0  0  0  0  0  0  0  0
    9.0609  -15.6246   28.3200 N   0  0  0  0  0  0  0  0  0  0  0  0
    8.8859  -14.3848   27.8233 C   0  0  0  0  0  0  0  0  0  0  0  0
    8.5297  -13.2104   28.4491 C   0  0  0  0  0  0  0  0  0  0  0  0
    8.4438  -12.0544   27.6559 C   0  0  0  0  0  0  0  0  0  0  0  0
    8.7112  -12.1139   26.3031 C   0  0  0  0  0  0  0  0  0  0  0  0
    9.0599  -13.3117   25.7379 C   0  0  0  0  0  0  0  0  0  0  0  0
    9.1559  -14.4594   26.4589 C   0  0  0  0  0  0  0  0  0  0  0  0
   12.0982  -16.8939   25.6401 C   0  0  0  0  0  0  0  0  0  0  0  0
   12.6107  -16.1169   26.4705 O   0  0  0  0  0  0  0  0  0  0  0  0
   12.3311  -18.2496   25.7719 O   0  0  0  0  0  0  0  0  0  0  0  0
  2  1  1  6
  3  2  1  0
  4  3  1  0
  5  4  2  0
  6  5  1  0
  7  8  1  0
  7  6  2  0
  8  9  2  0
  9  4  1  0
 10 11  2  0
 10  2  1  0
 12 13  1  0
 14 13  1  6
 14 15  1  0
 15 10  1  0
 16 14  1  0
 17 16  2  0
 18 16  1  0
 19 20  1  1
 19 18  1  0
 21 20  1  0
 22 21  2  0
 23 24  1  0
 23 22  1  0
 24 29  2  0
 25 24  1  0
 25 26  2  0
 26 27  1  0
 27 28  2  0
 29 21  1  0
 29 28  1  0
 30 32  1  0
 30 19  1  0
 31 30  2  0
M  END
$$$$
