FSW.pdb
     RDKit          3D

 32 34  0  0  1  0  0  0  0  0999 V2000
    7.5903  -16.5531   17.2810 N   0  0  0  0  0  0  0  0  0  0  0  0
    8.8192  -16.6111   18.0676 C   0  0  1  0  0  0  0  0  0  0  0  0
    9.2435  -15.1470   18.2170 C   0  0  0  0  0  0  0  0  0  0  0  0
    8.4291  -14.4428   19.2102 C   0  0  0  0  0  0  0  0  0  0  0  0
    7.3806  -15.0467   19.8386 C   0  0  0  0  0  0  0  0  0  0  0  0
    6.5878  -14.4247   20.7835 C   0  0  0  0  0  0  0  0  0  0  0  0
    6.8843  -13.1124   21.1012 C   0  0  0  0  0  0  0  0  0  0  0  0
    7.9366  -12.4783   20.4826 C   0  0  0  0  0  0  0  0  0  0  0  0
    8.7139  -13.1316   19.5382 C   0  0  0  0  0  0  0  0  0  0  0  0
    8.5843  -17.1622   19.4280 C   0  0  0  0  0  0  0  0  0  0  0  0
    7.4052  -17.3078   19.9154 O   0  0  0  0  0  0  0  0  0  0  0  0
   11.4876  -19.3969   21.3018 O   0  0  0  0  0  0  0  0  0  0  0  0
   10.1629  -19.5299   21.6327 C   0  0  0  0  0  0  0  0  0  0  0  0
    9.5063  -18.1540   21.5694 C   0  0  2  0  0  0  0  0  0  0  0  0
    9.6422  -17.5663   20.2767 N   0  0  0  0  0  0  0  0  0  0  0  0
   10.0409  -17.2881   22.6507 C   0  0  0  0  0  0  0  0  0  0  0  0
   11.0351  -16.5933   22.3755 O   0  0  0  0  0  0  0  0  0  0  0  0
    9.5215  -17.1880   23.9588 N   0  0  0  0  0  0  0  0  0  0  0  0
   10.1051  -16.3607   25.0056 C   0  0  1  0  0  0  0  0  0  0  0  0
    9.7713  -14.9390   24.8988 C   0  0  0  0  0  0  0  0  0  0  0  0
    8.3291  -14.6860   25.1373 C   0  0  0  0  0  0  0  0  0  0  0  0
    7.2722  -15.5557   24.9518 C   0  0  0  0  0  0  0  0  0  0  0  0
    6.1127  -14.9476   25.2416 N   0  0  0  0  0  0  0  0  0  0  0  0
    6.3528  -13.6783   25.6234 C   0  0  0  0  0  0  0  0  0  0  0  0
    5.4879  -12.6840   26.0243 C   0  0  0  0  0  0  0  0  0  0  0  0
    6.0465  -11.4468   26.3854 C   0  0  0  0  0  0  0  0  0  0  0  0
    7.4125  -11.2556   26.3345 C   0  0  0  0  0  0  0  0  0  0  0  0
    8.2213  -12.2828   25.9265 C   0  0  0  0  0  0  0  0  0  0  0  0
    7.7327  -13.4980   25.5650 C   0  0  0  0  0  0  0  0  0  0  0  0
   10.0130  -16.9668   26.3251 C   0  0  0  0  0  0  0  0  0  0  0  0
   10.5668  -16.4265   27.3034 O   0  0  0  0  0  0  0  0  0  0  0  0
    9.3149  -18.1423   26.5265 O   0  0  0  0  0  0  0  0  0  0  0  0
  2  1  1  6
  3  2  1  0
  4  3  1  0
  5  4  2  0
  6  5  1  0
  7  8  1  0
  7  6  2  0
  8  9  2  0
  9  4  1  0
 10 11  2  0
 10  2  1  0
 12 13  1  0
 14 13  1  6
 14 15  1  0
 15 10  1  0
 16 14  1  0
 17 16  2  0
 18 16  1  0
 19 20  1  1
 19 18  1  0
 21 20  1  0
 22 21  2  0
 23 24  1  0
 23 22  1  0
 24 29  2  0
 25 24  1  0
 25 26  2  0
 26 27  1  0
 27 28  2  0
 29 21  1  0
 29 28  1  0
 30 32  1  0
 30 19  1  0
 31 30  2  0
M  END
$$$$
