FSW.pdb
     RDKit          3D

 32 34  0  0  1  0  0  0  0  0999 V2000
    5.9519  -20.1638   20.4919 N   0  0  0  0  0  0  0  0  0  0  0  0
    6.2783  -19.1923   21.5321 C   0  0  1  0  0  0  0  0  0  0  0  0
    6.5473  -20.0444   22.7761 C   0  0  0  0  0  0  0  0  0  0  0  0
    6.9551  -19.2248   23.9196 C   0  0  0  0  0  0  0  0  0  0  0  0
    8.1566  -19.4025   24.5392 C   0  0  0  0  0  0  0  0  0  0  0  0
    8.5852  -18.6522   25.6170 C   0  0  0  0  0  0  0  0  0  0  0  0
    7.7366  -17.6671   26.0864 C   0  0  0  0  0  0  0  0  0  0  0  0
    6.5183  -17.4658   25.4803 C   0  0  0  0  0  0  0  0  0  0  0  0
    6.1179  -18.2363   24.3992 C   0  0  0  0  0  0  0  0  0  0  0  0
    7.5178  -18.4347   21.2176 C   0  0  0  0  0  0  0  0  0  0  0  0
    8.6506  -19.0138   21.0428 O   0  0  0  0  0  0  0  0  0  0  0  0
    6.9977  -14.6131   20.2961 O   0  0  0  0  0  0  0  0  0  0  0  0
    8.2412  -15.0205   19.8844 C   0  0  0  0  0  0  0  0  0  0  0  0
    8.6579  -16.2274   20.7198 C   0  0  2  0  0  0  0  0  0  0  0  0
    7.5339  -17.0257   21.0864 N   0  0  0  0  0  0  0  0  0  0  0  0
    9.4498  -15.7808   21.8939 C   0  0  0  0  0  0  0  0  0  0  0  0
    9.7884  -14.5844   21.9221 O   0  0  0  0  0  0  0  0  0  0  0  0
    9.8515  -16.5944   22.9745 N   0  0  0  0  0  0  0  0  0  0  0  0
   10.7008  -16.1378   24.0659 C   0  0  1  0  0  0  0  0  0  0  0  0
   10.3917  -14.7865   24.5378 C   0  0  0  0  0  0  0  0  0  0  0  0
    9.1197  -14.7399   25.2999 C   0  0  0  0  0  0  0  0  0  0  0  0
    8.5098  -15.7641   25.9979 C   0  0  0  0  0  0  0  0  0  0  0  0
    7.3514  -15.3422   26.5255 N   0  0  0  0  0  0  0  0  0  0  0  0
    7.1547  -14.0489   26.2046 C   0  0  0  0  0  0  0  0  0  0  0  0
    6.1255  -13.1919   26.5268 C   0  0  0  0  0  0  0  0  0  0  0  0
    6.2096  -11.8722   26.0532 C   0  0  0  0  0  0  0  0  0  0  0  0
    7.2913  -11.4692   25.2964 C   0  0  0  0  0  0  0  0  0  0  0  0
    8.2835  -12.3682   25.0081 C   0  0  0  0  0  0  0  0  0  0  0  0
    8.2505  -13.6561   25.4397 C   0  0  0  0  0  0  0  0  0  0  0  0
   10.9227  -17.1596   25.0776 C   0  0  0  0  0  0  0  0  0  0  0  0
   11.7762  -16.9836   25.9699 O   0  0  0  0  0  0  0  0  0  0  0  0
   10.1995  -18.3372   25.0774 O   0  0  0  0  0  0  0  0  0  0  0  0
  2  1  1  6
  3  2  1  0
  4  3  1  0
  5  4  2  0
  6  5  1  0
  7  8  1  0
  7  6  2  0
  8  9  2  0
  9  4  1  0
 10 11  2  0
 10  2  1  0
 12 13  1  0
 14 13  1  1
 14 15  1  0
 15 10  1  0
 16 14  1  0
 17 16  2  0
 18 16  1  0
 19 20  1  1
 19 18  1  0
 21 20  1  0
 22 21  2  0
 23 24  1  0
 23 22  1  0
 24 29  2  0
 25 24  1  0
 25 26  2  0
 26 27  1  0
 27 28  2  0
 29 21  1  0
 29 28  1  0
 30 32  1  0
 30 19  1  0
 31 30  2  0
M  END
$$$$
