FSW.pdb
     RDKit          3D

 32 34  0  0  1  0  0  0  0  0999 V2000
    6.4677  -21.2022   22.5158 N   0  0  0  0  0  0  0  0  0  0  0  0
    6.4009  -19.7661   22.2601 C   0  0  1  0  0  0  0  0  0  0  0  0
    5.6489  -19.2001   23.4684 C   0  0  0  0  0  0  0  0  0  0  0  0
    5.2420  -20.2552   24.3995 C   0  0  0  0  0  0  0  0  0  0  0  0
    4.2987  -21.1820   24.0676 C   0  0  0  0  0  0  0  0  0  0  0  0
    3.8863  -22.1961   24.9101 C   0  0  0  0  0  0  0  0  0  0  0  0
    4.4711  -22.2641   26.1608 C   0  0  0  0  0  0  0  0  0  0  0  0
    5.4257  -21.3420   26.5221 C   0  0  0  0  0  0  0  0  0  0  0  0
    5.8181  -20.3359   25.6523 C   0  0  0  0  0  0  0  0  0  0  0  0
    7.7500  -19.1431   22.2258 C   0  0  0  0  0  0  0  0  0  0  0  0
    8.7761  -19.6975   22.7633 O   0  0  0  0  0  0  0  0  0  0  0  0
    8.1608  -15.9738   19.9397 O   0  0  0  0  0  0  0  0  0  0  0  0
    9.3731  -16.1751   20.5493 C   0  0  0  0  0  0  0  0  0  0  0  0
    9.1668  -17.0978   21.7470 C   0  0  2  0  0  0  0  0  0  0  0  0
    7.9964  -17.8995   21.5968 N   0  0  0  0  0  0  0  0  0  0  0  0
    9.1593  -16.3038   23.0019 C   0  0  0  0  0  0  0  0  0  0  0  0
    8.7223  -15.1416   22.9298 O   0  0  0  0  0  0  0  0  0  0  0  0
    9.6058  -16.7520   24.2631 N   0  0  0  0  0  0  0  0  0  0  0  0
   10.4872  -15.9867   25.1340 C   0  0  1  0  0  0  0  0  0  0  0  0
   10.0094  -14.6341   25.4274 C   0  0  0  0  0  0  0  0  0  0  0  0
    8.5665  -14.6155   25.7720 C   0  0  0  0  0  0  0  0  0  0  0  0
    7.6893  -15.6816   25.8130 C   0  0  0  0  0  0  0  0  0  0  0  0
    6.4574  -15.2586   26.1316 N   0  0  0  0  0  0  0  0  0  0  0  0
    6.4718  -13.9237   26.3113 C   0  0  0  0  0  0  0  0  0  0  0  0
    5.4605  -13.0548   26.6575 C   0  0  0  0  0  0  0  0  0  0  0  0
    5.7912  -11.6961   26.7892 C   0  0  0  0  0  0  0  0  0  0  0  0
    7.0863  -11.2685   26.5767 C   0  0  0  0  0  0  0  0  0  0  0  0
    8.0486  -12.1806   26.2336 C   0  0  0  0  0  0  0  0  0  0  0  0
    7.7820  -13.5054   26.0914 C   0  0  0  0  0  0  0  0  0  0  0  0
   10.9984  -16.7669   26.2506 C   0  0  0  0  0  0  0  0  0  0  0  0
   11.7853  -16.2498   27.0686 O   0  0  0  0  0  0  0  0  0  0  0  0
   10.6271  -18.0854   26.4331 O   0  0  0  0  0  0  0  0  0  0  0  0
  2  1  1  1
  3  2  1  0
  4  3  1  0
  5  4  2  0
  6  5  1  0
  7  8  1  0
  7  6  2  0
  8  9  2  0
  9  4  1  0
 10 11  2  0
 10  2  1  0
 12 13  1  0
 14 13  1  6
 14 15  1  0
 15 10  1  0
 16 14  1  0
 17 16  2  0
 18 16  1  0
 19 20  1  1
 19 18  1  0
 21 20  1  0
 22 21  2  0
 23 24  1  0
 23 22  1  0
 24 29  2  0
 25 24  1  0
 25 26  2  0
 26 27  1  0
 27 28  2  0
 29 21  1  0
 29 28  1  0
 30 32  1  0
 30 19  1  0
 31 30  2  0
M  END
$$$$
