FSW.pdb
     RDKit          3D

 32 34  0  0  1  0  0  0  0  0999 V2000
    7.8677  -16.5221   17.8223 N   0  0  0  0  0  0  0  0  0  0  0  0
    9.1430  -16.6632   18.5195 C   0  0  1  0  0  0  0  0  0  0  0  0
    9.6813  -15.2327   18.6190 C   0  0  0  0  0  0  0  0  0  0  0  0
    8.9065  -14.4238   19.5629 C   0  0  0  0  0  0  0  0  0  0  0  0
    9.3727  -14.1315   20.8103 C   0  0  0  0  0  0  0  0  0  0  0  0
    8.6801  -13.3705   21.7320 C   0  0  0  0  0  0  0  0  0  0  0  0
    7.4424  -12.8833   21.3559 C   0  0  0  0  0  0  0  0  0  0  0  0
    6.9474  -13.1627   20.1033 C   0  0  0  0  0  0  0  0  0  0  0  0
    7.6684  -13.9298   19.2008 C   0  0  0  0  0  0  0  0  0  0  0  0
    8.9682  -17.1851   19.9003 C   0  0  0  0  0  0  0  0  0  0  0  0
    7.8266  -17.2025   20.4881 O   0  0  0  0  0  0  0  0  0  0  0  0
   12.1049  -19.1986   21.7128 O   0  0  0  0  0  0  0  0  0  0  0  0
   10.8268  -19.5105   22.1014 C   0  0  0  0  0  0  0  0  0  0  0  0
    9.9605  -18.2615   21.9682 C   0  0  2  0  0  0  0  0  0  0  0  0
   10.0457  -17.7005   20.6593 N   0  0  0  0  0  0  0  0  0  0  0  0
   10.3110  -17.2869   23.0323 C   0  0  0  0  0  0  0  0  0  0  0  0
   11.2657  -16.5232   22.8036 O   0  0  0  0  0  0  0  0  0  0  0  0
    9.6583  -17.1552   24.2764 N   0  0  0  0  0  0  0  0  0  0  0  0
   10.2388  -16.4888   25.4339 C   0  0  1  0  0  0  0  0  0  0  0  0
    9.9150  -15.0638   25.5271 C   0  0  0  0  0  0  0  0  0  0  0  0
    8.4530  -14.8296   25.6185 C   0  0  0  0  0  0  0  0  0  0  0  0
    7.4352  -15.7553   25.4955 C   0  0  0  0  0  0  0  0  0  0  0  0
    6.2423  -15.1522   25.6023 N   0  0  0  0  0  0  0  0  0  0  0  0
    6.4210  -13.8314   25.7972 C   0  0  0  0  0  0  0  0  0  0  0  0
    5.5036  -12.8192   25.9743 C   0  0  0  0  0  0  0  0  0  0  0  0
    6.0021  -11.5217   26.1768 C   0  0  0  0  0  0  0  0  0  0  0  0
    7.3629  -11.2912   26.1953 C   0  0  0  0  0  0  0  0  0  0  0  0
    8.2257  -12.3390   26.0123 C   0  0  0  0  0  0  0  0  0  0  0  0
    7.7964  -13.6123   25.8110 C   0  0  0  0  0  0  0  0  0  0  0  0
   10.1320  -17.2749   26.6535 C   0  0  0  0  0  0  0  0  0  0  0  0
   10.6824  -16.8833   27.7021 O   0  0  0  0  0  0  0  0  0  0  0  0
    9.4237  -18.4610   26.6819 O   0  0  0  0  0  0  0  0  0  0  0  0
  2  1  1  1
  3  2  1  0
  4  3  1  0
  5  4  2  0
  6  5  1  0
  7  8  1  0
  7  6  2  0
  8  9  2  0
  9  4  1  0
 10 11  2  0
 10  2  1  0
 12 13  1  0
 14 13  1  6
 14 15  1  0
 15 10  1  0
 16 14  1  0
 17 16  2  0
 18 16  1  0
 19 20  1  1
 19 18  1  0
 21 20  1  0
 22 21  2  0
 23 24  1  0
 23 22  1  0
 24 29  2  0
 25 24  1  0
 25 26  2  0
 26 27  1  0
 27 28  2  0
 29 21  1  0
 29 28  1  0
 30 32  1  0
 30 19  1  0
 31 30  2  0
M  END
$$$$
