FSW.pdb
     RDKit          3D

 32 34  0  0  1  0  0  0  0  0999 V2000
    5.4195  -17.4542   20.5985 N   0  0  0  0  0  0  0  0  0  0  0  0
    6.5866  -16.5793   20.5276 C   0  0  1  0  0  0  0  0  0  0  0  0
    6.0235  -15.1754   20.7679 C   0  0  0  0  0  0  0  0  0  0  0  0
    6.9906  -14.1332   20.4151 C   0  0  0  0  0  0  0  0  0  0  0  0
    7.6630  -13.4250   21.3665 C   0  0  0  0  0  0  0  0  0  0  0  0
    8.5856  -12.4370   21.0819 C   0  0  0  0  0  0  0  0  0  0  0  0
    8.8322  -12.1587   19.7506 C   0  0  0  0  0  0  0  0  0  0  0  0
    8.1680  -12.8579   18.7697 C   0  0  0  0  0  0  0  0  0  0  0  0
    7.2476  -13.8446   19.0890 C   0  0  0  0  0  0  0  0  0  0  0  0
    7.5678  -16.8713   21.6053 C   0  0  0  0  0  0  0  0  0  0  0  0
    7.2262  -16.9557   22.8403 O   0  0  0  0  0  0  0  0  0  0  0  0
   11.6497  -16.7434   20.9330 O   0  0  0  0  0  0  0  0  0  0  0  0
   11.2377  -17.8835   21.5750 C   0  0  0  0  0  0  0  0  0  0  0  0
    9.9044  -17.5997   22.2605 C   0  0  2  0  0  0  0  0  0  0  0  0
    8.9431  -17.0788   21.3442 N   0  0  0  0  0  0  0  0  0  0  0  0
   10.1168  -16.7128   23.4325 C   0  0  0  0  0  0  0  0  0  0  0  0
   10.5387  -15.5659   23.2010 O   0  0  0  0  0  0  0  0  0  0  0  0
    9.8845  -17.0589   24.7805 N   0  0  0  0  0  0  0  0  0  0  0  0
   10.5681  -16.4423   25.9090 C   0  0  1  0  0  0  0  0  0  0  0  0
   10.0486  -15.1226   26.2730 C   0  0  0  0  0  0  0  0  0  0  0  0
    8.6038  -15.1653   26.6068 C   0  0  0  0  0  0  0  0  0  0  0  0
    7.7528  -16.2522   26.5586 C   0  0  0  0  0  0  0  0  0  0  0  0
    6.5089  -15.8848   26.8993 N   0  0  0  0  0  0  0  0  0  0  0  0
    6.4895  -14.5678   27.1815 C   0  0  0  0  0  0  0  0  0  0  0  0
    5.4552  -13.7528   27.5858 C   0  0  0  0  0  0  0  0  0  0  0  0
    5.7517  -12.4007   27.8245 C   0  0  0  0  0  0  0  0  0  0  0  0
    7.0371  -11.9270   27.6556 C   0  0  0  0  0  0  0  0  0  0  0  0
    8.0235  -12.7866   27.2507 C   0  0  0  0  0  0  0  0  0  0  0  0
    7.7904  -14.1024   27.0048 C   0  0  0  0  0  0  0  0  0  0  0  0
   10.8273  -17.3761   26.9941 C   0  0  0  0  0  0  0  0  0  0  0  0
   11.4730  -17.0093   27.9963 O   0  0  0  0  0  0  0  0  0  0  0  0
   10.3675  -18.6783   26.9442 O   0  0  0  0  0  0  0  0  0  0  0  0
  2  1  1  1
  3  2  1  0
  4  3  1  0
  5  4  2  0
  6  5  1  0
  7  8  1  0
  7  6  2  0
  8  9  2  0
  9  4  1  0
 10 11  2  0
 10  2  1  0
 12 13  1  0
 14 13  1  6
 14 15  1  0
 15 10  1  0
 16 14  1  0
 17 16  2  0
 18 16  1  0
 19 20  1  1
 19 18  1  0
 21 20  1  0
 22 21  2  0
 23 24  1  0
 23 22  1  0
 24 29  2  0
 25 24  1  0
 25 26  2  0
 26 27  1  0
 27 28  2  0
 29 21  1  0
 29 28  1  0
 30 32  1  0
 30 19  1  0
 31 30  2  0
M  END
$$$$
