FSW.pdb
     RDKit          3D

 32 34  0  0  1  0  0  0  0  0999 V2000
    7.9792  -17.0841   16.9279 N   0  0  0  0  0  0  0  0  0  0  0  0
    8.4823  -16.2784   18.0370 C   0  0  1  0  0  0  0  0  0  0  0  0
    7.5552  -15.0597   18.0718 C   0  0  0  0  0  0  0  0  0  0  0  0
    7.8410  -14.1908   19.2160 C   0  0  0  0  0  0  0  0  0  0  0  0
    8.7448  -13.1731   19.1374 C   0  0  0  0  0  0  0  0  0  0  0  0
    9.0439  -12.3266   20.1873 C   0  0  0  0  0  0  0  0  0  0  0  0
    8.3820  -12.5345   21.3829 C   0  0  0  0  0  0  0  0  0  0  0  0
    7.4649  -13.5540   21.4905 C   0  0  0  0  0  0  0  0  0  0  0  0
    7.1869  -14.3863   20.4168 C   0  0  0  0  0  0  0  0  0  0  0  0
    8.3606  -16.9853   19.3390 C   0  0  0  0  0  0  0  0  0  0  0  0
    7.2808  -17.5796   19.6991 O   0  0  0  0  0  0  0  0  0  0  0  0
   11.3696  -18.8518   21.0869 O   0  0  0  0  0  0  0  0  0  0  0  0
   10.0882  -19.0290   21.5435 C   0  0  0  0  0  0  0  0  0  0  0  0
    9.3842  -17.6753   21.5516 C   0  0  2  0  0  0  0  0  0  0  0  0
    9.4259  -17.0541   20.2681 N   0  0  0  0  0  0  0  0  0  0  0  0
    9.9517  -16.8163   22.6217 C   0  0  0  0  0  0  0  0  0  0  0  0
   10.9571  -16.1445   22.3301 O   0  0  0  0  0  0  0  0  0  0  0  0
    9.4520  -16.6992   23.9360 N   0  0  0  0  0  0  0  0  0  0  0  0
   10.2318  -16.2059   25.0627 C   0  0  1  0  0  0  0  0  0  0  0  0
    9.8358  -14.8743   25.5256 C   0  0  0  0  0  0  0  0  0  0  0  0
    8.3642  -14.7479   25.6653 C   0  0  0  0  0  0  0  0  0  0  0  0
    7.4125  -15.7433   25.5593 C   0  0  0  0  0  0  0  0  0  0  0  0
    6.1831  -15.2298   25.7118 N   0  0  0  0  0  0  0  0  0  0  0  0
    6.2722  -13.9022   25.9216 C   0  0  0  0  0  0  0  0  0  0  0  0
    5.2903  -12.9616   26.1423 C   0  0  0  0  0  0  0  0  0  0  0  0
    5.7002  -11.6342   26.3495 C   0  0  0  0  0  0  0  0  0  0  0  0
    7.0408  -11.3058   26.3298 C   0  0  0  0  0  0  0  0  0  0  0  0
    7.9706  -12.2858   26.1044 C   0  0  0  0  0  0  0  0  0  0  0  0
    7.6281  -13.5841   25.8966 C   0  0  0  0  0  0  0  0  0  0  0  0
   10.4635  -17.2203   26.0796 C   0  0  0  0  0  0  0  0  0  0  0  0
   11.2619  -17.0019   27.0127 O   0  0  0  0  0  0  0  0  0  0  0  0
    9.8101  -18.4373   26.0397 O   0  0  0  0  0  0  0  0  0  0  0  0
  2  1  1  6
  3  2  1  0
  4  3  1  0
  5  4  2  0
  6  5  1  0
  7  8  1  0
  7  6  2  0
  8  9  2  0
  9  4  1  0
 10 11  2  0
 10  2  1  0
 12 13  1  0
 14 13  1  6
 14 15  1  0
 15 10  1  0
 16 14  1  0
 17 16  2  0
 18 16  1  0
 19 20  1  1
 19 18  1  0
 21 20  1  0
 22 21  2  0
 23 24  1  0
 23 22  1  0
 24 29  2  0
 25 24  1  0
 25 26  2  0
 26 27  1  0
 27 28  2  0
 29 21  1  0
 29 28  1  0
 30 32  1  0
 30 19  1  0
 31 30  2  0
M  END
$$$$
