FSW.pdb
     RDKit          3D

 32 34  0  0  1  0  0  0  0  0999 V2000
    6.3787  -17.3539   21.3886 N   0  0  0  0  0  0  0  0  0  0  0  0
    7.5523  -16.5581   21.7378 C   0  0  1  0  0  0  0  0  0  0  0  0
    6.9773  -15.2135   22.1930 C   0  0  0  0  0  0  0  0  0  0  0  0
    7.3330  -14.1300   21.2737 C   0  0  0  0  0  0  0  0  0  0  0  0
    8.6307  -13.8397   20.9728 C   0  0  0  0  0  0  0  0  0  0  0  0
    9.0137  -12.8313   20.1099 C   0  0  0  0  0  0  0  0  0  0  0  0
    8.0132  -12.0787   19.5240 C   0  0  0  0  0  0  0  0  0  0  0  0
    6.6951  -12.3497   19.8095 C   0  0  0  0  0  0  0  0  0  0  0  0
    6.3439  -13.3700   20.6803 C   0  0  0  0  0  0  0  0  0  0  0  0
    8.3044  -17.1454   22.8775 C   0  0  0  0  0  0  0  0  0  0  0  0
    7.7339  -17.4738   23.9801 O   0  0  0  0  0  0  0  0  0  0  0  0
   12.4363  -17.3348   22.6885 O   0  0  0  0  0  0  0  0  0  0  0  0
   11.8611  -18.3953   23.3414 C   0  0  0  0  0  0  0  0  0  0  0  0
   10.4927  -17.9621   23.8593 C   0  0  2  0  0  0  0  0  0  0  0  0
    9.6982  -17.3852   22.8245 N   0  0  0  0  0  0  0  0  0  0  0  0
   10.6563  -17.0585   25.0263 C   0  0  0  0  0  0  0  0  0  0  0  0
   10.9962  -15.8863   24.7870 O   0  0  0  0  0  0  0  0  0  0  0  0
   10.4624  -17.4148   26.3777 N   0  0  0  0  0  0  0  0  0  0  0  0
   11.0987  -16.7361   27.4981 C   0  0  1  0  0  0  0  0  0  0  0  0
   10.5478  -15.4098   27.7837 C   0  0  0  0  0  0  0  0  0  0  0  0
    9.1458  -15.2767   27.3171 C   0  0  0  0  0  0  0  0  0  0  0  0
    8.1733  -16.2559   27.2595 C   0  0  0  0  0  0  0  0  0  0  0  0
    7.0403  -15.7566   26.7445 N   0  0  0  0  0  0  0  0  0  0  0  0
    7.2154  -14.4542   26.4487 C   0  0  0  0  0  0  0  0  0  0  0  0
    6.3420  -13.5300   25.9189 C   0  0  0  0  0  0  0  0  0  0  0  0
    6.8166  -12.2204   25.7380 C   0  0  0  0  0  0  0  0  0  0  0  0
    8.1116  -11.8923   26.0853 C   0  0  0  0  0  0  0  0  0  0  0  0
    8.9332  -12.8559   26.6070 C   0  0  0  0  0  0  0  0  0  0  0  0
    8.5252  -14.1373   26.8010 C   0  0  0  0  0  0  0  0  0  0  0  0
   11.3357  -17.6149   28.6331 C   0  0  0  0  0  0  0  0  0  0  0  0
   11.9157  -17.1837   29.6497 O   0  0  0  0  0  0  0  0  0  0  0  0
   10.9262  -18.9346   28.6153 O   0  0  0  0  0  0  0  0  0  0  0  0
  2  1  1  1
  3  2  1  0
  4  3  1  0
  5  4  2  0
  6  5  1  0
  7  8  1  0
  7  6  2  0
  8  9  2  0
  9  4  1  0
 10 11  2  0
 10  2  1  0
 12 13  1  0
 14 13  1  6
 14 15  1  0
 15 10  1  0
 16 14  1  0
 17 16  2  0
 18 16  1  0
 19 20  1  1
 19 18  1  0
 21 20  1  0
 22 21  2  0
 23 24  1  0
 23 22  1  0
 24 29  2  0
 25 24  1  0
 25 26  2  0
 26 27  1  0
 27 28  2  0
 29 21  1  0
 29 28  1  0
 30 32  1  0
 30 19  1  0
 31 30  2  0
M  END
$$$$
