FSW.pdb
     RDKit          3D

 32 34  0  0  1  0  0  0  0  0999 V2000
    7.8531  -16.7470   17.9403 N   0  0  0  0  0  0  0  0  0  0  0  0
    9.1561  -16.8047   18.5969 C   0  0  1  0  0  0  0  0  0  0  0  0
    9.6832  -15.3687   18.5211 C   0  0  0  0  0  0  0  0  0  0  0  0
    8.9514  -14.4720   19.4190 C   0  0  0  0  0  0  0  0  0  0  0  0
    7.8137  -13.8322   19.0252 C   0  0  0  0  0  0  0  0  0  0  0  0
    7.0888  -12.9815   19.8371 C   0  0  0  0  0  0  0  0  0  0  0  0
    7.5550  -12.7743   21.1219 C   0  0  0  0  0  0  0  0  0  0  0  0
    8.7004  -13.4071   21.5458 C   0  0  0  0  0  0  0  0  0  0  0  0
    9.4051  -14.2558   20.7057 C   0  0  0  0  0  0  0  0  0  0  0  0
    9.0410  -17.1765   20.0315 C   0  0  0  0  0  0  0  0  0  0  0  0
    8.0540  -16.7992   20.7613 O   0  0  0  0  0  0  0  0  0  0  0  0
   12.1118  -19.3240   22.0149 O   0  0  0  0  0  0  0  0  0  0  0  0
   10.8099  -19.7127   22.2049 C   0  0  0  0  0  0  0  0  0  0  0  0
    9.9075  -18.4974   22.0123 C   0  0  2  0  0  0  0  0  0  0  0  0
   10.0081  -17.9730   20.6895 N   0  0  0  0  0  0  0  0  0  0  0  0
   10.1990  -17.4807   23.0546 C   0  0  0  0  0  0  0  0  0  0  0  0
   10.7605  -16.4360   22.6801 O   0  0  0  0  0  0  0  0  0  0  0  0
    9.8971  -17.5986   24.4278 N   0  0  0  0  0  0  0  0  0  0  0  0
   10.1901  -16.5708   25.4171 C   0  0  1  0  0  0  0  0  0  0  0  0
    9.7005  -15.2386   25.0570 C   0  0  0  0  0  0  0  0  0  0  0  0
    8.2954  -15.0273   25.4834 C   0  0  0  0  0  0  0  0  0  0  0  0
    7.2576  -15.9387   25.4698 C   0  0  0  0  0  0  0  0  0  0  0  0
    6.1255  -15.3613   25.8980 N   0  0  0  0  0  0  0  0  0  0  0  0
    6.3660  -14.0723   26.2063 C   0  0  0  0  0  0  0  0  0  0  0  0
    5.5258  -13.0952   26.6930 C   0  0  0  0  0  0  0  0  0  0  0  0
    6.0800  -11.8280   26.9380 C   0  0  0  0  0  0  0  0  0  0  0  0
    7.4180  -11.5917   26.6949 C   0  0  0  0  0  0  0  0  0  0  0  0
    8.2030  -12.6038   26.2099 C   0  0  0  0  0  0  0  0  0  0  0  0
    7.7172  -13.8467   25.9542 C   0  0  0  0  0  0  0  0  0  0  0  0
    9.9592  -17.0159   26.7829 C   0  0  0  0  0  0  0  0  0  0  0  0
   10.2902  -16.2916   27.7429 O   0  0  0  0  0  0  0  0  0  0  0  0
    9.3713  -18.2379   27.0486 O   0  0  0  0  0  0  0  0  0  0  0  0
  2  1  1  1
  3  2  1  0
  4  3  1  0
  5  4  2  0
  6  5  1  0
  7  8  1  0
  7  6  2  0
  8  9  2  0
  9  4  1  0
 10 11  2  0
 10  2  1  0
 12 13  1  0
 14 13  1  6
 14 15  1  0
 15 10  1  0
 16 14  1  0
 17 16  2  0
 18 16  1  0
 19 20  1  6
 19 18  1  0
 21 20  1  0
 22 21  2  0
 23 24  1  0
 23 22  1  0
 24 29  2  0
 25 24  1  0
 25 26  2  0
 26 27  1  0
 27 28  2  0
 29 21  1  0
 29 28  1  0
 30 32  1  0
 30 19  1  0
 31 30  2  0
M  END
$$$$
