FSW.pdb
     RDKit          3D

 32 34  0  0  1  0  0  0  0  0999 V2000
    8.3484  -16.4318   17.2122 N   0  0  0  0  0  0  0  0  0  0  0  0
    8.4651  -15.6976   18.4690 C   0  0  1  0  0  0  0  0  0  0  0  0
    7.2304  -14.7917   18.4953 C   0  0  0  0  0  0  0  0  0  0  0  0
    7.0712  -14.1258   19.7903 C   0  0  0  0  0  0  0  0  0  0  0  0
    6.4443  -14.7324   20.8381 C   0  0  0  0  0  0  0  0  0  0  0  0
    6.2742  -14.1461   22.0773 C   0  0  0  0  0  0  0  0  0  0  0  0
    6.7724  -12.8686   22.2525 C   0  0  0  0  0  0  0  0  0  0  0  0
    7.4095  -12.2327   21.2124 C   0  0  0  0  0  0  0  0  0  0  0  0
    7.5644  -12.8496   19.9802 C   0  0  0  0  0  0  0  0  0  0  0  0
    8.3985  -16.5991   19.6490 C   0  0  0  0  0  0  0  0  0  0  0  0
    7.5237  -17.5337   19.7503 O   0  0  0  0  0  0  0  0  0  0  0  0
   11.4455  -18.2042   21.2120 O   0  0  0  0  0  0  0  0  0  0  0  0
   10.1870  -18.6007   21.5874 C   0  0  0  0  0  0  0  0  0  0  0  0
    9.3507  -17.3564   21.8714 C   0  0  2  0  0  0  0  0  0  0  0  0
    9.2951  -16.4912   20.7386 N   0  0  0  0  0  0  0  0  0  0  0  0
    9.8573  -16.6734   23.0888 C   0  0  0  0  0  0  0  0  0  0  0  0
   10.7700  -15.8435   22.9297 O   0  0  0  0  0  0  0  0  0  0  0  0
    9.3958  -16.8859   24.4051 N   0  0  0  0  0  0  0  0  0  0  0  0
   10.1671  -16.5700   25.5994 C   0  0  1  0  0  0  0  0  0  0  0  0
    9.3534  -16.1483   26.7414 C   0  0  0  0  0  0  0  0  0  0  0  0
    8.1566  -15.3799   26.3193 C   0  0  0  0  0  0  0  0  0  0  0  0
    6.9751  -15.8678   25.7961 C   0  0  0  0  0  0  0  0  0  0  0  0
    6.1438  -14.8574   25.5026 N   0  0  0  0  0  0  0  0  0  0  0  0
    6.7307  -13.6859   25.8151 C   0  0  0  0  0  0  0  0  0  0  0  0
    6.2665  -12.3935   25.7059 C   0  0  0  0  0  0  0  0  0  0  0  0
    7.1163  -11.3619   26.1378 C   0  0  0  0  0  0  0  0  0  0  0  0
    8.3645  -11.6532   26.6501 C   0  0  0  0  0  0  0  0  0  0  0  0
    8.7703  -12.9587   26.7326 C   0  0  0  0  0  0  0  0  0  0  0  0
    7.9887  -13.9937   26.3276 C   0  0  0  0  0  0  0  0  0  0  0  0
   11.2288  -17.5301   25.8592 C   0  0  0  0  0  0  0  0  0  0  0  0
   11.2998  -18.5822   25.1929 O   0  0  0  0  0  0  0  0  0  0  0  0
   12.1771  -17.3023   26.8383 O   0  0  0  0  0  0  0  0  0  0  0  0
  2  1  1  6
  3  2  1  0
  4  3  1  0
  5  4  2  0
  6  5  1  0
  7  8  1  0
  7  6  2  0
  8  9  2  0
  9  4  1  0
 10 11  2  0
 10  2  1  0
 12 13  1  0
 14 13  1  6
 14 15  1  0
 15 10  1  0
 16 14  1  0
 17 16  2  0
 18 16  1  0
 19 20  1  1
 19 18  1  0
 21 20  1  0
 22 21  2  0
 23 24  1  0
 23 22  1  0
 24 29  2  0
 25 24  1  0
 25 26  2  0
 26 27  1  0
 27 28  2  0
 29 21  1  0
 29 28  1  0
 30 32  1  0
 30 19  1  0
 31 30  2  0
M  END
$$$$
