FSW.pdb
     RDKit          3D

 32 34  0  0  1  0  0  0  0  0999 V2000
    8.1967  -16.4613   17.1845 N   0  0  0  0  0  0  0  0  0  0  0  0
    8.5770  -15.7434   18.3980 C   0  0  1  0  0  0  0  0  0  0  0  0
    7.5458  -14.6166   18.5112 C   0  0  0  0  0  0  0  0  0  0  0  0
    7.6574  -13.9024   19.7852 C   0  0  0  0  0  0  0  0  0  0  0  0
    8.4262  -12.7842   19.9173 C   0  0  0  0  0  0  0  0  0  0  0  0
    8.5589  -12.0762   21.0961 C   0  0  0  0  0  0  0  0  0  0  0  0
    7.8673  -12.5393   22.1997 C   0  0  0  0  0  0  0  0  0  0  0  0
    7.0840  -13.6652   22.0951 C   0  0  0  0  0  0  0  0  0  0  0  0
    6.9717  -14.3531   20.8963 C   0  0  0  0  0  0  0  0  0  0  0  0
    8.4599  -16.5965   19.6096 C   0  0  0  0  0  0  0  0  0  0  0  0
    7.4989  -17.4331   19.7698 O   0  0  0  0  0  0  0  0  0  0  0  0
   11.5129  -18.2952   21.2571 O   0  0  0  0  0  0  0  0  0  0  0  0
   10.2291  -18.6558   21.5790 C   0  0  0  0  0  0  0  0  0  0  0  0
    9.4146  -17.3880   21.8191 C   0  0  2  0  0  0  0  0  0  0  0  0
    9.3996  -16.5474   20.6666 N   0  0  0  0  0  0  0  0  0  0  0  0
    9.9122  -16.6889   23.0309 C   0  0  0  0  0  0  0  0  0  0  0  0
   10.7883  -15.8225   22.8608 O   0  0  0  0  0  0  0  0  0  0  0  0
    9.4802  -16.9238   24.3534 N   0  0  0  0  0  0  0  0  0  0  0  0
   10.1480  -16.3942   25.5344 C   0  0  1  0  0  0  0  0  0  0  0  0
    9.2659  -16.2163   26.6896 C   0  0  0  0  0  0  0  0  0  0  0  0
    7.9566  -15.6336   26.3063 C   0  0  0  0  0  0  0  0  0  0  0  0
    6.8007  -16.3017   25.9521 C   0  0  0  0  0  0  0  0  0  0  0  0
    5.8354  -15.4261   25.6360 N   0  0  0  0  0  0  0  0  0  0  0  0
    6.3054  -14.1706   25.7674 C   0  0  0  0  0  0  0  0  0  0  0  0
    5.6859  -12.9563   25.5694 C   0  0  0  0  0  0  0  0  0  0  0  0
    6.4423  -11.7971   25.8083 C   0  0  0  0  0  0  0  0  0  0  0  0
    7.7543  -11.8928   26.2264 C   0  0  0  0  0  0  0  0  0  0  0  0
    8.3154  -13.1294   26.4050 C   0  0  0  0  0  0  0  0  0  0  0  0
    7.6291  -14.2815   26.1865 C   0  0  0  0  0  0  0  0  0  0  0  0
   11.4438  -17.0096   25.7771 C   0  0  0  0  0  0  0  0  0  0  0  0
   11.7785  -18.0345   25.1500 O   0  0  0  0  0  0  0  0  0  0  0  0
   12.3283  -16.4785   26.6964 O   0  0  0  0  0  0  0  0  0  0  0  0
  2  1  1  6
  3  2  1  0
  4  3  1  0
  5  4  2  0
  6  5  1  0
  7  8  1  0
  7  6  2  0
  8  9  2  0
  9  4  1  0
 10 11  2  0
 10  2  1  0
 12 13  1  0
 14 13  1  6
 14 15  1  0
 15 10  1  0
 16 14  1  0
 17 16  2  0
 18 16  1  0
 19 20  1  1
 19 18  1  0
 21 20  1  0
 22 21  2  0
 23 24  1  0
 23 22  1  0
 24 29  2  0
 25 24  1  0
 25 26  2  0
 26 27  1  0
 27 28  2  0
 29 21  1  0
 29 28  1  0
 30 32  1  0
 30 19  1  0
 31 30  2  0
M  END
$$$$
