RFR.pdb
     RDKit          3D

 34 34  0  0  1  0  0  0  0  0999 V2000
    6.8034  -14.0694   13.9311 N   0  0  0  0  0  0  0  0  0  0  0  0
    7.6933  -13.8364   15.0218 C   0  0  0  0  0  0  0  0  0  0  0  0
    7.9474  -12.6535   15.4312 N   0  0  0  0  0  0  0  0  0  0  0  0
    8.3230  -14.9420   15.6827 N   0  0  0  0  0  0  0  0  0  0  0  0
    7.9622  -15.4222   16.9798 C   0  0  0  0  0  0  0  0  0  0  0  0
    8.6177  -14.6955   18.1005 C   0  0  0  0  0  0  0  0  0  0  0  0
    9.8127  -15.3604   18.7135 C   0  0  0  0  0  0  0  0  0  0  0  0
    9.5109  -16.2003   19.8871 C   0  0  2  0  0  0  0  0  0  0  0  0
    8.1845  -16.7561   19.7631 N   0  0  0  0  0  0  0  0  0  0  0  0
    9.6303  -15.5449   21.1894 C   0  0  0  0  0  0  0  0  0  0  0  0
   10.7389  -14.9981   21.4699 O   0  0  0  0  0  0  0  0  0  0  0  0
    8.5606  -12.3860   16.2087 N   0  0  0  0  0  0  0  0  0  0  0  0
    8.5445  -15.5156   22.1186 C   0  0  1  0  0  0  0  0  0  0  0  0
    8.6597  -14.9639   23.4257 C   0  0  0  0  0  0  0  0  0  0  0  0
    7.3073  -14.2998   23.7344 C   0  0  0  0  0  0  0  0  0  0  0  0
    7.3591  -13.5913   25.0368 C   0  0  0  0  0  0  0  0  0  0  0  0
    6.6331  -14.1170   26.0764 C   0  0  0  0  0  0  0  0  0  0  0  0
    6.6406  -13.5018   27.3190 C   0  0  0  0  0  0  0  0  0  0  0  0
    7.3696  -12.3548   27.5454 C   0  0  0  0  0  0  0  0  0  0  0  0
    8.0948  -11.8338   26.4979 C   0  0  0  0  0  0  0  0  0  0  0  0
    8.0818  -12.4606   25.2485 C   0  0  0  0  0  0  0  0  0  0  0  0
    8.9687  -15.9775   24.4573 O   0  0  0  0  0  0  0  0  0  0  0  0
    8.1689  -16.8945   24.7823 N   0  0  0  0  0  0  0  0  0  0  0  0
   10.5625  -18.7959   21.8513 C   0  0  0  0  0  0  0  0  0  0  0  0
   11.7375  -19.3851   22.3997 N   0  0  0  0  0  0  0  0  0  0  0  0
   12.8029  -19.4170   21.6783 N   0  0  0  0  0  0  0  0  0  0  0  0
   11.7344  -19.9299   23.7293 C   0  0  0  0  0  0  0  0  0  0  0  0
   11.2794  -19.0872   24.7948 C   0  0  0  0  0  0  0  0  0  0  0  0
   12.4109  -18.1043   25.1055 C   0  0  0  0  0  0  0  0  0  0  0  0
   12.0065  -17.1721   26.2137 C   0  0  2  0  0  0  0  0  0  0  0  0
   10.5440  -16.9200   26.1782 N   0  0  0  0  0  0  0  0  0  0  0  0
   10.2156  -15.9286   25.1199 C   0  0  0  0  0  0  0  0  0  0  0  0
    9.9627  -16.5027   27.4500 O   0  0  0  0  0  0  0  0  0  0  0  0
   10.0836  -15.3788   27.9877 O   0  0  0  0  0  0  0  0  0  0  0  0
  2  3  2  0
  2  1  1  0
  4  2  1  0
  5  4  1  0
  6  5  1  0
  6  7  1  0
  8  7  1  0
  8  9  1  6
 10 11  2  0
 10  8  1  0
 12 10  1  0
 13 12  1  0
 13 14  1  1
 15 16  2  0
 15 14  1  0
 17 16  1  0
 18 17  2  0
 19 18  1  0
 19 20  2  0
 20 15  1  0
 21 13  1  0
 21 31  1  0
 22 21  2  0
 23 24  1  0
 24 26  1  0
 24 25  2  0
 26 27  1  0
 27 28  1  0
 28 29  1  0
 30 29  1  6
 30 31  1  0
 30 32  1  0
 32 33  2  0
 32 34  1  0
M  END
$$$$
