RFR.pdb
     RDKit          3D

 34 34  0  0  1  0  0  0  0  0999 V2000
    7.0597  -13.6998   16.8547 N   0  0  0  0  0  0  0  0  0  0  0  0
    8.2876  -13.3578   17.4960 C   0  0  0  0  0  0  0  0  0  0  0  0
    8.4534  -12.2188   18.0499 N   0  0  0  0  0  0  0  0  0  0  0  0
    9.3670  -14.3009   17.5284 N   0  0  0  0  0  0  0  0  0  0  0  0
    9.2755  -15.6523   17.0716 C   0  0  0  0  0  0  0  0  0  0  0  0
    9.1232  -16.6531   18.1618 C   0  0  0  0  0  0  0  0  0  0  0  0
   10.0119  -16.4744   19.3552 C   0  0  0  0  0  0  0  0  0  0  0  0
    9.4756  -17.0382   20.6076 C   0  0  2  0  0  0  0  0  0  0  0  0
    8.1211  -17.4916   20.3995 N   0  0  0  0  0  0  0  0  0  0  0  0
    9.5054  -16.1523   21.7713 C   0  0  0  0  0  0  0  0  0  0  0  0
   10.6317  -15.6938   22.1291 O   0  0  0  0  0  0  0  0  0  0  0  0
    9.2824  -11.8926   18.5583 N   0  0  0  0  0  0  0  0  0  0  0  0
    8.3157  -15.8094   22.4857 C   0  0  1  0  0  0  0  0  0  0  0  0
    8.3300  -15.0727   23.7036 C   0  0  0  0  0  0  0  0  0  0  0  0
    6.9752  -14.3498   23.7865 C   0  0  0  0  0  0  0  0  0  0  0  0
    6.8694  -13.5832   25.0521 C   0  0  0  0  0  0  0  0  0  0  0  0
    5.9300  -13.9906   25.9663 C   0  0  0  0  0  0  0  0  0  0  0  0
    5.7822  -13.3161   27.1686 C   0  0  0  0  0  0  0  0  0  0  0  0
    6.5660  -12.2262   27.4789 C   0  0  0  0  0  0  0  0  0  0  0  0
    7.5056  -11.8237   26.5570 C   0  0  0  0  0  0  0  0  0  0  0  0
    7.6480  -12.5098   25.3474 C   0  0  0  0  0  0  0  0  0  0  0  0
    8.5171  -15.9276   24.8957 O   0  0  0  0  0  0  0  0  0  0  0  0
    7.6658  -16.7746   25.2754 N   0  0  0  0  0  0  0  0  0  0  0  0
   15.1858  -18.5589   23.6520 C   0  0  0  0  0  0  0  0  0  0  0  0
   14.2770  -19.6395   23.8387 N   0  0  0  0  0  0  0  0  0  0  0  0
   14.6202  -20.8092   23.4257 N   0  0  0  0  0  0  0  0  0  0  0  0
   13.0064  -19.4293   24.4759 C   0  0  0  0  0  0  0  0  0  0  0  0
   12.4864  -18.0948   24.5037 C   0  0  0  0  0  0  0  0  0  0  0  0
   11.1170  -18.1595   25.1845 C   0  0  0  0  0  0  0  0  0  0  0  0
   11.1777  -17.5255   26.5465 C   0  0  2  0  0  0  0  0  0  0  0  0
    9.9613  -16.7134   26.8005 N   0  0  0  0  0  0  0  0  0  0  0  0
    9.7009  -15.8001   25.6564 C   0  0  0  0  0  0  0  0  0  0  0  0
    9.9786  -15.9569   28.0484 O   0  0  0  0  0  0  0  0  0  0  0  0
   10.0139  -14.7107   28.1600 O   0  0  0  0  0  0  0  0  0  0  0  0
  2  3  2  0
  2  1  1  0
  4  2  1  0
  5  4  1  0
  6  5  1  0
  6  7  1  0
  8  7  1  0
  8  9  1  6
 10 11  2  0
 10  8  1  0
 12 10  1  0
 13 12  1  0
 13 14  1  1
 15 16  2  0
 15 14  1  0
 17 16  1  0
 18 17  2  0
 19 18  1  0
 19 20  2  0
 20 15  1  0
 21 13  1  0
 21 31  1  0
 22 21  2  0
 23 24  1  0
 24 26  1  0
 24 25  2  0
 26 27  1  0
 27 28  1  0
 28 29  1  0
 30 29  1  6
 30 31  1  0
 30 32  1  0
 32 33  2  0
 32 34  1  0
M  END
$$$$
