RFR.pdb
     RDKit          3D

 34 34  0  0  1  0  0  0  0  0999 V2000
    9.0832  -15.7610   16.1700 N   0  0  0  0  0  0  0  0  0  0  0  0
    8.3093  -14.5629   16.2100 C   0  0  0  0  0  0  0  0  0  0  0  0
    8.6023  -13.5577   15.4784 N   0  0  0  0  0  0  0  0  0  0  0  0
    7.1763  -14.4695   17.0836 N   0  0  0  0  0  0  0  0  0  0  0  0
    7.1639  -13.7518   18.3197 C   0  0  0  0  0  0  0  0  0  0  0  0
    8.5164  -13.4674   18.8706 C   0  0  0  0  0  0  0  0  0  0  0  0
    8.6650  -13.5834   20.3574 C   0  0  0  0  0  0  0  0  0  0  0  0
    8.6046  -14.9636   20.8726 C   0  0  2  0  0  0  0  0  0  0  0  0
    7.2784  -15.5000   20.6807 N   0  0  0  0  0  0  0  0  0  0  0  0
    8.9894  -15.1402   22.2728 C   0  0  0  0  0  0  0  0  0  0  0  0
   10.1363  -14.7279   22.6211 O   0  0  0  0  0  0  0  0  0  0  0  0
    8.1456  -12.6393   15.4766 N   0  0  0  0  0  0  0  0  0  0  0  0
    8.1131  -15.7529   23.2216 C   0  0  1  0  0  0  0  0  0  0  0  0
    8.4884  -16.0034   24.5717 C   0  0  0  0  0  0  0  0  0  0  0  0
    7.2548  -15.6766   25.4300 C   0  0  0  0  0  0  0  0  0  0  0  0
    7.2359  -14.2375   25.7898 C   0  0  0  0  0  0  0  0  0  0  0  0
    6.1150  -13.5150   25.4647 C   0  0  0  0  0  0  0  0  0  0  0  0
    6.0356  -12.1659   25.7746 C   0  0  0  0  0  0  0  0  0  0  0  0
    7.0699  -11.5158   26.4117 C   0  0  0  0  0  0  0  0  0  0  0  0
    8.1905  -12.2471   26.7343 C   0  0  0  0  0  0  0  0  0  0  0  0
    8.2620  -13.6070   26.4183 C   0  0  0  0  0  0  0  0  0  0  0  0
    8.9077  -17.4020   24.8066 O   0  0  0  0  0  0  0  0  0  0  0  0
    8.2384  -18.3955   24.4175 N   0  0  0  0  0  0  0  0  0  0  0  0
   16.2414  -18.9744   29.1719 C   0  0  0  0  0  0  0  0  0  0  0  0
   15.1037  -19.3612   29.9366 N   0  0  0  0  0  0  0  0  0  0  0  0
   15.2820  -19.7450   31.1520 N   0  0  0  0  0  0  0  0  0  0  0  0
   13.7860  -19.3217   29.3647 C   0  0  0  0  0  0  0  0  0  0  0  0
   13.6794  -19.1886   27.9424 C   0  0  0  0  0  0  0  0  0  0  0  0
   12.1877  -19.1130   27.6080 C   0  0  0  0  0  0  0  0  0  0  0  0
   11.9843  -19.0902   26.1185 C   0  0  1  0  0  0  0  0  0  0  0  0
   10.5376  -19.0484   25.7883 N   0  0  0  0  0  0  0  0  0  0  0  0
   10.1131  -17.6530   25.4994 C   0  0  0  0  0  0  0  0  0  0  0  0
    9.6615  -19.6377   26.7957 O   0  0  0  0  0  0  0  0  0  0  0  0
    8.9389  -19.0151   27.6062 O   0  0  0  0  0  0  0  0  0  0  0  0
  2  3  2  0
  2  1  1  0
  4  2  1  0
  5  4  1  0
  6  5  1  0
  6  7  1  0
  8  7  1  0
  8  9  1  1
 10 11  2  0
 10  8  1  0
 12 10  1  0
 13 12  1  0
 13 14  1  6
 15 16  2  0
 15 14  1  0
 17 16  1  0
 18 17  2  0
 19 18  1  0
 19 20  2  0
 20 15  1  0
 21 13  1  0
 21 31  1  0
 22 21  2  0
 23 24  1  0
 24 26  1  0
 24 25  2  0
 26 27  1  0
 27 28  1  0
 28 29  1  0
 30 29  1  6
 30 31  1  0
 30 32  1  0
 32 33  2  0
 32 34  1  0
M  END
$$$$
