RFR.pdb
     RDKit          3D

 34 34  0  0  1  0  0  0  0  0999 V2000
    7.4151  -15.6656   14.4388 N   0  0  0  0  0  0  0  0  0  0  0  0
    8.7524  -15.1682   14.4284 C   0  0  0  0  0  0  0  0  0  0  0  0
    9.6723  -15.7489   13.7589 N   0  0  0  0  0  0  0  0  0  0  0  0
    9.0868  -13.9934   15.1792 N   0  0  0  0  0  0  0  0  0  0  0  0
    8.1732  -13.2795   16.0152 C   0  0  0  0  0  0  0  0  0  0  0  0
    7.7199  -14.0419   17.2097 C   0  0  0  0  0  0  0  0  0  0  0  0
    8.3066  -13.6256   18.5244 C   0  0  0  0  0  0  0  0  0  0  0  0
    8.6138  -14.7411   19.4382 C   0  0  2  0  0  0  0  0  0  0  0  0
    7.5532  -15.7191   19.3905 N   0  0  0  0  0  0  0  0  0  0  0  0
    8.8587  -14.3752   20.8332 C   0  0  0  0  0  0  0  0  0  0  0  0
    9.9060  -13.7081   21.0881 O   0  0  0  0  0  0  0  0  0  0  0  0
   10.6419  -15.4365   13.6392 N   0  0  0  0  0  0  0  0  0  0  0  0
    7.9580  -14.7501   21.8779 C   0  0  1  0  0  0  0  0  0  0  0  0
    8.1848  -14.4309   23.2464 C   0  0  0  0  0  0  0  0  0  0  0  0
    6.8630  -13.8531   23.7795 C   0  0  0  0  0  0  0  0  0  0  0  0
    7.0001  -13.4656   25.2049 C   0  0  0  0  0  0  0  0  0  0  0  0
    7.6188  -12.2724   25.4834 C   0  0  0  0  0  0  0  0  0  0  0  0
    7.7772  -11.8536   26.7956 C   0  0  0  0  0  0  0  0  0  0  0  0
    7.3232  -12.6157   27.8499 C   0  0  0  0  0  0  0  0  0  0  0  0
    6.7040  -13.8110   27.5625 C   0  0  0  0  0  0  0  0  0  0  0  0
    6.5483  -14.2254   26.2366 C   0  0  0  0  0  0  0  0  0  0  0  0
    8.5841  -15.6021   24.0563 O   0  0  0  0  0  0  0  0  0  0  0  0
    7.8359  -16.5983   24.2406 N   0  0  0  0  0  0  0  0  0  0  0  0
   12.4166  -16.7562   19.8861 C   0  0  0  0  0  0  0  0  0  0  0  0
   12.9245  -15.7010   20.6968 N   0  0  0  0  0  0  0  0  0  0  0  0
   13.3654  -14.6394   20.1179 N   0  0  0  0  0  0  0  0  0  0  0  0
   12.9421  -15.8178   22.1288 C   0  0  0  0  0  0  0  0  0  0  0  0
   12.9120  -17.1349   22.6914 C   0  0  0  0  0  0  0  0  0  0  0  0
   11.5216  -17.3325   23.3001 C   0  0  0  0  0  0  0  0  0  0  0  0
   11.6002  -17.3249   24.8015 C   0  0  2  0  0  0  0  0  0  0  0  0
   10.3314  -16.8268   25.3897 N   0  0  0  0  0  0  0  0  0  0  0  0
    9.8616  -15.6199   24.6594 C   0  0  0  0  0  0  0  0  0  0  0  0
   10.3853  -16.5534   26.8221 O   0  0  0  0  0  0  0  0  0  0  0  0
   10.2312  -15.4391   27.3710 O   0  0  0  0  0  0  0  0  0  0  0  0
  2  3  2  0
  2  1  1  0
  4  2  1  0
  5  4  1  0
  6  5  1  0
  6  7  1  0
  8  7  1  0
  8  9  1  1
 10 11  2  0
 10  8  1  0
 12 10  1  0
 13 12  1  0
 13 14  1  1
 15 16  2  0
 15 14  1  0
 17 16  1  0
 18 17  2  0
 19 18  1  0
 19 20  2  0
 20 15  1  0
 21 13  1  0
 21 31  1  0
 22 21  2  0
 23 24  1  0
 24 26  1  0
 24 25  2  0
 26 27  1  0
 27 28  1  0
 28 29  1  0
 30 29  1  6
 30 31  1  0
 30 32  1  0
 32 33  2  0
 32 34  1  0
M  END
$$$$
