RFR.pdb
     RDKit          3D

 34 34  0  0  1  0  0  0  0  0999 V2000
    8.3002  -17.5393   15.2872 N   0  0  0  0  0  0  0  0  0  0  0  0
    8.3177  -16.2974   14.5850 C   0  0  0  0  0  0  0  0  0  0  0  0
    8.6903  -16.2288   13.3652 N   0  0  0  0  0  0  0  0  0  0  0  0
    7.9114  -15.0927   15.2478 N   0  0  0  0  0  0  0  0  0  0  0  0
    7.7383  -14.9649   16.6610 C   0  0  0  0  0  0  0  0  0  0  0  0
    8.8806  -15.4813   17.4621 C   0  0  0  0  0  0  0  0  0  0  0  0
    8.6616  -15.5823   18.9412 C   0  0  0  0  0  0  0  0  0  0  0  0
    8.3513  -14.3017   19.6028 C   0  0  2  0  0  0  0  0  0  0  0  0
    9.0243  -13.2226   18.9203 N   0  0  0  0  0  0  0  0  0  0  0  0
    8.6636  -14.2279   21.0300 C   0  0  0  0  0  0  0  0  0  0  0  0
    9.8822  -14.3157   21.3678 O   0  0  0  0  0  0  0  0  0  0  0  0
    8.7675  -15.3843   12.7881 N   0  0  0  0  0  0  0  0  0  0  0  0
    7.6415  -14.0628   22.0156 C   0  0  1  0  0  0  0  0  0  0  0  0
    7.9220  -13.9113   23.4029 C   0  0  0  0  0  0  0  0  0  0  0  0
    6.9356  -12.8554   23.9296 C   0  0  0  0  0  0  0  0  0  0  0  0
    7.1160  -12.6544   25.3883 C   0  0  0  0  0  0  0  0  0  0  0  0
    8.1757  -11.8842   25.7983 C   0  0  0  0  0  0  0  0  0  0  0  0
    8.3981  -11.6582   27.1480 C   0  0  0  0  0  0  0  0  0  0  0  0
    7.5703  -12.1955   28.1096 C   0  0  0  0  0  0  0  0  0  0  0  0
    6.5100  -12.9667   27.6905 C   0  0  0  0  0  0  0  0  0  0  0  0
    6.2930  -13.1892   26.3276 C   0  0  0  0  0  0  0  0  0  0  0  0
    7.7671  -15.1684   24.1661 O   0  0  0  0  0  0  0  0  0  0  0  0
    6.8302  -15.9854   23.9635 N   0  0  0  0  0  0  0  0  0  0  0  0
    9.0686  -21.9239   22.6648 C   0  0  0  0  0  0  0  0  0  0  0  0
   10.2943  -22.0123   23.3848 N   0  0  0  0  0  0  0  0  0  0  0  0
   10.6333  -23.1495   23.8832 N   0  0  0  0  0  0  0  0  0  0  0  0
   11.1348  -20.8586   23.5492 C   0  0  0  0  0  0  0  0  0  0  0  0
   10.5938  -19.5819   23.1891 C   0  0  0  0  0  0  0  0  0  0  0  0
   10.1182  -18.9140   24.4816 C   0  0  0  0  0  0  0  0  0  0  0  0
    9.6659  -17.5063   24.2090 C   0  0  1  0  0  0  0  0  0  0  0  0
    9.0870  -16.8963   25.4324 N   0  0  0  0  0  0  0  0  0  0  0  0
    8.7055  -15.4825   25.1745 C   0  0  0  0  0  0  0  0  0  0  0  0
    9.9351  -16.9757   26.6173 O   0  0  0  0  0  0  0  0  0  0  0  0
   10.8762  -16.2037   26.9092 O   0  0  0  0  0  0  0  0  0  0  0  0
  2  3  2  0
  2  1  1  0
  4  2  1  0
  5  4  1  0
  6  5  1  0
  6  7  1  0
  8  7  1  0
  8  9  1  6
 10 11  2  0
 10  8  1  0
 12 10  1  0
 13 12  1  0
 13 14  1  6
 15 16  2  0
 15 14  1  0
 17 16  1  0
 18 17  2  0
 19 18  1  0
 19 20  2  0
 20 15  1  0
 21 13  1  0
 21 31  1  0
 22 21  2  0
 23 24  1  0
 24 26  1  0
 24 25  2  0
 26 27  1  0
 27 28  1  0
 28 29  1  0
 30 29  1  6
 30 31  1  0
 30 32  1  0
 32 33  2  0
 32 34  1  0
M  END
$$$$
