RFR.pdb
     RDKit          3D

 34 34  0  0  1  0  0  0  0  0999 V2000
    7.7380  -12.1956   18.2886 N   0  0  0  0  0  0  0  0  0  0  0  0
    7.7776  -13.5323   18.7861 C   0  0  0  0  0  0  0  0  0  0  0  0
    6.7147  -14.1344   19.1593 N   0  0  0  0  0  0  0  0  0  0  0  0
    9.0282  -14.2280   18.8750 N   0  0  0  0  0  0  0  0  0  0  0  0
    9.3686  -15.3832   18.1051 C   0  0  0  0  0  0  0  0  0  0  0  0
    9.3359  -16.6567   18.8736 C   0  0  0  0  0  0  0  0  0  0  0  0
   10.4103  -16.8384   19.9025 C   0  0  0  0  0  0  0  0  0  0  0  0
    9.9224  -17.2572   21.2294 C   0  0  2  0  0  0  0  0  0  0  0  0
    8.6152  -17.8561   21.1035 N   0  0  0  0  0  0  0  0  0  0  0  0
    9.8679  -16.2103   22.2496 C   0  0  0  0  0  0  0  0  0  0  0  0
   10.9696  -15.7534   22.6789 O   0  0  0  0  0  0  0  0  0  0  0  0
    6.6359  -15.1005   19.4946 N   0  0  0  0  0  0  0  0  0  0  0  0
    8.6250  -15.7133   22.7511 C   0  0  2  0  0  0  0  0  0  0  0  0
    8.5278  -14.9195   23.9286 C   0  0  0  0  0  0  0  0  0  0  0  0
    7.2074  -14.1393   23.8152 C   0  0  0  0  0  0  0  0  0  0  0  0
    6.9974  -13.2919   25.0146 C   0  0  0  0  0  0  0  0  0  0  0  0
    6.0069  -13.6620   25.8899 C   0  0  0  0  0  0  0  0  0  0  0  0
    5.7615  -12.9119   27.0297 C   0  0  0  0  0  0  0  0  0  0  0  0
    6.4971  -11.7824   27.3154 C   0  0  0  0  0  0  0  0  0  0  0  0
    7.4885  -11.4177   26.4329 C   0  0  0  0  0  0  0  0  0  0  0  0
    7.7293  -12.1800   25.2862 C   0  0  0  0  0  0  0  0  0  0  0  0
    8.5321  -15.7222   25.1706 O   0  0  0  0  0  0  0  0  0  0  0  0
    8.5022  -15.2101   26.3209 N   0  0  0  0  0  0  0  0  0  0  0  0
    6.7889  -23.5445   28.8701 C   0  0  0  0  0  0  0  0  0  0  0  0
    5.7665  -22.7552   28.2699 N   0  0  0  0  0  0  0  0  0  0  0  0
    4.5383  -23.0486   28.5185 N   0  0  0  0  0  0  0  0  0  0  0  0
    6.0986  -21.6545   27.4079 C   0  0  0  0  0  0  0  0  0  0  0  0
    7.4484  -21.5587   26.9377 C   0  0  0  0  0  0  0  0  0  0  0  0
    7.9392  -20.1460   27.2637 C   0  0  0  0  0  0  0  0  0  0  0  0
    7.9917  -19.3079   26.0165 C   0  0  2  0  0  0  0  0  0  0  0  0
    8.5507  -17.9648   26.3116 N   0  0  0  0  0  0  0  0  0  0  0  0
    8.5721  -17.1316   25.0803 C   0  0  0  0  0  0  0  0  0  0  0  0
    9.8721  -17.9731   26.9310 O   0  0  0  0  0  0  0  0  0  0  0  0
   10.9701  -17.8770   26.3378 O   0  0  0  0  0  0  0  0  0  0  0  0
  2  3  2  0
  2  1  1  0
  4  2  1  0
  5  4  1  0
  6  5  1  0
  6  7  1  0
  8  7  1  0
  8  9  1  6
 10 11  2  0
 10  8  1  0
 12 10  1  0
 13 12  1  0
 13 14  1  6
 15 16  2  0
 15 14  1  0
 17 16  1  0
 18 17  2  0
 19 18  1  0
 19 20  2  0
 20 15  1  0
 21 13  1  0
 21 31  1  0
 22 21  2  0
 23 24  1  0
 24 26  1  0
 24 25  2  0
 26 27  1  0
 27 28  1  0
 28 29  1  0
 30 29  1  1
 30 31  1  0
 30 32  1  0
 32 33  2  0
 32 34  1  0
M  END
$$$$
