RFR.pdb
     RDKit          3D

 34 34  0  0  1  0  0  0  0  0999 V2000
    7.2316  -15.5585   14.1673 N   0  0  0  0  0  0  0  0  0  0  0  0
    8.0267  -14.3789   14.0576 C   0  0  0  0  0  0  0  0  0  0  0  0
    8.4322  -13.9538   12.9234 N   0  0  0  0  0  0  0  0  0  0  0  0
    8.3864  -13.6441   15.2351 N   0  0  0  0  0  0  0  0  0  0  0  0
    9.0657  -14.2025   16.3620 C   0  0  0  0  0  0  0  0  0  0  0  0
    8.3975  -15.3981   16.9429 C   0  0  0  0  0  0  0  0  0  0  0  0
    8.4778  -15.5450   18.4322 C   0  0  0  0  0  0  0  0  0  0  0  0
    8.0190  -14.3658   19.1891 C   0  0  2  0  0  0  0  0  0  0  0  0
    8.3359  -13.1618   18.4587 N   0  0  0  0  0  0  0  0  0  0  0  0
    8.5334  -14.2422   20.5528 C   0  0  0  0  0  0  0  0  0  0  0  0
    9.6517  -13.6656   20.7066 O   0  0  0  0  0  0  0  0  0  0  0  0
    9.0785  -13.1768   12.7487 N   0  0  0  0  0  0  0  0  0  0  0  0
    7.8109  -14.7486   21.6775 C   0  0  1  0  0  0  0  0  0  0  0  0
    8.0208  -14.2817   23.0057 C   0  0  0  0  0  0  0  0  0  0  0  0
    6.9703  -13.1850   23.2486 C   0  0  0  0  0  0  0  0  0  0  0  0
    7.0759  -12.6584   24.6314 C   0  0  0  0  0  0  0  0  0  0  0  0
    6.1369  -13.0717   25.5433 C   0  0  0  0  0  0  0  0  0  0  0  0
    6.1814  -12.6159   26.8519 C   0  0  0  0  0  0  0  0  0  0  0  0
    7.1601  -11.7420   27.2726 C   0  0  0  0  0  0  0  0  0  0  0  0
    8.0980  -11.3321   26.3523 C   0  0  0  0  0  0  0  0  0  0  0  0
    8.0458  -11.7969   25.0350 C   0  0  0  0  0  0  0  0  0  0  0  0
    7.8807  -15.3458   24.0230 O   0  0  0  0  0  0  0  0  0  0  0  0
    7.4951  -15.1246   25.2015 N   0  0  0  0  0  0  0  0  0  0  0  0
   13.1486  -21.2812   22.8974 C   0  0  0  0  0  0  0  0  0  0  0  0
   13.7107  -19.9792   22.7651 N   0  0  0  0  0  0  0  0  0  0  0  0
   14.8379  -19.7358   23.3367 N   0  0  0  0  0  0  0  0  0  0  0  0
   13.0358  -18.9609   22.0086 C   0  0  0  0  0  0  0  0  0  0  0  0
   12.9013  -17.6653   22.6049 C   0  0  0  0  0  0  0  0  0  0  0  0
   11.8037  -17.7704   23.6665 C   0  0  0  0  0  0  0  0  0  0  0  0
   10.5075  -17.2224   23.1373 C   0  0  1  0  0  0  0  0  0  0  0  0
    9.4413  -17.3144   24.1661 N   0  0  0  0  0  0  0  0  0  0  0  0
    8.1907  -16.6791   23.6730 C   0  0  0  0  0  0  0  0  0  0  0  0
    9.7987  -16.7657   25.4702 O   0  0  0  0  0  0  0  0  0  0  0  0
   10.0040  -15.5601   25.7368 O   0  0  0  0  0  0  0  0  0  0  0  0
  2  3  2  0
  2  1  1  0
  4  2  1  0
  5  4  1  0
  6  5  1  0
  6  7  1  0
  8  7  1  0
  8  9  1  6
 10 11  2  0
 10  8  1  0
 12 10  1  0
 13 12  1  0
 13 14  1  1
 15 16  2  0
 15 14  1  0
 17 16  1  0
 18 17  2  0
 19 18  1  0
 19 20  2  0
 20 15  1  0
 21 13  1  0
 21 31  1  0
 22 21  2  0
 23 24  1  0
 24 26  1  0
 24 25  2  0
 26 27  1  0
 27 28  1  0
 28 29  1  0
 30 29  1  6
 30 31  1  0
 30 32  1  0
 32 33  2  0
 32 34  1  0
M  END
$$$$
