RFR.pdb
     RDKit          3D

 34 34  0  0  1  0  0  0  0  0999 V2000
    4.4132  -20.2318   16.6274 N   0  0  0  0  0  0  0  0  0  0  0  0
    5.7476  -19.7794   16.8520 C   0  0  0  0  0  0  0  0  0  0  0  0
    6.7548  -20.4546   16.4505 N   0  0  0  0  0  0  0  0  0  0  0  0
    5.9798  -18.5434   17.5407 N   0  0  0  0  0  0  0  0  0  0  0  0
    6.7448  -18.4169   18.7416 C   0  0  0  0  0  0  0  0  0  0  0  0
    6.8284  -17.0268   19.2649 C   0  0  0  0  0  0  0  0  0  0  0  0
    7.5292  -16.8534   20.5782 C   0  0  0  0  0  0  0  0  0  0  0  0
    8.5190  -15.7609   20.6043 C   0  0  2  0  0  0  0  0  0  0  0  0
    9.4345  -15.9035   19.4975 N   0  0  0  0  0  0  0  0  0  0  0  0
    9.2881  -15.6250   21.8411 C   0  0  0  0  0  0  0  0  0  0  0  0
   10.3903  -16.2464   21.9162 O   0  0  0  0  0  0  0  0  0  0  0  0
    7.7435  -20.2703   16.6517 N   0  0  0  0  0  0  0  0  0  0  0  0
    8.8242  -14.8243   22.9306 C   0  0  2  0  0  0  0  0  0  0  0  0
    9.4883  -14.7702   24.1885 C   0  0  0  0  0  0  0  0  0  0  0  0
    9.4646  -13.2959   24.6258 C   0  0  0  0  0  0  0  0  0  0  0  0
    8.1306  -12.9325   25.1633 C   0  0  0  0  0  0  0  0  0  0  0  0
    7.1711  -12.5314   24.2673 C   0  0  0  0  0  0  0  0  0  0  0  0
    5.9042  -12.1792   24.7068 C   0  0  0  0  0  0  0  0  0  0  0  0
    5.5732  -12.2201   26.0436 C   0  0  0  0  0  0  0  0  0  0  0  0
    6.5407  -12.6232   26.9359 C   0  0  0  0  0  0  0  0  0  0  0  0
    7.8155  -12.9768   26.4841 C   0  0  0  0  0  0  0  0  0  0  0  0
    8.8440  -15.6108   25.2206 O   0  0  0  0  0  0  0  0  0  0  0  0
    7.6153  -15.8873   25.2141 N   0  0  0  0  0  0  0  0  0  0  0  0
    9.7997  -22.0199   21.8486 C   0  0  0  0  0  0  0  0  0  0  0  0
   10.6177  -22.4432   22.9351 N   0  0  0  0  0  0  0  0  0  0  0  0
   10.9805  -23.6770   22.9866 N   0  0  0  0  0  0  0  0  0  0  0  0
   11.0306  -21.5133   23.9498 C   0  0  0  0  0  0  0  0  0  0  0  0
   10.4724  -20.1945   23.9134 C   0  0  0  0  0  0  0  0  0  0  0  0
   11.0674  -19.4214   25.0929 C   0  0  0  0  0  0  0  0  0  0  0  0
   10.6485  -17.9784   25.0394 C   0  0  1  0  0  0  0  0  0  0  0  0
    9.9747  -17.5818   26.3013 N   0  0  0  0  0  0  0  0  0  0  0  0
    9.6296  -16.1358   26.2709 C   0  0  0  0  0  0  0  0  0  0  0  0
   10.7194  -17.8912   27.5175 O   0  0  0  0  0  0  0  0  0  0  0  0
   11.8856  -17.5247   27.7868 O   0  0  0  0  0  0  0  0  0  0  0  0
  2  3  2  0
  2  1  1  0
  4  2  1  0
  5  4  1  0
  6  5  1  0
  6  7  1  0
  8  7  1  0
  8  9  1  6
 10 11  2  0
 10  8  1  0
 12 10  1  0
 13 12  1  0
 13 14  1  6
 15 16  2  0
 15 14  1  0
 17 16  1  0
 18 17  2  0
 19 18  1  0
 19 20  2  0
 20 15  1  0
 21 13  1  0
 21 31  1  0
 22 21  2  0
 23 24  1  0
 24 26  1  0
 24 25  2  0
 26 27  1  0
 27 28  1  0
 28 29  1  0
 30 29  1  6
 30 31  1  0
 30 32  1  0
 32 33  2  0
 32 34  1  0
M  END
$$$$
