RFR.pdb
     RDKit          3D

 34 34  0  0  1  0  0  0  0  0999 V2000
    8.9084  -15.3565   14.9414 N   0  0  0  0  0  0  0  0  0  0  0  0
    8.1845  -14.1338   14.8115 C   0  0  0  0  0  0  0  0  0  0  0  0
    8.0157  -13.5791   13.6734 N   0  0  0  0  0  0  0  0  0  0  0  0
    7.6287  -13.5024   15.9726 N   0  0  0  0  0  0  0  0  0  0  0  0
    7.7490  -14.0070   17.3046 C   0  0  0  0  0  0  0  0  0  0  0  0
    9.1258  -14.4367   17.6693 C   0  0  0  0  0  0  0  0  0  0  0  0
    9.5343  -14.2155   19.0942 C   0  0  0  0  0  0  0  0  0  0  0  0
    9.0059  -15.2118   20.0440 C   0  0  2  0  0  0  0  0  0  0  0  0
    7.6251  -15.4977   19.7357 N   0  0  0  0  0  0  0  0  0  0  0  0
    9.1129  -14.8633   21.4607 C   0  0  0  0  0  0  0  0  0  0  0  0
   10.2757  -14.6892   21.9344 O   0  0  0  0  0  0  0  0  0  0  0  0
    7.5049  -12.7115   13.4774 N   0  0  0  0  0  0  0  0  0  0  0  0
    7.9568  -14.7215   22.2893 C   0  0  1  0  0  0  0  0  0  0  0  0
    8.0306  -14.3672   23.6660 C   0  0  0  0  0  0  0  0  0  0  0  0
    6.7604  -13.5557   23.9714 C   0  0  0  0  0  0  0  0  0  0  0  0
    6.7665  -13.0868   25.3788 C   0  0  0  0  0  0  0  0  0  0  0  0
    5.9596  -13.7458   26.2726 C   0  0  0  0  0  0  0  0  0  0  0  0
    5.9211  -13.3560   27.6026 C   0  0  0  0  0  0  0  0  0  0  0  0
    6.6838  -12.3049   28.0628 C   0  0  0  0  0  0  0  0  0  0  0  0
    7.4903  -11.6492   27.1605 C   0  0  0  0  0  0  0  0  0  0  0  0
    7.5232  -12.0490   25.8213 C   0  0  0  0  0  0  0  0  0  0  0  0
    8.1051  -15.5404   24.5631 O   0  0  0  0  0  0  0  0  0  0  0  0
    7.2839  -16.4944   24.5178 N   0  0  0  0  0  0  0  0  0  0  0  0
   12.7294  -20.5430   22.0154 C   0  0  0  0  0  0  0  0  0  0  0  0
   13.3808  -19.3288   22.3762 N   0  0  0  0  0  0  0  0  0  0  0  0
   14.5063  -19.0466   21.8194 N   0  0  0  0  0  0  0  0  0  0  0  0
   12.7936  -18.4378   23.3385 C   0  0  0  0  0  0  0  0  0  0  0  0
   11.5144  -18.7886   23.8794 C   0  0  0  0  0  0  0  0  0  0  0  0
   11.0970  -17.6550   24.8194 C   0  0  0  0  0  0  0  0  0  0  0  0
    9.7721  -17.9648   25.4592 C   0  0  1  0  0  0  0  0  0  0  0  0
    9.3359  -16.8437   26.3289 N   0  0  0  0  0  0  0  0  0  0  0  0
    9.1397  -15.6098   25.5227 C   0  0  0  0  0  0  0  0  0  0  0  0
   10.2163  -16.5660   27.4592 O   0  0  0  0  0  0  0  0  0  0  0  0
   10.7176  -15.4578   27.7543 O   0  0  0  0  0  0  0  0  0  0  0  0
  2  3  2  0
  2  1  1  0
  4  2  1  0
  5  4  1  0
  6  5  1  0
  6  7  1  0
  8  7  1  0
  8  9  1  6
 10 11  2  0
 10  8  1  0
 12 10  1  0
 13 12  1  0
 13 14  1  6
 15 16  2  0
 15 14  1  0
 17 16  1  0
 18 17  2  0
 19 18  1  0
 19 20  2  0
 20 15  1  0
 21 13  1  0
 21 31  1  0
 22 21  2  0
 23 24  1  0
 24 26  1  0
 24 25  2  0
 26 27  1  0
 27 28  1  0
 28 29  1  0
 30 29  1  6
 30 31  1  0
 30 32  1  0
 32 33  2  0
 32 34  1  0
M  END
$$$$
