RFR.pdb
     RDKit          3D

 34 34  0  0  1  0  0  0  0  0999 V2000
    6.9868  -13.9332   15.1236 N   0  0  0  0  0  0  0  0  0  0  0  0
    8.0236  -14.8175   14.7005 C   0  0  0  0  0  0  0  0  0  0  0  0
    7.8508  -15.6270   13.7276 N   0  0  0  0  0  0  0  0  0  0  0  0
    9.2912  -14.8095   15.3704 N   0  0  0  0  0  0  0  0  0  0  0  0
    9.4642  -14.5979   16.7734 C   0  0  0  0  0  0  0  0  0  0  0  0
    9.2088  -15.8044   17.6058 C   0  0  0  0  0  0  0  0  0  0  0  0
    9.5227  -15.6815   19.0660 C   0  0  0  0  0  0  0  0  0  0  0  0
    8.3827  -15.2670   19.9043 C   0  0  2  0  0  0  0  0  0  0  0  0
    7.7486  -14.1053   19.3283 N   0  0  0  0  0  0  0  0  0  0  0  0
    8.6886  -14.9929   21.3082 C   0  0  0  0  0  0  0  0  0  0  0  0
    9.8415  -15.3100   21.7288 O   0  0  0  0  0  0  0  0  0  0  0  0
    8.5430  -16.2683   13.3256 N   0  0  0  0  0  0  0  0  0  0  0  0
    7.7313  -14.3903   22.1823 C   0  0  2  0  0  0  0  0  0  0  0  0
    7.9912  -14.1398   23.5592 C   0  0  0  0  0  0  0  0  0  0  0  0
    6.8873  -13.1829   24.0395 C   0  0  0  0  0  0  0  0  0  0  0  0
    7.0408  -12.8932   25.4863 C   0  0  0  0  0  0  0  0  0  0  0  0
    7.9489  -11.9300   25.8496 C   0  0  0  0  0  0  0  0  0  0  0  0
    8.1383  -11.6128   27.1859 C   0  0  0  0  0  0  0  0  0  0  0  0
    7.4281  -12.2493   28.1804 C   0  0  0  0  0  0  0  0  0  0  0  0
    6.5195  -13.2140   27.8080 C   0  0  0  0  0  0  0  0  0  0  0  0
    6.3346  -13.5273   26.4583 C   0  0  0  0  0  0  0  0  0  0  0  0
    7.9849  -15.3680   24.3829 O   0  0  0  0  0  0  0  0  0  0  0  0
    6.9984  -16.1485   24.4467 N   0  0  0  0  0  0  0  0  0  0  0  0
   11.9461  -20.5564   21.8051 C   0  0  0  0  0  0  0  0  0  0  0  0
   12.5572  -19.2936   22.0511 N   0  0  0  0  0  0  0  0  0  0  0  0
   13.1541  -18.7000   21.0775 N   0  0  0  0  0  0  0  0  0  0  0  0
   12.5068  -18.6946   23.3562 C   0  0  0  0  0  0  0  0  0  0  0  0
   11.8616  -19.4292   24.4032 C   0  0  0  0  0  0  0  0  0  0  0  0
   11.2343  -18.4044   25.3514 C   0  0  0  0  0  0  0  0  0  0  0  0
    9.8701  -18.0034   24.8625 C   0  0  1  0  0  0  0  0  0  0  0  0
    9.2471  -17.0275   25.7915 N   0  0  0  0  0  0  0  0  0  0  0  0
    9.1313  -15.6955   25.1409 C   0  0  0  0  0  0  0  0  0  0  0  0
    9.9163  -16.8957   27.0817 O   0  0  0  0  0  0  0  0  0  0  0  0
    9.9020  -17.7313   28.0135 O   0  0  0  0  0  0  0  0  0  0  0  0
  2  3  2  0
  2  1  1  0
  4  2  1  0
  5  4  1  0
  6  5  1  0
  6  7  1  0
  8  7  1  0
  8  9  1  6
 10 11  2  0
 10  8  1  0
 12 10  1  0
 13 12  1  0
 13 14  1  6
 15 16  2  0
 15 14  1  0
 17 16  1  0
 18 17  2  0
 19 18  1  0
 19 20  2  0
 20 15  1  0
 21 13  1  0
 21 31  1  0
 22 21  2  0
 23 24  1  0
 24 26  1  0
 24 25  2  0
 26 27  1  0
 27 28  1  0
 28 29  1  0
 30 29  1  6
 30 31  1  0
 30 32  1  0
 32 33  2  0
 32 34  1  0
M  END
$$$$
