RFR.pdb
     RDKit          3D

 34 34  0  0  1  0  0  0  0  0999 V2000
    8.0453  -20.4888   16.7523 N   0  0  0  0  0  0  0  0  0  0  0  0
    8.0646  -19.4612   15.7627 C   0  0  0  0  0  0  0  0  0  0  0  0
    7.6382  -19.6720   14.5772 N   0  0  0  0  0  0  0  0  0  0  0  0
    8.5697  -18.1598   16.0895 N   0  0  0  0  0  0  0  0  0  0  0  0
    9.0517  -17.7790   17.3803 C   0  0  0  0  0  0  0  0  0  0  0  0
    7.9907  -17.3056   18.3096 C   0  0  0  0  0  0  0  0  0  0  0  0
    8.4365  -16.9339   19.6913 C   0  0  0  0  0  0  0  0  0  0  0  0
    7.8457  -15.6865   20.2101 C   0  0  2  0  0  0  0  0  0  0  0  0
    8.1531  -14.5924   19.3202 N   0  0  0  0  0  0  0  0  0  0  0  0
    8.2328  -15.3141   21.5707 C   0  0  0  0  0  0  0  0  0  0  0  0
    9.4125  -14.8852   21.7470 O   0  0  0  0  0  0  0  0  0  0  0  0
    7.6155  -19.0036   13.7995 N   0  0  0  0  0  0  0  0  0  0  0  0
    7.3233  -15.4252   22.6679 C   0  0  1  0  0  0  0  0  0  0  0  0
    7.6864  -15.1122   24.0082 C   0  0  0  0  0  0  0  0  0  0  0  0
    6.5017  -14.3347   24.6058 C   0  0  0  0  0  0  0  0  0  0  0  0
    6.9779  -13.3374   25.5954 C   0  0  0  0  0  0  0  0  0  0  0  0
    7.3542  -12.1039   25.1253 C   0  0  0  0  0  0  0  0  0  0  0  0
    7.8077  -11.1282   25.9997 C   0  0  0  0  0  0  0  0  0  0  0  0
    7.8941  -11.3652   27.3542 C   0  0  0  0  0  0  0  0  0  0  0  0
    7.5151  -12.6046   27.8179 C   0  0  0  0  0  0  0  0  0  0  0  0
    7.0587  -13.5824   26.9293 C   0  0  0  0  0  0  0  0  0  0  0  0
    7.9654  -16.3110   24.8280 O   0  0  0  0  0  0  0  0  0  0  0  0
    7.1321  -17.2408   24.9931 N   0  0  0  0  0  0  0  0  0  0  0  0
   12.8321  -19.8053   21.7080 C   0  0  0  0  0  0  0  0  0  0  0  0
   13.7941  -19.0231   22.4089 N   0  0  0  0  0  0  0  0  0  0  0  0
   14.9560  -18.8597   21.8800 N   0  0  0  0  0  0  0  0  0  0  0  0
   13.4742  -18.4278   23.6770 C   0  0  0  0  0  0  0  0  0  0  0  0
   12.4455  -19.0422   24.4622 C   0  0  0  0  0  0  0  0  0  0  0  0
   11.2191  -18.1292   24.3909 C   0  0  0  0  0  0  0  0  0  0  0  0
   10.0932  -18.6980   25.2090 C   0  0  1  0  0  0  0  0  0  0  0  0
    9.5848  -17.6897   26.1726 N   0  0  0  0  0  0  0  0  0  0  0  0
    9.2211  -16.4343   25.4637 C   0  0  0  0  0  0  0  0  0  0  0  0
   10.4855  -17.3929   27.2819 O   0  0  0  0  0  0  0  0  0  0  0  0
   10.5173  -17.9773   28.3883 O   0  0  0  0  0  0  0  0  0  0  0  0
  2  3  2  0
  2  1  1  0
  4  2  1  0
  5  4  1  0
  6  5  1  0
  6  7  1  0
  8  7  1  0
  8  9  1  6
 10 11  2  0
 10  8  1  0
 12 10  1  0
 13 12  1  0
 13 14  1  6
 15 16  2  0
 15 14  1  0
 17 16  1  0
 18 17  2  0
 19 18  1  0
 19 20  2  0
 20 15  1  0
 21 13  1  0
 21 31  1  0
 22 21  2  0
 23 24  1  0
 24 26  1  0
 24 25  2  0
 26 27  1  0
 27 28  1  0
 28 29  1  0
 30 29  1  6
 30 31  1  0
 30 32  1  0
 32 33  2  0
 32 34  1  0
M  END
$$$$
