RFR.pdb
     RDKit          3D

 34 34  0  0  1  0  0  0  0  0999 V2000
    9.0606  -14.6455   14.0134 N   0  0  0  0  0  0  0  0  0  0  0  0
    8.4159  -13.4623   14.4826 C   0  0  0  0  0  0  0  0  0  0  0  0
    7.7703  -12.6978   13.6887 N   0  0  0  0  0  0  0  0  0  0  0  0
    8.4844  -13.1103   15.8708 N   0  0  0  0  0  0  0  0  0  0  0  0
    9.2884  -13.7878   16.8392 C   0  0  0  0  0  0  0  0  0  0  0  0
    8.5117  -14.6113   17.8046 C   0  0  0  0  0  0  0  0  0  0  0  0
    8.7178  -14.3022   19.2565 C   0  0  0  0  0  0  0  0  0  0  0  0
    8.0872  -15.2614   20.1819 C   0  0  2  0  0  0  0  0  0  0  0  0
    6.7648  -15.5980   19.7116 N   0  0  0  0  0  0  0  0  0  0  0  0
    7.9998  -14.8376   21.5793 C   0  0  0  0  0  0  0  0  0  0  0  0
    8.2815  -13.6303   21.8435 O   0  0  0  0  0  0  0  0  0  0  0  0
    7.2821  -11.8279   13.9274 N   0  0  0  0  0  0  0  0  0  0  0  0
    7.6123  -15.7421   22.6162 C   0  0  1  0  0  0  0  0  0  0  0  0
    7.9338  -15.5311   23.9867 C   0  0  0  0  0  0  0  0  0  0  0  0
    6.6086  -15.2037   24.6953 C   0  0  0  0  0  0  0  0  0  0  0  0
    6.7107  -13.9153   25.4234 C   0  0  0  0  0  0  0  0  0  0  0  0
    6.5454  -13.9394   26.7858 C   0  0  0  0  0  0  0  0  0  0  0  0
    6.6297  -12.7686   27.5236 C   0  0  0  0  0  0  0  0  0  0  0  0
    6.8789  -11.5567   26.9172 C   0  0  0  0  0  0  0  0  0  0  0  0
    7.0433  -11.5408   25.5506 C   0  0  0  0  0  0  0  0  0  0  0  0
    6.9570  -12.7260   24.8145 C   0  0  0  0  0  0  0  0  0  0  0  0
    8.5657  -16.7078   24.6215 O   0  0  0  0  0  0  0  0  0  0  0  0
    8.2237  -17.8931   24.3675 N   0  0  0  0  0  0  0  0  0  0  0  0
   14.7681  -14.7193   20.7341 C   0  0  0  0  0  0  0  0  0  0  0  0
   13.7548  -15.6838   20.4667 N   0  0  0  0  0  0  0  0  0  0  0  0
   13.4397  -15.9203   19.2414 N   0  0  0  0  0  0  0  0  0  0  0  0
   13.1003  -16.3790   21.5406 C   0  0  0  0  0  0  0  0  0  0  0  0
   13.6877  -16.2972   22.8446 C   0  0  0  0  0  0  0  0  0  0  0  0
   12.8560  -17.1891   23.7695 C   0  0  0  0  0  0  0  0  0  0  0  0
   11.5284  -16.5472   24.0629 C   0  0  2  0  0  0  0  0  0  0  0  0
   10.9530  -17.0861   25.3208 N   0  0  0  0  0  0  0  0  0  0  0  0
    9.6030  -16.5106   25.5602 C   0  0  0  0  0  0  0  0  0  0  0  0
   11.7885  -16.9065   26.5036 O   0  0  0  0  0  0  0  0  0  0  0  0
   12.7491  -17.6303   26.8503 O   0  0  0  0  0  0  0  0  0  0  0  0
  2  3  2  0
  2  1  1  0
  4  2  1  0
  5  4  1  0
  6  5  1  0
  6  7  1  0
  8  7  1  0
  8  9  1  6
 10 11  2  0
 10  8  1  0
 12 10  1  0
 13 12  1  0
 13 14  1  1
 15 16  2  0
 15 14  1  0
 17 16  1  0
 18 17  2  0
 19 18  1  0
 19 20  2  0
 20 15  1  0
 21 13  1  0
 21 31  1  0
 22 21  2  0
 23 24  1  0
 24 26  1  0
 24 25  2  0
 26 27  1  0
 27 28  1  0
 28 29  1  0
 30 29  1  6
 30 31  1  0
 30 32  1  0
 32 33  2  0
 32 34  1  0
M  END
$$$$
