NEQ.pdb
     RDKit          3D

 27 26  0  0  1  0  0  0  0  0999 V2000
   17.0555  -18.5707   16.9507 N   0  0  0  0  0  0  0  0  0  0  0  0
   15.8730  -19.3044   17.2265 C   0  0  0  0  0  0  0  0  0  0  0  0
   15.7810  -20.4678   16.7942 O   0  0  0  0  0  0  0  0  0  0  0  0
   14.8115  -18.6223   18.0239 C   0  0  0  0  0  0  0  0  0  0  0  0
   13.4364  -18.9061   17.4561 C   0  0  2  0  0  0  0  0  0  0  0  0
   13.3697  -18.2983   16.1426 N   0  0  0  0  0  0  0  0  0  0  0  0
   12.4503  -18.2767   18.3390 C   0  0  0  0  0  0  0  0  0  0  0  0
   12.6586  -17.1085   18.7634 O   0  0  0  0  0  0  0  0  0  0  0  0
   11.2446  -18.9302   18.7503 N   0  0  0  0  0  0  0  0  0  0  0  0
   10.3727  -18.2661   19.6562 C   0  0  1  0  0  0  0  0  0  0  0  0
    8.9936  -18.8761   19.5840 C   0  0  0  0  0  0  0  0  0  0  0  0
    8.3064  -18.5862   18.2731 C   0  0  0  0  0  0  0  0  0  0  0  0
    7.0177  -19.3245   18.2791 C   0  0  0  0  0  0  0  0  0  0  0  0
    6.0924  -19.0791   19.0961 O   0  0  0  0  0  0  0  0  0  0  0  0
   10.8649  -18.3047   21.0635 C   0  0  0  0  0  0  0  0  0  0  0  0
   11.5593  -19.2803   21.4441 O   0  0  0  0  0  0  0  0  0  0  0  0
    6.7884  -20.3479   17.3453 O   0  0  0  0  0  0  0  0  0  0  0  0
   15.9015  -15.2056   23.4837 N   0  0  0  0  0  0  0  0  0  0  0  0
   15.1736  -16.4138   23.6033 C   0  0  0  0  0  0  0  0  0  0  0  0
   15.8348  -17.4977   23.4226 O   0  0  0  0  0  0  0  0  0  0  0  0
   13.7431  -16.5074   23.9212 C   0  0  0  0  0  0  0  0  0  0  0  0
   12.8284  -16.8686   22.8119 C   0  0  0  0  0  0  0  0  0  0  0  0
   11.4228  -17.0589   23.2053 C   0  0  2  0  0  0  0  0  0  0  0  0
   10.5891  -17.2912   22.0031 N   0  0  0  0  0  0  0  0  0  0  0  0
   10.7502  -16.0460   23.9775 C   0  0  0  0  0  0  0  0  0  0  0  0
   10.9952  -15.8174   25.3493 O   0  0  0  0  0  0  0  0  0  0  0  0
    9.8909  -15.2892   23.4775 O   0  0  0  0  0  0  0  0  0  0  0  0
  2  3  2  0
  2  1  1  0
  4  2  1  0
  5  4  1  0
  5  6  1  6
  7  8  2  0
  7  5  1  0
  9  7  1  0
 10 11  1  1
 10  9  1  0
 11 12  1  0
 12 13  1  0
 13 17  1  0
 14 13  2  0
 15 24  1  0
 15 10  1  0
 16 15  2  0
 19 18  1  0
 20 19  2  0
 21 19  1  0
 22 21  1  0
 23 22  1  6
 23 24  1  0
 25 26  1  0
 25 23  1  0
 27 25  2  0
M  END
$$$$
