NEQ.pdb
     RDKit          3D

 27 26  0  0  1  0  0  0  0  0999 V2000
    8.5611  -12.5658   17.3983 N   0  0  0  0  0  0  0  0  0  0  0  0
    7.8384  -13.7779   17.2530 C   0  0  0  0  0  0  0  0  0  0  0  0
    7.2396  -13.9882   16.1825 O   0  0  0  0  0  0  0  0  0  0  0  0
    7.8471  -14.7255   18.4062 C   0  0  0  0  0  0  0  0  0  0  0  0
    8.4859  -14.0940   19.6257 C   0  0  2  0  0  0  0  0  0  0  0  0
    9.8502  -13.7512   19.2789 N   0  0  0  0  0  0  0  0  0  0  0  0
    8.4880  -15.0942   20.6969 C   0  0  0  0  0  0  0  0  0  0  0  0
    7.3903  -15.5014   21.1634 O   0  0  0  0  0  0  0  0  0  0  0  0
    9.6907  -15.6409   21.2489 N   0  0  0  0  0  0  0  0  0  0  0  0
    9.6014  -16.5362   22.3501 C   0  0  1  0  0  0  0  0  0  0  0  0
   10.6752  -17.5919   22.2435 C   0  0  0  0  0  0  0  0  0  0  0  0
   10.5551  -18.4063   20.9797 C   0  0  0  0  0  0  0  0  0  0  0  0
   11.7039  -19.3472   20.9515 C   0  0  0  0  0  0  0  0  0  0  0  0
   11.9895  -20.1072   21.9132 O   0  0  0  0  0  0  0  0  0  0  0  0
    9.7082  -15.8436   23.6666 C   0  0  0  0  0  0  0  0  0  0  0  0
   10.6378  -15.0188   23.8523 O   0  0  0  0  0  0  0  0  0  0  0  0
   12.5285  -19.4176   19.8171 O   0  0  0  0  0  0  0  0  0  0  0  0
    5.2610  -12.5778   25.9730 N   0  0  0  0  0  0  0  0  0  0  0  0
    6.5622  -12.1553   26.3364 C   0  0  0  0  0  0  0  0  0  0  0  0
    6.6846  -10.9295   26.6930 O   0  0  0  0  0  0  0  0  0  0  0  0
    7.7556  -13.0109   26.3393 C   0  0  0  0  0  0  0  0  0  0  0  0
    7.5589  -14.4431   26.0110 C   0  0  0  0  0  0  0  0  0  0  0  0
    8.7943  -15.2418   25.9586 C   0  0  2  0  0  0  0  0  0  0  0  0
    8.8097  -16.0676   24.7290 N   0  0  0  0  0  0  0  0  0  0  0  0
    9.1241  -16.1258   27.0468 C   0  0  0  0  0  0  0  0  0  0  0  0
    9.5197  -15.6772   28.3260 O   0  0  0  0  0  0  0  0  0  0  0  0
    9.0817  -17.3690   26.9303 O   0  0  0  0  0  0  0  0  0  0  0  0
  2  3  2  0
  2  1  1  0
  4  2  1  0
  5  4  1  0
  5  6  1  6
  7  8  2  0
  7  5  1  0
  9  7  1  0
 10 11  1  6
 10  9  1  0
 11 12  1  0
 12 13  1  0
 13 17  1  0
 14 13  2  0
 15 24  1  0
 15 10  1  0
 16 15  2  0
 19 18  1  0
 20 19  2  0
 21 19  1  0
 22 21  1  0
 23 22  1  1
 23 24  1  0
 25 26  1  0
 25 23  1  0
 27 25  2  0
M  END
$$$$
