NEQ.pdb
     RDKit          3D

 27 26  0  0  1  0  0  0  0  0999 V2000
    8.7190  -12.2943   16.9971 N   0  0  0  0  0  0  0  0  0  0  0  0
    8.3626  -13.6318   17.3076 C   0  0  0  0  0  0  0  0  0  0  0  0
    8.5567  -14.5129   16.4504 O   0  0  0  0  0  0  0  0  0  0  0  0
    7.7739  -13.8911   18.6545 C   0  0  0  0  0  0  0  0  0  0  0  0
    8.8228  -14.4069   19.6177 C   0  0  2  0  0  0  0  0  0  0  0  0
    9.2925  -15.6816   19.1140 N   0  0  0  0  0  0  0  0  0  0  0  0
    8.1770  -14.6010   20.9189 C   0  0  0  0  0  0  0  0  0  0  0  0
    7.7104  -13.6033   21.5314 O   0  0  0  0  0  0  0  0  0  0  0  0
    8.0469  -15.8848   21.5395 N   0  0  0  0  0  0  0  0  0  0  0  0
    7.5369  -15.9636   22.8645 C   0  0  1  0  0  0  0  0  0  0  0  0
    6.8317  -17.2830   23.0669 C   0  0  0  0  0  0  0  0  0  0  0  0
    7.7869  -18.3955   23.4199 C   0  0  0  0  0  0  0  0  0  0  0  0
    6.9747  -19.6185   23.6443 C   0  0  0  0  0  0  0  0  0  0  0  0
    6.1217  -19.7140   24.5648 O   0  0  0  0  0  0  0  0  0  0  0  0
    8.5963  -15.7973   23.9010 C   0  0  0  0  0  0  0  0  0  0  0  0
    9.7876  -16.0716   23.6104 O   0  0  0  0  0  0  0  0  0  0  0  0
    7.1403  -20.7363   22.8107 O   0  0  0  0  0  0  0  0  0  0  0  0
    8.7937  -15.7741   29.9545 N   0  0  0  0  0  0  0  0  0  0  0  0
    9.7298  -14.7480   29.6815 C   0  0  0  0  0  0  0  0  0  0  0  0
   10.5363  -14.4449   30.6315 O   0  0  0  0  0  0  0  0  0  0  0  0
    9.8420  -14.0273   28.4071 C   0  0  0  0  0  0  0  0  0  0  0  0
    8.8524  -14.3605   27.3550 C   0  0  0  0  0  0  0  0  0  0  0  0
    9.3912  -15.1234   26.2172 C   0  0  2  0  0  0  0  0  0  0  0  0
    8.3293  -15.3424   25.2079 N   0  0  0  0  0  0  0  0  0  0  0  0
   10.0105  -16.4044   26.4410 C   0  0  0  0  0  0  0  0  0  0  0  0
    9.2860  -17.6065   26.5965 O   0  0  0  0  0  0  0  0  0  0  0  0
   11.2504  -16.5404   26.5138 O   0  0  0  0  0  0  0  0  0  0  0  0
  2  3  2  0
  2  1  1  0
  4  2  1  0
  5  4  1  0
  5  6  1  6
  7  8  2  0
  7  5  1  0
  9  7  1  0
 10 11  1  1
 10  9  1  0
 11 12  1  0
 12 13  1  0
 13 17  1  0
 14 13  2  0
 15 24  1  0
 15 10  1  0
 16 15  2  0
 19 18  1  0
 20 19  2  0
 21 19  1  0
 22 21  1  0
 23 22  1  1
 23 24  1  0
 25 26  1  0
 25 23  1  0
 27 25  2  0
M  END
$$$$
