NEQ.pdb
     RDKit          3D

 27 26  0  0  1  0  0  0  0  0999 V2000
   14.3885  -14.8555   18.8291 N   0  0  0  0  0  0  0  0  0  0  0  0
   13.9266  -13.9465   19.8154 C   0  0  0  0  0  0  0  0  0  0  0  0
   14.5847  -12.9112   20.0244 O   0  0  0  0  0  0  0  0  0  0  0  0
   12.6707  -14.2995   20.5408 C   0  0  0  0  0  0  0  0  0  0  0  0
   12.1028  -15.6114   20.0406 C   0  0  2  0  0  0  0  0  0  0  0  0
   11.1072  -15.3036   19.0341 N   0  0  0  0  0  0  0  0  0  0  0  0
   11.4626  -16.2822   21.1755 C   0  0  0  0  0  0  0  0  0  0  0  0
   10.2759  -15.9854   21.4786 O   0  0  0  0  0  0  0  0  0  0  0  0
   12.1256  -17.2722   21.9695 N   0  0  0  0  0  0  0  0  0  0  0  0
   11.3899  -17.9595   22.9736 C   0  0  1  0  0  0  0  0  0  0  0  0
   11.8399  -19.3987   23.0471 C   0  0  0  0  0  0  0  0  0  0  0  0
   11.4188  -20.1936   21.8365 C   0  0  0  0  0  0  0  0  0  0  0  0
   11.8730  -21.5917   22.0483 C   0  0  0  0  0  0  0  0  0  0  0  0
   11.0765  -22.5561   22.1882 O   0  0  0  0  0  0  0  0  0  0  0  0
   11.5169  -17.3253   24.3175 C   0  0  0  0  0  0  0  0  0  0  0  0
   12.1826  -16.2661   24.4356 O   0  0  0  0  0  0  0  0  0  0  0  0
   13.2450  -21.8860   22.0999 O   0  0  0  0  0  0  0  0  0  0  0  0
   11.4339  -13.8162   27.5044 N   0  0  0  0  0  0  0  0  0  0  0  0
   10.2912  -14.2485   28.2193 C   0  0  0  0  0  0  0  0  0  0  0  0
   10.0598  -13.6588   29.3344 O   0  0  0  0  0  0  0  0  0  0  0  0
    9.3677  -15.3001   27.7752 C   0  0  0  0  0  0  0  0  0  0  0  0
    9.7326  -16.0420   26.5448 C   0  0  0  0  0  0  0  0  0  0  0  0
   10.7595  -17.0805   26.7293 C   0  0  2  0  0  0  0  0  0  0  0  0
   10.9220  -17.8577   25.4788 N   0  0  0  0  0  0  0  0  0  0  0  0
   10.6238  -18.0431   27.7921 C   0  0  0  0  0  0  0  0  0  0  0  0
   11.1954  -17.8792   29.0730 O   0  0  0  0  0  0  0  0  0  0  0  0
    9.9809  -19.1049   27.6500 O   0  0  0  0  0  0  0  0  0  0  0  0
  2  3  2  0
  2  1  1  0
  4  2  1  0
  5  4  1  0
  5  6  1  6
  7  8  2  0
  7  5  1  0
  9  7  1  0
 10 11  1  1
 10  9  1  0
 11 12  1  0
 12 13  1  0
 13 17  1  0
 14 13  2  0
 15 24  1  0
 15 10  1  0
 16 15  2  0
 19 18  1  0
 20 19  2  0
 21 19  1  0
 22 21  1  0
 23 22  1  6
 23 24  1  0
 25 26  1  0
 25 23  1  0
 27 25  2  0
M  END
$$$$
