NEQ.pdb
     RDKit          3D

 27 26  0  0  1  0  0  0  0  0999 V2000
    7.4115  -12.1424   17.7754 N   0  0  0  0  0  0  0  0  0  0  0  0
    7.5849  -13.5384   17.5921 C   0  0  0  0  0  0  0  0  0  0  0  0
    7.8034  -13.9644   16.4433 O   0  0  0  0  0  0  0  0  0  0  0  0
    7.4922  -14.4071   18.8023 C   0  0  0  0  0  0  0  0  0  0  0  0
    8.7779  -14.3667   19.6019 C   0  0  2  0  0  0  0  0  0  0  0  0
    9.8645  -14.7003   18.7034 N   0  0  0  0  0  0  0  0  0  0  0  0
    8.6814  -15.3825   20.6539 C   0  0  0  0  0  0  0  0  0  0  0  0
    7.7255  -15.3331   21.4738 O   0  0  0  0  0  0  0  0  0  0  0  0
    9.6311  -16.4440   20.8005 N   0  0  0  0  0  0  0  0  0  0  0  0
    9.5417  -17.3002   21.9323 C   0  0  1  0  0  0  0  0  0  0  0  0
   10.3020  -18.5782   21.6721 C   0  0  0  0  0  0  0  0  0  0  0  0
    9.3861  -19.7605   21.4768 C   0  0  0  0  0  0  0  0  0  0  0  0
   10.2442  -20.9417   21.2041 C   0  0  0  0  0  0  0  0  0  0  0  0
   11.5007  -20.8806   21.1670 O   0  0  0  0  0  0  0  0  0  0  0  0
   10.0485  -16.6607   23.1807 C   0  0  0  0  0  0  0  0  0  0  0  0
   11.0676  -15.9277   23.1245 O   0  0  0  0  0  0  0  0  0  0  0  0
    9.6603  -22.1976   20.9729 O   0  0  0  0  0  0  0  0  0  0  0  0
    6.8856  -12.9549   26.7688 N   0  0  0  0  0  0  0  0  0  0  0  0
    8.0489  -13.2444   27.5217 C   0  0  0  0  0  0  0  0  0  0  0  0
    8.2330  -12.5419   28.5787 O   0  0  0  0  0  0  0  0  0  0  0  0
    9.0348  -14.2790   27.1845 C   0  0  0  0  0  0  0  0  0  0  0  0
    8.8022  -15.0520   25.9411 C   0  0  0  0  0  0  0  0  0  0  0  0
    9.8284  -16.0633   25.6394 C   0  0  2  0  0  0  0  0  0  0  0  0
    9.4372  -16.8368   24.4382 N   0  0  0  0  0  0  0  0  0  0  0  0
   10.2012  -17.0284   26.6415 C   0  0  0  0  0  0  0  0  0  0  0  0
   11.1182  -16.7610   27.6815 O   0  0  0  0  0  0  0  0  0  0  0  0
    9.7308  -18.1858   26.6581 O   0  0  0  0  0  0  0  0  0  0  0  0
  2  3  2  0
  2  1  1  0
  4  2  1  0
  5  4  1  0
  5  6  1  6
  7  8  2  0
  7  5  1  0
  9  7  1  0
 10 11  1  6
 10  9  1  0
 11 12  1  0
 12 13  1  0
 13 17  1  0
 14 13  2  0
 15 24  1  0
 15 10  1  0
 16 15  2  0
 19 18  1  0
 20 19  2  0
 21 19  1  0
 22 21  1  0
 23 22  1  1
 23 24  1  0
 25 26  1  0
 25 23  1  0
 27 25  2  0
M  END
$$$$
