NEQ.pdb
     RDKit          3D

 27 26  0  0  1  0  0  0  0  0999 V2000
    7.6842  -12.7325   16.8871 N   0  0  0  0  0  0  0  0  0  0  0  0
    7.7705  -12.9588   18.2850 C   0  0  0  0  0  0  0  0  0  0  0  0
    6.8965  -12.4668   19.0218 O   0  0  0  0  0  0  0  0  0  0  0  0
    8.9152  -13.7795   18.7788 C   0  0  0  0  0  0  0  0  0  0  0  0
    9.8724  -14.1128   17.6533 C   0  0  2  0  0  0  0  0  0  0  0  0
    9.1716  -14.9722   16.7209 N   0  0  0  0  0  0  0  0  0  0  0  0
   11.0068  -14.8380   18.2321 C   0  0  0  0  0  0  0  0  0  0  0  0
   10.8835  -16.0628   18.5021 O   0  0  0  0  0  0  0  0  0  0  0  0
   12.2667  -14.2175   18.5109 N   0  0  0  0  0  0  0  0  0  0  0  0
   13.3265  -15.0088   19.0331 C   0  0  1  0  0  0  0  0  0  0  0  0
   14.6220  -14.6531   18.3444 C   0  0  0  0  0  0  0  0  0  0  0  0
   14.6357  -15.0736   16.8961 C   0  0  0  0  0  0  0  0  0  0  0  0
   15.9984  -14.8017   16.3717 C   0  0  0  0  0  0  0  0  0  0  0  0
   16.6578  -13.7750   16.6798 O   0  0  0  0  0  0  0  0  0  0  0  0
   13.4854  -14.8589   20.5083 C   0  0  0  0  0  0  0  0  0  0  0  0
   13.6763  -13.7149   20.9918 O   0  0  0  0  0  0  0  0  0  0  0  0
   16.6078  -15.7098   15.4909 O   0  0  0  0  0  0  0  0  0  0  0  0
    9.8259  -17.6114   24.4267 N   0  0  0  0  0  0  0  0  0  0  0  0
    9.8580  -16.3846   23.7214 C   0  0  0  0  0  0  0  0  0  0  0  0
    8.7271  -15.8160   23.5151 O   0  0  0  0  0  0  0  0  0  0  0  0
   11.0752  -15.7289   23.2266 C   0  0  0  0  0  0  0  0  0  0  0  0
   12.3670  -16.3907   23.5275 C   0  0  0  0  0  0  0  0  0  0  0  0
   13.5391  -15.7885   22.8713 C   0  0  2  0  0  0  0  0  0  0  0  0
   13.4322  -15.9470   21.4024 N   0  0  0  0  0  0  0  0  0  0  0  0
   14.8647  -16.2211   23.2321 C   0  0  0  0  0  0  0  0  0  0  0  0
   15.4755  -15.9206   24.4693 O   0  0  0  0  0  0  0  0  0  0  0  0
   15.5748  -16.9023   22.4622 O   0  0  0  0  0  0  0  0  0  0  0  0
  2  3  2  0
  2  1  1  0
  4  2  1  0
  5  4  1  0
  5  6  1  6
  7  8  2  0
  7  5  1  0
  9  7  1  0
 10 11  1  6
 10  9  1  0
 11 12  1  0
 12 13  1  0
 13 17  1  0
 14 13  2  0
 15 24  1  0
 15 10  1  0
 16 15  2  0
 19 18  1  0
 20 19  2  0
 21 19  1  0
 22 21  1  0
 23 22  1  1
 23 24  1  0
 25 26  1  0
 25 23  1  0
 27 25  2  0
M  END
$$$$
