NEQ.pdb
     RDKit          3D

 27 26  0  0  1  0  0  0  0  0999 V2000
    7.1745  -14.5817   16.6063 N   0  0  0  0  0  0  0  0  0  0  0  0
    8.0645  -14.1252   17.6123 C   0  0  0  0  0  0  0  0  0  0  0  0
    9.2290  -14.5643   17.6195 O   0  0  0  0  0  0  0  0  0  0  0  0
    7.5363  -13.1402   18.6016 C   0  0  0  0  0  0  0  0  0  0  0  0
    8.5552  -12.8571   19.6860 C   0  0  2  0  0  0  0  0  0  0  0  0
    9.8334  -12.6365   19.0407 N   0  0  0  0  0  0  0  0  0  0  0  0
    8.6360  -14.0432   20.5430 C   0  0  0  0  0  0  0  0  0  0  0  0
    7.6129  -14.4180   21.1764 O   0  0  0  0  0  0  0  0  0  0  0  0
    9.8352  -14.8096   20.7003 N   0  0  0  0  0  0  0  0  0  0  0  0
    9.8518  -15.8843   21.6313 C   0  0  1  0  0  0  0  0  0  0  0  0
   10.9703  -16.8404   21.2938 C   0  0  0  0  0  0  0  0  0  0  0  0
   11.0167  -18.0219   22.2302 C   0  0  0  0  0  0  0  0  0  0  0  0
   12.1740  -18.8598   21.8245 C   0  0  0  0  0  0  0  0  0  0  0  0
   13.2401  -18.3763   21.3623 O   0  0  0  0  0  0  0  0  0  0  0  0
    9.9951  -15.4230   23.0423 C   0  0  0  0  0  0  0  0  0  0  0  0
   10.8666  -14.5616   23.3206 O   0  0  0  0  0  0  0  0  0  0  0  0
   12.1093  -20.2570   21.9489 O   0  0  0  0  0  0  0  0  0  0  0  0
    5.6081  -12.5467   25.7855 N   0  0  0  0  0  0  0  0  0  0  0  0
    6.5879  -12.7039   26.7950 C   0  0  0  0  0  0  0  0  0  0  0  0
    6.4247  -12.0093   27.8607 O   0  0  0  0  0  0  0  0  0  0  0  0
    7.7508  -13.5962   26.7086 C   0  0  0  0  0  0  0  0  0  0  0  0
    7.9421  -14.3329   25.4365 C   0  0  0  0  0  0  0  0  0  0  0  0
    9.1033  -15.2373   25.4131 C   0  0  2  0  0  0  0  0  0  0  0  0
    9.1943  -15.9081   24.0955 N   0  0  0  0  0  0  0  0  0  0  0  0
    9.2264  -16.2730   26.4065 C   0  0  0  0  0  0  0  0  0  0  0  0
    9.3016  -17.6486   26.0965 O   0  0  0  0  0  0  0  0  0  0  0  0
    9.2758  -16.0197   27.6290 O   0  0  0  0  0  0  0  0  0  0  0  0
  2  3  2  0
  2  1  1  0
  4  2  1  0
  5  4  1  0
  5  6  1  6
  7  8  2  0
  7  5  1  0
  9  7  1  0
 10 11  1  6
 10  9  1  0
 11 12  1  0
 12 13  1  0
 13 17  1  0
 14 13  2  0
 15 24  1  0
 15 10  1  0
 16 15  2  0
 19 18  1  0
 20 19  2  0
 21 19  1  0
 22 21  1  0
 23 22  1  6
 23 24  1  0
 25 26  1  0
 25 23  1  0
 27 25  2  0
M  END
$$$$
