NEQ.pdb
     RDKit          3D

 27 26  0  0  1  0  0  0  0  0999 V2000
    9.2343  -14.9309   17.8044 N   0  0  0  0  0  0  0  0  0  0  0  0
    7.8989  -14.5678   17.4925 C   0  0  0  0  0  0  0  0  0  0  0  0
    7.3510  -15.1030   16.5116 O   0  0  0  0  0  0  0  0  0  0  0  0
    7.2380  -13.5588   18.3718 C   0  0  0  0  0  0  0  0  0  0  0  0
    8.1681  -13.1081   19.4789 C   0  0  2  0  0  0  0  0  0  0  0  0
    9.4521  -12.8081   18.8787 N   0  0  0  0  0  0  0  0  0  0  0  0
    8.3143  -14.2220   20.4201 C   0  0  0  0  0  0  0  0  0  0  0  0
    7.3017  -14.6411   21.0425 O   0  0  0  0  0  0  0  0  0  0  0  0
    9.5667  -14.8682   20.6728 N   0  0  0  0  0  0  0  0  0  0  0  0
    9.6344  -15.8783   21.6713 C   0  0  1  0  0  0  0  0  0  0  0  0
   10.8306  -16.7659   21.4253 C   0  0  0  0  0  0  0  0  0  0  0  0
   10.8953  -17.9218   22.3920 C   0  0  0  0  0  0  0  0  0  0  0  0
   12.1365  -18.6793   22.0898 C   0  0  0  0  0  0  0  0  0  0  0  0
   13.1941  -18.5556   22.7608 O   0  0  0  0  0  0  0  0  0  0  0  0
    9.7000  -15.3202   23.0528 C   0  0  0  0  0  0  0  0  0  0  0  0
   10.5366  -14.4189   23.3113 O   0  0  0  0  0  0  0  0  0  0  0  0
   12.1661  -19.5821   21.0147 O   0  0  0  0  0  0  0  0  0  0  0  0
    5.2985  -12.6976   26.3793 N   0  0  0  0  0  0  0  0  0  0  0  0
    6.6072  -12.3653   26.8045 C   0  0  0  0  0  0  0  0  0  0  0  0
    6.7249  -11.2977   27.5053 O   0  0  0  0  0  0  0  0  0  0  0  0
    7.8133  -13.1490   26.5091 C   0  0  0  0  0  0  0  0  0  0  0  0
    7.6493  -14.3346   25.6346 C   0  0  0  0  0  0  0  0  0  0  0  0
    8.8681  -15.1382   25.4456 C   0  0  2  0  0  0  0  0  0  0  0  0
    8.8622  -15.7555   24.0991 N   0  0  0  0  0  0  0  0  0  0  0  0
    9.1842  -16.1921   26.3751 C   0  0  0  0  0  0  0  0  0  0  0  0
    9.8645  -15.9810   27.5944 O   0  0  0  0  0  0  0  0  0  0  0  0
    8.8726  -17.3830   26.1617 O   0  0  0  0  0  0  0  0  0  0  0  0
  2  3  2  0
  2  1  1  0
  4  2  1  0
  5  4  1  0
  5  6  1  6
  7  8  2  0
  7  5  1  0
  9  7  1  0
 10 11  1  6
 10  9  1  0
 11 12  1  0
 12 13  1  0
 13 17  1  0
 14 13  2  0
 15 24  1  0
 15 10  1  0
 16 15  2  0
 19 18  1  0
 20 19  2  0
 21 19  1  0
 22 21  1  0
 23 22  1  1
 23 24  1  0
 25 26  1  0
 25 23  1  0
 27 25  2  0
M  END
$$$$
