NEQ.pdb
     RDKit          3D

 27 26  0  0  1  0  0  0  0  0999 V2000
    8.3101  -13.2512   15.7821 N   0  0  0  0  0  0  0  0  0  0  0  0
    8.5104  -14.5581   16.2962 C   0  0  0  0  0  0  0  0  0  0  0  0
    7.5213  -15.3007   16.4338 O   0  0  0  0  0  0  0  0  0  0  0  0
    9.9078  -14.9547   16.6394 C   0  0  0  0  0  0  0  0  0  0  0  0
   10.1639  -14.8167   18.1258 C   0  0  2  0  0  0  0  0  0  0  0  0
   10.1273  -13.4048   18.4485 N   0  0  0  0  0  0  0  0  0  0  0  0
   11.5020  -15.3483   18.3994 C   0  0  0  0  0  0  0  0  0  0  0  0
   11.7236  -16.5778   18.2334 O   0  0  0  0  0  0  0  0  0  0  0  0
   12.5868  -14.5308   18.8521 N   0  0  0  0  0  0  0  0  0  0  0  0
   13.8150  -15.1497   19.2136 C   0  0  1  0  0  0  0  0  0  0  0  0
   14.9434  -14.5714   18.3943 C   0  0  0  0  0  0  0  0  0  0  0  0
   14.8491  -14.9535   16.9383 C   0  0  0  0  0  0  0  0  0  0  0  0
   16.0682  -14.4346   16.2672 C   0  0  0  0  0  0  0  0  0  0  0  0
   17.0544  -15.1625   15.9815 O   0  0  0  0  0  0  0  0  0  0  0  0
   14.1263  -15.0091   20.6653 C   0  0  0  0  0  0  0  0  0  0  0  0
   14.4510  -13.8823   21.1169 O   0  0  0  0  0  0  0  0  0  0  0  0
   16.1577  -13.0763   15.9222 O   0  0  0  0  0  0  0  0  0  0  0  0
   10.9675  -17.9208   25.1579 N   0  0  0  0  0  0  0  0  0  0  0  0
   10.8393  -16.6838   24.4817 C   0  0  0  0  0  0  0  0  0  0  0  0
    9.6917  -16.1149   24.5470 O   0  0  0  0  0  0  0  0  0  0  0  0
   11.9123  -16.0184   23.7320 C   0  0  0  0  0  0  0  0  0  0  0  0
   13.2546  -16.6459   23.7761 C   0  0  0  0  0  0  0  0  0  0  0  0
   14.2987  -15.9282   23.0267 C   0  0  2  0  0  0  0  0  0  0  0  0
   14.0753  -16.0876   21.5710 N   0  0  0  0  0  0  0  0  0  0  0  0
   15.6871  -16.2314   23.2611 C   0  0  0  0  0  0  0  0  0  0  0  0
   16.4312  -15.7042   24.3392 O   0  0  0  0  0  0  0  0  0  0  0  0
   16.3369  -16.9935   22.5141 O   0  0  0  0  0  0  0  0  0  0  0  0
  2  3  2  0
  2  1  1  0
  4  2  1  0
  5  4  1  0
  5  6  1  6
  7  8  2  0
  7  5  1  0
  9  7  1  0
 10 11  1  6
 10  9  1  0
 11 12  1  0
 12 13  1  0
 13 17  1  0
 14 13  2  0
 15 24  1  0
 15 10  1  0
 16 15  2  0
 19 18  1  0
 20 19  2  0
 21 19  1  0
 22 21  1  0
 23 22  1  1
 23 24  1  0
 25 26  1  0
 25 23  1  0
 27 25  2  0
M  END
$$$$
