MNT.pdb
     RDKit          3D

 24 23  0  0  1  0  0  0  0  0999 V2000
    7.8621  -12.1212   21.1799 C   0  0  0  0  0  0  0  0  0  0  0  0
    7.6304  -12.2348   19.3890 S   0  0  0  0  0  0  0  0  0  0  0  0
    7.9554  -13.9257   18.8580 C   0  0  0  0  0  0  0  0  0  0  0  0
    8.3469  -14.8074   20.0399 C   0  0  0  0  0  0  0  0  0  0  0  0
    8.8004  -16.1308   19.4604 C   0  0  2  0  0  0  0  0  0  0  0  0
    7.6351  -16.7324   18.8418 N   0  0  0  0  0  0  0  0  0  0  0  0
    9.2934  -17.0452   20.5387 C   0  0  0  0  0  0  0  0  0  0  0  0
    8.5451  -17.9244   21.0499 O   0  0  0  0  0  0  0  0  0  0  0  0
   14.0793  -18.0069   19.9107 N   0  0  0  0  0  0  0  0  0  0  0  0
   13.1771  -18.5043   20.8568 C   0  0  0  0  0  0  0  0  0  0  0  0
   12.8258  -19.7242   20.7064 O   0  0  0  0  0  0  0  0  0  0  0  0
   12.6067  -17.7805   21.9801 C   0  0  0  0  0  0  0  0  0  0  0  0
   11.1268  -17.7953   22.1300 C   0  0  2  0  0  0  0  0  0  0  0  0
   10.6166  -16.9579   21.0252 N   0  0  0  0  0  0  0  0  0  0  0  0
   10.6487  -17.1807   23.3872 C   0  0  0  0  0  0  0  0  0  0  0  0
   11.3218  -16.2234   23.9154 O   0  0  0  0  0  0  0  0  0  0  0  0
    7.3692  -15.4218   24.3772 C   0  0  0  0  0  0  0  0  0  0  0  0
    7.6916  -16.4750   25.3826 C   0  0  1  0  0  0  0  0  0  0  0  0
    6.9110  -17.6128   25.0986 O   0  0  0  0  0  0  0  0  0  0  0  0
    9.1295  -16.9384   25.3584 C   0  0  2  0  0  0  0  0  0  0  0  0
    9.4765  -17.5536   24.0937 N   0  0  0  0  0  0  0  0  0  0  0  0
    9.4219  -17.7635   26.5339 C   0  0  0  0  0  0  0  0  0  0  0  0
    9.3266  -17.2802   27.8280 O   0  0  0  0  0  0  0  0  0  0  0  0
    9.7748  -18.9628   26.3584 O   0  0  0  0  0  0  0  0  0  0  0  0
  1  2  1  0
  2  3  1  0
  3  4  1  0
  5  7  1  0
  5  4  1  0
  5  6  1  1
  7  8  2  0
  9 10  1  0
 10 12  1  0
 11 10  2  0
 13 12  1  1
 14 13  1  0
 14  7  1  0
 15 21  1  0
 15 13  1  0
 16 15  2  0
 18 17  1  6
 19 18  1  0
 20 21  1  6
 20 18  1  0
 22 20  1  0
 23 22  1  0
 24 22  2  0
M  END
$$$$
