MNT.pdb
     RDKit          3D

 24 23  0  0  1  0  0  0  0  0999 V2000
    7.6696  -14.4539   16.9688 C   0  0  0  0  0  0  0  0  0  0  0  0
    8.1963  -13.1515   18.1091 S   0  0  0  0  0  0  0  0  0  0  0  0
    7.0189  -13.0463   19.4690 C   0  0  0  0  0  0  0  0  0  0  0  0
    7.1692  -14.2304   20.4191 C   0  0  0  0  0  0  0  0  0  0  0  0
    8.4268  -13.9813   21.2248 C   0  0  2  0  0  0  0  0  0  0  0  0
    9.5420  -14.3558   20.3771 N   0  0  0  0  0  0  0  0  0  0  0  0
    8.4528  -14.8375   22.4529 C   0  0  0  0  0  0  0  0  0  0  0  0
    7.5377  -14.7727   23.3204 O   0  0  0  0  0  0  0  0  0  0  0  0
   10.9945  -20.0366   24.4531 N   0  0  0  0  0  0  0  0  0  0  0  0
   10.9033  -18.6445   24.5550 C   0  0  0  0  0  0  0  0  0  0  0  0
   11.2046  -18.1467   25.6933 O   0  0  0  0  0  0  0  0  0  0  0  0
   10.5048  -17.7195   23.5078 C   0  0  0  0  0  0  0  0  0  0  0  0
    9.5603  -16.6299   23.8731 C   0  0  2  0  0  0  0  0  0  0  0  0
    9.5042  -15.7513   22.6869 N   0  0  0  0  0  0  0  0  0  0  0  0
   10.0225  -15.7938   25.0019 C   0  0  0  0  0  0  0  0  0  0  0  0
   11.1102  -15.1221   24.8834 O   0  0  0  0  0  0  0  0  0  0  0  0
    9.1178  -12.6036   26.2444 C   0  0  0  0  0  0  0  0  0  0  0  0
    9.0441  -13.5202   27.4185 C   0  0  1  0  0  0  0  0  0  0  0  0
    7.7100  -13.9493   27.5627 O   0  0  0  0  0  0  0  0  0  0  0  0
    9.8740  -14.7752   27.2807 C   0  0  2  0  0  0  0  0  0  0  0  0
    9.3596  -15.6511   26.2479 N   0  0  0  0  0  0  0  0  0  0  0  0
   10.0527  -15.4174   28.5860 C   0  0  0  0  0  0  0  0  0  0  0  0
   10.6466  -14.7750   29.6593 O   0  0  0  0  0  0  0  0  0  0  0  0
    9.6486  -16.6038   28.7367 O   0  0  0  0  0  0  0  0  0  0  0  0
  1  2  1  0
  2  3  1  0
  3  4  1  0
  5  7  1  0
  5  4  1  0
  5  6  1  6
  7  8  2  0
  9 10  1  0
 10 12  1  0
 11 10  2  0
 13 12  1  6
 14 13  1  0
 14  7  1  0
 15 21  1  0
 15 13  1  0
 16 15  2  0
 18 17  1  6
 19 18  1  0
 20 21  1  6
 20 18  1  0
 22 20  1  0
 23 22  1  0
 24 22  2  0
M  END
$$$$
