MNT.pdb
     RDKit          3D

 24 23  0  0  1  0  0  0  0  0999 V2000
    8.3837  -12.1485   19.5527 C   0  0  0  0  0  0  0  0  0  0  0  0
    6.7671  -12.9611   19.5628 S   0  0  0  0  0  0  0  0  0  0  0  0
    6.9993  -14.7343   19.7830 C   0  0  0  0  0  0  0  0  0  0  0  0
    8.3741  -15.1742   19.2891 C   0  0  0  0  0  0  0  0  0  0  0  0
    8.5336  -16.6255   19.6906 C   0  0  2  0  0  0  0  0  0  0  0  0
    7.7467  -16.8106   20.8943 N   0  0  0  0  0  0  0  0  0  0  0  0
    9.9640  -16.9390   20.0032 C   0  0  0  0  0  0  0  0  0  0  0  0
   10.5265  -17.9734   19.5471 O   0  0  0  0  0  0  0  0  0  0  0  0
   12.6093  -13.7223   18.6292 N   0  0  0  0  0  0  0  0  0  0  0  0
   13.0170  -14.8729   19.3122 C   0  0  0  0  0  0  0  0  0  0  0  0
   13.5565  -15.7852   18.5974 O   0  0  0  0  0  0  0  0  0  0  0  0
   12.8897  -15.1307   20.7364 C   0  0  0  0  0  0  0  0  0  0  0  0
   12.1535  -16.3545   21.1525 C   0  0  2  0  0  0  0  0  0  0  0  0
   10.7388  -16.0875   20.8217 N   0  0  0  0  0  0  0  0  0  0  0  0
   12.2093  -16.6185   22.6064 C   0  0  0  0  0  0  0  0  0  0  0  0
   13.2827  -16.3439   23.2551 O   0  0  0  0  0  0  0  0  0  0  0  0
    9.9891  -15.2395   25.3722 C   0  0  0  0  0  0  0  0  0  0  0  0
   10.1296  -16.7114   25.5668 C   0  0  1  0  0  0  0  0  0  0  0  0
    8.9686  -17.3368   25.0711 O   0  0  0  0  0  0  0  0  0  0  0  0
   11.2883  -17.3296   24.8197 C   0  0  2  0  0  0  0  0  0  0  0  0
   11.1569  -17.1622   23.3869 N   0  0  0  0  0  0  0  0  0  0  0  0
   11.4959  -18.7147   25.2514 C   0  0  0  0  0  0  0  0  0  0  0  0
   11.8257  -19.0496   26.5538 O   0  0  0  0  0  0  0  0  0  0  0  0
   11.3686  -19.6388   24.4008 O   0  0  0  0  0  0  0  0  0  0  0  0
  1  2  1  0
  2  3  1  0
  3  4  1  0
  5  7  1  0
  5  4  1  0
  5  6  1  1
  7  8  2  0
  9 10  1  0
 10 12  1  0
 11 10  2  0
 13 12  1  1
 14 13  1  0
 14  7  1  0
 15 21  1  0
 15 13  1  0
 16 15  2  0
 18 17  1  6
 19 18  1  0
 20 21  1  6
 20 18  1  0
 22 20  1  0
 23 22  1  0
 24 22  2  0
M  END
$$$$
