MNT.pdb
     RDKit          3D

 24 23  0  0  1  0  0  0  0  0999 V2000
    5.9340  -12.5803   19.0307 C   0  0  0  0  0  0  0  0  0  0  0  0
    7.7272  -12.7657   19.1855 S   0  0  0  0  0  0  0  0  0  0  0  0
    8.0852  -14.1908   20.2284 C   0  0  0  0  0  0  0  0  0  0  0  0
    9.5756  -14.2822   20.5415 C   0  0  0  0  0  0  0  0  0  0  0  0
    9.7674  -15.5362   21.3683 C   0  0  2  0  0  0  0  0  0  0  0  0
    9.0766  -16.6022   20.6691 N   0  0  0  0  0  0  0  0  0  0  0  0
    9.1541  -15.3803   22.7253 C   0  0  0  0  0  0  0  0  0  0  0  0
    9.3335  -14.3369   23.4133 O   0  0  0  0  0  0  0  0  0  0  0  0
    8.0696  -19.5615   23.7868 N   0  0  0  0  0  0  0  0  0  0  0  0
    7.5850  -18.8017   24.8565 C   0  0  0  0  0  0  0  0  0  0  0  0
    7.7609  -19.3000   26.0206 O   0  0  0  0  0  0  0  0  0  0  0  0
    6.9099  -17.5176   24.7767 C   0  0  0  0  0  0  0  0  0  0  0  0
    7.7552  -16.3017   24.6359 C   0  0  2  0  0  0  0  0  0  0  0  0
    8.3504  -16.3970   23.2873 N   0  0  0  0  0  0  0  0  0  0  0  0
    8.8791  -16.2427   25.5952 C   0  0  0  0  0  0  0  0  0  0  0  0
   10.0474  -16.6202   25.2197 O   0  0  0  0  0  0  0  0  0  0  0  0
    9.9095  -13.0241   27.4547 C   0  0  0  0  0  0  0  0  0  0  0  0
    9.9278  -14.1800   28.3967 C   0  0  1  0  0  0  0  0  0  0  0  0
    8.7310  -14.1652   29.1398 O   0  0  0  0  0  0  0  0  0  0  0  0
    9.9841  -15.5309   27.7224 C   0  0  2  0  0  0  0  0  0  0  0  0
    8.7948  -15.7917   26.9375 N   0  0  0  0  0  0  0  0  0  0  0  0
   10.3085  -16.5769   28.6965 C   0  0  0  0  0  0  0  0  0  0  0  0
   11.4622  -16.5528   29.4618 O   0  0  0  0  0  0  0  0  0  0  0  0
    9.5030  -17.5378   28.8428 O   0  0  0  0  0  0  0  0  0  0  0  0
  1  2  1  0
  2  3  1  0
  3  4  1  0
  5  7  1  0
  5  4  1  0
  5  6  1  6
  7  8  2  0
  9 10  1  0
 10 12  1  0
 11 10  2  0
 13 12  1  1
 14 13  1  0
 14  7  1  0
 15 21  1  0
 15 13  1  0
 16 15  2  0
 18 17  1  6
 19 18  1  0
 20 21  1  1
 20 18  1  0
 22 20  1  0
 23 22  1  0
 24 22  2  0
M  END
$$$$
