MNT.pdb
     RDKit          3D

 24 23  0  0  1  0  0  0  0  0999 V2000
    7.2650  -11.8009   17.8671 C   0  0  0  0  0  0  0  0  0  0  0  0
    6.9480  -12.5598   19.4787 S   0  0  0  0  0  0  0  0  0  0  0  0
    8.2568  -13.7441   19.8410 C   0  0  0  0  0  0  0  0  0  0  0  0
    8.0207  -14.4312   21.1825 C   0  0  0  0  0  0  0  0  0  0  0  0
    9.2634  -15.2451   21.4759 C   0  0  2  0  0  0  0  0  0  0  0  0
    9.3351  -16.2729   20.4556 N   0  0  0  0  0  0  0  0  0  0  0  0
    9.1636  -15.9084   22.8146 C   0  0  0  0  0  0  0  0  0  0  0  0
    8.1789  -15.7056   23.5785 O   0  0  0  0  0  0  0  0  0  0  0  0
   11.6952  -20.0562   22.6279 N   0  0  0  0  0  0  0  0  0  0  0  0
   10.8859  -19.6019   23.6745 C   0  0  0  0  0  0  0  0  0  0  0  0
    9.7936  -20.2413   23.8541 O   0  0  0  0  0  0  0  0  0  0  0  0
   11.1606  -18.4887   24.5669 C   0  0  0  0  0  0  0  0  0  0  0  0
   10.1620  -17.3876   24.6233 C   0  0  2  0  0  0  0  0  0  0  0  0
   10.1695  -16.7876   23.2735 N   0  0  0  0  0  0  0  0  0  0  0  0
   10.5162  -16.3095   25.5716 C   0  0  0  0  0  0  0  0  0  0  0  0
   11.5689  -15.6058   25.3596 O   0  0  0  0  0  0  0  0  0  0  0  0
    9.0342  -13.0256   26.3367 C   0  0  0  0  0  0  0  0  0  0  0  0
    9.1874  -13.7554   27.6282 C   0  0  1  0  0  0  0  0  0  0  0  0
    7.9547  -14.3595   27.9448 O   0  0  0  0  0  0  0  0  0  0  0  0
   10.2036  -14.8730   27.5942 C   0  0  2  0  0  0  0  0  0  0  0  0
    9.7818  -15.9592   26.7336 N   0  0  0  0  0  0  0  0  0  0  0  0
   10.5610  -15.2823   28.9554 C   0  0  0  0  0  0  0  0  0  0  0  0
   10.3919  -16.5776   29.4144 O   0  0  0  0  0  0  0  0  0  0  0  0
   11.0424  -14.4183   29.7399 O   0  0  0  0  0  0  0  0  0  0  0  0
  1  2  1  0
  2  3  1  0
  3  4  1  0
  5  7  1  0
  5  4  1  0
  5  6  1  6
  7  8  2  0
  9 10  1  0
 10 12  1  0
 11 10  2  0
 13 12  1  6
 14 13  1  0
 14  7  1  0
 15 21  1  0
 15 13  1  0
 16 15  2  0
 18 17  1  6
 19 18  1  0
 20 21  1  6
 20 18  1  0
 22 20  1  0
 23 22  1  0
 24 22  2  0
M  END
$$$$
