MNT.pdb
     RDKit          3D

 24 23  0  0  1  0  0  0  0  0999 V2000
    8.5475  -11.9793   19.4037 C   0  0  0  0  0  0  0  0  0  0  0  0
    7.7570  -12.9126   20.7371 S   0  0  0  0  0  0  0  0  0  0  0  0
    7.2803  -14.5364   20.1186 C   0  0  0  0  0  0  0  0  0  0  0  0
    8.4855  -15.2884   19.5623 C   0  0  0  0  0  0  0  0  0  0  0  0
    7.9485  -16.5482   18.9164 C   0  0  2  0  0  0  0  0  0  0  0  0
    7.3741  -17.3468   19.9817 N   0  0  0  0  0  0  0  0  0  0  0  0
    9.0517  -17.3316   18.2750 C   0  0  0  0  0  0  0  0  0  0  0  0
    9.4702  -18.4120   18.7769 O   0  0  0  0  0  0  0  0  0  0  0  0
   12.6925  -18.7718   14.4727 N   0  0  0  0  0  0  0  0  0  0  0  0
   11.8231  -17.7191   14.1685 C   0  0  0  0  0  0  0  0  0  0  0  0
   11.8887  -17.2677   12.9742 O   0  0  0  0  0  0  0  0  0  0  0  0
   10.8646  -17.0953   15.0646 C   0  0  0  0  0  0  0  0  0  0  0  0
   10.8280  -17.5700   16.4739 C   0  0  2  0  0  0  0  0  0  0  0  0
    9.6663  -16.8900   17.0823 N   0  0  0  0  0  0  0  0  0  0  0  0
   12.0142  -17.1791   17.2657 C   0  0  0  0  0  0  0  0  0  0  0  0
   13.1666  -17.6452   16.9447 O   0  0  0  0  0  0  0  0  0  0  0  0
   14.7261  -14.0889   19.8277 C   0  0  0  0  0  0  0  0  0  0  0  0
   13.5526  -14.5077   19.0083 C   0  0  1  0  0  0  0  0  0  0  0  0
   13.8437  -14.2514   17.6539 O   0  0  0  0  0  0  0  0  0  0  0  0
   13.2281  -15.9808   19.0942 C   0  0  2  0  0  0  0  0  0  0  0  0
   12.0082  -16.3065   18.3841 N   0  0  0  0  0  0  0  0  0  0  0  0
   13.2561  -16.4313   20.4886 C   0  0  0  0  0  0  0  0  0  0  0  0
   14.4233  -16.4896   21.2312 O   0  0  0  0  0  0  0  0  0  0  0  0
   12.1720  -16.7801   21.0333 O   0  0  0  0  0  0  0  0  0  0  0  0
  1  2  1  0
  2  3  1  0
  3  4  1  0
  5  7  1  0
  5  4  1  0
  5  6  1  1
  7  8  2  0
  9 10  1  0
 10 12  1  0
 11 10  2  0
 13 12  1  6
 14 13  1  0
 14  7  1  0
 15 21  1  0
 15 13  1  0
 16 15  2  0
 18 17  1  1
 19 18  1  0
 20 21  1  1
 20 18  1  0
 22 20  1  0
 23 22  1  0
 24 22  2  0
M  END
$$$$
