MNT.pdb
     RDKit          3D

 24 23  0  0  1  0  0  0  0  0999 V2000
    6.4966  -12.6017   27.1561 C   0  0  0  0  0  0  0  0  0  0  0  0
    6.8646  -12.2829   25.4135 S   0  0  0  0  0  0  0  0  0  0  0  0
    7.2873  -13.8371   24.6058 C   0  0  0  0  0  0  0  0  0  0  0  0
    7.7464  -13.6033   23.1698 C   0  0  0  0  0  0  0  0  0  0  0  0
    7.9028  -14.9705   22.5380 C   0  0  2  0  0  0  0  0  0  0  0  0
    6.6190  -15.6330   22.6624 N   0  0  0  0  0  0  0  0  0  0  0  0
    8.9301  -15.7809   23.2659 C   0  0  0  0  0  0  0  0  0  0  0  0
    8.6411  -16.8918   23.7918 O   0  0  0  0  0  0  0  0  0  0  0  0
   15.0582  -15.7062   23.4824 N   0  0  0  0  0  0  0  0  0  0  0  0
   13.8443  -16.3170   23.1504 C   0  0  0  0  0  0  0  0  0  0  0  0
   13.8836  -17.5839   22.9837 O   0  0  0  0  0  0  0  0  0  0  0  0
   12.5589  -15.6620   22.9785 C   0  0  0  0  0  0  0  0  0  0  0  0
   11.3920  -16.2321   23.7039 C   0  0  2  0  0  0  0  0  0  0  0  0
   10.2634  -15.3316   23.3916 N   0  0  0  0  0  0  0  0  0  0  0  0
   11.5453  -16.2301   25.1747 C   0  0  0  0  0  0  0  0  0  0  0  0
   12.5386  -16.8472   25.7047 O   0  0  0  0  0  0  0  0  0  0  0  0
   10.2118  -13.2796   27.9600 C   0  0  0  0  0  0  0  0  0  0  0  0
    9.9987  -14.7196   28.2838 C   0  0  1  0  0  0  0  0  0  0  0  0
    8.6794  -15.0632   27.9286 O   0  0  0  0  0  0  0  0  0  0  0  0
   10.8963  -15.6675   27.5231 C   0  0  2  0  0  0  0  0  0  0  0  0
   10.6751  -15.5892   26.0936 N   0  0  0  0  0  0  0  0  0  0  0  0
   10.8001  -17.0207   28.0778 C   0  0  0  0  0  0  0  0  0  0  0  0
   11.1369  -17.3165   29.3879 O   0  0  0  0  0  0  0  0  0  0  0  0
   10.3937  -17.9533   27.3302 O   0  0  0  0  0  0  0  0  0  0  0  0
  1  2  1  0
  2  3  1  0
  3  4  1  0
  5  7  1  0
  5  4  1  0
  5  6  1  1
  7  8  2  0
  9 10  1  0
 10 12  1  0
 11 10  2  0
 13 12  1  6
 14 13  1  0
 14  7  1  0
 15 21  1  0
 15 13  1  0
 16 15  2  0
 18 17  1  6
 19 18  1  0
 20 21  1  6
 20 18  1  0
 22 20  1  0
 23 22  1  0
 24 22  2  0
M  END
$$$$
