MNT.pdb
     RDKit          3D

 24 23  0  0  1  0  0  0  0  0999 V2000
    8.5110  -11.7254   20.5417 C   0  0  0  0  0  0  0  0  0  0  0  0
    7.4850  -12.2381   19.1423 S   0  0  0  0  0  0  0  0  0  0  0  0
    6.9459  -13.9383   19.3976 C   0  0  0  0  0  0  0  0  0  0  0  0
    8.0955  -14.8112   19.8915 C   0  0  0  0  0  0  0  0  0  0  0  0
    7.5589  -16.2246   19.9778 C   0  0  2  0  0  0  0  0  0  0  0  0
    6.4057  -16.1763   20.8554 N   0  0  0  0  0  0  0  0  0  0  0  0
    8.5757  -17.1463   20.5768 C   0  0  0  0  0  0  0  0  0  0  0  0
    9.1963  -17.9900   19.8717 O   0  0  0  0  0  0  0  0  0  0  0  0
   13.5103  -18.4870   21.4229 N   0  0  0  0  0  0  0  0  0  0  0  0
   12.4632  -18.0644   22.2486 C   0  0  0  0  0  0  0  0  0  0  0  0
   12.6498  -18.2078   23.5052 O   0  0  0  0  0  0  0  0  0  0  0  0
   11.1999  -17.4855   21.8246 C   0  0  0  0  0  0  0  0  0  0  0  0
    9.9739  -17.8885   22.5644 C   0  0  2  0  0  0  0  0  0  0  0  0
    8.8787  -17.1059   21.9559 N   0  0  0  0  0  0  0  0  0  0  0  0
   10.0020  -17.5380   24.0007 C   0  0  0  0  0  0  0  0  0  0  0  0
   10.4607  -16.3942   24.3605 O   0  0  0  0  0  0  0  0  0  0  0  0
    7.3264  -16.3872   25.4426 C   0  0  0  0  0  0  0  0  0  0  0  0
    7.7338  -17.4405   26.4165 C   0  0  1  0  0  0  0  0  0  0  0  0
    7.0166  -18.6170   26.1227 O   0  0  0  0  0  0  0  0  0  0  0  0
    9.1959  -17.8156   26.3514 C   0  0  2  0  0  0  0  0  0  0  0  0
    9.5541  -18.3674   25.0609 N   0  0  0  0  0  0  0  0  0  0  0  0
    9.5600  -18.6592   27.4933 C   0  0  0  0  0  0  0  0  0  0  0  0
    9.4043  -18.2471   28.8060 O   0  0  0  0  0  0  0  0  0  0  0  0
   10.0344  -19.8075   27.2698 O   0  0  0  0  0  0  0  0  0  0  0  0
  1  2  1  0
  2  3  1  0
  3  4  1  0
  5  7  1  0
  5  4  1  0
  5  6  1  1
  7  8  2  0
  9 10  1  0
 10 12  1  0
 11 10  2  0
 13 12  1  6
 14 13  1  0
 14  7  1  0
 15 21  1  0
 15 13  1  0
 16 15  2  0
 18 17  1  6
 19 18  1  0
 20 21  1  6
 20 18  1  0
 22 20  1  0
 23 22  1  0
 24 22  2  0
M  END
$$$$
