MNT.pdb
     RDKit          3D

 24 23  0  0  1  0  0  0  0  0999 V2000
    7.4420  -11.4065   20.2895 C   0  0  0  0  0  0  0  0  0  0  0  0
    7.5823  -12.5965   18.9338 S   0  0  0  0  0  0  0  0  0  0  0  0
    8.6814  -13.9338   19.4339 C   0  0  0  0  0  0  0  0  0  0  0  0
    8.5638  -14.2120   20.9293 C   0  0  0  0  0  0  0  0  0  0  0  0
    9.7449  -15.0835   21.3011 C   0  0  2  0  0  0  0  0  0  0  0  0
    9.8345  -16.1141   20.2850 N   0  0  0  0  0  0  0  0  0  0  0  0
    9.5269  -15.7406   22.6288 C   0  0  0  0  0  0  0  0  0  0  0  0
    8.5334  -15.4505   23.3520 O   0  0  0  0  0  0  0  0  0  0  0  0
   11.5621  -20.0717   22.3465 N   0  0  0  0  0  0  0  0  0  0  0  0
   10.7882  -19.6268   23.4235 C   0  0  0  0  0  0  0  0  0  0  0  0
    9.6614  -20.2101   23.5803 O   0  0  0  0  0  0  0  0  0  0  0  0
   11.1339  -18.5801   24.3700 C   0  0  0  0  0  0  0  0  0  0  0  0
   10.2527  -17.3830   24.4265 C   0  0  2  0  0  0  0  0  0  0  0  0
   10.4264  -16.7116   23.1223 N   0  0  0  0  0  0  0  0  0  0  0  0
   10.6416  -16.4049   25.4652 C   0  0  0  0  0  0  0  0  0  0  0  0
   11.8068  -15.8678   25.4191 O   0  0  0  0  0  0  0  0  0  0  0  0
    9.3145  -12.9744   26.4137 C   0  0  0  0  0  0  0  0  0  0  0  0
    9.3703  -13.8320   27.6325 C   0  0  1  0  0  0  0  0  0  0  0  0
    8.0861  -14.3655   27.8582 O   0  0  0  0  0  0  0  0  0  0  0  0
   10.3004  -15.0170   27.5170 C   0  0  2  0  0  0  0  0  0  0  0  0
    9.8263  -15.9820   26.5463 N   0  0  0  0  0  0  0  0  0  0  0  0
   10.5825  -15.5781   28.8413 C   0  0  0  0  0  0  0  0  0  0  0  0
   11.1727  -14.8415   29.8543 O   0  0  0  0  0  0  0  0  0  0  0  0
   10.2745  -16.7815   29.0662 O   0  0  0  0  0  0  0  0  0  0  0  0
  1  2  1  0
  2  3  1  0
  3  4  1  0
  5  7  1  0
  5  4  1  0
  5  6  1  6
  7  8  2  0
  9 10  1  0
 10 12  1  0
 11 10  2  0
 13 12  1  6
 14 13  1  0
 14  7  1  0
 15 21  1  0
 15 13  1  0
 16 15  2  0
 18 17  1  6
 19 18  1  0
 20 21  1  6
 20 18  1  0
 22 20  1  0
 23 22  1  0
 24 22  2  0
M  END
$$$$
