MNT.pdb
     RDKit          3D

 24 23  0  0  1  0  0  0  0  0999 V2000
    7.9925  -11.7372   20.0369 C   0  0  0  0  0  0  0  0  0  0  0  0
    7.0298  -13.1666   19.4854 S   0  0  0  0  0  0  0  0  0  0  0  0
    7.7509  -14.6660   20.1771 C   0  0  0  0  0  0  0  0  0  0  0  0
    9.2274  -14.4655   20.5047 C   0  0  0  0  0  0  0  0  0  0  0  0
    9.6894  -15.7252   21.2065 C   0  0  2  0  0  0  0  0  0  0  0  0
    9.2612  -16.8386   20.3822 N   0  0  0  0  0  0  0  0  0  0  0  0
    9.0460  -15.8534   22.5525 C   0  0  0  0  0  0  0  0  0  0  0  0
    8.3815  -14.9061   23.0578 O   0  0  0  0  0  0  0  0  0  0  0  0
    6.3501  -19.5035   26.1978 N   0  0  0  0  0  0  0  0  0  0  0  0
    7.6899  -19.1553   25.9971 C   0  0  0  0  0  0  0  0  0  0  0  0
    8.4562  -19.2740   27.0135 O   0  0  0  0  0  0  0  0  0  0  0  0
    8.2896  -18.6778   24.7629 C   0  0  0  0  0  0  0  0  0  0  0  0
    8.5327  -17.2159   24.6349 C   0  0  2  0  0  0  0  0  0  0  0  0
    9.1587  -17.0414   23.3083 N   0  0  0  0  0  0  0  0  0  0  0  0
    9.4863  -16.6807   25.6305 C   0  0  0  0  0  0  0  0  0  0  0  0
   10.7458  -16.8537   25.4518 O   0  0  0  0  0  0  0  0  0  0  0  0
   10.0230  -13.0662   27.1052 C   0  0  0  0  0  0  0  0  0  0  0  0
    9.8911  -14.0855   28.1857 C   0  0  1  0  0  0  0  0  0  0  0  0
    8.5645  -14.0604   28.6591 O   0  0  0  0  0  0  0  0  0  0  0  0
   10.1473  -15.5051   27.7361 C   0  0  2  0  0  0  0  0  0  0  0  0
    9.1376  -15.9664   26.8054 N   0  0  0  0  0  0  0  0  0  0  0  0
   10.3494  -16.3808   28.8938 C   0  0  0  0  0  0  0  0  0  0  0  0
   11.3332  -16.1516   29.8408 O   0  0  0  0  0  0  0  0  0  0  0  0
    9.5958  -17.3841   29.0321 O   0  0  0  0  0  0  0  0  0  0  0  0
  1  2  1  0
  2  3  1  0
  3  4  1  0
  5  7  1  0
  5  4  1  0
  5  6  1  6
  7  8  2  0
  9 10  1  0
 10 12  1  0
 11 10  2  0
 13 12  1  1
 14 13  1  0
 14  7  1  0
 15 21  1  0
 15 13  1  0
 16 15  2  0
 18 17  1  6
 19 18  1  0
 20 21  1  1
 20 18  1  0
 22 20  1  0
 23 22  1  0
 24 22  2  0
M  END
$$$$
