MNT.pdb
     RDKit          3D

 24 23  0  0  1  0  0  0  0  0999 V2000
    6.7645  -12.1898   27.4776 C   0  0  0  0  0  0  0  0  0  0  0  0
    5.5203  -13.3147   26.7990 S   0  0  0  0  0  0  0  0  0  0  0  0
    6.3126  -14.4365   25.6326 C   0  0  0  0  0  0  0  0  0  0  0  0
    7.1893  -13.6731   24.6447 C   0  0  0  0  0  0  0  0  0  0  0  0
    7.8458  -14.7104   23.7582 C   0  0  2  0  0  0  0  0  0  0  0  0
    6.7872  -15.5833   23.2892 N   0  0  0  0  0  0  0  0  0  0  0  0
    8.8307  -15.5295   24.5335 C   0  0  0  0  0  0  0  0  0  0  0  0
    9.8628  -15.0103   25.0428 O   0  0  0  0  0  0  0  0  0  0  0  0
    8.9289  -17.9586   28.4394 N   0  0  0  0  0  0  0  0  0  0  0  0
    8.2823  -18.6279   27.3951 C   0  0  0  0  0  0  0  0  0  0  0  0
    7.1177  -19.0839   27.6602 O   0  0  0  0  0  0  0  0  0  0  0  0
    8.7969  -18.8536   26.0553 C   0  0  0  0  0  0  0  0  0  0  0  0
    9.6108  -17.7721   25.4381 C   0  0  2  0  0  0  0  0  0  0  0  0
    8.6412  -16.9162   24.7243 N   0  0  0  0  0  0  0  0  0  0  0  0
   10.5773  -18.2555   24.4287 C   0  0  0  0  0  0  0  0  0  0  0  0
   10.6712  -19.5154   24.2000 O   0  0  0  0  0  0  0  0  0  0  0  0
   10.7830  -17.4711   20.7461 C   0  0  0  0  0  0  0  0  0  0  0  0
   12.1571  -17.3515   21.3132 C   0  0  1  0  0  0  0  0  0  0  0  0
   12.4410  -15.9847   21.5024 O   0  0  0  0  0  0  0  0  0  0  0  0
   12.3313  -18.0052   22.6642 C   0  0  2  0  0  0  0  0  0  0  0  0
   11.4417  -17.4376   23.6565 N   0  0  0  0  0  0  0  0  0  0  0  0
   13.7448  -18.0129   23.0514 C   0  0  0  0  0  0  0  0  0  0  0  0
   14.6950  -18.7763   22.3943 O   0  0  0  0  0  0  0  0  0  0  0  0
   14.1096  -17.2943   24.0231 O   0  0  0  0  0  0  0  0  0  0  0  0
  1  2  1  0
  2  3  1  0
  3  4  1  0
  5  7  1  0
  5  4  1  0
  5  6  1  1
  7  8  2  0
  9 10  1  0
 10 12  1  0
 11 10  2  0
 13 12  1  6
 14 13  1  0
 14  7  1  0
 15 21  1  0
 15 13  1  0
 16 15  2  0
 18 17  1  1
 19 18  1  0
 20 21  1  1
 20 18  1  0
 22 20  1  0
 23 22  1  0
 24 22  2  0
M  END
$$$$
