SKP.pdb
     RDKit          3D

 23 23  0  0  1  0  0  0  0  0999 V2000
   15.4272  -14.1524  -15.1424 O   0  0  0  0  0  0  0  0  0  0  0  0
   16.8056  -13.9353  -14.9508 C   0  0  0  0  0  0  0  0  0  0  0  0
   17.5527  -14.2562  -16.2303 C   0  0  2  0  0  0  0  0  0  0  0  0
   17.7507  -15.6964  -16.2645 N   0  0  0  0  0  0  0  0  0  0  0  0
   18.8624  -13.5600  -16.2815 C   0  0  0  0  0  0  0  0  0  0  0  0
   19.8143  -13.9333  -15.5739 O   0  0  0  0  0  0  0  0  0  0  0  0
   19.0457  -12.4470  -17.1487 N   0  0  0  0  0  0  0  0  0  0  0  0
   20.2312  -11.6400  -17.1653 C   0  0  1  0  0  0  0  0  0  0  0  0
   20.2179  -10.8194  -18.4395 C   0  0  0  0  0  0  0  0  0  0  0  0
   21.4648   -9.9912  -18.4944 C   0  0  0  0  0  0  0  0  0  0  0  0
   21.5038   -9.1085  -19.7307 C   0  0  0  0  0  0  0  0  0  0  0  0
   22.7422   -8.2520  -19.7665 C   0  0  0  0  0  0  0  0  0  0  0  0
   22.7365   -7.5386  -21.0311 N   0  0  0  0  0  0  0  0  0  0  0  0
   20.1983  -10.7451  -15.9720 C   0  0  0  0  0  0  0  0  0  0  0  0
   19.1016  -10.3943  -15.4700 O   0  0  0  0  0  0  0  0  0  0  0  0
   21.3897  -10.2641  -15.3681 N   0  0  0  0  0  0  0  0  0  0  0  0
   22.7663  -10.4859  -15.7657 C   0  0  0  0  0  0  0  0  0  0  0  0
   23.4837  -10.5709  -14.4302 C   0  0  0  0  0  0  0  0  0  0  0  0
   22.5306  -10.0894  -13.3833 C   0  0  0  0  0  0  0  0  0  0  0  0
   21.4349   -9.4219  -14.2008 C   0  0  1  0  0  0  0  0  0  0  0  0
   21.8403   -8.0376  -14.5165 C   0  0  0  0  0  0  0  0  0  0  0  0
   21.7726   -7.1886  -13.5912 O   0  0  0  0  0  0  0  0  0  0  0  0
   22.2836   -7.6161  -15.7444 O   0  0  0  0  0  0  0  0  0  0  0  0
  1  2  1  0
  2  3  1  0
  3  5  1  0
  3  4  1  1
  5  6  2  0
  7  8  1  0
  7  5  1  0
  8 14  1  0
  8  9  1  6
 10  9  1  0
 10 11  1  0
 11 12  1  0
 13 12  1  0
 14 15  2  0
 16 14  1  0
 16 17  1  0
 17 18  1  0
 19 18  1  0
 20 16  1  0
 20 19  1  0
 20 21  1  6
 22 21  2  0
 23 21  1  0
M  END
$$$$
