SKP.pdb
     RDKit          3D

 23 23  0  0  1  0  0  0  0  0999 V2000
   19.4189  -19.4123  -14.0990 O   0  0  0  0  0  0  0  0  0  0  0  0
   19.8345  -18.0668  -14.1260 C   0  0  0  0  0  0  0  0  0  0  0  0
   20.4556  -17.7542  -15.4731 C   0  0  2  0  0  0  0  0  0  0  0  0
   19.5645  -18.2847  -16.4924 N   0  0  0  0  0  0  0  0  0  0  0  0
   21.8014  -18.3662  -15.6037 C   0  0  0  0  0  0  0  0  0  0  0  0
   21.9462  -19.4938  -16.1074 O   0  0  0  0  0  0  0  0  0  0  0  0
   22.9521  -17.6633  -15.1499 N   0  0  0  0  0  0  0  0  0  0  0  0
   24.2695  -18.2297  -15.1231 C   0  0  1  0  0  0  0  0  0  0  0  0
   25.2366  -17.1396  -14.7065 C   0  0  0  0  0  0  0  0  0  0  0  0
   26.6346  -17.6664  -14.8138 C   0  0  0  0  0  0  0  0  0  0  0  0
   27.1989  -17.4924  -16.2140 C   0  0  0  0  0  0  0  0  0  0  0  0
   28.5797  -18.0812  -16.3367 C   0  0  0  0  0  0  0  0  0  0  0  0
   29.0171  -17.8727  -17.7055 N   0  0  0  0  0  0  0  0  0  0  0  0
   24.2761  -19.3381  -14.1245 C   0  0  0  0  0  0  0  0  0  0  0  0
   23.5221  -19.2946  -13.1208 O   0  0  0  0  0  0  0  0  0  0  0  0
   25.1235  -20.4677  -14.2706 N   0  0  0  0  0  0  0  0  0  0  0  0
   26.1554  -20.7106  -15.2599 C   0  0  0  0  0  0  0  0  0  0  0  0
   26.0341  -22.2049  -15.5001 C   0  0  0  0  0  0  0  0  0  0  0  0
   25.1618  -22.7585  -14.4189 C   0  0  0  0  0  0  0  0  0  0  0  0
   25.1070  -21.6218  -13.4094 C   0  0  1  0  0  0  0  0  0  0  0  0
   26.2943  -21.6926  -12.5343 C   0  0  0  0  0  0  0  0  0  0  0  0
   27.2594  -20.9329  -12.8042 O   0  0  0  0  0  0  0  0  0  0  0  0
   26.4160  -22.5266  -11.4519 O   0  0  0  0  0  0  0  0  0  0  0  0
  1  2  1  0
  2  3  1  0
  3  5  1  0
  3  4  1  6
  5  6  2  0
  7  8  1  0
  7  5  1  0
  8 14  1  0
  8  9  1  1
 10  9  1  0
 10 11  1  0
 11 12  1  0
 13 12  1  0
 14 15  2  0
 16 14  1  0
 16 17  1  0
 17 18  1  0
 19 18  1  0
 20 16  1  0
 20 19  1  0
 20 21  1  1
 22 21  2  0
 23 21  1  0
M  END
$$$$
