SKP.pdb
     RDKit          3D

 23 23  0  0  1  0  0  0  0  0999 V2000
   26.8300  -17.2922  -15.6695 O   0  0  0  0  0  0  0  0  0  0  0  0
   27.2430  -18.4790  -16.3057 C   0  0  0  0  0  0  0  0  0  0  0  0
   26.4195  -18.6956  -17.5600 C   0  0  2  0  0  0  0  0  0  0  0  0
   26.6686  -17.5651  -18.4400 N   0  0  0  0  0  0  0  0  0  0  0  0
   24.9718  -18.7895  -17.2475 C   0  0  0  0  0  0  0  0  0  0  0  0
   24.2890  -17.7670  -17.0617 O   0  0  0  0  0  0  0  0  0  0  0  0
   24.3424  -20.0621  -17.1560 N   0  0  0  0  0  0  0  0  0  0  0  0
   22.9510  -20.2405  -16.8571 C   0  0  1  0  0  0  0  0  0  0  0  0
   22.5591  -21.6411  -17.2833 C   0  0  0  0  0  0  0  0  0  0  0  0
   22.2386  -21.6295  -18.7464 C   0  0  0  0  0  0  0  0  0  0  0  0
   21.9085  -23.0195  -19.2643 C   0  0  0  0  0  0  0  0  0  0  0  0
   21.6000  -23.0074  -20.7385 C   0  0  0  0  0  0  0  0  0  0  0  0
   21.3732  -24.3835  -21.1427 N   0  0  0  0  0  0  0  0  0  0  0  0
   22.7694  -20.0763  -15.3854 C   0  0  0  0  0  0  0  0  0  0  0  0
   23.7491  -20.1872  -14.6073 O   0  0  0  0  0  0  0  0  0  0  0  0
   21.4992  -19.7922  -14.8184 N   0  0  0  0  0  0  0  0  0  0  0  0
   20.2071  -19.7128  -15.4716 C   0  0  0  0  0  0  0  0  0  0  0  0
   19.5225  -18.5925  -14.7090 C   0  0  0  0  0  0  0  0  0  0  0  0
   20.3421  -18.3217  -13.4879 C   0  0  0  0  0  0  0  0  0  0  0  0
   21.2650  -19.5293  -13.4220 C   0  0  1  0  0  0  0  0  0  0  0  0
   20.5639  -20.6395  -12.7465 C   0  0  0  0  0  0  0  0  0  0  0  0
   20.0489  -21.5273  -13.4731 O   0  0  0  0  0  0  0  0  0  0  0  0
   20.4363  -20.7680  -11.3866 O   0  0  0  0  0  0  0  0  0  0  0  0
  1  2  1  0
  2  3  1  0
  3  5  1  0
  3  4  1  6
  5  6  2  0
  7  8  1  0
  7  5  1  0
  8 14  1  0
  8  9  1  1
 10  9  1  0
 10 11  1  0
 11 12  1  0
 13 12  1  0
 14 15  2  0
 16 14  1  0
 16 17  1  0
 17 18  1  0
 19 18  1  0
 20 16  1  0
 20 19  1  0
 20 21  1  6
 22 21  2  0
 23 21  1  0
M  END
$$$$
