SKP.pdb
     RDKit          3D

 23 23  0  0  1  0  0  0  0  0999 V2000
   17.3610  -16.2318  -14.3525 O   0  0  0  0  0  0  0  0  0  0  0  0
   18.3461  -15.3098  -14.7564 C   0  0  0  0  0  0  0  0  0  0  0  0
   18.0443  -14.8274  -16.1615 C   0  0  2  0  0  0  0  0  0  0  0  0
   18.2846  -15.9438  -17.0617 N   0  0  0  0  0  0  0  0  0  0  0  0
   18.9041  -13.6768  -16.5352 C   0  0  0  0  0  0  0  0  0  0  0  0
   20.0859  -13.8464  -16.8824 O   0  0  0  0  0  0  0  0  0  0  0  0
   18.3812  -12.3540  -16.5000 N   0  0  0  0  0  0  0  0  0  0  0  0
   19.1103  -11.1999  -16.9398 C   0  0  1  0  0  0  0  0  0  0  0  0
   18.2161  -10.4140  -17.8779 C   0  0  0  0  0  0  0  0  0  0  0  0
   17.0107   -9.9486  -17.1204 C   0  0  0  0  0  0  0  0  0  0  0  0
   16.0766   -9.1269  -17.9929 C   0  0  0  0  0  0  0  0  0  0  0  0
   14.9009   -8.6012  -17.2118 C   0  0  0  0  0  0  0  0  0  0  0  0
   14.0976   -7.8070  -18.1241 N   0  0  0  0  0  0  0  0  0  0  0  0
   19.4488  -10.3815  -15.7392 C   0  0  0  0  0  0  0  0  0  0  0  0
   18.8412  -10.5615  -14.6547 O   0  0  0  0  0  0  0  0  0  0  0  0
   20.4571   -9.3828  -15.7782 N   0  0  0  0  0  0  0  0  0  0  0  0
   21.2010   -8.8834  -16.9182 C   0  0  0  0  0  0  0  0  0  0  0  0
   22.5748   -8.6248  -16.3255 C   0  0  0  0  0  0  0  0  0  0  0  0
   22.4376   -8.7003  -14.8383 C   0  0  0  0  0  0  0  0  0  0  0  0
   20.9311   -8.6513  -14.6319 C   0  0  1  0  0  0  0  0  0  0  0  0
   20.4867   -7.2431  -14.6352 C   0  0  0  0  0  0  0  0  0  0  0  0
   19.8481   -6.8393  -15.6405 O   0  0  0  0  0  0  0  0  0  0  0  0
   20.7216   -6.3493  -13.6214 O   0  0  0  0  0  0  0  0  0  0  0  0
  1  2  1  0
  2  3  1  0
  3  5  1  0
  3  4  1  6
  5  6  2  0
  7  8  1  0
  7  5  1  0
  8 14  1  0
  8  9  1  6
 10  9  1  0
 10 11  1  0
 11 12  1  0
 13 12  1  0
 14 15  2  0
 16 14  1  0
 16 17  1  0
 17 18  1  0
 19 18  1  0
 20 16  1  0
 20 19  1  0
 20 21  1  6
 22 21  2  0
 23 21  1  0
M  END
$$$$
