SKP.pdb
     RDKit          3D

 23 23  0  0  1  0  0  0  0  0999 V2000
   27.4657   -9.7010  -15.8026 O   0  0  0  0  0  0  0  0  0  0  0  0
   26.7133  -10.7442  -15.2286 C   0  0  0  0  0  0  0  0  0  0  0  0
   25.7358  -11.2877  -16.2521 C   0  0  2  0  0  0  0  0  0  0  0  0
   26.4867  -11.5480  -17.4698 N   0  0  0  0  0  0  0  0  0  0  0  0
   24.6430  -10.3209  -16.5236 C   0  0  0  0  0  0  0  0  0  0  0  0
   24.8023   -9.3820  -17.3231 O   0  0  0  0  0  0  0  0  0  0  0  0
   23.3888  -10.4584  -15.8661 N   0  0  0  0  0  0  0  0  0  0  0  0
   22.3134   -9.5192  -16.0025 C   0  0  1  0  0  0  0  0  0  0  0  0
   21.0503  -10.1798  -15.4876 C   0  0  0  0  0  0  0  0  0  0  0  0
   19.8911   -9.2632  -15.7322 C   0  0  0  0  0  0  0  0  0  0  0  0
   18.5749   -9.8879  -15.3002 C   0  0  0  0  0  0  0  0  0  0  0  0
   17.4173   -8.9451  -15.4994 C   0  0  0  0  0  0  0  0  0  0  0  0
   16.2129   -9.6508  -15.0997 N   0  0  0  0  0  0  0  0  0  0  0  0
   22.6419   -8.3176  -15.1813 C   0  0  0  0  0  0  0  0  0  0  0  0
   23.3069   -8.4335  -14.1221 O   0  0  0  0  0  0  0  0  0  0  0  0
   22.2205   -7.0166  -15.5625 N   0  0  0  0  0  0  0  0  0  0  0  0
   21.4171   -6.6164  -16.7013 C   0  0  0  0  0  0  0  0  0  0  0  0
   22.0346   -5.2836  -17.0859 C   0  0  0  0  0  0  0  0  0  0  0  0
   22.9357   -4.8724  -15.9655 C   0  0  0  0  0  0  0  0  0  0  0  0
   22.5286   -5.8102  -14.8389 C   0  0  1  0  0  0  0  0  0  0  0  0
   21.3524   -5.2508  -14.1432 C   0  0  0  0  0  0  0  0  0  0  0  0
   20.2281   -5.7420  -14.4189 O   0  0  0  0  0  0  0  0  0  0  0  0
   21.4020   -4.2366  -13.2208 O   0  0  0  0  0  0  0  0  0  0  0  0
  1  2  1  0
  2  3  1  0
  3  5  1  0
  3  4  1  6
  5  6  2  0
  7  8  1  0
  7  5  1  0
  8 14  1  0
  8  9  1  1
 10  9  1  0
 10 11  1  0
 11 12  1  0
 13 12  1  0
 14 15  2  0
 16 14  1  0
 16 17  1  0
 17 18  1  0
 19 18  1  0
 20 16  1  0
 20 19  1  0
 20 21  1  6
 22 21  2  0
 23 21  1  0
M  END
$$$$
