SKP.pdb
     RDKit          3D

 23 23  0  0  1  0  0  0  0  0999 V2000
   26.3526  -22.2843  -15.2042 O   0  0  0  0  0  0  0  0  0  0  0  0
   25.0917  -22.6836  -15.6883 C   0  0  0  0  0  0  0  0  0  0  0  0
   24.5105  -23.7454  -14.7756 C   0  0  2  0  0  0  0  0  0  0  0  0
   25.1282  -25.0109  -15.1381 N   0  0  0  0  0  0  0  0  0  0  0  0
   23.0364  -23.8370  -14.9217 C   0  0  0  0  0  0  0  0  0  0  0  0
   22.5240  -24.4694  -15.8617 O   0  0  0  0  0  0  0  0  0  0  0  0
   22.1845  -23.1963  -13.9794 N   0  0  0  0  0  0  0  0  0  0  0  0
   20.7538  -23.2923  -14.0083 C   0  0  1  0  0  0  0  0  0  0  0  0
   20.2506  -23.1768  -12.5834 C   0  0  0  0  0  0  0  0  0  0  0  0
   19.8655  -24.5392  -12.0946 C   0  0  0  0  0  0  0  0  0  0  0  0
   19.1594  -24.4795  -10.7503 C   0  0  0  0  0  0  0  0  0  0  0  0
   18.8704  -25.8552  -10.2096 C   0  0  0  0  0  0  0  0  0  0  0  0
   18.2317  -25.6849   -8.9168 N   0  0  0  0  0  0  0  0  0  0  0  0
   20.2314  -22.1661  -14.8357 C   0  0  0  0  0  0  0  0  0  0  0  0
   20.8139  -21.0533  -14.8359 O   0  0  0  0  0  0  0  0  0  0  0  0
   19.0720  -22.3094  -15.6425 N   0  0  0  0  0  0  0  0  0  0  0  0
   18.1963  -23.4564  -15.7833 C   0  0  0  0  0  0  0  0  0  0  0  0
   17.8131  -23.3981  -17.2514 C   0  0  0  0  0  0  0  0  0  0  0  0
   18.2429  -22.0626  -17.7692 C   0  0  0  0  0  0  0  0  0  0  0  0
   18.5357  -21.2817  -16.4969 C   0  0  1  0  0  0  0  0  0  0  0  0
   17.2765  -20.7124  -15.9765 C   0  0  0  0  0  0  0  0  0  0  0  0
   16.8191  -21.1962  -14.9097 O   0  0  0  0  0  0  0  0  0  0  0  0
   16.5747  -19.6966  -16.5744 O   0  0  0  0  0  0  0  0  0  0  0  0
  1  2  1  0
  2  3  1  0
  3  5  1  0
  3  4  1  6
  5  6  2  0
  7  8  1  0
  7  5  1  0
  8 14  1  0
  8  9  1  1
 10  9  1  0
 10 11  1  0
 11 12  1  0
 13 12  1  0
 14 15  2  0
 16 14  1  0
 16 17  1  0
 17 18  1  0
 19 18  1  0
 20 16  1  0
 20 19  1  0
 20 21  1  1
 22 21  2  0
 23 21  1  0
M  END
$$$$
