SKP.pdb
     RDKit          3D

 23 23  0  0  1  0  0  0  0  0999 V2000
   43.1044   -9.4588  -10.8512 O   0  0  0  0  0  0  0  0  0  0  0  0
   43.5961  -10.3523   -9.8798 C   0  0  0  0  0  0  0  0  0  0  0  0
   42.5052  -11.3308   -9.4915 C   0  0  2  0  0  0  0  0  0  0  0  0
   41.6219  -10.6453   -8.5618 N   0  0  0  0  0  0  0  0  0  0  0  0
   43.0702  -12.5470   -8.8558 C   0  0  0  0  0  0  0  0  0  0  0  0
   43.5708  -12.5016   -7.7184 O   0  0  0  0  0  0  0  0  0  0  0  0
   43.0455  -13.7905   -9.5466 N   0  0  0  0  0  0  0  0  0  0  0  0
   43.6874  -14.9793   -9.0653 C   0  0  1  0  0  0  0  0  0  0  0  0
   43.0761  -16.1634   -9.7874 C   0  0  0  0  0  0  0  0  0  0  0  0
   43.8716  -17.3906   -9.4634 C   0  0  0  0  0  0  0  0  0  0  0  0
   43.3070  -18.6267  -10.1434 C   0  0  0  0  0  0  0  0  0  0  0  0
   44.0443  -19.8748   -9.7347 C   0  0  0  0  0  0  0  0  0  0  0  0
   43.3279  -21.0037  -10.3010 N   0  0  0  0  0  0  0  0  0  0  0  0
   45.1430  -14.8773   -9.3765 C   0  0  0  0  0  0  0  0  0  0  0  0
   45.5330  -14.2629  -10.4003 O   0  0  0  0  0  0  0  0  0  0  0  0
   46.1273  -15.4630   -8.5376 N   0  0  0  0  0  0  0  0  0  0  0  0
   45.9472  -16.2331   -7.3223 C   0  0  0  0  0  0  0  0  0  0  0  0
   47.1340  -15.7993   -6.4805 C   0  0  0  0  0  0  0  0  0  0  0  0
   48.0679  -15.0550   -7.3805 C   0  0  0  0  0  0  0  0  0  0  0  0
   47.5470  -15.3952   -8.7688 C   0  0  1  0  0  0  0  0  0  0  0  0
   48.1138  -16.6902   -9.1957 C   0  0  0  0  0  0  0  0  0  0  0  0
   49.2772  -16.6845   -9.6730 O   0  0  0  0  0  0  0  0  0  0  0  0
   47.4611  -17.8936   -9.1075 O   0  0  0  0  0  0  0  0  0  0  0  0
  1  2  1  0
  2  3  1  0
  3  5  1  0
  3  4  1  1
  5  6  2  0
  7  8  1  0
  7  5  1  0
  8 14  1  0
  8  9  1  6
 10  9  1  0
 10 11  1  0
 11 12  1  0
 13 12  1  0
 14 15  2  0
 16 14  1  0
 16 17  1  0
 17 18  1  0
 19 18  1  0
 20 16  1  0
 20 19  1  0
 20 21  1  1
 22 21  2  0
 23 21  1  0
M  END
$$$$
