SKP.pdb
     RDKit          3D

 23 23  0  0  1  0  0  0  0  0999 V2000
   15.9629   -5.2480   -9.0504 O   0  0  0  0  0  0  0  0  0  0  0  0
   15.5046   -6.4127   -8.4043 C   0  0  0  0  0  0  0  0  0  0  0  0
   15.1281   -7.4532   -9.4405 C   0  0  2  0  0  0  0  0  0  0  0  0
   14.6338   -8.6174   -8.7229 N   0  0  0  0  0  0  0  0  0  0  0  0
   16.2935   -7.8281  -10.2795 C   0  0  0  0  0  0  0  0  0  0  0  0
   17.2629   -8.4370   -9.7939 O   0  0  0  0  0  0  0  0  0  0  0  0
   16.3154   -7.4922  -11.6618 N   0  0  0  0  0  0  0  0  0  0  0  0
   17.4071   -7.8046  -12.5379 C   0  0  1  0  0  0  0  0  0  0  0  0
   16.8399   -8.0371  -13.9240 C   0  0  0  0  0  0  0  0  0  0  0  0
   16.2330   -9.4055  -13.9748 C   0  0  0  0  0  0  0  0  0  0  0  0
   15.6314   -9.7074  -15.3372 C   0  0  0  0  0  0  0  0  0  0  0  0
   14.9312  -11.0409  -15.3554 C   0  0  0  0  0  0  0  0  0  0  0  0
   14.4453  -11.2541  -16.7070 N   0  0  0  0  0  0  0  0  0  0  0  0
   18.3398   -6.6401  -12.5479 C   0  0  0  0  0  0  0  0  0  0  0  0
   17.9356   -5.4984  -12.2151 O   0  0  0  0  0  0  0  0  0  0  0  0
   19.7005   -6.7785  -12.9287 N   0  0  0  0  0  0  0  0  0  0  0  0
   20.3904   -7.9492  -13.4347 C   0  0  0  0  0  0  0  0  0  0  0  0
   21.7691   -7.8111  -12.8136 C   0  0  0  0  0  0  0  0  0  0  0  0
   21.8667   -6.4281  -12.2534 C   0  0  0  0  0  0  0  0  0  0  0  0
   20.6763   -5.7203  -12.8829 C   0  0  1  0  0  0  0  0  0  0  0  0
   21.0533   -5.2389  -14.2269 C   0  0  0  0  0  0  0  0  0  0  0  0
   21.8277   -4.2502  -14.2923 O   0  0  0  0  0  0  0  0  0  0  0  0
   20.6187   -5.7938  -15.4039 O   0  0  0  0  0  0  0  0  0  0  0  0
  1  2  1  0
  2  3  1  0
  3  5  1  0
  3  4  1  1
  5  6  2  0
  7  8  1  0
  7  5  1  0
  8 14  1  0
  8  9  1  6
 10  9  1  0
 10 11  1  0
 11 12  1  0
 13 12  1  0
 14 15  2  0
 16 14  1  0
 16 17  1  0
 17 18  1  0
 19 18  1  0
 20 16  1  0
 20 19  1  0
 20 21  1  6
 22 21  2  0
 23 21  1  0
M  END
$$$$
