SKP.pdb
     RDKit          3D

 23 23  0  0  1  0  0  0  0  0999 V2000
   28.0981  -12.2421  -15.2932 O   0  0  0  0  0  0  0  0  0  0  0  0
   27.1475  -11.2222  -15.4937 C   0  0  0  0  0  0  0  0  0  0  0  0
   26.4540  -11.4293  -16.8257 C   0  0  2  0  0  0  0  0  0  0  0  0
   27.4454  -11.2105  -17.8667 N   0  0  0  0  0  0  0  0  0  0  0  0
   25.3187  -10.4888  -16.9968 C   0  0  0  0  0  0  0  0  0  0  0  0
   25.4827   -9.3767  -17.5284 O   0  0  0  0  0  0  0  0  0  0  0  0
   24.0175  -10.8521  -16.5506 N   0  0  0  0  0  0  0  0  0  0  0  0
   22.8625  -10.0161  -16.7060 C   0  0  1  0  0  0  0  0  0  0  0  0
   21.6347  -10.8647  -16.4420 C   0  0  0  0  0  0  0  0  0  0  0  0
   20.4154  -10.0046  -16.5722 C   0  0  0  0  0  0  0  0  0  0  0  0
   19.1363  -10.8059  -16.3958 C   0  0  0  0  0  0  0  0  0  0  0  0
   17.9142   -9.9277  -16.4575 C   0  0  0  0  0  0  0  0  0  0  0  0
   16.7551  -10.7922  -16.3246 N   0  0  0  0  0  0  0  0  0  0  0  0
   22.9536   -8.9112  -15.7077 C   0  0  0  0  0  0  0  0  0  0  0  0
   23.4733   -9.1122  -14.5820 O   0  0  0  0  0  0  0  0  0  0  0  0
   22.4629   -7.6093  -15.9901 N   0  0  0  0  0  0  0  0  0  0  0  0
   21.8475   -7.1114  -17.2049 C   0  0  0  0  0  0  0  0  0  0  0  0
   22.3668   -5.6864  -17.2753 C   0  0  0  0  0  0  0  0  0  0  0  0
   22.9865   -5.3742  -15.9506 C   0  0  0  0  0  0  0  0  0  0  0  0
   22.4866   -6.5058  -15.0652 C   0  0  1  0  0  0  0  0  0  0  0  0
   21.1433   -6.1653  -14.5551 C   0  0  0  0  0  0  0  0  0  0  0  0
   21.0710   -5.3005  -13.6450 O   0  0  0  0  0  0  0  0  0  0  0  0
   19.9742   -6.7253  -15.0040 O   0  0  0  0  0  0  0  0  0  0  0  0
  1  2  1  0
  2  3  1  0
  3  5  1  0
  3  4  1  6
  5  6  2  0
  7  8  1  0
  7  5  1  0
  8 14  1  0
  8  9  1  1
 10  9  1  0
 10 11  1  0
 11 12  1  0
 13 12  1  0
 14 15  2  0
 16 14  1  0
 16 17  1  0
 17 18  1  0
 19 18  1  0
 20 16  1  0
 20 19  1  0
 20 21  1  6
 22 21  2  0
 23 21  1  0
M  END
$$$$
