SKP.pdb
     RDKit          3D

 23 23  0  0  1  0  0  0  0  0999 V2000
   27.5016  -16.7993  -18.1515 O   0  0  0  0  0  0  0  0  0  0  0  0
   27.1049  -18.1305  -17.9182 C   0  0  0  0  0  0  0  0  0  0  0  0
   28.1768  -18.8474  -17.1213 C   0  0  2  0  0  0  0  0  0  0  0  0
   29.1228  -19.4047  -18.0748 N   0  0  0  0  0  0  0  0  0  0  0  0
   27.5980  -19.9288  -16.2859 C   0  0  0  0  0  0  0  0  0  0  0  0
   27.4829  -21.0862  -16.7258 O   0  0  0  0  0  0  0  0  0  0  0  0
   27.1640  -19.6514  -14.9596 N   0  0  0  0  0  0  0  0  0  0  0  0
   26.4396  -20.5869  -14.1489 C   0  0  1  0  0  0  0  0  0  0  0  0
   26.3899  -20.0385  -12.7369 C   0  0  0  0  0  0  0  0  0  0  0  0
   25.3897  -20.8258  -11.9473 C   0  0  0  0  0  0  0  0  0  0  0  0
   25.2671  -20.3161  -10.5210 C   0  0  0  0  0  0  0  0  0  0  0  0
   24.2845  -21.1293   -9.7199 C   0  0  0  0  0  0  0  0  0  0  0  0
   24.3342  -20.6413   -8.3532 N   0  0  0  0  0  0  0  0  0  0  0  0
   25.0611  -20.7112  -14.7058 C   0  0  0  0  0  0  0  0  0  0  0  0
   24.4986  -19.7224  -15.2384 O   0  0  0  0  0  0  0  0  0  0  0  0
   24.3444  -21.9357  -14.6550 N   0  0  0  0  0  0  0  0  0  0  0  0
   24.6963  -23.1698  -13.9800 C   0  0  0  0  0  0  0  0  0  0  0  0
   24.1738  -24.2270  -14.9365 C   0  0  0  0  0  0  0  0  0  0  0  0
   23.2966  -23.5328  -15.9288 C   0  0  0  0  0  0  0  0  0  0  0  0
   23.0742  -22.1692  -15.2920 C   0  0  1  0  0  0  0  0  0  0  0  0
   21.9633  -22.2613  -14.3236 C   0  0  0  0  0  0  0  0  0  0  0  0
   20.8033  -22.4127  -14.7851 O   0  0  0  0  0  0  0  0  0  0  0  0
   22.1093  -22.1935  -12.9613 O   0  0  0  0  0  0  0  0  0  0  0  0
  1  2  1  0
  2  3  1  0
  3  5  1  0
  3  4  1  6
  5  6  2  0
  7  8  1  0
  7  5  1  0
  8 14  1  0
  8  9  1  1
 10  9  1  0
 10 11  1  0
 11 12  1  0
 13 12  1  0
 14 15  2  0
 16 14  1  0
 16 17  1  0
 17 18  1  0
 19 18  1  0
 20 16  1  0
 20 19  1  0
 20 21  1  1
 22 21  2  0
 23 21  1  0
M  END
$$$$
