SKP.pdb
     RDKit          3D

 23 23  0  0  1  0  0  0  0  0999 V2000
   26.8606  -19.1784  -18.2094 O   0  0  0  0  0  0  0  0  0  0  0  0
   27.9140  -18.9324  -17.3074 C   0  0  0  0  0  0  0  0  0  0  0  0
   28.4487  -20.2493  -16.7800 C   0  0  2  0  0  0  0  0  0  0  0  0
   28.7912  -21.0680  -17.9319 N   0  0  0  0  0  0  0  0  0  0  0  0
   27.4416  -20.9453  -15.9410 C   0  0  0  0  0  0  0  0  0  0  0  0
   26.7652  -21.8833  -16.3979 O   0  0  0  0  0  0  0  0  0  0  0  0
   27.2364  -20.5437  -14.5916 N   0  0  0  0  0  0  0  0  0  0  0  0
   26.1987  -21.0724  -13.7546 C   0  0  1  0  0  0  0  0  0  0  0  0
   26.4867  -20.6447  -12.3295 C   0  0  0  0  0  0  0  0  0  0  0  0
   25.3433  -21.0648  -11.4580 C   0  0  0  0  0  0  0  0  0  0  0  0
   25.5457  -20.6375  -10.0138 C   0  0  0  0  0  0  0  0  0  0  0  0
   24.4653  -21.1785   -9.1147 C   0  0  0  0  0  0  0  0  0  0  0  0
   24.7536  -20.7171   -7.7685 N   0  0  0  0  0  0  0  0  0  0  0  0
   24.8986  -20.5028  -14.2143 C   0  0  0  0  0  0  0  0  0  0  0  0
   24.8427  -19.3355  -14.6745 O   0  0  0  0  0  0  0  0  0  0  0  0
   23.6931  -21.2499  -14.1492 N   0  0  0  0  0  0  0  0  0  0  0  0
   23.4571  -22.5479  -13.5475 C   0  0  0  0  0  0  0  0  0  0  0  0
   22.4473  -23.1700  -14.4956 C   0  0  0  0  0  0  0  0  0  0  0  0
   21.9492  -22.0803  -15.3904 C   0  0  0  0  0  0  0  0  0  0  0  0
   22.4307  -20.8180  -14.6911 C   0  0  1  0  0  0  0  0  0  0  0  0
   21.4614  -20.4452  -13.6413 C   0  0  0  0  0  0  0  0  0  0  0  0
   21.8010  -20.6343  -12.4454 O   0  0  0  0  0  0  0  0  0  0  0  0
   20.2215  -19.9092  -13.8803 O   0  0  0  0  0  0  0  0  0  0  0  0
  1  2  1  0
  2  3  1  0
  3  5  1  0
  3  4  1  6
  5  6  2  0
  7  8  1  0
  7  5  1  0
  8 14  1  0
  8  9  1  1
 10  9  1  0
 10 11  1  0
 11 12  1  0
 13 12  1  0
 14 15  2  0
 16 14  1  0
 16 17  1  0
 17 18  1  0
 19 18  1  0
 20 16  1  0
 20 19  1  0
 20 21  1  1
 22 21  2  0
 23 21  1  0
M  END
$$$$
