SKP.pdb
     RDKit          3D

 23 23  0  0  1  0  0  0  0  0999 V2000
   26.4671  -13.5344  -19.1065 O   0  0  0  0  0  0  0  0  0  0  0  0
   25.9341  -14.8379  -19.0836 C   0  0  0  0  0  0  0  0  0  0  0  0
   26.9956  -15.8123  -18.6124 C   0  0  2  0  0  0  0  0  0  0  0  0
   27.8273  -16.1328  -19.7613 N   0  0  0  0  0  0  0  0  0  0  0  0
   26.3885  -17.0493  -18.0612 C   0  0  0  0  0  0  0  0  0  0  0  0
   25.9310  -17.9281  -18.8126 O   0  0  0  0  0  0  0  0  0  0  0  0
   26.3223  -17.2459  -16.6536 N   0  0  0  0  0  0  0  0  0  0  0  0
   25.7670  -18.4177  -16.0406 C   0  0  1  0  0  0  0  0  0  0  0  0
   26.4163  -18.5840  -14.6813 C   0  0  0  0  0  0  0  0  0  0  0  0
   25.7409  -19.7078  -13.9571 C   0  0  0  0  0  0  0  0  0  0  0  0
   26.4108  -20.0070  -12.6263 C   0  0  0  0  0  0  0  0  0  0  0  0
   25.8311  -21.2339  -11.9727 C   0  0  0  0  0  0  0  0  0  0  0  0
   26.9131  -21.8997  -11.2695 N   0  0  0  0  0  0  0  0  0  0  0  0
   24.2973  -18.2092  -15.8914 C   0  0  0  0  0  0  0  0  0  0  0  0
   23.8430  -17.0791  -15.5848 O   0  0  0  0  0  0  0  0  0  0  0  0
   23.3708  -19.2668  -16.0881 N   0  0  0  0  0  0  0  0  0  0  0  0
   23.6307  -20.6752  -16.3146 C   0  0  0  0  0  0  0  0  0  0  0  0
   22.5274  -21.0604  -17.2840 C   0  0  0  0  0  0  0  0  0  0  0  0
   21.5415  -19.9362  -17.3034 C   0  0  0  0  0  0  0  0  0  0  0  0
   21.9390  -19.1131  -16.0873 C   0  0  1  0  0  0  0  0  0  0  0  0
   21.3080  -19.6905  -14.8835 C   0  0  0  0  0  0  0  0  0  0  0  0
   22.0356  -20.3747  -14.1194 O   0  0  0  0  0  0  0  0  0  0  0  0
   19.9885  -19.5323  -14.5432 O   0  0  0  0  0  0  0  0  0  0  0  0
  1  2  1  0
  2  3  1  0
  3  5  1  0
  3  4  1  6
  5  6  2  0
  7  8  1  0
  7  5  1  0
  8 14  1  0
  8  9  1  1
 10  9  1  0
 10 11  1  0
 11 12  1  0
 13 12  1  0
 14 15  2  0
 16 14  1  0
 16 17  1  0
 17 18  1  0
 19 18  1  0
 20 16  1  0
 20 19  1  0
 20 21  1  1
 22 21  2  0
 23 21  1  0
M  END
$$$$
