SKP.pdb
     RDKit          3D

 23 23  0  0  1  0  0  0  0  0999 V2000
   22.4659   -7.1565  -21.4234 O   0  0  0  0  0  0  0  0  0  0  0  0
   23.0692   -8.4263  -21.5097 C   0  0  0  0  0  0  0  0  0  0  0  0
   22.0614   -9.4939  -21.1317 C   0  0  2  0  0  0  0  0  0  0  0  0
   21.0052   -9.4629  -22.1306 N   0  0  0  0  0  0  0  0  0  0  0  0
   21.4943   -9.2494  -19.7821 C   0  0  0  0  0  0  0  0  0  0  0  0
   20.3994   -8.6771  -19.6415 O   0  0  0  0  0  0  0  0  0  0  0  0
   22.2034   -9.6708  -18.6229 N   0  0  0  0  0  0  0  0  0  0  0  0
   21.7646   -9.4059  -17.2834 C   0  0  1  0  0  0  0  0  0  0  0  0
   22.5841  -10.2697  -16.3456 C   0  0  0  0  0  0  0  0  0  0  0  0
   24.0251  -10.1851  -16.7455 C   0  0  0  0  0  0  0  0  0  0  0  0
   24.9017  -11.0922  -15.8981 C   0  0  0  0  0  0  0  0  0  0  0  0
   26.3534  -10.9867  -16.2854 C   0  0  0  0  0  0  0  0  0  0  0  0
   27.0928  -11.9079  -15.4410 N   0  0  0  0  0  0  0  0  0  0  0  0
   22.0005   -7.9609  -16.9967 C   0  0  0  0  0  0  0  0  0  0  0  0
   22.8295   -7.3049  -17.6751 O   0  0  0  0  0  0  0  0  0  0  0  0
   21.3056   -7.2836  -15.9605 N   0  0  0  0  0  0  0  0  0  0  0  0
   20.3531   -7.8140  -15.0045 C   0  0  0  0  0  0  0  0  0  0  0  0
   19.3706   -6.6667  -14.8497 C   0  0  0  0  0  0  0  0  0  0  0  0
   19.9915   -5.4625  -15.4827 C   0  0  0  0  0  0  0  0  0  0  0  0
   21.4429   -5.8816  -15.6616 C   0  0  1  0  0  0  0  0  0  0  0  0
   22.1763   -5.6399  -14.4030 C   0  0  0  0  0  0  0  0  0  0  0  0
   22.4510   -6.6395  -13.6912 O   0  0  0  0  0  0  0  0  0  0  0  0
   22.5766   -4.4051  -13.9590 O   0  0  0  0  0  0  0  0  0  0  0  0
  1  2  1  0
  2  3  1  0
  3  5  1  0
  3  4  1  6
  5  6  2  0
  7  8  1  0
  7  5  1  0
  8 14  1  0
  8  9  1  1
 10  9  1  0
 10 11  1  0
 11 12  1  0
 13 12  1  0
 14 15  2  0
 16 14  1  0
 16 17  1  0
 17 18  1  0
 19 18  1  0
 20 16  1  0
 20 19  1  0
 20 21  1  1
 22 21  2  0
 23 21  1  0
M  END
$$$$
