ETV.pdb
     RDKit          3D

 24 23  0  0  1  0  0  0  0  0999 V2000
   12.5188  -16.7630   19.9946 N   0  0  0  0  0  0  0  0  0  0  0  0
   12.7202  -17.2802   21.3622 C   0  0  1  0  0  0  0  0  0  0  0  0
   14.1496  -17.0278   21.6820 C   0  0  0  0  0  0  0  0  0  0  0  0
   14.8004  -16.1992   20.6064 C   0  0  0  0  0  0  0  0  0  0  0  0
   16.2437  -16.0889   20.9875 C   0  0  0  0  0  0  0  0  0  0  0  0
   17.1057  -16.7245   20.3485 O   0  0  0  0  0  0  0  0  0  0  0  0
   11.7376  -16.6303   22.2383 C   0  0  0  0  0  0  0  0  0  0  0  0
   11.1773  -15.5362   21.8713 O   0  0  0  0  0  0  0  0  0  0  0  0
   16.5847  -15.2765   22.0434 O   0  0  0  0  0  0  0  0  0  0  0  0
    8.6160  -17.5906   22.7095 C   0  0  0  0  0  0  0  0  0  0  0  0
    9.1014  -17.5062   24.1338 C   0  0  1  0  0  0  0  0  0  0  0  0
    9.5789  -18.8106   24.4263 O   0  0  0  0  0  0  0  0  0  0  0  0
   10.2450  -16.5493   24.3038 C   0  0  2  0  0  0  0  0  0  0  0  0
   11.3319  -17.1132   23.4932 N   0  0  0  0  0  0  0  0  0  0  0  0
   10.6672  -16.3135   25.6743 C   0  0  0  0  0  0  0  0  0  0  0  0
   11.7626  -16.8899   26.0415 O   0  0  0  0  0  0  0  0  0  0  0  0
   10.2646  -12.9452   27.8751 C   0  0  0  0  0  0  0  0  0  0  0  0
    9.8018  -14.1527   28.6613 C   0  0  1  0  0  0  0  0  0  0  0  0
    8.3067  -14.2401   28.5808 C   0  0  0  0  0  0  0  0  0  0  0  0
   10.4690  -15.3467   28.0252 C   0  0  2  0  0  0  0  0  0  0  0  0
   10.0397  -15.5382   26.6560 N   0  0  0  0  0  0  0  0  0  0  0  0
   10.1268  -16.6045   28.7752 C   0  0  0  0  0  0  0  0  0  0  0  0
   10.6492  -16.7970   30.0294 O   0  0  0  0  0  0  0  0  0  0  0  0
    9.3787  -17.4756   28.2829 O   0  0  0  0  0  0  0  0  0  0  0  0
  2  1  1  6
  3  2  1  0
  4  3  1  0
  4  5  1  0
  5  6  2  0
  7  2  1  0
  7  8  2  0
  9  5  1  0
 11 10  1  6
 11 12  1  0
 11 13  1  0
 13 14  1  6
 14  7  1  0
 15 21  1  0
 15 13  1  0
 16 15  2  0
 18 17  1  6
 18 20  1  0
 19 18  1  0
 20 21  1  6
 20 22  1  0
 22 23  1  0
 24 22  2  0
M  END
$$$$
