ETV.pdb
     RDKit          3D

 24 23  0  0  1  0  0  0  0  0999 V2000
   11.1647  -14.8017   18.2703 N   0  0  0  0  0  0  0  0  0  0  0  0
   11.0731  -15.4175   19.6086 C   0  0  1  0  0  0  0  0  0  0  0  0
   12.4439  -15.3475   20.1790 C   0  0  0  0  0  0  0  0  0  0  0  0
   13.3498  -14.5307   19.2962 C   0  0  0  0  0  0  0  0  0  0  0  0
   14.7377  -14.7545   19.8102 C   0  0  0  0  0  0  0  0  0  0  0  0
   15.6657  -14.9917   19.0114 O   0  0  0  0  0  0  0  0  0  0  0  0
   10.0250  -14.7130   20.3573 C   0  0  0  0  0  0  0  0  0  0  0  0
    9.7209  -13.5051   20.0505 O   0  0  0  0  0  0  0  0  0  0  0  0
   14.9552  -14.6883   21.1665 O   0  0  0  0  0  0  0  0  0  0  0  0
    6.6023  -15.1626   20.3939 C   0  0  0  0  0  0  0  0  0  0  0  0
    6.9746  -15.2697   21.8503 C   0  0  1  0  0  0  0  0  0  0  0  0
    7.1905  -16.6566   22.0629 O   0  0  0  0  0  0  0  0  0  0  0  0
    8.2497  -14.5503   22.1801 C   0  0  2  0  0  0  0  0  0  0  0  0
    9.2889  -15.2584   21.4219 N   0  0  0  0  0  0  0  0  0  0  0  0
    8.5787  -14.4726   23.5936 C   0  0  0  0  0  0  0  0  0  0  0  0
    9.6234  -15.1291   23.9736 O   0  0  0  0  0  0  0  0  0  0  0  0
    7.8277  -11.3804   26.2104 C   0  0  0  0  0  0  0  0  0  0  0  0
    7.4194  -12.7283   26.7642 C   0  0  1  0  0  0  0  0  0  0  0  0
    5.9477  -12.9174   26.5448 C   0  0  0  0  0  0  0  0  0  0  0  0
    8.2348  -13.7527   26.0152 C   0  0  2  0  0  0  0  0  0  0  0  0
    7.9087  -13.7748   24.6049 N   0  0  0  0  0  0  0  0  0  0  0  0
    7.9702  -15.1327   26.5511 C   0  0  0  0  0  0  0  0  0  0  0  0
    8.5008  -15.4905   27.7651 O   0  0  0  0  0  0  0  0  0  0  0  0
    7.2792  -15.9584   25.9174 O   0  0  0  0  0  0  0  0  0  0  0  0
  2  1  1  6
  3  2  1  0
  4  3  1  0
  4  5  1  0
  5  6  2  0
  7  2  1  0
  7  8  2  0
  9  5  1  0
 11 10  1  6
 11 12  1  0
 11 13  1  0
 13 14  1  6
 14  7  1  0
 15 21  1  0
 15 13  1  0
 16 15  2  0
 18 17  1  6
 18 20  1  0
 19 18  1  0
 20 21  1  6
 20 22  1  0
 22 23  1  0
 24 22  2  0
M  END
$$$$
