ETV.pdb
     RDKit          3D

 24 23  0  0  1  0  0  0  0  0999 V2000
   10.9163  -17.5203   19.8141 N   0  0  0  0  0  0  0  0  0  0  0  0
   10.9964  -17.7977   21.2615 C   0  0  1  0  0  0  0  0  0  0  0  0
   12.3819  -17.4403   21.6641 C   0  0  0  0  0  0  0  0  0  0  0  0
   13.3891  -18.1047   20.7635 C   0  0  0  0  0  0  0  0  0  0  0  0
   14.4178  -17.0620   20.4554 C   0  0  0  0  0  0  0  0  0  0  0  0
   15.2626  -16.7483   21.3176 O   0  0  0  0  0  0  0  0  0  0  0  0
    9.9187  -17.0518   21.9230 C   0  0  0  0  0  0  0  0  0  0  0  0
    9.3853  -16.0428   21.3373 O   0  0  0  0  0  0  0  0  0  0  0  0
   14.4054  -16.4731   19.2127 O   0  0  0  0  0  0  0  0  0  0  0  0
    6.0893  -17.3269   24.9367 C   0  0  0  0  0  0  0  0  0  0  0  0
    7.3383  -17.8117   24.2467 C   0  0  1  0  0  0  0  0  0  0  0  0
    6.8683  -18.4848   23.0886 O   0  0  0  0  0  0  0  0  0  0  0  0
    8.2281  -16.6900   23.7969 C   0  0  2  0  0  0  0  0  0  0  0  0
    9.3901  -17.3509   23.1894 N   0  0  0  0  0  0  0  0  0  0  0  0
    8.6276  -15.7522   24.8328 C   0  0  0  0  0  0  0  0  0  0  0  0
    9.7851  -15.9522   25.3686 O   0  0  0  0  0  0  0  0  0  0  0  0
    7.4083  -11.8664   25.2529 C   0  0  0  0  0  0  0  0  0  0  0  0
    7.3656  -12.6134   26.5684 C   0  0  1  0  0  0  0  0  0  0  0  0
    5.9582  -13.0636   26.8252 C   0  0  0  0  0  0  0  0  0  0  0  0
    8.3095  -13.7803   26.4175 C   0  0  2  0  0  0  0  0  0  0  0  0
    7.9191  -14.6524   25.3300 N   0  0  0  0  0  0  0  0  0  0  0  0
    8.3227  -14.6140   27.6691 C   0  0  0  0  0  0  0  0  0  0  0  0
    7.7661  -15.8681   27.6418 O   0  0  0  0  0  0  0  0  0  0  0  0
    8.8287  -14.1914   28.7303 O   0  0  0  0  0  0  0  0  0  0  0  0
  2  1  1  6
  3  2  1  0
  4  3  1  0
  4  5  1  0
  5  6  2  0
  7  2  1  0
  7  8  2  0
  9  5  1  0
 11 10  1  6
 11 12  1  0
 11 13  1  0
 13 14  1  1
 14  7  1  0
 15 21  1  0
 15 13  1  0
 16 15  2  0
 18 17  1  6
 18 20  1  0
 19 18  1  0
 20 21  1  6
 20 22  1  0
 22 23  1  0
 24 22  2  0
M  END
$$$$
