ETV.pdb
     RDKit          3D

 24 23  0  0  1  0  0  0  0  0999 V2000
   10.2131  -18.1273   19.2104 N   0  0  0  0  0  0  0  0  0  0  0  0
   10.6338  -17.6875   20.5550 C   0  0  1  0  0  0  0  0  0  0  0  0
   11.9634  -17.0486   20.3724 C   0  0  0  0  0  0  0  0  0  0  0  0
   13.0701  -18.0028   20.7359 C   0  0  0  0  0  0  0  0  0  0  0  0
   14.3319  -17.1980   20.7142 C   0  0  0  0  0  0  0  0  0  0  0  0
   14.7106  -16.6077   21.7455 O   0  0  0  0  0  0  0  0  0  0  0  0
    9.5742  -16.8298   21.1000 C   0  0  0  0  0  0  0  0  0  0  0  0
    8.6299  -16.4156   20.3368 O   0  0  0  0  0  0  0  0  0  0  0  0
   15.0506  -17.1334   19.5434 O   0  0  0  0  0  0  0  0  0  0  0  0
    7.0445  -17.4232   21.6655 C   0  0  0  0  0  0  0  0  0  0  0  0
    7.2498  -16.8165   23.0297 C   0  0  1  0  0  0  0  0  0  0  0  0
    7.6958  -17.8956   23.8371 O   0  0  0  0  0  0  0  0  0  0  0  0
    8.3165  -15.7610   23.0433 C   0  0  2  0  0  0  0  0  0  0  0  0
    9.4892  -16.4023   22.4351 N   0  0  0  0  0  0  0  0  0  0  0  0
    8.6295  -15.2021   24.3479 C   0  0  0  0  0  0  0  0  0  0  0  0
    9.7227  -15.6134   24.8980 O   0  0  0  0  0  0  0  0  0  0  0  0
    7.3362  -11.5452   25.7410 C   0  0  0  0  0  0  0  0  0  0  0  0
    7.2849  -12.6251   26.8001 C   0  0  1  0  0  0  0  0  0  0  0  0
    5.8856  -13.1589   26.8812 C   0  0  0  0  0  0  0  0  0  0  0  0
    8.2657  -13.6850   26.3646 C   0  0  2  0  0  0  0  0  0  0  0  0
    7.8980  -14.2697   25.0923 N   0  0  0  0  0  0  0  0  0  0  0  0
    8.3134  -14.8045   27.3676 C   0  0  0  0  0  0  0  0  0  0  0  0
    9.0395  -14.6379   28.5201 O   0  0  0  0  0  0  0  0  0  0  0  0
    7.7073  -15.8800   27.1756 O   0  0  0  0  0  0  0  0  0  0  0  0
  2  1  1  6
  3  2  1  0
  4  3  1  0
  4  5  1  0
  5  6  2  0
  7  2  1  0
  7  8  2  0
  9  5  1  0
 11 10  1  6
 11 12  1  0
 11 13  1  0
 13 14  1  1
 14  7  1  0
 15 21  1  0
 15 13  1  0
 16 15  2  0
 18 17  1  6
 18 20  1  0
 19 18  1  0
 20 21  1  6
 20 22  1  0
 22 23  1  0
 24 22  2  0
M  END
$$$$
