ETV.pdb
     RDKit          3D

 24 23  0  0  1  0  0  0  0  0999 V2000
   11.2702  -17.2870   19.5557 N   0  0  0  0  0  0  0  0  0  0  0  0
   11.3567  -17.8995   20.8958 C   0  0  1  0  0  0  0  0  0  0  0  0
   12.7730  -17.7440   21.3192 C   0  0  0  0  0  0  0  0  0  0  0  0
   13.0499  -16.3286   21.7519 C   0  0  0  0  0  0  0  0  0  0  0  0
   14.5105  -16.2745   22.0746 C   0  0  0  0  0  0  0  0  0  0  0  0
   15.3485  -16.2052   21.1535 O   0  0  0  0  0  0  0  0  0  0  0  0
   10.3522  -17.2550   21.7508 C   0  0  0  0  0  0  0  0  0  0  0  0
    9.2223  -16.9017   21.2566 O   0  0  0  0  0  0  0  0  0  0  0  0
   14.8935  -16.2995   23.3952 O   0  0  0  0  0  0  0  0  0  0  0  0
    8.0211  -18.0156   22.4855 C   0  0  0  0  0  0  0  0  0  0  0  0
    8.4502  -17.7830   23.9114 C   0  0  1  0  0  0  0  0  0  0  0  0
    9.1164  -18.9800   24.2837 O   0  0  0  0  0  0  0  0  0  0  0  0
    9.4268  -16.6518   24.0487 C   0  0  2  0  0  0  0  0  0  0  0  0
   10.5148  -16.9780   23.1181 N   0  0  0  0  0  0  0  0  0  0  0  0
    9.9262  -16.4139   25.3926 C   0  0  0  0  0  0  0  0  0  0  0  0
   11.0563  -16.9642   25.6876 O   0  0  0  0  0  0  0  0  0  0  0  0
   10.0755  -13.4531   29.3310 C   0  0  0  0  0  0  0  0  0  0  0  0
    9.2449  -13.9526   28.1687 C   0  0  1  0  0  0  0  0  0  0  0  0
    9.0926  -12.8444   27.1696 C   0  0  0  0  0  0  0  0  0  0  0  0
    9.9948  -15.1281   27.5933 C   0  0  2  0  0  0  0  0  0  0  0  0
    9.3407  -15.6613   26.4171 N   0  0  0  0  0  0  0  0  0  0  0  0
   10.0769  -16.2448   28.5972 C   0  0  0  0  0  0  0  0  0  0  0  0
    9.3035  -17.3638   28.4159 O   0  0  0  0  0  0  0  0  0  0  0  0
   10.8324  -16.1766   29.5899 O   0  0  0  0  0  0  0  0  0  0  0  0
  2  1  1  6
  3  2  1  0
  4  3  1  0
  4  5  1  0
  5  6  2  0
  7  2  1  0
  7  8  2  0
  9  5  1  0
 11 10  1  6
 11 12  1  0
 11 13  1  0
 13 14  1  6
 14  7  1  0
 15 21  1  0
 15 13  1  0
 16 15  2  0
 18 17  1  1
 18 20  1  0
 19 18  1  0
 20 21  1  6
 20 22  1  0
 22 23  1  0
 24 22  2  0
M  END
$$$$
