ETV.pdb
     RDKit          3D

 24 23  0  0  1  0  0  0  0  0999 V2000
   11.1684  -17.5092   20.0065 N   0  0  0  0  0  0  0  0  0  0  0  0
   11.5403  -18.0986   21.3076 C   0  0  1  0  0  0  0  0  0  0  0  0
   13.0117  -17.9228   21.4237 C   0  0  0  0  0  0  0  0  0  0  0  0
   13.4215  -16.5406   20.9893 C   0  0  0  0  0  0  0  0  0  0  0  0
   14.9081  -16.4807   21.1531 C   0  0  0  0  0  0  0  0  0  0  0  0
   15.4231  -16.7485   22.2570 O   0  0  0  0  0  0  0  0  0  0  0  0
   10.7283  -17.4495   22.3443 C   0  0  0  0  0  0  0  0  0  0  0  0
   10.1253  -16.3466   22.0881 O   0  0  0  0  0  0  0  0  0  0  0  0
   15.6758  -16.1307   20.0671 O   0  0  0  0  0  0  0  0  0  0  0  0
    7.8227  -18.7975   23.6941 C   0  0  0  0  0  0  0  0  0  0  0  0
    8.6165  -18.4217   24.9187 C   0  0  1  0  0  0  0  0  0  0  0  0
    9.3107  -19.6083   25.2725 O   0  0  0  0  0  0  0  0  0  0  0  0
    9.6373  -17.3558   24.6468 C   0  0  2  0  0  0  0  0  0  0  0  0
   10.5372  -17.9423   23.6455 N   0  0  0  0  0  0  0  0  0  0  0  0
   10.3689  -16.8770   25.8077 C   0  0  0  0  0  0  0  0  0  0  0  0
   11.6066  -17.2351   25.8903 O   0  0  0  0  0  0  0  0  0  0  0  0
   10.4660  -13.3135   27.3576 C   0  0  0  0  0  0  0  0  0  0  0  0
   10.1962  -14.2758   28.4941 C   0  0  1  0  0  0  0  0  0  0  0  0
    8.7289  -14.2610   28.8044 C   0  0  0  0  0  0  0  0  0  0  0  0
   10.6547  -15.6300   28.0132 C   0  0  2  0  0  0  0  0  0  0  0  0
    9.9066  -16.0727   26.8556 N   0  0  0  0  0  0  0  0  0  0  0  0
   10.4603  -16.6651   29.0867 C   0  0  0  0  0  0  0  0  0  0  0  0
   11.2609  -16.6302   30.2007 O   0  0  0  0  0  0  0  0  0  0  0  0
    9.5875  -17.5536   28.9872 O   0  0  0  0  0  0  0  0  0  0  0  0
  2  1  1  6
  3  2  1  0
  4  3  1  0
  4  5  1  0
  5  6  2  0
  7  2  1  0
  7  8  2  0
  9  5  1  0
 11 10  1  6
 11 12  1  0
 11 13  1  0
 13 14  1  6
 14  7  1  0
 15 21  1  0
 15 13  1  0
 16 15  2  0
 18 17  1  6
 18 20  1  0
 19 18  1  0
 20 21  1  6
 20 22  1  0
 22 23  1  0
 24 22  2  0
M  END
$$$$
