ETV.pdb
     RDKit          3D

 24 23  0  0  1  0  0  0  0  0999 V2000
   13.0466  -17.1455   20.0654 N   0  0  0  0  0  0  0  0  0  0  0  0
   12.5802  -17.8921   21.2501 C   0  0  1  0  0  0  0  0  0  0  0  0
   13.8043  -18.4500   21.8823 C   0  0  0  0  0  0  0  0  0  0  0  0
   14.9513  -18.4645   20.9070 C   0  0  0  0  0  0  0  0  0  0  0  0
   16.1802  -18.7288   21.7196 C   0  0  0  0  0  0  0  0  0  0  0  0
   16.4335  -19.8877   22.1047 O   0  0  0  0  0  0  0  0  0  0  0  0
   11.7870  -16.9742   22.0769 C   0  0  0  0  0  0  0  0  0  0  0  0
   12.0790  -15.7254   22.1075 O   0  0  0  0  0  0  0  0  0  0  0  0
   17.0091  -17.6735   22.0206 O   0  0  0  0  0  0  0  0  0  0  0  0
    7.4714  -16.0151   24.2191 C   0  0  0  0  0  0  0  0  0  0  0  0
    8.4638  -16.8525   23.4541 C   0  0  1  0  0  0  0  0  0  0  0  0
    8.1540  -16.6155   22.0891 O   0  0  0  0  0  0  0  0  0  0  0  0
    9.8844  -16.4269   23.6835 C   0  0  2  0  0  0  0  0  0  0  0  0
   10.6897  -17.3469   22.8703 N   0  0  0  0  0  0  0  0  0  0  0  0
   10.3204  -16.4176   25.0699 C   0  0  0  0  0  0  0  0  0  0  0  0
   11.0541  -17.4118   25.4444 O   0  0  0  0  0  0  0  0  0  0  0  0
   10.6212  -14.3888   29.5822 C   0  0  0  0  0  0  0  0  0  0  0  0
    9.9996  -14.2878   28.2061 C   0  0  1  0  0  0  0  0  0  0  0  0
   10.4576  -13.0145   27.5592 C   0  0  0  0  0  0  0  0  0  0  0  0
   10.4672  -15.5036   27.4456 C   0  0  2  0  0  0  0  0  0  0  0  0
   10.0490  -15.4666   26.0602 N   0  0  0  0  0  0  0  0  0  0  0  0
    9.8920  -16.7562   28.0471 C   0  0  0  0  0  0  0  0  0  0  0  0
   10.6546  -17.4873   28.9229 O   0  0  0  0  0  0  0  0  0  0  0  0
    8.7378  -17.1445   27.7681 O   0  0  0  0  0  0  0  0  0  0  0  0
  2  1  1  6
  3  2  1  0
  4  3  1  0
  4  5  1  0
  5  6  2  0
  7  2  1  0
  7  8  2  0
  9  5  1  0
 11 10  1  1
 11 12  1  0
 11 13  1  0
 13 14  1  6
 14  7  1  0
 15 21  1  0
 15 13  1  0
 16 15  2  0
 18 17  1  1
 18 20  1  0
 19 18  1  0
 20 21  1  6
 20 22  1  0
 22 23  1  0
 24 22  2  0
M  END
$$$$
