ETV.pdb
     RDKit          3D

 24 23  0  0  1  0  0  0  0  0999 V2000
    9.6662  -18.5954   19.4816 N   0  0  0  0  0  0  0  0  0  0  0  0
   10.0939  -18.1442   20.8202 C   0  0  1  0  0  0  0  0  0  0  0  0
   11.4262  -17.5144   20.6265 C   0  0  0  0  0  0  0  0  0  0  0  0
   12.3247  -18.4037   19.8087 C   0  0  0  0  0  0  0  0  0  0  0  0
   13.6882  -17.7903   19.8805 C   0  0  0  0  0  0  0  0  0  0  0  0
   14.2402  -17.3787   18.8407 O   0  0  0  0  0  0  0  0  0  0  0  0
    9.0408  -17.2753   21.3599 C   0  0  0  0  0  0  0  0  0  0  0  0
    7.9309  -17.1470   20.7295 O   0  0  0  0  0  0  0  0  0  0  0  0
   14.3015  -17.6929   21.1075 O   0  0  0  0  0  0  0  0  0  0  0  0
    6.8720  -18.0760   22.3952 C   0  0  0  0  0  0  0  0  0  0  0  0
    7.1607  -17.2504   23.6225 C   0  0  1  0  0  0  0  0  0  0  0  0
    7.9255  -18.1068   24.4574 O   0  0  0  0  0  0  0  0  0  0  0  0
    7.9914  -16.0363   23.3257 C   0  0  2  0  0  0  0  0  0  0  0  0
    9.1339  -16.5408   22.5534 N   0  0  0  0  0  0  0  0  0  0  0  0
    8.4246  -15.2739   24.4847 C   0  0  0  0  0  0  0  0  0  0  0  0
    9.6241  -15.5033   24.9034 O   0  0  0  0  0  0  0  0  0  0  0  0
    7.2316  -11.4952   25.4013 C   0  0  0  0  0  0  0  0  0  0  0  0
    7.2595  -12.3732   26.6336 C   0  0  1  0  0  0  0  0  0  0  0  0
    5.8680  -12.8558   26.9170 C   0  0  0  0  0  0  0  0  0  0  0  0
    8.1947  -13.5128   26.3141 C   0  0  2  0  0  0  0  0  0  0  0  0
    7.7088  -14.3162   25.2123 N   0  0  0  0  0  0  0  0  0  0  0  0
    8.3360  -14.4280   27.4991 C   0  0  0  0  0  0  0  0  0  0  0  0
    7.8066  -15.6923   27.4331 O   0  0  0  0  0  0  0  0  0  0  0  0
    8.9240  -14.0636   28.5395 O   0  0  0  0  0  0  0  0  0  0  0  0
  2  1  1  6
  3  2  1  0
  4  3  1  0
  4  5  1  0
  5  6  2  0
  7  2  1  0
  7  8  2  0
  9  5  1  0
 11 10  1  6
 11 12  1  0
 11 13  1  0
 13 14  1  1
 14  7  1  0
 15 21  1  0
 15 13  1  0
 16 15  2  0
 18 17  1  6
 18 20  1  0
 19 18  1  0
 20 21  1  6
 20 22  1  0
 22 23  1  0
 24 22  2  0
M  END
$$$$
