ETV.pdb
     RDKit          3D

 24 23  0  0  1  0  0  0  0  0999 V2000
   10.5735  -18.4129   19.6841 N   0  0  0  0  0  0  0  0  0  0  0  0
   11.3601  -18.1203   20.8982 C   0  0  1  0  0  0  0  0  0  0  0  0
   12.4923  -17.2683   20.4491 C   0  0  0  0  0  0  0  0  0  0  0  0
   13.6034  -18.1106   19.8807 C   0  0  0  0  0  0  0  0  0  0  0  0
   14.7293  -17.1676   19.5920 C   0  0  0  0  0  0  0  0  0  0  0  0
   14.4846  -15.9926   19.2529 O   0  0  0  0  0  0  0  0  0  0  0  0
   10.4549  -17.5230   21.8878 C   0  0  0  0  0  0  0  0  0  0  0  0
    9.2881  -17.1268   21.5312 O   0  0  0  0  0  0  0  0  0  0  0  0
   16.0197  -17.6275   19.7132 O   0  0  0  0  0  0  0  0  0  0  0  0
    8.1259  -18.2806   23.0659 C   0  0  0  0  0  0  0  0  0  0  0  0
    8.7865  -17.9543   24.3806 C   0  0  1  0  0  0  0  0  0  0  0  0
    9.4650  -19.1467   24.7452 O   0  0  0  0  0  0  0  0  0  0  0  0
    9.8083  -16.8614   24.2637 C   0  0  2  0  0  0  0  0  0  0  0  0
   10.7551  -17.3378   23.2473 N   0  0  0  0  0  0  0  0  0  0  0  0
   10.4858  -16.5013   25.4980 C   0  0  0  0  0  0  0  0  0  0  0  0
   11.7004  -16.9199   25.6259 O   0  0  0  0  0  0  0  0  0  0  0  0
   10.5754  -12.9851   27.1712 C   0  0  0  0  0  0  0  0  0  0  0  0
   10.2399  -13.9889   28.2529 C   0  0  1  0  0  0  0  0  0  0  0  0
    8.7572  -13.9809   28.4791 C   0  0  0  0  0  0  0  0  0  0  0  0
   10.7235  -15.3254   27.7478 C   0  0  2  0  0  0  0  0  0  0  0  0
    9.9927  -15.7547   26.5743 N   0  0  0  0  0  0  0  0  0  0  0  0
   10.5355  -16.3860   28.7974 C   0  0  0  0  0  0  0  0  0  0  0  0
    9.6231  -17.3874   28.5787 O   0  0  0  0  0  0  0  0  0  0  0  0
   11.1908  -16.3759   29.8611 O   0  0  0  0  0  0  0  0  0  0  0  0
  2  1  1  6
  3  2  1  0
  4  3  1  0
  4  5  1  0
  5  6  2  0
  7  2  1  0
  7  8  2  0
  9  5  1  0
 11 10  1  6
 11 12  1  0
 11 13  1  0
 13 14  1  6
 14  7  1  0
 15 21  1  0
 15 13  1  0
 16 15  2  0
 18 17  1  6
 18 20  1  0
 19 18  1  0
 20 21  1  6
 20 22  1  0
 22 23  1  0
 24 22  2  0
M  END
$$$$
