ETV.pdb
     RDKit          3D

 24 23  0  0  1  0  0  0  0  0999 V2000
    8.7318  -18.5686   19.3961 N   0  0  0  0  0  0  0  0  0  0  0  0
    9.3710  -18.1356   20.6540 C   0  0  1  0  0  0  0  0  0  0  0  0
   10.5358  -17.3056   20.2492 C   0  0  0  0  0  0  0  0  0  0  0  0
   11.7177  -18.1732   19.9063 C   0  0  0  0  0  0  0  0  0  0  0  0
   12.8161  -17.2362   19.5113 C   0  0  0  0  0  0  0  0  0  0  0  0
   13.9461  -17.3506   20.0266 O   0  0  0  0  0  0  0  0  0  0  0  0
    8.3512  -17.4639   21.4691 C   0  0  0  0  0  0  0  0  0  0  0  0
    7.3529  -16.8919   20.9018 O   0  0  0  0  0  0  0  0  0  0  0  0
   12.5468  -16.2643   18.5764 O   0  0  0  0  0  0  0  0  0  0  0  0
    7.1925  -18.4726   25.3740 C   0  0  0  0  0  0  0  0  0  0  0  0
    6.5073  -17.6808   24.2901 C   0  0  1  0  0  0  0  0  0  0  0  0
    5.4425  -17.0154   24.9526 O   0  0  0  0  0  0  0  0  0  0  0  0
    7.3957  -16.6348   23.6827 C   0  0  2  0  0  0  0  0  0  0  0  0
    8.3620  -17.3859   22.8713 N   0  0  0  0  0  0  0  0  0  0  0  0
    8.0615  -15.7524   24.6262 C   0  0  0  0  0  0  0  0  0  0  0  0
    9.2685  -16.0729   24.9538 O   0  0  0  0  0  0  0  0  0  0  0  0
    7.9331  -11.7713   24.9126 C   0  0  0  0  0  0  0  0  0  0  0  0
    7.6582  -12.3775   26.2717 C   0  0  1  0  0  0  0  0  0  0  0  0
    6.1775  -12.3808   26.5110 C   0  0  0  0  0  0  0  0  0  0  0  0
    8.2230  -13.7755   26.2282 C   0  0  2  0  0  0  0  0  0  0  0  0
    7.5644  -14.5921   25.2307 N   0  0  0  0  0  0  0  0  0  0  0  0
    8.0369  -14.4616   27.5535 C   0  0  0  0  0  0  0  0  0  0  0  0
    8.7437  -14.0150   28.6416 O   0  0  0  0  0  0  0  0  0  0  0  0
    7.2544  -15.4266   27.6854 O   0  0  0  0  0  0  0  0  0  0  0  0
  2  1  1  6
  3  2  1  0
  4  3  1  0
  4  5  1  0
  5  6  2  0
  7  2  1  0
  7  8  2  0
  9  5  1  0
 11 10  1  1
 11 12  1  0
 11 13  1  0
 13 14  1  1
 14  7  1  0
 15 21  1  0
 15 13  1  0
 16 15  2  0
 18 17  1  6
 18 20  1  0
 19 18  1  0
 20 21  1  6
 20 22  1  0
 22 23  1  0
 24 22  2  0
M  END
$$$$
