HTG.pdb
     RDKit          3D

 22 22  0  0  1  0  0  0  0  0999 V2000
   23.7694  -20.9851  -15.9627 N   0  0  0  0  0  0  0  0  0  0  0  0
   23.5422  -20.4477  -14.6382 C   0  0  1  0  0  0  0  0  0  0  0  0
   22.0955  -20.5997  -14.2171 C   0  0  0  0  0  0  0  0  0  0  0  0
   21.1930  -19.7593  -15.0276 C   0  0  0  0  0  0  0  0  0  0  0  0
   20.1812  -20.2564  -15.8070 C   0  0  0  0  0  0  0  0  0  0  0  0
   19.5794  -19.2031  -16.3916 N   0  0  0  0  0  0  0  0  0  0  0  0
   20.1707  -18.0654  -16.0121 C   0  0  0  0  0  0  0  0  0  0  0  0
   21.1611  -18.4238  -15.1733 N   0  0  0  0  0  0  0  0  0  0  0  0
   24.4505  -21.1333  -13.7003 C   0  0  0  0  0  0  0  0  0  0  0  0
   24.6847  -22.3530  -13.8498 O   0  0  0  0  0  0  0  0  0  0  0  0
   27.7246  -21.2789  -13.6482 C   0  0  0  0  0  0  0  0  0  0  0  0
   27.4568  -20.6201  -12.3173 C   0  0  1  0  0  0  0  0  0  0  0  0
   27.6103  -19.2443  -12.3584 O   0  0  0  0  0  0  0  0  0  0  0  0
   26.0847  -20.9588  -11.7771 C   0  0  2  0  0  0  0  0  0  0  0  0
   25.0435  -20.3995  -12.6448 N   0  0  0  0  0  0  0  0  0  0  0  0
   25.8866  -20.4811  -10.3803 C   0  0  0  0  0  0  0  0  0  0  0  0
   25.2395  -19.3992  -10.1528 O   0  0  0  0  0  0  0  0  0  0  0  0
   26.3680  -21.1417   -9.2255 N   0  0  0  0  0  0  0  0  0  0  0  0
   26.1769  -20.5659   -7.8833 C   0  0  0  0  0  0  0  0  0  0  0  0
   27.4371  -20.1361   -7.2908 C   0  0  0  0  0  0  0  0  0  0  0  0
   27.4591  -19.5471   -6.0461 O   0  0  0  0  0  0  0  0  0  0  0  0
   28.5108  -20.2975   -7.9061 O   0  0  0  0  0  0  0  0  0  0  0  0
  2  1  1  6
  2  9  1  0
  3  2  1  0
  3  4  1  0
  4  5  2  0
  5  6  1  0
  7  6  1  0
  8  4  1  0
  8  7  2  0
  9 10  2  0
 12 11  1  6
 12 13  1  0
 12 14  1  0
 14 16  1  0
 14 15  1  6
 15  9  1  0
 16 17  2  0
 16 18  1  0
 18 19  1  0
 19 20  1  0
 20 22  2  0
 20 21  1  0
M  END
$$$$
