HTG.pdb
     RDKit          3D

 22 22  0  0  1  0  0  0  0  0999 V2000
   23.5082  -13.0179  -17.4018 N   0  0  0  0  0  0  0  0  0  0  0  0
   23.9372  -12.1190  -16.3517 C   0  0  1  0  0  0  0  0  0  0  0  0
   25.4451  -11.9833  -16.3174 C   0  0  0  0  0  0  0  0  0  0  0  0
   26.1161  -13.2950  -16.2333 C   0  0  0  0  0  0  0  0  0  0  0  0
   26.1624  -14.0577  -15.0955 C   0  0  0  0  0  0  0  0  0  0  0  0
   26.8516  -15.1746  -15.3969 N   0  0  0  0  0  0  0  0  0  0  0  0
   27.2400  -15.1454  -16.6761 C   0  0  0  0  0  0  0  0  0  0  0  0
   26.7803  -13.9834  -17.1771 N   0  0  0  0  0  0  0  0  0  0  0  0
   23.2842  -10.8143  -16.5662 C   0  0  0  0  0  0  0  0  0  0  0  0
   23.3876  -10.2488  -17.6773 O   0  0  0  0  0  0  0  0  0  0  0  0
   19.8014  -10.2734  -16.6881 C   0  0  0  0  0  0  0  0  0  0  0  0
   20.2621   -9.3618  -15.5774 C   0  0  1  0  0  0  0  0  0  0  0  0
   20.0040   -9.8768  -14.3179 O   0  0  0  0  0  0  0  0  0  0  0  0
   21.7315   -9.0192  -15.6908 C   0  0  2  0  0  0  0  0  0  0  0  0
   22.5503  -10.2220  -15.5104 N   0  0  0  0  0  0  0  0  0  0  0  0
   22.1512   -7.9734  -14.7169 C   0  0  0  0  0  0  0  0  0  0  0  0
   22.8535   -8.2882  -13.6929 O   0  0  0  0  0  0  0  0  0  0  0  0
   21.8331   -6.5988  -14.8216 N   0  0  0  0  0  0  0  0  0  0  0  0
   22.2621   -5.6371  -13.7917 C   0  0  0  0  0  0  0  0  0  0  0  0
   21.8292   -4.2800  -14.0998 C   0  0  0  0  0  0  0  0  0  0  0  0
   22.0432   -3.2576  -13.2022 O   0  0  0  0  0  0  0  0  0  0  0  0
   21.2594   -4.0301  -15.1816 O   0  0  0  0  0  0  0  0  0  0  0  0
  2  1  1  6
  2  9  1  0
  3  2  1  0
  3  4  1  0
  4  5  2  0
  5  6  1  0
  7  6  1  0
  8  4  1  0
  8  7  2  0
  9 10  2  0
 12 11  1  6
 12 13  1  0
 12 14  1  0
 14 16  1  0
 14 15  1  1
 15  9  1  0
 16 17  2  0
 16 18  1  0
 18 19  1  0
 19 20  1  0
 20 22  2  0
 20 21  1  0
M  END
$$$$
