HTG.pdb
     RDKit          3D

 22 22  0  0  1  0  0  0  0  0999 V2000
   25.3994  -21.1939   -8.6985 N   0  0  0  0  0  0  0  0  0  0  0  0
   24.7086  -20.8639   -9.9267 C   0  0  1  0  0  0  0  0  0  0  0  0
   23.4248  -20.1074   -9.6567 C   0  0  0  0  0  0  0  0  0  0  0  0
   22.4968  -20.8791   -8.8075 C   0  0  0  0  0  0  0  0  0  0  0  0
   22.0559  -22.1413   -9.1091 C   0  0  0  0  0  0  0  0  0  0  0  0
   21.2320  -22.5198   -8.1136 N   0  0  0  0  0  0  0  0  0  0  0  0
   21.1369  -21.5486   -7.1995 C   0  0  0  0  0  0  0  0  0  0  0  0
   21.9203  -20.5462   -7.6402 N   0  0  0  0  0  0  0  0  0  0  0  0
   25.6258  -20.0814  -10.7759 C   0  0  0  0  0  0  0  0  0  0  0  0
   26.2058  -19.0814  -10.2980 O   0  0  0  0  0  0  0  0  0  0  0  0
   28.8072  -20.8695  -12.1476 C   0  0  0  0  0  0  0  0  0  0  0  0
   27.9410  -20.6114  -13.3558 C   0  0  1  0  0  0  0  0  0  0  0  0
   27.5226  -21.7771  -13.9758 O   0  0  0  0  0  0  0  0  0  0  0  0
   26.7376  -19.7561  -13.0249 C   0  0  2  0  0  0  0  0  0  0  0  0
   25.8355  -20.4748  -12.1196 N   0  0  0  0  0  0  0  0  0  0  0  0
   25.9923  -19.3236  -14.2398 C   0  0  0  0  0  0  0  0  0  0  0  0
   24.9398  -19.9526  -14.6106 O   0  0  0  0  0  0  0  0  0  0  0  0
   26.3541  -18.2304  -15.0619 N   0  0  0  0  0  0  0  0  0  0  0  0
   25.5575  -17.8734  -16.2484 C   0  0  0  0  0  0  0  0  0  0  0  0
   26.3814  -17.2995  -17.3047 C   0  0  0  0  0  0  0  0  0  0  0  0
   26.3247  -15.9514  -17.5805 O   0  0  0  0  0  0  0  0  0  0  0  0
   27.1478  -18.0247  -17.9712 O   0  0  0  0  0  0  0  0  0  0  0  0
  2  1  1  1
  2  9  1  0
  3  2  1  0
  3  4  1  0
  4  5  2  0
  5  6  1  0
  7  6  1  0
  8  4  1  0
  8  7  2  0
  9 10  2  0
 12 11  1  1
 12 13  1  0
 12 14  1  0
 14 16  1  0
 14 15  1  1
 15  9  1  0
 16 17  2  0
 16 18  1  0
 18 19  1  0
 19 20  1  0
 20 22  2  0
 20 21  1  0
M  END
$$$$
