HTG.pdb
     RDKit          3D

 22 22  0  0  1  0  0  0  0  0999 V2000
   22.3336  -16.4224  -15.5955 N   0  0  0  0  0  0  0  0  0  0  0  0
   22.5871  -15.3074  -16.4828 C   0  0  1  0  0  0  0  0  0  0  0  0
   21.3994  -15.0299  -17.3805 C   0  0  0  0  0  0  0  0  0  0  0  0
   21.0353  -16.2061  -18.1942 C   0  0  0  0  0  0  0  0  0  0  0  0
   21.7334  -17.3854  -18.1872 C   0  0  0  0  0  0  0  0  0  0  0  0
   21.1117  -18.2171  -19.0445 N   0  0  0  0  0  0  0  0  0  0  0  0
   20.0525  -17.6098  -19.5896 C   0  0  0  0  0  0  0  0  0  0  0  0
   20.0186  -16.3737  -19.0568 N   0  0  0  0  0  0  0  0  0  0  0  0
   22.9261  -14.1313  -15.6602 C   0  0  0  0  0  0  0  0  0  0  0  0
   22.5648  -14.0917  -14.4632 O   0  0  0  0  0  0  0  0  0  0  0  0
   25.9971  -10.3927  -14.9064 C   0  0  0  0  0  0  0  0  0  0  0  0
   25.5495  -11.6569  -15.5982 C   0  0  1  0  0  0  0  0  0  0  0  0
   26.2178  -12.7824  -15.1457 O   0  0  0  0  0  0  0  0  0  0  0  0
   24.0570  -11.8754  -15.4813 C   0  0  2  0  0  0  0  0  0  0  0  0
   23.6556  -13.0649  -16.2389 N   0  0  0  0  0  0  0  0  0  0  0  0
   23.2693  -10.6972  -15.9391 C   0  0  0  0  0  0  0  0  0  0  0  0
   23.2233  -10.3940  -17.1829 O   0  0  0  0  0  0  0  0  0  0  0  0
   22.5307   -9.8405  -15.0892 N   0  0  0  0  0  0  0  0  0  0  0  0
   21.7931   -8.6846  -15.6274 C   0  0  0  0  0  0  0  0  0  0  0  0
   21.7621   -7.5723  -14.6862 C   0  0  0  0  0  0  0  0  0  0  0  0
   21.1755   -6.3766  -15.0366 O   0  0  0  0  0  0  0  0  0  0  0  0
   22.2676   -7.6921  -13.5515 O   0  0  0  0  0  0  0  0  0  0  0  0
  2  1  1  1
  2  9  1  0
  3  2  1  0
  3  4  1  0
  4  5  2  0
  5  6  1  0
  7  6  1  0
  8  4  1  0
  8  7  2  0
  9 10  2  0
 12 11  1  1
 12 13  1  0
 12 14  1  0
 14 16  1  0
 14 15  1  6
 15  9  1  0
 16 17  2  0
 16 18  1  0
 18 19  1  0
 19 20  1  0
 20 22  2  0
 20 21  1  0
M  END
$$$$
