HTG.pdb
     RDKit          3D

 22 22  0  0  1  0  0  0  0  0999 V2000
   18.8877  -13.2582  -15.8931 N   0  0  0  0  0  0  0  0  0  0  0  0
   18.7456  -11.9396  -16.4727 C   0  0  1  0  0  0  0  0  0  0  0  0
   17.5236  -11.2246  -15.9353 C   0  0  0  0  0  0  0  0  0  0  0  0
   16.2805  -11.9694  -16.2143 C   0  0  0  0  0  0  0  0  0  0  0  0
   15.7500  -12.1278  -17.4680 C   0  0  0  0  0  0  0  0  0  0  0  0
   14.6256  -12.8560  -17.3316 N   0  0  0  0  0  0  0  0  0  0  0  0
   14.4276  -13.1618  -16.0450 C   0  0  0  0  0  0  0  0  0  0  0  0
   15.4536  -12.6095  -15.3703 N   0  0  0  0  0  0  0  0  0  0  0  0
   19.9787  -11.1793  -16.1967 C   0  0  0  0  0  0  0  0  0  0  0  0
   20.4876  -11.2241  -15.0548 O   0  0  0  0  0  0  0  0  0  0  0  0
   23.8944   -8.8432  -18.1661 C   0  0  0  0  0  0  0  0  0  0  0  0
   22.6431   -9.6767  -18.2938 C   0  0  1  0  0  0  0  0  0  0  0  0
   22.9071  -10.9938  -18.6312 O   0  0  0  0  0  0  0  0  0  0  0  0
   21.7985   -9.6370  -17.0391 C   0  0  2  0  0  0  0  0  0  0  0  0
   20.5673  -10.4103  -17.2293 N   0  0  0  0  0  0  0  0  0  0  0  0
   21.4614   -8.2479  -16.6208 C   0  0  0  0  0  0  0  0  0  0  0  0
   20.5721   -7.5794  -17.2558 O   0  0  0  0  0  0  0  0  0  0  0  0
   22.0586   -7.5645  -15.5355 N   0  0  0  0  0  0  0  0  0  0  0  0
   21.6656   -6.1865  -15.1940 C   0  0  0  0  0  0  0  0  0  0  0  0
   20.8004   -6.1417  -14.0221 C   0  0  0  0  0  0  0  0  0  0  0  0
   20.4141   -4.9340  -13.4847 O   0  0  0  0  0  0  0  0  0  0  0  0
   20.4002   -7.1986  -13.4928 O   0  0  0  0  0  0  0  0  0  0  0  0
  2  1  1  1
  2  9  1  0
  3  2  1  0
  3  4  1  0
  4  5  2  0
  5  6  1  0
  7  6  1  0
  8  4  1  0
  8  7  2  0
  9 10  2  0
 12 11  1  1
 12 13  1  0
 12 14  1  0
 14 16  1  0
 14 15  1  6
 15  9  1  0
 16 17  2  0
 16 18  1  0
 18 19  1  0
 19 20  1  0
 20 22  2  0
 20 21  1  0
M  END
$$$$
