HTG.pdb
     RDKit          3D

 22 22  0  0  1  0  0  0  0  0999 V2000
   19.5828  -13.1870  -16.3755 N   0  0  0  0  0  0  0  0  0  0  0  0
   19.0377  -11.8489  -16.2909 C   0  0  1  0  0  0  0  0  0  0  0  0
   18.0405  -11.7252  -15.1579 C   0  0  0  0  0  0  0  0  0  0  0  0
   16.8661  -12.5963  -15.3580 C   0  0  0  0  0  0  0  0  0  0  0  0
   15.6749  -12.1643  -15.8800 C   0  0  0  0  0  0  0  0  0  0  0  0
   14.8491  -13.2274  -15.9114 N   0  0  0  0  0  0  0  0  0  0  0  0
   15.4715  -14.3089  -15.4310 C   0  0  0  0  0  0  0  0  0  0  0  0
   16.7111  -13.9049  -15.0948 N   0  0  0  0  0  0  0  0  0  0  0  0
   20.1580  -10.9040  -16.1273 C   0  0  0  0  0  0  0  0  0  0  0  0
   21.1140  -11.2055  -15.3789 O   0  0  0  0  0  0  0  0  0  0  0  0
   22.7989   -7.2444  -18.0119 C   0  0  0  0  0  0  0  0  0  0  0  0
   21.6926   -8.2683  -18.0794 C   0  0  1  0  0  0  0  0  0  0  0  0
   22.0495   -9.3985  -18.7959 O   0  0  0  0  0  0  0  0  0  0  0  0
   21.2046   -8.6748  -16.7062 C   0  0  2  0  0  0  0  0  0  0  0  0
   20.1337   -9.6698  -16.8203 N   0  0  0  0  0  0  0  0  0  0  0  0
   20.7305   -7.5146  -15.9015 C   0  0  0  0  0  0  0  0  0  0  0  0
   19.5144   -7.1217  -15.9879 O   0  0  0  0  0  0  0  0  0  0  0  0
   21.5351   -6.7704  -15.0068 N   0  0  0  0  0  0  0  0  0  0  0  0
   20.9612   -5.6931  -14.1823 C   0  0  0  0  0  0  0  0  0  0  0  0
   21.9847   -4.9804  -13.4284 C   0  0  0  0  0  0  0  0  0  0  0  0
   21.6668   -3.8407  -12.7236 O   0  0  0  0  0  0  0  0  0  0  0  0
   23.1613   -5.3960  -13.4136 O   0  0  0  0  0  0  0  0  0  0  0  0
  2  1  1  1
  2  9  1  0
  3  2  1  0
  3  4  1  0
  4  5  2  0
  5  6  1  0
  7  6  1  0
  8  4  1  0
  8  7  2  0
  9 10  2  0
 12 11  1  1
 12 13  1  0
 12 14  1  0
 14 16  1  0
 14 15  1  6
 15  9  1  0
 16 17  2  0
 16 18  1  0
 18 19  1  0
 19 20  1  0
 20 22  2  0
 20 21  1  0
M  END
$$$$
