HTG.pdb
     RDKit          3D

 22 22  0  0  1  0  0  0  0  0999 V2000
   25.4635  -20.6890   -8.6159 N   0  0  0  0  0  0  0  0  0  0  0  0
   24.6525  -20.8588   -9.8026 C   0  0  1  0  0  0  0  0  0  0  0  0
   23.2572  -20.3037   -9.6066 C   0  0  0  0  0  0  0  0  0  0  0  0
   22.5019  -21.0554   -8.5857 C   0  0  0  0  0  0  0  0  0  0  0  0
   23.0226  -22.0976   -7.8638 C   0  0  0  0  0  0  0  0  0  0  0  0
   22.0507  -22.5304   -7.0384 N   0  0  0  0  0  0  0  0  0  0  0  0
   20.9415  -21.8040   -7.2115 C   0  0  0  0  0  0  0  0  0  0  0  0
   21.2346  -20.9009   -8.1662 N   0  0  0  0  0  0  0  0  0  0  0  0
   25.3400  -20.2007  -10.9291 C   0  0  0  0  0  0  0  0  0  0  0  0
   25.9957  -19.1552  -10.7248 O   0  0  0  0  0  0  0  0  0  0  0  0
   28.0729  -21.2994  -12.8499 C   0  0  0  0  0  0  0  0  0  0  0  0
   27.0069  -21.0741  -13.8938 C   0  0  1  0  0  0  0  0  0  0  0  0
   26.4604  -22.2554  -14.3673 O   0  0  0  0  0  0  0  0  0  0  0  0
   25.9004  -20.1703  -13.3959 C   0  0  2  0  0  0  0  0  0  0  0  0
   25.2468  -20.7633  -12.2249 N   0  0  0  0  0  0  0  0  0  0  0  0
   24.8848  -19.8785  -14.4456 C   0  0  0  0  0  0  0  0  0  0  0  0
   23.6687  -20.2497  -14.2895 O   0  0  0  0  0  0  0  0  0  0  0  0
   25.1490  -19.1964  -15.6567 N   0  0  0  0  0  0  0  0  0  0  0  0
   24.0666  -18.8794  -16.6040 C   0  0  0  0  0  0  0  0  0  0  0  0
   24.5599  -18.1674  -17.7760 C   0  0  0  0  0  0  0  0  0  0  0  0
   23.7032  -17.8284  -18.7996 O   0  0  0  0  0  0  0  0  0  0  0  0
   25.7656  -17.8572  -17.8643 O   0  0  0  0  0  0  0  0  0  0  0  0
  2  1  1  1
  2  9  1  0
  3  2  1  0
  3  4  1  0
  4  5  2  0
  5  6  1  0
  7  6  1  0
  8  4  1  0
  8  7  2  0
  9 10  2  0
 12 11  1  1
 12 13  1  0
 12 14  1  0
 14 16  1  0
 14 15  1  1
 15  9  1  0
 16 17  2  0
 16 18  1  0
 18 19  1  0
 19 20  1  0
 20 22  2  0
 20 21  1  0
M  END
$$$$
