HTG.pdb
     RDKit          3D

 22 22  0  0  1  0  0  0  0  0999 V2000
   22.3453  -13.1551  -17.5566 N   0  0  0  0  0  0  0  0  0  0  0  0
   23.1072  -12.2372  -16.7369 C   0  0  1  0  0  0  0  0  0  0  0  0
   24.5974  -12.4225  -16.9326 C   0  0  0  0  0  0  0  0  0  0  0  0
   25.0354  -13.7872  -16.5808 C   0  0  0  0  0  0  0  0  0  0  0  0
   25.3365  -14.1875  -15.3051 C   0  0  0  0  0  0  0  0  0  0  0  0
   25.6935  -15.4841  -15.3723 N   0  0  0  0  0  0  0  0  0  0  0  0
   25.6292  -15.9150  -16.6365 C   0  0  0  0  0  0  0  0  0  0  0  0
   25.2230  -14.8600  -17.3679 N   0  0  0  0  0  0  0  0  0  0  0  0
   22.6874  -10.8635  -17.0707 C   0  0  0  0  0  0  0  0  0  0  0  0
   22.8462  -10.4366  -18.2358 O   0  0  0  0  0  0  0  0  0  0  0  0
   19.4983   -9.7439  -17.4545 C   0  0  0  0  0  0  0  0  0  0  0  0
   20.0057   -8.8395  -16.3583 C   0  0  1  0  0  0  0  0  0  0  0  0
   19.5625   -9.2175  -15.1018 O   0  0  0  0  0  0  0  0  0  0  0  0
   21.5154   -8.7399  -16.3517 C   0  0  2  0  0  0  0  0  0  0  0  0
   22.1109  -10.0491  -16.0664 N   0  0  0  0  0  0  0  0  0  0  0  0
   22.0176   -7.7344  -15.3745 C   0  0  0  0  0  0  0  0  0  0  0  0
   22.2044   -8.0604  -14.1498 O   0  0  0  0  0  0  0  0  0  0  0  0
   22.3235   -6.3887  -15.6863 N   0  0  0  0  0  0  0  0  0  0  0  0
   22.9108   -5.4881  -14.6794 C   0  0  0  0  0  0  0  0  0  0  0  0
   21.8901   -4.8530  -13.8555 C   0  0  0  0  0  0  0  0  0  0  0  0
   22.2457   -3.9738  -12.8569 O   0  0  0  0  0  0  0  0  0  0  0  0
   20.6818   -5.0997  -14.0467 O   0  0  0  0  0  0  0  0  0  0  0  0
  2  1  1  6
  2  9  1  0
  3  2  1  0
  3  4  1  0
  4  5  2  0
  5  6  1  0
  7  6  1  0
  8  4  1  0
  8  7  2  0
  9 10  2  0
 12 11  1  6
 12 13  1  0
 12 14  1  0
 14 16  1  0
 14 15  1  1
 15  9  1  0
 16 17  2  0
 16 18  1  0
 18 19  1  0
 19 20  1  0
 20 22  2  0
 20 21  1  0
M  END
$$$$
