HTG.pdb
     RDKit          3D

 22 22  0  0  1  0  0  0  0  0999 V2000
   17.1206  -22.0702    6.8746 N   0  0  0  0  0  0  0  0  0  0  0  0
   18.1639  -22.8921    7.4499 C   0  0  1  0  0  0  0  0  0  0  0  0
   19.0756  -23.4610    6.3828 C   0  0  0  0  0  0  0  0  0  0  0  0
   18.3424  -24.3126    5.4263 C   0  0  0  0  0  0  0  0  0  0  0  0
   17.8385  -25.5492    5.7351 C   0  0  0  0  0  0  0  0  0  0  0  0
   17.2408  -26.0204    4.6243 N   0  0  0  0  0  0  0  0  0  0  0  0
   17.3480  -25.1318    3.6309 C   0  0  0  0  0  0  0  0  0  0  0  0
   18.0279  -24.0869    4.1394 N   0  0  0  0  0  0  0  0  0  0  0  0
   18.9153  -22.0724    8.4186 C   0  0  0  0  0  0  0  0  0  0  0  0
   19.1392  -20.8682    8.1640 O   0  0  0  0  0  0  0  0  0  0  0  0
   20.0034  -21.3531   13.1283 C   0  0  0  0  0  0  0  0  0  0  0  0
   19.3592  -22.1348   12.0099 C   0  0  1  0  0  0  0  0  0  0  0  0
   18.0028  -21.8818   11.8897 O   0  0  0  0  0  0  0  0  0  0  0  0
   20.0371  -21.8939   10.6790 C   0  0  2  0  0  0  0  0  0  0  0  0
   19.3716  -22.6619    9.6220 N   0  0  0  0  0  0  0  0  0  0  0  0
   21.4881  -22.2290   10.7077 C   0  0  0  0  0  0  0  0  0  0  0  0
   21.8827  -23.4168   10.4350 O   0  0  0  0  0  0  0  0  0  0  0  0
   22.5214  -21.3150   11.0218 N   0  0  0  0  0  0  0  0  0  0  0  0
   23.9385  -21.7051   10.9255 C   0  0  0  0  0  0  0  0  0  0  0  0
   24.3963  -22.3946   12.1251 C   0  0  0  0  0  0  0  0  0  0  0  0
   25.6685  -22.9181   12.1876 O   0  0  0  0  0  0  0  0  0  0  0  0
   23.6390  -22.5178   13.1094 O   0  0  0  0  0  0  0  0  0  0  0  0
  2  1  1  6
  2  9  1  0
  3  2  1  0
  3  4  1  0
  4  5  2  0
  5  6  1  0
  7  6  1  0
  8  4  1  0
  8  7  2  0
  9 10  2  0
 12 11  1  1
 12 13  1  0
 12 14  1  0
 14 16  1  0
 14 15  1  6
 15  9  1  0
 16 17  2  0
 16 18  1  0
 18 19  1  0
 19 20  1  0
 20 22  2  0
 20 21  1  0
M  END
$$$$
