NWW.pdb
     RDKit          3D

 37 40  0  0  1  0  0  0  0  0999 V2000
   10.9209  -18.8908   17.8949 N   0  0  0  0  0  0  0  0  0  0  0  0
    9.6933  -18.7957   17.1982 C   0  0  0  0  0  0  0  0  0  0  0  0
    9.6661  -18.7118   15.9526 O   0  0  0  0  0  0  0  0  0  0  0  0
    8.4292  -18.7933   17.9608 C   0  0  0  0  0  0  0  0  0  0  0  0
    8.8056  -18.8577   19.4305 C   0  0  2  0  0  0  0  0  0  0  0  0
    7.6028  -19.2242   20.1569 N   0  0  0  0  0  0  0  0  0  0  0  0
    9.2674  -17.5422   19.9306 C   0  0  0  0  0  0  0  0  0  0  0  0
   10.2960  -17.0052   19.4591 O   0  0  0  0  0  0  0  0  0  0  0  0
    8.4939  -16.9336   20.9547 N   0  0  0  0  0  0  0  0  0  0  0  0
    8.8199  -15.6541   21.5044 C   0  0  1  0  0  0  0  0  0  0  0  0
    7.5200  -14.8908   21.8341 C   0  0  0  0  0  0  0  0  0  0  0  0
    7.1103  -15.0324   23.2301 C   0  0  0  0  0  0  0  0  0  0  0  0
    6.5591  -16.2278   23.7136 C   0  0  0  0  0  0  0  0  0  0  0  0
    6.3267  -16.0523   25.0120 N   0  0  0  0  0  0  0  0  0  0  0  0
    6.6831  -14.8288   25.4226 C   0  0  0  0  0  0  0  0  0  0  0  0
    6.6360  -14.1809   26.6516 C   0  0  0  0  0  0  0  0  0  0  0  0
    7.0765  -12.9007   26.7582 C   0  0  0  0  0  0  0  0  0  0  0  0
    7.5712  -12.2162   25.6864 C   0  0  0  0  0  0  0  0  0  0  0  0
    7.6123  -12.8801   24.4601 C   0  0  0  0  0  0  0  0  0  0  0  0
    7.1814  -14.1765   24.2926 C   0  0  0  0  0  0  0  0  0  0  0  0
    9.7254  -15.5878   22.6152 C   0  0  0  0  0  0  0  0  0  0  0  0
    9.9427  -14.5756   23.3155 O   0  0  0  0  0  0  0  0  0  0  0  0
   10.4393  -16.7858   22.9578 N   0  0  0  0  0  0  0  0  0  0  0  0
   11.4810  -16.7544   23.9734 C   0  0  1  0  0  0  0  0  0  0  0  0
   11.2473  -15.5647   24.8903 C   0  0  0  0  0  0  0  0  0  0  0  0
   10.6492  -15.8893   26.1841 C   0  0  0  0  0  0  0  0  0  0  0  0
   10.0081  -17.1081   26.5017 C   0  0  0  0  0  0  0  0  0  0  0  0
    9.6041  -17.0810   27.7757 N   0  0  0  0  0  0  0  0  0  0  0  0
    9.9414  -15.8968   28.3400 C   0  0  0  0  0  0  0  0  0  0  0  0
    9.7345  -15.4034   29.6131 C   0  0  0  0  0  0  0  0  0  0  0  0
   10.1884  -14.1328   29.9040 C   0  0  0  0  0  0  0  0  0  0  0  0
   10.8292  -13.3684   28.9633 C   0  0  0  0  0  0  0  0  0  0  0  0
   11.0117  -13.9093   27.7016 C   0  0  0  0  0  0  0  0  0  0  0  0
   10.5886  -15.1634   27.3445 C   0  0  0  0  0  0  0  0  0  0  0  0
   11.6175  -18.0355   24.6336 C   0  0  0  0  0  0  0  0  0  0  0  0
   12.4948  -18.2106   25.5153 O   0  0  0  0  0  0  0  0  0  0  0  0
   10.8056  -19.1254   24.3468 O   0  0  0  0  0  0  0  0  0  0  0  0
  2  1  1  0
  3  2  2  0
  4  2  1  0
  5  6  1  1
  5  4  1  0
  7  5  1  0
  8  7  2  0
  9  7  1  0
 10  9  1  0
 10 11  1  1
 11 12  1  0
 12 13  2  0
 13 14  1  0
 15 16  2  0
 15 14  1  0
 17 16  1  0
 18 17  2  0
 19 18  1  0
 19 20  2  0
 20 12  1  0
 20 15  1  0
 21 23  1  0
 21 10  1  0
 22 21  2  0
 24 23  1  0
 24 25  1  1
 25 26  1  0
 26 27  2  0
 26 34  1  0
 27 28  1  0
 28 29  1  0
 29 30  2  0
 30 31  1  0
 32 31  2  0
 33 32  1  0
 34 33  2  0
 34 29  1  0
 35 37  1  0
 35 24  1  0
 36 35  2  0
M  END
$$$$
