NWW.pdb
     RDKit          3D

 37 40  0  0  1  0  0  0  0  0999 V2000
   13.0847  -17.1371   17.9262 N   0  0  0  0  0  0  0  0  0  0  0  0
   11.9287  -17.8767   18.2701 C   0  0  0  0  0  0  0  0  0  0  0  0
   11.8298  -19.0868   17.9781 O   0  0  0  0  0  0  0  0  0  0  0  0
   10.8255  -17.2018   18.9820 C   0  0  0  0  0  0  0  0  0  0  0  0
   11.0453  -17.4503   20.4638 C   0  0  2  0  0  0  0  0  0  0  0  0
   10.3126  -18.6579   20.8007 N   0  0  0  0  0  0  0  0  0  0  0  0
   10.5121  -16.3392   21.2853 C   0  0  0  0  0  0  0  0  0  0  0  0
   11.0151  -15.1944   21.2147 O   0  0  0  0  0  0  0  0  0  0  0  0
    9.4185  -16.6370   22.1414 N   0  0  0  0  0  0  0  0  0  0  0  0
    8.8151  -15.6528   22.9858 C   0  0  1  0  0  0  0  0  0  0  0  0
    7.3553  -15.4215   22.5424 C   0  0  0  0  0  0  0  0  0  0  0  0
    7.2393  -15.0065   21.1455 C   0  0  0  0  0  0  0  0  0  0  0  0
    6.6046  -15.8154   20.1918 C   0  0  0  0  0  0  0  0  0  0  0  0
    6.6312  -15.1519   19.0387 N   0  0  0  0  0  0  0  0  0  0  0  0
    7.2372  -13.9641   19.1595 C   0  0  0  0  0  0  0  0  0  0  0  0
    7.5119  -12.9352   18.2659 C   0  0  0  0  0  0  0  0  0  0  0  0
    8.1656  -11.8246   18.6940 C   0  0  0  0  0  0  0  0  0  0  0  0
    8.5695  -11.6792   19.9893 C   0  0  0  0  0  0  0  0  0  0  0  0
    8.2862  -12.7202   20.8740 C   0  0  0  0  0  0  0  0  0  0  0  0
    7.6261  -13.8677   20.4975 C   0  0  0  0  0  0  0  0  0  0  0  0
    8.8760  -15.8292   24.4082 C   0  0  0  0  0  0  0  0  0  0  0  0
    8.0949  -15.3153   25.2377 O   0  0  0  0  0  0  0  0  0  0  0  0
    9.9173  -16.6720   24.9253 N   0  0  0  0  0  0  0  0  0  0  0  0
   10.4582  -16.4380   26.2557 C   0  0  1  0  0  0  0  0  0  0  0  0
    9.3240  -16.4694   27.2674 C   0  0  0  0  0  0  0  0  0  0  0  0
    8.2058  -15.5758   26.9704 C   0  0  0  0  0  0  0  0  0  0  0  0
    6.9359  -15.9873   26.5066 C   0  0  0  0  0  0  0  0  0  0  0  0
    6.1442  -14.9192   26.3668 N   0  0  0  0  0  0  0  0  0  0  0  0
    6.8195  -13.7977   26.7145 C   0  0  0  0  0  0  0  0  0  0  0  0
    6.4349  -12.4715   26.7295 C   0  0  0  0  0  0  0  0  0  0  0  0
    7.3588  -11.5270   27.1292 C   0  0  0  0  0  0  0  0  0  0  0  0
    8.6291  -11.8815   27.5036 C   0  0  0  0  0  0  0  0  0  0  0  0
    8.9648  -13.2245   27.4710 C   0  0  0  0  0  0  0  0  0  0  0  0
    8.0982  -14.2149   27.0868 C   0  0  0  0  0  0  0  0  0  0  0  0
   11.5726  -17.3179   26.5381 C   0  0  0  0  0  0  0  0  0  0  0  0
   11.9147  -18.2017   25.7138 O   0  0  0  0  0  0  0  0  0  0  0  0
   12.3203  -17.2417   27.7062 O   0  0  0  0  0  0  0  0  0  0  0  0
  2  1  1  0
  3  2  2  0
  4  2  1  0
  5  6  1  1
  5  4  1  0
  7  5  1  0
  8  7  2  0
  9  7  1  0
 10  9  1  0
 10 11  1  6
 11 12  1  0
 12 13  2  0
 13 14  1  0
 15 16  2  0
 15 14  1  0
 17 16  1  0
 18 17  2  0
 19 18  1  0
 19 20  2  0
 20 12  1  0
 20 15  1  0
 21 23  1  0
 21 10  1  0
 22 21  2  0
 24 23  1  0
 24 25  1  1
 25 26  1  0
 26 27  2  0
 26 34  1  0
 27 28  1  0
 28 29  1  0
 29 30  2  0
 30 31  1  0
 32 31  2  0
 33 32  1  0
 34 33  2  0
 34 29  1  0
 35 37  1  0
 35 24  1  0
 36 35  2  0
M  END
$$$$
