NWW.pdb
     RDKit          3D

 37 40  0  0  1  0  0  0  0  0999 V2000
   11.6800  -17.9972   16.1984 N   0  0  0  0  0  0  0  0  0  0  0  0
   10.7621  -16.9725   15.8681 C   0  0  0  0  0  0  0  0  0  0  0  0
   10.5536  -16.6557   14.6783 O   0  0  0  0  0  0  0  0  0  0  0  0
   10.0453  -16.2694   16.9503 C   0  0  0  0  0  0  0  0  0  0  0  0
    9.9050  -17.2574   18.0949 C   0  0  2  0  0  0  0  0  0  0  0  0
    8.6707  -17.9886   17.8702 N   0  0  0  0  0  0  0  0  0  0  0  0
    9.8033  -16.5648   19.4002 C   0  0  0  0  0  0  0  0  0  0  0  0
   10.6621  -15.7202   19.7434 O   0  0  0  0  0  0  0  0  0  0  0  0
    8.6985  -16.9037   20.2260 N   0  0  0  0  0  0  0  0  0  0  0  0
    8.6278  -16.5290   21.6045 C   0  0  1  0  0  0  0  0  0  0  0  0
    7.2137  -16.8272   22.1456 C   0  0  0  0  0  0  0  0  0  0  0  0
    6.9337  -16.1607   23.4162 C   0  0  0  0  0  0  0  0  0  0  0  0
    6.6405  -16.8909   24.5769 C   0  0  0  0  0  0  0  0  0  0  0  0
    6.4709  -16.0094   25.5592 N   0  0  0  0  0  0  0  0  0  0  0  0
    6.6298  -14.7500   25.1333 C   0  0  0  0  0  0  0  0  0  0  0  0
    6.5525  -13.5115   25.7599 C   0  0  0  0  0  0  0  0  0  0  0  0
    6.7627  -12.3772   25.0435 C   0  0  0  0  0  0  0  0  0  0  0  0
    7.0514  -12.4088   23.7102 C   0  0  0  0  0  0  0  0  0  0  0  0
    7.1258  -13.6592   23.0958 C   0  0  0  0  0  0  0  0  0  0  0  0
    6.9237  -14.8414   23.7709 C   0  0  0  0  0  0  0  0  0  0  0  0
    9.6187  -17.0333   22.5111 C   0  0  0  0  0  0  0  0  0  0  0  0
   10.1675  -18.1539   22.4371 O   0  0  0  0  0  0  0  0  0  0  0  0
   10.0210  -16.1781   23.5923 N   0  0  0  0  0  0  0  0  0  0  0  0
   11.2285  -16.4711   24.3496 C   0  0  1  0  0  0  0  0  0  0  0  0
   11.3744  -15.4524   25.4684 C   0  0  0  0  0  0  0  0  0  0  0  0
   10.7525  -15.8325   26.7356 C   0  0  0  0  0  0  0  0  0  0  0  0
   10.7053  -17.1448   27.2579 C   0  0  0  0  0  0  0  0  0  0  0  0
   10.0905  -17.1309   28.4449 N   0  0  0  0  0  0  0  0  0  0  0  0
    9.7160  -15.8664   28.7539 C   0  0  0  0  0  0  0  0  0  0  0  0
    9.0536  -15.3562   29.8529 C   0  0  0  0  0  0  0  0  0  0  0  0
    8.7940  -14.0010   29.8892 C   0  0  0  0  0  0  0  0  0  0  0  0
    9.1771  -13.1709   28.8675 C   0  0  0  0  0  0  0  0  0  0  0  0
    9.8383  -13.7321   27.7880 C   0  0  0  0  0  0  0  0  0  0  0  0
   10.1301  -15.0677   27.6869 C   0  0  0  0  0  0  0  0  0  0  0  0
   11.2756  -17.8593   24.7577 C   0  0  0  0  0  0  0  0  0  0  0  0
   12.3256  -18.3480   25.2437 O   0  0  0  0  0  0  0  0  0  0  0  0
   10.1899  -18.7184   24.6461 O   0  0  0  0  0  0  0  0  0  0  0  0
  2  1  1  0
  3  2  2  0
  4  2  1  0
  5  6  1  6
  5  4  1  0
  7  5  1  0
  8  7  2  0
  9  7  1  0
 10  9  1  0
 10 11  1  1
 11 12  1  0
 12 13  2  0
 13 14  1  0
 15 16  2  0
 15 14  1  0
 17 16  1  0
 18 17  2  0
 19 18  1  0
 19 20  2  0
 20 12  1  0
 20 15  1  0
 21 23  1  0
 21 10  1  0
 22 21  2  0
 24 23  1  0
 24 25  1  1
 25 26  1  0
 26 27  2  0
 26 34  1  0
 27 28  1  0
 28 29  1  0
 29 30  2  0
 30 31  1  0
 32 31  2  0
 33 32  1  0
 34 33  2  0
 34 29  1  0
 35 37  1  0
 35 24  1  0
 36 35  2  0
M  END
$$$$
