NWW.pdb
     RDKit          3D

 37 40  0  0  1  0  0  0  0  0999 V2000
   12.4368  -17.3813   15.9621 N   0  0  0  0  0  0  0  0  0  0  0  0
   12.7768  -17.3179   17.3339 C   0  0  0  0  0  0  0  0  0  0  0  0
   13.8919  -17.7085   17.7382 O   0  0  0  0  0  0  0  0  0  0  0  0
   11.7939  -16.7834   18.2970 C   0  0  0  0  0  0  0  0  0  0  0  0
   11.9370  -17.6030   19.5673 C   0  0  2  0  0  0  0  0  0  0  0  0
   11.1317  -18.7983   19.3894 N   0  0  0  0  0  0  0  0  0  0  0  0
   11.4243  -16.8691   20.7472 C   0  0  0  0  0  0  0  0  0  0  0  0
   11.9789  -15.8149   21.1339 O   0  0  0  0  0  0  0  0  0  0  0  0
   10.2895  -17.4156   21.4039 N   0  0  0  0  0  0  0  0  0  0  0  0
    9.6655  -16.7734   22.5191 C   0  0  1  0  0  0  0  0  0  0  0  0
    8.1411  -17.0053   22.4580 C   0  0  0  0  0  0  0  0  0  0  0  0
    7.4669  -16.1351   21.4962 C   0  0  0  0  0  0  0  0  0  0  0  0
    6.3299  -16.5615   20.7947 C   0  0  0  0  0  0  0  0  0  0  0  0
    5.9367  -15.5428   20.0343 N   0  0  0  0  0  0  0  0  0  0  0  0
    6.7303  -14.4744   20.1808 C   0  0  0  0  0  0  0  0  0  0  0  0
    6.7378  -13.2040   19.6164 C   0  0  0  0  0  0  0  0  0  0  0  0
    7.7014  -12.3140   19.9676 C   0  0  0  0  0  0  0  0  0  0  0  0
    8.6782  -12.6258   20.8680 C   0  0  0  0  0  0  0  0  0  0  0  0
    8.6570  -13.9044   21.4258 C   0  0  0  0  0  0  0  0  0  0  0  0
    7.7051  -14.8468   21.1091 C   0  0  0  0  0  0  0  0  0  0  0  0
   10.1533  -17.0498   23.8396 C   0  0  0  0  0  0  0  0  0  0  0  0
   10.8355  -18.0442   24.1684 O   0  0  0  0  0  0  0  0  0  0  0  0
    9.8383  -16.1025   24.8719 N   0  0  0  0  0  0  0  0  0  0  0  0
   10.1553  -16.3981   26.2610 C   0  0  1  0  0  0  0  0  0  0  0  0
    9.7207  -15.2296   27.1308 C   0  0  0  0  0  0  0  0  0  0  0  0
    8.4267  -14.6463   26.7811 C   0  0  0  0  0  0  0  0  0  0  0  0
    7.2563  -15.3807   26.4842 C   0  0  0  0  0  0  0  0  0  0  0  0
    6.2500  -14.5360   26.2373 N   0  0  0  0  0  0  0  0  0  0  0  0
    6.6837  -13.2580   26.3525 C   0  0  0  0  0  0  0  0  0  0  0  0
    6.0259  -12.0552   26.1868 C   0  0  0  0  0  0  0  0  0  0  0  0
    6.7422  -10.8883   26.3623 C   0  0  0  0  0  0  0  0  0  0  0  0
    8.0728  -10.9076   26.6919 C   0  0  0  0  0  0  0  0  0  0  0  0
    8.6858  -12.1396   26.8464 C   0  0  0  0  0  0  0  0  0  0  0  0
    8.0359  -13.3363   26.6891 C   0  0  0  0  0  0  0  0  0  0  0  0
    9.6482  -17.6950   26.6569 C   0  0  0  0  0  0  0  0  0  0  0  0
    8.6777  -18.2144   26.0519 O   0  0  0  0  0  0  0  0  0  0  0  0
   10.1901  -18.4331   27.7013 O   0  0  0  0  0  0  0  0  0  0  0  0
  2  1  1  0
  3  2  2  0
  4  2  1  0
  5  6  1  6
  5  4  1  0
  7  5  1  0
  8  7  2  0
  9  7  1  0
 10  9  1  0
 10 11  1  1
 11 12  1  0
 12 13  2  0
 13 14  1  0
 15 16  2  0
 15 14  1  0
 17 16  1  0
 18 17  2  0
 19 18  1  0
 19 20  2  0
 20 12  1  0
 20 15  1  0
 21 23  1  0
 21 10  1  0
 22 21  2  0
 24 23  1  0
 24 25  1  1
 25 26  1  0
 26 27  2  0
 26 34  1  0
 27 28  1  0
 28 29  1  0
 29 30  2  0
 30 31  1  0
 32 31  2  0
 33 32  1  0
 34 33  2  0
 34 29  1  0
 35 37  1  0
 35 24  1  0
 36 35  2  0
M  END
$$$$
