NWW.pdb
     RDKit          3D

 37 40  0  0  1  0  0  0  0  0999 V2000
   11.3084  -19.1782   17.3624 N   0  0  0  0  0  0  0  0  0  0  0  0
   11.8632  -18.3366   18.3550 C   0  0  0  0  0  0  0  0  0  0  0  0
   13.0772  -18.3949   18.6417 O   0  0  0  0  0  0  0  0  0  0  0  0
   10.9885  -17.3794   19.0608 C   0  0  0  0  0  0  0  0  0  0  0  0
   11.0521  -17.7353   20.5357 C   0  0  2  0  0  0  0  0  0  0  0  0
   10.0414  -18.7520   20.7667 N   0  0  0  0  0  0  0  0  0  0  0  0
   10.7387  -16.5665   21.3899 C   0  0  0  0  0  0  0  0  0  0  0  0
   11.5226  -15.5916   21.4506 O   0  0  0  0  0  0  0  0  0  0  0  0
    9.5226  -16.6104   22.1225 N   0  0  0  0  0  0  0  0  0  0  0  0
    9.0497  -15.5008   22.8911 C   0  0  1  0  0  0  0  0  0  0  0  0
    7.5759  -15.2183   22.5316 C   0  0  0  0  0  0  0  0  0  0  0  0
    7.3743  -14.9488   21.1090 C   0  0  0  0  0  0  0  0  0  0  0  0
    6.6345  -15.8200   20.2965 C   0  0  0  0  0  0  0  0  0  0  0  0
    6.6043  -15.2853   19.0784 N   0  0  0  0  0  0  0  0  0  0  0  0
    7.2701  -14.1248   19.0255 C   0  0  0  0  0  0  0  0  0  0  0  0
    7.5227  -13.2127   18.0074 C   0  0  0  0  0  0  0  0  0  0  0  0
    8.2556  -12.0987   18.2643 C   0  0  0  0  0  0  0  0  0  0  0  0
    8.7613  -11.8377   19.5045 C   0  0  0  0  0  0  0  0  0  0  0  0
    8.4989  -12.7624   20.5158 C   0  0  0  0  0  0  0  0  0  0  0  0
    7.7619  -13.9072   20.3145 C   0  0  0  0  0  0  0  0  0  0  0  0
    9.2132  -15.5254   24.3162 C   0  0  0  0  0  0  0  0  0  0  0  0
    8.7409  -14.6891   25.1159 O   0  0  0  0  0  0  0  0  0  0  0  0
    9.9786  -16.6046   24.8746 N   0  0  0  0  0  0  0  0  0  0  0  0
   10.2014  -16.6801   26.3106 C   0  0  1  0  0  0  0  0  0  0  0  0
    8.8669  -16.8731   27.0125 C   0  0  0  0  0  0  0  0  0  0  0  0
    7.8424  -15.8866   26.6747 C   0  0  0  0  0  0  0  0  0  0  0  0
    6.6284  -16.1691   26.0087 C   0  0  0  0  0  0  0  0  0  0  0  0
    5.9141  -15.0457   25.8870 N   0  0  0  0  0  0  0  0  0  0  0  0
    6.5887  -14.0097   26.4405 C   0  0  0  0  0  0  0  0  0  0  0  0
    6.2688  -12.6710   26.5522 C   0  0  0  0  0  0  0  0  0  0  0  0
    7.1742  -11.8314   27.1692 C   0  0  0  0  0  0  0  0  0  0  0  0
    8.3644  -12.3000   27.6625 C   0  0  0  0  0  0  0  0  0  0  0  0
    8.6376  -13.6506   27.5252 C   0  0  0  0  0  0  0  0  0  0  0  0
    7.7847  -14.5409   26.9258 C   0  0  0  0  0  0  0  0  0  0  0  0
   11.2263  -17.6485   26.6386 C   0  0  0  0  0  0  0  0  0  0  0  0
   11.7230  -18.3812   25.7474 O   0  0  0  0  0  0  0  0  0  0  0  0
   11.7186  -17.8235   27.9256 O   0  0  0  0  0  0  0  0  0  0  0  0
  2  1  1  0
  3  2  2  0
  4  2  1  0
  5  6  1  6
  5  4  1  0
  7  5  1  0
  8  7  2  0
  9  7  1  0
 10  9  1  0
 10 11  1  1
 11 12  1  0
 12 13  2  0
 13 14  1  0
 15 16  2  0
 15 14  1  0
 17 16  1  0
 18 17  2  0
 19 18  1  0
 19 20  2  0
 20 12  1  0
 20 15  1  0
 21 23  1  0
 21 10  1  0
 22 21  2  0
 24 23  1  0
 24 25  1  1
 25 26  1  0
 26 27  2  0
 26 34  1  0
 27 28  1  0
 28 29  1  0
 29 30  2  0
 30 31  1  0
 32 31  2  0
 33 32  1  0
 34 33  2  0
 34 29  1  0
 35 37  1  0
 35 24  1  0
 36 35  2  0
M  END
$$$$
