NWW.pdb
     RDKit          3D

 37 40  0  0  1  0  0  0  0  0999 V2000
   14.4731  -17.7862   17.0097 N   0  0  0  0  0  0  0  0  0  0  0  0
   13.2426  -18.4537   17.2146 C   0  0  0  0  0  0  0  0  0  0  0  0
   12.9975  -19.5381   16.6459 O   0  0  0  0  0  0  0  0  0  0  0  0
   12.2368  -17.8531   18.1129 C   0  0  0  0  0  0  0  0  0  0  0  0
   12.5314  -18.3736   19.5086 C   0  0  2  0  0  0  0  0  0  0  0  0
   11.9545  -19.7037   19.5917 N   0  0  0  0  0  0  0  0  0  0  0  0
   11.9000  -17.5279   20.5477 C   0  0  0  0  0  0  0  0  0  0  0  0
   12.4374  -16.4572   20.9129 O   0  0  0  0  0  0  0  0  0  0  0  0
   10.6736  -17.9883   21.0969 N   0  0  0  0  0  0  0  0  0  0  0  0
    9.9570  -17.2559   22.0947 C   0  0  1  0  0  0  0  0  0  0  0  0
    8.4529  -17.5847   21.9915 C   0  0  0  0  0  0  0  0  0  0  0  0
    7.5937  -16.4545   22.3401 C   0  0  0  0  0  0  0  0  0  0  0  0
    6.6761  -16.5314   23.3978 C   0  0  0  0  0  0  0  0  0  0  0  0
    6.0792  -15.3451   23.4825 N   0  0  0  0  0  0  0  0  0  0  0  0
    6.5342  -14.4896   22.5584 C   0  0  0  0  0  0  0  0  0  0  0  0
    6.2306  -13.1699   22.2450 C   0  0  0  0  0  0  0  0  0  0  0  0
    6.8733  -12.5535   21.2197 C   0  0  0  0  0  0  0  0  0  0  0  0
    7.8209  -13.1922   20.4739 C   0  0  0  0  0  0  0  0  0  0  0  0
    8.1147  -14.5162   20.8010 C   0  0  0  0  0  0  0  0  0  0  0  0
    7.4971  -15.1911   21.8293 C   0  0  0  0  0  0  0  0  0  0  0  0
   10.3877  -17.3426   23.4604 C   0  0  0  0  0  0  0  0  0  0  0  0
   10.8723  -18.3573   24.0061 O   0  0  0  0  0  0  0  0  0  0  0  0
   10.2582  -16.1635   24.2699 N   0  0  0  0  0  0  0  0  0  0  0  0
   10.7330  -16.1617   25.6454 C   0  0  1  0  0  0  0  0  0  0  0  0
   10.3295  -14.8555   26.3101 C   0  0  0  0  0  0  0  0  0  0  0  0
    8.8946  -14.5762   26.3041 C   0  0  0  0  0  0  0  0  0  0  0  0
    7.8768  -15.5404   26.4817 C   0  0  0  0  0  0  0  0  0  0  0  0
    6.6828  -14.9402   26.4495 N   0  0  0  0  0  0  0  0  0  0  0  0
    6.8425  -13.6090   26.2571 C   0  0  0  0  0  0  0  0  0  0  0  0
    5.9192  -12.5880   26.1472 C   0  0  0  0  0  0  0  0  0  0  0  0
    6.3842  -11.3051   25.9390 C   0  0  0  0  0  0  0  0  0  0  0  0
    7.7251  -11.0365   25.8411 C   0  0  0  0  0  0  0  0  0  0  0  0
    8.6097  -12.0954   25.9583 C   0  0  0  0  0  0  0  0  0  0  0  0
    8.2183  -13.3925   26.1670 C   0  0  0  0  0  0  0  0  0  0  0  0
   10.3394  -17.3668   26.3445 C   0  0  0  0  0  0  0  0  0  0  0  0
   10.8255  -17.6415   27.4696 O   0  0  0  0  0  0  0  0  0  0  0  0
    9.4190  -18.2726   25.8328 O   0  0  0  0  0  0  0  0  0  0  0  0
  2  1  1  0
  3  2  2  0
  4  2  1  0
  5  6  1  6
  5  4  1  0
  7  5  1  0
  8  7  2  0
  9  7  1  0
 10  9  1  0
 10 11  1  1
 11 12  1  0
 12 13  2  0
 13 14  1  0
 15 16  2  0
 15 14  1  0
 17 16  1  0
 18 17  2  0
 19 18  1  0
 19 20  2  0
 20 12  1  0
 20 15  1  0
 21 23  1  0
 21 10  1  0
 22 21  2  0
 24 23  1  0
 24 25  1  1
 25 26  1  0
 26 27  2  0
 26 34  1  0
 27 28  1  0
 28 29  1  0
 29 30  2  0
 30 31  1  0
 32 31  2  0
 33 32  1  0
 34 33  2  0
 34 29  1  0
 35 37  1  0
 35 24  1  0
 36 35  2  0
M  END
$$$$
