NWW.pdb
     RDKit          3D

 37 40  0  0  1  0  0  0  0  0999 V2000
   11.4092  -20.1902   18.5717 N   0  0  0  0  0  0  0  0  0  0  0  0
   10.8144  -19.1130   17.8734 C   0  0  0  0  0  0  0  0  0  0  0  0
   10.7975  -19.0878   16.6250 O   0  0  0  0  0  0  0  0  0  0  0  0
   10.2091  -18.0043   18.6374 C   0  0  0  0  0  0  0  0  0  0  0  0
   10.4972  -18.2756   20.1034 C   0  0  2  0  0  0  0  0  0  0  0  0
    9.3519  -18.9961   20.6306 N   0  0  0  0  0  0  0  0  0  0  0  0
   10.6463  -17.0166   20.8692 C   0  0  0  0  0  0  0  0  0  0  0  0
   11.5851  -16.2257   20.6209 O   0  0  0  0  0  0  0  0  0  0  0  0
    9.6837  -16.7593   21.8815 N   0  0  0  0  0  0  0  0  0  0  0  0
    9.7588  -15.6169   22.7388 C   0  0  1  0  0  0  0  0  0  0  0  0
    8.3913  -14.9023   22.7626 C   0  0  0  0  0  0  0  0  0  0  0  0
    7.7911  -14.7686   21.4364 C   0  0  0  0  0  0  0  0  0  0  0  0
    6.7949  -15.6496   20.9915 C   0  0  0  0  0  0  0  0  0  0  0  0
    6.4339  -15.2473   19.7756 N   0  0  0  0  0  0  0  0  0  0  0  0
    7.1184  -14.1654   19.3835 C   0  0  0  0  0  0  0  0  0  0  0  0
    7.1078  -13.3943   18.2269 C   0  0  0  0  0  0  0  0  0  0  0  0
    7.9459  -12.3316   18.1154 C   0  0  0  0  0  0  0  0  0  0  0  0
    8.8118  -11.9876   19.1124 C   0  0  0  0  0  0  0  0  0  0  0  0
    8.8103  -12.7710   20.2668 C   0  0  0  0  0  0  0  0  0  0  0  0
    7.9831  -13.8579   20.4363 C   0  0  0  0  0  0  0  0  0  0  0  0
   10.2500  -15.7856   24.0761 C   0  0  0  0  0  0  0  0  0  0  0  0
   11.0439  -15.0172   24.6605 O   0  0  0  0  0  0  0  0  0  0  0  0
    9.7873  -16.9297   24.8102 N   0  0  0  0  0  0  0  0  0  0  0  0
   10.1526  -17.1017   26.2082 C   0  0  1  0  0  0  0  0  0  0  0  0
    9.8394  -15.8217   26.9661 C   0  0  0  0  0  0  0  0  0  0  0  0
    8.4935  -15.2917   26.7548 C   0  0  0  0  0  0  0  0  0  0  0  0
    7.3729  -16.0527   26.3519 C   0  0  0  0  0  0  0  0  0  0  0  0
    6.2973  -15.2618   26.2838 N   0  0  0  0  0  0  0  0  0  0  0  0
    6.6363  -13.9948   26.6221 C   0  0  0  0  0  0  0  0  0  0  0  0
    5.8835  -12.8392   26.6924 C   0  0  0  0  0  0  0  0  0  0  0  0
    6.5145  -11.6691   27.0641 C   0  0  0  0  0  0  0  0  0  0  0  0
    7.8533  -11.6397   27.3581 C   0  0  0  0  0  0  0  0  0  0  0  0
    8.5632  -12.8255   27.2725 C   0  0  0  0  0  0  0  0  0  0  0  0
    8.0012  -14.0228   26.9118 C   0  0  0  0  0  0  0  0  0  0  0  0
    9.5816  -18.3116   26.7613 C   0  0  0  0  0  0  0  0  0  0  0  0
    9.8560  -18.6709   27.9332 O   0  0  0  0  0  0  0  0  0  0  0  0
    8.7121  -19.1309   26.0528 O   0  0  0  0  0  0  0  0  0  0  0  0
  2  1  1  0
  3  2  2  0
  4  2  1  0
  5  6  1  1
  5  4  1  0
  7  5  1  0
  8  7  2  0
  9  7  1  0
 10  9  1  0
 10 11  1  1
 11 12  1  0
 12 13  2  0
 13 14  1  0
 15 16  2  0
 15 14  1  0
 17 16  1  0
 18 17  2  0
 19 18  1  0
 19 20  2  0
 20 12  1  0
 20 15  1  0
 21 23  1  0
 21 10  1  0
 22 21  2  0
 24 23  1  0
 24 25  1  1
 25 26  1  0
 26 27  2  0
 26 34  1  0
 27 28  1  0
 28 29  1  0
 29 30  2  0
 30 31  1  0
 32 31  2  0
 33 32  1  0
 34 33  2  0
 34 29  1  0
 35 37  1  0
 35 24  1  0
 36 35  2  0
M  END
$$$$
