NWW.pdb
     RDKit          3D

 37 40  0  0  1  0  0  0  0  0999 V2000
   12.2426  -19.8069   19.1491 N   0  0  0  0  0  0  0  0  0  0  0  0
   11.7422  -18.7219   18.3916 C   0  0  0  0  0  0  0  0  0  0  0  0
   12.0414  -18.5874   17.1866 O   0  0  0  0  0  0  0  0  0  0  0  0
   10.8560  -17.7360   19.0413 C   0  0  0  0  0  0  0  0  0  0  0  0
   10.7652  -18.1285   20.5054 C   0  0  2  0  0  0  0  0  0  0  0  0
    9.4993  -18.8188   20.6778 N   0  0  0  0  0  0  0  0  0  0  0  0
   10.7692  -16.9387   21.3875 C   0  0  0  0  0  0  0  0  0  0  0  0
   11.7822  -16.2066   21.4675 O   0  0  0  0  0  0  0  0  0  0  0  0
    9.5829  -16.6774   22.1236 N   0  0  0  0  0  0  0  0  0  0  0  0
    9.4099  -15.4911   22.9036 C   0  0  1  0  0  0  0  0  0  0  0  0
    7.9379  -15.0346   22.8239 C   0  0  0  0  0  0  0  0  0  0  0  0
    7.4939  -14.7669   21.4571 C   0  0  0  0  0  0  0  0  0  0  0  0
    6.4729  -15.5190   20.8585 C   0  0  0  0  0  0  0  0  0  0  0  0
    6.2789  -15.0142   19.6427 N   0  0  0  0  0  0  0  0  0  0  0  0
    7.0969  -13.9840   19.3931 C   0  0  0  0  0  0  0  0  0  0  0  0
    7.2776  -13.1506   18.2953 C   0  0  0  0  0  0  0  0  0  0  0  0
    8.2167  -12.1705   18.3380 C   0  0  0  0  0  0  0  0  0  0  0  0
    9.0019  -11.9708   19.4360 C   0  0  0  0  0  0  0  0  0  0  0  0
    8.8083  -12.8151   20.5297 C   0  0  0  0  0  0  0  0  0  0  0  0
    7.8718  -13.8236   20.5440 C   0  0  0  0  0  0  0  0  0  0  0  0
    9.8534  -15.4883   24.2679 C   0  0  0  0  0  0  0  0  0  0  0  0
   10.2507  -14.4861   24.9004 O   0  0  0  0  0  0  0  0  0  0  0  0
    9.8344  -16.7402   24.9711 N   0  0  0  0  0  0  0  0  0  0  0  0
   10.3903  -16.8372   26.3124 C   0  0  1  0  0  0  0  0  0  0  0  0
    9.9566  -15.6248   27.1204 C   0  0  0  0  0  0  0  0  0  0  0  0
    8.5431  -15.2730   26.9969 C   0  0  0  0  0  0  0  0  0  0  0  0
    7.4960  -16.1872   26.7417 C   0  0  0  0  0  0  0  0  0  0  0  0
    6.3293  -15.5349   26.7207 N   0  0  0  0  0  0  0  0  0  0  0  0
    6.5358  -14.2160   26.9498 C   0  0  0  0  0  0  0  0  0  0  0  0
    5.6547  -13.1547   27.0156 C   0  0  0  0  0  0  0  0  0  0  0  0
    6.1646  -11.8952   27.2580 C   0  0  0  0  0  0  0  0  0  0  0  0
    7.5089  -11.6878   27.4302 C   0  0  0  0  0  0  0  0  0  0  0  0
    8.3502  -12.7851   27.3548 C   0  0  0  0  0  0  0  0  0  0  0  0
    7.9126  -14.0627   27.1190 C   0  0  0  0  0  0  0  0  0  0  0  0
   10.1063  -18.1234   26.9132 C   0  0  0  0  0  0  0  0  0  0  0  0
   10.5776  -18.4220   28.0385 O   0  0  0  0  0  0  0  0  0  0  0  0
    9.3110  -19.0849   26.3030 O   0  0  0  0  0  0  0  0  0  0  0  0
  2  1  1  0
  3  2  2  0
  4  2  1  0
  5  6  1  6
  5  4  1  0
  7  5  1  0
  8  7  2  0
  9  7  1  0
 10  9  1  0
 10 11  1  1
 11 12  1  0
 12 13  2  0
 13 14  1  0
 15 16  2  0
 15 14  1  0
 17 16  1  0
 18 17  2  0
 19 18  1  0
 19 20  2  0
 20 12  1  0
 20 15  1  0
 21 23  1  0
 21 10  1  0
 22 21  2  0
 24 23  1  0
 24 25  1  1
 25 26  1  0
 26 27  2  0
 26 34  1  0
 27 28  1  0
 28 29  1  0
 29 30  2  0
 30 31  1  0
 32 31  2  0
 33 32  1  0
 34 33  2  0
 34 29  1  0
 35 37  1  0
 35 24  1  0
 36 35  2  0
M  END
$$$$
