NWW.pdb
     RDKit          3D

 37 40  0  0  1  0  0  0  0  0999 V2000
    8.7831  -18.5890   16.6062 N   0  0  0  0  0  0  0  0  0  0  0  0
    8.2654  -17.2751   16.5208 C   0  0  0  0  0  0  0  0  0  0  0  0
    7.9781  -16.7683   15.4163 O   0  0  0  0  0  0  0  0  0  0  0  0
    8.0668  -16.4959   17.7589 C   0  0  0  0  0  0  0  0  0  0  0  0
    8.6744  -17.3086   18.8886 C   0  0  2  0  0  0  0  0  0  0  0  0
    7.6834  -18.2969   19.2757 N   0  0  0  0  0  0  0  0  0  0  0  0
    8.9711  -16.4622   20.0673 C   0  0  0  0  0  0  0  0  0  0  0  0
    9.7809  -15.5106   19.9825 O   0  0  0  0  0  0  0  0  0  0  0  0
    8.2988  -16.7821   21.2769 N   0  0  0  0  0  0  0  0  0  0  0  0
    8.5504  -16.0870   22.5013 C   0  0  1  0  0  0  0  0  0  0  0  0
    7.7398  -16.7421   23.6394 C   0  0  0  0  0  0  0  0  0  0  0  0
    7.2387  -15.7764   24.6157 C   0  0  0  0  0  0  0  0  0  0  0  0
    6.3520  -16.1570   25.6333 C   0  0  0  0  0  0  0  0  0  0  0  0
    6.1145  -15.0736   26.3683 N   0  0  0  0  0  0  0  0  0  0  0  0
    6.7783  -14.0043   25.9115 C   0  0  0  0  0  0  0  0  0  0  0  0
    6.8539  -12.6783   26.3217 C   0  0  0  0  0  0  0  0  0  0  0  0
    7.6291  -11.8010   25.6337 C   0  0  0  0  0  0  0  0  0  0  0  0
    8.3477  -12.1790   24.5369 C   0  0  0  0  0  0  0  0  0  0  0  0
    8.2617  -13.5131   24.1379 C   0  0  0  0  0  0  0  0  0  0  0  0
    7.4941  -14.4465   24.7966 C   0  0  0  0  0  0  0  0  0  0  0  0
    9.9086  -15.8854   22.9168 C   0  0  0  0  0  0  0  0  0  0  0  0
   10.5467  -14.8151   22.8192 O   0  0  0  0  0  0  0  0  0  0  0  0
   10.5938  -17.0044   23.5004 N   0  0  0  0  0  0  0  0  0  0  0  0
   11.9540  -16.8553   23.9955 C   0  0  1  0  0  0  0  0  0  0  0  0
   11.9977  -15.7112   24.9955 C   0  0  0  0  0  0  0  0  0  0  0  0
   11.3725  -15.9942   26.2862 C   0  0  0  0  0  0  0  0  0  0  0  0
   11.3717  -17.2511   26.9323 C   0  0  0  0  0  0  0  0  0  0  0  0
   10.7384  -17.1497   28.1052 N   0  0  0  0  0  0  0  0  0  0  0  0
   10.3070  -15.8786   28.2864 C   0  0  0  0  0  0  0  0  0  0  0  0
    9.6070  -15.2940   29.3233 C   0  0  0  0  0  0  0  0  0  0  0  0
    9.2908  -13.9540   29.2255 C   0  0  0  0  0  0  0  0  0  0  0  0
    9.6549  -13.2101   28.1329 C   0  0  0  0  0  0  0  0  0  0  0  0
   10.3556  -13.8435   27.1203 C   0  0  0  0  0  0  0  0  0  0  0  0
   10.7042  -15.1690   27.1521 C   0  0  0  0  0  0  0  0  0  0  0  0
   12.4898  -18.1160   24.4637 C   0  0  0  0  0  0  0  0  0  0  0  0
   13.6900  -18.2073   24.8226 O   0  0  0  0  0  0  0  0  0  0  0  0
   11.7308  -19.2762   24.5492 O   0  0  0  0  0  0  0  0  0  0  0  0
  2  1  1  0
  3  2  2  0
  4  2  1  0
  5  6  1  1
  5  4  1  0
  7  5  1  0
  8  7  2  0
  9  7  1  0
 10  9  1  0
 10 11  1  1
 11 12  1  0
 12 13  2  0
 13 14  1  0
 15 16  2  0
 15 14  1  0
 17 16  1  0
 18 17  2  0
 19 18  1  0
 19 20  2  0
 20 12  1  0
 20 15  1  0
 21 23  1  0
 21 10  1  0
 22 21  2  0
 24 23  1  0
 24 25  1  1
 25 26  1  0
 26 27  2  0
 26 34  1  0
 27 28  1  0
 28 29  1  0
 29 30  2  0
 30 31  1  0
 32 31  2  0
 33 32  1  0
 34 33  2  0
 34 29  1  0
 35 37  1  0
 35 24  1  0
 36 35  2  0
M  END
$$$$
