NWW.pdb
     RDKit          3D

 37 40  0  0  1  0  0  0  0  0999 V2000
   11.7146  -19.9393   18.0653 N   0  0  0  0  0  0  0  0  0  0  0  0
   11.3556  -18.6691   17.5560 C   0  0  0  0  0  0  0  0  0  0  0  0
   11.4567  -18.4132   16.3380 O   0  0  0  0  0  0  0  0  0  0  0  0
   10.8574  -17.6343   18.4836 C   0  0  0  0  0  0  0  0  0  0  0  0
   10.9886  -18.2042   19.8850 C   0  0  2  0  0  0  0  0  0  0  0  0
    9.7713  -18.9498   20.1513 N   0  0  0  0  0  0  0  0  0  0  0  0
   11.1068  -17.1306   20.8985 C   0  0  0  0  0  0  0  0  0  0  0  0
   12.2174  -16.6092   21.1498 O   0  0  0  0  0  0  0  0  0  0  0  0
    9.9135  -16.7313   21.5574 N   0  0  0  0  0  0  0  0  0  0  0  0
    9.8915  -15.6956   22.5435 C   0  0  1  0  0  0  0  0  0  0  0  0
    8.4494  -15.1703   22.7041 C   0  0  0  0  0  0  0  0  0  0  0  0
    7.8010  -14.8759   21.4275 C   0  0  0  0  0  0  0  0  0  0  0  0
    6.7345  -15.6523   20.9518 C   0  0  0  0  0  0  0  0  0  0  0  0
    6.3458  -15.1151   19.7981 N   0  0  0  0  0  0  0  0  0  0  0  0
    7.0770  -14.0408   19.4756 C   0  0  0  0  0  0  0  0  0  0  0  0
    7.0628  -13.1626   18.3982 C   0  0  0  0  0  0  0  0  0  0  0  0
    7.9583  -12.1430   18.3454 C   0  0  0  0  0  0  0  0  0  0  0  0
    8.8863  -11.9460   19.3262 C   0  0  0  0  0  0  0  0  0  0  0  0
    8.8876  -12.8356   20.4010 C   0  0  0  0  0  0  0  0  0  0  0  0
    8.0041  -13.8854   20.5087 C   0  0  0  0  0  0  0  0  0  0  0  0
   10.4683  -15.9532   23.8315 C   0  0  0  0  0  0  0  0  0  0  0  0
   11.4664  -15.3721   24.3096 O   0  0  0  0  0  0  0  0  0  0  0  0
    9.8448  -16.9586   24.6453 N   0  0  0  0  0  0  0  0  0  0  0  0
   10.2151  -17.1036   26.0451 C   0  0  1  0  0  0  0  0  0  0  0  0
    9.8860  -15.8162   26.7834 C   0  0  0  0  0  0  0  0  0  0  0  0
    8.4861  -15.4017   26.7097 C   0  0  0  0  0  0  0  0  0  0  0  0
    7.4022  -16.2490   26.3863 C   0  0  0  0  0  0  0  0  0  0  0  0
    6.2614  -15.5541   26.4387 N   0  0  0  0  0  0  0  0  0  0  0  0
    6.5207  -14.2700   26.7833 C   0  0  0  0  0  0  0  0  0  0  0  0
    5.6817  -13.1868   26.9556 C   0  0  0  0  0  0  0  0  0  0  0  0
    6.2421  -11.9744   27.3042 C   0  0  0  0  0  0  0  0  0  0  0  0
    7.5948  -11.8342   27.4777 C   0  0  0  0  0  0  0  0  0  0  0  0
    8.3924  -12.9510   27.2930 C   0  0  0  0  0  0  0  0  0  0  0  0
    7.9039  -14.1846   26.9484 C   0  0  0  0  0  0  0  0  0  0  0  0
    9.6615  -18.3122   26.6183 C   0  0  0  0  0  0  0  0  0  0  0  0
    8.7877  -18.9708   26.0016 O   0  0  0  0  0  0  0  0  0  0  0  0
   10.0533  -18.8127   27.8534 O   0  0  0  0  0  0  0  0  0  0  0  0
  2  1  1  0
  3  2  2  0
  4  2  1  0
  5  6  1  1
  5  4  1  0
  7  5  1  0
  8  7  2  0
  9  7  1  0
 10  9  1  0
 10 11  1  1
 11 12  1  0
 12 13  2  0
 13 14  1  0
 15 16  2  0
 15 14  1  0
 17 16  1  0
 18 17  2  0
 19 18  1  0
 19 20  2  0
 20 12  1  0
 20 15  1  0
 21 23  1  0
 21 10  1  0
 22 21  2  0
 24 23  1  0
 24 25  1  1
 25 26  1  0
 26 27  2  0
 26 34  1  0
 27 28  1  0
 28 29  1  0
 29 30  2  0
 30 31  1  0
 32 31  2  0
 33 32  1  0
 34 33  2  0
 34 29  1  0
 35 37  1  0
 35 24  1  0
 36 35  2  0
M  END
$$$$
