NWW.pdb
     RDKit          3D

 37 40  0  0  1  0  0  0  0  0999 V2000
   13.4142  -18.7661   18.8913 N   0  0  0  0  0  0  0  0  0  0  0  0
   12.0339  -18.6656   18.5978 C   0  0  0  0  0  0  0  0  0  0  0  0
   11.4903  -19.4470   17.7894 O   0  0  0  0  0  0  0  0  0  0  0  0
   11.2302  -17.6179   19.2579 C   0  0  0  0  0  0  0  0  0  0  0  0
   11.3181  -17.8763   20.7517 C   0  0  2  0  0  0  0  0  0  0  0  0
   10.4171  -18.9777   21.0415 N   0  0  0  0  0  0  0  0  0  0  0  0
   10.8772  -16.6979   21.5331 C   0  0  0  0  0  0  0  0  0  0  0  0
   11.5679  -15.6534   21.5579 O   0  0  0  0  0  0  0  0  0  0  0  0
    9.6504  -16.8143   22.2395 N   0  0  0  0  0  0  0  0  0  0  0  0
    9.0529  -15.7111   22.9261 C   0  0  1  0  0  0  0  0  0  0  0  0
    7.5675  -15.5994   22.5232 C   0  0  0  0  0  0  0  0  0  0  0  0
    7.3798  -15.1750   21.1370 C   0  0  0  0  0  0  0  0  0  0  0  0
    6.7385  -15.9978   20.1999 C   0  0  0  0  0  0  0  0  0  0  0  0
    6.6935  -15.3221   19.0545 N   0  0  0  0  0  0  0  0  0  0  0  0
    7.2583  -14.1132   19.1650 C   0  0  0  0  0  0  0  0  0  0  0  0
    7.4576  -13.0655   18.2734 C   0  0  0  0  0  0  0  0  0  0  0  0
    8.0854  -11.9350   18.6881 C   0  0  0  0  0  0  0  0  0  0  0  0
    8.5351  -11.7874   19.9680 C   0  0  0  0  0  0  0  0  0  0  0  0
    8.3274  -12.8474   20.8509 C   0  0  0  0  0  0  0  0  0  0  0  0
    7.6967  -14.0156   20.4876 C   0  0  0  0  0  0  0  0  0  0  0  0
    9.1840  -15.6298   24.3524 C   0  0  0  0  0  0  0  0  0  0  0  0
    8.5383  -14.8626   25.0985 O   0  0  0  0  0  0  0  0  0  0  0  0
   10.1320  -16.5073   24.9796 N   0  0  0  0  0  0  0  0  0  0  0  0
   10.3363  -16.4586   26.4195 C   0  0  1  0  0  0  0  0  0  0  0  0
    9.0020  -16.6609   27.1192 C   0  0  0  0  0  0  0  0  0  0  0  0
    7.9686  -15.6865   26.7733 C   0  0  0  0  0  0  0  0  0  0  0  0
    6.6875  -16.0034   26.2677 C   0  0  0  0  0  0  0  0  0  0  0  0
    5.9875  -14.8787   26.0890 N   0  0  0  0  0  0  0  0  0  0  0  0
    6.7359  -13.8090   26.4501 C   0  0  0  0  0  0  0  0  0  0  0  0
    6.4562  -12.4568   26.4383 C   0  0  0  0  0  0  0  0  0  0  0  0
    7.4365  -11.5823   26.8620 C   0  0  0  0  0  0  0  0  0  0  0  0
    8.6612  -12.0301   27.2857 C   0  0  0  0  0  0  0  0  0  0  0  0
    8.8915  -13.3956   27.2783 C   0  0  0  0  0  0  0  0  0  0  0  0
    7.9640  -14.3200   26.8725 C   0  0  0  0  0  0  0  0  0  0  0  0
   11.4013  -17.3468   26.8350 C   0  0  0  0  0  0  0  0  0  0  0  0
   11.7378  -17.4212   28.0429 O   0  0  0  0  0  0  0  0  0  0  0  0
   12.0998  -18.1576   25.9494 O   0  0  0  0  0  0  0  0  0  0  0  0
  2  1  1  0
  3  2  2  0
  4  2  1  0
  5  6  1  6
  5  4  1  0
  7  5  1  0
  8  7  2  0
  9  7  1  0
 10  9  1  0
 10 11  1  1
 11 12  1  0
 12 13  2  0
 13 14  1  0
 15 16  2  0
 15 14  1  0
 17 16  1  0
 18 17  2  0
 19 18  1  0
 19 20  2  0
 20 12  1  0
 20 15  1  0
 21 23  1  0
 21 10  1  0
 22 21  2  0
 24 23  1  0
 24 25  1  1
 25 26  1  0
 26 27  2  0
 26 34  1  0
 27 28  1  0
 28 29  1  0
 29 30  2  0
 30 31  1  0
 32 31  2  0
 33 32  1  0
 34 33  2  0
 34 29  1  0
 35 37  1  0
 35 24  1  0
 36 35  2  0
M  END
$$$$
