NWW.pdb
     RDKit          3D

 37 40  0  0  1  0  0  0  0  0999 V2000
    6.7482  -14.3451   15.9158 N   0  0  0  0  0  0  0  0  0  0  0  0
    8.0167  -14.5509   16.5075 C   0  0  0  0  0  0  0  0  0  0  0  0
    9.0118  -14.8390   15.8102 O   0  0  0  0  0  0  0  0  0  0  0  0
    8.1592  -14.4244   17.9714 C   0  0  0  0  0  0  0  0  0  0  0  0
    8.6127  -15.7796   18.4848 C   0  0  2  0  0  0  0  0  0  0  0  0
    7.4796  -16.6786   18.3559 N   0  0  0  0  0  0  0  0  0  0  0  0
    8.9962  -15.7178   19.9141 C   0  0  0  0  0  0  0  0  0  0  0  0
    9.9660  -15.0176   20.2853 O   0  0  0  0  0  0  0  0  0  0  0  0
    8.2180  -16.4815   20.8245 N   0  0  0  0  0  0  0  0  0  0  0  0
    8.5353  -16.5725   22.2161 C   0  0  1  0  0  0  0  0  0  0  0  0
    7.4014  -17.3153   22.9536 C   0  0  0  0  0  0  0  0  0  0  0  0
    6.9063  -16.5903   24.1224 C   0  0  0  0  0  0  0  0  0  0  0  0
    6.0160  -17.1836   25.0289 C   0  0  0  0  0  0  0  0  0  0  0  0
    5.7855  -16.2914   25.9889 N   0  0  0  0  0  0  0  0  0  0  0  0
    6.4575  -15.1517   25.7837 C   0  0  0  0  0  0  0  0  0  0  0  0
    6.5422  -13.9524   26.4815 C   0  0  0  0  0  0  0  0  0  0  0  0
    7.3244  -12.9485   26.0078 C   0  0  0  0  0  0  0  0  0  0  0  0
    8.0412  -13.0754   24.8537 C   0  0  0  0  0  0  0  0  0  0  0  0
    7.9460  -14.2850   24.1649 C   0  0  0  0  0  0  0  0  0  0  0  0
    7.1711  -15.3370   24.5974 C   0  0  0  0  0  0  0  0  0  0  0  0
    9.8085  -17.1088   22.6026 C   0  0  0  0  0  0  0  0  0  0  0  0
   10.3930  -18.0639   22.0473 O   0  0  0  0  0  0  0  0  0  0  0  0
   10.4730  -16.4945   23.7176 N   0  0  0  0  0  0  0  0  0  0  0  0
   11.7033  -17.0658   24.2445 C   0  0  1  0  0  0  0  0  0  0  0  0
   12.3940  -16.0363   25.1241 C   0  0  0  0  0  0  0  0  0  0  0  0
   11.7005  -15.7249   26.3727 C   0  0  0  0  0  0  0  0  0  0  0  0
   11.3822  -16.6611   27.3824 C   0  0  0  0  0  0  0  0  0  0  0  0
   10.7769  -16.0351   28.3967 N   0  0  0  0  0  0  0  0  0  0  0  0
   10.6683  -14.7132   28.1220 C   0  0  0  0  0  0  0  0  0  0  0  0
   10.1187  -13.6749   28.8478 C   0  0  0  0  0  0  0  0  0  0  0  0
   10.1425  -12.4086   28.2989 C   0  0  0  0  0  0  0  0  0  0  0  0
   10.6933  -12.1730   27.0657 C   0  0  0  0  0  0  0  0  0  0  0  0
   11.2311  -13.2481   26.3785 C   0  0  0  0  0  0  0  0  0  0  0  0
   11.2432  -14.5303   26.8635 C   0  0  0  0  0  0  0  0  0  0  0  0
   11.4694  -18.3562   24.8577 C   0  0  0  0  0  0  0  0  0  0  0  0
   12.4221  -19.1479   25.0656 O   0  0  0  0  0  0  0  0  0  0  0  0
   10.2099  -18.7906   25.2506 O   0  0  0  0  0  0  0  0  0  0  0  0
  2  1  1  0
  3  2  2  0
  4  2  1  0
  5  6  1  1
  5  4  1  0
  7  5  1  0
  8  7  2  0
  9  7  1  0
 10  9  1  0
 10 11  1  1
 11 12  1  0
 12 13  2  0
 13 14  1  0
 15 16  2  0
 15 14  1  0
 17 16  1  0
 18 17  2  0
 19 18  1  0
 19 20  2  0
 20 12  1  0
 20 15  1  0
 21 23  1  0
 21 10  1  0
 22 21  2  0
 24 23  1  0
 24 25  1  1
 25 26  1  0
 26 27  2  0
 26 34  1  0
 27 28  1  0
 28 29  1  0
 29 30  2  0
 30 31  1  0
 32 31  2  0
 33 32  1  0
 34 33  2  0
 34 29  1  0
 35 37  1  0
 35 24  1  0
 36 35  2  0
M  END
$$$$
