NWW.pdb
     RDKit          3D

 37 40  0  0  1  0  0  0  0  0999 V2000
   15.5410  -15.7680   18.7299 N   0  0  0  0  0  0  0  0  0  0  0  0
   14.2408  -16.2706   18.4882 C   0  0  0  0  0  0  0  0  0  0  0  0
   14.0406  -17.1423   17.6167 O   0  0  0  0  0  0  0  0  0  0  0  0
   13.1077  -15.7511   19.2792 C   0  0  0  0  0  0  0  0  0  0  0  0
   12.9757  -16.6502   20.4958 C   0  0  2  0  0  0  0  0  0  0  0  0
   12.3419  -17.8766   20.0454 N   0  0  0  0  0  0  0  0  0  0  0  0
   12.1150  -16.0366   21.5332 C   0  0  0  0  0  0  0  0  0  0  0  0
   12.3813  -14.9034   21.9955 O   0  0  0  0  0  0  0  0  0  0  0  0
   10.9911  -16.7891   21.9669 N   0  0  0  0  0  0  0  0  0  0  0  0
   10.1635  -16.3729   23.0567 C   0  0  1  0  0  0  0  0  0  0  0  0
    8.6828  -16.6222   22.7010 C   0  0  0  0  0  0  0  0  0  0  0  0
    8.2323  -15.8475   21.5461 C   0  0  0  0  0  0  0  0  0  0  0  0
    7.8575  -16.4712   20.3473 C   0  0  0  0  0  0  0  0  0  0  0  0
    7.4682  -15.5101   19.5134 N   0  0  0  0  0  0  0  0  0  0  0  0
    7.5585  -14.2968   20.0722 C   0  0  0  0  0  0  0  0  0  0  0  0
    7.2816  -13.0121   19.6191 C   0  0  0  0  0  0  0  0  0  0  0  0
    7.4855  -11.9480   20.4377 C   0  0  0  0  0  0  0  0  0  0  0  0
    7.9601  -12.0956   21.7086 C   0  0  0  0  0  0  0  0  0  0  0  0
    8.2329  -13.3911   22.1488 C   0  0  0  0  0  0  0  0  0  0  0  0
    8.0446  -14.5065   21.3647 C   0  0  0  0  0  0  0  0  0  0  0  0
   10.4456  -16.8736   24.3711 C   0  0  0  0  0  0  0  0  0  0  0  0
   11.2276  -17.8112   24.6388 O   0  0  0  0  0  0  0  0  0  0  0  0
    9.7794  -16.2421   25.4755 N   0  0  0  0  0  0  0  0  0  0  0  0
   10.0816  -16.6427   26.8413 C   0  0  1  0  0  0  0  0  0  0  0  0
    9.0056  -16.1019   27.7689 C   0  0  0  0  0  0  0  0  0  0  0  0
    7.9850  -15.2810   27.1196 C   0  0  0  0  0  0  0  0  0  0  0  0
    6.8068  -15.7744   26.5149 C   0  0  0  0  0  0  0  0  0  0  0  0
    6.0844  -14.7523   26.0453 N   0  0  0  0  0  0  0  0  0  0  0  0
    6.7193  -13.5839   26.3031 C   0  0  0  0  0  0  0  0  0  0  0  0
    6.3772  -12.2784   26.0107 C   0  0  0  0  0  0  0  0  0  0  0  0
    7.2420  -11.2737   26.3953 C   0  0  0  0  0  0  0  0  0  0  0  0
    8.4142  -11.5497   27.0506 C   0  0  0  0  0  0  0  0  0  0  0  0
    8.7109  -12.8752   27.3201 C   0  0  0  0  0  0  0  0  0  0  0  0
    7.8983  -13.9219   26.9691 C   0  0  0  0  0  0  0  0  0  0  0  0
   10.3301  -18.0659   26.9345 C   0  0  0  0  0  0  0  0  0  0  0  0
   10.0781  -18.8242   25.9654 O   0  0  0  0  0  0  0  0  0  0  0  0
   10.8543  -18.6702   28.0700 O   0  0  0  0  0  0  0  0  0  0  0  0
  2  1  1  0
  3  2  2  0
  4  2  1  0
  5  6  1  6
  5  4  1  0
  7  5  1  0
  8  7  2  0
  9  7  1  0
 10  9  1  0
 10 11  1  6
 11 12  1  0
 12 13  2  0
 13 14  1  0
 15 16  2  0
 15 14  1  0
 17 16  1  0
 18 17  2  0
 19 18  1  0
 19 20  2  0
 20 12  1  0
 20 15  1  0
 21 23  1  0
 21 10  1  0
 22 21  2  0
 24 23  1  0
 24 25  1  1
 25 26  1  0
 26 27  2  0
 26 34  1  0
 27 28  1  0
 28 29  1  0
 29 30  2  0
 30 31  1  0
 32 31  2  0
 33 32  1  0
 34 33  2  0
 34 29  1  0
 35 37  1  0
 35 24  1  0
 36 35  2  0
M  END
$$$$
