NWW.pdb
     RDKit          3D

 37 40  0  0  1  0  0  0  0  0999 V2000
   11.6866  -19.8847   19.0453 N   0  0  0  0  0  0  0  0  0  0  0  0
   10.8893  -18.9579   18.3333 C   0  0  0  0  0  0  0  0  0  0  0  0
   10.7060  -19.0790   17.1041 O   0  0  0  0  0  0  0  0  0  0  0  0
   10.2700  -17.8315   19.0593 C   0  0  0  0  0  0  0  0  0  0  0  0
   10.6944  -17.9618   20.5115 C   0  0  2  0  0  0  0  0  0  0  0  0
    9.7501  -18.8642   21.1461 N   0  0  0  0  0  0  0  0  0  0  0  0
   10.6349  -16.6588   21.2133 C   0  0  0  0  0  0  0  0  0  0  0  0
   11.3788  -15.7126   20.8670 O   0  0  0  0  0  0  0  0  0  0  0  0
    9.7047  -16.5426   22.2804 N   0  0  0  0  0  0  0  0  0  0  0  0
    9.5594  -15.3420   23.0440 C   0  0  1  0  0  0  0  0  0  0  0  0
    8.1125  -14.8220   22.9126 C   0  0  0  0  0  0  0  0  0  0  0  0
    7.6756  -14.6871   21.5241 C   0  0  0  0  0  0  0  0  0  0  0  0
    6.7260  -15.5561   20.9677 C   0  0  0  0  0  0  0  0  0  0  0  0
    6.5176  -15.1555   19.7160 N   0  0  0  0  0  0  0  0  0  0  0  0
    7.2599  -14.0858   19.4036 C   0  0  0  0  0  0  0  0  0  0  0  0
    7.3980  -13.3212   18.2509 C   0  0  0  0  0  0  0  0  0  0  0  0
    8.2592  -12.2713   18.2354 C   0  0  0  0  0  0  0  0  0  0  0  0
    9.0060  -11.9343   19.3266 C   0  0  0  0  0  0  0  0  0  0  0  0
    8.8560  -12.7111   20.4757 C   0  0  0  0  0  0  0  0  0  0  0  0
    7.9984  -13.7849   20.5503 C   0  0  0  0  0  0  0  0  0  0  0  0
    9.9587  -15.3449   24.4219 C   0  0  0  0  0  0  0  0  0  0  0  0
   10.2611  -14.3345   25.0925 O   0  0  0  0  0  0  0  0  0  0  0  0
   10.0100  -16.6140   25.0920 N   0  0  0  0  0  0  0  0  0  0  0  0
   10.3013  -16.6808   26.5161 C   0  0  1  0  0  0  0  0  0  0  0  0
    8.9970  -16.8115   27.2859 C   0  0  0  0  0  0  0  0  0  0  0  0
    7.9428  -15.8846   26.8779 C   0  0  0  0  0  0  0  0  0  0  0  0
    6.7434  -16.2516   26.2268 C   0  0  0  0  0  0  0  0  0  0  0  0
    5.9932  -15.1633   26.0267 N   0  0  0  0  0  0  0  0  0  0  0  0
    6.6295  -14.0707   26.5124 C   0  0  0  0  0  0  0  0  0  0  0  0
    6.2647  -12.7389   26.5325 C   0  0  0  0  0  0  0  0  0  0  0  0
    7.1376  -11.8301   27.0959 C   0  0  0  0  0  0  0  0  0  0  0  0
    8.3393  -12.2246   27.6250 C   0  0  0  0  0  0  0  0  0  0  0  0
    8.6578  -13.5715   27.5800 C   0  0  0  0  0  0  0  0  0  0  0  0
    7.8389  -14.5279   27.0378 C   0  0  0  0  0  0  0  0  0  0  0  0
   11.3024  -17.6855   26.8066 C   0  0  0  0  0  0  0  0  0  0  0  0
   11.6376  -18.5255   25.9350 O   0  0  0  0  0  0  0  0  0  0  0  0
   11.9447  -17.7813   28.0345 O   0  0  0  0  0  0  0  0  0  0  0  0
  2  1  1  0
  3  2  2  0
  4  2  1  0
  5  6  1  1
  5  4  1  0
  7  5  1  0
  8  7  2  0
  9  7  1  0
 10  9  1  0
 10 11  1  1
 11 12  1  0
 12 13  2  0
 13 14  1  0
 15 16  2  0
 15 14  1  0
 17 16  1  0
 18 17  2  0
 19 18  1  0
 19 20  2  0
 20 12  1  0
 20 15  1  0
 21 23  1  0
 21 10  1  0
 22 21  2  0
 24 23  1  0
 24 25  1  1
 25 26  1  0
 26 27  2  0
 26 34  1  0
 27 28  1  0
 28 29  1  0
 29 30  2  0
 30 31  1  0
 32 31  2  0
 33 32  1  0
 34 33  2  0
 34 29  1  0
 35 37  1  0
 35 24  1  0
 36 35  2  0
M  END
$$$$
