NWW.pdb
     RDKit          3D

 37 40  0  0  1  0  0  0  0  0999 V2000
   10.5771  -18.1528   16.8670 N   0  0  0  0  0  0  0  0  0  0  0  0
   11.3572  -17.8464   18.0068 C   0  0  0  0  0  0  0  0  0  0  0  0
   12.3501  -18.5398   18.3111 O   0  0  0  0  0  0  0  0  0  0  0  0
   10.9853  -16.6904   18.8462 C   0  0  0  0  0  0  0  0  0  0  0  0
   10.9083  -17.1957   20.2761 C   0  0  2  0  0  0  0  0  0  0  0  0
    9.8233  -18.1597   20.3234 N   0  0  0  0  0  0  0  0  0  0  0  0
   10.5976  -16.0999   21.2229 C   0  0  0  0  0  0  0  0  0  0  0  0
   11.3716  -15.1229   21.3450 O   0  0  0  0  0  0  0  0  0  0  0  0
    9.3955  -16.2150   21.9708 N   0  0  0  0  0  0  0  0  0  0  0  0
    9.0041  -15.2463   22.9475 C   0  0  1  0  0  0  0  0  0  0  0  0
    7.6524  -14.6235   22.5397 C   0  0  0  0  0  0  0  0  0  0  0  0
    7.4046  -14.6834   21.1002 C   0  0  0  0  0  0  0  0  0  0  0  0
    6.6415  -15.7130   20.5309 C   0  0  0  0  0  0  0  0  0  0  0  0
    6.5709  -15.4688   19.2248 N   0  0  0  0  0  0  0  0  0  0  0  0
    7.2315  -14.3539   18.8883 C   0  0  0  0  0  0  0  0  0  0  0  0
    7.4490  -13.6982   17.6821 C   0  0  0  0  0  0  0  0  0  0  0  0
    8.1867  -12.5584   17.6556 C   0  0  0  0  0  0  0  0  0  0  0  0
    8.7313  -12.0248   18.7874 C   0  0  0  0  0  0  0  0  0  0  0  0
    8.5039  -12.6943   19.9901 C   0  0  0  0  0  0  0  0  0  0  0  0
    7.7638  -13.8514   20.0779 C   0  0  0  0  0  0  0  0  0  0  0  0
    8.9729  -15.6296   24.3296 C   0  0  0  0  0  0  0  0  0  0  0  0
    8.0270  -15.4219   25.1197 O   0  0  0  0  0  0  0  0  0  0  0  0
   10.1217  -16.3159   24.8507 N   0  0  0  0  0  0  0  0  0  0  0  0
   10.4281  -16.2595   26.2721 C   0  0  1  0  0  0  0  0  0  0  0  0
    9.1670  -16.5597   27.0660 C   0  0  0  0  0  0  0  0  0  0  0  0
    8.0616  -15.6287   26.8459 C   0  0  0  0  0  0  0  0  0  0  0  0
    6.7306  -16.0006   26.5506 C   0  0  0  0  0  0  0  0  0  0  0  0
    5.9747  -14.9036   26.4401 N   0  0  0  0  0  0  0  0  0  0  0  0
    6.7327  -13.8003   26.6468 C   0  0  0  0  0  0  0  0  0  0  0  0
    6.4095  -12.4578   26.6300 C   0  0  0  0  0  0  0  0  0  0  0  0
    7.4126  -11.5405   26.8703 C   0  0  0  0  0  0  0  0  0  0  0  0
    8.7010  -11.9372   27.1200 C   0  0  0  0  0  0  0  0  0  0  0  0
    8.9729  -13.2950   27.1257 C   0  0  0  0  0  0  0  0  0  0  0  0
    8.0265  -14.2600   26.8969 C   0  0  0  0  0  0  0  0  0  0  0  0
   11.5812  -17.0714   26.5993 C   0  0  0  0  0  0  0  0  0  0  0  0
   12.1718  -17.7321   25.7091 O   0  0  0  0  0  0  0  0  0  0  0  0
   12.0997  -17.1671   27.8843 O   0  0  0  0  0  0  0  0  0  0  0  0
  2  1  1  0
  3  2  2  0
  4  2  1  0
  5  6  1  6
  5  4  1  0
  7  5  1  0
  8  7  2  0
  9  7  1  0
 10  9  1  0
 10 11  1  6
 11 12  1  0
 12 13  2  0
 13 14  1  0
 15 16  2  0
 15 14  1  0
 17 16  1  0
 18 17  2  0
 19 18  1  0
 19 20  2  0
 20 12  1  0
 20 15  1  0
 21 23  1  0
 21 10  1  0
 22 21  2  0
 24 23  1  0
 24 25  1  1
 25 26  1  0
 26 27  2  0
 26 34  1  0
 27 28  1  0
 28 29  1  0
 29 30  2  0
 30 31  1  0
 32 31  2  0
 33 32  1  0
 34 33  2  0
 34 29  1  0
 35 37  1  0
 35 24  1  0
 36 35  2  0
M  END
$$$$
