KLN.pdb
     RDKit          3D

 26 25  0  0  1  0  0  0  0  0999 V2000
   27.2262  -21.9034  -15.8842 N   0  0  0  0  0  0  0  0  0  0  0  0
   26.6488  -20.7777  -15.1555 C   0  0  1  0  0  0  0  0  0  0  0  0
   25.9325  -19.9384  -16.2000 C   0  0  0  0  0  0  0  0  0  0  0  0
   26.8082  -19.9404  -17.4234 C   0  0  0  0  0  0  0  0  0  0  0  0
   26.3417  -18.9480  -18.4619 C   0  0  0  0  0  0  0  0  0  0  0  0
   27.2858  -18.9257  -19.6541 C   0  0  0  0  0  0  0  0  0  0  0  0
   26.8969  -17.9427  -20.6257 N   0  0  0  0  0  0  0  0  0  0  0  0
   25.6346  -21.3037  -14.1733 C   0  0  0  0  0  0  0  0  0  0  0  0
   25.1458  -22.4639  -14.2938 O   0  0  0  0  0  0  0  0  0  0  0  0
   26.0627  -22.1600   -9.9856 C   0  0  0  0  0  0  0  0  0  0  0  0
   25.8689  -20.6636  -10.2947 C   0  0  2  0  0  0  0  0  0  0  0  0
   26.1905  -19.9468   -9.0067 C   0  0  0  0  0  0  0  0  0  0  0  0
   24.4804  -20.4506  -10.7880 C   0  0  0  0  0  0  0  0  0  0  0  0
   24.1832  -21.0041  -12.1514 C   0  0  2  0  0  0  0  0  0  0  0  0
   25.1900  -20.5209  -13.0787 N   0  0  0  0  0  0  0  0  0  0  0  0
   22.8039  -20.7934  -12.6039 C   0  0  0  0  0  0  0  0  0  0  0  0
   21.8752  -21.1901  -11.8553 O   0  0  0  0  0  0  0  0  0  0  0  0
   19.4740  -17.8024  -13.3883 N   0  0  0  0  0  0  0  0  0  0  0  0
   20.0127  -17.8519  -14.7007 C   0  0  0  0  0  0  0  0  0  0  0  0
   19.7440  -16.8230  -15.4162 O   0  0  0  0  0  0  0  0  0  0  0  0
   20.8132  -18.9650  -15.2335 C   0  0  0  0  0  0  0  0  0  0  0  0
   21.0630  -20.0659  -14.2586 C   0  0  2  0  0  0  0  0  0  0  0  0
   22.4372  -20.1745  -13.8287 N   0  0  0  0  0  0  0  0  0  0  0  0
   20.5965  -21.3884  -14.7532 C   0  0  0  0  0  0  0  0  0  0  0  0
   21.3355  -22.0744  -15.5017 O   0  0  0  0  0  0  0  0  0  0  0  0
   19.3562  -21.9110  -14.4191 O   0  0  0  0  0  0  0  0  0  0  0  0
  2  1  1  6
  3  4  1  0
  3  2  1  0
  5  6  1  0
  5  4  1  0
  7  6  1  0
  8  2  1  0
  8  9  2  0
 11 10  1  1
 11 13  1  0
 12 11  1  0
 14 13  1  1
 14 15  1  0
 15  8  1  0
 16 14  1  0
 17 16  2  0
 19 18  1  0
 19 21  1  0
 20 19  2  0
 22 21  1  6
 22 23  1  0
 22 24  1  0
 23 16  1  0
 24 26  1  0
 25 24  2  0
M  END
$$$$
