KLN.pdb
     RDKit          3D

 26 25  0  0  1  0  0  0  0  0999 V2000
   26.1888  -18.6140  -15.1479 N   0  0  0  0  0  0  0  0  0  0  0  0
   25.6131  -19.7805  -15.8108 C   0  0  1  0  0  0  0  0  0  0  0  0
   26.7958  -20.6317  -16.2412 C   0  0  0  0  0  0  0  0  0  0  0  0
   27.5492  -19.8287  -17.2664 C   0  0  0  0  0  0  0  0  0  0  0  0
   28.6789  -20.6136  -17.8898 C   0  0  0  0  0  0  0  0  0  0  0  0
   29.4103  -19.7791  -18.9299 C   0  0  0  0  0  0  0  0  0  0  0  0
   30.4751  -20.5140  -19.5526 N   0  0  0  0  0  0  0  0  0  0  0  0
   24.7947  -20.5536  -14.8095 C   0  0  0  0  0  0  0  0  0  0  0  0
   24.2422  -21.6481  -15.1196 O   0  0  0  0  0  0  0  0  0  0  0  0
   26.0440  -22.3136  -11.2650 C   0  0  0  0  0  0  0  0  0  0  0  0
   25.7579  -20.8230  -11.0034 C   0  0  2  0  0  0  0  0  0  0  0  0
   26.2928  -20.5527   -9.6188 C   0  0  0  0  0  0  0  0  0  0  0  0
   24.2971  -20.5796  -11.1577 C   0  0  0  0  0  0  0  0  0  0  0  0
   23.7489  -20.7732  -12.5417 C   0  0  2  0  0  0  0  0  0  0  0  0
   24.6127  -20.0857  -13.4841 N   0  0  0  0  0  0  0  0  0  0  0  0
   22.3270  -20.4415  -12.6826 C   0  0  0  0  0  0  0  0  0  0  0  0
   21.9459  -19.3145  -12.2764 O   0  0  0  0  0  0  0  0  0  0  0  0
   20.9589  -21.5388  -16.0339 N   0  0  0  0  0  0  0  0  0  0  0  0
   20.2088  -20.3567  -15.7994 C   0  0  0  0  0  0  0  0  0  0  0  0
   19.9833  -19.6621  -16.8527 O   0  0  0  0  0  0  0  0  0  0  0  0
   19.7145  -19.9289  -14.4818 C   0  0  0  0  0  0  0  0  0  0  0  0
   19.9627  -20.9070  -13.3835 C   0  0  2  0  0  0  0  0  0  0  0  0
   21.3450  -21.3007  -13.2437 N   0  0  0  0  0  0  0  0  0  0  0  0
   19.1139  -22.1230  -13.4940 C   0  0  0  0  0  0  0  0  0  0  0  0
   17.8642  -22.0128  -13.5474 O   0  0  0  0  0  0  0  0  0  0  0  0
   19.6499  -23.4010  -13.5419 O   0  0  0  0  0  0  0  0  0  0  0  0
  2  1  1  1
  3  4  1  0
  3  2  1  0
  5  6  1  0
  5  4  1  0
  7  6  1  0
  8  2  1  0
  8  9  2  0
 11 10  1  1
 11 13  1  0
 12 11  1  0
 14 13  1  1
 14 15  1  0
 15  8  1  0
 16 14  1  0
 17 16  2  0
 19 18  1  0
 19 21  1  0
 20 19  2  0
 22 21  1  6
 22 23  1  0
 22 24  1  0
 23 16  1  0
 24 26  1  0
 25 24  2  0
M  END
$$$$
