KLN.pdb
     RDKit          3D

 26 25  0  0  1  0  0  0  0  0999 V2000
   25.7607  -25.9558  -15.6650 N   0  0  0  0  0  0  0  0  0  0  0  0
   25.0625  -24.8234  -16.2664 C   0  0  1  0  0  0  0  0  0  0  0  0
   23.9182  -25.4253  -17.0644 C   0  0  0  0  0  0  0  0  0  0  0  0
   24.5322  -26.0467  -18.2892 C   0  0  0  0  0  0  0  0  0  0  0  0
   24.5264  -27.5558  -18.2286 C   0  0  0  0  0  0  0  0  0  0  0  0
   25.1443  -28.1518  -19.4841 C   0  0  0  0  0  0  0  0  0  0  0  0
   25.1015  -29.5869  -19.4714 N   0  0  0  0  0  0  0  0  0  0  0  0
   24.4920  -23.9652  -15.1672 C   0  0  0  0  0  0  0  0  0  0  0  0
   23.6561  -24.4299  -14.3396 O   0  0  0  0  0  0  0  0  0  0  0  0
   26.4983  -21.9956  -11.7228 C   0  0  0  0  0  0  0  0  0  0  0  0
   26.7034  -21.3370  -13.1000 C   0  0  2  0  0  0  0  0  0  0  0  0
   27.7879  -20.3091  -12.8913 C   0  0  0  0  0  0  0  0  0  0  0  0
   25.4041  -20.7763  -13.5629 C   0  0  0  0  0  0  0  0  0  0  0  0
   24.3573  -21.7854  -13.9364 C   0  0  2  0  0  0  0  0  0  0  0  0
   24.8690  -22.6071  -15.0180 N   0  0  0  0  0  0  0  0  0  0  0  0
   23.0307  -21.2154  -14.1951 C   0  0  0  0  0  0  0  0  0  0  0  0
   22.8777  -20.5420  -15.2455 O   0  0  0  0  0  0  0  0  0  0  0  0
   18.9565  -23.8928  -12.8493 N   0  0  0  0  0  0  0  0  0  0  0  0
   19.1782  -22.7099  -13.6020 C   0  0  0  0  0  0  0  0  0  0  0  0
   19.1137  -22.8771  -14.8712 O   0  0  0  0  0  0  0  0  0  0  0  0
   19.4601  -21.3893  -13.0187 C   0  0  0  0  0  0  0  0  0  0  0  0
   20.6476  -20.6997  -13.6009 C   0  0  2  0  0  0  0  0  0  0  0  0
   21.9028  -21.3663  -13.3450 N   0  0  0  0  0  0  0  0  0  0  0  0
   20.7510  -19.2778  -13.1782 C   0  0  0  0  0  0  0  0  0  0  0  0
   21.7356  -18.8952  -12.4992 O   0  0  0  0  0  0  0  0  0  0  0  0
   19.7896  -18.3337  -13.5061 O   0  0  0  0  0  0  0  0  0  0  0  0
  2  1  1  1
  3  4  1  0
  3  2  1  0
  5  6  1  0
  5  4  1  0
  7  6  1  0
  8  2  1  0
  8  9  2  0
 11 10  1  1
 11 13  1  0
 12 11  1  0
 14 13  1  6
 14 15  1  0
 15  8  1  0
 16 14  1  0
 17 16  2  0
 19 18  1  0
 19 21  1  0
 20 19  2  0
 22 21  1  1
 22 23  1  0
 22 24  1  0
 23 16  1  0
 24 26  1  0
 25 24  2  0
M  END
$$$$
