KLN.pdb
     RDKit          3D

 26 25  0  0  1  0  0  0  0  0999 V2000
   26.5529  -23.2215  -16.9463 N   0  0  0  0  0  0  0  0  0  0  0  0
   25.5854  -24.1253  -16.3308 C   0  0  1  0  0  0  0  0  0  0  0  0
   26.3666  -25.3778  -15.9714 C   0  0  0  0  0  0  0  0  0  0  0  0
   26.6975  -26.0620  -17.2699 C   0  0  0  0  0  0  0  0  0  0  0  0
   25.8032  -27.2500  -17.5340 C   0  0  0  0  0  0  0  0  0  0  0  0
   26.2302  -27.9803  -18.7980 C   0  0  0  0  0  0  0  0  0  0  0  0
   26.3876  -27.0822  -19.9071 N   0  0  0  0  0  0  0  0  0  0  0  0
   25.0675  -23.4935  -15.0648 C   0  0  0  0  0  0  0  0  0  0  0  0
   24.2790  -24.1159  -14.2966 O   0  0  0  0  0  0  0  0  0  0  0  0
   27.2493  -21.8960  -11.4109 C   0  0  0  0  0  0  0  0  0  0  0  0
   27.2918  -21.0812  -12.7172 C   0  0  2  0  0  0  0  0  0  0  0  0
   28.3418  -20.0217  -12.4907 C   0  0  0  0  0  0  0  0  0  0  0  0
   25.9297  -20.5487  -12.9962 C   0  0  0  0  0  0  0  0  0  0  0  0
   24.9265  -21.5535  -13.4832 C   0  0  2  0  0  0  0  0  0  0  0  0
   25.4430  -22.1804  -14.6862 N   0  0  0  0  0  0  0  0  0  0  0  0
   23.5625  -21.0314  -13.6200 C   0  0  0  0  0  0  0  0  0  0  0  0
   23.0841  -20.3839  -12.6546 O   0  0  0  0  0  0  0  0  0  0  0  0
   18.7096  -19.5861  -14.8029 N   0  0  0  0  0  0  0  0  0  0  0  0
   19.3147  -20.0812  -13.6181 C   0  0  0  0  0  0  0  0  0  0  0  0
   18.5557  -20.0406  -12.5861 O   0  0  0  0  0  0  0  0  0  0  0  0
   20.6874  -20.6034  -13.5368 C   0  0  0  0  0  0  0  0  0  0  0  0
   21.4035  -20.6594  -14.8440 C   0  0  2  0  0  0  0  0  0  0  0  0
   22.7384  -21.2041  -14.7640 N   0  0  0  0  0  0  0  0  0  0  0  0
   21.4507  -19.3412  -15.5305 C   0  0  0  0  0  0  0  0  0  0  0  0
   21.0518  -19.2371  -16.7166 O   0  0  0  0  0  0  0  0  0  0  0  0
   21.9251  -18.1963  -14.9082 O   0  0  0  0  0  0  0  0  0  0  0  0
  2  1  1  1
  3  4  1  0
  3  2  1  0
  5  6  1  0
  5  4  1  0
  7  6  1  0
  8  2  1  0
  8  9  2  0
 11 10  1  1
 11 13  1  0
 12 11  1  0
 14 13  1  6
 14 15  1  0
 15  8  1  0
 16 14  1  0
 17 16  2  0
 19 18  1  0
 19 21  1  0
 20 19  2  0
 22 21  1  1
 22 23  1  0
 22 24  1  0
 23 16  1  0
 24 26  1  0
 25 24  2  0
M  END
$$$$
