KLN.pdb
     RDKit          3D

 26 25  0  0  1  0  0  0  0  0999 V2000
   26.7549  -18.2911  -13.9480 N   0  0  0  0  0  0  0  0  0  0  0  0
   27.1530  -19.6396  -14.3413 C   0  0  1  0  0  0  0  0  0  0  0  0
   28.6714  -19.6201  -14.3902 C   0  0  0  0  0  0  0  0  0  0  0  0
   29.0490  -19.3247  -15.8163 C   0  0  0  0  0  0  0  0  0  0  0  0
   29.0008  -20.5575  -16.6875 C   0  0  0  0  0  0  0  0  0  0  0  0
   29.4115  -20.2298  -18.1148 C   0  0  0  0  0  0  0  0  0  0  0  0
   29.3739  -21.3889  -18.9614 N   0  0  0  0  0  0  0  0  0  0  0  0
   26.7119  -20.6070  -13.2738 C   0  0  0  0  0  0  0  0  0  0  0  0
   26.7510  -21.8566  -13.4648 O   0  0  0  0  0  0  0  0  0  0  0  0
   28.3168  -21.3269   -9.4270 C   0  0  0  0  0  0  0  0  0  0  0  0
   27.3906  -20.0965   -9.4527 C   0  0  2  0  0  0  0  0  0  0  0  0
   27.6263  -19.3942   -8.1384 C   0  0  0  0  0  0  0  0  0  0  0  0
   25.9896  -20.5539   -9.6642 C   0  0  0  0  0  0  0  0  0  0  0  0
   25.6747  -21.0686  -11.0387 C   0  0  2  0  0  0  0  0  0  0  0  0
   26.2371  -20.1557  -12.0170 N   0  0  0  0  0  0  0  0  0  0  0  0
   24.2588  -21.3824  -11.2590 C   0  0  0  0  0  0  0  0  0  0  0  0
   23.6492  -22.0046  -10.3526 O   0  0  0  0  0  0  0  0  0  0  0  0
   19.0992  -22.0408  -11.4108 N   0  0  0  0  0  0  0  0  0  0  0  0
   19.8090  -20.8580  -11.7455 C   0  0  0  0  0  0  0  0  0  0  0  0
   19.0797  -19.9369  -12.2578 O   0  0  0  0  0  0  0  0  0  0  0  0
   21.2525  -20.6638  -11.5399 C   0  0  0  0  0  0  0  0  0  0  0  0
   22.1145  -21.3252  -12.5617 C   0  0  2  0  0  0  0  0  0  0  0  0
   23.5227  -21.0366  -12.4236 N   0  0  0  0  0  0  0  0  0  0  0  0
   21.6861  -21.0284  -13.9543 C   0  0  0  0  0  0  0  0  0  0  0  0
   20.5007  -21.2473  -14.3061 O   0  0  0  0  0  0  0  0  0  0  0  0
   22.5537  -20.5096  -14.9037 O   0  0  0  0  0  0  0  0  0  0  0  0
  2  1  1  1
  3  4  1  0
  3  2  1  0
  5  6  1  0
  5  4  1  0
  7  6  1  0
  8  2  1  0
  8  9  2  0
 11 10  1  1
 11 13  1  0
 12 11  1  0
 14 13  1  1
 14 15  1  0
 15  8  1  0
 16 14  1  0
 17 16  2  0
 19 18  1  0
 19 21  1  0
 20 19  2  0
 22 21  1  1
 22 23  1  0
 22 24  1  0
 23 16  1  0
 24 26  1  0
 25 24  2  0
M  END
$$$$
