KLN.pdb
     RDKit          3D

 26 25  0  0  1  0  0  0  0  0999 V2000
   20.5741  -21.7626  -14.2250 N   0  0  0  0  0  0  0  0  0  0  0  0
   21.9326  -22.2892  -14.3180 C   0  0  1  0  0  0  0  0  0  0  0  0
   22.1662  -22.5600  -15.7946 C   0  0  0  0  0  0  0  0  0  0  0  0
   21.8666  -24.0180  -16.0140 C   0  0  0  0  0  0  0  0  0  0  0  0
   22.9739  -24.9116  -15.5077 C   0  0  0  0  0  0  0  0  0  0  0  0
   22.7124  -26.3632  -15.8789 C   0  0  0  0  0  0  0  0  0  0  0  0
   23.7770  -27.2252  -15.4485 N   0  0  0  0  0  0  0  0  0  0  0  0
   22.8976  -21.2274  -13.8584 C   0  0  0  0  0  0  0  0  0  0  0  0
   22.7145  -20.0083  -14.1409 O   0  0  0  0  0  0  0  0  0  0  0  0
   24.1586  -19.7211  -10.0657 C   0  0  0  0  0  0  0  0  0  0  0  0
   24.8155  -21.0771  -10.3855 C   0  0  2  0  0  0  0  0  0  0  0  0
   25.4804  -21.5091   -9.1019 C   0  0  0  0  0  0  0  0  0  0  0  0
   25.7477  -20.9009  -11.5330 C   0  0  0  0  0  0  0  0  0  0  0  0
   25.1026  -20.5873  -12.8517 C   0  0  2  0  0  0  0  0  0  0  0  0
   24.0456  -21.5523  -13.0932 N   0  0  0  0  0  0  0  0  0  0  0  0
   26.0436  -20.4402  -13.9673 C   0  0  0  0  0  0  0  0  0  0  0  0
   27.1195  -19.8279  -13.7487 O   0  0  0  0  0  0  0  0  0  0  0  0
   29.1208  -21.6815  -18.0130 N   0  0  0  0  0  0  0  0  0  0  0  0
   29.0515  -22.2829  -16.7290 C   0  0  0  0  0  0  0  0  0  0  0  0
   30.0052  -23.1030  -16.4827 O   0  0  0  0  0  0  0  0  0  0  0  0
   27.9970  -22.0176  -15.7383 C   0  0  0  0  0  0  0  0  0  0  0  0
   26.9083  -21.1206  -16.2229 C   0  0  2  0  0  0  0  0  0  0  0  0
   25.8296  -20.9377  -15.2805 N   0  0  0  0  0  0  0  0  0  0  0  0
   26.3497  -21.5502  -17.5323 C   0  0  0  0  0  0  0  0  0  0  0  0
   25.1088  -21.6835  -17.6715 O   0  0  0  0  0  0  0  0  0  0  0  0
   27.1528  -21.8165  -18.6310 O   0  0  0  0  0  0  0  0  0  0  0  0
  2  1  1  6
  3  4  1  0
  3  2  1  0
  5  6  1  0
  5  4  1  0
  7  6  1  0
  8  2  1  0
  8  9  2  0
 11 10  1  1
 11 13  1  0
 12 11  1  0
 14 13  1  1
 14 15  1  0
 15  8  1  0
 16 14  1  0
 17 16  2  0
 19 18  1  0
 19 21  1  0
 20 19  2  0
 22 21  1  1
 22 23  1  0
 22 24  1  0
 23 16  1  0
 24 26  1  0
 25 24  2  0
M  END
$$$$
