KLN.pdb
     RDKit          3D

 26 25  0  0  1  0  0  0  0  0999 V2000
   21.5558  -13.4949  -17.3280 N   0  0  0  0  0  0  0  0  0  0  0  0
   21.6433  -12.0631  -17.5994 C   0  0  1  0  0  0  0  0  0  0  0  0
   20.2121  -11.5982  -17.8094 C   0  0  0  0  0  0  0  0  0  0  0  0
   19.6753  -12.3823  -18.9759 C   0  0  0  0  0  0  0  0  0  0  0  0
   18.3490  -13.0341  -18.6646 C   0  0  0  0  0  0  0  0  0  0  0  0
   17.7828  -13.7267  -19.8947 C   0  0  0  0  0  0  0  0  0  0  0  0
   17.5958  -12.8114  -20.9850 N   0  0  0  0  0  0  0  0  0  0  0  0
   22.2072  -11.3721  -16.3850 C   0  0  0  0  0  0  0  0  0  0  0  0
   21.7839  -11.6386  -15.2234 O   0  0  0  0  0  0  0  0  0  0  0  0
   25.9592  -11.8507  -14.7048 C   0  0  0  0  0  0  0  0  0  0  0  0
   25.9842  -10.8809  -15.9011 C   0  0  2  0  0  0  0  0  0  0  0  0
   27.4442  -10.7005  -16.2360 C   0  0  0  0  0  0  0  0  0  0  0  0
   25.2807   -9.6261  -15.5173 C   0  0  0  0  0  0  0  0  0  0  0  0
   23.7960   -9.7449  -15.3302 C   0  0  2  0  0  0  0  0  0  0  0  0
   23.2315  -10.3989  -16.4966 N   0  0  0  0  0  0  0  0  0  0  0  0
   23.1283   -8.4903  -14.9670 C   0  0  0  0  0  0  0  0  0  0  0  0
   23.5646   -7.8626  -13.9691 O   0  0  0  0  0  0  0  0  0  0  0  0
   20.5744   -3.9204  -14.8454 N   0  0  0  0  0  0  0  0  0  0  0  0
   21.9433   -4.1908  -15.1067 C   0  0  0  0  0  0  0  0  0  0  0  0
   22.6953   -3.1531  -15.0856 O   0  0  0  0  0  0  0  0  0  0  0  0
   22.4928   -5.5271  -15.3820 C   0  0  0  0  0  0  0  0  0  0  0  0
   21.4874   -6.6278  -15.3367 C   0  0  2  0  0  0  0  0  0  0  0  0
   22.0215   -7.9302  -15.6590 N   0  0  0  0  0  0  0  0  0  0  0  0
   20.3008   -6.3579  -16.1913 C   0  0  0  0  0  0  0  0  0  0  0  0
   19.6401   -5.3020  -16.0319 O   0  0  0  0  0  0  0  0  0  0  0  0
   19.8805   -7.2372  -17.1778 O   0  0  0  0  0  0  0  0  0  0  0  0
  2  1  1  1
  3  4  1  0
  3  2  1  0
  5  6  1  0
  5  4  1  0
  7  6  1  0
  8  2  1  0
  8  9  2  0
 11 10  1  1
 11 13  1  0
 12 11  1  0
 14 13  1  6
 14 15  1  0
 15  8  1  0
 16 14  1  0
 17 16  2  0
 19 18  1  0
 19 21  1  0
 20 19  2  0
 22 21  1  6
 22 23  1  0
 22 24  1  0
 23 16  1  0
 24 26  1  0
 25 24  2  0
M  END
$$$$
