KLN.pdb
     RDKit          3D

 26 25  0  0  1  0  0  0  0  0999 V2000
   23.3279  -18.9244  -13.9061 N   0  0  0  0  0  0  0  0  0  0  0  0
   23.9579  -20.2200  -14.1430 C   0  0  1  0  0  0  0  0  0  0  0  0
   25.0059  -19.9753  -15.2156 C   0  0  0  0  0  0  0  0  0  0  0  0
   24.3808  -19.0444  -16.2188 C   0  0  0  0  0  0  0  0  0  0  0  0
   25.3280  -18.6953  -17.3421 C   0  0  0  0  0  0  0  0  0  0  0  0
   24.7104  -17.6616  -18.2713 C   0  0  0  0  0  0  0  0  0  0  0  0
   25.5750  -17.3500  -19.3744 N   0  0  0  0  0  0  0  0  0  0  0  0
   24.6481  -20.6628  -12.8790 C   0  0  0  0  0  0  0  0  0  0  0  0
   25.2923  -21.7500  -12.8302 O   0  0  0  0  0  0  0  0  0  0  0  0
   26.4780  -19.1156   -7.3037 C   0  0  0  0  0  0  0  0  0  0  0  0
   25.6376  -20.1413   -8.0873 C   0  0  2  0  0  0  0  0  0  0  0  0
   26.3009  -21.4730   -7.8367 C   0  0  0  0  0  0  0  0  0  0  0  0
   25.5948  -19.7342   -9.5189 C   0  0  0  0  0  0  0  0  0  0  0  0
   24.6193  -20.4843  -10.3786 C   0  0  2  0  0  0  0  0  0  0  0  0
   24.6026  -19.8801  -11.6983 N   0  0  0  0  0  0  0  0  0  0  0  0
   23.2899  -20.6529   -9.7819 C   0  0  0  0  0  0  0  0  0  0  0  0
   22.5139  -19.6640   -9.7923 O   0  0  0  0  0  0  0  0  0  0  0  0
   18.7707  -22.4674   -7.7347 N   0  0  0  0  0  0  0  0  0  0  0  0
   19.1871  -22.9112   -9.0171 C   0  0  0  0  0  0  0  0  0  0  0  0
   18.2729  -23.5108   -9.6861 O   0  0  0  0  0  0  0  0  0  0  0  0
   20.5374  -22.7213   -9.5689 C   0  0  0  0  0  0  0  0  0  0  0  0
   21.4698  -21.9780   -8.6730 C   0  0  2  0  0  0  0  0  0  0  0  0
   22.8123  -21.8526   -9.1900 N   0  0  0  0  0  0  0  0  0  0  0  0
   21.5229  -22.5462   -7.2999 C   0  0  0  0  0  0  0  0  0  0  0  0
   22.5077  -23.2401   -6.9457 O   0  0  0  0  0  0  0  0  0  0  0  0
   20.5132  -22.3410   -6.3717 O   0  0  0  0  0  0  0  0  0  0  0  0
  2  1  1  1
  3  4  1  0
  3  2  1  0
  5  6  1  0
  5  4  1  0
  7  6  1  0
  8  2  1  0
  8  9  2  0
 11 10  1  1
 11 13  1  0
 12 11  1  0
 14 13  1  1
 14 15  1  0
 15  8  1  0
 16 14  1  0
 17 16  2  0
 19 18  1  0
 19 21  1  0
 20 19  2  0
 22 21  1  6
 22 23  1  0
 22 24  1  0
 23 16  1  0
 24 26  1  0
 25 24  2  0
M  END
$$$$
