KLN.pdb
     RDKit          3D

 26 25  0  0  1  0  0  0  0  0999 V2000
   23.5209  -22.2003  -13.5185 N   0  0  0  0  0  0  0  0  0  0  0  0
   23.0939  -20.8051  -13.4666 C   0  0  1  0  0  0  0  0  0  0  0  0
   22.3925  -20.6414  -12.1288 C   0  0  0  0  0  0  0  0  0  0  0  0
   21.3039  -21.6791  -12.0876 C   0  0  0  0  0  0  0  0  0  0  0  0
   20.1509  -21.3346  -13.0002 C   0  0  0  0  0  0  0  0  0  0  0  0
   19.0545  -22.3847  -12.9096 C   0  0  0  0  0  0  0  0  0  0  0  0
   17.9610  -22.0936  -13.7934 N   0  0  0  0  0  0  0  0  0  0  0  0
   24.3146  -19.9223  -13.4884 C   0  0  0  0  0  0  0  0  0  0  0  0
   24.2190  -18.6680  -13.3581 O   0  0  0  0  0  0  0  0  0  0  0  0
   27.2588  -19.9292  -10.7871 C   0  0  0  0  0  0  0  0  0  0  0  0
   27.6316  -20.9696  -11.8598 C   0  0  2  0  0  0  0  0  0  0  0  0
   28.7861  -21.7461  -11.2761 C   0  0  0  0  0  0  0  0  0  0  0  0
   27.9466  -20.2590  -13.1297 C   0  0  0  0  0  0  0  0  0  0  0  0
   26.7803  -19.6124  -13.8188 C   0  0  2  0  0  0  0  0  0  0  0  0
   25.6146  -20.4617  -13.6552 N   0  0  0  0  0  0  0  0  0  0  0  0
   27.0402  -19.2153  -15.2068 C   0  0  0  0  0  0  0  0  0  0  0  0
   28.2345  -19.0161  -15.5449 O   0  0  0  0  0  0  0  0  0  0  0  0
   28.4911  -18.9717  -19.5383 N   0  0  0  0  0  0  0  0  0  0  0  0
   28.1219  -20.2145  -18.9601 C   0  0  0  0  0  0  0  0  0  0  0  0
   28.8466  -21.2027  -19.3357 O   0  0  0  0  0  0  0  0  0  0  0  0
   27.0137  -20.3974  -18.0104 C   0  0  0  0  0  0  0  0  0  0  0  0
   26.3289  -19.1337  -17.6122 C   0  0  2  0  0  0  0  0  0  0  0  0
   26.0409  -19.0367  -16.2005 N   0  0  0  0  0  0  0  0  0  0  0  0
   25.0835  -18.8862  -18.3861 C   0  0  0  0  0  0  0  0  0  0  0  0
   23.9944  -19.3736  -17.9946 O   0  0  0  0  0  0  0  0  0  0  0  0
   25.0684  -18.1257  -19.5456 O   0  0  0  0  0  0  0  0  0  0  0  0
  2  1  1  1
  3  4  1  0
  3  2  1  0
  5  6  1  0
  5  4  1  0
  7  6  1  0
  8  2  1  0
  8  9  2  0
 11 10  1  1
 11 13  1  0
 12 11  1  0
 14 13  1  6
 14 15  1  0
 15  8  1  0
 16 14  1  0
 17 16  2  0
 19 18  1  0
 19 21  1  0
 20 19  2  0
 22 21  1  1
 22 23  1  0
 22 24  1  0
 23 16  1  0
 24 26  1  0
 25 24  2  0
M  END
$$$$
