KLN.pdb
     RDKit          3D

 26 25  0  0  1  0  0  0  0  0999 V2000
   24.9117  -20.7836  -17.7198 N   0  0  0  0  0  0  0  0  0  0  0  0
   24.4016  -19.7904  -16.7791 C   0  0  1  0  0  0  0  0  0  0  0  0
   23.3664  -18.9897  -17.5510 C   0  0  0  0  0  0  0  0  0  0  0  0
   24.0619  -18.4609  -18.7758 C   0  0  0  0  0  0  0  0  0  0  0  0
   23.1632  -17.5756  -19.6062 C   0  0  0  0  0  0  0  0  0  0  0  0
   23.9120  -17.0136  -20.8047 C   0  0  0  0  0  0  0  0  0  0  0  0
   25.0341  -16.2115  -20.4059 N   0  0  0  0  0  0  0  0  0  0  0  0
   23.7174  -20.5043  -15.6424 C   0  0  0  0  0  0  0  0  0  0  0  0
   22.9770  -21.5085  -15.8497 O   0  0  0  0  0  0  0  0  0  0  0  0
   25.2135  -22.9027  -12.6062 C   0  0  0  0  0  0  0  0  0  0  0  0
   25.4266  -21.4176  -12.2581 C   0  0  2  0  0  0  0  0  0  0  0  0
   26.3443  -21.4179  -11.0606 C   0  0  0  0  0  0  0  0  0  0  0  0
   24.1003  -20.7852  -12.0176 C   0  0  0  0  0  0  0  0  0  0  0  0
   23.1820  -20.7307  -13.2038 C   0  0  2  0  0  0  0  0  0  0  0  0
   23.8763  -20.0796  -14.2996 N   0  0  0  0  0  0  0  0  0  0  0  0
   21.8566  -20.1702  -12.9192 C   0  0  0  0  0  0  0  0  0  0  0  0
   21.7993  -18.9865  -12.5001 O   0  0  0  0  0  0  0  0  0  0  0  0
   17.5951  -17.1615  -13.5327 N   0  0  0  0  0  0  0  0  0  0  0  0
   17.9131  -18.4339  -14.0758 C   0  0  0  0  0  0  0  0  0  0  0  0
   16.9250  -19.0244  -14.6395 O   0  0  0  0  0  0  0  0  0  0  0  0
   19.2442  -19.0572  -14.0190 C   0  0  0  0  0  0  0  0  0  0  0  0
   19.3511  -20.1951  -13.0608 C   0  0  2  0  0  0  0  0  0  0  0  0
   20.6292  -20.8668  -13.0807 N   0  0  0  0  0  0  0  0  0  0  0  0
   18.2663  -21.1972  -13.2352 C   0  0  0  0  0  0  0  0  0  0  0  0
   18.4151  -22.1489  -14.0407 O   0  0  0  0  0  0  0  0  0  0  0  0
   17.0717  -21.1281  -12.5342 O   0  0  0  0  0  0  0  0  0  0  0  0
  2  1  1  6
  3  4  1  0
  3  2  1  0
  5  6  1  0
  5  4  1  0
  7  6  1  0
  8  2  1  0
  8  9  2  0
 11 10  1  1
 11 13  1  0
 12 11  1  0
 14 13  1  1
 14 15  1  0
 15  8  1  0
 16 14  1  0
 17 16  2  0
 19 18  1  0
 19 21  1  0
 20 19  2  0
 22 21  1  6
 22 23  1  0
 22 24  1  0
 23 16  1  0
 24 26  1  0
 25 24  2  0
M  END
$$$$
