KLN.pdb
     RDKit          3D

 26 25  0  0  1  0  0  0  0  0999 V2000
   25.3112  -20.2235  -16.6833 N   0  0  0  0  0  0  0  0  0  0  0  0
   24.6785  -19.4127  -15.6470 C   0  0  1  0  0  0  0  0  0  0  0  0
   23.5329  -18.6902  -16.3353 C   0  0  0  0  0  0  0  0  0  0  0  0
   24.1584  -17.6882  -17.2672 C   0  0  0  0  0  0  0  0  0  0  0  0
   23.1324  -16.7799  -17.9022 C   0  0  0  0  0  0  0  0  0  0  0  0
   23.7959  -15.7843  -18.8412 C   0  0  0  0  0  0  0  0  0  0  0  0
   22.8460  -14.8685  -19.4074 N   0  0  0  0  0  0  0  0  0  0  0  0
   24.1139  -20.3277  -14.5914 C   0  0  0  0  0  0  0  0  0  0  0  0
   23.6254  -21.4544  -14.8936 O   0  0  0  0  0  0  0  0  0  0  0  0
   26.1438  -22.1133  -11.3447 C   0  0  0  0  0  0  0  0  0  0  0  0
   25.7280  -20.6702  -11.0029 C   0  0  2  0  0  0  0  0  0  0  0  0
   26.4443  -20.3446   -9.7155 C   0  0  0  0  0  0  0  0  0  0  0  0
   24.2431  -20.6059  -10.9148 C   0  0  0  0  0  0  0  0  0  0  0  0
   23.5064  -20.8076  -12.2070 C   0  0  2  0  0  0  0  0  0  0  0  0
   24.1083  -19.9624  -13.2220 N   0  0  0  0  0  0  0  0  0  0  0  0
   22.0497  -20.6706  -12.1023 C   0  0  0  0  0  0  0  0  0  0  0  0
   21.5985  -19.6743  -11.4826 O   0  0  0  0  0  0  0  0  0  0  0  0
   19.4730  -17.6270  -12.3313 N   0  0  0  0  0  0  0  0  0  0  0  0
   18.9746  -18.9557  -12.2969 C   0  0  0  0  0  0  0  0  0  0  0  0
   18.1731  -19.1893  -11.3244 O   0  0  0  0  0  0  0  0  0  0  0  0
   19.3206  -20.0029  -13.2702 C   0  0  0  0  0  0  0  0  0  0  0  0
   19.6887  -21.3133  -12.6602 C   0  0  2  0  0  0  0  0  0  0  0  0
   21.1074  -21.5824  -12.6488 N   0  0  0  0  0  0  0  0  0  0  0  0
   18.9761  -22.4588  -13.2855 C   0  0  0  0  0  0  0  0  0  0  0  0
   19.6208  -23.3224  -13.9300 O   0  0  0  0  0  0  0  0  0  0  0  0
   17.6024  -22.6215  -13.1880 O   0  0  0  0  0  0  0  0  0  0  0  0
  2  1  1  6
  3  4  1  0
  3  2  1  0
  5  6  1  0
  5  4  1  0
  7  6  1  0
  8  2  1  0
  8  9  2  0
 11 10  1  1
 11 13  1  0
 12 11  1  0
 14 13  1  1
 14 15  1  0
 15  8  1  0
 16 14  1  0
 17 16  2  0
 19 18  1  0
 19 21  1  0
 20 19  2  0
 22 21  1  6
 22 23  1  0
 22 24  1  0
 23 16  1  0
 24 26  1  0
 25 24  2  0
M  END
$$$$
