KLN.pdb
     RDKit          3D

 26 25  0  0  1  0  0  0  0  0999 V2000
   22.1900  -34.4460  -12.3999 N   0  0  0  0  0  0  0  0  0  0  0  0
   22.4377  -35.7789  -11.8582 C   0  0  1  0  0  0  0  0  0  0  0  0
   23.1059  -36.5581  -12.9783 C   0  0  0  0  0  0  0  0  0  0  0  0
   22.0516  -36.7877  -14.0268 C   0  0  0  0  0  0  0  0  0  0  0  0
   21.9012  -38.2494  -14.3757 C   0  0  0  0  0  0  0  0  0  0  0  0
   20.8893  -38.4388  -15.4953 C   0  0  0  0  0  0  0  0  0  0  0  0
   20.7363  -39.8219  -15.8493 N   0  0  0  0  0  0  0  0  0  0  0  0
   23.3991  -35.6631  -10.7039 C   0  0  0  0  0  0  0  0  0  0  0  0
   24.4411  -36.3774  -10.6444 O   0  0  0  0  0  0  0  0  0  0  0  0
   26.0983  -32.6065   -9.4621 C   0  0  0  0  0  0  0  0  0  0  0  0
   24.6258  -32.3183   -9.1143 C   0  0  2  0  0  0  0  0  0  0  0  0
   24.5907  -30.8663   -8.7062 C   0  0  0  0  0  0  0  0  0  0  0  0
   24.1878  -33.2670   -8.0536 C   0  0  0  0  0  0  0  0  0  0  0  0
   24.0439  -34.6986   -8.4816 C   0  0  2  0  0  0  0  0  0  0  0  0
   23.1740  -34.7514   -9.6424 N   0  0  0  0  0  0  0  0  0  0  0  0
   23.6598  -35.6177   -7.4048 C   0  0  0  0  0  0  0  0  0  0  0  0
   24.3584  -35.6194   -6.3597 O   0  0  0  0  0  0  0  0  0  0  0  0
   21.9093  -38.6613   -3.7812 N   0  0  0  0  0  0  0  0  0  0  0  0
   20.9283  -37.7814   -4.3090 C   0  0  0  0  0  0  0  0  0  0  0  0
   19.9039  -37.6261   -3.5545 O   0  0  0  0  0  0  0  0  0  0  0  0
   21.0369  -37.0886   -5.6020 C   0  0  0  0  0  0  0  0  0  0  0  0
   22.2591  -37.4329   -6.3845 C   0  0  2  0  0  0  0  0  0  0  0  0
   22.5556  -36.5098   -7.4546 N   0  0  0  0  0  0  0  0  0  0  0  0
   22.2241  -38.8176   -6.9253 C   0  0  0  0  0  0  0  0  0  0  0  0
   22.0071  -39.7862   -6.1561 O   0  0  0  0  0  0  0  0  0  0  0  0
   22.4245  -39.0954   -8.2691 O   0  0  0  0  0  0  0  0  0  0  0  0
  2  1  1  6
  3  4  1  0
  3  2  1  0
  5  6  1  0
  5  4  1  0
  7  6  1  0
  8  2  1  0
  8  9  2  0
 11 10  1  1
 11 13  1  0
 12 11  1  0
 14 13  1  1
 14 15  1  0
 15  8  1  0
 16 14  1  0
 17 16  2  0
 19 18  1  0
 19 21  1  0
 20 19  2  0
 22 21  1  6
 22 23  1  0
 22 24  1  0
 23 16  1  0
 24 26  1  0
 25 24  2  0
M  END
$$$$
