KLN.pdb
     RDKit          3D

 26 25  0  0  1  0  0  0  0  0999 V2000
   20.2972  -19.4964  -15.0715 N   0  0  0  0  0  0  0  0  0  0  0  0
   20.8260  -20.4751  -14.1259 C   0  0  1  0  0  0  0  0  0  0  0  0
   20.5590  -21.8338  -14.7512 C   0  0  0  0  0  0  0  0  0  0  0  0
   19.0668  -21.9463  -14.9071 C   0  0  0  0  0  0  0  0  0  0  0  0
   18.6456  -23.3063  -15.4109 C   0  0  0  0  0  0  0  0  0  0  0  0
   17.1313  -23.4012  -15.5158 C   0  0  0  0  0  0  0  0  0  0  0  0
   16.7001  -24.7321  -15.8388 N   0  0  0  0  0  0  0  0  0  0  0  0
   22.3149  -20.2782  -14.0048 C   0  0  0  0  0  0  0  0  0  0  0  0
   22.8900  -19.2843  -14.5348 O   0  0  0  0  0  0  0  0  0  0  0  0
   26.8807  -21.8123  -11.2318 C   0  0  0  0  0  0  0  0  0  0  0  0
   25.8617  -20.7685  -10.7376 C   0  0  2  0  0  0  0  0  0  0  0  0
   25.8795  -20.8772   -9.2328 C   0  0  0  0  0  0  0  0  0  0  0  0
   24.5399  -21.0549  -11.3601 C   0  0  0  0  0  0  0  0  0  0  0  0
   24.4629  -20.8490  -12.8451 C   0  0  2  0  0  0  0  0  0  0  0  0
   23.1270  -21.1967  -13.2939 N   0  0  0  0  0  0  0  0  0  0  0  0
   25.5364  -21.4996  -13.6040 C   0  0  0  0  0  0  0  0  0  0  0  0
   26.6948  -21.4768  -13.1162 O   0  0  0  0  0  0  0  0  0  0  0  0
   24.1300  -18.8706  -18.3956 N   0  0  0  0  0  0  0  0  0  0  0  0
   25.0723  -19.5969  -17.6213 C   0  0  0  0  0  0  0  0  0  0  0  0
   26.2634  -19.5794  -18.0943 O   0  0  0  0  0  0  0  0  0  0  0  0
   24.7536  -20.3197  -16.3805 C   0  0  0  0  0  0  0  0  0  0  0  0
   25.6284  -21.4975  -16.1119 C   0  0  2  0  0  0  0  0  0  0  0  0
   25.3656  -22.1542  -14.8529 N   0  0  0  0  0  0  0  0  0  0  0  0
   27.0762  -21.1710  -16.2033 C   0  0  0  0  0  0  0  0  0  0  0  0
   27.6217  -20.4818  -15.3065 O   0  0  0  0  0  0  0  0  0  0  0  0
   27.8696  -21.6015  -17.2561 O   0  0  0  0  0  0  0  0  0  0  0  0
  2  1  1  6
  3  4  1  0
  3  2  1  0
  5  6  1  0
  5  4  1  0
  7  6  1  0
  8  2  1  0
  8  9  2  0
 11 10  1  6
 11 13  1  0
 12 11  1  0
 14 13  1  1
 14 15  1  0
 15  8  1  0
 16 14  1  0
 17 16  2  0
 19 18  1  0
 19 21  1  0
 20 19  2  0
 22 21  1  1
 22 23  1  0
 22 24  1  0
 23 16  1  0
 24 26  1  0
 25 24  2  0
M  END
$$$$
