KLN.pdb
     RDKit          3D

 26 25  0  0  1  0  0  0  0  0999 V2000
   27.7650  -22.4372  -17.0413 N   0  0  0  0  0  0  0  0  0  0  0  0
   27.7525  -21.2698  -16.1646 C   0  0  1  0  0  0  0  0  0  0  0  0
   27.3577  -20.0987  -17.0484 C   0  0  0  0  0  0  0  0  0  0  0  0
   28.6343  -19.5491  -17.6246 C   0  0  0  0  0  0  0  0  0  0  0  0
   29.1035  -20.3341  -18.8265 C   0  0  0  0  0  0  0  0  0  0  0  0
   30.3349  -19.6923  -19.4468 C   0  0  0  0  0  0  0  0  0  0  0  0
   30.8226  -20.4449  -20.5681 N   0  0  0  0  0  0  0  0  0  0  0  0
   26.6930  -21.4647  -15.1113 C   0  0  0  0  0  0  0  0  0  0  0  0
   25.6442  -22.1294  -15.3515 O   0  0  0  0  0  0  0  0  0  0  0  0
   26.0083  -19.8906   -9.1476 C   0  0  0  0  0  0  0  0  0  0  0  0
   25.3199  -20.4854  -10.3904 C   0  0  2  0  0  0  0  0  0  0  0  0
   24.7678  -21.8154   -9.9406 C   0  0  0  0  0  0  0  0  0  0  0  0
   26.3144  -20.5732  -11.4950 C   0  0  0  0  0  0  0  0  0  0  0  0
   25.7714  -21.0091  -12.8249 C   0  0  2  0  0  0  0  0  0  0  0  0
   26.8299  -20.9123  -13.8133 N   0  0  0  0  0  0  0  0  0  0  0  0
   24.5242  -20.3445  -13.2180 C   0  0  0  0  0  0  0  0  0  0  0  0
   24.5637  -19.1069  -13.4349 O   0  0  0  0  0  0  0  0  0  0  0  0
   19.7177  -19.0341  -14.9080 N   0  0  0  0  0  0  0  0  0  0  0  0
   20.7023  -19.5930  -15.7643 C   0  0  0  0  0  0  0  0  0  0  0  0
   20.4336  -19.4835  -17.0127 O   0  0  0  0  0  0  0  0  0  0  0  0
   21.9355  -20.2487  -15.3028 C   0  0  0  0  0  0  0  0  0  0  0  0
   22.0883  -20.2993  -13.8201 C   0  0  2  0  0  0  0  0  0  0  0  0
   23.2711  -20.9955  -13.3710 N   0  0  0  0  0  0  0  0  0  0  0  0
   20.8950  -20.8671  -13.1383 C   0  0  0  0  0  0  0  0  0  0  0  0
   20.8589  -22.0891  -12.8512 O   0  0  0  0  0  0  0  0  0  0  0  0
   19.7960  -20.0932  -12.7974 O   0  0  0  0  0  0  0  0  0  0  0  0
  2  1  1  6
  3  4  1  0
  3  2  1  0
  5  6  1  0
  5  4  1  0
  7  6  1  0
  8  2  1  0
  8  9  2  0
 11 10  1  1
 11 13  1  0
 12 11  1  0
 14 13  1  1
 14 15  1  0
 15  8  1  0
 16 14  1  0
 17 16  2  0
 19 18  1  0
 19 21  1  0
 20 19  2  0
 22 21  1  6
 22 23  1  0
 22 24  1  0
 23 16  1  0
 24 26  1  0
 25 24  2  0
M  END
$$$$
