SQM.pdb
     RDKit          3D

 24 23  0  0  1  0  0  0  0  0999 V2000
   28.2528  -17.6329  -14.3720 O   0  0  0  0  0  0  0  0  0  0  0  0
   28.7316  -18.2087  -15.5461 C   0  0  0  0  0  0  0  0  0  0  0  0
   27.5886  -18.5287  -16.4598 C   0  0  2  0  0  0  0  0  0  0  0  0
   27.0472  -17.3190  -16.9926 N   0  0  0  0  0  0  0  0  0  0  0  0
   26.5288  -19.3118  -15.7689 C   0  0  0  0  0  0  0  0  0  0  0  0
   25.4896  -18.7966  -15.3090 O   0  0  0  0  0  0  0  0  0  0  0  0
   25.8974  -25.5770  -16.3506 N   0  0  0  0  0  0  0  0  0  0  0  0
   24.9951  -25.2829  -15.2941 C   0  0  0  0  0  0  0  0  0  0  0  0
   24.2843  -26.1817  -14.7944 O   0  0  0  0  0  0  0  0  0  0  0  0
   24.9185  -23.9090  -14.8059 C   0  0  0  0  0  0  0  0  0  0  0  0
   25.8571  -22.9374  -15.4266 C   0  0  0  0  0  0  0  0  0  0  0  0
   25.7535  -21.5271  -14.9067 C   0  0  2  0  0  0  0  0  0  0  0  0
   26.6984  -20.7063  -15.6216 N   0  0  0  0  0  0  0  0  0  0  0  0
   25.9768  -21.5179  -13.4235 C   0  0  0  0  0  0  0  0  0  0  0  0
   27.0909  -21.7435  -12.9506 O   0  0  0  0  0  0  0  0  0  0  0  0
   27.3493  -19.3509   -6.6654 C   0  0  0  0  0  0  0  0  0  0  0  0
   27.4038  -19.2931   -8.4970 S   0  0  0  0  0  0  0  0  0  0  0  0
   26.0730  -20.3506   -9.0966 C   0  0  0  0  0  0  0  0  0  0  0  0
   26.0478  -20.5092  -10.5670 C   0  0  0  0  0  0  0  0  0  0  0  0
   24.9528  -21.2863  -11.1108 C   0  0  2  0  0  0  0  0  0  0  0  0
   24.9088  -21.2507  -12.5756 N   0  0  0  0  0  0  0  0  0  0  0  0
   23.6164  -21.0022  -10.6313 C   0  0  0  0  0  0  0  0  0  0  0  0
   23.3801  -21.0756   -9.2313 O   0  0  0  0  0  0  0  0  0  0  0  0
   22.6072  -20.6894  -11.3199 O   0  0  0  0  0  0  0  0  0  0  0  0
  2  1  1  0
  3  2  1  0
  3  4  1  1
  5  6  2  0
  5  3  1  0
  7  8  1  0
  8 10  1  0
  9  8  2  0
 10 11  1  0
 12 11  1  6
 12 13  1  0
 13  5  1  0
 14 12  1  0
 15 14  2  0
 16 17  1  0
 17 18  1  0
 19 18  1  0
 20 19  1  1
 20 21  1  0
 20 22  1  0
 21 14  1  0
 22 23  1  0
 24 22  2  0
M  END
$$$$
