SQM.pdb
     RDKit          3D

 24 23  0  0  1  0  0  0  0  0999 V2000
   21.3342   -0.6421  -18.3557 O   0  0  0  0  0  0  0  0  0  0  0  0
   21.6416   -1.8554  -17.7454 C   0  0  0  0  0  0  0  0  0  0  0  0
   20.3813   -2.5539  -17.3361 C   0  0  2  0  0  0  0  0  0  0  0  0
   19.6751   -1.7526  -16.3876 N   0  0  0  0  0  0  0  0  0  0  0  0
   20.6532   -3.9046  -16.7745 C   0  0  0  0  0  0  0  0  0  0  0  0
   20.9253   -4.1021  -15.5728 O   0  0  0  0  0  0  0  0  0  0  0  0
   17.3967   -8.6395  -18.4489 N   0  0  0  0  0  0  0  0  0  0  0  0
   17.2171   -7.7149  -17.3860 C   0  0  0  0  0  0  0  0  0  0  0  0
   16.0871   -7.5339  -16.8829 O   0  0  0  0  0  0  0  0  0  0  0  0
   18.3814   -6.9833  -16.8953 C   0  0  0  0  0  0  0  0  0  0  0  0
   19.6596   -7.2217  -17.6162 C   0  0  0  0  0  0  0  0  0  0  0  0
   20.8168   -6.3689  -17.1647 C   0  0  2  0  0  0  0  0  0  0  0  0
   20.6032   -5.0233  -17.6353 N   0  0  0  0  0  0  0  0  0  0  0  0
   22.1034   -6.9624  -17.6565 C   0  0  0  0  0  0  0  0  0  0  0  0
   22.5219   -6.7154  -18.7877 O   0  0  0  0  0  0  0  0  0  0  0  0
   28.2448  -11.4039  -15.3281 C   0  0  0  0  0  0  0  0  0  0  0  0
   26.6354  -10.6787  -14.8326 S   0  0  0  0  0  0  0  0  0  0  0  0
   25.9733   -9.8300  -16.2783 C   0  0  0  0  0  0  0  0  0  0  0  0
   24.7334   -9.0686  -16.0125 C   0  0  0  0  0  0  0  0  0  0  0  0
   24.0958   -8.4575  -17.1608 C   0  0  2  0  0  0  0  0  0  0  0  0
   22.8298   -7.8017  -16.8205 N   0  0  0  0  0  0  0  0  0  0  0  0
   23.8542   -9.2868  -18.3229 C   0  0  0  0  0  0  0  0  0  0  0  0
   24.8034   -9.2464  -19.3807 O   0  0  0  0  0  0  0  0  0  0  0  0
   22.8792  -10.0620  -18.5199 O   0  0  0  0  0  0  0  0  0  0  0  0
  2  1  1  0
  3  2  1  0
  3  4  1  1
  5  6  2  0
  5  3  1  0
  7  8  1  0
  8 10  1  0
  9  8  2  0
 10 11  1  0
 12 11  1  6
 12 13  1  0
 13  5  1  0
 14 12  1  0
 15 14  2  0
 16 17  1  0
 17 18  1  0
 19 18  1  0
 20 19  1  1
 20 21  1  0
 20 22  1  0
 21 14  1  0
 22 23  1  0
 24 22  2  0
M  END
$$$$
