SQM.pdb
     RDKit          3D

 24 23  0  0  1  0  0  0  0  0999 V2000
   14.8369  -10.5225   -9.8316 O   0  0  0  0  0  0  0  0  0  0  0  0
   14.8478   -9.2678   -9.2277 C   0  0  0  0  0  0  0  0  0  0  0  0
   15.1909   -8.2180  -10.2396 C   0  0  2  0  0  0  0  0  0  0  0  0
   14.1526   -8.1365  -11.2172 N   0  0  0  0  0  0  0  0  0  0  0  0
   16.5001   -8.4854  -10.8940 C   0  0  0  0  0  0  0  0  0  0  0  0
   17.5842   -8.4879  -10.2762 O   0  0  0  0  0  0  0  0  0  0  0  0
   16.9807  -12.0461  -15.9144 N   0  0  0  0  0  0  0  0  0  0  0  0
   16.9614  -12.4170  -14.5436 C   0  0  0  0  0  0  0  0  0  0  0  0
   16.7240  -13.5971  -14.2060 O   0  0  0  0  0  0  0  0  0  0  0  0
   17.2260  -11.3897  -13.5405 C   0  0  0  0  0  0  0  0  0  0  0  0
   17.5033  -10.0231  -14.0561 C   0  0  0  0  0  0  0  0  0  0  0  0
   17.7561   -8.9800  -12.9988 C   0  0  2  0  0  0  0  0  0  0  0  0
   16.5273   -8.7502  -12.2811 N   0  0  0  0  0  0  0  0  0  0  0  0
   18.3014   -7.7367  -13.6362 C   0  0  0  0  0  0  0  0  0  0  0  0
   17.5516   -6.8268  -13.9906 O   0  0  0  0  0  0  0  0  0  0  0  0
   23.6366   -2.2564  -14.1791 C   0  0  0  0  0  0  0  0  0  0  0  0
   22.8637   -3.5933  -13.1908 S   0  0  0  0  0  0  0  0  0  0  0  0
   21.9007   -4.6022  -14.3325 C   0  0  0  0  0  0  0  0  0  0  0  0
   21.1422   -5.6910  -13.6791 C   0  0  0  0  0  0  0  0  0  0  0  0
   20.3396   -6.5267  -14.5487 C   0  0  2  0  0  0  0  0  0  0  0  0
   19.6724   -7.6144  -13.8272 N   0  0  0  0  0  0  0  0  0  0  0  0
   20.9796   -7.1075  -15.7104 C   0  0  0  0  0  0  0  0  0  0  0  0
   21.1393   -6.2902  -16.8628 O   0  0  0  0  0  0  0  0  0  0  0  0
   21.4252   -8.2810  -15.8314 O   0  0  0  0  0  0  0  0  0  0  0  0
  2  1  1  0
  3  2  1  0
  3  4  1  6
  5  6  2  0
  5  3  1  0
  7  8  1  0
  8 10  1  0
  9  8  2  0
 10 11  1  0
 12 11  1  6
 12 13  1  0
 13  5  1  0
 14 12  1  0
 15 14  2  0
 16 17  1  0
 17 18  1  0
 19 18  1  0
 20 19  1  1
 20 21  1  0
 20 22  1  0
 21 14  1  0
 22 23  1  0
 24 22  2  0
M  END
$$$$
