SQM.pdb
     RDKit          3D

 24 23  0  0  1  0  0  0  0  0999 V2000
   30.7910  -30.5217  -20.5740 O   0  0  0  0  0  0  0  0  0  0  0  0
   31.7117  -29.8123  -19.8071 C   0  0  0  0  0  0  0  0  0  0  0  0
   31.5199  -30.1313  -18.3561 C   0  0  2  0  0  0  0  0  0  0  0  0
   31.8937  -31.4878  -18.1097 N   0  0  0  0  0  0  0  0  0  0  0  0
   30.1192  -29.8907  -17.9159 C   0  0  0  0  0  0  0  0  0  0  0  0
   29.3487  -30.8054  -17.5602 O   0  0  0  0  0  0  0  0  0  0  0  0
   28.0327  -23.9946  -16.6885 N   0  0  0  0  0  0  0  0  0  0  0  0
   26.9355  -24.8068  -16.2967 C   0  0  0  0  0  0  0  0  0  0  0  0
   25.9343  -24.3018  -15.7440 O   0  0  0  0  0  0  0  0  0  0  0  0
   27.0042  -26.2420  -16.5555 C   0  0  0  0  0  0  0  0  0  0  0  0
   28.2715  -26.7431  -17.1497 C   0  0  0  0  0  0  0  0  0  0  0  0
   28.3290  -28.2323  -17.3708 C   0  0  2  0  0  0  0  0  0  0  0  0
   29.6290  -28.5661  -17.8963 N   0  0  0  0  0  0  0  0  0  0  0  0
   27.2082  -28.6523  -18.2747 C   0  0  0  0  0  0  0  0  0  0  0  0
   27.2949  -28.5148  -19.4950 O   0  0  0  0  0  0  0  0  0  0  0  0
   22.9624  -32.6906  -15.8874 C   0  0  0  0  0  0  0  0  0  0  0  0
   22.1648  -32.6040  -17.5359 S   0  0  0  0  0  0  0  0  0  0  0  0
   22.9858  -31.2846  -18.4490 C   0  0  0  0  0  0  0  0  0  0  0  0
   24.1702  -30.7252  -17.7619 C   0  0  0  0  0  0  0  0  0  0  0  0
   24.9038  -29.7009  -18.4769 C   0  0  2  0  0  0  0  0  0  0  0  0
   26.0582  -29.2036  -17.7228 N   0  0  0  0  0  0  0  0  0  0  0  0
   24.1686  -28.5475  -18.9521 C   0  0  0  0  0  0  0  0  0  0  0  0
   23.6175  -28.6005  -20.2616 O   0  0  0  0  0  0  0  0  0  0  0  0
   23.9503  -27.4712  -18.3322 O   0  0  0  0  0  0  0  0  0  0  0  0
  2  1  1  0
  3  2  1  0
  3  4  1  6
  5  6  2  0
  5  3  1  0
  7  8  1  0
  8 10  1  0
  9  8  2  0
 10 11  1  0
 12 11  1  6
 12 13  1  0
 13  5  1  0
 14 12  1  0
 15 14  2  0
 16 17  1  0
 17 18  1  0
 19 18  1  0
 20 19  1  1
 20 21  1  0
 20 22  1  0
 21 14  1  0
 22 23  1  0
 24 22  2  0
M  END
$$$$
