SQM.pdb
     RDKit          3D

 24 23  0  0  1  0  0  0  0  0999 V2000
   15.5180  -11.1486  -16.1174 O   0  0  0  0  0  0  0  0  0  0  0  0
   15.8110  -10.7148  -14.8270 C   0  0  0  0  0  0  0  0  0  0  0  0
   17.2898  -10.5319  -14.6742 C   0  0  2  0  0  0  0  0  0  0  0  0
   17.9361  -11.8055  -14.7024 N   0  0  0  0  0  0  0  0  0  0  0  0
   17.6321   -9.8037  -13.4227 C   0  0  0  0  0  0  0  0  0  0  0  0
   17.4481  -10.2794  -12.2839 O   0  0  0  0  0  0  0  0  0  0  0  0
   21.3294   -4.7051  -13.5118 N   0  0  0  0  0  0  0  0  0  0  0  0
   21.6906   -6.0675  -13.6856 C   0  0  0  0  0  0  0  0  0  0  0  0
   22.7992   -6.3754  -14.1746 O   0  0  0  0  0  0  0  0  0  0  0  0
   20.7389   -7.0975  -13.2794 C   0  0  0  0  0  0  0  0  0  0  0  0
   19.4357   -6.6165  -12.7498 C   0  0  0  0  0  0  0  0  0  0  0  0
   18.4657   -7.7006  -12.3576 C   0  0  2  0  0  0  0  0  0  0  0  0
   18.1928   -8.5108  -13.5182 N   0  0  0  0  0  0  0  0  0  0  0  0
   17.2301   -7.0849  -11.7715 C   0  0  0  0  0  0  0  0  0  0  0  0
   16.2900   -6.7468  -12.4909 O   0  0  0  0  0  0  0  0  0  0  0  0
   11.9013   -7.5394   -6.3241 C   0  0  0  0  0  0  0  0  0  0  0  0
   13.3058   -8.2908   -7.2321 S   0  0  0  0  0  0  0  0  0  0  0  0
   14.1507   -6.9528   -8.0949 C   0  0  0  0  0  0  0  0  0  0  0  0
   15.3391   -7.3877   -8.8607 C   0  0  0  0  0  0  0  0  0  0  0  0
   15.9844   -6.3775   -9.6742 C   0  0  2  0  0  0  0  0  0  0  0  0
   17.1497   -6.8954  -10.3973 N   0  0  0  0  0  0  0  0  0  0  0  0
   16.3880   -5.1450   -9.0304 C   0  0  0  0  0  0  0  0  0  0  0  0
   15.3684   -4.2724   -8.5609 O   0  0  0  0  0  0  0  0  0  0  0  0
   17.5641   -4.7370   -8.8288 O   0  0  0  0  0  0  0  0  0  0  0  0
  2  1  1  0
  3  2  1  0
  3  4  1  1
  5  6  2  0
  5  3  1  0
  7  8  1  0
  8 10  1  0
  9  8  2  0
 10 11  1  0
 12 11  1  6
 12 13  1  0
 13  5  1  0
 14 12  1  0
 15 14  2  0
 16 17  1  0
 17 18  1  0
 19 18  1  0
 20 19  1  1
 20 21  1  0
 20 22  1  0
 21 14  1  0
 22 23  1  0
 24 22  2  0
M  END
$$$$
