SQM.pdb
     RDKit          3D

 24 23  0  0  1  0  0  0  0  0999 V2000
   25.6373  -23.1385  -15.8668 O   0  0  0  0  0  0  0  0  0  0  0  0
   24.3442  -23.1608  -16.3830 C   0  0  0  0  0  0  0  0  0  0  0  0
   23.8218  -21.7626  -16.5097 C   0  0  2  0  0  0  0  0  0  0  0  0
   24.6562  -21.0175  -17.3980 N   0  0  0  0  0  0  0  0  0  0  0  0
   23.7313  -21.0826  -15.1895 C   0  0  0  0  0  0  0  0  0  0  0  0
   24.4569  -20.1203  -14.8661 O   0  0  0  0  0  0  0  0  0  0  0  0
   19.0683  -19.9037  -12.1323 N   0  0  0  0  0  0  0  0  0  0  0  0
   19.8737  -20.0117  -10.9676 C   0  0  0  0  0  0  0  0  0  0  0  0
   19.6046  -19.3479   -9.9430 O   0  0  0  0  0  0  0  0  0  0  0  0
   21.0201  -20.9153  -10.9951 C   0  0  0  0  0  0  0  0  0  0  0  0
   21.3698  -21.4938  -12.3192 C   0  0  0  0  0  0  0  0  0  0  0  0
   22.5997  -20.9119  -12.9663 C   0  0  2  0  0  0  0  0  0  0  0  0
   22.7814  -21.5414  -14.2503 N   0  0  0  0  0  0  0  0  0  0  0  0
   23.7798  -21.0878  -12.0574 C   0  0  0  0  0  0  0  0  0  0  0  0
   24.1706  -22.2110  -11.7389 O   0  0  0  0  0  0  0  0  0  0  0  0
   28.2035  -20.2775   -6.0697 C   0  0  0  0  0  0  0  0  0  0  0  0
   26.5666  -20.4377   -6.8798 S   0  0  0  0  0  0  0  0  0  0  0  0
   26.8216  -20.1547   -8.6416 C   0  0  0  0  0  0  0  0  0  0  0  0
   25.5739  -20.1492   -9.4360 C   0  0  0  0  0  0  0  0  0  0  0  0
   25.7230  -19.9680  -10.8655 C   0  0  2  0  0  0  0  0  0  0  0  0
   24.4379  -19.9649  -11.5707 N   0  0  0  0  0  0  0  0  0  0  0  0
   26.6032  -20.8725  -11.5751 C   0  0  0  0  0  0  0  0  0  0  0  0
   27.9378  -21.0111  -11.1048 O   0  0  0  0  0  0  0  0  0  0  0  0
   26.3264  -21.5721  -12.5872 O   0  0  0  0  0  0  0  0  0  0  0  0
  2  1  1  0
  3  2  1  0
  3  4  1  6
  5  6  2  0
  5  3  1  0
  7  8  1  0
  8 10  1  0
  9  8  2  0
 10 11  1  0
 12 11  1  1
 12 13  1  0
 13  5  1  0
 14 12  1  0
 15 14  2  0
 16 17  1  0
 17 18  1  0
 19 18  1  0
 20 19  1  1
 20 21  1  0
 20 22  1  0
 21 14  1  0
 22 23  1  0
 24 22  2  0
M  END
$$$$
