SQM.pdb
     RDKit          3D

 24 23  0  0  1  0  0  0  0  0999 V2000
   29.0353  -21.5725  -14.4968 O   0  0  0  0  0  0  0  0  0  0  0  0
   27.9862  -22.1870  -15.1756 C   0  0  0  0  0  0  0  0  0  0  0  0
   26.9840  -21.1589  -15.6030 C   0  0  2  0  0  0  0  0  0  0  0  0
   27.4984  -20.4192  -16.7114 N   0  0  0  0  0  0  0  0  0  0  0  0
   26.6219  -20.2410  -14.4894 C   0  0  0  0  0  0  0  0  0  0  0  0
   26.5307  -19.0041  -14.6265 O   0  0  0  0  0  0  0  0  0  0  0  0
   21.6470  -19.5137  -13.6638 N   0  0  0  0  0  0  0  0  0  0  0  0
   21.9189  -20.6646  -12.8772 C   0  0  0  0  0  0  0  0  0  0  0  0
   21.0009  -21.4525  -12.5622 O   0  0  0  0  0  0  0  0  0  0  0  0
   23.2933  -20.9054  -12.4474 C   0  0  0  0  0  0  0  0  0  0  0  0
   24.2571  -19.7964  -12.6741 C   0  0  0  0  0  0  0  0  0  0  0  0
   25.6591  -20.0587  -12.1890 C   0  0  2  0  0  0  0  0  0  0  0  0
   26.3675  -20.7867  -13.2117 N   0  0  0  0  0  0  0  0  0  0  0  0
   25.6121  -20.7881  -10.8792 C   0  0  0  0  0  0  0  0  0  0  0  0
   25.4861  -22.0122  -10.8415 O   0  0  0  0  0  0  0  0  0  0  0  0
   29.3389  -19.8332   -4.1073 C   0  0  0  0  0  0  0  0  0  0  0  0
   28.6369  -18.9784   -5.5695 S   0  0  0  0  0  0  0  0  0  0  0  0
   27.5252  -20.1447   -6.3773 C   0  0  0  0  0  0  0  0  0  0  0  0
   27.0274  -19.6874   -7.6930 C   0  0  0  0  0  0  0  0  0  0  0  0
   26.1616  -20.6040   -8.4064 C   0  0  2  0  0  0  0  0  0  0  0  0
   25.7125  -20.0683   -9.6948 N   0  0  0  0  0  0  0  0  0  0  0  0
   24.9924  -21.1077   -7.7166 C   0  0  0  0  0  0  0  0  0  0  0  0
   25.1940  -21.9405   -6.5821 O   0  0  0  0  0  0  0  0  0  0  0  0
   23.7833  -20.8943   -8.0048 O   0  0  0  0  0  0  0  0  0  0  0  0
  2  1  1  0
  3  2  1  0
  3  4  1  6
  5  6  2  0
  5  3  1  0
  7  8  1  0
  8 10  1  0
  9  8  2  0
 10 11  1  0
 12 11  1  6
 12 13  1  0
 13  5  1  0
 14 12  1  0
 15 14  2  0
 16 17  1  0
 17 18  1  0
 19 18  1  0
 20 19  1  1
 20 21  1  0
 20 22  1  0
 21 14  1  0
 22 23  1  0
 24 22  2  0
M  END
$$$$
