SQM.pdb
     RDKit          3D

 24 23  0  0  1  0  0  0  0  0999 V2000
   28.8673  -22.3692  -15.6301 O   0  0  0  0  0  0  0  0  0  0  0  0
   28.6045  -21.5131  -14.5637 C   0  0  0  0  0  0  0  0  0  0  0  0
   27.2635  -20.8707  -14.7443 C   0  0  2  0  0  0  0  0  0  0  0  0
   27.2692  -20.0735  -15.9296 N   0  0  0  0  0  0  0  0  0  0  0  0
   26.8802  -20.0466  -13.5663 C   0  0  0  0  0  0  0  0  0  0  0  0
   26.6466  -18.8228  -13.6361 O   0  0  0  0  0  0  0  0  0  0  0  0
   21.9552  -21.2972  -13.3896 N   0  0  0  0  0  0  0  0  0  0  0  0
   22.3992  -19.9482  -13.3816 C   0  0  0  0  0  0  0  0  0  0  0  0
   21.7005  -19.0444  -13.8891 O   0  0  0  0  0  0  0  0  0  0  0  0
   23.6877  -19.6429  -12.7667 C   0  0  0  0  0  0  0  0  0  0  0  0
   24.3908  -20.7790  -12.1145 C   0  0  0  0  0  0  0  0  0  0  0  0
   25.6719  -20.4175  -11.4088 C   0  0  2  0  0  0  0  0  0  0  0  0
   26.7732  -20.6707  -12.3037 N   0  0  0  0  0  0  0  0  0  0  0  0
   25.7748  -21.1851  -10.1243 C   0  0  0  0  0  0  0  0  0  0  0  0
   25.6325  -22.4078  -10.1054 O   0  0  0  0  0  0  0  0  0  0  0  0
   27.8622  -17.7850   -5.2776 C   0  0  0  0  0  0  0  0  0  0  0  0
   29.1148  -19.0049   -5.8291 S   0  0  0  0  0  0  0  0  0  0  0  0
   28.2749  -20.1619   -6.9266 C   0  0  0  0  0  0  0  0  0  0  0  0
   26.8268  -20.3007   -6.6589 C   0  0  0  0  0  0  0  0  0  0  0  0
   26.0722  -21.0988   -7.6034 C   0  0  2  0  0  0  0  0  0  0  0  0
   26.0345  -20.5026   -8.9421 N   0  0  0  0  0  0  0  0  0  0  0  0
   24.7147  -21.4603   -7.2530 C   0  0  0  0  0  0  0  0  0  0  0  0
   24.5215  -22.3464   -6.1580 O   0  0  0  0  0  0  0  0  0  0  0  0
   23.6521  -21.0769   -7.8137 O   0  0  0  0  0  0  0  0  0  0  0  0
  2  1  1  0
  3  2  1  0
  3  4  1  6
  5  6  2  0
  5  3  1  0
  7  8  1  0
  8 10  1  0
  9  8  2  0
 10 11  1  0
 12 11  1  6
 12 13  1  0
 13  5  1  0
 14 12  1  0
 15 14  2  0
 16 17  1  0
 17 18  1  0
 19 18  1  0
 20 19  1  1
 20 21  1  0
 20 22  1  0
 21 14  1  0
 22 23  1  0
 24 22  2  0
M  END
$$$$
