SQM.pdb
     RDKit          3D

 24 23  0  0  1  0  0  0  0  0999 V2000
   15.9574  -12.9859  -11.4435 O   0  0  0  0  0  0  0  0  0  0  0  0
   16.3037  -11.7048  -11.8654 C   0  0  0  0  0  0  0  0  0  0  0  0
   15.2272  -10.7347  -11.4861 C   0  0  2  0  0  0  0  0  0  0  0  0
   14.0721  -10.9593  -12.2957 N   0  0  0  0  0  0  0  0  0  0  0  0
   15.6828   -9.3239  -11.6115 C   0  0  0  0  0  0  0  0  0  0  0  0
   15.6242   -8.6799  -12.6786 O   0  0  0  0  0  0  0  0  0  0  0  0
   15.4484   -5.3701   -6.9241 N   0  0  0  0  0  0  0  0  0  0  0  0
   14.4529   -5.7646   -7.8571 C   0  0  0  0  0  0  0  0  0  0  0  0
   13.2409   -5.5837   -7.6103 O   0  0  0  0  0  0  0  0  0  0  0  0
   14.8782   -6.3840   -9.1089 C   0  0  0  0  0  0  0  0  0  0  0  0
   16.3388   -6.6117   -9.2670 C   0  0  0  0  0  0  0  0  0  0  0  0
   16.7405   -7.3351  -10.5261 C   0  0  2  0  0  0  0  0  0  0  0  0
   16.2085   -8.6737  -10.4731 N   0  0  0  0  0  0  0  0  0  0  0  0
   18.2330   -7.3051  -10.6715 C   0  0  0  0  0  0  0  0  0  0  0  0
   18.9478   -8.0583  -10.0101 O   0  0  0  0  0  0  0  0  0  0  0  0
   23.8856   -9.6749  -14.4137 C   0  0  0  0  0  0  0  0  0  0  0  0
   22.1249   -9.6241  -13.9052 S   0  0  0  0  0  0  0  0  0  0  0  0
   21.8098   -7.9690  -13.2647 C   0  0  0  0  0  0  0  0  0  0  0  0
   20.4845   -7.8139  -12.6265 C   0  0  0  0  0  0  0  0  0  0  0  0
   20.1763   -6.5017  -12.0958 C   0  0  2  0  0  0  0  0  0  0  0  0
   18.8123   -6.4135  -11.5661 N   0  0  0  0  0  0  0  0  0  0  0  0
   20.3797   -5.3568  -12.9586 C   0  0  0  0  0  0  0  0  0  0  0  0
   21.6761   -4.7746  -13.0004 O   0  0  0  0  0  0  0  0  0  0  0  0
   19.5264   -4.7953  -13.6981 O   0  0  0  0  0  0  0  0  0  0  0  0
  2  1  1  0
  3  2  1  0
  3  4  1  6
  5  6  2  0
  5  3  1  0
  7  8  1  0
  8 10  1  0
  9  8  2  0
 10 11  1  0
 12 11  1  1
 12 13  1  0
 13  5  1  0
 14 12  1  0
 15 14  2  0
 16 17  1  0
 17 18  1  0
 19 18  1  0
 20 19  1  6
 20 21  1  0
 20 22  1  0
 21 14  1  0
 22 23  1  0
 24 22  2  0
M  END
$$$$
