SQM.pdb
     RDKit          3D

 24 23  0  0  1  0  0  0  0  0999 V2000
   19.4264  -17.7926  -16.9758 O   0  0  0  0  0  0  0  0  0  0  0  0
   20.4354  -18.7523  -16.9680 C   0  0  0  0  0  0  0  0  0  0  0  0
   21.0748  -18.8087  -15.6145 C   0  0  2  0  0  0  0  0  0  0  0  0
   20.1666  -19.3921  -14.6790 N   0  0  0  0  0  0  0  0  0  0  0  0
   21.5068  -17.4633  -15.1488 C   0  0  0  0  0  0  0  0  0  0  0  0
   20.8859  -16.8069  -14.2882 O   0  0  0  0  0  0  0  0  0  0  0  0
   27.3338  -15.2658  -15.9313 N   0  0  0  0  0  0  0  0  0  0  0  0
   26.8262  -16.3176  -15.1231 C   0  0  0  0  0  0  0  0  0  0  0  0
   27.6009  -17.1359  -14.5819 O   0  0  0  0  0  0  0  0  0  0  0  0
   25.3815  -16.4191  -14.9390 C   0  0  0  0  0  0  0  0  0  0  0  0
   24.5547  -15.4142  -15.6580 C   0  0  0  0  0  0  0  0  0  0  0  0
   23.0691  -15.5324  -15.4367 C   0  0  2  0  0  0  0  0  0  0  0  0
   22.6749  -16.8933  -15.7017 N   0  0  0  0  0  0  0  0  0  0  0  0
   22.3495  -14.5376  -16.2982 C   0  0  0  0  0  0  0  0  0  0  0  0
   22.1054  -14.7840  -17.4795 O   0  0  0  0  0  0  0  0  0  0  0  0
   17.0003   -8.9271  -16.5712 C   0  0  0  0  0  0  0  0  0  0  0  0
   17.8363  -10.1990  -15.5490 S   0  0  0  0  0  0  0  0  0  0  0  0
   19.3178  -10.7027  -16.4437 C   0  0  0  0  0  0  0  0  0  0  0  0
   20.0663  -11.8018  -15.7959 C   0  0  0  0  0  0  0  0  0  0  0  0
   21.2686  -12.2458  -16.4712 C   0  0  2  0  0  0  0  0  0  0  0  0
   21.9548  -13.3227  -15.7513 N   0  0  0  0  0  0  0  0  0  0  0  0
   22.2634  -11.2494  -16.8091 C   0  0  0  0  0  0  0  0  0  0  0  0
   23.5154  -11.3018  -16.1373 O   0  0  0  0  0  0  0  0  0  0  0  0
   22.1549  -10.3143  -17.6482 O   0  0  0  0  0  0  0  0  0  0  0  0
  2  1  1  0
  3  2  1  0
  3  4  1  1
  5  6  2  0
  5  3  1  0
  7  8  1  0
  8 10  1  0
  9  8  2  0
 10 11  1  0
 12 11  1  6
 12 13  1  0
 13  5  1  0
 14 12  1  0
 15 14  2  0
 16 17  1  0
 17 18  1  0
 19 18  1  0
 20 19  1  1
 20 21  1  0
 20 22  1  0
 21 14  1  0
 22 23  1  0
 24 22  2  0
M  END
$$$$
