SQM.pdb
     RDKit          3D

 24 23  0  0  1  0  0  0  0  0999 V2000
   24.4755  -15.0182  -17.9283 O   0  0  0  0  0  0  0  0  0  0  0  0
   24.2925  -16.3604  -17.6053 C   0  0  0  0  0  0  0  0  0  0  0  0
   25.5539  -17.1245  -17.8680 C   0  0  2  0  0  0  0  0  0  0  0  0
   25.7455  -17.2643  -19.2766 N   0  0  0  0  0  0  0  0  0  0  0  0
   25.5407  -18.4592  -17.2108 C   0  0  0  0  0  0  0  0  0  0  0  0
   26.0688  -19.4724  -17.7125 O   0  0  0  0  0  0  0  0  0  0  0  0
   27.0988  -22.6608  -14.9387 N   0  0  0  0  0  0  0  0  0  0  0  0
   27.7015  -21.7617  -15.8583 C   0  0  0  0  0  0  0  0  0  0  0  0
   28.4799  -22.1809  -16.7421 O   0  0  0  0  0  0  0  0  0  0  0  0
   27.3899  -20.3397  -15.7475 C   0  0  0  0  0  0  0  0  0  0  0  0
   26.4080  -19.9615  -14.6971 C   0  0  0  0  0  0  0  0  0  0  0  0
   24.9883  -19.8037  -15.1762 C   0  0  2  0  0  0  0  0  0  0  0  0
   24.9020  -18.5960  -15.9585 N   0  0  0  0  0  0  0  0  0  0  0  0
   24.0557  -19.8065  -14.0016 C   0  0  0  0  0  0  0  0  0  0  0  0
   24.1997  -19.0052  -13.0781 O   0  0  0  0  0  0  0  0  0  0  0  0
   20.2699  -19.2050  -10.1434 C   0  0  0  0  0  0  0  0  0  0  0  0
   19.8739  -18.0214  -11.4864 S   0  0  0  0  0  0  0  0  0  0  0  0
   19.8047  -18.9681  -13.0187 C   0  0  0  0  0  0  0  0  0  0  0  0
   21.1300  -19.2432  -13.6154 C   0  0  0  0  0  0  0  0  0  0  0  0
   21.7236  -20.5261  -13.2986 C   0  0  2  0  0  0  0  0  0  0  0  0
   23.0164  -20.7280  -13.9594 N   0  0  0  0  0  0  0  0  0  0  0  0
   20.9302  -21.7153  -13.5288 C   0  0  0  0  0  0  0  0  0  0  0  0
   19.9875  -22.0917  -12.5332 O   0  0  0  0  0  0  0  0  0  0  0  0
   20.9725  -22.4809  -14.5300 O   0  0  0  0  0  0  0  0  0  0  0  0
  2  1  1  0
  3  2  1  0
  3  4  1  6
  5  6  2  0
  5  3  1  0
  7  8  1  0
  8 10  1  0
  9  8  2  0
 10 11  1  0
 12 11  1  1
 12 13  1  0
 13  5  1  0
 14 12  1  0
 15 14  2  0
 16 17  1  0
 17 18  1  0
 19 18  1  0
 20 19  1  6
 20 21  1  0
 20 22  1  0
 21 14  1  0
 22 23  1  0
 24 22  2  0
M  END
$$$$
