SQM.pdb
     RDKit          3D

 24 23  0  0  1  0  0  0  0  0999 V2000
   21.7163  -24.3540  -13.2509 O   0  0  0  0  0  0  0  0  0  0  0  0
   22.7954  -24.5482  -14.1094 C   0  0  0  0  0  0  0  0  0  0  0  0
   22.4615  -24.0276  -15.4737 C   0  0  2  0  0  0  0  0  0  0  0  0
   21.2080  -24.5648  -15.8986 N   0  0  0  0  0  0  0  0  0  0  0  0
   23.5252  -24.3457  -16.4642 C   0  0  0  0  0  0  0  0  0  0  0  0
   23.3607  -24.2490  -17.6973 O   0  0  0  0  0  0  0  0  0  0  0  0
   29.6734  -23.4830  -18.7050 N   0  0  0  0  0  0  0  0  0  0  0  0
   28.5054  -22.8303  -18.2287 C   0  0  0  0  0  0  0  0  0  0  0  0
   28.5902  -21.7626  -17.5839 O   0  0  0  0  0  0  0  0  0  0  0  0
   27.2064  -23.4342  -18.5104 C   0  0  0  0  0  0  0  0  0  0  0  0
   26.2436  -23.4809  -17.3786 C   0  0  0  0  0  0  0  0  0  0  0  0
   25.9410  -24.8602  -16.8533 C   0  0  2  0  0  0  0  0  0  0  0  0
   24.7853  -24.7788  -15.9956 N   0  0  0  0  0  0  0  0  0  0  0  0
   27.1488  -25.4109  -16.1551 C   0  0  0  0  0  0  0  0  0  0  0  0
   27.2557  -25.3453  -14.9303 O   0  0  0  0  0  0  0  0  0  0  0  0
   27.5461  -32.5789  -16.2114 C   0  0  0  0  0  0  0  0  0  0  0  0
   26.8229  -30.9457  -16.6249 S   0  0  0  0  0  0  0  0  0  0  0  0
   28.0197  -29.6969  -16.1182 C   0  0  0  0  0  0  0  0  0  0  0  0
   27.5978  -28.3087  -16.4060 C   0  0  0  0  0  0  0  0  0  0  0  0
   28.6519  -27.3728  -16.7402 C   0  0  2  0  0  0  0  0  0  0  0  0
   28.1582  -26.0024  -16.9048 N   0  0  0  0  0  0  0  0  0  0  0  0
   29.4861  -27.6721  -17.8852 C   0  0  0  0  0  0  0  0  0  0  0  0
   30.8533  -27.9842  -17.6515 O   0  0  0  0  0  0  0  0  0  0  0  0
   29.1418  -27.6906  -19.0983 O   0  0  0  0  0  0  0  0  0  0  0  0
  2  1  1  0
  3  2  1  0
  3  4  1  6
  5  6  2  0
  5  3  1  0
  7  8  1  0
  8 10  1  0
  9  8  2  0
 10 11  1  0
 12 11  1  1
 12 13  1  0
 13  5  1  0
 14 12  1  0
 15 14  2  0
 16 17  1  0
 17 18  1  0
 19 18  1  0
 20 19  1  6
 20 21  1  0
 20 22  1  0
 21 14  1  0
 22 23  1  0
 24 22  2  0
M  END
$$$$
