SQM.pdb
     RDKit          3D

 24 23  0  0  1  0  0  0  0  0999 V2000
   13.4649  -11.7677  -11.1364 O   0  0  0  0  0  0  0  0  0  0  0  0
   13.7053  -10.3994  -11.2317 C   0  0  0  0  0  0  0  0  0  0  0  0
   15.1305  -10.1062  -10.8758 C   0  0  2  0  0  0  0  0  0  0  0  0
   15.3839  -10.5186   -9.5319 N   0  0  0  0  0  0  0  0  0  0  0  0
   15.4598   -8.6654  -11.0476 C   0  0  0  0  0  0  0  0  0  0  0  0
   15.4347   -8.0864  -12.1526 O   0  0  0  0  0  0  0  0  0  0  0  0
   13.9083   -4.3250   -7.0329 N   0  0  0  0  0  0  0  0  0  0  0  0
   14.8108   -3.5923   -7.8488 C   0  0  0  0  0  0  0  0  0  0  0  0
   14.9277   -2.3547   -7.7171 O   0  0  0  0  0  0  0  0  0  0  0  0
   15.5976   -4.3177   -8.8420 C   0  0  0  0  0  0  0  0  0  0  0  0
   15.4411   -5.7960   -8.8529 C   0  0  0  0  0  0  0  0  0  0  0  0
   16.1352   -6.5040   -9.9873 C   0  0  2  0  0  0  0  0  0  0  0  0
   15.8193   -7.9083   -9.9107 N   0  0  0  0  0  0  0  0  0  0  0  0
   17.6090   -6.2327   -9.9255 C   0  0  0  0  0  0  0  0  0  0  0  0
   18.2862   -6.6321   -8.9781 O   0  0  0  0  0  0  0  0  0  0  0  0
   23.2166   -9.2850  -13.2667 C   0  0  0  0  0  0  0  0  0  0  0  0
   21.4906   -9.1363  -12.6666 S   0  0  0  0  0  0  0  0  0  0  0  0
   21.2145   -7.3966  -12.2845 C   0  0  0  0  0  0  0  0  0  0  0  0
   19.8774   -7.1103  -11.7205 C   0  0  0  0  0  0  0  0  0  0  0  0
   19.5827   -5.7200  -11.4396 C   0  0  2  0  0  0  0  0  0  0  0  0
   18.2141   -5.5205  -10.9539 N   0  0  0  0  0  0  0  0  0  0  0  0
   19.8132   -4.7523  -12.4918 C   0  0  0  0  0  0  0  0  0  0  0  0
   21.1299   -4.2399  -12.6505 O   0  0  0  0  0  0  0  0  0  0  0  0
   18.9681   -4.2939  -13.3078 O   0  0  0  0  0  0  0  0  0  0  0  0
  2  1  1  0
  3  2  1  0
  3  4  1  1
  5  6  2  0
  5  3  1  0
  7  8  1  0
  8 10  1  0
  9  8  2  0
 10 11  1  0
 12 11  1  1
 12 13  1  0
 13  5  1  0
 14 12  1  0
 15 14  2  0
 16 17  1  0
 17 18  1  0
 19 18  1  0
 20 19  1  6
 20 21  1  0
 20 22  1  0
 21 14  1  0
 22 23  1  0
 24 22  2  0
M  END
$$$$
