SQM.pdb
     RDKit          3D

 24 23  0  0  1  0  0  0  0  0999 V2000
   25.2767  -12.7388  -18.8667 O   0  0  0  0  0  0  0  0  0  0  0  0
   24.5826  -11.5459  -18.6815 C   0  0  0  0  0  0  0  0  0  0  0  0
   23.1898  -11.6781  -19.2167 C   0  0  2  0  0  0  0  0  0  0  0  0
   23.2185  -11.6368  -20.6443 N   0  0  0  0  0  0  0  0  0  0  0  0
   22.2886  -10.6205  -18.6848 C   0  0  0  0  0  0  0  0  0  0  0  0
   22.3020   -9.4423  -19.0954 O   0  0  0  0  0  0  0  0  0  0  0  0
   17.4595  -11.8440  -14.6982 N   0  0  0  0  0  0  0  0  0  0  0  0
   17.5246  -10.4253  -14.6921 C   0  0  0  0  0  0  0  0  0  0  0  0
   16.6484   -9.7498  -14.1101 O   0  0  0  0  0  0  0  0  0  0  0  0
   18.6374   -9.7763  -15.3791 C   0  0  0  0  0  0  0  0  0  0  0  0
   19.5556  -10.6699  -16.1333 C   0  0  0  0  0  0  0  0  0  0  0  0
   20.5867   -9.9637  -16.9747 C   0  0  2  0  0  0  0  0  0  0  0  0
   21.3702  -10.9568  -17.6658 N   0  0  0  0  0  0  0  0  0  0  0  0
   21.4168   -9.0648  -16.1073 C   0  0  0  0  0  0  0  0  0  0  0  0
   22.4449   -9.4775  -15.5703 O   0  0  0  0  0  0  0  0  0  0  0  0
   26.3892   -3.8973  -16.8342 C   0  0  0  0  0  0  0  0  0  0  0  0
   25.3742   -5.3451  -17.3190 S   0  0  0  0  0  0  0  0  0  0  0  0
   23.9680   -5.4027  -16.1930 C   0  0  0  0  0  0  0  0  0  0  0  0
   23.0202   -6.5037  -16.4712 C   0  0  0  0  0  0  0  0  0  0  0  0
   21.8990   -6.6313  -15.5628 C   0  0  2  0  0  0  0  0  0  0  0  0
   21.0162   -7.7489  -15.9100 N   0  0  0  0  0  0  0  0  0  0  0  0
   21.0619   -5.4688  -15.3518 C   0  0  0  0  0  0  0  0  0  0  0  0
   19.9675   -5.2650  -16.2363 O   0  0  0  0  0  0  0  0  0  0  0  0
   21.1860   -4.5893  -14.4566 O   0  0  0  0  0  0  0  0  0  0  0  0
  2  1  1  0
  3  2  1  0
  3  4  1  6
  5  6  2  0
  5  3  1  0
  7  8  1  0
  8 10  1  0
  9  8  2  0
 10 11  1  0
 12 11  1  1
 12 13  1  0
 13  5  1  0
 14 12  1  0
 15 14  2  0
 16 17  1  0
 17 18  1  0
 19 18  1  0
 20 19  1  6
 20 21  1  0
 20 22  1  0
 21 14  1  0
 22 23  1  0
 24 22  2  0
M  END
$$$$
