DMV.pdb
     RDKit          3D

 24 23  0  0  1  0  0  0  0  0999 V2000
   44.0621  -11.7654   -7.1244 N   0  0  0  0  0  0  0  0  0  0  0  0
   43.5704  -10.4776   -6.6732 C   0  0  1  0  0  0  0  0  0  0  0  0
   44.6554   -9.4222   -6.7531 C   0  0  0  0  0  0  0  0  0  0  0  0
   45.7676   -9.6979   -5.8198 C   0  0  0  0  0  0  0  0  0  0  0  0
   46.9424   -9.8534   -6.2731 O   0  0  0  0  0  0  0  0  0  0  0  0
   42.4495  -10.0641   -7.5492 C   0  0  0  0  0  0  0  0  0  0  0  0
   42.4435  -10.3983   -8.7721 O   0  0  0  0  0  0  0  0  0  0  0  0
   45.6126   -9.8015   -4.4445 O   0  0  0  0  0  0  0  0  0  0  0  0
   36.3137  -11.8727   -7.9564 C   0  0  0  0  0  0  0  0  0  0  0  0
   37.3479  -11.7504   -6.4649 S   0  0  0  0  0  0  0  0  0  0  0  0
   38.9393  -11.0689   -6.9540 C   0  0  0  0  0  0  0  0  0  0  0  0
   38.9521   -9.6175   -7.2431 C   0  0  0  0  0  0  0  0  0  0  0  0
   40.1961   -9.0321   -7.8023 C   0  0  2  0  0  0  0  0  0  0  0  0
   41.3770   -9.2931   -7.0279 N   0  0  0  0  0  0  0  0  0  0  0  0
   40.0946   -7.5700   -8.0492 C   0  0  0  0  0  0  0  0  0  0  0  0
   40.4330   -6.7466   -7.1487 O   0  0  0  0  0  0  0  0  0  0  0  0
   39.5981   -3.6281  -10.8878 C   0  0  0  0  0  0  0  0  0  0  0  0
   39.7297   -5.1358  -10.8431 C   0  0  1  0  0  0  0  0  0  0  0  0
   41.0926   -5.4925  -11.3844 C   0  0  0  0  0  0  0  0  0  0  0  0
   39.5342   -5.5860   -9.4208 C   0  0  2  0  0  0  0  0  0  0  0  0
   39.6267   -7.0212   -9.2723 N   0  0  0  0  0  0  0  0  0  0  0  0
   38.2191   -5.1388   -8.9384 C   0  0  0  0  0  0  0  0  0  0  0  0
   37.2028   -5.8154   -9.1855 O   0  0  0  0  0  0  0  0  0  0  0  0
   38.1058   -3.9762   -8.2155 O   0  0  0  0  0  0  0  0  0  0  0  0
  2  1  1  6
  2  3  1  0
  4  3  1  0
  4  8  1  0
  5  4  2  0
  6  7  2  0
  6  2  1  0
  9 10  1  0
 10 11  1  0
 11 12  1  0
 13 12  1  1
 13 14  1  0
 14  6  1  0
 15 13  1  0
 15 21  1  0
 16 15  2  0
 18 17  1  1
 18 20  1  0
 19 18  1  0
 20 21  1  6
 20 22  1  0
 22 24  1  0
 23 22  2  0
M  END
$$$$
