DMV.pdb
     RDKit          3D

 24 23  0  0  1  0  0  0  0  0999 V2000
   21.8772  -17.6498  -16.7550 N   0  0  0  0  0  0  0  0  0  0  0  0
   21.6694  -18.2859  -15.4682 C   0  0  1  0  0  0  0  0  0  0  0  0
   20.4425  -19.1758  -15.4926 C   0  0  0  0  0  0  0  0  0  0  0  0
   19.2011  -18.4036  -15.7090 C   0  0  0  0  0  0  0  0  0  0  0  0
   19.2731  -17.1899  -16.0718 O   0  0  0  0  0  0  0  0  0  0  0  0
   22.8502  -19.1247  -15.1572 C   0  0  0  0  0  0  0  0  0  0  0  0
   22.6986  -20.2473  -14.5879 O   0  0  0  0  0  0  0  0  0  0  0  0
   17.9274  -18.9275  -15.5383 O   0  0  0  0  0  0  0  0  0  0  0  0
   28.4866  -18.6994  -18.2741 C   0  0  0  0  0  0  0  0  0  0  0  0
   29.1589  -19.4917  -16.7810 S   0  0  0  0  0  0  0  0  0  0  0  0
   27.7837  -19.8296  -15.6715 C   0  0  0  0  0  0  0  0  0  0  0  0
   26.5223  -19.1204  -15.9817 C   0  0  0  0  0  0  0  0  0  0  0  0
   25.3178  -19.4664  -15.1864 C   0  0  2  0  0  0  0  0  0  0  0  0
   24.1562  -18.6797  -15.4930 N   0  0  0  0  0  0  0  0  0  0  0  0
   25.5544  -19.4259  -13.7196 C   0  0  0  0  0  0  0  0  0  0  0  0
   25.5718  -18.3177  -13.1073 O   0  0  0  0  0  0  0  0  0  0  0  0
   25.3599  -20.8821   -9.2123 C   0  0  0  0  0  0  0  0  0  0  0  0
   24.9705  -21.0683  -10.6635 C   0  0  1  0  0  0  0  0  0  0  0  0
   23.6247  -20.4151  -10.8637 C   0  0  0  0  0  0  0  0  0  0  0  0
   26.0445  -20.4597  -11.5236 C   0  0  2  0  0  0  0  0  0  0  0  0
   25.7687  -20.5909  -12.9367 N   0  0  0  0  0  0  0  0  0  0  0  0
   27.3351  -21.0986  -11.2265 C   0  0  0  0  0  0  0  0  0  0  0  0
   27.7041  -22.0904  -11.8836 O   0  0  0  0  0  0  0  0  0  0  0  0
   28.1372  -20.6062  -10.2259 O   0  0  0  0  0  0  0  0  0  0  0  0
  2  1  1  6
  2  3  1  0
  4  3  1  0
  4  8  1  0
  5  4  2  0
  6  7  2  0
  6  2  1  0
  9 10  1  0
 10 11  1  0
 11 12  1  0
 13 12  1  6
 13 14  1  0
 14  6  1  0
 15 13  1  0
 15 21  1  0
 16 15  2  0
 18 17  1  1
 18 20  1  0
 19 18  1  0
 20 21  1  6
 20 22  1  0
 22 24  1  0
 23 22  2  0
M  END
$$$$
