DMV.pdb
     RDKit          3D

 24 23  0  0  1  0  0  0  0  0999 V2000
   20.3754  -19.7251  -13.1957 N   0  0  0  0  0  0  0  0  0  0  0  0
   21.1426  -20.7802  -12.5618 C   0  0  1  0  0  0  0  0  0  0  0  0
   21.2224  -22.0050  -13.4512 C   0  0  0  0  0  0  0  0  0  0  0  0
   20.0035  -22.8358  -13.3621 C   0  0  0  0  0  0  0  0  0  0  0  0
   19.0614  -22.4857  -12.5876 O   0  0  0  0  0  0  0  0  0  0  0  0
   22.5183  -20.2868  -12.3197 C   0  0  0  0  0  0  0  0  0  0  0  0
   22.9379  -19.2550  -12.9250 O   0  0  0  0  0  0  0  0  0  0  0  0
   19.8119  -24.0042  -14.0862 O   0  0  0  0  0  0  0  0  0  0  0  0
   28.7657  -19.7068   -7.6578 C   0  0  0  0  0  0  0  0  0  0  0  0
   27.0961  -20.4142   -7.8035 S   0  0  0  0  0  0  0  0  0  0  0  0
   26.6545  -20.4261   -9.5474 C   0  0  0  0  0  0  0  0  0  0  0  0
   25.2705  -20.8516   -9.8539 C   0  0  0  0  0  0  0  0  0  0  0  0
   24.7297  -20.5370  -11.1998 C   0  0  2  0  0  0  0  0  0  0  0  0
   23.3747  -20.9633  -11.4111 N   0  0  0  0  0  0  0  0  0  0  0  0
   25.5765  -21.0554  -12.3059 C   0  0  0  0  0  0  0  0  0  0  0  0
   25.4698  -22.2607  -12.6789 O   0  0  0  0  0  0  0  0  0  0  0  0
   26.1233  -19.0405  -15.6306 C   0  0  0  0  0  0  0  0  0  0  0  0
   27.4336  -19.6632  -15.1976 C   0  0  1  0  0  0  0  0  0  0  0  0
   28.2905  -18.5666  -14.6134 C   0  0  0  0  0  0  0  0  0  0  0  0
   27.1342  -20.7554  -14.2072 C   0  0  2  0  0  0  0  0  0  0  0  0
   26.5283  -20.2567  -12.9929 N   0  0  0  0  0  0  0  0  0  0  0  0
   28.3758  -21.4654  -13.8658 C   0  0  0  0  0  0  0  0  0  0  0  0
   28.8811  -21.3269  -12.7357 O   0  0  0  0  0  0  0  0  0  0  0  0
   28.9823  -22.2821  -14.7890 O   0  0  0  0  0  0  0  0  0  0  0  0
  2  1  1  6
  2  3  1  0
  4  3  1  0
  4  8  1  0
  5  4  2  0
  6  7  2  0
  6  2  1  0
  9 10  1  0
 10 11  1  0
 11 12  1  0
 13 12  1  1
 13 14  1  0
 14  6  1  0
 15 13  1  0
 15 21  1  0
 16 15  2  0
 18 17  1  1
 18 20  1  0
 19 18  1  0
 20 21  1  1
 20 22  1  0
 22 24  1  0
 23 22  2  0
M  END
$$$$
