DMV.pdb
     RDKit          3D

 24 23  0  0  1  0  0  0  0  0999 V2000
   20.9314  -13.2795  -17.3147 N   0  0  0  0  0  0  0  0  0  0  0  0
   20.7149  -11.9725  -17.9050 C   0  0  1  0  0  0  0  0  0  0  0  0
   19.3091  -11.4769  -17.6296 C   0  0  0  0  0  0  0  0  0  0  0  0
   18.2906  -12.2671  -18.3524 C   0  0  0  0  0  0  0  0  0  0  0  0
   18.6413  -12.9999  -19.3271 O   0  0  0  0  0  0  0  0  0  0  0  0
   21.6743  -11.0161  -17.3055 C   0  0  0  0  0  0  0  0  0  0  0  0
   21.9228  -11.0615  -16.0632 O   0  0  0  0  0  0  0  0  0  0  0  0
   16.9406  -12.2635  -18.0309 O   0  0  0  0  0  0  0  0  0  0  0  0
   28.1753   -6.7879  -18.4524 C   0  0  0  0  0  0  0  0  0  0  0  0
   27.0084   -7.9870  -19.1663 S   0  0  0  0  0  0  0  0  0  0  0  0
   25.6324   -8.1638  -18.0211 C   0  0  0  0  0  0  0  0  0  0  0  0
   24.5547   -9.0816  -18.4527 C   0  0  0  0  0  0  0  0  0  0  0  0
   23.3543   -9.1981  -17.5877 C   0  0  2  0  0  0  0  0  0  0  0  0
   22.3209  -10.0447  -18.1147 N   0  0  0  0  0  0  0  0  0  0  0  0
   22.7633   -7.8827  -17.2276 C   0  0  0  0  0  0  0  0  0  0  0  0
   22.1982   -7.1744  -18.1121 O   0  0  0  0  0  0  0  0  0  0  0  0
   21.4030   -7.0561  -13.4486 C   0  0  0  0  0  0  0  0  0  0  0  0
   20.9036   -6.3601  -14.6970 C   0  0  1  0  0  0  0  0  0  0  0  0
   20.2430   -5.0721  -14.2697 C   0  0  0  0  0  0  0  0  0  0  0  0
   22.0748   -6.1350  -15.6142 C   0  0  2  0  0  0  0  0  0  0  0  0
   22.7938   -7.3539  -15.9102 N   0  0  0  0  0  0  0  0  0  0  0  0
   23.0007   -5.1695  -15.0037 C   0  0  0  0  0  0  0  0  0  0  0  0
   24.0908   -5.5585  -14.5434 O   0  0  0  0  0  0  0  0  0  0  0  0
   22.6684   -3.8382  -14.9383 O   0  0  0  0  0  0  0  0  0  0  0  0
  2  1  1  1
  2  3  1  0
  4  3  1  0
  4  8  1  0
  5  4  2  0
  6  7  2  0
  6  2  1  0
  9 10  1  0
 10 11  1  0
 11 12  1  0
 13 12  1  6
 13 14  1  0
 14  6  1  0
 15 13  1  0
 15 21  1  0
 16 15  2  0
 18 17  1  1
 18 20  1  0
 19 18  1  0
 20 21  1  1
 20 22  1  0
 22 24  1  0
 23 22  2  0
M  END
$$$$
