DMV.pdb
     RDKit          3D

 24 23  0  0  1  0  0  0  0  0999 V2000
   21.3117  -14.7682  -17.2872 N   0  0  0  0  0  0  0  0  0  0  0  0
   21.3655  -13.4778  -17.9474 C   0  0  1  0  0  0  0  0  0  0  0  0
   20.0228  -13.1196  -18.5528 C   0  0  0  0  0  0  0  0  0  0  0  0
   19.5850  -14.1107  -19.5578 C   0  0  0  0  0  0  0  0  0  0  0  0
   20.3660  -14.4291  -20.5058 O   0  0  0  0  0  0  0  0  0  0  0  0
   21.7173  -12.4458  -16.9445 C   0  0  0  0  0  0  0  0  0  0  0  0
   21.0881  -12.3888  -15.8455 O   0  0  0  0  0  0  0  0  0  0  0  0
   18.3455  -14.7347  -19.5366 O   0  0  0  0  0  0  0  0  0  0  0  0
   27.7805  -11.0123  -16.5679 C   0  0  0  0  0  0  0  0  0  0  0  0
   27.0435  -11.9000  -15.1615 S   0  0  0  0  0  0  0  0  0  0  0  0
   25.2582  -11.8946  -15.3827 C   0  0  0  0  0  0  0  0  0  0  0  0
   24.6882  -10.6543  -15.9545 C   0  0  0  0  0  0  0  0  0  0  0  0
   23.2241  -10.6093  -16.1938 C   0  0  2  0  0  0  0  0  0  0  0  0
   22.7584  -11.5159  -17.2054 N   0  0  0  0  0  0  0  0  0  0  0  0
   22.7239   -9.2441  -16.5022 C   0  0  0  0  0  0  0  0  0  0  0  0
   23.1450   -8.6270  -17.5246 O   0  0  0  0  0  0  0  0  0  0  0  0
   20.0347   -7.9829  -17.9664 C   0  0  0  0  0  0  0  0  0  0  0  0
   19.9911   -7.1894  -16.6777 C   0  0  1  0  0  0  0  0  0  0  0  0
   18.9305   -7.8042  -15.7974 C   0  0  0  0  0  0  0  0  0  0  0  0
   21.3587   -7.2279  -16.0517 C   0  0  2  0  0  0  0  0  0  0  0  0
   21.7716   -8.5669  -15.6955 N   0  0  0  0  0  0  0  0  0  0  0  0
   21.3729   -6.3862  -14.8462 C   0  0  0  0  0  0  0  0  0  0  0  0
   21.2304   -5.1528  -14.9469 O   0  0  0  0  0  0  0  0  0  0  0  0
   21.5432   -6.9544  -13.6072 O   0  0  0  0  0  0  0  0  0  0  0  0
  2  1  1  1
  2  3  1  0
  4  3  1  0
  4  8  1  0
  5  4  2  0
  6  7  2  0
  6  2  1  0
  9 10  1  0
 10 11  1  0
 11 12  1  0
 13 12  1  6
 13 14  1  0
 14  6  1  0
 15 13  1  0
 15 21  1  0
 16 15  2  0
 18 17  1  6
 18 20  1  0
 19 18  1  0
 20 21  1  1
 20 22  1  0
 22 24  1  0
 23 22  2  0
M  END
$$$$
