DMV.pdb
     RDKit          3D

 24 23  0  0  1  0  0  0  0  0999 V2000
   28.3197  -21.6765  -16.1326 N   0  0  0  0  0  0  0  0  0  0  0  0
   27.7016  -20.5706  -15.4264 C   0  0  1  0  0  0  0  0  0  0  0  0
   27.0156  -19.6239  -16.3912 C   0  0  0  0  0  0  0  0  0  0  0  0
   27.9782  -18.9557  -17.2918 C   0  0  0  0  0  0  0  0  0  0  0  0
   27.5980  -18.5672  -18.4384 O   0  0  0  0  0  0  0  0  0  0  0  0
   26.6828  -21.1112  -14.4967 C   0  0  0  0  0  0  0  0  0  0  0  0
   25.8036  -21.9205  -14.9200 O   0  0  0  0  0  0  0  0  0  0  0  0
   29.3050  -18.7170  -16.9622 O   0  0  0  0  0  0  0  0  0  0  0  0
   26.3035  -19.5018   -8.0108 C   0  0  0  0  0  0  0  0  0  0  0  0
   25.4204  -21.0912   -8.0676 S   0  0  0  0  0  0  0  0  0  0  0  0
   24.9961  -21.4233   -9.7839 C   0  0  0  0  0  0  0  0  0  0  0  0
   25.9754  -20.9507  -10.7879 C   0  0  0  0  0  0  0  0  0  0  0  0
   25.6736  -21.1950  -12.2204 C   0  0  2  0  0  0  0  0  0  0  0  0
   26.6830  -20.7285  -13.1292 N   0  0  0  0  0  0  0  0  0  0  0  0
   24.3564  -20.6501  -12.6415 C   0  0  0  0  0  0  0  0  0  0  0  0
   24.2194  -19.4099  -12.8574 O   0  0  0  0  0  0  0  0  0  0  0  0
   21.7263  -22.7151  -14.9385 C   0  0  0  0  0  0  0  0  0  0  0  0
   21.7700  -21.2080  -14.8006 C   0  0  1  0  0  0  0  0  0  0  0  0
   20.4661  -20.6620  -15.3295 C   0  0  0  0  0  0  0  0  0  0  0  0
   21.9945  -20.8716  -13.3514 C   0  0  2  0  0  0  0  0  0  0  0  0
   23.2047  -21.4604  -12.8231 N   0  0  0  0  0  0  0  0  0  0  0  0
   20.8491  -21.3353  -12.5544 C   0  0  0  0  0  0  0  0  0  0  0  0
   20.9947  -22.2654  -11.7386 O   0  0  0  0  0  0  0  0  0  0  0  0
   19.6171  -20.7469  -12.7056 O   0  0  0  0  0  0  0  0  0  0  0  0
  2  1  1  6
  2  3  1  0
  4  3  1  0
  4  8  1  0
  5  4  2  0
  6  7  2  0
  6  2  1  0
  9 10  1  0
 10 11  1  0
 11 12  1  0
 13 12  1  1
 13 14  1  0
 14  6  1  0
 15 13  1  0
 15 21  1  0
 16 15  2  0
 18 17  1  1
 18 20  1  0
 19 18  1  0
 20 21  1  1
 20 22  1  0
 22 24  1  0
 23 22  2  0
M  END
$$$$
