DMV.pdb
     RDKit          3D

 24 23  0  0  1  0  0  0  0  0999 V2000
   28.0555  -18.8603  -17.5038 N   0  0  0  0  0  0  0  0  0  0  0  0
   27.2070  -19.9578  -17.0804 C   0  0  1  0  0  0  0  0  0  0  0  0
   27.9970  -20.9842  -16.2929 C   0  0  0  0  0  0  0  0  0  0  0  0
   28.5517  -22.0433  -17.1616 C   0  0  0  0  0  0  0  0  0  0  0  0
   28.3343  -22.0069  -18.4112 O   0  0  0  0  0  0  0  0  0  0  0  0
   26.1366  -19.4210  -16.2083 C   0  0  0  0  0  0  0  0  0  0  0  0
   26.4153  -18.5658  -15.3149 O   0  0  0  0  0  0  0  0  0  0  0  0
   29.3147  -23.1038  -16.6934 O   0  0  0  0  0  0  0  0  0  0  0  0
   19.8405  -17.3428  -17.4308 C   0  0  0  0  0  0  0  0  0  0  0  0
   19.7003  -18.7002  -16.2280 S   0  0  0  0  0  0  0  0  0  0  0  0
   21.2696  -18.8278  -15.3578 C   0  0  0  0  0  0  0  0  0  0  0  0
   22.4337  -19.2056  -16.1899 C   0  0  0  0  0  0  0  0  0  0  0  0
   23.7443  -19.3749  -15.5142 C   0  0  2  0  0  0  0  0  0  0  0  0
   24.7947  -19.8585  -16.3656 N   0  0  0  0  0  0  0  0  0  0  0  0
   23.6710  -20.2336  -14.3032 C   0  0  0  0  0  0  0  0  0  0  0  0
   23.5973  -21.4925  -14.4183 O   0  0  0  0  0  0  0  0  0  0  0  0
   24.5418  -21.1180   -9.6072 C   0  0  0  0  0  0  0  0  0  0  0  0
   24.6682  -20.1701  -10.7810 C   0  0  1  0  0  0  0  0  0  0  0  0
   26.1091  -20.1871  -11.2299 C   0  0  0  0  0  0  0  0  0  0  0  0
   23.7196  -20.6213  -11.8581 C   0  0  2  0  0  0  0  0  0  0  0  0
   23.6793  -19.7131  -12.9823 N   0  0  0  0  0  0  0  0  0  0  0  0
   22.3656  -20.7519  -11.2996 C   0  0  0  0  0  0  0  0  0  0  0  0
   21.4981  -19.8984  -11.5653 O   0  0  0  0  0  0  0  0  0  0  0  0
   22.0524  -21.8124  -10.4846 O   0  0  0  0  0  0  0  0  0  0  0  0
  2  1  1  1
  2  3  1  0
  4  3  1  0
  4  8  1  0
  5  4  2  0
  6  7  2  0
  6  2  1  0
  9 10  1  0
 10 11  1  0
 11 12  1  0
 13 12  1  6
 13 14  1  0
 14  6  1  0
 15 13  1  0
 15 21  1  0
 16 15  2  0
 18 17  1  1
 18 20  1  0
 19 18  1  0
 20 21  1  6
 20 22  1  0
 22 24  1  0
 23 22  2  0
M  END
$$$$
