DMV.pdb
     RDKit          3D

 24 23  0  0  1  0  0  0  0  0999 V2000
   19.9811  -20.3736  -11.1003 N   0  0  0  0  0  0  0  0  0  0  0  0
   20.7821  -21.2874  -11.8922 C   0  0  1  0  0  0  0  0  0  0  0  0
   20.0918  -21.6242  -13.1990 C   0  0  0  0  0  0  0  0  0  0  0  0
   19.2702  -22.8481  -13.0932 C   0  0  0  0  0  0  0  0  0  0  0  0
   19.1880  -23.4537  -11.9812 O   0  0  0  0  0  0  0  0  0  0  0  0
   22.0774  -20.6381  -12.2007 C   0  0  0  0  0  0  0  0  0  0  0  0
   22.1594  -19.3737  -12.2413 O   0  0  0  0  0  0  0  0  0  0  0  0
   18.5629  -23.3962  -14.1540 O   0  0  0  0  0  0  0  0  0  0  0  0
   29.7099  -20.4966  -10.9838 C   0  0  0  0  0  0  0  0  0  0  0  0
   28.1809  -21.4564  -10.7597 S   0  0  0  0  0  0  0  0  0  0  0  0
   26.9539  -20.8111  -11.9060 C   0  0  0  0  0  0  0  0  0  0  0  0
   25.5850  -21.3512  -11.7486 C   0  0  0  0  0  0  0  0  0  0  0  0
   24.5230  -20.8210  -12.6397 C   0  0  2  0  0  0  0  0  0  0  0  0
   23.2331  -21.4240  -12.4523 N   0  0  0  0  0  0  0  0  0  0  0  0
   24.8817  -20.8875  -14.0806 C   0  0  0  0  0  0  0  0  0  0  0  0
   24.8620  -21.9964  -14.6916 O   0  0  0  0  0  0  0  0  0  0  0  0
   23.3869  -19.0389  -17.0020 C   0  0  0  0  0  0  0  0  0  0  0  0
   24.8854  -18.8422  -17.0920 C   0  0  1  0  0  0  0  0  0  0  0  0
   25.1918  -17.4399  -16.6256 C   0  0  0  0  0  0  0  0  0  0  0  0
   25.5523  -19.8934  -16.2470 C   0  0  2  0  0  0  0  0  0  0  0  0
   25.2571  -19.7475  -14.8392 N   0  0  0  0  0  0  0  0  0  0  0  0
   27.0087  -19.8299  -16.4396 C   0  0  0  0  0  0  0  0  0  0  0  0
   27.7123  -19.1700  -15.6515 O   0  0  0  0  0  0  0  0  0  0  0  0
   27.5981  -20.4960  -17.4865 O   0  0  0  0  0  0  0  0  0  0  0  0
  2  1  1  1
  2  3  1  0
  4  3  1  0
  4  8  1  0
  5  4  2  0
  6  7  2  0
  6  2  1  0
  9 10  1  0
 10 11  1  0
 11 12  1  0
 13 12  1  1
 13 14  1  0
 14  6  1  0
 15 13  1  0
 15 21  1  0
 16 15  2  0
 18 17  1  1
 18 20  1  0
 19 18  1  0
 20 21  1  1
 20 22  1  0
 22 24  1  0
 23 22  2  0
M  END
$$$$
