DMV.pdb
     RDKit          3D

 24 23  0  0  1  0  0  0  0  0999 V2000
   17.8816   -9.8244  -16.5417 N   0  0  0  0  0  0  0  0  0  0  0  0
   17.8470   -8.4618  -16.0458 C   0  0  1  0  0  0  0  0  0  0  0  0
   16.5232   -7.7981  -16.3692 C   0  0  0  0  0  0  0  0  0  0  0  0
   16.5050   -7.2321  -17.7342 C   0  0  0  0  0  0  0  0  0  0  0  0
   17.5063   -7.3993  -18.4955 O   0  0  0  0  0  0  0  0  0  0  0  0
   18.0103   -8.4882  -14.5736 C   0  0  0  0  0  0  0  0  0  0  0  0
   17.4809   -9.4177  -13.8932 O   0  0  0  0  0  0  0  0  0  0  0  0
   15.4403   -6.5109  -18.2560 O   0  0  0  0  0  0  0  0  0  0  0  0
   23.5493  -10.4350  -12.4824 C   0  0  0  0  0  0  0  0  0  0  0  0
   22.8370   -8.8613  -11.9121 S   0  0  0  0  0  0  0  0  0  0  0  0
   21.1251   -8.8017  -12.4617 C   0  0  0  0  0  0  0  0  0  0  0  0
   20.3671   -7.5945  -12.0635 C   0  0  0  0  0  0  0  0  0  0  0  0
   18.9498   -7.4921  -12.4923 C   0  0  2  0  0  0  0  0  0  0  0  0
   18.7584   -7.4764  -13.9155 N   0  0  0  0  0  0  0  0  0  0  0  0
   18.2417   -6.3285  -11.8975 C   0  0  0  0  0  0  0  0  0  0  0  0
   18.3102   -5.1908  -12.4492 O   0  0  0  0  0  0  0  0  0  0  0  0
   14.7692   -6.5366   -9.7105 C   0  0  0  0  0  0  0  0  0  0  0  0
   15.2948   -5.3082  -10.4228 C   0  0  1  0  0  0  0  0  0  0  0  0
   14.5751   -4.1082   -9.8571 C   0  0  0  0  0  0  0  0  0  0  0  0
   16.7836   -5.2423  -10.2165 C   0  0  2  0  0  0  0  0  0  0  0  0
   17.4677   -6.4163  -10.7104 N   0  0  0  0  0  0  0  0  0  0  0  0
   17.0765   -5.0848   -8.7842 C   0  0  0  0  0  0  0  0  0  0  0  0
   17.5971   -6.0213   -8.1490 O   0  0  0  0  0  0  0  0  0  0  0  0
   16.7779   -3.9077   -8.1421 O   0  0  0  0  0  0  0  0  0  0  0  0
  2  1  1  1
  2  3  1  0
  4  3  1  0
  4  8  1  0
  5  4  2  0
  6  7  2  0
  6  2  1  0
  9 10  1  0
 10 11  1  0
 11 12  1  0
 13 12  1  6
 13 14  1  0
 14  6  1  0
 15 13  1  0
 15 21  1  0
 16 15  2  0
 18 17  1  1
 18 20  1  0
 19 18  1  0
 20 21  1  1
 20 22  1  0
 22 24  1  0
 23 22  2  0
M  END
$$$$
