DMV.pdb
     RDKit          3D

 24 23  0  0  1  0  0  0  0  0999 V2000
   20.1362  -12.1462  -17.4129 N   0  0  0  0  0  0  0  0  0  0  0  0
   20.1176  -10.6959  -17.4191 C   0  0  1  0  0  0  0  0  0  0  0  0
   18.7349  -10.1677  -17.0923 C   0  0  0  0  0  0  0  0  0  0  0  0
   17.7596  -10.4667  -18.1616 C   0  0  0  0  0  0  0  0  0  0  0  0
   18.1168  -11.1661  -19.1582 O   0  0  0  0  0  0  0  0  0  0  0  0
   21.0621  -10.2047  -16.3889 C   0  0  0  0  0  0  0  0  0  0  0  0
   21.6358  -11.0254  -15.6114 O   0  0  0  0  0  0  0  0  0  0  0  0
   16.4444  -10.0240  -18.1516 O   0  0  0  0  0  0  0  0  0  0  0  0
   26.2316  -12.1710  -14.5542 C   0  0  0  0  0  0  0  0  0  0  0  0
   25.8151  -10.8076  -15.6840 S   0  0  0  0  0  0  0  0  0  0  0  0
   24.2496  -10.1049  -15.1438 C   0  0  0  0  0  0  0  0  0  0  0  0
   23.7607   -8.9511  -15.9312 C   0  0  0  0  0  0  0  0  0  0  0  0
   22.4700   -8.3360  -15.5330 C   0  0  2  0  0  0  0  0  0  0  0  0
   21.3313   -8.8160  -16.2647 N   0  0  0  0  0  0  0  0  0  0  0  0
   22.4883   -6.8508  -15.5890 C   0  0  0  0  0  0  0  0  0  0  0  0
   23.0335   -6.2566  -16.5653 O   0  0  0  0  0  0  0  0  0  0  0  0
   19.9802   -4.7202  -16.2723 C   0  0  0  0  0  0  0  0  0  0  0  0
   20.5174   -4.0574  -15.0215 C   0  0  1  0  0  0  0  0  0  0  0  0
   19.5529   -4.3502  -13.8981 C   0  0  0  0  0  0  0  0  0  0  0  0
   21.8974   -4.5949  -14.7563 C   0  0  2  0  0  0  0  0  0  0  0  0
   21.9132   -6.0302  -14.5831 N   0  0  0  0  0  0  0  0  0  0  0  0
   22.4501   -3.9611  -13.5501 C   0  0  0  0  0  0  0  0  0  0  0  0
   22.6384   -2.7300  -13.5250 O   0  0  0  0  0  0  0  0  0  0  0  0
   22.7604   -4.7215  -12.4490 O   0  0  0  0  0  0  0  0  0  0  0  0
  2  1  1  1
  2  3  1  0
  4  3  1  0
  4  8  1  0
  5  4  2  0
  6  7  2  0
  6  2  1  0
  9 10  1  0
 10 11  1  0
 11 12  1  0
 13 12  1  6
 13 14  1  0
 14  6  1  0
 15 13  1  0
 15 21  1  0
 16 15  2  0
 18 17  1  6
 18 20  1  0
 19 18  1  0
 20 21  1  1
 20 22  1  0
 22 24  1  0
 23 22  2  0
M  END
$$$$
