DMV.pdb
     RDKit          3D

 24 23  0  0  1  0  0  0  0  0999 V2000
   21.8203  -20.9821  -10.3730 N   0  0  0  0  0  0  0  0  0  0  0  0
   22.3946  -21.3233  -11.6604 C   0  0  1  0  0  0  0  0  0  0  0  0
   21.4458  -20.9735  -12.7897 C   0  0  0  0  0  0  0  0  0  0  0  0
   20.2586  -21.8534  -12.8097 C   0  0  0  0  0  0  0  0  0  0  0  0
   19.4403  -21.7801  -13.7766 O   0  0  0  0  0  0  0  0  0  0  0  0
   23.6447  -20.5497  -11.8426 C   0  0  0  0  0  0  0  0  0  0  0  0
   23.7345  -19.3717  -11.3827 O   0  0  0  0  0  0  0  0  0  0  0  0
   19.9683  -22.7796  -11.8178 O   0  0  0  0  0  0  0  0  0  0  0  0
   29.8475  -21.6105   -9.8895 C   0  0  0  0  0  0  0  0  0  0  0  0
   29.8926  -21.5635  -11.7074 S   0  0  0  0  0  0  0  0  0  0  0  0
   28.5079  -20.5601  -12.2658 C   0  0  0  0  0  0  0  0  0  0  0  0
   27.1829  -21.2180  -12.2232 C   0  0  0  0  0  0  0  0  0  0  0  0
   26.0006  -20.4254  -12.6436 C   0  0  2  0  0  0  0  0  0  0  0  0
   24.7483  -21.1194  -12.5311 N   0  0  0  0  0  0  0  0  0  0  0  0
   26.1249  -19.8745  -14.0185 C   0  0  0  0  0  0  0  0  0  0  0  0
   25.7351  -20.5526  -15.0143 O   0  0  0  0  0  0  0  0  0  0  0  0
   27.6535  -15.9799  -14.8758 C   0  0  0  0  0  0  0  0  0  0  0  0
   26.4081  -16.5044  -15.5587 C   0  0  1  0  0  0  0  0  0  0  0  0
   26.3447  -15.8849  -16.9335 C   0  0  0  0  0  0  0  0  0  0  0  0
   26.4889  -18.0061  -15.6022 C   0  0  2  0  0  0  0  0  0  0  0  0
   26.6711  -18.5931  -14.2935 N   0  0  0  0  0  0  0  0  0  0  0  0
   27.6037  -18.4150  -16.4695 C   0  0  0  0  0  0  0  0  0  0  0  0
   28.7005  -18.7262  -15.9677 O   0  0  0  0  0  0  0  0  0  0  0  0
   27.4412  -18.4552  -17.8329 O   0  0  0  0  0  0  0  0  0  0  0  0
  2  1  1  1
  2  3  1  0
  4  3  1  0
  4  8  1  0
  5  4  2  0
  6  7  2  0
  6  2  1  0
  9 10  1  0
 10 11  1  0
 11 12  1  0
 13 12  1  6
 13 14  1  0
 14  6  1  0
 15 13  1  0
 15 21  1  0
 16 15  2  0
 18 17  1  6
 18 20  1  0
 19 18  1  0
 20 21  1  1
 20 22  1  0
 22 24  1  0
 23 22  2  0
M  END
$$$$
