DMV.pdb
     RDKit          3D

 24 23  0  0  1  0  0  0  0  0999 V2000
   17.7645   -9.6038  -17.1594 N   0  0  0  0  0  0  0  0  0  0  0  0
   17.7465   -8.2724  -16.5841 C   0  0  1  0  0  0  0  0  0  0  0  0
   16.3920   -7.6176  -16.7693 C   0  0  0  0  0  0  0  0  0  0  0  0
   16.2789   -6.9367  -18.0760 C   0  0  0  0  0  0  0  0  0  0  0  0
   17.2376   -7.0064  -18.9043 O   0  0  0  0  0  0  0  0  0  0  0  0
   18.0204   -8.3790  -15.1321 C   0  0  0  0  0  0  0  0  0  0  0  0
   17.6509   -9.4082  -14.4907 O   0  0  0  0  0  0  0  0  0  0  0  0
   15.1670   -6.2064  -18.4714 O   0  0  0  0  0  0  0  0  0  0  0  0
   23.5307  -10.5246  -13.5051 C   0  0  0  0  0  0  0  0  0  0  0  0
   22.9271   -8.9303  -12.8702 S   0  0  0  0  0  0  0  0  0  0  0  0
   21.1807   -8.8004  -13.2819 C   0  0  0  0  0  0  0  0  0  0  0  0
   20.4991   -7.5783  -12.7999 C   0  0  0  0  0  0  0  0  0  0  0  0
   19.0440   -7.4464  -13.0610 C   0  0  2  0  0  0  0  0  0  0  0  0
   18.6966   -7.3331  -14.4499 N   0  0  0  0  0  0  0  0  0  0  0  0
   18.4152   -6.3260  -12.3136 C   0  0  0  0  0  0  0  0  0  0  0  0
   18.6891   -5.1267  -12.6137 O   0  0  0  0  0  0  0  0  0  0  0  0
   15.1104   -5.0704  -12.0799 C   0  0  0  0  0  0  0  0  0  0  0  0
   15.4830   -5.2626  -10.6250 C   0  0  1  0  0  0  0  0  0  0  0  0
   14.7704   -6.4973  -10.1294 C   0  0  0  0  0  0  0  0  0  0  0  0
   16.9800   -5.3798  -10.5314 C   0  0  2  0  0  0  0  0  0  0  0  0
   17.4961   -6.5236  -11.2496 N   0  0  0  0  0  0  0  0  0  0  0  0
   17.3793   -5.4811   -9.1198 C   0  0  0  0  0  0  0  0  0  0  0  0
   17.8970   -6.5309   -8.6936 O   0  0  0  0  0  0  0  0  0  0  0  0
   17.1836   -4.4218   -8.2675 O   0  0  0  0  0  0  0  0  0  0  0  0
  2  1  1  1
  2  3  1  0
  4  3  1  0
  4  8  1  0
  5  4  2  0
  6  7  2  0
  6  2  1  0
  9 10  1  0
 10 11  1  0
 11 12  1  0
 13 12  1  6
 13 14  1  0
 14  6  1  0
 15 13  1  0
 15 21  1  0
 16 15  2  0
 18 17  1  6
 18 20  1  0
 19 18  1  0
 20 21  1  6
 20 22  1  0
 22 24  1  0
 23 22  2  0
M  END
$$$$
