DMV.pdb
     RDKit          3D

 24 23  0  0  1  0  0  0  0  0999 V2000
   20.0618  -11.3481  -18.0160 N   0  0  0  0  0  0  0  0  0  0  0  0
   19.4372  -11.1370  -16.7240 C   0  0  1  0  0  0  0  0  0  0  0  0
   19.1254  -12.4573  -16.0479 C   0  0  0  0  0  0  0  0  0  0  0  0
   17.9065  -13.0876  -16.5967 C   0  0  0  0  0  0  0  0  0  0  0  0
   17.2501  -12.4955  -17.5069 O   0  0  0  0  0  0  0  0  0  0  0  0
   20.3739  -10.3793  -15.8621 C   0  0  0  0  0  0  0  0  0  0  0  0
   20.0416  -10.0767  -14.6767 O   0  0  0  0  0  0  0  0  0  0  0  0
   17.4161  -14.3153  -16.1745 O   0  0  0  0  0  0  0  0  0  0  0  0
   27.0782  -10.9606  -14.4989 C   0  0  0  0  0  0  0  0  0  0  0  0
   26.1343  -11.4329  -15.9805 S   0  0  0  0  0  0  0  0  0  0  0  0
   24.4001  -11.0737  -15.6650 C   0  0  0  0  0  0  0  0  0  0  0  0
   24.0104   -9.6505  -15.7797 C   0  0  0  0  0  0  0  0  0  0  0  0
   22.5920   -9.2965  -15.5235 C   0  0  2  0  0  0  0  0  0  0  0  0
   21.6466   -9.9873  -16.3550 N   0  0  0  0  0  0  0  0  0  0  0  0
   22.3299   -7.8358  -15.6060 C   0  0  0  0  0  0  0  0  0  0  0  0
   22.3956   -7.2386  -16.7207 O   0  0  0  0  0  0  0  0  0  0  0  0
   20.0428   -5.7181  -16.1863 C   0  0  0  0  0  0  0  0  0  0  0  0
   20.5106   -5.1297  -14.8720 C   0  0  1  0  0  0  0  0  0  0  0  0
   19.5403   -5.5693  -13.8027 C   0  0  0  0  0  0  0  0  0  0  0  0
   21.9141   -5.6058  -14.6131 C   0  0  2  0  0  0  0  0  0  0  0  0
   21.9994   -7.0425  -14.4757 N   0  0  0  0  0  0  0  0  0  0  0  0
   22.4302   -4.9765  -13.3885 C   0  0  0  0  0  0  0  0  0  0  0  0
   22.6668   -5.6731  -12.3833 O   0  0  0  0  0  0  0  0  0  0  0  0
   22.6528   -3.6216  -13.3475 O   0  0  0  0  0  0  0  0  0  0  0  0
  2  1  1  6
  2  3  1  0
  4  3  1  0
  4  8  1  0
  5  4  2  0
  6  7  2  0
  6  2  1  0
  9 10  1  0
 10 11  1  0
 11 12  1  0
 13 12  1  6
 13 14  1  0
 14  6  1  0
 15 13  1  0
 15 21  1  0
 16 15  2  0
 18 17  1  6
 18 20  1  0
 19 18  1  0
 20 21  1  1
 20 22  1  0
 22 24  1  0
 23 22  2  0
M  END
$$$$
