DMV.pdb
     RDKit          3D

 24 23  0  0  1  0  0  0  0  0999 V2000
   20.2329  -14.4298  -18.7576 N   0  0  0  0  0  0  0  0  0  0  0  0
   20.8004  -13.1365  -19.0876 C   0  0  1  0  0  0  0  0  0  0  0  0
   19.7964  -12.2738  -19.8260 C   0  0  0  0  0  0  0  0  0  0  0  0
   19.4441  -12.8382  -21.1457 C   0  0  0  0  0  0  0  0  0  0  0  0
   18.2240  -12.9377  -21.4794 O   0  0  0  0  0  0  0  0  0  0  0  0
   21.1748  -12.4477  -17.8307 C   0  0  0  0  0  0  0  0  0  0  0  0
   20.3810  -12.4555  -16.8423 O   0  0  0  0  0  0  0  0  0  0  0  0
   20.3801  -13.2790  -22.0707 O   0  0  0  0  0  0  0  0  0  0  0  0
   26.2373  -15.1345  -14.8107 C   0  0  0  0  0  0  0  0  0  0  0  0
   26.1766  -13.3713  -15.2541 S   0  0  0  0  0  0  0  0  0  0  0  0
   24.4831  -12.9790  -15.7172 C   0  0  0  0  0  0  0  0  0  0  0  0
   24.2286  -11.5654  -16.0739 C   0  0  0  0  0  0  0  0  0  0  0  0
   22.8527  -11.1902  -16.4851 C   0  0  2  0  0  0  0  0  0  0  0  0
   22.4212  -11.7757  -17.7234 N   0  0  0  0  0  0  0  0  0  0  0  0
   22.6414   -9.7203  -16.5471 C   0  0  0  0  0  0  0  0  0  0  0  0
   23.1836   -9.0367  -17.4647 O   0  0  0  0  0  0  0  0  0  0  0  0
   19.2320   -7.7894  -15.8473 C   0  0  0  0  0  0  0  0  0  0  0  0
   20.4455   -7.2275  -16.5573 C   0  0  1  0  0  0  0  0  0  0  0  0
   20.2498   -5.7367  -16.6879 C   0  0  0  0  0  0  0  0  0  0  0  0
   21.6690   -7.5842  -15.7577 C   0  0  2  0  0  0  0  0  0  0  0  0
   21.8428   -9.0119  -15.6108 N   0  0  0  0  0  0  0  0  0  0  0  0
   21.5814   -6.9729  -14.4233 C   0  0  0  0  0  0  0  0  0  0  0  0
   21.4263   -7.6925  -13.4184 O   0  0  0  0  0  0  0  0  0  0  0  0
   21.6698   -5.6097  -14.2793 O   0  0  0  0  0  0  0  0  0  0  0  0
  2  1  1  1
  2  3  1  0
  4  3  1  0
  4  8  1  0
  5  4  2  0
  6  7  2  0
  6  2  1  0
  9 10  1  0
 10 11  1  0
 11 12  1  0
 13 12  1  6
 13 14  1  0
 14  6  1  0
 15 13  1  0
 15 21  1  0
 16 15  2  0
 18 17  1  1
 18 20  1  0
 19 18  1  0
 20 21  1  1
 20 22  1  0
 22 24  1  0
 23 22  2  0
M  END
$$$$
