DMV.pdb
     RDKit          3D

 24 23  0  0  1  0  0  0  0  0999 V2000
   18.6152  -12.6585  -17.7123 N   0  0  0  0  0  0  0  0  0  0  0  0
   19.7515  -11.8859  -17.2477 C   0  0  1  0  0  0  0  0  0  0  0  0
   20.9953  -12.2101  -18.0510 C   0  0  0  0  0  0  0  0  0  0  0  0
   21.4893  -13.5767  -17.7818 C   0  0  0  0  0  0  0  0  0  0  0  0
   20.9144  -14.2893  -16.9033 O   0  0  0  0  0  0  0  0  0  0  0  0
   19.4472  -10.4459  -17.4163 C   0  0  0  0  0  0  0  0  0  0  0  0
   18.9629  -10.0236  -18.5092 O   0  0  0  0  0  0  0  0  0  0  0  0
   22.5674  -14.1508  -18.4406 O   0  0  0  0  0  0  0  0  0  0  0  0
   15.3422   -4.4232  -16.3103 C   0  0  0  0  0  0  0  0  0  0  0  0
   15.6574   -6.2123  -16.2166 S   0  0  0  0  0  0  0  0  0  0  0  0
   17.4318   -6.4666  -16.3689 C   0  0  0  0  0  0  0  0  0  0  0  0
   17.8786   -7.8775  -16.3641 C   0  0  0  0  0  0  0  0  0  0  0  0
   19.3348   -8.1448  -16.4682 C   0  0  2  0  0  0  0  0  0  0  0  0
   19.6947   -9.5308  -16.3591 N   0  0  0  0  0  0  0  0  0  0  0  0
   20.1441   -7.3587  -15.5006 C   0  0  0  0  0  0  0  0  0  0  0  0
   20.1938   -7.7034  -14.2832 O   0  0  0  0  0  0  0  0  0  0  0  0
   23.7999   -6.7011  -15.8165 C   0  0  0  0  0  0  0  0  0  0  0  0
   23.1660   -5.3637  -15.4972 C   0  0  1  0  0  0  0  0  0  0  0  0
   23.1170   -4.5636  -16.7760 C   0  0  0  0  0  0  0  0  0  0  0  0
   21.8008   -5.6135  -14.9164 C   0  0  2  0  0  0  0  0  0  0  0  0
   20.8896   -6.2077  -15.8687 N   0  0  0  0  0  0  0  0  0  0  0  0
   21.2306   -4.3467  -14.4346 C   0  0  0  0  0  0  0  0  0  0  0  0
   20.2427   -3.8509  -15.0090 O   0  0  0  0  0  0  0  0  0  0  0  0
   21.7832   -3.7062  -13.3524 O   0  0  0  0  0  0  0  0  0  0  0  0
  2  1  1  6
  2  3  1  0
  4  3  1  0
  4  8  1  0
  5  4  2  0
  6  7  2  0
  6  2  1  0
  9 10  1  0
 10 11  1  0
 11 12  1  0
 13 12  1  1
 13 14  1  0
 14  6  1  0
 15 13  1  0
 15 21  1  0
 16 15  2  0
 18 17  1  6
 18 20  1  0
 19 18  1  0
 20 21  1  6
 20 22  1  0
 22 24  1  0
 23 22  2  0
M  END
$$$$
