SEC.pdb
     RDKit          3D

 22 21  0  0  1  0  0  0  0  0999 V2000
    8.0973  -16.1177   16.0720 O   0  0  0  0  0  0  0  0  0  0  0  0
    8.7201  -16.3674   17.2873 C   0  0  0  0  0  0  0  0  0  0  0  0
    9.1933  -17.7769   17.4146 C   0  0  2  0  0  0  0  0  0  0  0  0
    8.1080  -18.6989   17.2787 N   0  0  0  0  0  0  0  0  0  0  0  0
    9.9289  -17.9746   18.7082 C   0  0  0  0  0  0  0  0  0  0  0  0
    9.3854  -18.6295   19.6339 O   0  0  0  0  0  0  0  0  0  0  0  0
   11.2259  -17.4092   18.8427 N   0  0  0  0  0  0  0  0  0  0  0  0
   11.9794  -17.5627   20.0403 C   0  0  1  0  0  0  0  0  0  0  0  0
   13.4777  -17.5494   19.8222 C   0  0  0  0  0  0  0  0  0  0  0  0
   13.9544  -18.7875   19.1107 C   0  0  0  0  0  0  0  0  0  0  0  0
   15.4196  -18.6596   18.9095 C   0  0  0  0  0  0  0  0  0  0  0  0
   16.1614  -19.6668   19.0274 O   0  0  0  0  0  0  0  0  0  0  0  0
   11.6715  -16.5447   21.0705 C   0  0  0  0  0  0  0  0  0  0  0  0
   11.6252  -15.3418   20.7091 O   0  0  0  0  0  0  0  0  0  0  0  0
   16.0350  -17.4554   18.5890 O   0  0  0  0  0  0  0  0  0  0  0  0
   11.4247  -16.8287   22.4375 N   0  0  0  0  0  0  0  0  0  0  0  0
   10.6051  -15.9562   23.2750 C   0  0  1  0  0  0  0  0  0  0  0  0
    9.2695  -15.6751   22.6327 C   0  0  0  0  0  0  0  0  0  0  0  0
    8.2343  -14.6072   23.6621 S   0  0  0  0  0  0  0  0  0  0  0  0
   10.4482  -16.5732   24.6338 C   0  0  0  0  0  0  0  0  0  0  0  0
   10.4160  -15.7968   25.7824 O   0  0  0  0  0  0  0  0  0  0  0  0
   10.3400  -17.8189   24.7804 O   0  0  0  0  0  0  0  0  0  0  0  0
  1  2  1  0
  2  3  1  0
  3  4  1  1
  5  7  1  0
  5  3  1  0
  6  5  2  0
  8 13  1  0
  8  7  1  0
  8  9  1  6
 10 11  1  0
 10  9  1  0
 11 15  1  0
 12 11  2  0
 13 16  1  0
 14 13  2  0
 16 17  1  0
 17 20  1  0
 17 18  1  6
 18 19  1  0
 20 21  1  0
 22 20  2  0
M  END
$$$$
