SEC.pdb
     RDKit          3D

 22 21  0  0  1  0  0  0  0  0999 V2000
    7.6491  -12.3420   19.3837 O   0  0  0  0  0  0  0  0  0  0  0  0
    8.5160  -13.0125   18.5317 C   0  0  0  0  0  0  0  0  0  0  0  0
    8.1911  -14.4633   18.4022 C   0  0  2  0  0  0  0  0  0  0  0  0
    6.9098  -14.6520   17.7947 N   0  0  0  0  0  0  0  0  0  0  0  0
    8.2776  -15.1472   19.7357 C   0  0  0  0  0  0  0  0  0  0  0  0
    7.2200  -15.4806   20.3286 O   0  0  0  0  0  0  0  0  0  0  0  0
    9.5638  -15.3962   20.2868 N   0  0  0  0  0  0  0  0  0  0  0  0
    9.7202  -16.1122   21.5067 C   0  0  1  0  0  0  0  0  0  0  0  0
   11.0484  -16.8295   21.6252 C   0  0  0  0  0  0  0  0  0  0  0  0
   11.1410  -17.6379   22.8918 C   0  0  0  0  0  0  0  0  0  0  0  0
   12.4483  -18.3412   22.8869 C   0  0  0  0  0  0  0  0  0  0  0  0
   12.5611  -19.4561   22.3186 O   0  0  0  0  0  0  0  0  0  0  0  0
    9.5609  -15.2703   22.7144 C   0  0  0  0  0  0  0  0  0  0  0  0
    9.8121  -14.0433   22.6095 O   0  0  0  0  0  0  0  0  0  0  0  0
   13.5866  -17.8221   23.4921 O   0  0  0  0  0  0  0  0  0  0  0  0
    9.1448  -15.7486   23.9826 N   0  0  0  0  0  0  0  0  0  0  0  0
    8.5137  -14.8772   24.9709 C   0  0  1  0  0  0  0  0  0  0  0  0
    7.3413  -14.1349   24.3794 C   0  0  0  0  0  0  0  0  0  0  0  0
    6.5021  -13.1057   25.6073 S   0  0  0  0  0  0  0  0  0  0  0  0
    8.1099  -15.6895   26.1661 C   0  0  0  0  0  0  0  0  0  0  0  0
    8.1734  -15.1696   27.4502 O   0  0  0  0  0  0  0  0  0  0  0  0
    7.6986  -16.8734   26.0465 O   0  0  0  0  0  0  0  0  0  0  0  0
  1  2  1  0
  2  3  1  0
  3  4  1  1
  5  7  1  0
  5  3  1  0
  6  5  2  0
  8 13  1  0
  8  7  1  0
  8  9  1  6
 10 11  1  0
 10  9  1  0
 11 15  1  0
 12 11  2  0
 13 16  1  0
 14 13  2  0
 16 17  1  0
 17 20  1  0
 17 18  1  6
 18 19  1  0
 20 21  1  0
 22 20  2  0
M  END
$$$$
