SEC.pdb
     RDKit          3D

 22 21  0  0  1  0  0  0  0  0999 V2000
    6.5172  -14.4272   22.0278 O   0  0  0  0  0  0  0  0  0  0  0  0
    7.3278  -14.8351   20.9773 C   0  0  0  0  0  0  0  0  0  0  0  0
    7.6842  -16.2824   21.0513 C   0  0  2  0  0  0  0  0  0  0  0  0
    6.5112  -17.0999   21.0987 N   0  0  0  0  0  0  0  0  0  0  0  0
    8.5904  -16.5464   22.2187 C   0  0  0  0  0  0  0  0  0  0  0  0
    8.1411  -17.1523   23.2247 O   0  0  0  0  0  0  0  0  0  0  0  0
    9.9371  -16.0980   22.1453 N   0  0  0  0  0  0  0  0  0  0  0  0
   10.8315  -16.2596   23.2404 C   0  0  1  0  0  0  0  0  0  0  0  0
   12.2863  -16.0581   22.8726 C   0  0  0  0  0  0  0  0  0  0  0  0
   13.2077  -16.3900   24.0160 C   0  0  0  0  0  0  0  0  0  0  0  0
   14.5982  -16.1203   23.5715 C   0  0  0  0  0  0  0  0  0  0  0  0
   15.5647  -16.3972   24.3250 O   0  0  0  0  0  0  0  0  0  0  0  0
   10.5355  -15.3689   24.3857 C   0  0  0  0  0  0  0  0  0  0  0  0
   10.2221  -14.1779   24.1348 O   0  0  0  0  0  0  0  0  0  0  0  0
   14.9003  -15.5634   22.3346 O   0  0  0  0  0  0  0  0  0  0  0  0
   10.5801  -15.7626   25.7470 N   0  0  0  0  0  0  0  0  0  0  0  0
   10.1645  -14.8698   26.8263 C   0  0  1  0  0  0  0  0  0  0  0  0
    8.7398  -14.4106   26.6410 C   0  0  0  0  0  0  0  0  0  0  0  0
    8.1221  -13.5186   28.0882 S   0  0  0  0  0  0  0  0  0  0  0  0
   10.3582  -15.5585   28.1453 C   0  0  0  0  0  0  0  0  0  0  0  0
   10.7800  -16.8776   28.2185 O   0  0  0  0  0  0  0  0  0  0  0  0
   10.1446  -14.9635   29.2340 O   0  0  0  0  0  0  0  0  0  0  0  0
  1  2  1  0
  2  3  1  0
  3  4  1  1
  5  7  1  0
  5  3  1  0
  6  5  2  0
  8 13  1  0
  8  7  1  0
  8  9  1  6
 10 11  1  0
 10  9  1  0
 11 15  1  0
 12 11  2  0
 13 16  1  0
 14 13  2  0
 16 17  1  0
 17 20  1  0
 17 18  1  6
 18 19  1  0
 20 21  1  0
 22 20  2  0
M  END
$$$$
