SEC.pdb
     RDKit          3D

 22 21  0  0  1  0  0  0  0  0999 V2000
    7.5790  -13.4658   16.5675 O   0  0  0  0  0  0  0  0  0  0  0  0
    7.2955  -14.0512   17.7939 C   0  0  0  0  0  0  0  0  0  0  0  0
    8.1330  -13.5050   18.9018 C   0  0  2  0  0  0  0  0  0  0  0  0
    9.5012  -13.3847   18.5019 N   0  0  0  0  0  0  0  0  0  0  0  0
    7.9895  -14.3441   20.1383 C   0  0  0  0  0  0  0  0  0  0  0  0
    6.8469  -14.5309   20.6286 O   0  0  0  0  0  0  0  0  0  0  0  0
    9.1612  -14.9031   20.7169 N   0  0  0  0  0  0  0  0  0  0  0  0
    9.0911  -15.7480   21.8600 C   0  0  1  0  0  0  0  0  0  0  0  0
   10.1784  -16.8007   21.9060 C   0  0  0  0  0  0  0  0  0  0  0  0
    9.6140  -18.1957   21.8607 C   0  0  0  0  0  0  0  0  0  0  0  0
   10.7526  -19.1429   21.7607 C   0  0  0  0  0  0  0  0  0  0  0  0
   11.6505  -18.9594   20.9013 O   0  0  0  0  0  0  0  0  0  0  0  0
    9.1297  -15.0132   23.1451 C   0  0  0  0  0  0  0  0  0  0  0  0
   10.1646  -14.3508   23.4094 O   0  0  0  0  0  0  0  0  0  0  0  0
   10.8858  -20.2525   22.5870 O   0  0  0  0  0  0  0  0  0  0  0  0
    8.0823  -15.0027   24.1006 N   0  0  0  0  0  0  0  0  0  0  0  0
    8.2005  -14.2941   25.3728 C   0  0  1  0  0  0  0  0  0  0  0  0
    7.0784  -13.3028   25.5554 C   0  0  0  0  0  0  0  0  0  0  0  0
    5.4915  -14.1216   25.8434 S   0  0  0  0  0  0  0  0  0  0  0  0
    8.2496  -15.2892   26.4948 C   0  0  0  0  0  0  0  0  0  0  0  0
    8.5441  -14.9023   27.7935 O   0  0  0  0  0  0  0  0  0  0  0  0
    8.0251  -16.5122   26.2977 O   0  0  0  0  0  0  0  0  0  0  0  0
  1  2  1  0
  2  3  1  0
  3  4  1  6
  5  7  1  0
  5  3  1  0
  6  5  2  0
  8 13  1  0
  8  7  1  0
  8  9  1  1
 10 11  1  0
 10  9  1  0
 11 15  1  0
 12 11  2  0
 13 16  1  0
 14 13  2  0
 16 17  1  0
 17 20  1  0
 17 18  1  1
 18 19  1  0
 20 21  1  0
 22 20  2  0
M  END
$$$$
