SEC.pdb
     RDKit          3D

 22 21  0  0  1  0  0  0  0  0999 V2000
    5.6902  -18.0738   23.6291 O   0  0  0  0  0  0  0  0  0  0  0  0
    6.2577  -17.2768   22.6442 C   0  0  0  0  0  0  0  0  0  0  0  0
    7.4538  -17.9055   22.0109 C   0  0  2  0  0  0  0  0  0  0  0  0
    7.1695  -19.2418   21.5868 N   0  0  0  0  0  0  0  0  0  0  0  0
    8.6321  -17.8584   22.9398 C   0  0  0  0  0  0  0  0  0  0  0  0
    8.6879  -18.6590   23.9077 O   0  0  0  0  0  0  0  0  0  0  0  0
    9.6530  -16.9015   22.6904 N   0  0  0  0  0  0  0  0  0  0  0  0
   10.7941  -16.7998   23.5348 C   0  0  1  0  0  0  0  0  0  0  0  0
   12.0639  -16.4268   22.7993 C   0  0  0  0  0  0  0  0  0  0  0  0
   12.6322  -17.5901   22.0310 C   0  0  0  0  0  0  0  0  0  0  0  0
   13.8801  -17.1316   21.3704 C   0  0  0  0  0  0  0  0  0  0  0  0
   14.3062  -15.9665   21.5694 O   0  0  0  0  0  0  0  0  0  0  0  0
   10.6261  -15.8370   24.6473 C   0  0  0  0  0  0  0  0  0  0  0  0
   10.2776  -14.6645   24.3586 O   0  0  0  0  0  0  0  0  0  0  0  0
   14.6249  -17.9404   20.5204 O   0  0  0  0  0  0  0  0  0  0  0  0
   10.8302  -16.1423   26.0167 N   0  0  0  0  0  0  0  0  0  0  0  0
   10.5639  -15.1715   27.0755 C   0  0  1  0  0  0  0  0  0  0  0  0
    9.1362  -14.6869   27.0296 C   0  0  0  0  0  0  0  0  0  0  0  0
    8.7379  -13.6193   28.4344 S   0  0  0  0  0  0  0  0  0  0  0  0
   10.9009  -15.7793   28.4053 C   0  0  0  0  0  0  0  0  0  0  0  0
   11.1978  -14.9916   29.5073 O   0  0  0  0  0  0  0  0  0  0  0  0
   10.9262  -17.0273   28.5690 O   0  0  0  0  0  0  0  0  0  0  0  0
  1  2  1  0
  2  3  1  0
  3  4  1  1
  5  7  1  0
  5  3  1  0
  6  5  2  0
  8 13  1  0
  8  7  1  0
  8  9  1  6
 10 11  1  0
 10  9  1  0
 11 15  1  0
 12 11  2  0
 13 16  1  0
 14 13  2  0
 16 17  1  0
 17 20  1  0
 17 18  1  1
 18 19  1  0
 20 21  1  0
 22 20  2  0
M  END
$$$$
