SEC.pdb
     RDKit          3D

 22 21  0  0  1  0  0  0  0  0999 V2000
    8.7798  -14.9941   18.5503 O   0  0  0  0  0  0  0  0  0  0  0  0
    9.4109  -14.1347   17.6614 C   0  0  0  0  0  0  0  0  0  0  0  0
   10.4759  -14.8099   16.8632 C   0  0  2  0  0  0  0  0  0  0  0  0
    9.9235  -15.8301   16.0262 N   0  0  0  0  0  0  0  0  0  0  0  0
   11.5490  -15.3522   17.7621 C   0  0  0  0  0  0  0  0  0  0  0  0
   11.5065  -16.5577   18.1169 O   0  0  0  0  0  0  0  0  0  0  0  0
   12.5851  -14.4758   18.1845 N   0  0  0  0  0  0  0  0  0  0  0  0
   13.6515  -14.9336   19.0082 C   0  0  1  0  0  0  0  0  0  0  0  0
   14.9799  -14.2723   18.7070 C   0  0  0  0  0  0  0  0  0  0  0  0
   15.5275  -14.6919   17.3689 C   0  0  0  0  0  0  0  0  0  0  0  0
   16.8567  -14.0523   17.2016 C   0  0  0  0  0  0  0  0  0  0  0  0
   16.9416  -12.8917   16.7280 O   0  0  0  0  0  0  0  0  0  0  0  0
   13.3939  -14.7730   20.4575 C   0  0  0  0  0  0  0  0  0  0  0  0
   12.7104  -13.7841   20.8242 O   0  0  0  0  0  0  0  0  0  0  0  0
   18.0460  -14.6820   17.5488 O   0  0  0  0  0  0  0  0  0  0  0  0
   13.8631  -15.6553   21.4633 N   0  0  0  0  0  0  0  0  0  0  0  0
   13.2486  -15.7185   22.7873 C   0  0  1  0  0  0  0  0  0  0  0  0
   11.7650  -15.9735   22.6924 C   0  0  0  0  0  0  0  0  0  0  0  0
   11.0117  -16.2027   24.3208 S   0  0  0  0  0  0  0  0  0  0  0  0
   13.9402  -16.7671   23.6082 C   0  0  0  0  0  0  0  0  0  0  0  0
   14.0290  -16.6645   24.9883 O   0  0  0  0  0  0  0  0  0  0  0  0
   14.4652  -17.7787   23.0733 O   0  0  0  0  0  0  0  0  0  0  0  0
  1  2  1  0
  2  3  1  0
  3  4  1  1
  5  7  1  0
  5  3  1  0
  6  5  2  0
  8 13  1  0
  8  7  1  0
  8  9  1  6
 10 11  1  0
 10  9  1  0
 11 15  1  0
 12 11  2  0
 13 16  1  0
 14 13  2  0
 16 17  1  0
 17 20  1  0
 17 18  1  6
 18 19  1  0
 20 21  1  0
 22 20  2  0
M  END
$$$$
