SEC.pdb
     RDKit          3D

 22 21  0  0  1  0  0  0  0  0999 V2000
    6.7795  -15.7039   20.1357 O   0  0  0  0  0  0  0  0  0  0  0  0
    6.8812  -14.3959   20.5893 C   0  0  0  0  0  0  0  0  0  0  0  0
    8.2324  -14.0782   21.1373 C   0  0  2  0  0  0  0  0  0  0  0  0
    9.2581  -14.3850   20.1885 N   0  0  0  0  0  0  0  0  0  0  0  0
    8.4555  -14.7864   22.4420 C   0  0  0  0  0  0  0  0  0  0  0  0
    7.6229  -14.6423   23.3731 O   0  0  0  0  0  0  0  0  0  0  0  0
    9.6108  -15.6026   22.5804 N   0  0  0  0  0  0  0  0  0  0  0  0
    9.8538  -16.3454   23.7698 C   0  0  1  0  0  0  0  0  0  0  0  0
   10.7651  -17.5374   23.5671 C   0  0  0  0  0  0  0  0  0  0  0  0
   10.1351  -18.5851   22.6885 C   0  0  0  0  0  0  0  0  0  0  0  0
   11.2042  -19.1685   21.8397 C   0  0  0  0  0  0  0  0  0  0  0  0
   10.9995  -19.3647   20.6157 O   0  0  0  0  0  0  0  0  0  0  0  0
   10.4215  -15.5345   24.8711 C   0  0  0  0  0  0  0  0  0  0  0  0
   11.0303  -14.4781   24.5662 O   0  0  0  0  0  0  0  0  0  0  0  0
   12.4539  -19.5200   22.3359 O   0  0  0  0  0  0  0  0  0  0  0  0
   10.3281  -15.8639   26.2470 N   0  0  0  0  0  0  0  0  0  0  0  0
   10.8238  -14.9724   27.2930 C   0  0  1  0  0  0  0  0  0  0  0  0
   10.1186  -13.6394   27.2578 C   0  0  0  0  0  0  0  0  0  0  0  0
    8.3196  -13.8238   27.2954 S   0  0  0  0  0  0  0  0  0  0  0  0
   10.6787  -15.6415   28.6282 C   0  0  0  0  0  0  0  0  0  0  0  0
   11.1789  -15.0643   29.7857 O   0  0  0  0  0  0  0  0  0  0  0  0
   10.0973  -16.7519   28.7461 O   0  0  0  0  0  0  0  0  0  0  0  0
  1  2  1  0
  2  3  1  0
  3  4  1  6
  5  7  1  0
  5  3  1  0
  6  5  2  0
  8 13  1  0
  8  7  1  0
  8  9  1  6
 10 11  1  0
 10  9  1  0
 11 15  1  0
 12 11  2  0
 13 16  1  0
 14 13  2  0
 16 17  1  0
 17 20  1  0
 17 18  1  1
 18 19  1  0
 20 21  1  0
 22 20  2  0
M  END
$$$$
