SEC.pdb
     RDKit          3D

 22 21  0  0  1  0  0  0  0  0999 V2000
   11.9073  -18.0159   17.8185 O   0  0  0  0  0  0  0  0  0  0  0  0
   13.1870  -17.5386   17.5704 C   0  0  0  0  0  0  0  0  0  0  0  0
   14.2522  -18.4870   18.0099 C   0  0  2  0  0  0  0  0  0  0  0  0
   14.2321  -19.6834   17.2259 N   0  0  0  0  0  0  0  0  0  0  0  0
   14.1260  -18.7838   19.4761 C   0  0  0  0  0  0  0  0  0  0  0  0
   13.4674  -19.7881   19.8484 O   0  0  0  0  0  0  0  0  0  0  0  0
   14.7612  -17.9110   20.4006 N   0  0  0  0  0  0  0  0  0  0  0  0
   14.6746  -18.1298   21.8042 C   0  0  1  0  0  0  0  0  0  0  0  0
   16.0094  -18.4167   22.4587 C   0  0  0  0  0  0  0  0  0  0  0  0
   17.1030  -17.5344   21.9182 C   0  0  0  0  0  0  0  0  0  0  0  0
   18.2863  -17.6853   22.8018 C   0  0  0  0  0  0  0  0  0  0  0  0
   19.0841  -18.6402   22.6279 O   0  0  0  0  0  0  0  0  0  0  0  0
   14.0496  -17.0089   22.5428 C   0  0  0  0  0  0  0  0  0  0  0  0
   14.1485  -15.8566   22.0507 O   0  0  0  0  0  0  0  0  0  0  0  0
   18.5700  -16.8056   23.8397 O   0  0  0  0  0  0  0  0  0  0  0  0
   13.3466  -17.1412   23.7669 N   0  0  0  0  0  0  0  0  0  0  0  0
   12.6591  -16.0137   24.3919 C   0  0  1  0  0  0  0  0  0  0  0  0
   11.4755  -15.5683   23.5698 C   0  0  0  0  0  0  0  0  0  0  0  0
   10.3561  -16.9392   23.1963 S   0  0  0  0  0  0  0  0  0  0  0  0
   12.2556  -16.3877   25.7879 C   0  0  0  0  0  0  0  0  0  0  0  0
   11.8196  -15.4343   26.6958 O   0  0  0  0  0  0  0  0  0  0  0  0
   12.2982  -17.5813   26.1858 O   0  0  0  0  0  0  0  0  0  0  0  0
  1  2  1  0
  2  3  1  0
  3  4  1  6
  5  7  1  0
  5  3  1  0
  6  5  2  0
  8 13  1  0
  8  7  1  0
  8  9  1  1
 10 11  1  0
 10  9  1  0
 11 15  1  0
 12 11  2  0
 13 16  1  0
 14 13  2  0
 16 17  1  0
 17 20  1  0
 17 18  1  6
 18 19  1  0
 20 21  1  0
 22 20  2  0
M  END
$$$$
