SEC.pdb
     RDKit          3D

 22 21  0  0  1  0  0  0  0  0999 V2000
    7.9633  -13.3480   21.4240 O   0  0  0  0  0  0  0  0  0  0  0  0
    8.3566  -14.2709   20.4644 C   0  0  0  0  0  0  0  0  0  0  0  0
    7.8658  -15.6500   20.7544 C   0  0  2  0  0  0  0  0  0  0  0  0
    6.4361  -15.6968   20.7631 N   0  0  0  0  0  0  0  0  0  0  0  0
    8.4441  -16.1587   22.0430 C   0  0  0  0  0  0  0  0  0  0  0  0
    7.7156  -16.2178   23.0661 O   0  0  0  0  0  0  0  0  0  0  0  0
    9.8077  -16.5593   22.0616 N   0  0  0  0  0  0  0  0  0  0  0  0
   10.4166  -17.0566   23.2479 C   0  0  1  0  0  0  0  0  0  0  0  0
   11.7966  -17.6386   23.0254 C   0  0  0  0  0  0  0  0  0  0  0  0
   12.3766  -18.2123   24.2906 C   0  0  0  0  0  0  0  0  0  0  0  0
   13.7013  -18.7948   23.9593 C   0  0  0  0  0  0  0  0  0  0  0  0
   14.0279  -18.9736   22.7593 O   0  0  0  0  0  0  0  0  0  0  0  0
   10.5287  -16.0476   24.3260 C   0  0  0  0  0  0  0  0  0  0  0  0
   10.8770  -14.8837   24.0041 O   0  0  0  0  0  0  0  0  0  0  0  0
   14.6268  -19.1641   24.9281 O   0  0  0  0  0  0  0  0  0  0  0  0
   10.2713  -16.2997   25.6973 N   0  0  0  0  0  0  0  0  0  0  0  0
   10.3867  -15.2554   26.7124 C   0  0  1  0  0  0  0  0  0  0  0  0
    9.1354  -14.4158   26.7811 C   0  0  0  0  0  0  0  0  0  0  0  0
    9.3492  -12.9674   27.8432 S   0  0  0  0  0  0  0  0  0  0  0  0
   10.7078  -15.8818   28.0376 C   0  0  0  0  0  0  0  0  0  0  0  0
   10.8480  -17.2546   28.1747 O   0  0  0  0  0  0  0  0  0  0  0  0
   10.8616  -15.1833   29.0737 O   0  0  0  0  0  0  0  0  0  0  0  0
  1  2  1  0
  2  3  1  0
  3  4  1  1
  5  7  1  0
  5  3  1  0
  6  5  2  0
  8 13  1  0
  8  7  1  0
  8  9  1  6
 10 11  1  0
 10  9  1  0
 11 15  1  0
 12 11  2  0
 13 16  1  0
 14 13  2  0
 16 17  1  0
 17 20  1  0
 17 18  1  1
 18 19  1  0
 20 21  1  0
 22 20  2  0
M  END
$$$$
