SEC.pdb
     RDKit          3D

 22 21  0  0  1  0  0  0  0  0999 V2000
    7.9653  -12.5605   18.4164 O   0  0  0  0  0  0  0  0  0  0  0  0
    7.9035  -13.0501   19.7139 C   0  0  0  0  0  0  0  0  0  0  0  0
    7.8076  -14.5385   19.7654 C   0  0  2  0  0  0  0  0  0  0  0  0
    6.5937  -14.9975   19.1636 N   0  0  0  0  0  0  0  0  0  0  0  0
    7.9461  -15.0304   21.1769 C   0  0  0  0  0  0  0  0  0  0  0  0
    6.9161  -15.1818   21.8821 O   0  0  0  0  0  0  0  0  0  0  0  0
    9.2488  -15.3104   21.6715 N   0  0  0  0  0  0  0  0  0  0  0  0
    9.4451  -15.8612   22.9690 C   0  0  1  0  0  0  0  0  0  0  0  0
   10.7268  -16.6557   23.1051 C   0  0  0  0  0  0  0  0  0  0  0  0
   10.9020  -17.2085   24.4944 C   0  0  0  0  0  0  0  0  0  0  0  0
   12.1215  -18.0550   24.4957 C   0  0  0  0  0  0  0  0  0  0  0  0
   12.5050  -18.6048   25.5584 O   0  0  0  0  0  0  0  0  0  0  0  0
    9.4317  -14.8510   24.0515 C   0  0  0  0  0  0  0  0  0  0  0  0
   10.0370  -13.7683   23.8489 O   0  0  0  0  0  0  0  0  0  0  0  0
   12.8848  -18.2802   23.3563 O   0  0  0  0  0  0  0  0  0  0  0  0
    8.7846  -15.0166   25.3022 N   0  0  0  0  0  0  0  0  0  0  0  0
    8.8376  -13.9937   26.3440 C   0  0  1  0  0  0  0  0  0  0  0  0
    7.7279  -12.9852   26.1801 C   0  0  0  0  0  0  0  0  0  0  0  0
    6.0937  -13.7472   26.3236 S   0  0  0  0  0  0  0  0  0  0  0  0
    8.7942  -14.6521   27.6916 C   0  0  0  0  0  0  0  0  0  0  0  0
    8.9654  -13.9238   28.8593 O   0  0  0  0  0  0  0  0  0  0  0  0
    8.6007  -15.8903   27.8112 O   0  0  0  0  0  0  0  0  0  0  0  0
  1  2  1  0
  2  3  1  0
  3  4  1  1
  5  7  1  0
  5  3  1  0
  6  5  2  0
  8 13  1  0
  8  7  1  0
  8  9  1  6
 10 11  1  0
 10  9  1  0
 11 15  1  0
 12 11  2  0
 13 16  1  0
 14 13  2  0
 16 17  1  0
 17 20  1  0
 17 18  1  6
 18 19  1  0
 20 21  1  0
 22 20  2  0
M  END
$$$$
