SEC.pdb
     RDKit          3D

 22 21  0  0  1  0  0  0  0  0999 V2000
    5.6226  -14.7608   20.7325 O   0  0  0  0  0  0  0  0  0  0  0  0
    6.6314  -15.0283   19.8172 C   0  0  0  0  0  0  0  0  0  0  0  0
    7.2470  -16.3736   20.0133 C   0  0  2  0  0  0  0  0  0  0  0  0
    6.2713  -17.4110   19.8792 N   0  0  0  0  0  0  0  0  0  0  0  0
    7.9534  -16.4458   21.3360 C   0  0  0  0  0  0  0  0  0  0  0  0
    7.3532  -16.9254   22.3313 O   0  0  0  0  0  0  0  0  0  0  0  0
    9.2884  -15.9650   21.4176 N   0  0  0  0  0  0  0  0  0  0  0  0
   10.0097  -15.9886   22.6442 C   0  0  1  0  0  0  0  0  0  0  0  0
   11.5079  -15.8541   22.4717 C   0  0  0  0  0  0  0  0  0  0  0  0
   12.2447  -16.0576   23.7687 C   0  0  0  0  0  0  0  0  0  0  0  0
   13.6994  -16.0003   23.4781 C   0  0  0  0  0  0  0  0  0  0  0  0
   14.1327  -16.3707   22.3585 O   0  0  0  0  0  0  0  0  0  0  0  0
    9.5785  -14.9495   23.6070 C   0  0  0  0  0  0  0  0  0  0  0  0
    9.2177  -13.8376   23.1453 O   0  0  0  0  0  0  0  0  0  0  0  0
   14.6357  -15.5474   24.4000 O   0  0  0  0  0  0  0  0  0  0  0  0
    9.5429  -15.1180   25.0144 N   0  0  0  0  0  0  0  0  0  0  0  0
    8.9830  -14.1024   25.9029 C   0  0  1  0  0  0  0  0  0  0  0  0
    7.5453  -13.8035   25.5580 C   0  0  0  0  0  0  0  0  0  0  0  0
    6.7768  -12.6931   26.7614 S   0  0  0  0  0  0  0  0  0  0  0  0
    9.1299  -14.5506   27.3274 C   0  0  0  0  0  0  0  0  0  0  0  0
    9.3050  -15.8875   27.6515 O   0  0  0  0  0  0  0  0  0  0  0  0
    9.0996  -13.7286   28.2805 O   0  0  0  0  0  0  0  0  0  0  0  0
  1  2  1  0
  2  3  1  0
  3  4  1  1
  5  7  1  0
  5  3  1  0
  6  5  2  0
  8 13  1  0
  8  7  1  0
  8  9  1  6
 10 11  1  0
 10  9  1  0
 11 15  1  0
 12 11  2  0
 13 16  1  0
 14 13  2  0
 16 17  1  0
 17 20  1  0
 17 18  1  6
 18 19  1  0
 20 21  1  0
 22 20  2  0
M  END
$$$$
