SEC.pdb
     RDKit          3D

 22 21  0  0  1  0  0  0  0  0999 V2000
    8.7728  -12.1603   20.3256 O   0  0  0  0  0  0  0  0  0  0  0  0
    8.9873  -13.4359   19.8218 C   0  0  0  0  0  0  0  0  0  0  0  0
    7.8213  -14.3433   20.0321 C   0  0  2  0  0  0  0  0  0  0  0  0
    6.5995  -13.7114   19.6394 N   0  0  0  0  0  0  0  0  0  0  0  0
    7.7672  -14.8161   21.4559 C   0  0  0  0  0  0  0  0  0  0  0  0
    6.8770  -14.3675   22.2222 O   0  0  0  0  0  0  0  0  0  0  0  0
    8.7332  -15.7631   21.8919 N   0  0  0  0  0  0  0  0  0  0  0  0
    8.7644  -16.2216   23.2389 C   0  0  1  0  0  0  0  0  0  0  0  0
    9.6596  -17.4240   23.4516 C   0  0  0  0  0  0  0  0  0  0  0  0
    9.6021  -17.9251   24.8701 C   0  0  0  0  0  0  0  0  0  0  0  0
   10.5260  -19.0818   24.9807 C   0  0  0  0  0  0  0  0  0  0  0  0
   10.2255  -20.1805   24.4504 O   0  0  0  0  0  0  0  0  0  0  0  0
    9.1772  -15.1832   24.2104 C   0  0  0  0  0  0  0  0  0  0  0  0
   10.2343  -14.5463   23.9724 O   0  0  0  0  0  0  0  0  0  0  0  0
   11.7387  -19.0168   25.6565 O   0  0  0  0  0  0  0  0  0  0  0  0
    8.4654  -14.8546   25.3918 N   0  0  0  0  0  0  0  0  0  0  0  0
    8.9073  -13.7932   26.2933 C   0  0  1  0  0  0  0  0  0  0  0  0
    7.8988  -12.6734   26.3590 C   0  0  0  0  0  0  0  0  0  0  0  0
    6.2299  -13.2841   26.6957 S   0  0  0  0  0  0  0  0  0  0  0  0
    9.1812  -14.3733   27.6498 C   0  0  0  0  0  0  0  0  0  0  0  0
    9.6976  -13.5989   28.6778 O   0  0  0  0  0  0  0  0  0  0  0  0
    8.9519  -15.5848   27.9040 O   0  0  0  0  0  0  0  0  0  0  0  0
  1  2  1  0
  2  3  1  0
  3  4  1  1
  5  7  1  0
  5  3  1  0
  6  5  2  0
  8 13  1  0
  8  7  1  0
  8  9  1  6
 10 11  1  0
 10  9  1  0
 11 15  1  0
 12 11  2  0
 13 16  1  0
 14 13  2  0
 16 17  1  0
 17 20  1  0
 17 18  1  1
 18 19  1  0
 20 21  1  0
 22 20  2  0
M  END
$$$$
