SEC.pdb
     RDKit          3D

 22 21  0  0  1  0  0  0  0  0999 V2000
    7.8859  -13.0554   18.4208 O   0  0  0  0  0  0  0  0  0  0  0  0
    8.0136  -13.5013   19.7292 C   0  0  0  0  0  0  0  0  0  0  0  0
    7.9054  -14.9851   19.8465 C   0  0  2  0  0  0  0  0  0  0  0  0
    6.6157  -15.4421   19.4292 N   0  0  0  0  0  0  0  0  0  0  0  0
    8.2255  -15.4313   21.2437 C   0  0  0  0  0  0  0  0  0  0  0  0
    7.2885  -15.6319   22.0578 O   0  0  0  0  0  0  0  0  0  0  0  0
    9.5892  -15.6132   21.6006 N   0  0  0  0  0  0  0  0  0  0  0  0
    9.9601  -16.0737   22.8951 C   0  0  1  0  0  0  0  0  0  0  0  0
   11.3927  -16.5561   22.9818 C   0  0  0  0  0  0  0  0  0  0  0  0
   11.7493  -17.0155   24.3704 C   0  0  0  0  0  0  0  0  0  0  0  0
   13.1302  -17.5587   24.3282 C   0  0  0  0  0  0  0  0  0  0  0  0
   13.9349  -17.1648   23.4473 O   0  0  0  0  0  0  0  0  0  0  0  0
    9.7655  -15.0660   23.9625 C   0  0  0  0  0  0  0  0  0  0  0  0
    9.9880  -13.8621   23.6782 O   0  0  0  0  0  0  0  0  0  0  0  0
   13.5968  -18.5047   25.2330 O   0  0  0  0  0  0  0  0  0  0  0  0
    9.3457  -15.3610   25.2842 N   0  0  0  0  0  0  0  0  0  0  0  0
    9.0344  -14.3111   26.2514 C   0  0  1  0  0  0  0  0  0  0  0  0
    7.7105  -13.6569   25.9444 C   0  0  0  0  0  0  0  0  0  0  0  0
    7.2456  -12.4451   27.2042 S   0  0  0  0  0  0  0  0  0  0  0  0
    9.0608  -14.8863   27.6371 C   0  0  0  0  0  0  0  0  0  0  0  0
    9.3775  -14.1062   28.7390 O   0  0  0  0  0  0  0  0  0  0  0  0
    8.7962  -16.0986   27.8496 O   0  0  0  0  0  0  0  0  0  0  0  0
  1  2  1  0
  2  3  1  0
  3  4  1  1
  5  7  1  0
  5  3  1  0
  6  5  2  0
  8 13  1  0
  8  7  1  0
  8  9  1  6
 10 11  1  0
 10  9  1  0
 11 15  1  0
 12 11  2  0
 13 16  1  0
 14 13  2  0
 16 17  1  0
 17 20  1  0
 17 18  1  6
 18 19  1  0
 20 21  1  0
 22 20  2  0
M  END
$$$$
