SEC.pdb
     RDKit          3D

 22 21  0  0  1  0  0  0  0  0999 V2000
    6.5731  -14.9187   20.9887 O   0  0  0  0  0  0  0  0  0  0  0  0
    7.5933  -14.7178   20.0690 C   0  0  0  0  0  0  0  0  0  0  0  0
    8.3119  -15.9782   19.7195 C   0  0  2  0  0  0  0  0  0  0  0  0
    7.4166  -16.9430   19.1592 N   0  0  0  0  0  0  0  0  0  0  0  0
    9.0367  -16.5245   20.9152 C   0  0  0  0  0  0  0  0  0  0  0  0
    8.4877  -17.4103   21.6187 O   0  0  0  0  0  0  0  0  0  0  0  0
   10.3304  -16.0166   21.2130 N   0  0  0  0  0  0  0  0  0  0  0  0
   11.0686  -16.4847   22.3360 C   0  0  1  0  0  0  0  0  0  0  0  0
   12.5263  -16.0757   22.3192 C   0  0  0  0  0  0  0  0  0  0  0  0
   13.2807  -16.6306   23.4980 C   0  0  0  0  0  0  0  0  0  0  0  0
   14.7118  -16.2737   23.3298 C   0  0  0  0  0  0  0  0  0  0  0  0
   15.5796  -16.7796   24.0846 O   0  0  0  0  0  0  0  0  0  0  0  0
   10.5033  -16.0606   23.6373 C   0  0  0  0  0  0  0  0  0  0  0  0
   10.6485  -14.8585   23.9744 O   0  0  0  0  0  0  0  0  0  0  0  0
   15.1591  -15.3869   22.3577 O   0  0  0  0  0  0  0  0  0  0  0  0
    9.8090  -16.9134   24.5322 N   0  0  0  0  0  0  0  0  0  0  0  0
    9.4818  -16.5047   25.8961 C   0  0  1  0  0  0  0  0  0  0  0  0
    7.9909  -16.5009   26.1253 C   0  0  0  0  0  0  0  0  0  0  0  0
    7.1184  -15.5080   24.8906 S   0  0  0  0  0  0  0  0  0  0  0  0
   10.1901  -17.4014   26.8686 C   0  0  0  0  0  0  0  0  0  0  0  0
   10.0883  -17.2085   28.2381 O   0  0  0  0  0  0  0  0  0  0  0  0
   10.9031  -18.3620   26.4762 O   0  0  0  0  0  0  0  0  0  0  0  0
  1  2  1  0
  2  3  1  0
  3  4  1  1
  5  7  1  0
  5  3  1  0
  6  5  2  0
  8 13  1  0
  8  7  1  0
  8  9  1  6
 10 11  1  0
 10  9  1  0
 11 15  1  0
 12 11  2  0
 13 16  1  0
 14 13  2  0
 16 17  1  0
 17 20  1  0
 17 18  1  6
 18 19  1  0
 20 21  1  0
 22 20  2  0
M  END
$$$$
