LPM.pdb
     RDKit          3D

 24 24  0  0  1  0  0  0  0  0999 V2000
    6.6245  -12.2622   24.5775 C   0  0  0  0  0  0  0  0  0  0  0  0
    5.9189  -12.9063   25.7190 C   0  0  2  0  0  0  0  0  0  0  0  0
    5.8224  -11.9290   26.8711 C   0  0  0  0  0  0  0  0  0  0  0  0
    6.3849  -14.2581   26.1116 C   0  0  0  0  0  0  0  0  0  0  0  0
    6.1117  -15.3557   25.1101 C   0  0  2  0  0  0  0  0  0  0  0  0
    5.4162  -16.4575   25.6938 N   0  0  0  0  0  0  0  0  0  0  0  0
    7.2830  -15.7882   24.3598 C   0  0  0  0  0  0  0  0  0  0  0  0
    8.0363  -16.6431   24.9477 O   0  0  0  0  0  0  0  0  0  0  0  0
    7.6893  -15.3777   23.0605 N   0  0  0  0  0  0  0  0  0  0  0  0
    6.9215  -14.5563   22.1824 C   0  0  0  0  0  0  0  0  0  0  0  0
    7.5111  -14.8303   20.8130 C   0  0  0  0  0  0  0  0  0  0  0  0
    8.9495  -15.1895   21.0890 C   0  0  0  0  0  0  0  0  0  0  0  0
    8.9184  -15.7219   22.4599 C   0  0  1  0  0  0  0  0  0  0  0  0
   10.1047  -15.3313   23.2721 C   0  0  0  0  0  0  0  0  0  0  0  0
   10.1602  -14.1655   23.6991 O   0  0  0  0  0  0  0  0  0  0  0  0
   10.6651  -14.2734   29.6060 C   0  0  0  0  0  0  0  0  0  0  0  0
   10.8537  -14.3518   27.8101 S   0  0  0  0  0  0  0  0  0  0  0  0
   11.0902  -15.9859   27.2490 C   0  0  0  0  0  0  0  0  0  0  0  0
   11.0280  -16.4344   25.8822 C   0  0  0  0  0  0  0  0  0  0  0  0
   11.9774  -16.1170   24.8045 C   0  0  2  0  0  0  0  0  0  0  0  0
   11.1291  -16.2482   23.5485 N   0  0  0  0  0  0  0  0  0  0  0  0
   12.9532  -17.2268   24.6178 C   0  0  0  0  0  0  0  0  0  0  0  0
   14.2761  -17.0381   25.0595 O   0  0  0  0  0  0  0  0  0  0  0  0
   12.7150  -18.3189   24.1037 O   0  0  0  0  0  0  0  0  0  0  0  0
  2  1  1  6
  2  3  1  0
  4  2  1  0
  5  6  1  1
  5  7  1  0
  5  4  1  0
  7  9  1  0
  7  8  2  0
  9 10  1  0
 11 10  1  0
 12 13  1  0
 12 11  1  0
 13  9  1  0
 14 15  2  0
 13 14  1  1
 16 17  1  0
 18 19  1  0
 18 17  1  0
 20 19  1  1
 20 21  1  0
 21 14  1  0
 22 20  1  0
 22 23  1  0
 24 22  2  0
M  END
$$$$
