LPM.pdb
     RDKit          3D

 24 24  0  0  1  0  0  0  0  0999 V2000
    5.9973  -19.5388   18.7594 C   0  0  0  0  0  0  0  0  0  0  0  0
    7.1696  -20.1002   19.4850 C   0  0  2  0  0  0  0  0  0  0  0  0
    6.7545  -21.3548   20.2236 C   0  0  0  0  0  0  0  0  0  0  0  0
    7.9613  -19.1514   20.3045 C   0  0  0  0  0  0  0  0  0  0  0  0
    8.4668  -17.9284   19.5756 C   0  0  2  0  0  0  0  0  0  0  0  0
    9.3861  -18.2621   18.5356 N   0  0  0  0  0  0  0  0  0  0  0  0
    8.9875  -16.8835   20.4469 C   0  0  0  0  0  0  0  0  0  0  0  0
   10.2400  -16.9530   20.7124 O   0  0  0  0  0  0  0  0  0  0  0  0
    8.2770  -15.8017   21.0355 N   0  0  0  0  0  0  0  0  0  0  0  0
    6.9431  -15.4194   20.7038 C   0  0  0  0  0  0  0  0  0  0  0  0
    6.8415  -13.9850   21.1835 C   0  0  0  0  0  0  0  0  0  0  0  0
    7.8077  -13.9066   22.3389 C   0  0  0  0  0  0  0  0  0  0  0  0
    8.7934  -14.9568   22.0401 C   0  0  1  0  0  0  0  0  0  0  0  0
    9.2592  -15.6908   23.2500 C   0  0  0  0  0  0  0  0  0  0  0  0
    8.5152  -16.5671   23.7222 O   0  0  0  0  0  0  0  0  0  0  0  0
    9.6903  -14.4492   30.0489 C   0  0  0  0  0  0  0  0  0  0  0  0
    9.7167  -13.6496   28.4282 S   0  0  0  0  0  0  0  0  0  0  0  0
    8.9947  -14.6489   27.1949 C   0  0  0  0  0  0  0  0  0  0  0  0
    9.4356  -14.7686   25.8295 C   0  0  0  0  0  0  0  0  0  0  0  0
   10.6657  -15.4188   25.3524 C   0  0  2  0  0  0  0  0  0  0  0  0
   10.4986  -15.4047   23.8404 N   0  0  0  0  0  0  0  0  0  0  0  0
   10.6344  -16.8803   25.6383 C   0  0  0  0  0  0  0  0  0  0  0  0
    9.5237  -17.6256   25.2005 O   0  0  0  0  0  0  0  0  0  0  0  0
   11.5017  -17.5185   26.2333 O   0  0  0  0  0  0  0  0  0  0  0  0
  2  1  1  1
  2  3  1  0
  4  2  1  0
  5  6  1  6
  5  7  1  0
  5  4  1  0
  7  9  1  0
  7  8  2  0
  9 10  1  0
 11 10  1  0
 12 13  1  0
 12 11  1  0
 13  9  1  0
 14 15  2  0
 13 14  1  1
 16 17  1  0
 18 19  1  0
 18 17  1  0
 20 19  1  1
 20 21  1  0
 21 14  1  0
 22 20  1  0
 22 23  1  0
 24 22  2  0
M  END
$$$$
