LPM.pdb
     RDKit          3D

 24 24  0  0  1  0  0  0  0  0999 V2000
   13.9946  -17.5937   18.8024 C   0  0  0  0  0  0  0  0  0  0  0  0
   14.6127  -16.2414   18.8737 C   0  0  2  0  0  0  0  0  0  0  0  0
   16.1089  -16.3776   19.0597 C   0  0  0  0  0  0  0  0  0  0  0  0
   13.9765  -15.2670   19.7926 C   0  0  0  0  0  0  0  0  0  0  0  0
   12.4997  -15.0358   19.5733 C   0  0  2  0  0  0  0  0  0  0  0  0
   12.2280  -13.7300   19.0643 N   0  0  0  0  0  0  0  0  0  0  0  0
   11.6653  -15.3552   20.7239 C   0  0  0  0  0  0  0  0  0  0  0  0
   11.6645  -14.4885   21.6688 O   0  0  0  0  0  0  0  0  0  0  0  0
   10.8561  -16.5072   20.9239 N   0  0  0  0  0  0  0  0  0  0  0  0
   10.7255  -17.5878   20.0017 C   0  0  0  0  0  0  0  0  0  0  0  0
    9.4295  -18.2621   20.4065 C   0  0  0  0  0  0  0  0  0  0  0  0
    9.3113  -17.9904   21.8852 C   0  0  0  0  0  0  0  0  0  0  0  0
   10.0722  -16.7454   22.0721 C   0  0  1  0  0  0  0  0  0  0  0  0
   10.8539  -16.7159   23.3400 C   0  0  0  0  0  0  0  0  0  0  0  0
   12.0555  -17.0295   23.2910 O   0  0  0  0  0  0  0  0  0  0  0  0
    8.9036  -12.6146   28.2840 C   0  0  0  0  0  0  0  0  0  0  0  0
   10.3121  -13.5707   28.8911 S   0  0  0  0  0  0  0  0  0  0  0  0
   10.4529  -15.1103   28.0844 C   0  0  0  0  0  0  0  0  0  0  0  0
   10.2830  -15.3521   26.6752 C   0  0  0  0  0  0  0  0  0  0  0  0
   11.0725  -16.2648   25.8343 C   0  0  2  0  0  0  0  0  0  0  0  0
   10.2559  -16.3460   24.5533 N   0  0  0  0  0  0  0  0  0  0  0  0
   10.9722  -17.6636   26.3363 C   0  0  0  0  0  0  0  0  0  0  0  0
    9.9198  -18.4711   25.8659 O   0  0  0  0  0  0  0  0  0  0  0  0
   11.7341  -18.1986   27.1406 O   0  0  0  0  0  0  0  0  0  0  0  0
  2  1  1  1
  2  3  1  0
  4  2  1  0
  5  6  1  1
  5  7  1  0
  5  4  1  0
  7  9  1  0
  7  8  2  0
  9 10  1  0
 11 10  1  0
 12 13  1  0
 12 11  1  0
 13  9  1  0
 14 15  2  0
 13 14  1  1
 16 17  1  0
 18 19  1  0
 18 17  1  0
 20 19  1  1
 20 21  1  0
 21 14  1  0
 22 20  1  0
 22 23  1  0
 24 22  2  0
M  END
$$$$
