LPM.pdb
     RDKit          3D

 24 24  0  0  1  0  0  0  0  0999 V2000
    7.7339  -12.9013   27.0676 C   0  0  0  0  0  0  0  0  0  0  0  0
    6.8964  -13.5153   26.0012 C   0  0  2  0  0  0  0  0  0  0  0  0
    5.9631  -12.4712   25.4262 C   0  0  0  0  0  0  0  0  0  0  0  0
    6.2341  -14.7999   26.3326 C   0  0  0  0  0  0  0  0  0  0  0  0
    6.0886  -15.7710   25.1843 C   0  0  2  0  0  0  0  0  0  0  0  0
    5.4961  -17.0040   25.5926 N   0  0  0  0  0  0  0  0  0  0  0  0
    7.3100  -15.9819   24.4189 C   0  0  0  0  0  0  0  0  0  0  0  0
    8.1756  -16.7610   24.9554 O   0  0  0  0  0  0  0  0  0  0  0  0
    7.6557  -15.4300   23.1550 N   0  0  0  0  0  0  0  0  0  0  0  0
    6.8138  -14.5871   22.3701 C   0  0  0  0  0  0  0  0  0  0  0  0
    7.3857  -14.6966   20.9705 C   0  0  0  0  0  0  0  0  0  0  0  0
    8.8511  -14.9808   21.1853 C   0  0  0  0  0  0  0  0  0  0  0  0
    8.8894  -15.6348   22.5024 C   0  0  1  0  0  0  0  0  0  0  0  0
   10.0674  -15.2391   23.3241 C   0  0  0  0  0  0  0  0  0  0  0  0
   10.0634  -14.1095   23.8422 O   0  0  0  0  0  0  0  0  0  0  0  0
   11.0154  -13.3252   29.2437 C   0  0  0  0  0  0  0  0  0  0  0  0
   10.7101  -14.8214   28.2767 S   0  0  0  0  0  0  0  0  0  0  0  0
   11.7460  -14.9173   26.8772 C   0  0  0  0  0  0  0  0  0  0  0  0
   11.6241  -15.8532   25.7898 C   0  0  0  0  0  0  0  0  0  0  0  0
   12.2748  -15.7672   24.4735 C   0  0  2  0  0  0  0  0  0  0  0  0
   11.1493  -16.1118   23.5098 N   0  0  0  0  0  0  0  0  0  0  0  0
   13.2007  -16.9156   24.2672 C   0  0  0  0  0  0  0  0  0  0  0  0
   14.5726  -16.7241   24.5163 O   0  0  0  0  0  0  0  0  0  0  0  0
   12.8809  -18.0427   23.8917 O   0  0  0  0  0  0  0  0  0  0  0  0
  2  1  1  1
  2  3  1  0
  4  2  1  0
  5  6  1  1
  5  7  1  0
  5  4  1  0
  7  9  1  0
  7  8  2  0
  9 10  1  0
 11 10  1  0
 12 13  1  0
 12 11  1  0
 13  9  1  0
 14 15  2  0
 13 14  1  1
 16 17  1  0
 18 19  1  0
 18 17  1  0
 20 19  1  1
 20 21  1  0
 21 14  1  0
 22 20  1  0
 22 23  1  0
 24 22  2  0
M  END
$$$$
