LPM.pdb
     RDKit          3D

 24 24  0  0  1  0  0  0  0  0999 V2000
    7.1379  -13.0026   26.9104 C   0  0  0  0  0  0  0  0  0  0  0  0
    7.2035  -13.7945   25.6517 C   0  0  2  0  0  0  0  0  0  0  0  0
    7.3932  -12.8607   24.4753 C   0  0  0  0  0  0  0  0  0  0  0  0
    6.1438  -14.8118   25.4500 C   0  0  0  0  0  0  0  0  0  0  0  0
    6.3342  -15.7207   24.2582 C   0  0  2  0  0  0  0  0  0  0  0  0
    5.3212  -16.7234   24.1774 N   0  0  0  0  0  0  0  0  0  0  0  0
    7.6710  -16.2881   24.1442 C   0  0  0  0  0  0  0  0  0  0  0  0
    8.0564  -17.0080   25.1328 O   0  0  0  0  0  0  0  0  0  0  0  0
    8.5951  -16.1398   23.0739 N   0  0  0  0  0  0  0  0  0  0  0  0
    8.3080  -15.5173   21.8227 C   0  0  0  0  0  0  0  0  0  0  0  0
    9.3783  -16.0518   20.8917 C   0  0  0  0  0  0  0  0  0  0  0  0
   10.5533  -16.3340   21.7939 C   0  0  0  0  0  0  0  0  0  0  0  0
    9.9338  -16.5836   23.1045 C   0  0  1  0  0  0  0  0  0  0  0  0
   10.7167  -16.0271   24.2433 C   0  0  0  0  0  0  0  0  0  0  0  0
   10.7238  -14.7940   24.3980 O   0  0  0  0  0  0  0  0  0  0  0  0
   10.8826  -14.2337   30.7758 C   0  0  0  0  0  0  0  0  0  0  0  0
   10.7599  -14.1517   28.9744 S   0  0  0  0  0  0  0  0  0  0  0  0
    9.9729  -15.5582   28.3087 C   0  0  0  0  0  0  0  0  0  0  0  0
   10.3246  -16.2321   27.0858 C   0  0  0  0  0  0  0  0  0  0  0  0
   11.6796  -16.4556   26.5589 C   0  0  2  0  0  0  0  0  0  0  0  0
   11.4247  -16.8657   25.1162 N   0  0  0  0  0  0  0  0  0  0  0  0
   12.2642  -17.7050   27.1209 C   0  0  0  0  0  0  0  0  0  0  0  0
   11.8439  -18.9395   26.5915 O   0  0  0  0  0  0  0  0  0  0  0  0
   13.0977  -17.7699   28.0236 O   0  0  0  0  0  0  0  0  0  0  0  0
  2  1  1  1
  2  3  1  0
  4  2  1  0
  5  6  1  1
  5  7  1  0
  5  4  1  0
  7  9  1  0
  7  8  2  0
  9 10  1  0
 11 10  1  0
 12 13  1  0
 12 11  1  0
 13  9  1  0
 14 15  2  0
 13 14  1  1
 16 17  1  0
 18 19  1  0
 18 17  1  0
 20 19  1  1
 20 21  1  0
 21 14  1  0
 22 20  1  0
 22 23  1  0
 24 22  2  0
M  END
$$$$
