LPM.pdb
     RDKit          3D

 24 24  0  0  1  0  0  0  0  0999 V2000
    9.5273  -13.5514   18.6179 C   0  0  0  0  0  0  0  0  0  0  0  0
    8.0553  -13.4610   18.8206 C   0  0  2  0  0  0  0  0  0  0  0  0
    7.6558  -12.0108   18.9910 C   0  0  0  0  0  0  0  0  0  0  0  0
    7.4658  -14.3722   19.8309 C   0  0  0  0  0  0  0  0  0  0  0  0
    7.9310  -15.8079   19.7609 C   0  0  2  0  0  0  0  0  0  0  0  0
    7.0149  -16.6373   19.0461 N   0  0  0  0  0  0  0  0  0  0  0  0
    8.2950  -16.3838   21.0485 C   0  0  0  0  0  0  0  0  0  0  0  0
    7.3397  -16.5020   21.8955 O   0  0  0  0  0  0  0  0  0  0  0  0
    9.5761  -16.8280   21.4766 N   0  0  0  0  0  0  0  0  0  0  0  0
   10.7247  -16.9477   20.6389 C   0  0  0  0  0  0  0  0  0  0  0  0
   11.6303  -17.9029   21.3909 C   0  0  0  0  0  0  0  0  0  0  0  0
   11.2818  -17.6862   22.8421 C   0  0  0  0  0  0  0  0  0  0  0  0
    9.8919  -17.2065   22.7982 C   0  0  1  0  0  0  0  0  0  0  0  0
    9.6011  -16.1464   23.8038 C   0  0  0  0  0  0  0  0  0  0  0  0
    9.4846  -14.9767   23.4002 O   0  0  0  0  0  0  0  0  0  0  0  0
    6.5030  -11.2294   26.0671 C   0  0  0  0  0  0  0  0  0  0  0  0
    7.2223  -12.5013   27.1308 S   0  0  0  0  0  0  0  0  0  0  0  0
    6.8866  -14.1092   26.5452 C   0  0  0  0  0  0  0  0  0  0  0  0
    7.7829  -14.9446   25.7890 C   0  0  0  0  0  0  0  0  0  0  0  0
    9.1343  -15.3724   26.1819 C   0  0  2  0  0  0  0  0  0  0  0  0
    9.4622  -16.4550   25.1647 N   0  0  0  0  0  0  0  0  0  0  0  0
    9.0913  -16.1596   27.4457 C   0  0  0  0  0  0  0  0  0  0  0  0
    9.6759  -15.6066   28.6004 O   0  0  0  0  0  0  0  0  0  0  0  0
    8.5847  -17.2718   27.5869 O   0  0  0  0  0  0  0  0  0  0  0  0
  2  1  1  1
  2  3  1  0
  4  2  1  0
  5  6  1  1
  5  7  1  0
  5  4  1  0
  7  9  1  0
  7  8  2  0
  9 10  1  0
 11 10  1  0
 12 13  1  0
 12 11  1  0
 13  9  1  0
 14 15  2  0
 13 14  1  1
 16 17  1  0
 18 19  1  0
 18 17  1  0
 20 19  1  6
 20 21  1  0
 21 14  1  0
 22 20  1  0
 22 23  1  0
 24 22  2  0
M  END
$$$$
