LPM.pdb
     RDKit          3D

 24 24  0  0  1  0  0  0  0  0999 V2000
    7.7251  -11.9643   25.4072 C   0  0  0  0  0  0  0  0  0  0  0  0
    6.5222  -12.7519   25.7925 C   0  0  2  0  0  0  0  0  0  0  0  0
    5.7148  -11.9772   26.8121 C   0  0  0  0  0  0  0  0  0  0  0  0
    6.7451  -14.1730   26.1527 C   0  0  0  0  0  0  0  0  0  0  0  0
    6.2926  -15.1825   25.1238 C   0  0  2  0  0  0  0  0  0  0  0  0
    5.3804  -16.1360   25.6687 N   0  0  0  0  0  0  0  0  0  0  0  0
    7.3785  -15.8240   24.3950 C   0  0  0  0  0  0  0  0  0  0  0  0
    7.9537  -16.7988   24.9974 O   0  0  0  0  0  0  0  0  0  0  0  0
    7.8749  -15.5002   23.1025 N   0  0  0  0  0  0  0  0  0  0  0  0
    7.2375  -14.6230   22.1753 C   0  0  0  0  0  0  0  0  0  0  0  0
    7.8402  -15.0018   20.8368 C   0  0  0  0  0  0  0  0  0  0  0  0
    9.2176  -15.5132   21.1770 C   0  0  0  0  0  0  0  0  0  0  0  0
    9.0772  -15.9985   22.5586 C   0  0  1  0  0  0  0  0  0  0  0  0
   10.2708  -15.7212   23.4059 C   0  0  0  0  0  0  0  0  0  0  0  0
   10.5775  -14.5342   23.6096 O   0  0  0  0  0  0  0  0  0  0  0  0
   11.1432  -13.4018   28.3846 C   0  0  0  0  0  0  0  0  0  0  0  0
   10.4186  -15.0392   28.6308 S   0  0  0  0  0  0  0  0  0  0  0  0
   11.2173  -16.2578   27.6727 C   0  0  0  0  0  0  0  0  0  0  0  0
   10.9492  -16.5669   26.2922 C   0  0  0  0  0  0  0  0  0  0  0  0
   11.9076  -16.5313   25.1770 C   0  0  2  0  0  0  0  0  0  0  0  0
   11.0272  -16.7647   23.9586 N   0  0  0  0  0  0  0  0  0  0  0  0
   12.7525  -17.7580   25.1688 C   0  0  0  0  0  0  0  0  0  0  0  0
   12.3933  -18.8140   24.3104 O   0  0  0  0  0  0  0  0  0  0  0  0
   13.7571  -17.9476   25.8531 O   0  0  0  0  0  0  0  0  0  0  0  0
  2  1  1  1
  2  3  1  0
  4  2  1  0
  5  6  1  1
  5  7  1  0
  5  4  1  0
  7  9  1  0
  7  8  2  0
  9 10  1  0
 11 10  1  0
 12 13  1  0
 12 11  1  0
 13  9  1  0
 14 15  2  0
 13 14  1  1
 16 17  1  0
 18 19  1  0
 18 17  1  0
 20 19  1  1
 20 21  1  0
 21 14  1  0
 22 20  1  0
 22 23  1  0
 24 22  2  0
M  END
$$$$
