LPM.pdb
     RDKit          3D

 24 24  0  0  1  0  0  0  0  0999 V2000
    7.2203  -18.5923   17.1837 C   0  0  0  0  0  0  0  0  0  0  0  0
    8.1304  -19.4515   17.9896 C   0  0  2  0  0  0  0  0  0  0  0  0
    7.4316  -20.7508   18.3287 C   0  0  0  0  0  0  0  0  0  0  0  0
    8.8028  -18.8085   19.1441 C   0  0  0  0  0  0  0  0  0  0  0  0
    9.3998  -17.4474   18.8728 C   0  0  2  0  0  0  0  0  0  0  0  0
   10.6878  -17.5352   18.2635 N   0  0  0  0  0  0  0  0  0  0  0  0
    9.4024  -16.5536   20.0231 C   0  0  0  0  0  0  0  0  0  0  0  0
   10.4757  -16.5521   20.7245 O   0  0  0  0  0  0  0  0  0  0  0  0
    8.3626  -15.6874   20.4593 N   0  0  0  0  0  0  0  0  0  0  0  0
    7.1132  -15.5063   19.7947 C   0  0  0  0  0  0  0  0  0  0  0  0
    6.6071  -14.1770   20.3190 C   0  0  0  0  0  0  0  0  0  0  0  0
    7.2024  -14.0674   21.7003 C   0  0  0  0  0  0  0  0  0  0  0  0
    8.4202  -14.8887   21.6206 C   0  0  1  0  0  0  0  0  0  0  0  0
    8.6901  -15.6667   22.8621 C   0  0  0  0  0  0  0  0  0  0  0  0
    8.4730  -16.8902   22.8417 O   0  0  0  0  0  0  0  0  0  0  0  0
   10.3528  -14.1133   30.4656 C   0  0  0  0  0  0  0  0  0  0  0  0
   10.6784  -13.7178   28.7324 S   0  0  0  0  0  0  0  0  0  0  0  0
    9.9378  -14.8670   27.6499 C   0  0  0  0  0  0  0  0  0  0  0  0
    9.9778  -14.8300   26.2111 C   0  0  0  0  0  0  0  0  0  0  0  0
    9.4419  -15.8406   25.2864 C   0  0  2  0  0  0  0  0  0  0  0  0
    9.1744  -15.0412   24.0200 N   0  0  0  0  0  0  0  0  0  0  0  0
    8.0614  -16.2368   25.6812 C   0  0  0  0  0  0  0  0  0  0  0  0
    7.8885  -17.4268   26.4126 O   0  0  0  0  0  0  0  0  0  0  0  0
    7.0308  -15.6149   25.4266 O   0  0  0  0  0  0  0  0  0  0  0  0
  2  1  1  1
  2  3  1  0
  4  2  1  0
  5  6  1  1
  5  7  1  0
  5  4  1  0
  7  9  1  0
  7  8  2  0
  9 10  1  0
 11 10  1  0
 12 13  1  0
 12 11  1  0
 13  9  1  0
 14 15  2  0
 13 14  1  1
 16 17  1  0
 18 19  1  0
 18 17  1  0
 20 19  1  1
 20 21  1  0
 21 14  1  0
 22 20  1  0
 22 23  1  0
 24 22  2  0
M  END
$$$$
