MKW.pdb
     RDKit          3D

 32 33  0  0  1  0  0  0  0  0999 V2000
    8.4123  -11.8397   20.5196 C   0  0  0  0  0  0  0  0  0  0  0  0
    7.3119  -12.2332   19.1363 S   0  0  0  0  0  0  0  0  0  0  0  0
    7.5873  -13.9679   18.6528 C   0  0  0  0  0  0  0  0  0  0  0  0
    8.2139  -14.6842   19.8009 C   0  0  0  0  0  0  0  0  0  0  0  0
    8.4454  -16.1341   19.4734 C   0  0  2  0  0  0  0  0  0  0  0  0
    7.1991  -16.7512   19.0149 N   0  0  0  0  0  0  0  0  0  0  0  0
    8.8914  -16.8541   20.6733 C   0  0  0  0  0  0  0  0  0  0  0  0
    8.1073  -17.5716   21.3908 O   0  0  0  0  0  0  0  0  0  0  0  0
   10.2275  -16.7804   21.0890 N   0  0  0  0  0  0  0  0  0  0  0  0
   10.7421  -17.5448   22.2727 C   0  0  1  0  0  0  0  0  0  0  0  0
   11.9403  -18.2418   21.7343 C   0  0  0  0  0  0  0  0  0  0  0  0
   12.2410  -19.6225   22.0913 C   0  0  0  0  0  0  0  0  0  0  0  0
   13.5190  -20.2598   21.8045 C   0  0  0  0  0  0  0  0  0  0  0  0
   13.8203  -21.6550   22.1288 C   0  0  0  0  0  0  0  0  0  0  0  0
   15.2273  -21.8722   21.6542 N   0  0  0  0  0  0  0  0  0  0  0  0
   11.0954  -16.4420   23.2416 C   0  0  0  0  0  0  0  0  0  0  0  0
   11.4241  -15.2731   22.8183 O   0  0  0  0  0  0  0  0  0  0  0  0
   11.0538  -16.7273   24.6166 N   0  0  0  0  0  0  0  0  0  0  0  0
   10.0143  -16.0494   25.4222 C   0  0  1  0  0  0  0  0  0  0  0  0
    8.8898  -15.7948   24.4654 C   0  0  0  0  0  0  0  0  0  0  0  0
    7.7559  -15.1328   25.1052 C   0  0  0  0  0  0  0  0  0  0  0  0
    6.5094  -15.6776   25.3305 C   0  0  0  0  0  0  0  0  0  0  0  0
    5.7064  -14.7693   25.9091 N   0  0  0  0  0  0  0  0  0  0  0  0
    6.4065  -13.6324   26.0694 C   0  0  0  0  0  0  0  0  0  0  0  0
    6.0633  -12.4170   26.6184 C   0  0  0  0  0  0  0  0  0  0  0  0
    6.9848  -11.3768   26.6907 C   0  0  0  0  0  0  0  0  0  0  0  0
    8.2653  -11.5501   26.2092 C   0  0  0  0  0  0  0  0  0  0  0  0
    8.5911  -12.7693   25.6637 C   0  0  0  0  0  0  0  0  0  0  0  0
    7.6981  -13.8381   25.5711 C   0  0  0  0  0  0  0  0  0  0  0  0
    9.7151  -16.7964   26.6341 C   0  0  0  0  0  0  0  0  0  0  0  0
    9.6401  -16.3067   27.7811 O   0  0  0  0  0  0  0  0  0  0  0  0
    9.4867  -18.1818   26.5456 O   0  0  0  0  0  0  0  0  0  0  0  0
  2  1  1  0
  3  2  1  0
  4  3  1  0
  5  4  1  0
  5  6  1  1
  7  5  1  0
  7  8  2  0
  9  7  1  0
 10  9  1  0
 10 11  1  6
 11 12  1  0
 12 13  1  0
 13 14  1  0
 14 15  1  0
 16 10  1  0
 17 16  2  0
 18 16  1  0
 19 18  1  0
 19 20  1  6
 20 21  1  0
 21 22  2  0
 22 23  1  0
 24 23  1  0
 25 24  2  0
 26 25  1  0
 27 28  1  0
 27 26  2  0
 28 29  2  0
 29 21  1  0
 29 24  1  0
 30 19  1  0
 30 32  1  0
 31 30  2  0
M  END
$$$$
