MKW.pdb
     RDKit          3D

 32 33  0  0  1  0  0  0  0  0999 V2000
   15.5475  -18.7390   22.7091 C   0  0  0  0  0  0  0  0  0  0  0  0
   16.1699  -18.5870   21.0153 S   0  0  0  0  0  0  0  0  0  0  0  0
   14.7904  -18.0913   19.9339 C   0  0  0  0  0  0  0  0  0  0  0  0
   13.6874  -19.0825   20.0911 C   0  0  0  0  0  0  0  0  0  0  0  0
   12.4859  -18.6896   19.2756 C   0  0  2  0  0  0  0  0  0  0  0  0
   12.9056  -17.9332   18.0942 N   0  0  0  0  0  0  0  0  0  0  0  0
   11.5993  -17.8303   20.0710 C   0  0  0  0  0  0  0  0  0  0  0  0
   11.7199  -16.5546   20.1193 O   0  0  0  0  0  0  0  0  0  0  0  0
   10.5607  -18.3896   20.8272 N   0  0  0  0  0  0  0  0  0  0  0  0
    9.5089  -17.5495   21.4893 C   0  0  1  0  0  0  0  0  0  0  0  0
    8.2855  -18.3882   21.3833 C   0  0  0  0  0  0  0  0  0  0  0  0
    7.5446  -18.4975   20.1329 C   0  0  0  0  0  0  0  0  0  0  0  0
    6.3867  -19.3652   19.9656 C   0  0  0  0  0  0  0  0  0  0  0  0
    5.6092  -19.4504   18.7284 C   0  0  0  0  0  0  0  0  0  0  0  0
    4.5620  -20.4916   18.9950 N   0  0  0  0  0  0  0  0  0  0  0  0
   10.0226  -17.4439   22.9051 C   0  0  0  0  0  0  0  0  0  0  0  0
   10.8469  -18.3126   23.3736 O   0  0  0  0  0  0  0  0  0  0  0  0
    9.5769  -16.3712   23.6953 N   0  0  0  0  0  0  0  0  0  0  0  0
   10.0533  -16.3115   25.0948 C   0  0  1  0  0  0  0  0  0  0  0  0
    9.7765  -14.9070   25.5369 C   0  0  0  0  0  0  0  0  0  0  0  0
    8.3463  -14.6295   25.6409 C   0  0  0  0  0  0  0  0  0  0  0  0
    7.3241  -15.5502   25.5477 C   0  0  0  0  0  0  0  0  0  0  0  0
    6.1358  -14.9332   25.6563 N   0  0  0  0  0  0  0  0  0  0  0  0
    6.3601  -13.6175   25.8206 C   0  0  0  0  0  0  0  0  0  0  0  0
    5.4980  -12.5577   25.9936 C   0  0  0  0  0  0  0  0  0  0  0  0
    5.9784  -11.2631   26.1658 C   0  0  0  0  0  0  0  0  0  0  0  0
    7.3360  -11.0214   26.1655 C   0  0  0  0  0  0  0  0  0  0  0  0
    8.1827  -12.0906   25.9908 C   0  0  0  0  0  0  0  0  0  0  0  0
    7.7433  -13.4036   25.8143 C   0  0  0  0  0  0  0  0  0  0  0  0
    9.4931  -17.3935   25.8896 C   0  0  0  0  0  0  0  0  0  0  0  0
    8.5228  -18.1052   25.5536 O   0  0  0  0  0  0  0  0  0  0  0  0
   10.0636  -17.6902   27.1409 O   0  0  0  0  0  0  0  0  0  0  0  0
  2  1  1  0
  3  2  1  0
  4  3  1  0
  5  4  1  0
  5  6  1  6
  7  5  1  0
  7  8  2  0
  9  7  1  0
 10  9  1  0
 10 11  1  1
 11 12  1  0
 12 13  1  0
 13 14  1  0
 14 15  1  0
 16 10  1  0
 17 16  2  0
 18 16  1  0
 19 18  1  0
 19 20  1  1
 20 21  1  0
 21 22  2  0
 22 23  1  0
 24 23  1  0
 25 24  2  0
 26 25  1  0
 27 28  1  0
 27 26  2  0
 28 29  2  0
 29 21  1  0
 29 24  1  0
 30 19  1  0
 30 32  1  0
 31 30  2  0
M  END
$$$$
