MKW.pdb
     RDKit          3D

 32 33  0  0  1  0  0  0  0  0999 V2000
    7.7737  -11.8116   20.8268 C   0  0  0  0  0  0  0  0  0  0  0  0
    8.0316  -12.6858   19.2620 S   0  0  0  0  0  0  0  0  0  0  0  0
    6.9542  -14.1545   19.2350 C   0  0  0  0  0  0  0  0  0  0  0  0
    7.4218  -15.1025   20.2868 C   0  0  0  0  0  0  0  0  0  0  0  0
    8.3181  -16.1602   19.7027 C   0  0  2  0  0  0  0  0  0  0  0  0
    7.5757  -16.9697   18.7343 N   0  0  0  0  0  0  0  0  0  0  0  0
    8.7976  -17.0536   20.7653 C   0  0  0  0  0  0  0  0  0  0  0  0
    8.0570  -17.9411   21.3206 O   0  0  0  0  0  0  0  0  0  0  0  0
   10.1188  -16.9655   21.2236 N   0  0  0  0  0  0  0  0  0  0  0  0
   10.6426  -17.8312   22.3311 C   0  0  1  0  0  0  0  0  0  0  0  0
   11.9595  -18.2882   21.8134 C   0  0  0  0  0  0  0  0  0  0  0  0
   12.0595  -19.3571   20.8275 C   0  0  0  0  0  0  0  0  0  0  0  0
   12.9524  -19.3005   19.6781 C   0  0  0  0  0  0  0  0  0  0  0  0
   13.0263  -20.3461   18.6565 C   0  0  0  0  0  0  0  0  0  0  0  0
   13.9661  -19.8110   17.6160 N   0  0  0  0  0  0  0  0  0  0  0  0
   10.7729  -16.8523   23.4732 C   0  0  0  0  0  0  0  0  0  0  0  0
   11.4188  -15.7501   23.3260 O   0  0  0  0  0  0  0  0  0  0  0  0
   10.1689  -17.1776   24.6992 N   0  0  0  0  0  0  0  0  0  0  0  0
   10.4692  -16.3090   25.8587 C   0  0  1  0  0  0  0  0  0  0  0  0
   10.0282  -14.9398   25.4394 C   0  0  0  0  0  0  0  0  0  0  0  0
    8.6003  -14.7253   25.6589 C   0  0  0  0  0  0  0  0  0  0  0  0
    7.5990  -15.6622   25.5141 C   0  0  0  0  0  0  0  0  0  0  0  0
    6.4037  -15.1031   25.7653 N   0  0  0  0  0  0  0  0  0  0  0  0
    6.6027  -13.8097   26.0748 C   0  0  0  0  0  0  0  0  0  0  0  0
    5.7250  -12.8078   26.4246 C   0  0  0  0  0  0  0  0  0  0  0  0
    6.1805  -11.5276   26.7244 C   0  0  0  0  0  0  0  0  0  0  0  0
    7.5286  -11.2419   26.6749 C   0  0  0  0  0  0  0  0  0  0  0  0
    8.3910  -12.2533   26.3231 C   0  0  0  0  0  0  0  0  0  0  0  0
    7.9766  -13.5500   26.0143 C   0  0  0  0  0  0  0  0  0  0  0  0
    9.9088  -16.8538   27.0855 C   0  0  0  0  0  0  0  0  0  0  0  0
    9.9658  -16.3070   28.2075 O   0  0  0  0  0  0  0  0  0  0  0  0
    9.2430  -18.0924   27.0431 O   0  0  0  0  0  0  0  0  0  0  0  0
  2  1  1  0
  3  2  1  0
  4  3  1  0
  5  4  1  0
  5  6  1  6
  7  5  1  0
  7  8  2  0
  9  7  1  0
 10  9  1  0
 10 11  1  6
 11 12  1  0
 12 13  1  0
 13 14  1  0
 14 15  1  0
 16 10  1  0
 17 16  2  0
 18 16  1  0
 19 18  1  0
 19 20  1  6
 20 21  1  0
 21 22  2  0
 22 23  1  0
 24 23  1  0
 25 24  2  0
 26 25  1  0
 27 28  1  0
 27 26  2  0
 28 29  2  0
 29 21  1  0
 29 24  1  0
 30 19  1  0
 30 32  1  0
 31 30  2  0
M  END
$$$$
