MKW.pdb
     RDKit          3D

 32 33  0  0  1  0  0  0  0  0999 V2000
    8.7041  -11.6852   21.0350 C   0  0  0  0  0  0  0  0  0  0  0  0
    7.3161  -12.2181   20.0012 S   0  0  0  0  0  0  0  0  0  0  0  0
    7.6945  -13.8688   19.3299 C   0  0  0  0  0  0  0  0  0  0  0  0
    8.1251  -14.7485   20.4544 C   0  0  0  0  0  0  0  0  0  0  0  0
    8.5021  -16.1174   19.9574 C   0  0  2  0  0  0  0  0  0  0  0  0
    7.3856  -16.7086   19.2171 N   0  0  0  0  0  0  0  0  0  0  0  0
    8.8071  -16.9968   21.0935 C   0  0  0  0  0  0  0  0  0  0  0  0
    7.9660  -17.8375   21.5732 O   0  0  0  0  0  0  0  0  0  0  0  0
   10.0637  -16.9470   21.7115 N   0  0  0  0  0  0  0  0  0  0  0  0
   10.4460  -17.8750   22.8264 C   0  0  1  0  0  0  0  0  0  0  0  0
   11.8461  -18.2495   22.4938 C   0  0  0  0  0  0  0  0  0  0  0  0
   12.5845  -19.2183   23.2942 C   0  0  0  0  0  0  0  0  0  0  0  0
   12.1635  -20.6030   23.4583 C   0  0  0  0  0  0  0  0  0  0  0  0
   12.8822  -21.5771   24.2811 C   0  0  0  0  0  0  0  0  0  0  0  0
   14.0761  -21.9750   23.4637 N   0  0  0  0  0  0  0  0  0  0  0  0
   10.3542  -16.9797   24.0387 C   0  0  0  0  0  0  0  0  0  0  0  0
   10.8825  -15.8073   24.0337 O   0  0  0  0  0  0  0  0  0  0  0  0
    9.6756  -17.4616   25.1705 N   0  0  0  0  0  0  0  0  0  0  0  0
    9.9392  -16.7881   26.4613 C   0  0  1  0  0  0  0  0  0  0  0  0
    8.5933  -16.6463   27.1043 C   0  0  0  0  0  0  0  0  0  0  0  0
    7.6878  -15.8124   26.3181 C   0  0  0  0  0  0  0  0  0  0  0  0
    6.6291  -16.2502   25.5508 C   0  0  0  0  0  0  0  0  0  0  0  0
    6.0394  -15.2089   24.9407 N   0  0  0  0  0  0  0  0  0  0  0  0
    6.6942  -14.0893   25.2958 C   0  0  0  0  0  0  0  0  0  0  0  0
    6.4900  -12.7676   24.9675 C   0  0  0  0  0  0  0  0  0  0  0  0
    7.3048  -11.7657   25.4859 C   0  0  0  0  0  0  0  0  0  0  0  0
    8.3369  -12.0852   26.3428 C   0  0  0  0  0  0  0  0  0  0  0  0
    8.5274  -13.4095   26.6595 C   0  0  0  0  0  0  0  0  0  0  0  0
    7.7346  -14.4450   26.1618 C   0  0  0  0  0  0  0  0  0  0  0  0
   10.9785  -17.4749   27.2124 C   0  0  0  0  0  0  0  0  0  0  0  0
   11.4586  -18.5910   26.9209 O   0  0  0  0  0  0  0  0  0  0  0  0
   11.5084  -16.8642   28.3637 O   0  0  0  0  0  0  0  0  0  0  0  0
  2  1  1  0
  3  2  1  0
  4  3  1  0
  5  4  1  0
  5  6  1  1
  7  5  1  0
  7  8  2  0
  9  7  1  0
 10  9  1  0
 10 11  1  6
 11 12  1  0
 12 13  1  0
 13 14  1  0
 14 15  1  0
 16 10  1  0
 17 16  2  0
 18 16  1  0
 19 18  1  0
 19 20  1  1
 20 21  1  0
 21 22  2  0
 22 23  1  0
 24 23  1  0
 25 24  2  0
 26 25  1  0
 27 28  1  0
 27 26  2  0
 28 29  2  0
 29 21  1  0
 29 24  1  0
 30 19  1  0
 30 32  1  0
 31 30  2  0
M  END
$$$$
