MKW.pdb
     RDKit          3D

 32 33  0  0  1  0  0  0  0  0999 V2000
    8.0475  -11.4797   21.1444 C   0  0  0  0  0  0  0  0  0  0  0  0
    8.2934  -11.9551   19.4144 S   0  0  0  0  0  0  0  0  0  0  0  0
    7.3769  -13.4981   19.1022 C   0  0  0  0  0  0  0  0  0  0  0  0
    7.5487  -14.3961   20.2803 C   0  0  0  0  0  0  0  0  0  0  0  0
    7.9409  -15.7835   19.8511 C   0  0  2  0  0  0  0  0  0  0  0  0
    6.8768  -16.3786   19.0401 N   0  0  0  0  0  0  0  0  0  0  0  0
    8.1404  -16.6356   21.0306 C   0  0  0  0  0  0  0  0  0  0  0  0
    7.1711  -17.1467   21.6966 O   0  0  0  0  0  0  0  0  0  0  0  0
    9.4336  -16.9285   21.4835 N   0  0  0  0  0  0  0  0  0  0  0  0
    9.6903  -17.8755   22.6183 C   0  0  1  0  0  0  0  0  0  0  0  0
   10.8229  -18.7023   22.1233 C   0  0  0  0  0  0  0  0  0  0  0  0
   10.6022  -19.8534   21.2569 C   0  0  0  0  0  0  0  0  0  0  0  0
    9.7519  -20.9771   21.6254 C   0  0  0  0  0  0  0  0  0  0  0  0
    9.4565  -22.0979   20.7314 C   0  0  0  0  0  0  0  0  0  0  0  0
    8.5520  -22.9994   21.5196 N   0  0  0  0  0  0  0  0  0  0  0  0
   10.0940  -16.9419   23.7341 C   0  0  0  0  0  0  0  0  0  0  0  0
   10.8052  -15.8976   23.4948 O   0  0  0  0  0  0  0  0  0  0  0  0
    9.6707  -17.2443   25.0391 N   0  0  0  0  0  0  0  0  0  0  0  0
   10.1314  -16.3552   26.1283 C   0  0  1  0  0  0  0  0  0  0  0  0
    8.9586  -16.2389   27.0535 C   0  0  0  0  0  0  0  0  0  0  0  0
    7.8211  -15.5710   26.4263 C   0  0  0  0  0  0  0  0  0  0  0  0
    6.7430  -16.1824   25.8219 C   0  0  0  0  0  0  0  0  0  0  0  0
    5.9067  -15.2567   25.3240 N   0  0  0  0  0  0  0  0  0  0  0  0
    6.4179  -14.0422   25.5923 C   0  0  0  0  0  0  0  0  0  0  0  0
    5.9548  -12.7745   25.3187 C   0  0  0  0  0  0  0  0  0  0  0  0
    6.6659  -11.6485   25.7225 C   0  0  0  0  0  0  0  0  0  0  0  0
    7.8542  -11.7877   26.4080 C   0  0  0  0  0  0  0  0  0  0  0  0
    8.3026  -13.0603   26.6723 C   0  0  0  0  0  0  0  0  0  0  0  0
    7.6216  -14.2157   26.2852 C   0  0  0  0  0  0  0  0  0  0  0  0
   11.3918  -16.8168   26.6889 C   0  0  0  0  0  0  0  0  0  0  0  0
   11.9216  -17.9236   26.4533 O   0  0  0  0  0  0  0  0  0  0  0  0
   12.0976  -15.9773   27.5700 O   0  0  0  0  0  0  0  0  0  0  0  0
  2  1  1  0
  3  2  1  0
  4  3  1  0
  5  4  1  0
  5  6  1  6
  7  5  1  0
  7  8  2  0
  9  7  1  0
 10  9  1  0
 10 11  1  6
 11 12  1  0
 12 13  1  0
 13 14  1  0
 14 15  1  0
 16 10  1  0
 17 16  2  0
 18 16  1  0
 19 18  1  0
 19 20  1  1
 20 21  1  0
 21 22  2  0
 22 23  1  0
 24 23  1  0
 25 24  2  0
 26 25  1  0
 27 28  1  0
 27 26  2  0
 28 29  2  0
 29 21  1  0
 29 24  1  0
 30 19  1  0
 30 32  1  0
 31 30  2  0
M  END
$$$$
