MKW.pdb
     RDKit          3D

 32 33  0  0  1  0  0  0  0  0999 V2000
    5.2939  -12.2928   27.4359 C   0  0  0  0  0  0  0  0  0  0  0  0
    6.6798  -13.1972   26.7006 S   0  0  0  0  0  0  0  0  0  0  0  0
    6.0268  -14.6799   25.8677 C   0  0  0  0  0  0  0  0  0  0  0  0
    7.1614  -15.3911   25.2115 C   0  0  0  0  0  0  0  0  0  0  0  0
    6.6647  -16.3679   24.1808 C   0  0  2  0  0  0  0  0  0  0  0  0
    6.0374  -17.5164   24.8376 N   0  0  0  0  0  0  0  0  0  0  0  0
    7.7898  -16.8651   23.3782 C   0  0  0  0  0  0  0  0  0  0  0  0
    7.9567  -18.1058   23.1002 O   0  0  0  0  0  0  0  0  0  0  0  0
    8.7485  -15.9765   22.8736 N   0  0  0  0  0  0  0  0  0  0  0  0
    9.7616  -16.3885   21.8468 C   0  0  1  0  0  0  0  0  0  0  0  0
    9.8105  -15.2205   20.9278 C   0  0  0  0  0  0  0  0  0  0  0  0
    8.6366  -14.7949   20.1760 C   0  0  0  0  0  0  0  0  0  0  0  0
    8.6610  -13.7064   19.2085 C   0  0  0  0  0  0  0  0  0  0  0  0
    7.4818  -13.2506   18.4707 C   0  0  0  0  0  0  0  0  0  0  0  0
    7.9300  -12.0200   17.7381 N   0  0  0  0  0  0  0  0  0  0  0  0
   11.0178  -16.5343   22.6717 C   0  0  0  0  0  0  0  0  0  0  0  0
   12.1749  -16.5606   22.1113 O   0  0  0  0  0  0  0  0  0  0  0  0
   10.8880  -16.6391   24.0667 N   0  0  0  0  0  0  0  0  0  0  0  0
   12.1194  -16.8854   24.8491 C   0  0  1  0  0  0  0  0  0  0  0  0
   11.6620  -17.6371   26.0617 C   0  0  0  0  0  0  0  0  0  0  0  0
   10.5911  -16.9441   26.7731 C   0  0  0  0  0  0  0  0  0  0  0  0
    9.3178  -17.4208   27.0032 C   0  0  0  0  0  0  0  0  0  0  0  0
    8.5915  -16.5000   27.6581 N   0  0  0  0  0  0  0  0  0  0  0  0
    9.3686  -15.4220   27.8641 C   0  0  0  0  0  0  0  0  0  0  0  0
    9.1203  -14.2227   28.4939 C   0  0  0  0  0  0  0  0  0  0  0  0
   10.1096  -13.2499   28.5997 C   0  0  0  0  0  0  0  0  0  0  0  0
   11.3630  -13.4750   28.0707 C   0  0  0  0  0  0  0  0  0  0  0  0
   11.5938  -14.6772   27.4447 C   0  0  0  0  0  0  0  0  0  0  0  0
   10.6305  -15.6791   27.3161 C   0  0  0  0  0  0  0  0  0  0  0  0
   13.1543  -17.4932   24.0271 C   0  0  0  0  0  0  0  0  0  0  0  0
   14.3831  -17.4016   24.2332 O   0  0  0  0  0  0  0  0  0  0  0  0
   12.7786  -18.2511   22.9029 O   0  0  0  0  0  0  0  0  0  0  0  0
  2  1  1  0
  3  2  1  0
  4  3  1  0
  5  4  1  0
  5  6  1  1
  7  5  1  0
  7  8  2  0
  9  7  1  0
 10  9  1  0
 10 11  1  6
 11 12  1  0
 12 13  1  0
 13 14  1  0
 14 15  1  0
 16 10  1  0
 17 16  2  0
 18 16  1  0
 19 18  1  0
 19 20  1  1
 20 21  1  0
 21 22  2  0
 22 23  1  0
 24 23  1  0
 25 24  2  0
 26 25  1  0
 27 28  1  0
 27 26  2  0
 28 29  2  0
 29 21  1  0
 29 24  1  0
 30 19  1  0
 30 32  1  0
 31 30  2  0
M  END
$$$$
