MKW.pdb
     RDKit          3D

 32 33  0  0  1  0  0  0  0  0999 V2000
    9.0552  -11.3306   19.8417 C   0  0  0  0  0  0  0  0  0  0  0  0
    8.4870  -12.9070   19.1549 S   0  0  0  0  0  0  0  0  0  0  0  0
    6.9294  -13.3695   19.9786 C   0  0  0  0  0  0  0  0  0  0  0  0
    7.2450  -14.3118   21.0905 C   0  0  0  0  0  0  0  0  0  0  0  0
    7.6604  -15.6565   20.5592 C   0  0  2  0  0  0  0  0  0  0  0  0
    6.5444  -16.2823   19.8470 N   0  0  0  0  0  0  0  0  0  0  0  0
    8.0393  -16.5392   21.6703 C   0  0  0  0  0  0  0  0  0  0  0  0
    7.1823  -17.1587   22.3955 O   0  0  0  0  0  0  0  0  0  0  0  0
    9.3893  -16.7414   21.9867 N   0  0  0  0  0  0  0  0  0  0  0  0
    9.8256  -17.6669   23.0838 C   0  0  1  0  0  0  0  0  0  0  0  0
   10.9220  -18.4496   22.4542 C   0  0  0  0  0  0  0  0  0  0  0  0
   11.5633  -19.5569   23.1522 C   0  0  0  0  0  0  0  0  0  0  0  0
   12.6941  -20.2952   22.6065 C   0  0  0  0  0  0  0  0  0  0  0  0
   13.3159  -21.4382   23.2770 C   0  0  0  0  0  0  0  0  0  0  0  0
   14.4477  -21.8492   22.3814 N   0  0  0  0  0  0  0  0  0  0  0  0
   10.3248  -16.7074   24.1373 C   0  0  0  0  0  0  0  0  0  0  0  0
   11.2771  -15.8826   23.8794 O   0  0  0  0  0  0  0  0  0  0  0  0
    9.7201  -16.7394   25.4050 N   0  0  0  0  0  0  0  0  0  0  0  0
   10.5372  -16.3086   26.5609 C   0  0  1  0  0  0  0  0  0  0  0  0
    9.8546  -15.0796   27.0790 C   0  0  0  0  0  0  0  0  0  0  0  0
    8.4681  -14.9838   26.6300 C   0  0  0  0  0  0  0  0  0  0  0  0
    7.6266  -16.0364   26.3382 C   0  0  0  0  0  0  0  0  0  0  0  0
    6.4360  -15.5741   25.9222 N   0  0  0  0  0  0  0  0  0  0  0  0
    6.4800  -14.2301   25.9362 C   0  0  0  0  0  0  0  0  0  0  0  0
    5.5334  -13.2809   25.6208 C   0  0  0  0  0  0  0  0  0  0  0  0
    5.8139  -11.9227   25.7349 C   0  0  0  0  0  0  0  0  0  0  0  0
    7.0543  -11.5049   26.1690 C   0  0  0  0  0  0  0  0  0  0  0  0
    7.9878  -12.4654   26.4790 C   0  0  0  0  0  0  0  0  0  0  0  0
    7.7485  -13.8369   26.3782 C   0  0  0  0  0  0  0  0  0  0  0  0
   10.7540  -17.4051   27.4919 C   0  0  0  0  0  0  0  0  0  0  0  0
   10.2083  -18.5269   27.4219 O   0  0  0  0  0  0  0  0  0  0  0  0
   11.6416  -17.2240   28.5683 O   0  0  0  0  0  0  0  0  0  0  0  0
  2  1  1  0
  3  2  1  0
  4  3  1  0
  5  4  1  0
  5  6  1  1
  7  5  1  0
  7  8  2  0
  9  7  1  0
 10  9  1  0
 10 11  1  6
 11 12  1  0
 12 13  1  0
 13 14  1  0
 14 15  1  0
 16 10  1  0
 17 16  2  0
 18 16  1  0
 19 18  1  0
 19 20  1  1
 20 21  1  0
 21 22  2  0
 22 23  1  0
 24 23  1  0
 25 24  2  0
 26 25  1  0
 27 28  1  0
 27 26  2  0
 28 29  2  0
 29 21  1  0
 29 24  1  0
 30 19  1  0
 30 32  1  0
 31 30  2  0
M  END
$$$$
