MKW.pdb
     RDKit          3D

 32 33  0  0  1  0  0  0  0  0999 V2000
    8.9238  -11.5132   20.4909 C   0  0  0  0  0  0  0  0  0  0  0  0
    7.3061  -12.2058   20.0633 S   0  0  0  0  0  0  0  0  0  0  0  0
    7.5382  -13.9319   19.5294 C   0  0  0  0  0  0  0  0  0  0  0  0
    7.9504  -14.7407   20.7124 C   0  0  0  0  0  0  0  0  0  0  0  0
    8.3894  -16.1192   20.2996 C   0  0  2  0  0  0  0  0  0  0  0  0
    7.2837  -16.8253   19.6492 N   0  0  0  0  0  0  0  0  0  0  0  0
    8.7869  -16.8939   21.4824 C   0  0  0  0  0  0  0  0  0  0  0  0
    7.9732  -17.6372   22.1380 O   0  0  0  0  0  0  0  0  0  0  0  0
   10.1068  -16.8468   21.9504 N   0  0  0  0  0  0  0  0  0  0  0  0
   10.6003  -17.7414   23.0489 C   0  0  1  0  0  0  0  0  0  0  0  0
   12.0078  -18.0183   22.6572 C   0  0  0  0  0  0  0  0  0  0  0  0
   12.3369  -19.0546   21.6865 C   0  0  0  0  0  0  0  0  0  0  0  0
   13.4765  -19.9501   21.8320 C   0  0  0  0  0  0  0  0  0  0  0  0
   13.8800  -20.9211   20.8137 C   0  0  0  0  0  0  0  0  0  0  0  0
   14.2716  -20.0981   19.6214 N   0  0  0  0  0  0  0  0  0  0  0  0
   10.4976  -16.8499   24.2631 C   0  0  0  0  0  0  0  0  0  0  0  0
   10.8812  -15.6234   24.2146 O   0  0  0  0  0  0  0  0  0  0  0  0
    9.9710  -17.3960   25.4455 N   0  0  0  0  0  0  0  0  0  0  0  0
   10.0285  -16.5618   26.6662 C   0  0  1  0  0  0  0  0  0  0  0  0
    8.6351  -16.5865   27.2163 C   0  0  0  0  0  0  0  0  0  0  0  0
    7.7069  -15.7959   26.4122 C   0  0  0  0  0  0  0  0  0  0  0  0
    6.6678  -16.2809   25.6463 C   0  0  0  0  0  0  0  0  0  0  0  0
    6.0473  -15.2695   25.0166 N   0  0  0  0  0  0  0  0  0  0  0  0
    6.6624  -14.1232   25.3572 C   0  0  0  0  0  0  0  0  0  0  0  0
    6.4162  -12.8144   25.0069 C   0  0  0  0  0  0  0  0  0  0  0  0
    7.1940  -11.7778   25.5136 C   0  0  0  0  0  0  0  0  0  0  0  0
    8.2312  -12.0491   26.3809 C   0  0  0  0  0  0  0  0  0  0  0  0
    8.4639  -13.3612   26.7196 C   0  0  0  0  0  0  0  0  0  0  0  0
    7.7090  -14.4303   26.2343 C   0  0  0  0  0  0  0  0  0  0  0  0
   11.1095  -16.9839   27.5434 C   0  0  0  0  0  0  0  0  0  0  0  0
   11.3795  -16.4712   28.6503 O   0  0  0  0  0  0  0  0  0  0  0  0
   11.9366  -18.0503   27.1463 O   0  0  0  0  0  0  0  0  0  0  0  0
  2  1  1  0
  3  2  1  0
  4  3  1  0
  5  4  1  0
  5  6  1  1
  7  5  1  0
  7  8  2  0
  9  7  1  0
 10  9  1  0
 10 11  1  6
 11 12  1  0
 12 13  1  0
 13 14  1  0
 14 15  1  0
 16 10  1  0
 17 16  2  0
 18 16  1  0
 19 18  1  0
 19 20  1  1
 20 21  1  0
 21 22  2  0
 22 23  1  0
 24 23  1  0
 25 24  2  0
 26 25  1  0
 27 28  1  0
 27 26  2  0
 28 29  2  0
 29 21  1  0
 29 24  1  0
 30 19  1  0
 30 32  1  0
 31 30  2  0
M  END
$$$$
