MKW.pdb
     RDKit          3D

 32 33  0  0  1  0  0  0  0  0999 V2000
    0.9187  -19.3907   20.3618 C   0  0  0  0  0  0  0  0  0  0  0  0
    2.6169  -19.0222   20.8715 S   0  0  0  0  0  0  0  0  0  0  0  0
    2.9989  -19.9983   22.3614 C   0  0  0  0  0  0  0  0  0  0  0  0
    4.4679  -19.9283   22.6079 C   0  0  0  0  0  0  0  0  0  0  0  0
    4.9433  -18.5015   22.6456 C   0  0  2  0  0  0  0  0  0  0  0  0
    4.7514  -17.8729   21.3371 N   0  0  0  0  0  0  0  0  0  0  0  0
    6.3770  -18.4590   22.9615 C   0  0  0  0  0  0  0  0  0  0  0  0
    6.8840  -19.0309   23.9912 O   0  0  0  0  0  0  0  0  0  0  0  0
    7.2675  -17.7723   22.1254 N   0  0  0  0  0  0  0  0  0  0  0  0
    8.7526  -17.8087   22.3337 C   0  0  1  0  0  0  0  0  0  0  0  0
    9.2906  -17.2975   21.0451 C   0  0  0  0  0  0  0  0  0  0  0  0
   10.7221  -17.2833   20.7710 C   0  0  0  0  0  0  0  0  0  0  0  0
   11.2915  -16.7717   19.5318 C   0  0  0  0  0  0  0  0  0  0  0  0
   12.7185  -16.8279   19.2111 C   0  0  0  0  0  0  0  0  0  0  0  0
   12.8324  -16.2521   17.8300 N   0  0  0  0  0  0  0  0  0  0  0  0
    8.9439  -16.8359   23.4724 C   0  0  0  0  0  0  0  0  0  0  0  0
    8.3541  -15.6932   23.4690 O   0  0  0  0  0  0  0  0  0  0  0  0
    9.7819  -17.2134   24.5349 N   0  0  0  0  0  0  0  0  0  0  0  0
   10.1387  -16.1727   25.5243 C   0  0  1  0  0  0  0  0  0  0  0  0
    9.1220  -16.3133   26.6158 C   0  0  0  0  0  0  0  0  0  0  0  0
    7.8848  -15.5965   26.3175 C   0  0  0  0  0  0  0  0  0  0  0  0
    6.7158  -16.1454   25.8344 C   0  0  0  0  0  0  0  0  0  0  0  0
    5.7975  -15.1834   25.6460 N   0  0  0  0  0  0  0  0  0  0  0  0
    6.3444  -14.0067   25.9991 C   0  0  0  0  0  0  0  0  0  0  0  0
    5.8332  -12.7281   26.0125 C   0  0  0  0  0  0  0  0  0  0  0  0
    6.6021  -11.6528   26.4470 C   0  0  0  0  0  0  0  0  0  0  0  0
    7.8978  -11.8542   26.8736 C   0  0  0  0  0  0  0  0  0  0  0  0
    8.3929  -13.1367   26.8530 C   0  0  0  0  0  0  0  0  0  0  0  0
    7.6567  -14.2426   26.4248 C   0  0  0  0  0  0  0  0  0  0  0  0
   11.5433  -16.2552   25.8937 C   0  0  0  0  0  0  0  0  0  0  0  0
   12.1145  -15.5130   26.7207 O   0  0  0  0  0  0  0  0  0  0  0  0
   12.3529  -17.2361   25.2924 O   0  0  0  0  0  0  0  0  0  0  0  0
  2  1  1  0
  3  2  1  0
  4  3  1  0
  5  4  1  0
  5  6  1  6
  7  5  1  0
  7  8  2  0
  9  7  1  0
 10  9  1  0
 10 11  1  6
 11 12  1  0
 12 13  1  0
 13 14  1  0
 14 15  1  0
 16 10  1  0
 17 16  2  0
 18 16  1  0
 19 18  1  0
 19 20  1  1
 20 21  1  0
 21 22  2  0
 22 23  1  0
 24 23  1  0
 25 24  2  0
 26 25  1  0
 27 28  1  0
 27 26  2  0
 28 29  2  0
 29 21  1  0
 29 24  1  0
 30 19  1  0
 30 32  1  0
 31 30  2  0
M  END
$$$$
