MKW.pdb
     RDKit          3D

 32 33  0  0  1  0  0  0  0  0999 V2000
    8.5721  -11.8929   21.6075 C   0  0  0  0  0  0  0  0  0  0  0  0
    6.9918  -11.9764   20.7270 S   0  0  0  0  0  0  0  0  0  0  0  0
    6.5094  -13.7258   20.5678 C   0  0  0  0  0  0  0  0  0  0  0  0
    7.7364  -14.5319   20.3062 C   0  0  0  0  0  0  0  0  0  0  0  0
    7.4196  -16.0019   20.2634 C   0  0  2  0  0  0  0  0  0  0  0  0
    5.9695  -16.2031   20.2329 N   0  0  0  0  0  0  0  0  0  0  0  0
    7.9423  -16.6627   21.4665 C   0  0  0  0  0  0  0  0  0  0  0  0
    7.1872  -17.1555   22.3783 O   0  0  0  0  0  0  0  0  0  0  0  0
    9.3241  -16.7812   21.6668 N   0  0  0  0  0  0  0  0  0  0  0  0
    9.9049  -17.5903   22.7887 C   0  0  1  0  0  0  0  0  0  0  0  0
   11.1985  -18.0670   22.2315 C   0  0  0  0  0  0  0  0  0  0  0  0
   11.2643  -18.7685   20.9555 C   0  0  0  0  0  0  0  0  0  0  0  0
   12.5150  -19.2020   20.3477 C   0  0  0  0  0  0  0  0  0  0  0  0
   12.5940  -19.8930   19.0597 C   0  0  0  0  0  0  0  0  0  0  0  0
   14.0618  -20.0450   18.7864 N   0  0  0  0  0  0  0  0  0  0  0  0
   10.0834  -16.5567   23.8747 C   0  0  0  0  0  0  0  0  0  0  0  0
   10.7512  -15.4796   23.6561 O   0  0  0  0  0  0  0  0  0  0  0  0
    9.4996  -16.8029   25.1286 N   0  0  0  0  0  0  0  0  0  0  0  0
   10.2262  -16.3228   26.3247 C   0  0  1  0  0  0  0  0  0  0  0  0
    9.1576  -15.8371   27.2560 C   0  0  0  0  0  0  0  0  0  0  0  0
    8.0616  -15.1801   26.5486 C   0  0  0  0  0  0  0  0  0  0  0  0
    6.9959  -15.8005   25.9314 C   0  0  0  0  0  0  0  0  0  0  0  0
    6.2011  -14.8854   25.3525 N   0  0  0  0  0  0  0  0  0  0  0  0
    6.7274  -13.6690   25.5800 C   0  0  0  0  0  0  0  0  0  0  0  0
    6.3038  -12.4082   25.2232 C   0  0  0  0  0  0  0  0  0  0  0  0
    7.0223  -11.2772   25.5986 C   0  0  0  0  0  0  0  0  0  0  0  0
    8.1783  -11.4043   26.3395 C   0  0  0  0  0  0  0  0  0  0  0  0
    8.5875  -12.6702   26.6867 C   0  0  0  0  0  0  0  0  0  0  0  0
    7.8977  -13.8302   26.3305 C   0  0  0  0  0  0  0  0  0  0  0  0
   11.1491  -17.3313   26.8217 C   0  0  0  0  0  0  0  0  0  0  0  0
   11.9197  -17.1846   27.7943 O   0  0  0  0  0  0  0  0  0  0  0  0
   11.2058  -18.5826   26.1812 O   0  0  0  0  0  0  0  0  0  0  0  0
  2  1  1  0
  3  2  1  0
  4  3  1  0
  5  4  1  0
  5  6  1  1
  7  5  1  0
  7  8  2  0
  9  7  1  0
 10  9  1  0
 10 11  1  6
 11 12  1  0
 12 13  1  0
 13 14  1  0
 14 15  1  0
 16 10  1  0
 17 16  2  0
 18 16  1  0
 19 18  1  0
 19 20  1  1
 20 21  1  0
 21 22  2  0
 22 23  1  0
 24 23  1  0
 25 24  2  0
 26 25  1  0
 27 28  1  0
 27 26  2  0
 28 29  2  0
 29 21  1  0
 29 24  1  0
 30 19  1  0
 30 32  1  0
 31 30  2  0
M  END
$$$$
