MKW.pdb
     RDKit          3D

 32 33  0  0  1  0  0  0  0  0999 V2000
    8.8348  -11.6447   19.6078 C   0  0  0  0  0  0  0  0  0  0  0  0
    8.9706  -13.0563   18.4817 S   0  0  0  0  0  0  0  0  0  0  0  0
    7.3105  -13.7667   18.2410 C   0  0  0  0  0  0  0  0  0  0  0  0
    6.8889  -14.4230   19.5119 C   0  0  0  0  0  0  0  0  0  0  0  0
    7.8226  -15.5442   19.8781 C   0  0  2  0  0  0  0  0  0  0  0  0
    7.6973  -16.6383   18.9129 N   0  0  0  0  0  0  0  0  0  0  0  0
    7.4779  -16.0706   21.2052 C   0  0  0  0  0  0  0  0  0  0  0  0
    6.3380  -15.8777   21.7600 O   0  0  0  0  0  0  0  0  0  0  0  0
    8.4086  -16.8235   21.9333 N   0  0  0  0  0  0  0  0  0  0  0  0
    8.0461  -17.5359   23.2028 C   0  0  1  0  0  0  0  0  0  0  0  0
    8.0799  -18.9700   22.8110 C   0  0  0  0  0  0  0  0  0  0  0  0
    7.8123  -20.0284   23.7767 C   0  0  0  0  0  0  0  0  0  0  0  0
    7.9778  -21.4437   23.4746 C   0  0  0  0  0  0  0  0  0  0  0  0
    7.7142  -22.5145   24.4370 C   0  0  0  0  0  0  0  0  0  0  0  0
    7.9833  -23.7877   23.6895 N   0  0  0  0  0  0  0  0  0  0  0  0
    9.1814  -17.1559   24.1228 C   0  0  0  0  0  0  0  0  0  0  0  0
   10.4004  -17.1911   23.7147 O   0  0  0  0  0  0  0  0  0  0  0  0
    8.8697  -16.7621   25.4349 N   0  0  0  0  0  0  0  0  0  0  0  0
    9.9980  -16.4348   26.3344 C   0  0  1  0  0  0  0  0  0  0  0  0
    9.4865  -15.3308   27.2087 C   0  0  0  0  0  0  0  0  0  0  0  0
    8.1635  -14.8666   26.7996 C   0  0  0  0  0  0  0  0  0  0  0  0
    7.0936  -15.6571   26.4366 C   0  0  0  0  0  0  0  0  0  0  0  0
    6.0489  -14.8883   26.0877 N   0  0  0  0  0  0  0  0  0  0  0  0
    6.4146  -13.6006   26.2162 C   0  0  0  0  0  0  0  0  0  0  0  0
    5.7238  -12.4284   26.0040 C   0  0  0  0  0  0  0  0  0  0  0  0
    6.3224  -11.1924   26.2284 C   0  0  0  0  0  0  0  0  0  0  0  0
    7.6270  -11.1237   26.6700 C   0  0  0  0  0  0  0  0  0  0  0  0
    8.3024  -12.3033   26.8760 C   0  0  0  0  0  0  0  0  0  0  0  0
    7.7405  -13.5631   26.6629 C   0  0  0  0  0  0  0  0  0  0  0  0
   10.5172  -17.6276   26.9853 C   0  0  0  0  0  0  0  0  0  0  0  0
   11.5583  -17.6758   27.6744 O   0  0  0  0  0  0  0  0  0  0  0  0
    9.8179  -18.8408   26.8499 O   0  0  0  0  0  0  0  0  0  0  0  0
  2  1  1  0
  3  2  1  0
  4  3  1  0
  5  4  1  0
  5  6  1  6
  7  5  1  0
  7  8  2  0
  9  7  1  0
 10  9  1  0
 10 11  1  6
 11 12  1  0
 12 13  1  0
 13 14  1  0
 14 15  1  0
 16 10  1  0
 17 16  2  0
 18 16  1  0
 19 18  1  0
 19 20  1  1
 20 21  1  0
 21 22  2  0
 22 23  1  0
 24 23  1  0
 25 24  2  0
 26 25  1  0
 27 28  1  0
 27 26  2  0
 28 29  2  0
 29 21  1  0
 29 24  1  0
 30 19  1  0
 30 32  1  0
 31 30  2  0
M  END
$$$$
