KNC.pdb
     RDKit          3D

 24 23  0  0  1  0  0  0  0  0999 V2000
    9.4875  -23.5943   16.6403 N   0  0  0  0  0  0  0  0  0  0  0  0
   10.8953  -23.1936   16.3753 C   0  0  1  0  0  0  0  0  0  0  0  0
   10.7892  -21.7445   15.9496 C   0  0  0  0  0  0  0  0  0  0  0  0
    9.6656  -20.9866   16.5651 C   0  0  0  0  0  0  0  0  0  0  0  0
    9.5538  -19.5756   16.0540 C   0  0  0  0  0  0  0  0  0  0  0  0
    8.2660  -19.3701   15.2681 C   0  0  0  0  0  0  0  0  0  0  0  0
    8.1550  -18.0015   14.8056 N   0  0  0  0  0  0  0  0  0  0  0  0
   11.6049  -23.3695   17.6708 C   0  0  0  0  0  0  0  0  0  0  0  0
   10.9709  -23.7006   18.7129 O   0  0  0  0  0  0  0  0  0  0  0  0
   16.3964  -25.2819   17.2484 N   0  0  0  0  0  0  0  0  0  0  0  0
   15.3488  -25.0860   18.1828 C   0  0  0  0  0  0  0  0  0  0  0  0
   14.6250  -26.0796   18.4667 O   0  0  0  0  0  0  0  0  0  0  0  0
   15.1022  -23.7945   18.8020 C   0  0  0  0  0  0  0  0  0  0  0  0
   13.7141  -23.4024   19.0938 C   0  0  2  0  0  0  0  0  0  0  0  0
   13.0160  -23.1857   17.8228 N   0  0  0  0  0  0  0  0  0  0  0  0
   13.4642  -22.3316   20.0505 C   0  0  0  0  0  0  0  0  0  0  0  0
   13.3587  -21.1425   19.5593 O   0  0  0  0  0  0  0  0  0  0  0  0
   13.3265  -22.4384   21.4471 N   0  0  0  0  0  0  0  0  0  0  0  0
   13.0961  -21.2369   22.2367 C   0  0  1  0  0  0  0  0  0  0  0  0
   12.0640  -21.4150   23.3101 C   0  0  0  0  0  0  0  0  0  0  0  0
   11.7861  -19.8957   24.2437 S   0  0  0  0  0  0  0  0  0  0  0  0
   14.3781  -20.8318   22.9233 C   0  0  0  0  0  0  0  0  0  0  0  0
   14.7474  -19.6430   22.9630 O   0  0  0  0  0  0  0  0  0  0  0  0
   15.1406  -21.8059   23.5094 O   0  0  0  0  0  0  0  0  0  0  0  0
  2  1  1  1
  3  2  1  0
  4  3  1  0
  4  5  1  0
  5  6  1  0
  7  6  1  0
  8 15  1  0
  8  2  1  0
  9  8  2  0
 10 11  1  0
 11 13  1  0
 12 11  2  0
 14 13  1  6
 14 15  1  0
 14 16  1  0
 16 18  1  0
 16 17  2  0
 18 19  1  0
 19 20  1  1
 21 20  1  0
 22 19  1  0
 22 24  1  0
 23 22  2  0
M  END
$$$$
