KNC.pdb
     RDKit          3D

 24 23  0  0  1  0  0  0  0  0999 V2000
    7.0652  -18.1821   19.6367 N   0  0  0  0  0  0  0  0  0  0  0  0
    8.5256  -18.4572   19.7029 C   0  0  1  0  0  0  0  0  0  0  0  0
    8.9130  -18.7254   18.2640 C   0  0  0  0  0  0  0  0  0  0  0  0
    8.0490  -19.7048   17.5500 C   0  0  0  0  0  0  0  0  0  0  0  0
    7.4574  -19.1559   16.2799 C   0  0  0  0  0  0  0  0  0  0  0  0
    6.5901  -20.1922   15.5781 C   0  0  0  0  0  0  0  0  0  0  0  0
    5.9657  -19.6303   14.3976 N   0  0  0  0  0  0  0  0  0  0  0  0
    9.1356  -17.2151   20.2485 C   0  0  0  0  0  0  0  0  0  0  0  0
   10.3909  -17.1019   20.3441 O   0  0  0  0  0  0  0  0  0  0  0  0
    6.3495  -13.5614   19.0567 N   0  0  0  0  0  0  0  0  0  0  0  0
    7.7229  -13.7008   19.3779 C   0  0  0  0  0  0  0  0  0  0  0  0
    8.5385  -13.8140   18.4220 O   0  0  0  0  0  0  0  0  0  0  0  0
    8.1936  -13.7147   20.7529 C   0  0  0  0  0  0  0  0  0  0  0  0
    8.9754  -14.8698   21.2223 C   0  0  2  0  0  0  0  0  0  0  0  0
    8.3659  -16.0912   20.6870 N   0  0  0  0  0  0  0  0  0  0  0  0
    9.2902  -14.9857   22.6407 C   0  0  0  0  0  0  0  0  0  0  0  0
    9.6558  -13.8988   23.2333 O   0  0  0  0  0  0  0  0  0  0  0  0
    9.2458  -16.1421   23.4417 N   0  0  0  0  0  0  0  0  0  0  0  0
    9.6674  -16.0644   24.8332 C   0  0  1  0  0  0  0  0  0  0  0  0
    8.6696  -15.3857   25.7237 C   0  0  0  0  0  0  0  0  0  0  0  0
    7.0038  -16.0440   25.5027 S   0  0  0  0  0  0  0  0  0  0  0  0
    9.8652  -17.4583   25.3782 C   0  0  0  0  0  0  0  0  0  0  0  0
    9.5488  -18.4659   24.7181 O   0  0  0  0  0  0  0  0  0  0  0  0
   10.4046  -17.5999   26.6283 O   0  0  0  0  0  0  0  0  0  0  0  0
  2  1  1  6
  3  2  1  0
  4  3  1  0
  4  5  1  0
  5  6  1  0
  7  6  1  0
  8 15  1  0
  8  2  1  0
  9  8  2  0
 10 11  1  0
 11 13  1  0
 12 11  2  0
 14 13  1  1
 14 15  1  0
 14 16  1  0
 16 18  1  0
 16 17  2  0
 18 19  1  0
 19 20  1  1
 21 20  1  0
 22 19  1  0
 22 24  1  0
 23 22  2  0
M  END
$$$$
