KNC.pdb
     RDKit          3D

 24 23  0  0  1  0  0  0  0  0999 V2000
   11.6522  -17.5225   20.0604 N   0  0  0  0  0  0  0  0  0  0  0  0
   10.9464  -16.3139   20.5642 C   0  0  1  0  0  0  0  0  0  0  0  0
    9.8598  -16.0706   19.5383 C   0  0  0  0  0  0  0  0  0  0  0  0
    9.5590  -17.2274   18.6513 C   0  0  0  0  0  0  0  0  0  0  0  0
    8.4657  -16.9421   17.6574 C   0  0  0  0  0  0  0  0  0  0  0  0
    8.0672  -18.1981   16.8945 C   0  0  0  0  0  0  0  0  0  0  0  0
    7.0723  -17.8967   15.8853 N   0  0  0  0  0  0  0  0  0  0  0  0
   10.4123  -16.6978   21.8984 C   0  0  0  0  0  0  0  0  0  0  0  0
    9.1745  -16.6228   22.1429 O   0  0  0  0  0  0  0  0  0  0  0  0
   13.6484  -19.4412   24.2634 N   0  0  0  0  0  0  0  0  0  0  0  0
   12.3049  -19.4467   23.8120 C   0  0  0  0  0  0  0  0  0  0  0  0
   12.0705  -19.9510   22.6795 O   0  0  0  0  0  0  0  0  0  0  0  0
   11.2228  -18.8960   24.6109 C   0  0  0  0  0  0  0  0  0  0  0  0
   10.7021  -17.5614   24.2743 C   0  0  2  0  0  0  0  0  0  0  0  0
   11.2387  -17.1698   22.9672 N   0  0  0  0  0  0  0  0  0  0  0  0
   10.8051  -16.4898   25.2569 C   0  0  0  0  0  0  0  0  0  0  0  0
   11.8989  -15.8045   25.2394 O   0  0  0  0  0  0  0  0  0  0  0  0
    9.8551  -16.1140   26.2251 N   0  0  0  0  0  0  0  0  0  0  0  0
   10.1225  -14.9671   27.0814 C   0  0  1  0  0  0  0  0  0  0  0  0
    8.9437  -14.0545   27.2446 C   0  0  0  0  0  0  0  0  0  0  0  0
    9.2975  -12.6811   28.3608 S   0  0  0  0  0  0  0  0  0  0  0  0
   10.5009  -15.4465   28.4619 C   0  0  0  0  0  0  0  0  0  0  0  0
   10.3254  -16.6292   28.8107 O   0  0  0  0  0  0  0  0  0  0  0  0
   11.0468  -14.5477   29.3381 O   0  0  0  0  0  0  0  0  0  0  0  0
  2  1  1  6
  3  2  1  0
  4  3  1  0
  4  5  1  0
  5  6  1  0
  7  6  1  0
  8 15  1  0
  8  2  1  0
  9  8  2  0
 10 11  1  0
 11 13  1  0
 12 11  2  0
 14 13  1  1
 14 15  1  0
 14 16  1  0
 16 18  1  0
 16 17  2  0
 18 19  1  0
 19 20  1  1
 21 20  1  0
 22 19  1  0
 22 24  1  0
 23 22  2  0
M  END
$$$$
