KNC.pdb
     RDKit          3D

 24 23  0  0  1  0  0  0  0  0999 V2000
    5.4048  -17.4684   21.7681 N   0  0  0  0  0  0  0  0  0  0  0  0
    6.6803  -16.7050   21.8221 C   0  0  1  0  0  0  0  0  0  0  0  0
    6.2629  -15.2755   21.5489 C   0  0  0  0  0  0  0  0  0  0  0  0
    7.3796  -14.2934   21.4849 C   0  0  0  0  0  0  0  0  0  0  0  0
    7.6673  -13.8152   20.0873 C   0  0  0  0  0  0  0  0  0  0  0  0
    8.8309  -12.8334   20.0650 C   0  0  0  0  0  0  0  0  0  0  0  0
    9.0884  -12.3670   18.7176 N   0  0  0  0  0  0  0  0  0  0  0  0
    7.2012  -16.9063   23.2008 C   0  0  0  0  0  0  0  0  0  0  0  0
    6.4311  -16.8208   24.1994 O   0  0  0  0  0  0  0  0  0  0  0  0
   10.7642  -19.8933   26.7686 N   0  0  0  0  0  0  0  0  0  0  0  0
   10.8397  -18.6486   26.0951 C   0  0  0  0  0  0  0  0  0  0  0  0
   11.5693  -17.7527   26.6019 O   0  0  0  0  0  0  0  0  0  0  0  0
   10.1104  -18.3949   24.8637 C   0  0  0  0  0  0  0  0  0  0  0  0
    9.0913  -17.3333   24.8500 C   0  0  2  0  0  0  0  0  0  0  0  0
    8.5712  -17.2067   23.4850 N   0  0  0  0  0  0  0  0  0  0  0  0
    9.4047  -16.0396   25.4437 C   0  0  0  0  0  0  0  0  0  0  0  0
   10.2653  -15.3159   24.8097 O   0  0  0  0  0  0  0  0  0  0  0  0
    8.8830  -15.4856   26.6277 N   0  0  0  0  0  0  0  0  0  0  0  0
    9.4481  -14.2484   27.1475 C   0  0  1  0  0  0  0  0  0  0  0  0
    8.4131  -13.2400   27.5488 C   0  0  0  0  0  0  0  0  0  0  0  0
    7.1719  -12.9921   26.2623 S   0  0  0  0  0  0  0  0  0  0  0  0
   10.2696  -14.5478   28.3781 C   0  0  0  0  0  0  0  0  0  0  0  0
   10.3366  -15.6977   28.8517 O   0  0  0  0  0  0  0  0  0  0  0  0
   10.9488  -13.5203   28.9753 O   0  0  0  0  0  0  0  0  0  0  0  0
  2  1  1  1
  3  2  1  0
  4  3  1  0
  4  5  1  0
  5  6  1  0
  7  6  1  0
  8 15  1  0
  8  2  1  0
  9  8  2  0
 10 11  1  0
 11 13  1  0
 12 11  2  0
 14 13  1  6
 14 15  1  0
 14 16  1  0
 16 18  1  0
 16 17  2  0
 18 19  1  0
 19 20  1  1
 21 20  1  0
 22 19  1  0
 22 24  1  0
 23 22  2  0
M  END
$$$$
