KNC.pdb
     RDKit          3D

 24 23  0  0  1  0  0  0  0  0999 V2000
   11.1330  -19.4809   22.4650 N   0  0  0  0  0  0  0  0  0  0  0  0
   11.9546  -18.5901   21.6024 C   0  0  1  0  0  0  0  0  0  0  0  0
   11.8229  -19.1955   20.2209 C   0  0  0  0  0  0  0  0  0  0  0  0
   10.6396  -20.0778   20.0288 C   0  0  0  0  0  0  0  0  0  0  0  0
   10.5959  -20.7209   18.6690 C   0  0  0  0  0  0  0  0  0  0  0  0
    9.3265  -21.5410   18.4832 C   0  0  0  0  0  0  0  0  0  0  0  0
    9.3225  -22.2035   17.1947 N   0  0  0  0  0  0  0  0  0  0  0  0
   11.3253  -17.2467   21.7120 C   0  0  0  0  0  0  0  0  0  0  0  0
   11.8189  -16.2527   21.1071 O   0  0  0  0  0  0  0  0  0  0  0  0
    7.3112  -13.5893   21.1133 N   0  0  0  0  0  0  0  0  0  0  0  0
    7.3171  -14.5619   22.1442 C   0  0  0  0  0  0  0  0  0  0  0  0
    6.5607  -14.3682   23.1352 O   0  0  0  0  0  0  0  0  0  0  0  0
    8.1573  -15.7461   22.0796 C   0  0  0  0  0  0  0  0  0  0  0  0
    9.5353  -15.6656   22.5897 C   0  0  2  0  0  0  0  0  0  0  0  0
   10.1476  -16.9937   22.4846 N   0  0  0  0  0  0  0  0  0  0  0  0
    9.7778  -15.0468   23.8869 C   0  0  0  0  0  0  0  0  0  0  0  0
   10.5198  -13.9905   23.8839 O   0  0  0  0  0  0  0  0  0  0  0  0
    9.3017  -15.4648   25.1437 N   0  0  0  0  0  0  0  0  0  0  0  0
    9.5783  -14.6516   26.3194 C   0  0  1  0  0  0  0  0  0  0  0  0
    8.4976  -13.6587   26.6280 C   0  0  0  0  0  0  0  0  0  0  0  0
    8.8429  -12.7251   28.1334 S   0  0  0  0  0  0  0  0  0  0  0  0
    9.7124  -15.5446   27.5292 C   0  0  0  0  0  0  0  0  0  0  0  0
    9.3700  -16.7416   27.4955 O   0  0  0  0  0  0  0  0  0  0  0  0
   10.2224  -15.0101   28.6816 O   0  0  0  0  0  0  0  0  0  0  0  0
  2  1  1  1
  3  2  1  0
  4  3  1  0
  4  5  1  0
  5  6  1  0
  7  6  1  0
  8 15  1  0
  8  2  1  0
  9  8  2  0
 10 11  1  0
 11 13  1  0
 12 11  2  0
 14 13  1  1
 14 15  1  0
 14 16  1  0
 16 18  1  0
 16 17  2  0
 18 19  1  0
 19 20  1  1
 21 20  1  0
 22 19  1  0
 22 24  1  0
 23 22  2  0
M  END
$$$$
