KNC.pdb
     RDKit          3D

 24 23  0  0  1  0  0  0  0  0999 V2000
   10.4934  -15.0027   19.7833 N   0  0  0  0  0  0  0  0  0  0  0  0
    9.5018  -14.1875   20.5349 C   0  0  1  0  0  0  0  0  0  0  0  0
    8.3279  -14.0727   19.5857 C   0  0  0  0  0  0  0  0  0  0  0  0
    8.6334  -14.3875   18.1633 C   0  0  0  0  0  0  0  0  0  0  0  0
    7.9953  -13.4284   17.1950 C   0  0  0  0  0  0  0  0  0  0  0  0
    8.1934  -13.8798   15.7544 C   0  0  0  0  0  0  0  0  0  0  0  0
    7.4464  -13.0387   14.8413 N   0  0  0  0  0  0  0  0  0  0  0  0
    9.1884  -14.9768   21.7561 C   0  0  0  0  0  0  0  0  0  0  0  0
    8.2695  -14.6095   22.5425 O   0  0  0  0  0  0  0  0  0  0  0  0
   11.1188  -20.0214   24.7096 N   0  0  0  0  0  0  0  0  0  0  0  0
   10.0459  -19.1567   24.3784 C   0  0  0  0  0  0  0  0  0  0  0  0
    9.0285  -19.1748   25.1243 O   0  0  0  0  0  0  0  0  0  0  0  0
   10.0975  -18.2738   23.2249 C   0  0  0  0  0  0  0  0  0  0  0  0
    9.6558  -16.8787   23.3805 C   0  0  2  0  0  0  0  0  0  0  0  0
    9.8827  -16.1759   22.1139 N   0  0  0  0  0  0  0  0  0  0  0  0
   10.1194  -16.1104   24.5291 C   0  0  0  0  0  0  0  0  0  0  0  0
   11.3564  -15.7421   24.5058 O   0  0  0  0  0  0  0  0  0  0  0  0
    9.3801  -15.7237   25.6626 N   0  0  0  0  0  0  0  0  0  0  0  0
   10.0510  -15.0240   26.7491 C   0  0  1  0  0  0  0  0  0  0  0  0
    9.2009  -13.9734   27.3993 C   0  0  0  0  0  0  0  0  0  0  0  0
   10.0799  -13.1084   28.7170 S   0  0  0  0  0  0  0  0  0  0  0  0
   10.4291  -16.0114   27.8265 C   0  0  0  0  0  0  0  0  0  0  0  0
   11.2061  -15.7016   28.7493 O   0  0  0  0  0  0  0  0  0  0  0  0
    9.8979  -17.2718   27.7723 O   0  0  0  0  0  0  0  0  0  0  0  0
  2  1  1  6
  3  2  1  0
  4  3  1  0
  4  5  1  0
  5  6  1  0
  7  6  1  0
  8 15  1  0
  8  2  1  0
  9  8  2  0
 10 11  1  0
 11 13  1  0
 12 11  2  0
 14 13  1  6
 14 15  1  0
 14 16  1  0
 16 18  1  0
 16 17  2  0
 18 19  1  0
 19 20  1  1
 21 20  1  0
 22 19  1  0
 22 24  1  0
 23 22  2  0
M  END
$$$$
