KNC.pdb
     RDKit          3D

 24 23  0  0  1  0  0  0  0  0999 V2000
    7.2397  -19.2613   19.2283 N   0  0  0  0  0  0  0  0  0  0  0  0
    8.5150  -19.1784   18.4671 C   0  0  1  0  0  0  0  0  0  0  0  0
    8.1221  -19.5520   17.0534 C   0  0  0  0  0  0  0  0  0  0  0  0
    6.6854  -19.3466   16.7226 C   0  0  0  0  0  0  0  0  0  0  0  0
    6.3386  -19.7525   15.3156 C   0  0  0  0  0  0  0  0  0  0  0  0
    4.9191  -19.3385   14.9523 C   0  0  0  0  0  0  0  0  0  0  0  0
    4.6450  -19.6024   13.5543 N   0  0  0  0  0  0  0  0  0  0  0  0
    8.9576  -17.7640   18.5940 C   0  0  0  0  0  0  0  0  0  0  0  0
   10.0651  -17.3898   18.1133 O   0  0  0  0  0  0  0  0  0  0  0  0
    7.0986  -12.0822   19.4531 N   0  0  0  0  0  0  0  0  0  0  0  0
    8.0398  -13.0210   18.9616 C   0  0  0  0  0  0  0  0  0  0  0  0
    9.1626  -12.5829   18.5887 O   0  0  0  0  0  0  0  0  0  0  0  0
    7.7403  -14.4410   18.8825 C   0  0  0  0  0  0  0  0  0  0  0  0
    8.6801  -15.3979   19.4881 C   0  0  2  0  0  0  0  0  0  0  0  0
    8.1805  -16.7551   19.2470 N   0  0  0  0  0  0  0  0  0  0  0  0
    9.1021  -15.2021   20.8694 C   0  0  0  0  0  0  0  0  0  0  0  0
    9.5704  -14.0352   21.1616 O   0  0  0  0  0  0  0  0  0  0  0  0
    9.0626  -16.1344   21.9231 N   0  0  0  0  0  0  0  0  0  0  0  0
    9.7749  -15.8459   23.1598 C   0  0  1  0  0  0  0  0  0  0  0  0
    8.9163  -15.9565   24.3845 C   0  0  0  0  0  0  0  0  0  0  0  0
    9.8772  -15.7983   25.9040 S   0  0  0  0  0  0  0  0  0  0  0  0
   10.9090  -16.8279   23.3288 C   0  0  0  0  0  0  0  0  0  0  0  0
   11.0227  -17.8239   22.5898 O   0  0  0  0  0  0  0  0  0  0  0  0
   11.8235  -16.6041   24.3224 O   0  0  0  0  0  0  0  0  0  0  0  0
  2  1  1  1
  3  2  1  0
  4  3  1  0
  4  5  1  0
  5  6  1  0
  7  6  1  0
  8 15  1  0
  8  2  1  0
  9  8  2  0
 10 11  1  0
 11 13  1  0
 12 11  2  0
 14 13  1  1
 14 15  1  0
 14 16  1  0
 16 18  1  0
 16 17  2  0
 18 19  1  0
 19 20  1  1
 21 20  1  0
 22 19  1  0
 22 24  1  0
 23 22  2  0
M  END
$$$$
