KNC.pdb
     RDKit          3D

 24 23  0  0  1  0  0  0  0  0999 V2000
    9.1208  -18.5286   18.1924 N   0  0  0  0  0  0  0  0  0  0  0  0
   10.4976  -18.0030   17.9902 C   0  0  1  0  0  0  0  0  0  0  0  0
   10.6173  -17.8595   16.4877 C   0  0  0  0  0  0  0  0  0  0  0  0
   10.0419  -18.9828   15.6986 C   0  0  0  0  0  0  0  0  0  0  0  0
    9.2420  -18.5220   14.5102 C   0  0  0  0  0  0  0  0  0  0  0  0
    8.5809  -19.6941   13.7977 C   0  0  0  0  0  0  0  0  0  0  0  0
    7.9229  -19.2567   12.5832 N   0  0  0  0  0  0  0  0  0  0  0  0
   10.5296  -16.6986   18.7042 C   0  0  0  0  0  0  0  0  0  0  0  0
   11.5344  -15.9374   18.6110 O   0  0  0  0  0  0  0  0  0  0  0  0
    8.5542  -12.7434   17.6148 N   0  0  0  0  0  0  0  0  0  0  0  0
    8.1477  -13.9415   18.2535 C   0  0  0  0  0  0  0  0  0  0  0  0
    7.6364  -14.8432   17.5344 O   0  0  0  0  0  0  0  0  0  0  0  0
    8.3062  -14.1424   19.6843 C   0  0  0  0  0  0  0  0  0  0  0  0
    9.4652  -14.9097   20.1677 C   0  0  2  0  0  0  0  0  0  0  0  0
    9.4536  -16.2253   19.5204 N   0  0  0  0  0  0  0  0  0  0  0  0
    9.7082  -15.0021   21.6018 C   0  0  0  0  0  0  0  0  0  0  0  0
    9.8019  -13.8820   22.2366 O   0  0  0  0  0  0  0  0  0  0  0  0
    9.8555  -16.1671   22.3778 N   0  0  0  0  0  0  0  0  0  0  0  0
   10.2265  -16.0493   23.7808 C   0  0  1  0  0  0  0  0  0  0  0  0
    9.1040  -16.3621   24.7249 C   0  0  0  0  0  0  0  0  0  0  0  0
    7.7316  -15.2024   24.5561 S   0  0  0  0  0  0  0  0  0  0  0  0
   11.3426  -17.0177   24.0897 C   0  0  0  0  0  0  0  0  0  0  0  0
   11.7996  -17.7828   23.2197 O   0  0  0  0  0  0  0  0  0  0  0  0
   11.8515  -17.0434   25.3602 O   0  0  0  0  0  0  0  0  0  0  0  0
  2  1  1  6
  3  2  1  0
  4  3  1  0
  4  5  1  0
  5  6  1  0
  7  6  1  0
  8 15  1  0
  8  2  1  0
  9  8  2  0
 10 11  1  0
 11 13  1  0
 12 11  2  0
 14 13  1  1
 14 15  1  0
 14 16  1  0
 16 18  1  0
 16 17  2  0
 18 19  1  0
 19 20  1  1
 21 20  1  0
 22 19  1  0
 22 24  1  0
 23 22  2  0
M  END
$$$$
