KNC.pdb
     RDKit          3D

 24 23  0  0  1  0  0  0  0  0999 V2000
    9.5047  -18.8254   17.6715 N   0  0  0  0  0  0  0  0  0  0  0  0
   10.4167  -17.7265   17.2554 C   0  0  1  0  0  0  0  0  0  0  0  0
    9.5572  -16.8556   16.3637 C   0  0  0  0  0  0  0  0  0  0  0  0
    8.4660  -17.5701   15.6464 C   0  0  0  0  0  0  0  0  0  0  0  0
    7.6167  -16.6582   14.8027 C   0  0  0  0  0  0  0  0  0  0  0  0
    8.3525  -16.2222   13.5430 C   0  0  0  0  0  0  0  0  0  0  0  0
    7.5320  -15.3327   12.7463 N   0  0  0  0  0  0  0  0  0  0  0  0
   10.8187  -17.0497   18.5176 C   0  0  0  0  0  0  0  0  0  0  0  0
   11.5182  -15.9973   18.4899 O   0  0  0  0  0  0  0  0  0  0  0  0
    8.7559  -15.0426   21.3655 N   0  0  0  0  0  0  0  0  0  0  0  0
    8.8271  -16.1994   22.1812 C   0  0  0  0  0  0  0  0  0  0  0  0
    7.8761  -16.4087   22.9834 O   0  0  0  0  0  0  0  0  0  0  0  0
    9.9471  -17.1230   22.1100 C   0  0  0  0  0  0  0  0  0  0  0  0
   10.9560  -16.9329   21.0557 C   0  0  2  0  0  0  0  0  0  0  0  0
   10.4486  -17.5269   19.8150 N   0  0  0  0  0  0  0  0  0  0  0  0
   12.3399  -17.3060   21.3208 C   0  0  0  0  0  0  0  0  0  0  0  0
   12.7175  -18.4531   20.8650 O   0  0  0  0  0  0  0  0  0  0  0  0
   13.3138  -16.5659   22.0170 N   0  0  0  0  0  0  0  0  0  0  0  0
   14.6508  -17.1192   22.1800 C   0  0  1  0  0  0  0  0  0  0  0  0
   15.6878  -16.0891   22.5155 C   0  0  0  0  0  0  0  0  0  0  0  0
   15.2597  -15.1520   23.9972 S   0  0  0  0  0  0  0  0  0  0  0  0
   14.6468  -18.1218   23.3086 C   0  0  0  0  0  0  0  0  0  0  0  0
   13.6978  -18.1934   24.1119 O   0  0  0  0  0  0  0  0  0  0  0  0
   15.7191  -18.9628   23.4382 O   0  0  0  0  0  0  0  0  0  0  0  0
  2  1  1  1
  3  2  1  0
  4  3  1  0
  4  5  1  0
  5  6  1  0
  7  6  1  0
  8 15  1  0
  8  2  1  0
  9  8  2  0
 10 11  1  0
 11 13  1  0
 12 11  2  0
 14 13  1  1
 14 15  1  0
 14 16  1  0
 16 18  1  0
 16 17  2  0
 18 19  1  0
 19 20  1  1
 21 20  1  0
 22 19  1  0
 22 24  1  0
 23 22  2  0
M  END
$$$$
