KNC.pdb
     RDKit          3D

 24 23  0  0  1  0  0  0  0  0999 V2000
    6.6788  -17.3638   20.2046 N   0  0  0  0  0  0  0  0  0  0  0  0
    7.5928  -16.3912   20.8613 C   0  0  1  0  0  0  0  0  0  0  0  0
    7.3344  -15.0929   20.1266 C   0  0  0  0  0  0  0  0  0  0  0  0
    7.5998  -15.1327   18.6625 C   0  0  0  0  0  0  0  0  0  0  0  0
    8.2074  -13.8603   18.1367 C   0  0  0  0  0  0  0  0  0  0  0  0
    8.4056  -13.9217   16.6282 C   0  0  0  0  0  0  0  0  0  0  0  0
    8.8121  -12.6324   16.1070 N   0  0  0  0  0  0  0  0  0  0  0  0
    7.1655  -16.3495   22.2854 C   0  0  0  0  0  0  0  0  0  0  0  0
    6.0073  -15.9524   22.5993 O   0  0  0  0  0  0  0  0  0  0  0  0
    5.6656  -19.0730   24.1484 N   0  0  0  0  0  0  0  0  0  0  0  0
    7.0068  -19.1830   24.5930 C   0  0  0  0  0  0  0  0  0  0  0  0
    7.6160  -20.2614   24.3526 O   0  0  0  0  0  0  0  0  0  0  0  0
    7.6732  -18.1032   25.3017 C   0  0  0  0  0  0  0  0  0  0  0  0
    7.5701  -16.7358   24.7677 C   0  0  2  0  0  0  0  0  0  0  0  0
    8.0104  -16.7491   23.3692 N   0  0  0  0  0  0  0  0  0  0  0  0
    8.1551  -15.6330   25.5202 C   0  0  0  0  0  0  0  0  0  0  0  0
    9.4020  -15.3876   25.2939 O   0  0  0  0  0  0  0  0  0  0  0  0
    7.5235  -14.8047   26.4667 N   0  0  0  0  0  0  0  0  0  0  0  0
    8.2943  -13.7655   27.1346 C   0  0  1  0  0  0  0  0  0  0  0  0
    7.4465  -12.6822   27.7320 C   0  0  0  0  0  0  0  0  0  0  0  0
    6.0799  -12.2149   26.6499 S   0  0  0  0  0  0  0  0  0  0  0  0
    9.0882  -14.3750   28.2647 C   0  0  0  0  0  0  0  0  0  0  0  0
    8.9943  -15.5842   28.5477 O   0  0  0  0  0  0  0  0  0  0  0  0
    9.9246  -13.5658   28.9854 O   0  0  0  0  0  0  0  0  0  0  0  0
  2  1  1  6
  3  2  1  0
  4  3  1  0
  4  5  1  0
  5  6  1  0
  7  6  1  0
  8 15  1  0
  8  2  1  0
  9  8  2  0
 10 11  1  0
 11 13  1  0
 12 11  2  0
 14 13  1  1
 14 15  1  0
 14 16  1  0
 16 18  1  0
 16 17  2  0
 18 19  1  0
 19 20  1  1
 21 20  1  0
 22 19  1  0
 22 24  1  0
 23 22  2  0
M  END
$$$$
