KNC.pdb
     RDKit          3D

 24 23  0  0  1  0  0  0  0  0999 V2000
    7.0598  -16.2631   21.0044 N   0  0  0  0  0  0  0  0  0  0  0  0
    8.2529  -15.4903   21.4423 C   0  0  1  0  0  0  0  0  0  0  0  0
    7.7530  -14.0638   21.5296 C   0  0  0  0  0  0  0  0  0  0  0  0
    7.4489  -13.4207   20.2221 C   0  0  0  0  0  0  0  0  0  0  0  0
    8.5270  -13.6325   19.1938 C   0  0  0  0  0  0  0  0  0  0  0  0
    8.1219  -13.0659   17.8398 C   0  0  0  0  0  0  0  0  0  0  0  0
    9.1303  -13.3479   16.8383 N   0  0  0  0  0  0  0  0  0  0  0  0
    8.6259  -16.0586   22.7654 C   0  0  0  0  0  0  0  0  0  0  0  0
    7.7367  -16.4720   23.5630 O   0  0  0  0  0  0  0  0  0  0  0  0
    9.8315  -19.3147   23.2093 N   0  0  0  0  0  0  0  0  0  0  0  0
   11.1437  -18.9706   23.6196 C   0  0  0  0  0  0  0  0  0  0  0  0
   12.0686  -19.7918   23.3706 O   0  0  0  0  0  0  0  0  0  0  0  0
   11.4329  -17.7212   24.3037 C   0  0  0  0  0  0  0  0  0  0  0  0
   10.3399  -16.7579   24.5112 C   0  0  2  0  0  0  0  0  0  0  0  0
    9.9797  -16.1778   23.2136 N   0  0  0  0  0  0  0  0  0  0  0  0
   10.4732  -15.7451   25.5509 C   0  0  0  0  0  0  0  0  0  0  0  0
   11.5593  -15.0478   25.5304 O   0  0  0  0  0  0  0  0  0  0  0  0
    9.5599  -15.4378   26.5768 N   0  0  0  0  0  0  0  0  0  0  0  0
    9.9214  -14.4495   27.5832 C   0  0  1  0  0  0  0  0  0  0  0  0
    8.8035  -13.5117   27.9295 C   0  0  0  0  0  0  0  0  0  0  0  0
    8.0327  -12.8018   26.4602 S   0  0  0  0  0  0  0  0  0  0  0  0
   10.3167  -15.1518   28.8597 C   0  0  0  0  0  0  0  0  0  0  0  0
   10.2318  -16.3890   28.9747 O   0  0  0  0  0  0  0  0  0  0  0  0
   10.7754  -14.3965   29.9050 O   0  0  0  0  0  0  0  0  0  0  0  0
  2  1  1  1
  3  2  1  0
  4  3  1  0
  4  5  1  0
  5  6  1  0
  7  6  1  0
  8 15  1  0
  8  2  1  0
  9  8  2  0
 10 11  1  0
 11 13  1  0
 12 11  2  0
 14 13  1  6
 14 15  1  0
 14 16  1  0
 16 18  1  0
 16 17  2  0
 18 19  1  0
 19 20  1  1
 21 20  1  0
 22 19  1  0
 22 24  1  0
 23 22  2  0
M  END
$$$$
