KNC.pdb
     RDKit          3D

 24 23  0  0  1  0  0  0  0  0999 V2000
   10.7654  -15.0246   20.2368 N   0  0  0  0  0  0  0  0  0  0  0  0
    9.7374  -14.2403   20.9720 C   0  0  1  0  0  0  0  0  0  0  0  0
    8.4965  -14.3689   20.1142 C   0  0  0  0  0  0  0  0  0  0  0  0
    8.7214  -14.2100   18.6514 C   0  0  0  0  0  0  0  0  0  0  0  0
    7.4431  -14.1028   17.8646 C   0  0  0  0  0  0  0  0  0  0  0  0
    7.7192  -13.8599   16.3870 C   0  0  0  0  0  0  0  0  0  0  0  0
    6.4827  -13.7798   15.6360 N   0  0  0  0  0  0  0  0  0  0  0  0
    9.6034  -14.9089   22.2940 C   0  0  0  0  0  0  0  0  0  0  0  0
    8.6342  -14.6369   23.0584 O   0  0  0  0  0  0  0  0  0  0  0  0
   11.5520  -19.1143   21.8838 N   0  0  0  0  0  0  0  0  0  0  0  0
   10.6948  -18.8036   22.9688 C   0  0  0  0  0  0  0  0  0  0  0  0
    9.5748  -19.3826   23.0137 O   0  0  0  0  0  0  0  0  0  0  0  0
   11.0751  -17.8549   24.0022 C   0  0  0  0  0  0  0  0  0  0  0  0
   10.3766  -16.5613   24.0678 C   0  0  2  0  0  0  0  0  0  0  0  0
   10.5338  -15.8829   22.7775 N   0  0  0  0  0  0  0  0  0  0  0  0
   10.6322  -15.6720   25.1940 C   0  0  0  0  0  0  0  0  0  0  0  0
   11.7477  -15.0230   25.1650 O   0  0  0  0  0  0  0  0  0  0  0  0
    9.8091  -15.4378   26.3114 N   0  0  0  0  0  0  0  0  0  0  0  0
   10.2702  -14.5437   27.3640 C   0  0  1  0  0  0  0  0  0  0  0  0
    9.4751  -13.2759   27.4632 C   0  0  0  0  0  0  0  0  0  0  0  0
    7.9156  -13.3801   26.5609 S   0  0  0  0  0  0  0  0  0  0  0  0
   10.1577  -15.2380   28.6998 C   0  0  0  0  0  0  0  0  0  0  0  0
   10.4528  -14.6577   29.7615 O   0  0  0  0  0  0  0  0  0  0  0  0
    9.7210  -16.5350   28.7264 O   0  0  0  0  0  0  0  0  0  0  0  0
  2  1  1  6
  3  2  1  0
  4  3  1  0
  4  5  1  0
  5  6  1  0
  7  6  1  0
  8 15  1  0
  8  2  1  0
  9  8  2  0
 10 11  1  0
 11 13  1  0
 12 11  2  0
 14 13  1  6
 14 15  1  0
 14 16  1  0
 16 18  1  0
 16 17  2  0
 18 19  1  0
 19 20  1  1
 21 20  1  0
 22 19  1  0
 22 24  1  0
 23 22  2  0
M  END
$$$$
