CLD.pdb
     RDKit          3D

 23 22  0  0  1  0  0  0  0  0999 V2000
   20.6717  -13.3110  -16.9565 N   0  0  0  0  0  0  0  0  0  0  0  0
   21.0817  -12.1974  -17.7669 C   0  0  1  0  0  0  0  0  0  0  0  0
   19.8815  -11.6521  -18.5295 C   0  0  0  0  0  0  0  0  0  0  0  0
   19.1770  -12.9017  -19.6287 S   0  0  0  0  0  0  0  0  0  0  0  0
   21.5543  -11.1115  -16.8806 C   0  0  0  0  0  0  0  0  0  0  0  0
   20.8942  -10.7492  -15.8712 O   0  0  0  0  0  0  0  0  0  0  0  0
   27.0525  -10.3568  -16.0272 C   0  0  0  0  0  0  0  0  0  0  0  0
   25.5488  -10.6400  -15.8104 C   0  0  1  0  0  0  0  0  0  0  0  0
   25.4101  -10.9188  -14.3362 C   0  0  0  0  0  0  0  0  0  0  0  0
   24.8281   -9.4414  -16.3047 C   0  0  0  0  0  0  0  0  0  0  0  0
   23.3383   -9.4691  -16.2668 C   0  0  2  0  0  0  0  0  0  0  0  0
   22.7803  -10.4485  -17.1580 N   0  0  0  0  0  0  0  0  0  0  0  0
   22.7228   -8.1375  -16.4312 C   0  0  0  0  0  0  0  0  0  0  0  0
   22.6136   -7.6375  -17.5774 O   0  0  0  0  0  0  0  0  0  0  0  0
   22.2378   -7.3784  -15.3316 N   0  0  0  0  0  0  0  0  0  0  0  0
   21.5905   -6.0936  -15.5148 C   0  0  1  0  0  0  0  0  0  0  0  0
   20.0959   -6.2015  -15.4243 C   0  0  0  0  0  0  0  0  0  0  0  0
   19.3972   -4.9002  -15.5432 C   0  0  0  0  0  0  0  0  0  0  0  0
   19.6891   -4.1261  -16.4822 O   0  0  0  0  0  0  0  0  0  0  0  0
   22.1380   -5.0968  -14.5651 C   0  0  0  0  0  0  0  0  0  0  0  0
   21.7482   -3.7552  -14.6052 O   0  0  0  0  0  0  0  0  0  0  0  0
   18.4229   -4.5030  -14.6451 O   0  0  0  0  0  0  0  0  0  0  0  0
   22.9732   -5.4198  -13.6878 O   0  0  0  0  0  0  0  0  0  0  0  0
  2  1  1  1
  2  5  1  0
  3  2  1  0
  4  3  1  0
  5  6  2  0
  8  7  1  1
  8  9  1  0
 11 10  1  6
 10  8  1  0
 11 13  1  0
 12  5  1  0
 12 11  1  0
 13 15  1  0
 14 13  2  0
 16 15  1  0
 16 20  1  0
 16 17  1  1
 18 17  1  0
 18 22  1  0
 19 18  2  0
 20 21  1  0
 23 20  2  0
M  END
$$$$
