CLD.pdb
     RDKit          3D

 23 22  0  0  1  0  0  0  0  0999 V2000
   28.5401  -20.5649  -15.4966 N   0  0  0  0  0  0  0  0  0  0  0  0
   27.8236  -19.6615  -14.6390 C   0  0  1  0  0  0  0  0  0  0  0  0
   27.2302  -18.5317  -15.4700 C   0  0  0  0  0  0  0  0  0  0  0  0
   28.5222  -17.5617  -16.2800 S   0  0  0  0  0  0  0  0  0  0  0  0
   26.6872  -20.3849  -14.0279 C   0  0  0  0  0  0  0  0  0  0  0  0
   26.1245  -21.3463  -14.6151 O   0  0  0  0  0  0  0  0  0  0  0  0
   25.8746  -20.1254   -8.4070 C   0  0  0  0  0  0  0  0  0  0  0  0
   26.2385  -20.5680   -9.8423 C   0  0  1  0  0  0  0  0  0  0  0  0
   26.7113  -21.9922   -9.7063 C   0  0  0  0  0  0  0  0  0  0  0  0
   25.0129  -20.3765  -10.6559 C   0  0  0  0  0  0  0  0  0  0  0  0
   25.1016  -20.6705  -12.1145 C   0  0  2  0  0  0  0  0  0  0  0  0
   26.2041  -20.0008  -12.7479 N   0  0  0  0  0  0  0  0  0  0  0  0
   23.8276  -20.4674  -12.8319 C   0  0  0  0  0  0  0  0  0  0  0  0
   23.5719  -19.3514  -13.3465 O   0  0  0  0  0  0  0  0  0  0  0  0
   22.8563  -21.4959  -12.9711 N   0  0  0  0  0  0  0  0  0  0  0  0
   21.7206  -21.3603  -13.8627 C   0  0  1  0  0  0  0  0  0  0  0  0
   21.7858  -22.3327  -15.0046 C   0  0  0  0  0  0  0  0  0  0  0  0
   20.6428  -22.2275  -15.9417 C   0  0  0  0  0  0  0  0  0  0  0  0
   19.7171  -21.4212  -15.6984 O   0  0  0  0  0  0  0  0  0  0  0  0
   20.4512  -21.4700  -13.1063 C   0  0  0  0  0  0  0  0  0  0  0  0
   20.4372  -21.6678  -11.7228 O   0  0  0  0  0  0  0  0  0  0  0  0
   20.5583  -22.9957  -17.0889 O   0  0  0  0  0  0  0  0  0  0  0  0
   19.3395  -21.3894  -13.6800 O   0  0  0  0  0  0  0  0  0  0  0  0
  2  1  1  6
  2  5  1  0
  3  2  1  0
  4  3  1  0
  5  6  2  0
  8  7  1  1
  8  9  1  0
 11 10  1  1
 10  8  1  0
 11 13  1  0
 12  5  1  0
 12 11  1  0
 13 15  1  0
 14 13  2  0
 16 15  1  0
 16 20  1  0
 16 17  1  6
 18 17  1  0
 18 22  1  0
 19 18  2  0
 20 21  1  0
 23 20  2  0
M  END
$$$$
