CLD.pdb
     RDKit          3D

 23 22  0  0  1  0  0  0  0  0999 V2000
   18.1330  -10.6959  -17.5662 N   0  0  0  0  0  0  0  0  0  0  0  0
   17.6849  -10.2117  -16.2896 C   0  0  1  0  0  0  0  0  0  0  0  0
   17.0379  -11.3494  -15.5109 C   0  0  0  0  0  0  0  0  0  0  0  0
   15.5197  -11.9151  -16.3116 S   0  0  0  0  0  0  0  0  0  0  0  0
   18.8609   -9.7726  -15.5070 C   0  0  0  0  0  0  0  0  0  0  0  0
   18.7426   -9.3100  -14.3417 O   0  0  0  0  0  0  0  0  0  0  0  0
   22.8323  -11.5161  -13.9488 C   0  0  0  0  0  0  0  0  0  0  0  0
   23.5378  -10.4067  -14.7613 C   0  0  1  0  0  0  0  0  0  0  0  0
   24.8226  -11.0292  -15.2431 C   0  0  0  0  0  0  0  0  0  0  0  0
   22.5845  -10.0047  -15.8243 C   0  0  0  0  0  0  0  0  0  0  0  0
   21.3216   -9.3363  -15.4002 C   0  0  2  0  0  0  0  0  0  0  0  0
   20.1640   -9.8671  -16.0659 N   0  0  0  0  0  0  0  0  0  0  0  0
   21.3873   -7.8630  -15.4661 C   0  0  0  0  0  0  0  0  0  0  0  0
   22.3492   -7.2566  -14.9343 O   0  0  0  0  0  0  0  0  0  0  0  0
   20.3934   -7.0818  -16.1161 N   0  0  0  0  0  0  0  0  0  0  0  0
   20.4741   -5.6350  -16.1740 C   0  0  1  0  0  0  0  0  0  0  0  0
   21.4627   -5.1700  -17.2037 C   0  0  0  0  0  0  0  0  0  0  0  0
   21.5846   -3.6957  -17.2883 C   0  0  0  0  0  0  0  0  0  0  0  0
   20.9381   -2.9761  -16.4944 O   0  0  0  0  0  0  0  0  0  0  0  0
   19.1298   -5.0484  -16.3842 C   0  0  0  0  0  0  0  0  0  0  0  0
   18.4910   -4.3044  -15.3882 O   0  0  0  0  0  0  0  0  0  0  0  0
   22.3951   -3.0764  -18.2228 O   0  0  0  0  0  0  0  0  0  0  0  0
   18.5134   -5.1975  -17.4655 O   0  0  0  0  0  0  0  0  0  0  0  0
  2  1  1  6
  2  5  1  0
  3  2  1  0
  4  3  1  0
  5  6  2  0
  8  7  1  1
  8  9  1  0
 11 10  1  6
 10  8  1  0
 11 13  1  0
 12  5  1  0
 12 11  1  0
 13 15  1  0
 14 13  2  0
 16 15  1  0
 16 20  1  0
 16 17  1  6
 18 17  1  0
 18 22  1  0
 19 18  2  0
 20 21  1  0
 23 20  2  0
M  END
$$$$
