CLD.pdb
     RDKit          3D

 23 22  0  0  1  0  0  0  0  0999 V2000
   28.1413  -20.5981  -16.5623 N   0  0  0  0  0  0  0  0  0  0  0  0
   27.7239  -19.9371  -15.3566 C   0  0  1  0  0  0  0  0  0  0  0  0
   27.1806  -18.5550  -15.6943 C   0  0  0  0  0  0  0  0  0  0  0  0
   28.4959  -17.4499  -16.2555 S   0  0  0  0  0  0  0  0  0  0  0  0
   26.6076  -20.7002  -14.7567 C   0  0  0  0  0  0  0  0  0  0  0  0
   25.8253  -21.3898  -15.4625 O   0  0  0  0  0  0  0  0  0  0  0  0
   24.3871  -20.2099   -9.7273 C   0  0  0  0  0  0  0  0  0  0  0  0
   25.7593  -20.5026  -10.3754 C   0  0  1  0  0  0  0  0  0  0  0  0
   26.6928  -20.7579   -9.2205 C   0  0  0  0  0  0  0  0  0  0  0  0
   25.5464  -21.6502  -11.2909 C   0  0  0  0  0  0  0  0  0  0  0  0
   25.2945  -21.3471  -12.7283 C   0  0  2  0  0  0  0  0  0  0  0  0
   26.3964  -20.6672  -13.3518 N   0  0  0  0  0  0  0  0  0  0  0  0
   24.0037  -20.6720  -12.9677 C   0  0  0  0  0  0  0  0  0  0  0  0
   23.9710  -19.4282  -13.1334 O   0  0  0  0  0  0  0  0  0  0  0  0
   22.7706  -21.3771  -13.0206 N   0  0  0  0  0  0  0  0  0  0  0  0
   21.6169  -20.8493  -13.7231 C   0  0  1  0  0  0  0  0  0  0  0  0
   21.9149  -20.5855  -15.1706 C   0  0  0  0  0  0  0  0  0  0  0  0
   20.7615  -20.0431  -15.9264 C   0  0  0  0  0  0  0  0  0  0  0  0
   20.0553  -20.8151  -16.6130 O   0  0  0  0  0  0  0  0  0  0  0  0
   20.4483  -21.7429  -13.5464 C   0  0  0  0  0  0  0  0  0  0  0  0
   20.5210  -23.1094  -13.8311 O   0  0  0  0  0  0  0  0  0  0  0  0
   20.4315  -18.7000  -15.9023 O   0  0  0  0  0  0  0  0  0  0  0  0
   19.3479  -21.3063  -13.1340 O   0  0  0  0  0  0  0  0  0  0  0  0
  2  1  1  6
  2  5  1  0
  3  2  1  0
  4  3  1  0
  5  6  2  0
  8  7  1  1
  8  9  1  0
 11 10  1  1
 10  8  1  0
 11 13  1  0
 12  5  1  0
 12 11  1  0
 13 15  1  0
 14 13  2  0
 16 15  1  0
 16 20  1  0
 16 17  1  6
 18 17  1  0
 18 22  1  0
 19 18  2  0
 20 21  1  0
 23 20  2  0
M  END
$$$$
