CLD.pdb
     RDKit          3D

 23 22  0  0  1  0  0  0  0  0999 V2000
   18.7205  -11.5594  -19.4198 N   0  0  0  0  0  0  0  0  0  0  0  0
   19.7778  -10.5944  -19.2947 C   0  0  1  0  0  0  0  0  0  0  0  0
   19.4701   -9.3844  -20.1668 C   0  0  0  0  0  0  0  0  0  0  0  0
   19.7730   -9.7377  -21.9131 S   0  0  0  0  0  0  0  0  0  0  0  0
   19.8211  -10.1134  -17.8965 C   0  0  0  0  0  0  0  0  0  0  0  0
   18.7709   -9.9601  -17.2186 O   0  0  0  0  0  0  0  0  0  0  0  0
   21.0020   -9.7498  -12.9371 C   0  0  0  0  0  0  0  0  0  0  0  0
   22.3330   -9.6169  -13.7112 C   0  0  1  0  0  0  0  0  0  0  0  0
   23.3320  -10.4160  -12.9151 C   0  0  0  0  0  0  0  0  0  0  0  0
   22.0638  -10.1146  -15.0825 C   0  0  0  0  0  0  0  0  0  0  0  0
   21.1590   -9.3025  -15.9447 C   0  0  2  0  0  0  0  0  0  0  0  0
   21.0681   -9.8117  -17.2854 N   0  0  0  0  0  0  0  0  0  0  0  0
   21.4546   -7.8567  -15.9066 C   0  0  0  0  0  0  0  0  0  0  0  0
   22.4470   -7.4058  -16.5292 O   0  0  0  0  0  0  0  0  0  0  0  0
   20.6533   -6.9314  -15.1840 N   0  0  0  0  0  0  0  0  0  0  0  0
   20.9681   -5.5164  -15.1415 C   0  0  1  0  0  0  0  0  0  0  0  0
   19.7318   -4.6660  -15.1862 C   0  0  0  0  0  0  0  0  0  0  0  0
   20.0074   -3.2115  -15.1201 C   0  0  0  0  0  0  0  0  0  0  0  0
   21.1917   -2.8083  -15.0886 O   0  0  0  0  0  0  0  0  0  0  0  0
   21.8165   -5.2087  -13.9663 C   0  0  0  0  0  0  0  0  0  0  0  0
   22.8483   -4.2683  -14.0334 O   0  0  0  0  0  0  0  0  0  0  0  0
   18.9937   -2.2708  -15.0910 O   0  0  0  0  0  0  0  0  0  0  0  0
   21.6405   -5.7815  -12.8652 O   0  0  0  0  0  0  0  0  0  0  0  0
  2  1  1  1
  2  5  1  0
  3  2  1  0
  4  3  1  0
  5  6  2  0
  8  7  1  1
  8  9  1  0
 11 10  1  1
 10  8  1  0
 11 13  1  0
 12  5  1  0
 12 11  1  0
 13 15  1  0
 14 13  2  0
 16 15  1  0
 16 20  1  0
 16 17  1  1
 18 17  1  0
 18 22  1  0
 19 18  2  0
 20 21  1  0
 23 20  2  0
M  END
$$$$
