CLD.pdb
     RDKit          3D

 23 22  0  0  1  0  0  0  0  0999 V2000
   24.6208  -36.9545  -12.9261 N   0  0  0  0  0  0  0  0  0  0  0  0
   23.9991  -35.6660  -13.0613 C   0  0  1  0  0  0  0  0  0  0  0  0
   22.8649  -35.7505  -14.0742 C   0  0  0  0  0  0  0  0  0  0  0  0
   23.4443  -35.3741  -15.7441 S   0  0  0  0  0  0  0  0  0  0  0  0
   23.3888  -35.2931  -11.7665 C   0  0  0  0  0  0  0  0  0  0  0  0
   22.8858  -36.1572  -11.0009 O   0  0  0  0  0  0  0  0  0  0  0  0
   25.4011  -31.7255   -8.0419 C   0  0  0  0  0  0  0  0  0  0  0  0
   24.7157  -32.9852   -8.6182 C   0  0  1  0  0  0  0  0  0  0  0  0
   24.3875  -33.8371   -7.4194 C   0  0  0  0  0  0  0  0  0  0  0  0
   23.5495  -32.5006   -9.3963 C   0  0  0  0  0  0  0  0  0  0  0  0
   22.7413  -33.5154  -10.1302 C   0  0  2  0  0  0  0  0  0  0  0  0
   23.3596  -33.9322  -11.3586 N   0  0  0  0  0  0  0  0  0  0  0  0
   21.3302  -33.1218  -10.3112 C   0  0  0  0  0  0  0  0  0  0  0  0
   21.0157  -32.3330  -11.2357 O   0  0  0  0  0  0  0  0  0  0  0  0
   20.2886  -33.6027   -9.4719 N   0  0  0  0  0  0  0  0  0  0  0  0
   18.9072  -33.2045   -9.6619 C   0  0  1  0  0  0  0  0  0  0  0  0
   17.9939  -34.3899   -9.7812 C   0  0  0  0  0  0  0  0  0  0  0  0
   16.5774  -34.0279  -10.0228 C   0  0  0  0  0  0  0  0  0  0  0  0
   16.1174  -34.0769  -11.1856 O   0  0  0  0  0  0  0  0  0  0  0  0
   18.4822  -32.2767   -8.5877 C   0  0  0  0  0  0  0  0  0  0  0  0
   17.5576  -31.2556   -8.8244 O   0  0  0  0  0  0  0  0  0  0  0  0
   15.7339  -33.6327   -9.0002 O   0  0  0  0  0  0  0  0  0  0  0  0
   18.9368  -32.3728   -7.4233 O   0  0  0  0  0  0  0  0  0  0  0  0
  2  1  1  1
  2  5  1  0
  3  2  1  0
  4  3  1  0
  5  6  2  0
  8  7  1  1
  8  9  1  0
 11 10  1  6
 10  8  1  0
 11 13  1  0
 12  5  1  0
 12 11  1  0
 13 15  1  0
 14 13  2  0
 16 15  1  0
 16 20  1  0
 16 17  1  1
 18 17  1  0
 18 22  1  0
 19 18  2  0
 20 21  1  0
 23 20  2  0
M  END
$$$$
