CLD.pdb
     RDKit          3D

 23 22  0  0  1  0  0  0  0  0999 V2000
   14.5296  -13.5597  -12.6086 N   0  0  0  0  0  0  0  0  0  0  0  0
   15.4185  -12.9148  -11.6818 C   0  0  1  0  0  0  0  0  0  0  0  0
   16.8056  -12.8012  -12.3002 C   0  0  0  0  0  0  0  0  0  0  0  0
   17.6760  -14.3845  -12.2594 S   0  0  0  0  0  0  0  0  0  0  0  0
   14.9414  -11.5346  -11.4458 C   0  0  0  0  0  0  0  0  0  0  0  0
   14.4855  -10.8251  -12.3810 O   0  0  0  0  0  0  0  0  0  0  0  0
   11.3099   -9.9517   -7.6868 C   0  0  0  0  0  0  0  0  0  0  0  0
   12.0900  -10.0853   -9.0142 C   0  0  1  0  0  0  0  0  0  0  0  0
   11.3646   -9.1929   -9.9878 C   0  0  0  0  0  0  0  0  0  0  0  0
   13.4891   -9.6964   -8.7111 C   0  0  0  0  0  0  0  0  0  0  0  0
   14.4589   -9.6761   -9.8428 C   0  0  2  0  0  0  0  0  0  0  0  0
   14.9905  -10.9779  -10.1393 N   0  0  0  0  0  0  0  0  0  0  0  0
   15.5135   -8.6542   -9.6927 C   0  0  0  0  0  0  0  0  0  0  0  0
   16.4368   -8.8275   -8.8601 O   0  0  0  0  0  0  0  0  0  0  0  0
   15.5345   -7.4587  -10.4614 N   0  0  0  0  0  0  0  0  0  0  0  0
   16.6207   -6.5032  -10.3608 C   0  0  1  0  0  0  0  0  0  0  0  0
   17.0857   -6.0396  -11.7109 C   0  0  0  0  0  0  0  0  0  0  0  0
   18.1824   -5.0448  -11.6533 C   0  0  0  0  0  0  0  0  0  0  0  0
   19.2774   -5.3623  -11.1372 O   0  0  0  0  0  0  0  0  0  0  0  0
   16.2378   -5.3729   -9.4826 C   0  0  0  0  0  0  0  0  0  0  0  0
   17.1980   -4.5829   -8.8443 O   0  0  0  0  0  0  0  0  0  0  0  0
   18.0407   -3.7631  -12.1536 O   0  0  0  0  0  0  0  0  0  0  0  0
   15.0357   -5.0818   -9.2786 O   0  0  0  0  0  0  0  0  0  0  0  0
  2  1  1  6
  2  5  1  0
  3  2  1  0
  4  3  1  0
  5  6  2  0
  8  7  1  1
  8  9  1  0
 11 10  1  1
 10  8  1  0
 11 13  1  0
 12  5  1  0
 12 11  1  0
 13 15  1  0
 14 13  2  0
 16 15  1  0
 16 20  1  0
 16 17  1  6
 18 17  1  0
 18 22  1  0
 19 18  2  0
 20 21  1  0
 23 20  2  0
M  END
$$$$
