CLD.pdb
     RDKit          3D

 23 22  0  0  1  0  0  0  0  0999 V2000
   28.1254  -20.7871  -15.9659 N   0  0  0  0  0  0  0  0  0  0  0  0
   27.4461  -19.8244  -15.1433 C   0  0  1  0  0  0  0  0  0  0  0  0
   26.9079  -18.6977  -16.0152 C   0  0  0  0  0  0  0  0  0  0  0  0
   28.2415  -17.6377  -16.6185 S   0  0  0  0  0  0  0  0  0  0  0  0
   26.2756  -20.4754  -14.5155 C   0  0  0  0  0  0  0  0  0  0  0  0
   25.6778  -21.4349  -15.0702 O   0  0  0  0  0  0  0  0  0  0  0  0
   25.6997  -20.4558   -8.9302 C   0  0  0  0  0  0  0  0  0  0  0  0
   25.9693  -20.7062  -10.4312 C   0  0  1  0  0  0  0  0  0  0  0  0
   26.4725  -22.1243  -10.5088 C   0  0  0  0  0  0  0  0  0  0  0  0
   24.6870  -20.4440  -11.1296 C   0  0  0  0  0  0  0  0  0  0  0  0
   24.6613  -20.6163  -12.6099 C   0  0  2  0  0  0  0  0  0  0  0  0
   25.7987  -20.0215  -13.2561 N   0  0  0  0  0  0  0  0  0  0  0  0
   23.3829  -20.2088  -13.2254 C   0  0  0  0  0  0  0  0  0  0  0  0
   23.0931  -18.9907  -13.3146 O   0  0  0  0  0  0  0  0  0  0  0  0
   22.4446  -21.1487  -13.7323 N   0  0  0  0  0  0  0  0  0  0  0  0
   21.1840  -20.7327  -14.3162 C   0  0  1  0  0  0  0  0  0  0  0  0
   21.2885  -20.5500  -15.8026 C   0  0  0  0  0  0  0  0  0  0  0  0
   21.7091  -21.7738  -16.5245 C   0  0  0  0  0  0  0  0  0  0  0  0
   21.9776  -22.8108  -15.8773 O   0  0  0  0  0  0  0  0  0  0  0  0
   20.1034  -21.6752  -13.9431 C   0  0  0  0  0  0  0  0  0  0  0  0
   20.3718  -22.8648  -13.2601 O   0  0  0  0  0  0  0  0  0  0  0  0
   21.8180  -21.8148  -17.9028 O   0  0  0  0  0  0  0  0  0  0  0  0
   18.9049  -21.4408  -14.2264 O   0  0  0  0  0  0  0  0  0  0  0  0
  2  1  1  6
  2  5  1  0
  3  2  1  0
  4  3  1  0
  5  6  2  0
  8  7  1  1
  8  9  1  0
 11 10  1  1
 10  8  1  0
 11 13  1  0
 12  5  1  0
 12 11  1  0
 13 15  1  0
 14 13  2  0
 16 15  1  0
 16 20  1  0
 16 17  1  6
 18 17  1  0
 18 22  1  0
 19 18  2  0
 20 21  1  0
 23 20  2  0
M  END
$$$$
