CLD.pdb
     RDKit          3D

 23 22  0  0  1  0  0  0  0  0999 V2000
   21.9668  -14.1369  -18.0616 N   0  0  0  0  0  0  0  0  0  0  0  0
   22.4574  -12.9466  -18.6999 C   0  0  1  0  0  0  0  0  0  0  0  0
   21.4361  -12.4552  -19.7172 C   0  0  0  0  0  0  0  0  0  0  0  0
   21.3265  -13.5734  -21.1327 S   0  0  0  0  0  0  0  0  0  0  0  0
   22.5935  -11.8817  -17.6823 C   0  0  0  0  0  0  0  0  0  0  0  0
   21.8494  -11.8399  -16.6673 O   0  0  0  0  0  0  0  0  0  0  0  0
   27.4510   -9.8278  -16.0088 C   0  0  0  0  0  0  0  0  0  0  0  0
   26.0373  -10.4508  -16.0519 C   0  0  1  0  0  0  0  0  0  0  0  0
   25.7227  -10.8103  -14.6228 C   0  0  0  0  0  0  0  0  0  0  0  0
   25.1542   -9.4272  -16.6626 C   0  0  0  0  0  0  0  0  0  0  0  0
   23.7288   -9.7968  -16.8940 C   0  0  2  0  0  0  0  0  0  0  0  0
   23.5819  -10.8722  -17.8358 N   0  0  0  0  0  0  0  0  0  0  0  0
   22.8682   -8.6412  -17.2148 C   0  0  0  0  0  0  0  0  0  0  0  0
   22.9162   -8.1254  -18.3582 O   0  0  0  0  0  0  0  0  0  0  0  0
   21.9691   -8.0725  -16.2720 N   0  0  0  0  0  0  0  0  0  0  0  0
   21.0654   -6.9961  -16.6294 C   0  0  1  0  0  0  0  0  0  0  0  0
   19.7751   -7.0714  -15.8658 C   0  0  0  0  0  0  0  0  0  0  0  0
   18.8348   -5.9690  -16.1762 C   0  0  0  0  0  0  0  0  0  0  0  0
   18.4985   -5.1715  -15.2724 O   0  0  0  0  0  0  0  0  0  0  0  0
   21.7337   -5.6833  -16.4703 C   0  0  0  0  0  0  0  0  0  0  0  0
   21.4497   -4.6089  -17.3180 O   0  0  0  0  0  0  0  0  0  0  0  0
   18.3076   -5.7854  -17.4419 O   0  0  0  0  0  0  0  0  0  0  0  0
   22.5809   -5.4862  -15.5676 O   0  0  0  0  0  0  0  0  0  0  0  0
  2  1  1  1
  2  5  1  0
  3  2  1  0
  4  3  1  0
  5  6  2  0
  8  7  1  1
  8  9  1  0
 11 10  1  6
 10  8  1  0
 11 13  1  0
 12  5  1  0
 12 11  1  0
 13 15  1  0
 14 13  2  0
 16 15  1  0
 16 20  1  0
 16 17  1  1
 18 17  1  0
 18 22  1  0
 19 18  2  0
 20 21  1  0
 23 20  2  0
M  END
$$$$
