CLD.pdb
     RDKit          3D

 23 22  0  0  1  0  0  0  0  0999 V2000
   27.4213  -37.9448   -9.4256 N   0  0  0  0  0  0  0  0  0  0  0  0
   26.4196  -37.5547   -8.4720 C   0  0  1  0  0  0  0  0  0  0  0  0
   26.1818  -38.6923   -7.4878 C   0  0  0  0  0  0  0  0  0  0  0  0
   24.7345  -38.3753   -6.4528 S   0  0  0  0  0  0  0  0  0  0  0  0
   26.9295  -36.4097   -7.6866 C   0  0  0  0  0  0  0  0  0  0  0  0
   28.1602  -36.2538   -7.4701 O   0  0  0  0  0  0  0  0  0  0  0  0
   24.8492  -31.5025   -8.4851 C   0  0  0  0  0  0  0  0  0  0  0  0
   25.6557  -32.8119   -8.3311 C   0  0  1  0  0  0  0  0  0  0  0  0
   26.9444  -32.5692   -9.0733 C   0  0  0  0  0  0  0  0  0  0  0  0
   25.7923  -33.0427   -6.8721 C   0  0  0  0  0  0  0  0  0  0  0  0
   26.4749  -34.2930   -6.4335 C   0  0  2  0  0  0  0  0  0  0  0  0
   26.0247  -35.4515   -7.1550 N   0  0  0  0  0  0  0  0  0  0  0  0
   26.4512  -34.4918   -4.9710 C   0  0  0  0  0  0  0  0  0  0  0  0
   26.9160  -33.6058   -4.2129 O   0  0  0  0  0  0  0  0  0  0  0  0
   25.9164  -35.6623   -4.3671 N   0  0  0  0  0  0  0  0  0  0  0  0
   25.8249  -35.8069   -2.9271 C   0  0  1  0  0  0  0  0  0  0  0  0
   24.4095  -35.6883   -2.4411 C   0  0  0  0  0  0  0  0  0  0  0  0
   24.1870  -34.5400   -1.5314 C   0  0  0  0  0  0  0  0  0  0  0  0
   25.1576  -33.8303   -1.1842 O   0  0  0  0  0  0  0  0  0  0  0  0
   26.4619  -37.0717   -2.4912 C   0  0  0  0  0  0  0  0  0  0  0  0
   26.9755  -37.9890   -3.4122 O   0  0  0  0  0  0  0  0  0  0  0  0
   22.9327  -34.2184   -1.0448 O   0  0  0  0  0  0  0  0  0  0  0  0
   26.5644  -37.3675   -1.2773 O   0  0  0  0  0  0  0  0  0  0  0  0
  2  1  1  6
  2  5  1  0
  3  2  1  0
  4  3  1  0
  5  6  2  0
  8  7  1  1
  8  9  1  0
 11 10  1  1
 10  8  1  0
 11 13  1  0
 12  5  1  0
 12 11  1  0
 13 15  1  0
 14 13  2  0
 16 15  1  0
 16 20  1  0
 16 17  1  6
 18 17  1  0
 18 22  1  0
 19 18  2  0
 20 21  1  0
 23 20  2  0
M  END
$$$$
