CLD.pdb
     RDKit          3D

 23 22  0  0  1  0  0  0  0  0999 V2000
   16.2646  -11.4215  -16.5592 N   0  0  0  0  0  0  0  0  0  0  0  0
   17.3926  -10.8684  -17.2567 C   0  0  1  0  0  0  0  0  0  0  0  0
   16.9555   -9.6361  -18.0376 C   0  0  0  0  0  0  0  0  0  0  0  0
   15.7862  -10.0669  -19.3466 S   0  0  0  0  0  0  0  0  0  0  0  0
   18.3904  -10.4135  -16.2640 C   0  0  0  0  0  0  0  0  0  0  0  0
   18.0486  -10.0178  -15.1184 O   0  0  0  0  0  0  0  0  0  0  0  0
   22.6437  -10.3901  -13.3485 C   0  0  0  0  0  0  0  0  0  0  0  0
   23.1281  -10.3351  -14.8151 C   0  0  1  0  0  0  0  0  0  0  0  0
   24.3527  -11.2120  -14.8575 C   0  0  0  0  0  0  0  0  0  0  0  0
   21.9859  -10.7922  -15.6439 C   0  0  0  0  0  0  0  0  0  0  0  0
   20.7744   -9.9248  -15.6853 C   0  0  2  0  0  0  0  0  0  0  0  0
   19.7732  -10.4157  -16.5918 N   0  0  0  0  0  0  0  0  0  0  0  0
   21.0825   -8.4973  -15.9005 C   0  0  0  0  0  0  0  0  0  0  0  0
   21.3615   -8.0856  -17.0530 O   0  0  0  0  0  0  0  0  0  0  0  0
   21.0785   -7.5466  -14.8436 N   0  0  0  0  0  0  0  0  0  0  0  0
   21.3601   -6.1431  -15.0758 C   0  0  1  0  0  0  0  0  0  0  0  0
   20.1457   -5.3994  -15.5510 C   0  0  0  0  0  0  0  0  0  0  0  0
   20.3811   -3.9525  -15.7679 C   0  0  0  0  0  0  0  0  0  0  0  0
   21.5376   -3.4901  -15.6459 O   0  0  0  0  0  0  0  0  0  0  0  0
   21.9563   -5.5268  -13.8675 C   0  0  0  0  0  0  0  0  0  0  0  0
   22.1419   -6.2550  -12.6890 O   0  0  0  0  0  0  0  0  0  0  0  0
   19.3594   -3.0827  -16.1037 O   0  0  0  0  0  0  0  0  0  0  0  0
   22.3175   -4.3264  -13.8564 O   0  0  0  0  0  0  0  0  0  0  0  0
  2  1  1  1
  2  5  1  0
  3  2  1  0
  4  3  1  0
  5  6  2  0
  8  7  1  1
  8  9  1  0
 11 10  1  6
 10  8  1  0
 11 13  1  0
 12  5  1  0
 12 11  1  0
 13 15  1  0
 14 13  2  0
 16 15  1  0
 16 20  1  0
 16 17  1  1
 18 17  1  0
 18 22  1  0
 19 18  2  0
 20 21  1  0
 23 20  2  0
M  END
$$$$
