CLD.pdb
     RDKit          3D

 23 22  0  0  1  0  0  0  0  0999 V2000
   21.1264  -11.6439  -19.2812 N   0  0  0  0  0  0  0  0  0  0  0  0
   21.9830  -10.5386  -18.9505 C   0  0  1  0  0  0  0  0  0  0  0  0
   21.3073   -9.2328  -19.3476 C   0  0  0  0  0  0  0  0  0  0  0  0
   21.0492   -9.1421  -21.1341 S   0  0  0  0  0  0  0  0  0  0  0  0
   22.1629  -10.4975  -17.4828 C   0  0  0  0  0  0  0  0  0  0  0  0
   21.2680  -10.9060  -16.6967 O   0  0  0  0  0  0  0  0  0  0  0  0
   27.2174  -11.1288  -15.4105 C   0  0  0  0  0  0  0  0  0  0  0  0
   25.7234  -11.2926  -15.7704 C   0  0  1  0  0  0  0  0  0  0  0  0
   25.3403  -12.6531  -15.2482 C   0  0  0  0  0  0  0  0  0  0  0  0
   25.0204  -10.1464  -15.1438 C   0  0  0  0  0  0  0  0  0  0  0  0
   23.5911   -9.9322  -15.5086 C   0  0  2  0  0  0  0  0  0  0  0  0
   23.3677   -9.9885  -16.9270 N   0  0  0  0  0  0  0  0  0  0  0  0
   23.0022   -8.7284  -14.8896 C   0  0  0  0  0  0  0  0  0  0  0  0
   23.0082   -8.6021  -13.6407 O   0  0  0  0  0  0  0  0  0  0  0  0
   22.4164   -7.6838  -15.6553 N   0  0  0  0  0  0  0  0  0  0  0  0
   21.8766   -6.4898  -15.0340 C   0  0  1  0  0  0  0  0  0  0  0  0
   22.8660   -5.3607  -15.0372 C   0  0  0  0  0  0  0  0  0  0  0  0
   22.3372   -4.1046  -14.4554 C   0  0  0  0  0  0  0  0  0  0  0  0
   21.7141   -3.3008  -15.1846 O   0  0  0  0  0  0  0  0  0  0  0  0
   20.5925   -6.1101  -15.6683 C   0  0  0  0  0  0  0  0  0  0  0  0
   19.5873   -5.4540  -14.9524 O   0  0  0  0  0  0  0  0  0  0  0  0
   22.5082   -3.7821  -13.1212 O   0  0  0  0  0  0  0  0  0  0  0  0
   20.3587   -6.3636  -16.8736 O   0  0  0  0  0  0  0  0  0  0  0  0
  2  1  1  1
  2  5  1  0
  3  2  1  0
  4  3  1  0
  5  6  2  0
  8  7  1  1
  8  9  1  0
 11 10  1  6
 10  8  1  0
 11 13  1  0
 12  5  1  0
 12 11  1  0
 13 15  1  0
 14 13  2  0
 16 15  1  0
 16 20  1  0
 16 17  1  6
 18 17  1  0
 18 22  1  0
 19 18  2  0
 20 21  1  0
 23 20  2  0
M  END
$$$$
