CLD.pdb
     RDKit          3D

 23 22  0  0  1  0  0  0  0  0999 V2000
   26.9786  -21.9032  -16.9165 N   0  0  0  0  0  0  0  0  0  0  0  0
   25.8277  -21.8047  -17.7711 C   0  0  1  0  0  0  0  0  0  0  0  0
   25.3265  -23.2010  -18.1150 C   0  0  0  0  0  0  0  0  0  0  0  0
   26.6627  -24.2442  -18.7415 S   0  0  0  0  0  0  0  0  0  0  0  0
   24.7397  -21.1307  -17.0294 C   0  0  0  0  0  0  0  0  0  0  0  0
   24.6214  -21.2471  -15.7812 O   0  0  0  0  0  0  0  0  0  0  0  0
   22.5987  -16.1596  -18.5128 C   0  0  0  0  0  0  0  0  0  0  0  0
   23.2670  -17.3146  -17.7331 C   0  0  1  0  0  0  0  0  0  0  0  0
   23.6206  -16.7294  -16.3905 C   0  0  0  0  0  0  0  0  0  0  0  0
   22.2790  -18.4208  -17.7078 C   0  0  0  0  0  0  0  0  0  0  0  0
   22.6902  -19.6969  -17.0564 C   0  0  2  0  0  0  0  0  0  0  0  0
   23.7950  -20.3281  -17.7243 N   0  0  0  0  0  0  0  0  0  0  0  0
   21.5658  -20.6240  -16.8213 C   0  0  0  0  0  0  0  0  0  0  0  0
   21.6397  -21.8102  -17.2252 O   0  0  0  0  0  0  0  0  0  0  0  0
   20.3788  -20.2302  -16.1456 N   0  0  0  0  0  0  0  0  0  0  0  0
   19.3893  -21.1969  -15.7106 C   0  0  1  0  0  0  0  0  0  0  0  0
   19.9596  -22.1791  -14.7289 C   0  0  0  0  0  0  0  0  0  0  0  0
   18.9756  -23.1752  -14.2438 C   0  0  0  0  0  0  0  0  0  0  0  0
   18.5619  -24.0638  -15.0219 O   0  0  0  0  0  0  0  0  0  0  0  0
   18.1894  -20.5083  -15.1800 C   0  0  0  0  0  0  0  0  0  0  0  0
   18.2421  -19.7363  -14.0160 O   0  0  0  0  0  0  0  0  0  0  0  0
   18.4905  -23.1604  -12.9485 O   0  0  0  0  0  0  0  0  0  0  0  0
   17.0792  -20.5923  -15.7562 O   0  0  0  0  0  0  0  0  0  0  0  0
  2  1  1  1
  2  5  1  0
  3  2  1  0
  4  3  1  0
  5  6  2  0
  8  7  1  6
  8  9  1  0
 11 10  1  6
 10  8  1  0
 11 13  1  0
 12  5  1  0
 12 11  1  0
 13 15  1  0
 14 13  2  0
 16 15  1  0
 16 20  1  0
 16 17  1  1
 18 17  1  0
 18 22  1  0
 19 18  2  0
 20 21  1  0
 23 20  2  0
M  END
$$$$
