CLD.pdb
     RDKit          3D

 23 22  0  0  1  0  0  0  0  0999 V2000
   16.7722  -11.6177  -17.5569 N   0  0  0  0  0  0  0  0  0  0  0  0
   17.6273  -10.5616  -18.0240 C   0  0  1  0  0  0  0  0  0  0  0  0
   16.7891   -9.3323  -18.3490 C   0  0  0  0  0  0  0  0  0  0  0  0
   15.6294   -9.6635  -19.6950 S   0  0  0  0  0  0  0  0  0  0  0  0
   18.5473  -10.1750  -16.9320 C   0  0  0  0  0  0  0  0  0  0  0  0
   18.1179   -9.8025  -15.8084 O   0  0  0  0  0  0  0  0  0  0  0  0
   22.6849  -10.4626  -13.7700 C   0  0  0  0  0  0  0  0  0  0  0  0
   23.2068  -10.1053  -15.1802 C   0  0  1  0  0  0  0  0  0  0  0  0
   24.5228  -10.8281  -15.3068 C   0  0  0  0  0  0  0  0  0  0  0  0
   22.1502  -10.5304  -16.1307 C   0  0  0  0  0  0  0  0  0  0  0  0
   20.8837   -9.7447  -16.1491 C   0  0  2  0  0  0  0  0  0  0  0  0
   19.9529  -10.2184  -17.1362 N   0  0  0  0  0  0  0  0  0  0  0  0
   21.0995   -8.2865  -16.2277 C   0  0  0  0  0  0  0  0  0  0  0  0
   21.4259   -7.7616  -17.3202 O   0  0  0  0  0  0  0  0  0  0  0  0
   20.9526   -7.4302  -15.1026 N   0  0  0  0  0  0  0  0  0  0  0  0
   21.2441   -6.0116  -15.1773 C   0  0  1  0  0  0  0  0  0  0  0  0
   20.0804   -5.2281  -15.7117 C   0  0  0  0  0  0  0  0  0  0  0  0
   20.3163   -3.7658  -15.7530 C   0  0  0  0  0  0  0  0  0  0  0  0
   21.4340   -3.3305  -16.1100 O   0  0  0  0  0  0  0  0  0  0  0  0
   21.7021   -5.5060  -13.8620 C   0  0  0  0  0  0  0  0  0  0  0  0
   22.1345   -4.1875  -13.6938 O   0  0  0  0  0  0  0  0  0  0  0  0
   19.3369   -2.8520  -15.4074 O   0  0  0  0  0  0  0  0  0  0  0  0
   21.7192   -6.2432  -12.8483 O   0  0  0  0  0  0  0  0  0  0  0  0
  2  1  1  1
  2  5  1  0
  3  2  1  0
  4  3  1  0
  5  6  2  0
  8  7  1  1
  8  9  1  0
 11 10  1  6
 10  8  1  0
 11 13  1  0
 12  5  1  0
 12 11  1  0
 13 15  1  0
 14 13  2  0
 16 15  1  0
 16 20  1  0
 16 17  1  1
 18 17  1  0
 18 22  1  0
 19 18  2  0
 20 21  1  0
 23 20  2  0
M  END
$$$$
