CLD.pdb
     RDKit          3D

 23 22  0  0  1  0  0  0  0  0999 V2000
   18.0568  -12.3918  -17.3219 N   0  0  0  0  0  0  0  0  0  0  0  0
   18.7007  -11.3288  -18.0431 C   0  0  1  0  0  0  0  0  0  0  0  0
   17.7040  -10.6816  -18.9956 C   0  0  0  0  0  0  0  0  0  0  0  0
   17.2615  -11.7998  -20.3447 S   0  0  0  0  0  0  0  0  0  0  0  0
   19.1142  -10.2830  -17.0820 C   0  0  0  0  0  0  0  0  0  0  0  0
   18.3151   -9.8208  -16.2255 O   0  0  0  0  0  0  0  0  0  0  0  0
   23.8389  -10.1031  -14.2068 C   0  0  0  0  0  0  0  0  0  0  0  0
   22.3365   -9.9981  -14.5534 C   0  0  1  0  0  0  0  0  0  0  0  0
   21.6619   -9.6093  -13.2634 C   0  0  0  0  0  0  0  0  0  0  0  0
   22.2352   -9.0061  -15.6518 C   0  0  0  0  0  0  0  0  0  0  0  0
   20.8817   -8.7393  -16.2162 C   0  0  2  0  0  0  0  0  0  0  0  0
   20.4410   -9.7748  -17.1099 N   0  0  0  0  0  0  0  0  0  0  0  0
   20.7458   -7.3906  -16.8008 C   0  0  0  0  0  0  0  0  0  0  0  0
   21.4071   -7.0836  -17.8226 O   0  0  0  0  0  0  0  0  0  0  0  0
   19.8844   -6.4025  -16.2512 N   0  0  0  0  0  0  0  0  0  0  0  0
   19.7273   -5.0976  -16.8642 C   0  0  1  0  0  0  0  0  0  0  0  0
   18.2995   -4.6348  -16.8380 C   0  0  0  0  0  0  0  0  0  0  0  0
   18.0940   -3.3038  -17.4561 C   0  0  0  0  0  0  0  0  0  0  0  0
   17.8051   -2.3248  -16.7321 O   0  0  0  0  0  0  0  0  0  0  0  0
   20.6449   -4.1167  -16.2387 C   0  0  0  0  0  0  0  0  0  0  0  0
   21.4688   -4.4652  -15.1648 O   0  0  0  0  0  0  0  0  0  0  0  0
   18.2102   -3.0993  -18.8193 O   0  0  0  0  0  0  0  0  0  0  0  0
   20.7171   -2.9347  -16.6499 O   0  0  0  0  0  0  0  0  0  0  0  0
  2  1  1  1
  2  5  1  0
  3  2  1  0
  4  3  1  0
  5  6  2  0
  8  7  1  1
  8  9  1  0
 11 10  1  6
 10  8  1  0
 11 13  1  0
 12  5  1  0
 12 11  1  0
 13 15  1  0
 14 13  2  0
 16 15  1  0
 16 20  1  0
 16 17  1  1
 18 17  1  0
 18 22  1  0
 19 18  2  0
 20 21  1  0
 23 20  2  0
M  END
$$$$
