IWV.pdb
     RDKit          3D

 30 31  0  0  1  0  0  0  0  0999 V2000
    8.1005  -12.1205   19.5585 C   0  0  0  0  0  0  0  0  0  0  0  0
    7.5901  -13.1903   20.4729 C   0  0  0  0  0  0  0  0  0  0  0  0
    7.8967  -14.5867   19.9353 C   0  0  2  0  0  0  0  0  0  0  0  0
    7.2404  -14.7396   18.6068 C   0  0  0  0  0  0  0  0  0  0  0  0
    7.4473  -15.5492   20.9951 C   0  0  2  0  0  0  0  0  0  0  0  0
    6.0060  -15.2839   21.1650 N   0  0  0  0  0  0  0  0  0  0  0  0
    8.1450  -15.3305   22.3099 C   0  0  0  0  0  0  0  0  0  0  0  0
    8.3094  -14.1463   22.6888 O   0  0  0  0  0  0  0  0  0  0  0  0
    8.5971  -16.3892   23.0899 N   0  0  0  0  0  0  0  0  0  0  0  0
    9.5170  -16.1871   24.2310 C   0  0  1  0  0  0  0  0  0  0  0  0
    8.7565  -16.5249   25.4562 C   0  0  0  0  0  0  0  0  0  0  0  0
    7.6292  -15.6307   25.7593 C   0  0  0  0  0  0  0  0  0  0  0  0
    6.2778  -15.9002   25.6450 C   0  0  0  0  0  0  0  0  0  0  0  0
    5.6177  -14.7871   26.0040 N   0  0  0  0  0  0  0  0  0  0  0  0
    6.5026  -13.8240   26.3410 C   0  0  0  0  0  0  0  0  0  0  0  0
    6.3065  -12.5156   26.7738 C   0  0  0  0  0  0  0  0  0  0  0  0
    7.4288  -11.7586   27.0465 C   0  0  0  0  0  0  0  0  0  0  0  0
    8.7063  -12.2492   26.9060 C   0  0  0  0  0  0  0  0  0  0  0  0
    8.8788  -13.5442   26.4772 C   0  0  0  0  0  0  0  0  0  0  0  0
    7.7726  -14.3124   26.2011 C   0  0  0  0  0  0  0  0  0  0  0  0
   10.7564  -16.9292   23.9961 C   0  0  0  0  0  0  0  0  0  0  0  0
   10.6764  -18.1700   23.7255 O   0  0  0  0  0  0  0  0  0  0  0  0
   13.9547  -14.8705   23.2330 C   0  0  0  0  0  0  0  0  0  0  0  0
   14.1758  -16.3319   22.9643 C   0  0  1  0  0  0  0  0  0  0  0  0
   15.5617  -16.6848   23.4900 C   0  0  0  0  0  0  0  0  0  0  0  0
   13.1905  -17.1883   23.7413 C   0  0  2  0  0  0  0  0  0  0  0  0
   12.0537  -16.3421   24.0481 N   0  0  0  0  0  0  0  0  0  0  0  0
   13.8290  -17.6851   24.9664 C   0  0  0  0  0  0  0  0  0  0  0  0
   13.3911  -17.2631   26.2128 O   0  0  0  0  0  0  0  0  0  0  0  0
   14.7804  -18.4972   24.9422 O   0  0  0  0  0  0  0  0  0  0  0  0
  1  2  1  0
  2  3  1  0
  3  4  1  6
  5  3  1  0
  5  6  1  1
  7  9  1  0
  7  5  1  0
  8  7  2  0
 10  9  1  0
 10 11  1  1
 12 13  2  0
 12 11  1  0
 14 13  1  0
 15 20  2  0
 15 14  1  0
 16 15  1  0
 17 18  1  0
 17 16  2  0
 18 19  2  0
 19 20  1  0
 20 12  1  0
 21 10  1  0
 21 27  1  0
 22 21  2  0
 24 23  1  1
 24 26  1  0
 24 25  1  0
 26 27  1  1
 26 28  1  0
 28 29  1  0
 30 28  2  0
M  END
$$$$
