IWV.pdb
     RDKit          3D

 30 31  0  0  1  0  0  0  0  0999 V2000
   13.6163  -16.1256   20.6435 C   0  0  0  0  0  0  0  0  0  0  0  0
   12.1419  -15.9147   20.7952 C   0  0  0  0  0  0  0  0  0  0  0  0
   11.3795  -17.2381   20.8005 C   0  0  2  0  0  0  0  0  0  0  0  0
   11.7145  -17.9850   19.5559 C   0  0  0  0  0  0  0  0  0  0  0  0
    9.9317  -16.8843   20.9744 C   0  0  2  0  0  0  0  0  0  0  0  0
    9.6270  -15.9659   19.8608 N   0  0  0  0  0  0  0  0  0  0  0  0
    9.6591  -16.1835   22.2774 C   0  0  0  0  0  0  0  0  0  0  0  0
    9.6812  -14.9295   22.2767 O   0  0  0  0  0  0  0  0  0  0  0  0
    9.3899  -16.8829   23.4487 N   0  0  0  0  0  0  0  0  0  0  0  0
    9.0710  -16.1943   24.7188 C   0  0  1  0  0  0  0  0  0  0  0  0
    7.7250  -16.6573   25.1281 C   0  0  0  0  0  0  0  0  0  0  0  0
    6.7079  -15.6014   25.2414 C   0  0  0  0  0  0  0  0  0  0  0  0
    5.3341  -15.7338   25.1562 C   0  0  0  0  0  0  0  0  0  0  0  0
    4.8063  -14.5064   25.2918 N   0  0  0  0  0  0  0  0  0  0  0  0
    5.7963  -13.6031   25.4595 C   0  0  0  0  0  0  0  0  0  0  0  0
    5.7519  -12.2234   25.6393 C   0  0  0  0  0  0  0  0  0  0  0  0
    6.9541  -11.5600   25.7860 C   0  0  0  0  0  0  0  0  0  0  0  0
    8.1670  -12.2085   25.7603 C   0  0  0  0  0  0  0  0  0  0  0  0
    8.1894  -13.5717   25.5815 C   0  0  0  0  0  0  0  0  0  0  0  0
    7.0020  -14.2486   25.4338 C   0  0  0  0  0  0  0  0  0  0  0  0
   10.1606  -16.4020   25.6736 C   0  0  0  0  0  0  0  0  0  0  0  0
   11.0396  -17.2824   25.4060 O   0  0  0  0  0  0  0  0  0  0  0  0
   11.4047  -13.5999   28.3815 C   0  0  0  0  0  0  0  0  0  0  0  0
   11.3935  -15.0099   28.8999 C   0  0  1  0  0  0  0  0  0  0  0  0
   10.0752  -15.2116   29.6367 C   0  0  0  0  0  0  0  0  0  0  0  0
   11.4068  -16.0141   27.7601 C   0  0  2  0  0  0  0  0  0  0  0  0
   10.2998  -15.6711   26.8889 N   0  0  0  0  0  0  0  0  0  0  0  0
   11.2584  -17.3719   28.2983 C   0  0  0  0  0  0  0  0  0  0  0  0
   12.2970  -17.9746   28.9921 O   0  0  0  0  0  0  0  0  0  0  0  0
   10.2070  -18.0353   28.1579 O   0  0  0  0  0  0  0  0  0  0  0  0
  1  2  1  0
  2  3  1  0
  3  4  1  6
  5  3  1  0
  5  6  1  6
  7  9  1  0
  7  5  1  0
  8  7  2  0
 10  9  1  0
 10 11  1  1
 12 13  2  0
 12 11  1  0
 14 13  1  0
 15 20  2  0
 15 14  1  0
 16 15  1  0
 17 18  1  0
 17 16  2  0
 18 19  2  0
 19 20  1  0
 20 12  1  0
 21 10  1  0
 21 27  1  0
 22 21  2  0
 24 23  1  6
 24 26  1  0
 24 25  1  0
 26 27  1  6
 26 28  1  0
 28 29  1  0
 30 28  2  0
M  END
$$$$
