IWV.pdb
     RDKit          3D

 30 31  0  0  1  0  0  0  0  0999 V2000
    6.8309  -12.7371   18.7032 C   0  0  0  0  0  0  0  0  0  0  0  0
    7.2175  -14.0870   19.2224 C   0  0  0  0  0  0  0  0  0  0  0  0
    7.9287  -13.9912   20.5707 C   0  0  2  0  0  0  0  0  0  0  0  0
    9.0199  -12.9829   20.4623 C   0  0  0  0  0  0  0  0  0  0  0  0
    8.3660  -15.3857   20.9112 C   0  0  2  0  0  0  0  0  0  0  0  0
    7.1153  -16.1581   21.0354 N   0  0  0  0  0  0  0  0  0  0  0  0
    9.1175  -15.4555   22.2126 C   0  0  0  0  0  0  0  0  0  0  0  0
   10.2017  -14.8298   22.2901 O   0  0  0  0  0  0  0  0  0  0  0  0
    8.6432  -16.1809   23.3000 N   0  0  0  0  0  0  0  0  0  0  0  0
    9.3589  -16.2136   24.5945 C   0  0  1  0  0  0  0  0  0  0  0  0
    8.3284  -16.3673   25.6472 C   0  0  0  0  0  0  0  0  0  0  0  0
    7.2824  -15.3339   25.6543 C   0  0  0  0  0  0  0  0  0  0  0  0
    5.9560  -15.4665   25.2866 C   0  0  0  0  0  0  0  0  0  0  0  0
    5.3807  -14.2612   25.4283 N   0  0  0  0  0  0  0  0  0  0  0  0
    6.2952  -13.3718   25.8722 C   0  0  0  0  0  0  0  0  0  0  0  0
    6.1812  -12.0161   26.1671 C   0  0  0  0  0  0  0  0  0  0  0  0
    7.3138  -11.3621   26.6102 C   0  0  0  0  0  0  0  0  0  0  0  0
    8.5242  -11.9972   26.7653 C   0  0  0  0  0  0  0  0  0  0  0  0
    8.6160  -13.3367   26.4686 C   0  0  0  0  0  0  0  0  0  0  0  0
    7.4984  -14.0040   26.0261 C   0  0  0  0  0  0  0  0  0  0  0  0
   10.4107  -17.2301   24.5452 C   0  0  0  0  0  0  0  0  0  0  0  0
   10.0858  -18.4225   24.2422 O   0  0  0  0  0  0  0  0  0  0  0  0
   13.5017  -17.0745   22.5474 C   0  0  0  0  0  0  0  0  0  0  0  0
   13.9136  -17.5430   23.9141 C   0  0  1  0  0  0  0  0  0  0  0  0
   14.4316  -16.3276   24.6730 C   0  0  0  0  0  0  0  0  0  0  0  0
   12.7213  -18.0635   24.6986 C   0  0  2  0  0  0  0  0  0  0  0  0
   11.7845  -16.9628   24.8130 N   0  0  0  0  0  0  0  0  0  0  0  0
   13.1644  -18.5237   26.0204 C   0  0  0  0  0  0  0  0  0  0  0  0
   12.7816  -17.8475   27.1691 O   0  0  0  0  0  0  0  0  0  0  0  0
   13.8946  -19.5288   26.1681 O   0  0  0  0  0  0  0  0  0  0  0  0
  1  2  1  0
  2  3  1  0
  3  4  1  6
  5  3  1  0
  5  6  1  1
  7  9  1  0
  7  5  1  0
  8  7  2  0
 10  9  1  0
 10 11  1  1
 12 13  2  0
 12 11  1  0
 14 13  1  0
 15 20  2  0
 15 14  1  0
 16 15  1  0
 17 18  1  0
 17 16  2  0
 18 19  2  0
 19 20  1  0
 20 12  1  0
 21 10  1  0
 21 27  1  0
 22 21  2  0
 24 23  1  6
 24 26  1  0
 24 25  1  0
 26 27  1  1
 26 28  1  0
 28 29  1  0
 30 28  2  0
M  END
$$$$
