IWV.pdb
     RDKit          3D

 30 31  0  0  1  0  0  0  0  0999 V2000
    7.3584  -18.0407   17.4216 C   0  0  0  0  0  0  0  0  0  0  0  0
    6.7641  -17.4646   18.6689 C   0  0  0  0  0  0  0  0  0  0  0  0
    7.8367  -16.8940   19.5945 C   0  0  2  0  0  0  0  0  0  0  0  0
    8.8738  -17.9390   19.8218 C   0  0  0  0  0  0  0  0  0  0  0  0
    7.1173  -16.4170   20.8219 C   0  0  2  0  0  0  0  0  0  0  0  0
    6.2631  -15.3078   20.3566 N   0  0  0  0  0  0  0  0  0  0  0  0
    8.0552  -15.9036   21.8803 C   0  0  0  0  0  0  0  0  0  0  0  0
    8.6436  -14.8188   21.6565 O   0  0  0  0  0  0  0  0  0  0  0  0
    8.2737  -16.5917   23.0687 N   0  0  0  0  0  0  0  0  0  0  0  0
    9.2571  -16.1309   24.0735 C   0  0  1  0  0  0  0  0  0  0  0  0
    8.6161  -16.2868   25.3996 C   0  0  0  0  0  0  0  0  0  0  0  0
    7.4863  -15.3820   25.6586 C   0  0  0  0  0  0  0  0  0  0  0  0
    6.1355  -15.6649   25.5724 C   0  0  0  0  0  0  0  0  0  0  0  0
    5.4721  -14.5358   25.8700 N   0  0  0  0  0  0  0  0  0  0  0  0
    6.3543  -13.5496   26.1411 C   0  0  0  0  0  0  0  0  0  0  0  0
    6.1543  -12.2187   26.4967 C   0  0  0  0  0  0  0  0  0  0  0  0
    7.2746  -11.4410   26.7139 C   0  0  0  0  0  0  0  0  0  0  0  0
    8.5536  -11.9324   26.5918 C   0  0  0  0  0  0  0  0  0  0  0  0
    8.7299  -13.2498   26.2396 C   0  0  0  0  0  0  0  0  0  0  0  0
    7.6259  -14.0389   26.0195 C   0  0  0  0  0  0  0  0  0  0  0  0
   10.5282  -16.8266   23.8674 C   0  0  0  0  0  0  0  0  0  0  0  0
   10.5044  -18.0833   23.6681 O   0  0  0  0  0  0  0  0  0  0  0  0
   15.2361  -16.7979   22.5627 C   0  0  0  0  0  0  0  0  0  0  0  0
   13.9696  -16.0639   22.9005 C   0  0  1  0  0  0  0  0  0  0  0  0
   13.3337  -15.6282   21.5863 C   0  0  0  0  0  0  0  0  0  0  0  0
   12.9674  -16.9818   23.5794 C   0  0  2  0  0  0  0  0  0  0  0  0
   11.7968  -16.1778   23.8719 N   0  0  0  0  0  0  0  0  0  0  0  0
   13.5554  -17.5307   24.8075 C   0  0  0  0  0  0  0  0  0  0  0  0
   14.5579  -18.4869   24.7451 O   0  0  0  0  0  0  0  0  0  0  0  0
   13.1854  -17.1672   25.9461 O   0  0  0  0  0  0  0  0  0  0  0  0
  1  2  1  0
  2  3  1  0
  3  4  1  1
  5  3  1  0
  5  6  1  6
  7  9  1  0
  7  5  1  0
  8  7  2  0
 10  9  1  0
 10 11  1  1
 12 13  2  0
 12 11  1  0
 14 13  1  0
 15 20  2  0
 15 14  1  0
 16 15  1  0
 17 18  1  0
 17 16  2  0
 18 19  2  0
 19 20  1  0
 20 12  1  0
 21 10  1  0
 21 27  1  0
 22 21  2  0
 24 23  1  6
 24 26  1  0
 24 25  1  0
 26 27  1  1
 26 28  1  0
 28 29  1  0
 30 28  2  0
M  END
$$$$
