IWV.pdb
     RDKit          3D

 30 31  0  0  1  0  0  0  0  0999 V2000
   14.1728  -17.3235   18.3266 C   0  0  0  0  0  0  0  0  0  0  0  0
   12.8646  -17.7014   18.9487 C   0  0  0  0  0  0  0  0  0  0  0  0
   12.5387  -16.8242   20.1557 C   0  0  2  0  0  0  0  0  0  0  0  0
   13.6814  -16.8837   21.1095 C   0  0  0  0  0  0  0  0  0  0  0  0
   11.2247  -17.3174   20.6868 C   0  0  2  0  0  0  0  0  0  0  0  0
   10.3167  -17.3111   19.5240 N   0  0  0  0  0  0  0  0  0  0  0  0
   10.6594  -16.4227   21.7560 C   0  0  0  0  0  0  0  0  0  0  0  0
   11.0079  -15.2179   21.7475 O   0  0  0  0  0  0  0  0  0  0  0  0
    9.7816  -16.8956   22.7252 N   0  0  0  0  0  0  0  0  0  0  0  0
    9.2104  -16.0121   23.7655 C   0  0  1  0  0  0  0  0  0  0  0  0
    7.7394  -16.0524   23.5978 C   0  0  0  0  0  0  0  0  0  0  0  0
    6.9741  -15.3045   24.6064 C   0  0  0  0  0  0  0  0  0  0  0  0
    6.1534  -15.8117   25.5970 C   0  0  0  0  0  0  0  0  0  0  0  0
    5.6424  -14.7652   26.2658 N   0  0  0  0  0  0  0  0  0  0  0  0
    6.1102  -13.6152   25.7340 C   0  0  0  0  0  0  0  0  0  0  0  0
    5.8721  -12.2876   26.0783 C   0  0  0  0  0  0  0  0  0  0  0  0
    6.5066  -11.3119   25.3349 C   0  0  0  0  0  0  0  0  0  0  0  0
    7.3482  -11.6075   24.2877 C   0  0  0  0  0  0  0  0  0  0  0  0
    7.5703  -12.9252   23.9635 C   0  0  0  0  0  0  0  0  0  0  0  0
    6.9470  -13.9098   24.6928 C   0  0  0  0  0  0  0  0  0  0  0  0
    9.7375  -16.3966   25.0756 C   0  0  0  0  0  0  0  0  0  0  0  0
   10.1750  -17.5818   25.2275 O   0  0  0  0  0  0  0  0  0  0  0  0
   11.1020  -13.6039   27.7695 C   0  0  0  0  0  0  0  0  0  0  0  0
   10.4778  -14.8300   28.3727 C   0  0  1  0  0  0  0  0  0  0  0  0
    9.0170  -14.5024   28.6560 C   0  0  0  0  0  0  0  0  0  0  0  0
   10.4755  -15.9864   27.3873 C   0  0  2  0  0  0  0  0  0  0  0  0
    9.7949  -15.5178   26.1959 N   0  0  0  0  0  0  0  0  0  0  0  0
    9.7804  -17.1362   27.9789 C   0  0  0  0  0  0  0  0  0  0  0  0
   10.3605  -17.8582   29.0111 O   0  0  0  0  0  0  0  0  0  0  0  0
    8.6531  -17.5103   27.5858 O   0  0  0  0  0  0  0  0  0  0  0  0
  1  2  1  0
  2  3  1  0
  3  4  1  1
  5  3  1  0
  5  6  1  6
  7  9  1  0
  7  5  1  0
  8  7  2  0
 10  9  1  0
 10 11  1  1
 12 13  2  0
 12 11  1  0
 14 13  1  0
 15 20  2  0
 15 14  1  0
 16 15  1  0
 17 18  1  0
 17 16  2  0
 18 19  2  0
 19 20  1  0
 20 12  1  0
 21 10  1  0
 21 27  1  0
 22 21  2  0
 24 23  1  6
 24 26  1  0
 24 25  1  0
 26 27  1  6
 26 28  1  0
 28 29  1  0
 30 28  2  0
M  END
$$$$
