IWV.pdb
     RDKit          3D

 30 31  0  0  1  0  0  0  0  0999 V2000
    5.7888  -23.0273   21.9839 C   0  0  0  0  0  0  0  0  0  0  0  0
    5.4078  -21.9052   22.8986 C   0  0  0  0  0  0  0  0  0  0  0  0
    6.3785  -20.7312   22.7874 C   0  0  2  0  0  0  0  0  0  0  0  0
    7.7655  -21.2417   22.9734 C   0  0  0  0  0  0  0  0  0  0  0  0
    5.9212  -19.7157   23.7930 C   0  0  2  0  0  0  0  0  0  0  0  0
    4.5486  -19.3635   23.3825 N   0  0  0  0  0  0  0  0  0  0  0  0
    6.7692  -18.4730   23.7880 C   0  0  0  0  0  0  0  0  0  0  0  0
    6.6726  -17.7095   22.7976 O   0  0  0  0  0  0  0  0  0  0  0  0
    7.6328  -18.1653   24.8334 N   0  0  0  0  0  0  0  0  0  0  0  0
    8.5268  -16.9871   24.7926 C   0  0  1  0  0  0  0  0  0  0  0  0
    8.4271  -16.3307   26.1166 C   0  0  0  0  0  0  0  0  0  0  0  0
    7.2676  -15.4430   26.2890 C   0  0  0  0  0  0  0  0  0  0  0  0
    5.9474  -15.8010   26.4916 C   0  0  0  0  0  0  0  0  0  0  0  0
    5.2338  -14.6659   26.5679 N   0  0  0  0  0  0  0  0  0  0  0  0
    6.0548  -13.6035   26.4208 C   0  0  0  0  0  0  0  0  0  0  0  0
    5.7887  -12.2372   26.4260 C   0  0  0  0  0  0  0  0  0  0  0  0
    6.8556  -11.3786   26.2480 C   0  0  0  0  0  0  0  0  0  0  0  0
    8.1447  -11.8246   26.0699 C   0  0  0  0  0  0  0  0  0  0  0  0
    8.3866  -13.1783   26.0679 C   0  0  0  0  0  0  0  0  0  0  0  0
    7.3363  -14.0477   26.2438 C   0  0  0  0  0  0  0  0  0  0  0  0
    9.8616  -17.4019   24.3590 C   0  0  0  0  0  0  0  0  0  0  0  0
   10.3823  -18.4281   24.9022 O   0  0  0  0  0  0  0  0  0  0  0  0
   11.2012  -16.9540   20.6000 C   0  0  0  0  0  0  0  0  0  0  0  0
   12.2585  -16.6803   21.6316 C   0  0  1  0  0  0  0  0  0  0  0  0
   12.3016  -15.1727   21.8476 C   0  0  0  0  0  0  0  0  0  0  0  0
   11.8912  -17.2961   22.9710 C   0  0  2  0  0  0  0  0  0  0  0  0
   10.6154  -16.7253   23.3567 N   0  0  0  0  0  0  0  0  0  0  0  0
   12.9326  -16.9851   23.9581 C   0  0  0  0  0  0  0  0  0  0  0  0
   14.2056  -17.5215   23.8352 O   0  0  0  0  0  0  0  0  0  0  0  0
   12.7226  -16.2355   24.9375 O   0  0  0  0  0  0  0  0  0  0  0  0
  1  2  1  0
  2  3  1  0
  3  4  1  1
  5  3  1  0
  5  6  1  6
  7  9  1  0
  7  5  1  0
  8  7  2  0
 10  9  1  0
 10 11  1  1
 12 13  2  0
 12 11  1  0
 14 13  1  0
 15 20  2  0
 15 14  1  0
 16 15  1  0
 17 18  1  0
 17 16  2  0
 18 19  2  0
 19 20  1  0
 20 12  1  0
 21 10  1  0
 21 27  1  0
 22 21  2  0
 24 23  1  6
 24 26  1  0
 24 25  1  0
 26 27  1  1
 26 28  1  0
 28 29  1  0
 30 28  2  0
M  END
$$$$
