IWV.pdb
     RDKit          3D

 30 31  0  0  1  0  0  0  0  0999 V2000
    6.5753  -12.4779   19.6576 C   0  0  0  0  0  0  0  0  0  0  0  0
    7.2642  -13.7830   19.9090 C   0  0  0  0  0  0  0  0  0  0  0  0
    7.9009  -13.8276   21.2966 C   0  0  2  0  0  0  0  0  0  0  0  0
    8.7947  -12.6456   21.4481 C   0  0  0  0  0  0  0  0  0  0  0  0
    8.5716  -15.1656   21.4046 C   0  0  2  0  0  0  0  0  0  0  0  0
    7.4836  -16.1509   21.2563 N   0  0  0  0  0  0  0  0  0  0  0  0
    9.2424  -15.3716   22.7354 C   0  0  0  0  0  0  0  0  0  0  0  0
   10.2310  -14.6480   23.0042 O   0  0  0  0  0  0  0  0  0  0  0  0
    8.7970  -16.3230   23.6464 N   0  0  0  0  0  0  0  0  0  0  0  0
    9.4158  -16.4827   24.9807 C   0  0  1  0  0  0  0  0  0  0  0  0
    8.3067  -16.5383   25.9608 C   0  0  0  0  0  0  0  0  0  0  0  0
    7.3609  -15.4141   25.8995 C   0  0  0  0  0  0  0  0  0  0  0  0
    6.0346  -15.4414   25.5093 C   0  0  0  0  0  0  0  0  0  0  0  0
    5.5709  -14.1832   25.5851 N   0  0  0  0  0  0  0  0  0  0  0  0
    6.5558  -13.3619   26.0090 C   0  0  0  0  0  0  0  0  0  0  0  0
    6.5626  -11.9894   26.2411 C   0  0  0  0  0  0  0  0  0  0  0  0
    7.7430  -11.4222   26.6794 C   0  0  0  0  0  0  0  0  0  0  0  0
    8.8864  -12.1577   26.8886 C   0  0  0  0  0  0  0  0  0  0  0  0
    8.8591  -13.5123   26.6534 C   0  0  0  0  0  0  0  0  0  0  0  0
    7.6925  -14.0939   26.2168 C   0  0  0  0  0  0  0  0  0  0  0  0
   10.3366  -17.6202   24.9588 C   0  0  0  0  0  0  0  0  0  0  0  0
   10.6024  -18.2045   26.0576 O   0  0  0  0  0  0  0  0  0  0  0  0
   10.7511  -20.0221   21.7701 C   0  0  0  0  0  0  0  0  0  0  0  0
   12.0501  -19.7997   22.4912 C   0  0  1  0  0  0  0  0  0  0  0  0
   12.8009  -18.7037   21.7451 C   0  0  0  0  0  0  0  0  0  0  0  0
   11.8146  -19.2779   23.8984 C   0  0  2  0  0  0  0  0  0  0  0  0
   10.9532  -18.1182   23.7746 N   0  0  0  0  0  0  0  0  0  0  0  0
   13.0995  -18.9221   24.5132 C   0  0  0  0  0  0  0  0  0  0  0  0
   13.9767  -19.9085   24.9384 O   0  0  0  0  0  0  0  0  0  0  0  0
   13.4551  -17.7341   24.6785 O   0  0  0  0  0  0  0  0  0  0  0  0
  1  2  1  0
  2  3  1  0
  3  4  1  6
  5  3  1  0
  5  6  1  1
  7  9  1  0
  7  5  1  0
  8  7  2  0
 10  9  1  0
 10 11  1  1
 12 13  2  0
 12 11  1  0
 14 13  1  0
 15 20  2  0
 15 14  1  0
 16 15  1  0
 17 18  1  0
 17 16  2  0
 18 19  2  0
 19 20  1  0
 20 12  1  0
 21 10  1  0
 21 27  1  0
 22 21  2  0
 24 23  1  6
 24 26  1  0
 24 25  1  0
 26 27  1  6
 26 28  1  0
 28 29  1  0
 30 28  2  0
M  END
$$$$
