IWV.pdb
     RDKit          3D

 30 31  0  0  1  0  0  0  0  0999 V2000
    6.8376  -12.3283   19.0014 C   0  0  0  0  0  0  0  0  0  0  0  0
    7.2076  -13.7254   19.3914 C   0  0  0  0  0  0  0  0  0  0  0  0
    7.9347  -13.7634   20.7341 C   0  0  2  0  0  0  0  0  0  0  0  0
    9.0781  -12.8099   20.6830 C   0  0  0  0  0  0  0  0  0  0  0  0
    8.2987  -15.1999   20.9705 C   0  0  2  0  0  0  0  0  0  0  0  0
    7.0105  -15.9175   21.0146 N   0  0  0  0  0  0  0  0  0  0  0  0
    9.0212  -15.4074   22.2737 C   0  0  0  0  0  0  0  0  0  0  0  0
   10.1311  -14.8415   22.4175 O   0  0  0  0  0  0  0  0  0  0  0  0
    8.4936  -16.1933   23.2924 N   0  0  0  0  0  0  0  0  0  0  0  0
    9.1949  -16.3827   24.5813 C   0  0  1  0  0  0  0  0  0  0  0  0
    8.1479  -16.5056   25.6218 C   0  0  0  0  0  0  0  0  0  0  0  0
    7.2179  -15.3701   25.7105 C   0  0  0  0  0  0  0  0  0  0  0  0
    5.8828  -15.3368   25.3519 C   0  0  0  0  0  0  0  0  0  0  0  0
    5.4398  -14.0897   25.5802 N   0  0  0  0  0  0  0  0  0  0  0  0
    6.4462  -13.3336   26.0700 C   0  0  0  0  0  0  0  0  0  0  0  0
    6.4788  -11.9963   26.4550 C   0  0  0  0  0  0  0  0  0  0  0  0
    7.6771  -11.4968   26.9257 C   0  0  0  0  0  0  0  0  0  0  0  0
    8.8140  -12.2653   27.0229 C   0  0  0  0  0  0  0  0  0  0  0  0
    8.7610  -13.5842   26.6374 C   0  0  0  0  0  0  0  0  0  0  0  0
    7.5763  -14.0984   26.1664 C   0  0  0  0  0  0  0  0  0  0  0  0
   10.1430  -17.4914   24.4629 C   0  0  0  0  0  0  0  0  0  0  0  0
    9.7027  -18.6269   24.0940 O   0  0  0  0  0  0  0  0  0  0  0  0
   13.3914  -17.4988   22.5563 C   0  0  0  0  0  0  0  0  0  0  0  0
   13.6515  -18.1007   23.9079 C   0  0  1  0  0  0  0  0  0  0  0  0
   14.2186  -16.9982   24.7936 C   0  0  0  0  0  0  0  0  0  0  0  0
   12.3592  -18.5567   24.5638 C   0  0  2  0  0  0  0  0  0  0  0  0
   11.5372  -17.3743   24.7327 N   0  0  0  0  0  0  0  0  0  0  0  0
   12.6581  -19.1851   25.8565 C   0  0  0  0  0  0  0  0  0  0  0  0
   12.2417  -18.5969   27.0414 O   0  0  0  0  0  0  0  0  0  0  0  0
   13.2909  -20.2606   25.9465 O   0  0  0  0  0  0  0  0  0  0  0  0
  1  2  1  0
  2  3  1  0
  3  4  1  6
  5  3  1  0
  5  6  1  1
  7  9  1  0
  7  5  1  0
  8  7  2  0
 10  9  1  0
 10 11  1  1
 12 13  2  0
 12 11  1  0
 14 13  1  0
 15 20  2  0
 15 14  1  0
 16 15  1  0
 17 18  1  0
 17 16  2  0
 18 19  2  0
 19 20  1  0
 20 12  1  0
 21 10  1  0
 21 27  1  0
 22 21  2  0
 24 23  1  6
 24 26  1  0
 24 25  1  0
 26 27  1  1
 26 28  1  0
 28 29  1  0
 30 28  2  0
M  END
$$$$
