IWV.pdb
     RDKit          3D

 30 31  0  0  1  0  0  0  0  0999 V2000
    6.8402  -12.8484   18.6546 C   0  0  0  0  0  0  0  0  0  0  0  0
    7.2982  -14.1641   19.2027 C   0  0  0  0  0  0  0  0  0  0  0  0
    8.0175  -13.9994   20.5400 C   0  0  2  0  0  0  0  0  0  0  0  0
    9.0738  -12.9602   20.3871 C   0  0  0  0  0  0  0  0  0  0  0  0
    8.5035  -15.3664   20.9230 C   0  0  2  0  0  0  0  0  0  0  0  0
    7.2814  -16.1817   21.0588 N   0  0  0  0  0  0  0  0  0  0  0  0
    9.2453  -15.3719   22.2318 C   0  0  0  0  0  0  0  0  0  0  0  0
   10.2993  -14.6959   22.3034 O   0  0  0  0  0  0  0  0  0  0  0  0
    8.7943  -16.0927   23.3321 N   0  0  0  0  0  0  0  0  0  0  0  0
    9.5423  -16.1277   24.6081 C   0  0  1  0  0  0  0  0  0  0  0  0
    8.5424  -16.3263   25.6826 C   0  0  0  0  0  0  0  0  0  0  0  0
    7.4757  -15.3157   25.7390 C   0  0  0  0  0  0  0  0  0  0  0  0
    6.1391  -15.4742   25.4220 C   0  0  0  0  0  0  0  0  0  0  0  0
    5.5443  -14.2827   25.5960 N   0  0  0  0  0  0  0  0  0  0  0  0
    6.4563  -13.3771   26.0115 C   0  0  0  0  0  0  0  0  0  0  0  0
    6.3251  -12.0265   26.3219 C   0  0  0  0  0  0  0  0  0  0  0  0
    7.4600  -11.3515   26.7261 C   0  0  0  0  0  0  0  0  0  0  0  0
    8.6887  -11.9615   26.8287 C   0  0  0  0  0  0  0  0  0  0  0  0
    8.7973  -13.2964   26.5174 C   0  0  0  0  0  0  0  0  0  0  0  0
    7.6777  -13.9843   26.1132 C   0  0  0  0  0  0  0  0  0  0  0  0
   10.6190  -17.1149   24.5160 C   0  0  0  0  0  0  0  0  0  0  0  0
   10.3138  -18.3185   24.2378 O   0  0  0  0  0  0  0  0  0  0  0  0
   13.7317  -16.7314   22.5051 C   0  0  0  0  0  0  0  0  0  0  0  0
   14.1480  -17.3127   23.8264 C   0  0  1  0  0  0  0  0  0  0  0  0
   14.6823  -16.1674   24.6774 C   0  0  0  0  0  0  0  0  0  0  0  0
   12.9559  -17.8844   24.5748 C   0  0  2  0  0  0  0  0  0  0  0  0
   11.9958  -16.8069   24.7155 N   0  0  0  0  0  0  0  0  0  0  0  0
   13.3903  -18.3834   25.8853 C   0  0  0  0  0  0  0  0  0  0  0  0
   14.1411  -19.5451   25.9859 O   0  0  0  0  0  0  0  0  0  0  0  0
   13.1080  -17.7939   26.9521 O   0  0  0  0  0  0  0  0  0  0  0  0
  1  2  1  0
  2  3  1  0
  3  4  1  6
  5  3  1  0
  5  6  1  1
  7  9  1  0
  7  5  1  0
  8  7  2  0
 10  9  1  0
 10 11  1  1
 12 13  2  0
 12 11  1  0
 14 13  1  0
 15 20  2  0
 15 14  1  0
 16 15  1  0
 17 18  1  0
 17 16  2  0
 18 19  2  0
 19 20  1  0
 20 12  1  0
 21 10  1  0
 21 27  1  0
 22 21  2  0
 24 23  1  6
 24 26  1  0
 24 25  1  0
 26 27  1  1
 26 28  1  0
 28 29  1  0
 30 28  2  0
M  END
$$$$
