IWV.pdb
     RDKit          3D

 30 31  0  0  1  0  0  0  0  0999 V2000
    7.7399  -13.4535   17.8960 C   0  0  0  0  0  0  0  0  0  0  0  0
    8.5332  -14.4263   18.7116 C   0  0  0  0  0  0  0  0  0  0  0  0
    8.6481  -13.9810   20.1681 C   0  0  2  0  0  0  0  0  0  0  0  0
    9.2210  -12.6063   20.2014 C   0  0  0  0  0  0  0  0  0  0  0  0
    9.4556  -15.0368   20.8644 C   0  0  2  0  0  0  0  0  0  0  0  0
    8.7725  -16.3068   20.5530 N   0  0  0  0  0  0  0  0  0  0  0  0
    9.4889  -14.8504   22.3568 C   0  0  0  0  0  0  0  0  0  0  0  0
   10.0675  -13.8300   22.8007 O   0  0  0  0  0  0  0  0  0  0  0  0
    8.9049  -15.7640   23.2274 N   0  0  0  0  0  0  0  0  0  0  0  0
    8.7938  -15.5044   24.6797 C   0  0  1  0  0  0  0  0  0  0  0  0
    7.4952  -16.0680   25.1151 C   0  0  0  0  0  0  0  0  0  0  0  0
    6.4768  -15.0757   25.4900 C   0  0  0  0  0  0  0  0  0  0  0  0
    5.1053  -15.2444   25.5392 C   0  0  0  0  0  0  0  0  0  0  0  0
    4.5719  -14.0678   25.9064 N   0  0  0  0  0  0  0  0  0  0  0  0
    5.5564  -13.1617   26.0911 C   0  0  0  0  0  0  0  0  0  0  0  0
    5.5052  -11.8233   26.4701 C   0  0  0  0  0  0  0  0  0  0  0  0
    6.7028  -11.1439   26.5763 C   0  0  0  0  0  0  0  0  0  0  0  0
    7.9175  -11.7383   26.3241 C   0  0  0  0  0  0  0  0  0  0  0  0
    7.9466  -13.0614   25.9509 C   0  0  0  0  0  0  0  0  0  0  0  0
    6.7639  -13.7534   25.8401 C   0  0  0  0  0  0  0  0  0  0  0  0
    9.9915  -16.0024   25.3576 C   0  0  0  0  0  0  0  0  0  0  0  0
   10.8029  -16.7271   24.6975 O   0  0  0  0  0  0  0  0  0  0  0  0
   11.6795  -14.1517   28.4209 C   0  0  0  0  0  0  0  0  0  0  0  0
   11.7813  -15.6410   28.5888 C   0  0  1  0  0  0  0  0  0  0  0  0
   10.7009  -16.0607   29.5779 C   0  0  0  0  0  0  0  0  0  0  0  0
   11.4760  -16.3626   27.2872 C   0  0  2  0  0  0  0  0  0  0  0  0
   10.3078  -15.7195   26.7179 N   0  0  0  0  0  0  0  0  0  0  0  0
   11.2212  -17.7825   27.5593 C   0  0  0  0  0  0  0  0  0  0  0  0
   12.2699  -18.6513   27.8214 O   0  0  0  0  0  0  0  0  0  0  0  0
   10.0669  -18.2650   27.5669 O   0  0  0  0  0  0  0  0  0  0  0  0
  1  2  1  0
  2  3  1  0
  3  4  1  6
  5  3  1  0
  5  6  1  1
  7  9  1  0
  7  5  1  0
  8  7  2  0
 10  9  1  0
 10 11  1  1
 12 13  2  0
 12 11  1  0
 14 13  1  0
 15 20  2  0
 15 14  1  0
 16 15  1  0
 17 18  1  0
 17 16  2  0
 18 19  2  0
 19 20  1  0
 20 12  1  0
 21 10  1  0
 21 27  1  0
 22 21  2  0
 24 23  1  6
 24 26  1  0
 24 25  1  0
 26 27  1  1
 26 28  1  0
 28 29  1  0
 30 28  2  0
M  END
$$$$
