IWV.pdb
     RDKit          3D

 30 31  0  0  1  0  0  0  0  0999 V2000
    9.5937  -21.4330   20.0827 C   0  0  0  0  0  0  0  0  0  0  0  0
    9.3158  -20.0176   19.6823 C   0  0  0  0  0  0  0  0  0  0  0  0
    7.8195  -19.7114   19.6905 C   0  0  2  0  0  0  0  0  0  0  0  0
    7.1275  -20.6970   18.8135 C   0  0  0  0  0  0  0  0  0  0  0  0
    7.6859  -18.2739   19.2815 C   0  0  2  0  0  0  0  0  0  0  0  0
    8.3530  -18.1872   17.9685 N   0  0  0  0  0  0  0  0  0  0  0  0
    8.3645  -17.3335   20.2400 C   0  0  0  0  0  0  0  0  0  0  0  0
    9.5873  -17.1138   20.0684 O   0  0  0  0  0  0  0  0  0  0  0  0
    7.6779  -16.7209   21.2825 N   0  0  0  0  0  0  0  0  0  0  0  0
    8.3345  -15.7632   22.1995 C   0  0  1  0  0  0  0  0  0  0  0  0
    7.2623  -14.9137   22.7673 C   0  0  0  0  0  0  0  0  0  0  0  0
    7.7210  -13.8476   23.6701 C   0  0  0  0  0  0  0  0  0  0  0  0
    8.6854  -12.8868   23.4275 C   0  0  0  0  0  0  0  0  0  0  0  0
    8.7937  -12.1412   24.5393 N   0  0  0  0  0  0  0  0  0  0  0  0
    7.9329  -12.5957   25.4756 C   0  0  0  0  0  0  0  0  0  0  0  0
    7.6798  -12.1569   26.7722 C   0  0  0  0  0  0  0  0  0  0  0  0
    6.7234  -12.8364   27.5006 C   0  0  0  0  0  0  0  0  0  0  0  0
    6.0291  -13.9101   26.9933 C   0  0  0  0  0  0  0  0  0  0  0  0
    6.2939  -14.3281   25.7103 C   0  0  0  0  0  0  0  0  0  0  0  0
    7.2429  -13.6633   24.9705 C   0  0  0  0  0  0  0  0  0  0  0  0
    9.1725  -16.4946   23.1508 C   0  0  0  0  0  0  0  0  0  0  0  0
    8.6775  -17.5100   23.7367 O   0  0  0  0  0  0  0  0  0  0  0  0
   13.5720  -17.5400   25.0812 C   0  0  0  0  0  0  0  0  0  0  0  0
   12.7215  -16.7495   24.1279 C   0  0  1  0  0  0  0  0  0  0  0  0
   13.0009  -17.2776   22.7263 C   0  0  0  0  0  0  0  0  0  0  0  0
   11.2430  -16.9829   24.3882 C   0  0  2  0  0  0  0  0  0  0  0  0
   10.5175  -16.1390   23.4588 N   0  0  0  0  0  0  0  0  0  0  0  0
   10.9270  -16.6355   25.7792 C   0  0  0  0  0  0  0  0  0  0  0  0
   10.1091  -15.5536   26.0691 O   0  0  0  0  0  0  0  0  0  0  0  0
   11.3733  -17.2878   26.7490 O   0  0  0  0  0  0  0  0  0  0  0  0
  1  2  1  0
  2  3  1  0
  3  4  1  6
  5  3  1  0
  5  6  1  6
  7  9  1  0
  7  5  1  0
  8  7  2  0
 10  9  1  0
 10 11  1  1
 12 13  2  0
 12 11  1  0
 14 13  1  0
 15 20  2  0
 15 14  1  0
 16 15  1  0
 17 18  1  0
 17 16  2  0
 18 19  2  0
 19 20  1  0
 20 12  1  0
 21 10  1  0
 21 27  1  0
 22 21  2  0
 24 23  1  1
 24 26  1  0
 24 25  1  0
 26 27  1  6
 26 28  1  0
 28 29  1  0
 30 28  2  0
M  END
$$$$
