IWV.pdb
     RDKit          3D

 30 31  0  0  1  0  0  0  0  0999 V2000
   10.4010  -14.4326   16.9124 C   0  0  0  0  0  0  0  0  0  0  0  0
   10.1153  -15.5191   17.9018 C   0  0  0  0  0  0  0  0  0  0  0  0
    9.7915  -14.9543   19.2835 C   0  0  2  0  0  0  0  0  0  0  0  0
   10.9190  -14.0826   19.7172 C   0  0  0  0  0  0  0  0  0  0  0  0
    9.5119  -16.1378   20.1625 C   0  0  2  0  0  0  0  0  0  0  0  0
    8.4760  -16.9077   19.4478 N   0  0  0  0  0  0  0  0  0  0  0  0
    8.9845  -15.7431   21.5151 C   0  0  0  0  0  0  0  0  0  0  0  0
    8.0359  -14.9233   21.5506 O   0  0  0  0  0  0  0  0  0  0  0  0
    9.5155  -16.2577   22.6927 N   0  0  0  0  0  0  0  0  0  0  0  0
    9.0723  -15.7896   24.0244 C   0  0  1  0  0  0  0  0  0  0  0  0
    7.7532  -16.4134   24.2780 C   0  0  0  0  0  0  0  0  0  0  0  0
    6.7931  -15.5719   25.0076 C   0  0  0  0  0  0  0  0  0  0  0  0
    5.5069  -15.8956   25.3987 C   0  0  0  0  0  0  0  0  0  0  0  0
    4.9935  -14.8168   26.0121 N   0  0  0  0  0  0  0  0  0  0  0  0
    5.9083  -13.8232   26.0230 C   0  0  0  0  0  0  0  0  0  0  0  0
    5.8461  -12.5312   26.5374 C   0  0  0  0  0  0  0  0  0  0  0  0
    6.9635  -11.7326   26.3936 C   0  0  0  0  0  0  0  0  0  0  0  0
    8.1105  -12.1672   25.7708 C   0  0  0  0  0  0  0  0  0  0  0  0
    8.1518  -13.4469   25.2693 C   0  0  0  0  0  0  0  0  0  0  0  0
    7.0485  -14.2560   25.4036 C   0  0  0  0  0  0  0  0  0  0  0  0
   10.1255  -16.0467   25.0076 C   0  0  0  0  0  0  0  0  0  0  0  0
   10.9583  -16.9796   24.7718 O   0  0  0  0  0  0  0  0  0  0  0  0
   11.5305  -13.2919   27.6432 C   0  0  0  0  0  0  0  0  0  0  0  0
   11.3890  -14.6694   28.2257 C   0  0  1  0  0  0  0  0  0  0  0  0
   10.0516  -14.7185   28.9540 C   0  0  0  0  0  0  0  0  0  0  0  0
   11.3225  -15.7233   27.1335 C   0  0  2  0  0  0  0  0  0  0  0  0
   10.2783  -15.3088   26.2169 N   0  0  0  0  0  0  0  0  0  0  0  0
   11.0190  -17.0307   27.7285 C   0  0  0  0  0  0  0  0  0  0  0  0
   11.9954  -17.7402   28.4114 O   0  0  0  0  0  0  0  0  0  0  0  0
    9.8859  -17.5549   27.6479 O   0  0  0  0  0  0  0  0  0  0  0  0
  1  2  1  0
  2  3  1  0
  3  4  1  1
  5  3  1  0
  5  6  1  6
  7  9  1  0
  7  5  1  0
  8  7  2  0
 10  9  1  0
 10 11  1  1
 12 13  2  0
 12 11  1  0
 14 13  1  0
 15 20  2  0
 15 14  1  0
 16 15  1  0
 17 18  1  0
 17 16  2  0
 18 19  2  0
 19 20  1  0
 20 12  1  0
 21 10  1  0
 21 27  1  0
 22 21  2  0
 24 23  1  6
 24 26  1  0
 24 25  1  0
 26 27  1  6
 26 28  1  0
 28 29  1  0
 30 28  2  0
M  END
$$$$
