IHE.pdb
     RDKit          3D

 28 28  0  0  1  0  0  0  0  0999 V2000
   30.2517  -21.1860  -11.4994 C   0  0  0  0  0  0  0  0  0  0  0  0
   28.8354  -21.3151  -11.0668 C   0  0  0  0  0  0  0  0  0  0  0  0
   27.8695  -20.5494  -11.9167 C   0  0  2  0  0  0  0  0  0  0  0  0
   28.3589  -19.1392  -12.0682 C   0  0  0  0  0  0  0  0  0  0  0  0
   26.4754  -20.6636  -11.3396 C   0  0  2  0  0  0  0  0  0  0  0  0
   26.1928  -22.1291  -11.3063 N   0  0  0  0  0  0  0  0  0  0  0  0
   25.4948  -20.1409  -12.3211 C   0  0  0  0  0  0  0  0  0  0  0  0
   25.1600  -18.9614  -12.3064 O   0  0  0  0  0  0  0  0  0  0  0  0
   24.8817  -20.9403  -13.3380 N   0  0  0  0  0  0  0  0  0  0  0  0
   24.0478  -20.4826  -14.3784 C   0  0  1  0  0  0  0  0  0  0  0  0
   24.5244  -20.6277  -15.7753 C   0  0  0  0  0  0  0  0  0  0  0  0
   25.7229  -19.7612  -16.0216 C   0  0  0  0  0  0  0  0  0  0  0  0
   25.7317  -18.3844  -16.1389 C   0  0  0  0  0  0  0  0  0  0  0  0
   26.9788  -17.9294  -16.3570 N   0  0  0  0  0  0  0  0  0  0  0  0
   27.7871  -19.0269  -16.3815 C   0  0  0  0  0  0  0  0  0  0  0  0
   27.0242  -20.1257  -16.1790 N   0  0  0  0  0  0  0  0  0  0  0  0
   22.6849  -21.0458  -14.2380 C   0  0  0  0  0  0  0  0  0  0  0  0
   22.4355  -22.2396  -14.0075 O   0  0  0  0  0  0  0  0  0  0  0  0
   21.5483  -20.1807  -14.3720 N   0  0  0  0  0  0  0  0  0  0  0  0
   20.1651  -20.6645  -14.1964 C   0  0  1  0  0  0  0  0  0  0  0  0
   19.3378  -19.4502  -13.9003 C   0  0  0  0  0  0  0  0  0  0  0  0
   17.8779  -19.5971  -13.8115 C   0  0  0  0  0  0  0  0  0  0  0  0
   17.1396  -18.3595  -13.5917 C   0  0  0  0  0  0  0  0  0  0  0  0
   16.2190  -18.0143  -14.3862 O   0  0  0  0  0  0  0  0  0  0  0  0
   19.7583  -21.5479  -15.2590 C   0  0  0  0  0  0  0  0  0  0  0  0
   19.2572  -22.6841  -14.9848 O   0  0  0  0  0  0  0  0  0  0  0  0
   17.4227  -17.5361  -12.5079 O   0  0  0  0  0  0  0  0  0  0  0  0
   19.8719  -21.2298  -16.6016 O   0  0  0  0  0  0  0  0  0  0  0  0
  2  1  1  0
  3  2  1  0
  3  4  1  1
  5  7  1  0
  5  3  1  0
  5  6  1  6
  7  8  2  0
  9 10  1  0
  9  7  1  0
 10 11  1  6
 11 12  1  0
 12 13  2  0
 13 14  1  0
 15 14  1  0
 16 12  1  0
 16 15  2  0
 17 19  1  0
 17 10  1  0
 18 17  2  0
 20 19  1  0
 20 21  1  6
 22 21  1  0
 22 23  1  0
 23 24  2  0
 25 20  1  0
 26 25  2  0
 27 23  1  0
 28 25  1  0
M  END
$$$$
