IHE.pdb
     RDKit          3D

 28 28  0  0  1  0  0  0  0  0999 V2000
   24.0008  -14.7849  -20.6068 C   0  0  0  0  0  0  0  0  0  0  0  0
   24.8075  -15.4128  -19.5276 C   0  0  0  0  0  0  0  0  0  0  0  0
   24.1674  -16.6206  -18.9167 C   0  0  2  0  0  0  0  0  0  0  0  0
   22.7431  -16.3003  -18.5708 C   0  0  0  0  0  0  0  0  0  0  0  0
   24.9962  -17.1045  -17.7468 C   0  0  2  0  0  0  0  0  0  0  0  0
   26.3131  -17.4824  -18.3398 N   0  0  0  0  0  0  0  0  0  0  0  0
   24.4496  -18.3936  -17.2594 C   0  0  0  0  0  0  0  0  0  0  0  0
   24.0751  -19.2547  -18.0479 O   0  0  0  0  0  0  0  0  0  0  0  0
   24.3232  -18.7328  -15.8744 N   0  0  0  0  0  0  0  0  0  0  0  0
   23.7144  -19.8884  -15.3442 C   0  0  1  0  0  0  0  0  0  0  0  0
   24.5584  -20.8381  -14.5791 C   0  0  0  0  0  0  0  0  0  0  0  0
   25.7995  -21.1843  -15.3458 C   0  0  0  0  0  0  0  0  0  0  0  0
   27.0553  -20.6357  -15.1681 C   0  0  0  0  0  0  0  0  0  0  0  0
   27.9404  -21.1759  -16.0251 N   0  0  0  0  0  0  0  0  0  0  0  0
   27.2475  -22.0857  -16.7671 C   0  0  0  0  0  0  0  0  0  0  0  0
   25.9597  -22.0851  -16.3527 N   0  0  0  0  0  0  0  0  0  0  0  0
   22.5073  -19.5288  -14.5646 C   0  0  0  0  0  0  0  0  0  0  0  0
   22.5122  -18.8279  -13.5403 O   0  0  0  0  0  0  0  0  0  0  0  0
   21.2242  -20.0066  -14.9932 N   0  0  0  0  0  0  0  0  0  0  0  0
   19.9746  -19.6378  -14.2999 C   0  0  1  0  0  0  0  0  0  0  0  0
   18.8939  -19.6996  -15.3367 C   0  0  0  0  0  0  0  0  0  0  0  0
   17.5137  -19.3930  -14.9346 C   0  0  0  0  0  0  0  0  0  0  0  0
   16.4992  -19.6397  -15.9519 C   0  0  0  0  0  0  0  0  0  0  0  0
   16.8212  -20.1353  -17.0693 O   0  0  0  0  0  0  0  0  0  0  0  0
   19.8035  -20.3598  -13.0651 C   0  0  0  0  0  0  0  0  0  0  0  0
   20.2384  -21.5500  -12.9588 O   0  0  0  0  0  0  0  0  0  0  0  0
   15.1608  -19.3442  -15.7193 O   0  0  0  0  0  0  0  0  0  0  0  0
   19.1853  -19.8251  -11.9478 O   0  0  0  0  0  0  0  0  0  0  0  0
  2  1  1  0
  3  2  1  0
  3  4  1  1
  5  7  1  0
  5  3  1  0
  5  6  1  6
  7  8  2  0
  9 10  1  0
  9  7  1  0
 10 11  1  1
 11 12  1  0
 12 13  2  0
 13 14  1  0
 15 14  1  0
 16 12  1  0
 16 15  2  0
 17 19  1  0
 17 10  1  0
 18 17  2  0
 20 19  1  0
 20 21  1  6
 22 21  1  0
 22 23  1  0
 23 24  2  0
 25 20  1  0
 26 25  2  0
 27 23  1  0
 28 25  1  0
M  END
$$$$
