IHE.pdb
     RDKit          3D

 28 28  0  0  1  0  0  0  0  0999 V2000
   20.1880  -14.9498    1.5816 C   0  0  0  0  0  0  0  0  0  0  0  0
   18.8237  -15.0496    2.1633 C   0  0  0  0  0  0  0  0  0  0  0  0
   18.7689  -15.8054    3.4545 C   0  0  2  0  0  0  0  0  0  0  0  0
   19.2807  -17.1979    3.2311 C   0  0  0  0  0  0  0  0  0  0  0  0
   17.3696  -15.7431    4.0269 C   0  0  2  0  0  0  0  0  0  0  0  0
   17.0997  -14.2880    4.2229 N   0  0  0  0  0  0  0  0  0  0  0  0
   17.3802  -16.2855    5.4067 C   0  0  0  0  0  0  0  0  0  0  0  0
   17.9997  -15.7174    6.2995 O   0  0  0  0  0  0  0  0  0  0  0  0
   16.6866  -17.4740    5.8011 N   0  0  0  0  0  0  0  0  0  0  0  0
   16.7052  -18.0740    7.0766 C   0  0  1  0  0  0  0  0  0  0  0  0
   15.4667  -18.7301    7.5615 C   0  0  0  0  0  0  0  0  0  0  0  0
   14.3868  -17.7180    7.8013 C   0  0  0  0  0  0  0  0  0  0  0  0
   14.5643  -16.3988    8.1721 C   0  0  0  0  0  0  0  0  0  0  0  0
   13.3804  -15.7731    8.3008 N   0  0  0  0  0  0  0  0  0  0  0  0
   12.4245  -16.7004    8.0097 C   0  0  0  0  0  0  0  0  0  0  0  0
   13.0377  -17.8686    7.7102 N   0  0  0  0  0  0  0  0  0  0  0  0
   17.8586  -18.9950    7.2011 C   0  0  0  0  0  0  0  0  0  0  0  0
   18.3567  -19.6327    6.2599 O   0  0  0  0  0  0  0  0  0  0  0  0
   18.4692  -19.1892    8.4847 N   0  0  0  0  0  0  0  0  0  0  0  0
   19.6274  -20.0831    8.6789 C   0  0  1  0  0  0  0  0  0  0  0  0
   20.4805  -19.4315    9.7250 C   0  0  0  0  0  0  0  0  0  0  0  0
   21.6805  -20.1380   10.1957 C   0  0  0  0  0  0  0  0  0  0  0  0
   22.4308  -19.4600   11.2456 C   0  0  0  0  0  0  0  0  0  0  0  0
   23.4716  -18.8003   10.9637 O   0  0  0  0  0  0  0  0  0  0  0  0
   19.2315  -21.4571    8.8532 C   0  0  0  0  0  0  0  0  0  0  0  0
   19.8660  -22.3826    8.2549 O   0  0  0  0  0  0  0  0  0  0  0  0
   22.0212  -19.5161   12.5729 O   0  0  0  0  0  0  0  0  0  0  0  0
   18.1784  -21.8514    9.6607 O   0  0  0  0  0  0  0  0  0  0  0  0
  2  1  1  0
  3  2  1  0
  3  4  1  6
  5  7  1  0
  5  3  1  0
  5  6  1  1
  7  8  2  0
  9 10  1  0
  9  7  1  0
 10 11  1  6
 11 12  1  0
 12 13  2  0
 13 14  1  0
 15 14  1  0
 16 12  1  0
 16 15  2  0
 17 19  1  0
 17 10  1  0
 18 17  2  0
 20 19  1  0
 20 21  1  1
 22 21  1  0
 22 23  1  0
 23 24  2  0
 25 20  1  0
 26 25  2  0
 27 23  1  0
 28 25  1  0
M  END
$$$$
