IHE.pdb
     RDKit          3D

 28 28  0  0  1  0  0  0  0  0999 V2000
   29.0666  -19.5471  -12.7512 C   0  0  0  0  0  0  0  0  0  0  0  0
   27.7541  -20.2441  -12.7890 C   0  0  0  0  0  0  0  0  0  0  0  0
   27.1735  -20.5175  -11.4363 C   0  0  2  0  0  0  0  0  0  0  0  0
   28.2060  -21.1979  -10.5866 C   0  0  0  0  0  0  0  0  0  0  0  0
   25.8804  -21.2902  -11.5793 C   0  0  2  0  0  0  0  0  0  0  0  0
   26.1990  -22.3995  -12.5261 N   0  0  0  0  0  0  0  0  0  0  0  0
   24.8977  -20.4668  -12.3238 C   0  0  0  0  0  0  0  0  0  0  0  0
   24.3620  -19.4985  -11.7955 O   0  0  0  0  0  0  0  0  0  0  0  0
   24.5092  -20.7202  -13.6781 N   0  0  0  0  0  0  0  0  0  0  0  0
   23.6130  -19.9558  -14.4526 C   0  0  1  0  0  0  0  0  0  0  0  0
   23.9533  -19.7025  -15.8737 C   0  0  0  0  0  0  0  0  0  0  0  0
   25.0506  -18.6869  -15.9856 C   0  0  0  0  0  0  0  0  0  0  0  0
   25.5370  -17.8870  -14.9692 C   0  0  0  0  0  0  0  0  0  0  0  0
   26.5231  -17.0890  -15.4170 N   0  0  0  0  0  0  0  0  0  0  0  0
   26.6760  -17.3764  -16.7407 C   0  0  0  0  0  0  0  0  0  0  0  0
   25.7863  -18.3390  -17.0758 N   0  0  0  0  0  0  0  0  0  0  0  0
   22.2381  -20.4955  -14.3404 C   0  0  0  0  0  0  0  0  0  0  0  0
   21.9621  -21.6956  -14.1849 O   0  0  0  0  0  0  0  0  0  0  0  0
   21.1213  -19.5979  -14.4125 N   0  0  0  0  0  0  0  0  0  0  0  0
   19.7247  -20.0737  -14.3756 C   0  0  1  0  0  0  0  0  0  0  0  0
   18.9665  -19.0649  -13.5668 C   0  0  0  0  0  0  0  0  0  0  0  0
   17.5139  -19.2312  -13.4158 C   0  0  0  0  0  0  0  0  0  0  0  0
   16.6992  -18.4805  -14.3632 C   0  0  0  0  0  0  0  0  0  0  0  0
   16.0033  -19.0853  -15.2280 O   0  0  0  0  0  0  0  0  0  0  0  0
   19.2374  -20.4336  -15.6825 C   0  0  0  0  0  0  0  0  0  0  0  0
   18.7183  -21.5785  -15.8747 O   0  0  0  0  0  0  0  0  0  0  0  0
   16.6621  -17.0910  -14.3368 O   0  0  0  0  0  0  0  0  0  0  0  0
   19.2900  -19.5869  -16.7766 O   0  0  0  0  0  0  0  0  0  0  0  0
  2  1  1  0
  3  2  1  0
  3  4  1  1
  5  7  1  0
  5  3  1  0
  5  6  1  6
  7  8  2  0
  9 10  1  0
  9  7  1  0
 10 11  1  6
 11 12  1  0
 12 13  2  0
 13 14  1  0
 15 14  1  0
 16 12  1  0
 16 15  2  0
 17 19  1  0
 17 10  1  0
 18 17  2  0
 20 19  1  0
 20 21  1  6
 22 21  1  0
 22 23  1  0
 23 24  2  0
 25 20  1  0
 26 25  2  0
 27 23  1  0
 28 25  1  0
M  END
$$$$
