IHE.pdb
     RDKit          3D

 28 28  0  0  1  0  0  0  0  0999 V2000
   14.5364  -12.9084  -18.1905 C   0  0  0  0  0  0  0  0  0  0  0  0
   15.8594  -13.0972  -17.5397 C   0  0  0  0  0  0  0  0  0  0  0  0
   16.4598  -11.8328  -17.0083 C   0  0  2  0  0  0  0  0  0  0  0  0
   16.6236  -10.8552  -18.1346 C   0  0  0  0  0  0  0  0  0  0  0  0
   17.7411  -12.1450  -16.2665 C   0  0  2  0  0  0  0  0  0  0  0  0
   17.3215  -13.0063  -15.1217 N   0  0  0  0  0  0  0  0  0  0  0  0
   18.2407  -10.9122  -15.6116 C   0  0  0  0  0  0  0  0  0  0  0  0
   17.6212  -10.3978  -14.6869 O   0  0  0  0  0  0  0  0  0  0  0  0
   19.4503  -10.2450  -15.9865 N   0  0  0  0  0  0  0  0  0  0  0  0
   19.9357   -9.0286  -15.4648 C   0  0  1  0  0  0  0  0  0  0  0  0
   21.3976   -8.8871  -15.2588 C   0  0  0  0  0  0  0  0  0  0  0  0
   21.7259   -7.5444  -14.6779 C   0  0  0  0  0  0  0  0  0  0  0  0
   21.6887   -7.1957  -13.3412 C   0  0  0  0  0  0  0  0  0  0  0  0
   22.0437   -5.9094  -13.1709 N   0  0  0  0  0  0  0  0  0  0  0  0
   22.3136   -5.4196  -14.4142 C   0  0  0  0  0  0  0  0  0  0  0  0
   22.1200   -6.4094  -15.3160 N   0  0  0  0  0  0  0  0  0  0  0  0
   19.4121   -7.8829  -16.2442 C   0  0  0  0  0  0  0  0  0  0  0  0
   19.3798   -7.8292  -17.4838 O   0  0  0  0  0  0  0  0  0  0  0  0
   18.8980   -6.7365  -15.5517 N   0  0  0  0  0  0  0  0  0  0  0  0
   18.4313   -5.5305  -16.2629 C   0  0  1  0  0  0  0  0  0  0  0  0
   16.9438   -5.4944  -16.0816 C   0  0  0  0  0  0  0  0  0  0  0  0
   16.2072   -4.3069  -16.5378 C   0  0  0  0  0  0  0  0  0  0  0  0
   14.7549   -4.4319  -16.5252 C   0  0  0  0  0  0  0  0  0  0  0  0
   14.2073   -5.4837  -16.0872 O   0  0  0  0  0  0  0  0  0  0  0  0
   19.2071   -4.3648  -15.9251 C   0  0  0  0  0  0  0  0  0  0  0  0
   19.2789   -3.3907  -16.7395 O   0  0  0  0  0  0  0  0  0  0  0  0
   13.9406   -3.4034  -16.9855 O   0  0  0  0  0  0  0  0  0  0  0  0
   19.8951   -4.2253  -14.7318 O   0  0  0  0  0  0  0  0  0  0  0  0
  2  1  1  0
  3  2  1  0
  3  4  1  6
  5  7  1  0
  5  3  1  0
  5  6  1  1
  7  8  2  0
  9 10  1  0
  9  7  1  0
 10 11  1  6
 11 12  1  0
 12 13  2  0
 13 14  1  0
 15 14  1  0
 16 12  1  0
 16 15  2  0
 17 19  1  0
 17 10  1  0
 18 17  2  0
 20 19  1  0
 20 21  1  1
 22 21  1  0
 22 23  1  0
 23 24  2  0
 25 20  1  0
 26 25  2  0
 27 23  1  0
 28 25  1  0
M  END
$$$$
