IHE.pdb
     RDKit          3D

 28 28  0  0  1  0  0  0  0  0999 V2000
   22.8066  -20.0806  -16.2871 C   0  0  0  0  0  0  0  0  0  0  0  0
   22.1258  -18.9107  -16.9016 C   0  0  0  0  0  0  0  0  0  0  0  0
   21.9470  -17.7539  -15.9681 C   0  0  2  0  0  0  0  0  0  0  0  0
   21.3096  -18.2397  -14.6997 C   0  0  0  0  0  0  0  0  0  0  0  0
   21.1831  -16.6475  -16.6621 C   0  0  2  0  0  0  0  0  0  0  0  0
   21.5588  -16.7665  -18.1020 N   0  0  0  0  0  0  0  0  0  0  0  0
   21.7474  -15.3364  -16.2610 C   0  0  0  0  0  0  0  0  0  0  0  0
   21.6451  -14.9360  -15.1065 O   0  0  0  0  0  0  0  0  0  0  0  0
   22.4411  -14.4602  -17.1554 N   0  0  0  0  0  0  0  0  0  0  0  0
   22.9478  -13.1798  -16.8535 C   0  0  1  0  0  0  0  0  0  0  0  0
   24.3612  -12.8863  -17.1936 C   0  0  0  0  0  0  0  0  0  0  0  0
   25.2787  -13.8991  -16.5767 C   0  0  0  0  0  0  0  0  0  0  0  0
   25.7572  -13.8929  -15.2805 C   0  0  0  0  0  0  0  0  0  0  0  0
   26.5576  -14.9514  -15.0595 N   0  0  0  0  0  0  0  0  0  0  0  0
   26.5972  -15.6511  -16.2287 C   0  0  0  0  0  0  0  0  0  0  0  0
   25.8252  -15.0118  -17.1372 N   0  0  0  0  0  0  0  0  0  0  0  0
   22.0581  -12.1273  -17.3965 C   0  0  0  0  0  0  0  0  0  0  0  0
   21.3714  -12.2453  -18.4238 O   0  0  0  0  0  0  0  0  0  0  0  0
   21.9574  -10.8694  -16.7142 N   0  0  0  0  0  0  0  0  0  0  0  0
   20.7947   -9.9753  -16.8780 C   0  0  1  0  0  0  0  0  0  0  0  0
   19.5852  -10.8166  -16.6026 C   0  0  0  0  0  0  0  0  0  0  0  0
   18.2618  -10.1772  -16.6275 C   0  0  0  0  0  0  0  0  0  0  0  0
   17.1464  -11.0395  -16.2569 C   0  0  0  0  0  0  0  0  0  0  0  0
   17.3490  -12.2458  -15.9380 O   0  0  0  0  0  0  0  0  0  0  0  0
   20.9599   -8.7320  -16.1695 C   0  0  0  0  0  0  0  0  0  0  0  0
   21.8708   -8.6176  -15.2896 O   0  0  0  0  0  0  0  0  0  0  0  0
   15.8417  -10.5597  -16.2390 O   0  0  0  0  0  0  0  0  0  0  0  0
   20.1741   -7.6147  -16.3951 O   0  0  0  0  0  0  0  0  0  0  0  0
  2  1  1  0
  3  2  1  0
  3  4  1  1
  5  7  1  0
  5  3  1  0
  5  6  1  6
  7  8  2  0
  9 10  1  0
  9  7  1  0
 10 11  1  6
 11 12  1  0
 12 13  2  0
 13 14  1  0
 15 14  1  0
 16 12  1  0
 16 15  2  0
 17 19  1  0
 17 10  1  0
 18 17  2  0
 20 19  1  0
 20 21  1  1
 22 21  1  0
 22 23  1  0
 23 24  2  0
 25 20  1  0
 26 25  2  0
 27 23  1  0
 28 25  1  0
M  END
$$$$
