IHE.pdb
     RDKit          3D

 28 28  0  0  1  0  0  0  0  0999 V2000
   35.6787  -36.9568   -5.1625 C   0  0  0  0  0  0  0  0  0  0  0  0
   34.5268  -36.6904   -6.0635 C   0  0  0  0  0  0  0  0  0  0  0  0
   33.3214  -36.1460   -5.3618 C   0  0  2  0  0  0  0  0  0  0  0  0
   32.9424  -37.0731   -4.2448 C   0  0  0  0  0  0  0  0  0  0  0  0
   32.2145  -35.8952   -6.3625 C   0  0  2  0  0  0  0  0  0  0  0  0
   32.7550  -34.8470   -7.2778 N   0  0  0  0  0  0  0  0  0  0  0  0
   31.0846  -35.2170   -5.6832 C   0  0  0  0  0  0  0  0  0  0  0  0
   31.1986  -34.0676   -5.2715 O   0  0  0  0  0  0  0  0  0  0  0  0
   29.8068  -35.8237   -5.4637 N   0  0  0  0  0  0  0  0  0  0  0  0
   28.7026  -35.2438   -4.8067 C   0  0  1  0  0  0  0  0  0  0  0  0
   27.3714  -35.3399   -5.4533 C   0  0  0  0  0  0  0  0  0  0  0  0
   27.3305  -34.5251   -6.7113 C   0  0  0  0  0  0  0  0  0  0  0  0
   28.3418  -33.7228   -7.2042 C   0  0  0  0  0  0  0  0  0  0  0  0
   27.9698  -33.1351   -8.3556 N   0  0  0  0  0  0  0  0  0  0  0  0
   26.7008  -33.5628   -8.6104 C   0  0  0  0  0  0  0  0  0  0  0  0
   26.3227  -34.3990   -7.6164 N   0  0  0  0  0  0  0  0  0  0  0  0
   28.6284  -35.7117   -3.4032 C   0  0  0  0  0  0  0  0  0  0  0  0
   28.7593  -36.8932   -3.0458 O   0  0  0  0  0  0  0  0  0  0  0  0
   28.3894  -34.7610   -2.3557 N   0  0  0  0  0  0  0  0  0  0  0  0
   28.1488  -35.1720   -0.9588 C   0  0  1  0  0  0  0  0  0  0  0  0
   29.4701  -35.0551   -0.2609 C   0  0  0  0  0  0  0  0  0  0  0  0
   29.9390  -36.1854    0.5535 C   0  0  0  0  0  0  0  0  0  0  0  0
   31.2299  -35.9923    1.2025 C   0  0  0  0  0  0  0  0  0  0  0  0
   32.2856  -36.4435    0.6736 O   0  0  0  0  0  0  0  0  0  0  0  0
   26.9960  -34.5212   -0.3908 C   0  0  0  0  0  0  0  0  0  0  0  0
   26.4824  -33.5144   -0.9736 O   0  0  0  0  0  0  0  0  0  0  0  0
   31.3334  -35.3070    2.4078 O   0  0  0  0  0  0  0  0  0  0  0  0
   26.3848  -34.9363    0.7800 O   0  0  0  0  0  0  0  0  0  0  0  0
  2  1  1  0
  3  2  1  0
  3  4  1  1
  5  7  1  0
  5  3  1  0
  5  6  1  6
  7  8  2  0
  9 10  1  0
  9  7  1  0
 10 11  1  6
 11 12  1  0
 12 13  2  0
 13 14  1  0
 15 14  1  0
 16 12  1  0
 16 15  2  0
 17 19  1  0
 17 10  1  0
 18 17  2  0
 20 19  1  0
 20 21  1  1
 22 21  1  0
 22 23  1  0
 23 24  2  0
 25 20  1  0
 26 25  2  0
 27 23  1  0
 28 25  1  0
M  END
$$$$
