IHE.pdb
     RDKit          3D

 28 28  0  0  1  0  0  0  0  0999 V2000
   25.8515  -24.5789  -13.6316 C   0  0  0  0  0  0  0  0  0  0  0  0
   24.8286  -23.7802  -12.9066 C   0  0  0  0  0  0  0  0  0  0  0  0
   24.6911  -22.3752  -13.4052 C   0  0  2  0  0  0  0  0  0  0  0  0
   24.5382  -22.3960  -14.8976 C   0  0  0  0  0  0  0  0  0  0  0  0
   25.8521  -21.5395  -12.9121 C   0  0  2  0  0  0  0  0  0  0  0  0
   25.6907  -21.4959  -11.4286 N   0  0  0  0  0  0  0  0  0  0  0  0
   25.6521  -20.1302  -13.3269 C   0  0  0  0  0  0  0  0  0  0  0  0
   24.7275  -19.4668  -12.8701 O   0  0  0  0  0  0  0  0  0  0  0  0
   26.4963  -19.4463  -14.2589 N   0  0  0  0  0  0  0  0  0  0  0  0
   26.2817  -18.1639  -14.8034 C   0  0  1  0  0  0  0  0  0  0  0  0
   27.4327  -17.4627  -15.4224 C   0  0  0  0  0  0  0  0  0  0  0  0
   27.0262  -16.1076  -15.9189 C   0  0  0  0  0  0  0  0  0  0  0  0
   27.0825  -15.6597  -17.2249 C   0  0  0  0  0  0  0  0  0  0  0  0
   26.6397  -14.3927  -17.3171 N   0  0  0  0  0  0  0  0  0  0  0  0
   26.2929  -14.0163  -16.0536 C   0  0  0  0  0  0  0  0  0  0  0  0
   26.5283  -15.0535  -15.2175 N   0  0  0  0  0  0  0  0  0  0  0  0
   25.1282  -18.1800  -15.7325 C   0  0  0  0  0  0  0  0  0  0  0  0
   24.9825  -18.9896  -16.6620 O   0  0  0  0  0  0  0  0  0  0  0  0
   24.0862  -17.2060  -15.5782 N   0  0  0  0  0  0  0  0  0  0  0  0
   22.9154  -17.1561  -16.4754 C   0  0  1  0  0  0  0  0  0  0  0  0
   21.7237  -16.9582  -15.5880 C   0  0  0  0  0  0  0  0  0  0  0  0
   20.4123  -16.7277  -16.2107 C   0  0  0  0  0  0  0  0  0  0  0  0
   19.3389  -17.5951  -15.7413 C   0  0  0  0  0  0  0  0  0  0  0  0
   19.6052  -18.6984  -15.1848 O   0  0  0  0  0  0  0  0  0  0  0  0
   23.1185  -16.2618  -17.5862 C   0  0  0  0  0  0  0  0  0  0  0  0
   23.1309  -16.7157  -18.7741 O   0  0  0  0  0  0  0  0  0  0  0  0
   18.0049  -17.2316  -15.8871 O   0  0  0  0  0  0  0  0  0  0  0  0
   23.2984  -14.8965  -17.4439 O   0  0  0  0  0  0  0  0  0  0  0  0
  2  1  1  0
  3  2  1  0
  3  4  1  6
  5  7  1  0
  5  3  1  0
  5  6  1  1
  7  8  2  0
  9 10  1  0
  9  7  1  0
 10 11  1  6
 11 12  1  0
 12 13  2  0
 13 14  1  0
 15 14  1  0
 16 12  1  0
 16 15  2  0
 17 19  1  0
 17 10  1  0
 18 17  2  0
 20 19  1  0
 20 21  1  1
 22 21  1  0
 22 23  1  0
 23 24  2  0
 25 20  1  0
 26 25  2  0
 27 23  1  0
 28 25  1  0
M  END
$$$$
