IHE.pdb
     RDKit          3D

 28 28  0  0  1  0  0  0  0  0999 V2000
   23.8179  -16.1593  -15.5675 C   0  0  0  0  0  0  0  0  0  0  0  0
   22.6984  -15.2200  -15.2951 C   0  0  0  0  0  0  0  0  0  0  0  0
   22.9100  -13.8466  -15.8523 C   0  0  2  0  0  0  0  0  0  0  0  0
   24.2154  -13.3067  -15.3468 C   0  0  0  0  0  0  0  0  0  0  0  0
   21.7143  -12.9747  -15.5369 C   0  0  2  0  0  0  0  0  0  0  0  0
   20.5474  -13.6960  -16.1258 N   0  0  0  0  0  0  0  0  0  0  0  0
   21.7932  -11.7277  -16.3349 C   0  0  0  0  0  0  0  0  0  0  0  0
   22.6251  -10.8660  -16.0721 O   0  0  0  0  0  0  0  0  0  0  0  0
   20.9384  -11.4371  -17.4457 N   0  0  0  0  0  0  0  0  0  0  0  0
   20.9052  -10.2406  -18.1904 C   0  0  1  0  0  0  0  0  0  0  0  0
   20.2062  -10.2472  -19.4984 C   0  0  0  0  0  0  0  0  0  0  0  0
   20.9765  -11.0421  -20.5098 C   0  0  0  0  0  0  0  0  0  0  0  0
   22.2282  -11.6009  -20.3357 C   0  0  0  0  0  0  0  0  0  0  0  0
   22.6233  -12.2483  -21.4468 N   0  0  0  0  0  0  0  0  0  0  0  0
   21.6136  -12.1057  -22.3515 C   0  0  0  0  0  0  0  0  0  0  0  0
   20.6259  -11.3786  -21.7805 N   0  0  0  0  0  0  0  0  0  0  0  0
   20.4192   -9.1200  -17.3524 C   0  0  0  0  0  0  0  0  0  0  0  0
   19.5440   -9.2212  -16.4780 O   0  0  0  0  0  0  0  0  0  0  0  0
   20.9758   -7.8106  -17.5359 N   0  0  0  0  0  0  0  0  0  0  0  0
   20.5746   -6.6602  -16.7029 C   0  0  1  0  0  0  0  0  0  0  0  0
   21.4626   -6.6953  -15.4958 C   0  0  0  0  0  0  0  0  0  0  0  0
   21.3557   -5.6094  -14.5109 C   0  0  0  0  0  0  0  0  0  0  0  0
   22.2785   -5.6959  -13.3858 C   0  0  0  0  0  0  0  0  0  0  0  0
   23.1775   -4.8215  -13.2273 O   0  0  0  0  0  0  0  0  0  0  0  0
   20.4774   -5.4426  -17.4665 C   0  0  0  0  0  0  0  0  0  0  0  0
   19.8152   -4.4572  -17.0107 O   0  0  0  0  0  0  0  0  0  0  0  0
   22.1910   -6.7311  -12.4619 O   0  0  0  0  0  0  0  0  0  0  0  0
   21.0826   -5.2641  -18.6987 O   0  0  0  0  0  0  0  0  0  0  0  0
  2  1  1  0
  3  2  1  0
  3  4  1  1
  5  7  1  0
  5  3  1  0
  5  6  1  6
  7  8  2  0
  9 10  1  0
  9  7  1  0
 10 11  1  6
 11 12  1  0
 12 13  2  0
 13 14  1  0
 15 14  1  0
 16 12  1  0
 16 15  2  0
 17 19  1  0
 17 10  1  0
 18 17  2  0
 20 19  1  0
 20 21  1  1
 22 21  1  0
 22 23  1  0
 23 24  2  0
 25 20  1  0
 26 25  2  0
 27 23  1  0
 28 25  1  0
M  END
$$$$
