IHE.pdb
     RDKit          3D

 28 28  0  0  1  0  0  0  0  0999 V2000
   29.1104  -21.2022   -9.2655 C   0  0  0  0  0  0  0  0  0  0  0  0
   28.9622  -21.2991  -10.7415 C   0  0  0  0  0  0  0  0  0  0  0  0
   27.6685  -20.7506  -11.2583 C   0  0  2  0  0  0  0  0  0  0  0  0
   26.5303  -21.4694  -10.5961 C   0  0  0  0  0  0  0  0  0  0  0  0
   27.6496  -20.8182  -12.7698 C   0  0  2  0  0  0  0  0  0  0  0  0
   28.8355  -20.0224  -13.2044 N   0  0  0  0  0  0  0  0  0  0  0  0
   26.4980  -20.0365  -13.2806 C   0  0  0  0  0  0  0  0  0  0  0  0
   26.3513  -18.8595  -12.9699 O   0  0  0  0  0  0  0  0  0  0  0  0
   25.4978  -20.5699  -14.1549 N   0  0  0  0  0  0  0  0  0  0  0  0
   24.3707  -19.8885  -14.6575 C   0  0  1  0  0  0  0  0  0  0  0  0
   24.2866  -19.6539  -16.1194 C   0  0  0  0  0  0  0  0  0  0  0  0
   25.3980  -18.7590  -16.5798 C   0  0  0  0  0  0  0  0  0  0  0  0
   26.3831  -18.1985  -15.7893 C   0  0  0  0  0  0  0  0  0  0  0  0
   27.2213  -17.4484  -16.5270 N   0  0  0  0  0  0  0  0  0  0  0  0
   26.7720  -17.5246  -17.8118 C   0  0  0  0  0  0  0  0  0  0  0  0
   25.6743  -18.3150  -17.8358 N   0  0  0  0  0  0  0  0  0  0  0  0
   23.1222  -20.5143  -14.1636 C   0  0  0  0  0  0  0  0  0  0  0  0
   23.0226  -21.6960  -13.7974 O   0  0  0  0  0  0  0  0  0  0  0  0
   21.9231  -19.7302  -14.0897 N   0  0  0  0  0  0  0  0  0  0  0  0
   20.6548  -20.2775  -13.5700 C   0  0  1  0  0  0  0  0  0  0  0  0
   19.7564  -19.0982  -13.3489 C   0  0  0  0  0  0  0  0  0  0  0  0
   18.3873  -19.3358  -12.8696 C   0  0  0  0  0  0  0  0  0  0  0  0
   17.5393  -18.1524  -12.7951 C   0  0  0  0  0  0  0  0  0  0  0  0
   17.9833  -17.0239  -13.1520 O   0  0  0  0  0  0  0  0  0  0  0  0
   20.1766  -21.3851  -14.3572 C   0  0  0  0  0  0  0  0  0  0  0  0
   20.3803  -21.4082  -15.6123 O   0  0  0  0  0  0  0  0  0  0  0  0
   16.2286  -18.2345  -12.3387 O   0  0  0  0  0  0  0  0  0  0  0  0
   19.4959  -22.4648  -13.8211 O   0  0  0  0  0  0  0  0  0  0  0  0
  2  1  1  0
  3  2  1  0
  3  4  1  1
  5  7  1  0
  5  3  1  0
  5  6  1  6
  7  8  2  0
  9 10  1  0
  9  7  1  0
 10 11  1  6
 11 12  1  0
 12 13  2  0
 13 14  1  0
 15 14  1  0
 16 12  1  0
 16 15  2  0
 17 19  1  0
 17 10  1  0
 18 17  2  0
 20 19  1  0
 20 21  1  6
 22 21  1  0
 22 23  1  0
 23 24  2  0
 25 20  1  0
 26 25  2  0
 27 23  1  0
 28 25  1  0
M  END
$$$$
