IHE.pdb
     RDKit          3D

 28 28  0  0  1  0  0  0  0  0999 V2000
   14.0673  -12.3837  -19.1264 C   0  0  0  0  0  0  0  0  0  0  0  0
   15.3801  -12.5981  -18.4627 C   0  0  0  0  0  0  0  0  0  0  0  0
   15.9306  -11.3745  -17.7983 C   0  0  2  0  0  0  0  0  0  0  0  0
   16.1321  -10.3036  -18.8295 C   0  0  0  0  0  0  0  0  0  0  0  0
   17.1791  -11.7302  -17.0211 C   0  0  2  0  0  0  0  0  0  0  0  0
   16.7098  -12.6447  -15.9385 N   0  0  0  0  0  0  0  0  0  0  0  0
   17.6557  -10.5341  -16.2858 C   0  0  0  0  0  0  0  0  0  0  0  0
   16.9595  -10.0087  -15.4239 O   0  0  0  0  0  0  0  0  0  0  0  0
   18.9279   -9.9167  -16.5079 N   0  0  0  0  0  0  0  0  0  0  0  0
   19.3588   -8.6737  -16.0015 C   0  0  1  0  0  0  0  0  0  0  0  0
   20.7978   -8.5060  -15.6840 C   0  0  0  0  0  0  0  0  0  0  0  0
   21.0575   -7.1553  -15.0872 C   0  0  0  0  0  0  0  0  0  0  0  0
   20.1198   -6.1697  -14.8448 C   0  0  0  0  0  0  0  0  0  0  0  0
   20.6960   -5.0826  -14.3009 N   0  0  0  0  0  0  0  0  0  0  0  0
   22.0243   -5.3690  -14.1907 C   0  0  0  0  0  0  0  0  0  0  0  0
   22.2343   -6.6181  -14.6660 N   0  0  0  0  0  0  0  0  0  0  0  0
   18.8907   -7.5683  -16.8694 C   0  0  0  0  0  0  0  0  0  0  0  0
   19.0728   -7.5089  -18.0957 O   0  0  0  0  0  0  0  0  0  0  0  0
   18.1728   -6.4713  -16.2867 N   0  0  0  0  0  0  0  0  0  0  0  0
   17.7649   -5.2906  -17.0727 C   0  0  1  0  0  0  0  0  0  0  0  0
   16.3332   -5.0304  -16.7133 C   0  0  0  0  0  0  0  0  0  0  0  0
   15.6616   -3.8607  -17.2978 C   0  0  0  0  0  0  0  0  0  0  0  0
   14.2860   -3.6507  -16.8635 C   0  0  0  0  0  0  0  0  0  0  0  0
   13.7934   -4.3550  -15.9365 O   0  0  0  0  0  0  0  0  0  0  0  0
   18.7187   -4.2156  -16.9751 C   0  0  0  0  0  0  0  0  0  0  0  0
   18.7477   -3.3083  -17.8656 O   0  0  0  0  0  0  0  0  0  0  0  0
   13.4883   -2.6741  -17.4489 O   0  0  0  0  0  0  0  0  0  0  0  0
   19.6297   -4.0951  -15.9396 O   0  0  0  0  0  0  0  0  0  0  0  0
  2  1  1  0
  3  2  1  0
  3  4  1  6
  5  7  1  0
  5  3  1  0
  5  6  1  1
  7  8  2  0
  9 10  1  0
  9  7  1  0
 10 11  1  6
 11 12  1  0
 12 13  2  0
 13 14  1  0
 15 14  1  0
 16 12  1  0
 16 15  2  0
 17 19  1  0
 17 10  1  0
 18 17  2  0
 20 19  1  0
 20 21  1  1
 22 21  1  0
 22 23  1  0
 23 24  2  0
 25 20  1  0
 26 25  2  0
 27 23  1  0
 28 25  1  0
M  END
$$$$
