IHE.pdb
     RDKit          3D

 28 28  0  0  1  0  0  0  0  0999 V2000
   18.1366  -15.9860  -19.0872 C   0  0  0  0  0  0  0  0  0  0  0  0
   18.8562  -15.2583  -18.0091 C   0  0  0  0  0  0  0  0  0  0  0  0
   18.6400  -13.7769  -18.0288 C   0  0  2  0  0  0  0  0  0  0  0  0
   19.0169  -13.2429  -19.3792 C   0  0  0  0  0  0  0  0  0  0  0  0
   19.3833  -13.1343  -16.8781 C   0  0  2  0  0  0  0  0  0  0  0  0
   18.8755  -13.8284  -15.6579 N   0  0  0  0  0  0  0  0  0  0  0  0
   18.9114  -11.7391  -16.7083 C   0  0  0  0  0  0  0  0  0  0  0  0
   19.1670  -10.8835  -17.5486 O   0  0  0  0  0  0  0  0  0  0  0  0
   18.1383  -11.2898  -15.5904 N   0  0  0  0  0  0  0  0  0  0  0  0
   17.6845   -9.9760  -15.3558 C   0  0  1  0  0  0  0  0  0  0  0  0
   16.4565   -9.7919  -14.5448 C   0  0  0  0  0  0  0  0  0  0  0  0
   15.2436  -10.2334  -15.3076 C   0  0  0  0  0  0  0  0  0  0  0  0
   15.1982  -10.5990  -16.6395 C   0  0  0  0  0  0  0  0  0  0  0  0
   13.9482  -10.9408  -17.0008 N   0  0  0  0  0  0  0  0  0  0  0  0
   13.1750  -10.7940  -15.8877 C   0  0  0  0  0  0  0  0  0  0  0  0
   13.9615  -10.3679  -14.8727 N   0  0  0  0  0  0  0  0  0  0  0  0
   18.7821   -9.1336  -14.8268 C   0  0  0  0  0  0  0  0  0  0  0  0
   19.5064   -9.4402  -13.8666 O   0  0  0  0  0  0  0  0  0  0  0  0
   19.0567   -7.8670  -15.4420 N   0  0  0  0  0  0  0  0  0  0  0  0
   20.0942   -6.9508  -14.9296 C   0  0  1  0  0  0  0  0  0  0  0  0
   21.3991   -7.4724  -15.4510 C   0  0  0  0  0  0  0  0  0  0  0  0
   21.6559   -7.4089  -16.8969 C   0  0  0  0  0  0  0  0  0  0  0  0
   22.9203   -7.9900  -17.3311 C   0  0  0  0  0  0  0  0  0  0  0  0
   23.7307   -8.4637  -16.4844 O   0  0  0  0  0  0  0  0  0  0  0  0
   19.7549   -5.5679  -15.1470 C   0  0  0  0  0  0  0  0  0  0  0  0
   20.4659   -4.6495  -14.6291 O   0  0  0  0  0  0  0  0  0  0  0  0
   23.2625   -8.0432  -18.6776 O   0  0  0  0  0  0  0  0  0  0  0  0
   18.6773   -5.1578  -15.9133 O   0  0  0  0  0  0  0  0  0  0  0  0
  2  1  1  0
  3  2  1  0
  3  4  1  6
  5  7  1  0
  5  3  1  0
  5  6  1  1
  7  8  2  0
  9 10  1  0
  9  7  1  0
 10 11  1  1
 11 12  1  0
 12 13  2  0
 13 14  1  0
 15 14  1  0
 16 12  1  0
 16 15  2  0
 17 19  1  0
 17 10  1  0
 18 17  2  0
 20 19  1  0
 20 21  1  6
 22 21  1  0
 22 23  1  0
 23 24  2  0
 25 20  1  0
 26 25  2  0
 27 23  1  0
 28 25  1  0
M  END
$$$$
