IHE.pdb
     RDKit          3D

 28 28  0  0  1  0  0  0  0  0999 V2000
   27.3365  -18.5064  -18.5644 C   0  0  0  0  0  0  0  0  0  0  0  0
   27.3601  -19.1289  -17.2147 C   0  0  0  0  0  0  0  0  0  0  0  0
   26.0080  -19.2664  -16.5867 C   0  0  2  0  0  0  0  0  0  0  0  0
   25.2803  -17.9589  -16.6951 C   0  0  0  0  0  0  0  0  0  0  0  0
   26.1493  -19.7823  -15.1713 C   0  0  2  0  0  0  0  0  0  0  0  0
   26.9146  -21.0574  -15.3023 N   0  0  0  0  0  0  0  0  0  0  0  0
   24.8228  -20.2204  -14.6749 C   0  0  0  0  0  0  0  0  0  0  0  0
   24.2614  -21.1958  -15.1617 O   0  0  0  0  0  0  0  0  0  0  0  0
   24.1125  -19.5678  -13.6173 N   0  0  0  0  0  0  0  0  0  0  0  0
   22.8930  -19.9812  -13.0434 C   0  0  1  0  0  0  0  0  0  0  0  0
   22.7606  -19.9343  -11.5670 C   0  0  0  0  0  0  0  0  0  0  0  0
   23.9208  -20.6165  -10.9064 C   0  0  0  0  0  0  0  0  0  0  0  0
   24.9861  -21.2261  -11.5413 C   0  0  0  0  0  0  0  0  0  0  0  0
   25.8491  -21.7384  -10.6455 N   0  0  0  0  0  0  0  0  0  0  0  0
   25.3348  -21.4566   -9.4149 C   0  0  0  0  0  0  0  0  0  0  0  0
   24.1741  -20.7813   -9.5799 N   0  0  0  0  0  0  0  0  0  0  0  0
   21.7540  -19.2848  -13.6851 C   0  0  0  0  0  0  0  0  0  0  0  0
   21.7973  -18.1290  -14.1355 O   0  0  0  0  0  0  0  0  0  0  0  0
   20.4959  -19.9623  -13.8125 N   0  0  0  0  0  0  0  0  0  0  0  0
   19.5107  -19.6053  -14.8518 C   0  0  1  0  0  0  0  0  0  0  0  0
   20.2214  -19.7556  -16.1629 C   0  0  0  0  0  0  0  0  0  0  0  0
   19.4971  -19.4253  -17.3986 C   0  0  0  0  0  0  0  0  0  0  0  0
   20.1470  -19.8474  -18.6333 C   0  0  0  0  0  0  0  0  0  0  0  0
   21.1540  -20.6107  -18.5974 O   0  0  0  0  0  0  0  0  0  0  0  0
   18.2488  -20.2725  -14.6579 C   0  0  0  0  0  0  0  0  0  0  0  0
   18.1823  -21.3050  -13.9186 O   0  0  0  0  0  0  0  0  0  0  0  0
   19.6764  -19.4294  -19.8729 O   0  0  0  0  0  0  0  0  0  0  0  0
   17.0641  -19.8469  -15.2340 O   0  0  0  0  0  0  0  0  0  0  0  0
  2  1  1  0
  3  2  1  0
  3  4  1  1
  5  7  1  0
  5  3  1  0
  5  6  1  6
  7  8  2  0
  9 10  1  0
  9  7  1  0
 10 11  1  1
 11 12  1  0
 12 13  2  0
 13 14  1  0
 15 14  1  0
 16 12  1  0
 16 15  2  0
 17 19  1  0
 17 10  1  0
 18 17  2  0
 20 19  1  0
 20 21  1  6
 22 21  1  0
 22 23  1  0
 23 24  2  0
 25 20  1  0
 26 25  2  0
 27 23  1  0
 28 25  1  0
M  END
$$$$
