EEQ.pdb
     RDKit          3D

 28 27  0  0  1  0  0  0  0  0999 V2000
   13.8338  -18.2559   20.0452 N   0  0  0  0  0  0  0  0  0  0  0  0
   12.9415  -17.1609   19.9245 C   0  0  1  0  0  0  0  0  0  0  0  0
   12.1157  -17.1386   18.6803 C   0  0  0  0  0  0  0  0  0  0  0  0
   11.8180  -18.4866   18.1229 C   0  0  0  0  0  0  0  0  0  0  0  0
   11.1094  -18.4712   16.8393 C   0  0  0  0  0  0  0  0  0  0  0  0
   10.1166  -19.1951   16.6249 O   0  0  0  0  0  0  0  0  0  0  0  0
   11.9854  -17.2243   21.0965 C   0  0  0  0  0  0  0  0  0  0  0  0
   11.1341  -16.3368   21.2369 O   0  0  0  0  0  0  0  0  0  0  0  0
   11.4958  -17.6508   15.7774 O   0  0  0  0  0  0  0  0  0  0  0  0
   12.0459  -18.2853   22.0405 N   0  0  0  0  0  0  0  0  0  0  0  0
   11.1801  -18.4235   23.1776 C   0  0  1  0  0  0  0  0  0  0  0  0
   10.7165  -19.8111   23.4206 C   0  0  0  0  0  0  0  0  0  0  0  0
   11.6471  -20.9250   23.1412 C   0  0  0  0  0  0  0  0  0  0  0  0
   11.1577  -22.2895   23.3703 C   0  0  0  0  0  0  0  0  0  0  0  0
   11.4034  -23.1958   22.5454 O   0  0  0  0  0  0  0  0  0  0  0  0
   11.6905  -17.8179   24.4222 C   0  0  0  0  0  0  0  0  0  0  0  0
   12.9212  -17.8816   24.7448 O   0  0  0  0  0  0  0  0  0  0  0  0
   10.4164  -22.6199   24.4903 O   0  0  0  0  0  0  0  0  0  0  0  0
    8.7772  -13.3973   27.8405 N   0  0  0  0  0  0  0  0  0  0  0  0
    9.8542  -13.7480   28.6883 C   0  0  0  0  0  0  0  0  0  0  0  0
    9.9714  -13.1310   29.7773 O   0  0  0  0  0  0  0  0  0  0  0  0
   10.8325  -14.8269   28.3028 C   0  0  0  0  0  0  0  0  0  0  0  0
   10.3976  -15.4352   26.9691 C   0  0  0  0  0  0  0  0  0  0  0  0
   11.3842  -16.5485   26.5773 C   0  0  2  0  0  0  0  0  0  0  0  0
   10.8535  -17.1239   25.3430 N   0  0  0  0  0  0  0  0  0  0  0  0
   11.3520  -17.5004   27.7070 C   0  0  0  0  0  0  0  0  0  0  0  0
   12.1690  -17.3473   28.8099 O   0  0  0  0  0  0  0  0  0  0  0  0
   10.5679  -18.4720   27.6717 O   0  0  0  0  0  0  0  0  0  0  0  0
  2  1  1  6
  2  7  1  0
  2  3  1  0
  4  3  1  0
  4  5  1  0
  5  6  2  0
  7  8  2  0
  9  5  1  0
 10 11  1  0
 10  7  1  0
 11 12  1  1
 12 13  1  0
 13 14  1  0
 14 15  2  0
 14 18  1  0
 16 11  1  0
 17 16  2  0
 20 22  1  0
 20 19  1  0
 21 20  2  0
 23 22  1  0
 24 23  1  1
 24 25  1  0
 25 16  1  0
 26 24  1  0
 27 26  1  0
 28 26  2  0
M  END
$$$$
