EEQ.pdb
     RDKit          3D

 28 27  0  0  1  0  0  0  0  0999 V2000
   16.1131  -16.9268   20.7449 N   0  0  0  0  0  0  0  0  0  0  0  0
   15.6473  -15.6072   20.9723 C   0  0  1  0  0  0  0  0  0  0  0  0
   15.4532  -14.7740   19.7482 C   0  0  0  0  0  0  0  0  0  0  0  0
   14.5261  -15.3697   18.7471 C   0  0  0  0  0  0  0  0  0  0  0  0
   14.2794  -14.5294   17.5711 C   0  0  0  0  0  0  0  0  0  0  0  0
   13.1298  -14.3364   17.1273 O   0  0  0  0  0  0  0  0  0  0  0  0
   14.3031  -15.7136   21.6605 C   0  0  0  0  0  0  0  0  0  0  0  0
   13.7570  -14.6901   22.0919 O   0  0  0  0  0  0  0  0  0  0  0  0
   15.3079  -13.8930   16.8729 O   0  0  0  0  0  0  0  0  0  0  0  0
   13.6545  -16.9682   21.8208 N   0  0  0  0  0  0  0  0  0  0  0  0
   12.4198  -17.1705   22.5254 C   0  0  1  0  0  0  0  0  0  0  0  0
   11.6923  -18.4011   22.1311 C   0  0  0  0  0  0  0  0  0  0  0  0
   10.4011  -18.6981   22.7864 C   0  0  0  0  0  0  0  0  0  0  0  0
    9.7184  -19.9401   22.4054 C   0  0  0  0  0  0  0  0  0  0  0  0
    9.7242  -20.3253   21.2164 O   0  0  0  0  0  0  0  0  0  0  0  0
   12.5210  -17.0714   23.9938 C   0  0  0  0  0  0  0  0  0  0  0  0
   13.5091  -17.5582   24.6334 O   0  0  0  0  0  0  0  0  0  0  0  0
    9.0518  -20.7198   23.3332 O   0  0  0  0  0  0  0  0  0  0  0  0
    8.8114  -13.5439   27.7397 N   0  0  0  0  0  0  0  0  0  0  0  0
    9.6705  -14.1752   28.6698 C   0  0  0  0  0  0  0  0  0  0  0  0
    9.5819  -13.8367   29.8772 O   0  0  0  0  0  0  0  0  0  0  0  0
   10.6621  -15.2215   28.2318 C   0  0  0  0  0  0  0  0  0  0  0  0
   10.5680  -15.3877   26.7148 C   0  0  0  0  0  0  0  0  0  0  0  0
   11.6247  -16.4057   26.2527 C   0  0  2  0  0  0  0  0  0  0  0  0
   11.5325  -16.4295   24.7943 N   0  0  0  0  0  0  0  0  0  0  0  0
   11.2153  -17.6851   26.8683 C   0  0  0  0  0  0  0  0  0  0  0  0
   11.6554  -18.0622   28.1220 O   0  0  0  0  0  0  0  0  0  0  0  0
   10.4510  -18.4518   26.2453 O   0  0  0  0  0  0  0  0  0  0  0  0
  2  1  1  6
  2  7  1  0
  2  3  1  0
  4  3  1  0
  4  5  1  0
  5  6  2  0
  7  8  2  0
  9  5  1  0
 10 11  1  0
 10  7  1  0
 11 12  1  1
 12 13  1  0
 13 14  1  0
 14 15  2  0
 14 18  1  0
 16 11  1  0
 17 16  2  0
 20 22  1  0
 20 19  1  0
 21 20  2  0
 23 22  1  0
 24 23  1  1
 24 25  1  0
 25 16  1  0
 26 24  1  0
 27 26  1  0
 28 26  2  0
M  END
$$$$
