EEQ.pdb
     RDKit          3D

 28 27  0  0  1  0  0  0  0  0999 V2000
    8.7231  -17.5698   20.0909 N   0  0  0  0  0  0  0  0  0  0  0  0
    9.4183  -18.2170   21.1433 C   0  0  1  0  0  0  0  0  0  0  0  0
   10.8882  -17.9581   21.1976 C   0  0  0  0  0  0  0  0  0  0  0  0
   11.4444  -17.3444   19.9604 C   0  0  0  0  0  0  0  0  0  0  0  0
   12.8671  -16.9989   20.0394 C   0  0  0  0  0  0  0  0  0  0  0  0
   13.3252  -15.9645   19.5141 O   0  0  0  0  0  0  0  0  0  0  0  0
    8.8274  -17.7241   22.4470 C   0  0  0  0  0  0  0  0  0  0  0  0
    8.0537  -16.7580   22.4384 O   0  0  0  0  0  0  0  0  0  0  0  0
   13.7991  -17.7991   20.7036 O   0  0  0  0  0  0  0  0  0  0  0  0
    9.1438  -18.3506   23.6830 N   0  0  0  0  0  0  0  0  0  0  0  0
    8.6289  -17.9506   24.9623 C   0  0  1  0  0  0  0  0  0  0  0  0
    8.6619  -19.0196   25.9896 C   0  0  0  0  0  0  0  0  0  0  0  0
    7.3876  -19.6508   26.3923 C   0  0  0  0  0  0  0  0  0  0  0  0
    7.4519  -20.7390   27.3749 C   0  0  0  0  0  0  0  0  0  0  0  0
    6.4040  -21.2833   27.7847 O   0  0  0  0  0  0  0  0  0  0  0  0
    9.1966  -16.6972   25.4943 C   0  0  0  0  0  0  0  0  0  0  0  0
   10.4300  -16.4085   25.3606 O   0  0  0  0  0  0  0  0  0  0  0  0
    8.6562  -21.1968   27.8783 O   0  0  0  0  0  0  0  0  0  0  0  0
    5.7160  -11.8369   26.8663 N   0  0  0  0  0  0  0  0  0  0  0  0
    6.7534  -11.5849   25.9379 C   0  0  0  0  0  0  0  0  0  0  0  0
    6.6273  -10.6001   25.1668 O   0  0  0  0  0  0  0  0  0  0  0  0
    7.9735  -12.4663   25.8718 C   0  0  0  0  0  0  0  0  0  0  0  0
    7.8711  -13.5351   26.9603 C   0  0  0  0  0  0  0  0  0  0  0  0
    9.0212  -14.5420   26.7880 C   0  0  2  0  0  0  0  0  0  0  0  0
    8.4148  -15.7284   26.1873 N   0  0  0  0  0  0  0  0  0  0  0  0
    9.5182  -14.7900   28.1573 C   0  0  0  0  0  0  0  0  0  0  0  0
    9.3617  -16.0146   28.7766 O   0  0  0  0  0  0  0  0  0  0  0  0
   10.0963  -13.8734   28.7784 O   0  0  0  0  0  0  0  0  0  0  0  0
  2  1  1  6
  2  7  1  0
  2  3  1  0
  4  3  1  0
  4  5  1  0
  5  6  2  0
  7  8  2  0
  9  5  1  0
 10 11  1  0
 10  7  1  0
 11 12  1  1
 12 13  1  0
 13 14  1  0
 14 15  2  0
 14 18  1  0
 16 11  1  0
 17 16  2  0
 20 22  1  0
 20 19  1  0
 21 20  2  0
 23 22  1  0
 24 23  1  1
 24 25  1  0
 25 16  1  0
 26 24  1  0
 27 26  1  0
 28 26  2  0
M  END
$$$$
