EEQ.pdb
     RDKit          3D

 28 27  0  0  1  0  0  0  0  0999 V2000
    9.1165  -15.0957   20.2867 N   0  0  0  0  0  0  0  0  0  0  0  0
    8.0315  -15.6643   21.0003 C   0  0  1  0  0  0  0  0  0  0  0  0
    7.0567  -16.4404   20.1770 C   0  0  0  0  0  0  0  0  0  0  0  0
    7.6623  -17.5716   19.4219 C   0  0  0  0  0  0  0  0  0  0  0  0
    6.7139  -18.3338   18.6037 C   0  0  0  0  0  0  0  0  0  0  0  0
    7.0879  -19.2360   17.8279 O   0  0  0  0  0  0  0  0  0  0  0  0
    8.6120  -16.6163   22.0243 C   0  0  0  0  0  0  0  0  0  0  0  0
    7.8550  -17.2035   22.8080 O   0  0  0  0  0  0  0  0  0  0  0  0
    5.3371  -18.1025   18.6373 O   0  0  0  0  0  0  0  0  0  0  0  0
   10.0119  -16.8498   22.1032 N   0  0  0  0  0  0  0  0  0  0  0  0
   10.6461  -17.7300   23.0438 C   0  0  1  0  0  0  0  0  0  0  0  0
   11.8296  -18.4420   22.5037 C   0  0  0  0  0  0  0  0  0  0  0  0
   12.9183  -17.6446   21.9007 C   0  0  0  0  0  0  0  0  0  0  0  0
   14.0460  -18.3755   21.3108 C   0  0  0  0  0  0  0  0  0  0  0  0
   14.5675  -19.3331   21.9218 O   0  0  0  0  0  0  0  0  0  0  0  0
   10.9548  -17.1211   24.3515 C   0  0  0  0  0  0  0  0  0  0  0  0
   11.7458  -16.1286   24.4605 O   0  0  0  0  0  0  0  0  0  0  0  0
   14.5677  -18.0375   20.0752 O   0  0  0  0  0  0  0  0  0  0  0  0
    9.9744  -13.4902   27.1412 N   0  0  0  0  0  0  0  0  0  0  0  0
   10.1131  -14.0771   28.4210 C   0  0  0  0  0  0  0  0  0  0  0  0
   10.5019  -13.3446   29.3658 O   0  0  0  0  0  0  0  0  0  0  0  0
    9.8055  -15.5342   28.6496 C   0  0  0  0  0  0  0  0  0  0  0  0
    9.5181  -16.1963   27.3018 C   0  0  0  0  0  0  0  0  0  0  0  0
   10.7543  -16.9984   26.8603 C   0  0  2  0  0  0  0  0  0  0  0  0
   10.3954  -17.5925   25.5741 N   0  0  0  0  0  0  0  0  0  0  0  0
   10.9487  -18.0109   27.9188 C   0  0  0  0  0  0  0  0  0  0  0  0
   11.7424  -17.7657   29.0222 O   0  0  0  0  0  0  0  0  0  0  0  0
   10.3839  -19.1207   27.8210 O   0  0  0  0  0  0  0  0  0  0  0  0
  2  1  1  6
  2  7  1  0
  2  3  1  0
  4  3  1  0
  4  5  1  0
  5  6  2  0
  7  8  2  0
  9  5  1  0
 10 11  1  0
 10  7  1  0
 11 12  1  6
 12 13  1  0
 13 14  1  0
 14 15  2  0
 14 18  1  0
 16 11  1  0
 17 16  2  0
 20 22  1  0
 20 19  1  0
 21 20  2  0
 23 22  1  0
 24 23  1  1
 24 25  1  0
 25 16  1  0
 26 24  1  0
 27 26  1  0
 28 26  2  0
M  END
$$$$
