EEQ.pdb
     RDKit          3D

 28 27  0  0  1  0  0  0  0  0999 V2000
    9.5128  -12.5785   19.2978 N   0  0  0  0  0  0  0  0  0  0  0  0
    8.2875  -13.2539   19.5264 C   0  0  1  0  0  0  0  0  0  0  0  0
    7.6258  -13.8145   18.3105 C   0  0  0  0  0  0  0  0  0  0  0  0
    8.5474  -14.5466   17.3988 C   0  0  0  0  0  0  0  0  0  0  0  0
    7.8981  -15.1402   16.2258 C   0  0  0  0  0  0  0  0  0  0  0  0
    6.8182  -15.7584   16.3114 O   0  0  0  0  0  0  0  0  0  0  0  0
    8.5760  -14.4139   20.4554 C   0  0  0  0  0  0  0  0  0  0  0  0
    7.6398  -15.1079   20.8722 O   0  0  0  0  0  0  0  0  0  0  0  0
    8.4412  -15.0541   14.9421 O   0  0  0  0  0  0  0  0  0  0  0  0
    9.9036  -14.7225   20.8586 N   0  0  0  0  0  0  0  0  0  0  0  0
   10.2633  -15.7807   21.7601 C   0  0  1  0  0  0  0  0  0  0  0  0
   11.4423  -16.5697   21.3279 C   0  0  0  0  0  0  0  0  0  0  0  0
   11.7840  -17.7964   22.0784 C   0  0  0  0  0  0  0  0  0  0  0  0
   12.9890  -18.5271   21.6687 C   0  0  0  0  0  0  0  0  0  0  0  0
   13.6020  -18.2025   20.6289 O   0  0  0  0  0  0  0  0  0  0  0  0
   10.3962  -15.3737   23.1718 C   0  0  0  0  0  0  0  0  0  0  0  0
   11.0343  -14.3248   23.5113 O   0  0  0  0  0  0  0  0  0  0  0  0
   13.4847  -19.5874   22.4058 O   0  0  0  0  0  0  0  0  0  0  0  0
    6.1816  -12.8963   25.1237 N   0  0  0  0  0  0  0  0  0  0  0  0
    6.7561  -13.0367   26.4090 C   0  0  0  0  0  0  0  0  0  0  0  0
    6.2595  -12.3699   27.3520 O   0  0  0  0  0  0  0  0  0  0  0  0
    7.9264  -13.9554   26.6454 C   0  0  0  0  0  0  0  0  0  0  0  0
    8.3670  -14.5494   25.3071 C   0  0  0  0  0  0  0  0  0  0  0  0
    9.5541  -15.4988   25.5434 C   0  0  2  0  0  0  0  0  0  0  0  0
    9.8254  -16.1151   24.2462 N   0  0  0  0  0  0  0  0  0  0  0  0
    9.0695  -16.4722   26.5440 C   0  0  0  0  0  0  0  0  0  0  0  0
    8.5880  -17.7135   26.1766 O   0  0  0  0  0  0  0  0  0  0  0  0
    9.0925  -16.1726   27.7564 O   0  0  0  0  0  0  0  0  0  0  0  0
  2  1  1  6
  2  7  1  0
  2  3  1  0
  4  3  1  0
  4  5  1  0
  5  6  2  0
  7  8  2  0
  9  5  1  0
 10 11  1  0
 10  7  1  0
 11 12  1  6
 12 13  1  0
 13 14  1  0
 14 15  2  0
 14 18  1  0
 16 11  1  0
 17 16  2  0
 20 22  1  0
 20 19  1  0
 21 20  2  0
 23 22  1  0
 24 23  1  6
 24 25  1  0
 25 16  1  0
 26 24  1  0
 27 26  1  0
 28 26  2  0
M  END
$$$$
