EEQ.pdb
     RDKit          3D

 28 27  0  0  1  0  0  0  0  0999 V2000
   17.2948  -17.0122   16.1312 N   0  0  0  0  0  0  0  0  0  0  0  0
   17.8006  -17.9019   17.1123 C   0  0  1  0  0  0  0  0  0  0  0  0
   19.0258  -17.4387   17.8297 C   0  0  0  0  0  0  0  0  0  0  0  0
   19.8653  -16.4883   17.0497 C   0  0  0  0  0  0  0  0  0  0  0  0
   21.0945  -16.0648   17.7277 C   0  0  0  0  0  0  0  0  0  0  0  0
   21.4905  -16.6099   18.7774 O   0  0  0  0  0  0  0  0  0  0  0  0
   16.7170  -18.0931   18.1521 C   0  0  0  0  0  0  0  0  0  0  0  0
   15.9887  -17.1394   18.4555 O   0  0  0  0  0  0  0  0  0  0  0  0
   21.8992  -15.0295   17.2476 O   0  0  0  0  0  0  0  0  0  0  0  0
   16.5189  -19.3490   18.7876 N   0  0  0  0  0  0  0  0  0  0  0  0
   15.4335  -19.6583   19.6754 C   0  0  1  0  0  0  0  0  0  0  0  0
   14.6975  -20.8967   19.3234 C   0  0  0  0  0  0  0  0  0  0  0  0
   13.3119  -20.7760   18.8232 C   0  0  0  0  0  0  0  0  0  0  0  0
   12.6487  -22.0021   18.3640 C   0  0  0  0  0  0  0  0  0  0  0  0
   13.2220  -22.7671   17.5588 O   0  0  0  0  0  0  0  0  0  0  0  0
   15.7831  -19.6479   21.1085 C   0  0  0  0  0  0  0  0  0  0  0  0
   16.9210  -20.0403   21.5253 O   0  0  0  0  0  0  0  0  0  0  0  0
   11.3828  -22.3525   18.7974 O   0  0  0  0  0  0  0  0  0  0  0  0
   14.7996  -15.1186   24.6748 N   0  0  0  0  0  0  0  0  0  0  0  0
   15.3309  -15.4057   23.3953 C   0  0  0  0  0  0  0  0  0  0  0  0
   15.7305  -14.4420   22.6939 O   0  0  0  0  0  0  0  0  0  0  0  0
   15.4174  -16.8205   22.8849 C   0  0  0  0  0  0  0  0  0  0  0  0
   15.0846  -17.7798   24.0280 C   0  0  0  0  0  0  0  0  0  0  0  0
   15.2478  -19.2277   23.5347 C   0  0  2  0  0  0  0  0  0  0  0  0
   14.8838  -19.2014   22.1194 N   0  0  0  0  0  0  0  0  0  0  0  0
   14.3006  -20.0164   24.3497 C   0  0  0  0  0  0  0  0  0  0  0  0
   14.5479  -20.3021   25.6782 O   0  0  0  0  0  0  0  0  0  0  0  0
   13.2460  -20.4397   23.8315 O   0  0  0  0  0  0  0  0  0  0  0  0
  2  1  1  6
  2  7  1  0
  2  3  1  0
  4  3  1  0
  4  5  1  0
  5  6  2  0
  7  8  2  0
  9  5  1  0
 10 11  1  0
 10  7  1  0
 11 12  1  6
 12 13  1  0
 13 14  1  0
 14 15  2  0
 14 18  1  0
 16 11  1  0
 17 16  2  0
 20 22  1  0
 20 19  1  0
 21 20  2  0
 23 22  1  0
 24 23  1  1
 24 25  1  0
 25 16  1  0
 26 24  1  0
 27 26  1  0
 28 26  2  0
M  END
$$$$
