EEQ.pdb
     RDKit          3D

 28 27  0  0  1  0  0  0  0  0999 V2000
    9.0810  -13.6129   18.1736 N   0  0  0  0  0  0  0  0  0  0  0  0
    9.9050  -14.5487   18.8482 C   0  0  1  0  0  0  0  0  0  0  0  0
   11.2381  -14.0352   19.2836 C   0  0  0  0  0  0  0  0  0  0  0  0
   12.3612  -14.4184   18.3845 C   0  0  0  0  0  0  0  0  0  0  0  0
   13.6676  -13.8839   18.7815 C   0  0  0  0  0  0  0  0  0  0  0  0
   13.8261  -13.2498   19.8438 O   0  0  0  0  0  0  0  0  0  0  0  0
    9.1651  -14.9887   20.0935 C   0  0  0  0  0  0  0  0  0  0  0  0
    8.2280  -14.3017   20.5200 O   0  0  0  0  0  0  0  0  0  0  0  0
   14.8149  -14.0473   18.0022 O   0  0  0  0  0  0  0  0  0  0  0  0
    9.5258  -16.1778   20.7837 N   0  0  0  0  0  0  0  0  0  0  0  0
    8.8458  -16.6967   21.9370 C   0  0  1  0  0  0  0  0  0  0  0  0
    8.8433  -18.1772   22.0233 C   0  0  0  0  0  0  0  0  0  0  0  0
    8.2797  -18.9488   20.8957 C   0  0  0  0  0  0  0  0  0  0  0  0
    8.3750  -20.4118   20.9617 C   0  0  0  0  0  0  0  0  0  0  0  0
    9.4420  -20.9897   20.6620 O   0  0  0  0  0  0  0  0  0  0  0  0
    9.2592  -16.0993   23.2209 C   0  0  0  0  0  0  0  0  0  0  0  0
   10.4850  -16.0052   23.5543 O   0  0  0  0  0  0  0  0  0  0  0  0
    7.3040  -21.1955   21.3514 O   0  0  0  0  0  0  0  0  0  0  0  0
    5.4324  -12.9988   27.1488 N   0  0  0  0  0  0  0  0  0  0  0  0
    6.5235  -12.2462   26.6539 C   0  0  0  0  0  0  0  0  0  0  0  0
    6.4496  -10.9927   26.7136 O   0  0  0  0  0  0  0  0  0  0  0  0
    7.7386  -12.9214   26.0730 C   0  0  0  0  0  0  0  0  0  0  0  0
    7.5241  -14.4350   26.1011 C   0  0  0  0  0  0  0  0  0  0  0  0
    8.7536  -15.1298   25.4911 C   0  0  2  0  0  0  0  0  0  0  0  0
    8.3278  -15.5883   24.1703 N   0  0  0  0  0  0  0  0  0  0  0  0
    9.0541  -16.2471   26.4102 C   0  0  0  0  0  0  0  0  0  0  0  0
    9.7252  -16.0484   27.6009 O   0  0  0  0  0  0  0  0  0  0  0  0
    8.6953  -17.4053   26.1101 O   0  0  0  0  0  0  0  0  0  0  0  0
  2  1  1  1
  2  7  1  0
  2  3  1  0
  4  3  1  0
  4  5  1  0
  5  6  2  0
  7  8  2  0
  9  5  1  0
 10 11  1  0
 10  7  1  0
 11 12  1  1
 12 13  1  0
 13 14  1  0
 14 15  2  0
 14 18  1  0
 16 11  1  0
 17 16  2  0
 20 22  1  0
 20 19  1  0
 21 20  2  0
 23 22  1  0
 24 23  1  1
 24 25  1  0
 25 16  1  0
 26 24  1  0
 27 26  1  0
 28 26  2  0
M  END
$$$$
