EEQ.pdb
     RDKit          3D

 28 27  0  0  1  0  0  0  0  0999 V2000
   13.6983  -18.7991   21.7899 N   0  0  0  0  0  0  0  0  0  0  0  0
   13.6765  -17.4777   21.2769 C   0  0  1  0  0  0  0  0  0  0  0  0
   13.8970  -17.3558   19.8048 C   0  0  0  0  0  0  0  0  0  0  0  0
   13.0509  -18.2663   18.9851 C   0  0  0  0  0  0  0  0  0  0  0  0
   13.3411  -18.2368   17.5482 C   0  0  0  0  0  0  0  0  0  0  0  0
   14.0410  -17.3413   17.0345 O   0  0  0  0  0  0  0  0  0  0  0  0
   12.3102  -16.8983   21.5755 C   0  0  0  0  0  0  0  0  0  0  0  0
   12.0483  -15.7417   21.2210 O   0  0  0  0  0  0  0  0  0  0  0  0
   12.8565  -19.2027   16.6636 O   0  0  0  0  0  0  0  0  0  0  0  0
   11.3201  -17.6581   22.2558 N   0  0  0  0  0  0  0  0  0  0  0  0
   10.0146  -17.1765   22.6102 C   0  0  1  0  0  0  0  0  0  0  0  0
    8.9442  -18.1978   22.5086 C   0  0  0  0  0  0  0  0  0  0  0  0
    8.4183  -18.5380   21.1698 C   0  0  0  0  0  0  0  0  0  0  0  0
    7.4621  -19.6476   21.0800 C   0  0  0  0  0  0  0  0  0  0  0  0
    6.3427  -19.4760   20.5511 O   0  0  0  0  0  0  0  0  0  0  0  0
    9.9441  -16.4730   23.9050 C   0  0  0  0  0  0  0  0  0  0  0  0
   10.7547  -16.7290   24.8536 O   0  0  0  0  0  0  0  0  0  0  0  0
    7.7578  -20.9067   21.5704 O   0  0  0  0  0  0  0  0  0  0  0  0
    5.6064  -12.0935   25.4798 N   0  0  0  0  0  0  0  0  0  0  0  0
    6.4294  -12.1318   26.6299 C   0  0  0  0  0  0  0  0  0  0  0  0
    6.1562  -11.3501   27.5758 O   0  0  0  0  0  0  0  0  0  0  0  0
    7.5978  -13.0783   26.7232 C   0  0  0  0  0  0  0  0  0  0  0  0
    7.6948  -13.8740   25.4212 C   0  0  0  0  0  0  0  0  0  0  0  0
    8.9472  -14.7660   25.4676 C   0  0  2  0  0  0  0  0  0  0  0  0
    8.9759  -15.4659   24.1848 N   0  0  0  0  0  0  0  0  0  0  0  0
    8.7220  -15.6791   26.6074 C   0  0  0  0  0  0  0  0  0  0  0  0
    9.3305  -15.4782   27.8309 O   0  0  0  0  0  0  0  0  0  0  0  0
    7.9625  -16.6611   26.4693 O   0  0  0  0  0  0  0  0  0  0  0  0
  2  1  1  6
  2  7  1  0
  2  3  1  0
  4  3  1  0
  4  5  1  0
  5  6  2  0
  7  8  2  0
  9  5  1  0
 10 11  1  0
 10  7  1  0
 11 12  1  1
 12 13  1  0
 13 14  1  0
 14 15  2  0
 14 18  1  0
 16 11  1  0
 17 16  2  0
 20 22  1  0
 20 19  1  0
 21 20  2  0
 23 22  1  0
 24 23  1  6
 24 25  1  0
 25 16  1  0
 26 24  1  0
 27 26  1  0
 28 26  2  0
M  END
$$$$
