EEQ.pdb
     RDKit          3D

 28 27  0  0  1  0  0  0  0  0999 V2000
   10.1665  -16.4284   17.6966 N   0  0  0  0  0  0  0  0  0  0  0  0
    9.0904  -16.2372   18.5995 C   0  0  1  0  0  0  0  0  0  0  0  0
    7.8306  -16.9648   18.2618 C   0  0  0  0  0  0  0  0  0  0  0  0
    8.0468  -18.3105   17.6627 C   0  0  0  0  0  0  0  0  0  0  0  0
    6.8161  -19.0583   17.3869 C   0  0  0  0  0  0  0  0  0  0  0  0
    6.2514  -19.0132   16.2757 O   0  0  0  0  0  0  0  0  0  0  0  0
    9.5442  -16.7318   19.9565 C   0  0  0  0  0  0  0  0  0  0  0  0
    8.7722  -16.6582   20.9211 O   0  0  0  0  0  0  0  0  0  0  0  0
    6.1971  -19.8659   18.3433 O   0  0  0  0  0  0  0  0  0  0  0  0
   10.8418  -17.2805   20.1447 N   0  0  0  0  0  0  0  0  0  0  0  0
   11.3418  -17.8003   21.3863 C   0  0  1  0  0  0  0  0  0  0  0  0
   12.6538  -18.4822   21.2728 C   0  0  0  0  0  0  0  0  0  0  0  0
   13.1594  -19.2378   22.4382 C   0  0  0  0  0  0  0  0  0  0  0  0
   14.4792  -19.8678   22.3157 C   0  0  0  0  0  0  0  0  0  0  0  0
   15.3507  -19.3695   21.5710 O   0  0  0  0  0  0  0  0  0  0  0  0
   11.3488  -16.8368   22.5034 C   0  0  0  0  0  0  0  0  0  0  0  0
   11.7785  -15.6461   22.3608 O   0  0  0  0  0  0  0  0  0  0  0  0
   14.8044  -21.0200   23.0084 O   0  0  0  0  0  0  0  0  0  0  0  0
    7.0115  -14.2626   22.8208 N   0  0  0  0  0  0  0  0  0  0  0  0
    7.3722  -13.8267   24.1175 C   0  0  0  0  0  0  0  0  0  0  0  0
    6.7509  -12.8480   24.6039 O   0  0  0  0  0  0  0  0  0  0  0  0
    8.4659  -14.5110   24.8956 C   0  0  0  0  0  0  0  0  0  0  0  0
    9.0812  -15.6066   24.0245 C   0  0  0  0  0  0  0  0  0  0  0  0
   10.3496  -16.1428   24.7101 C   0  0  2  0  0  0  0  0  0  0  0  0
   10.8791  -17.1638   23.8081 N   0  0  0  0  0  0  0  0  0  0  0  0
    9.8795  -16.7069   25.9923 C   0  0  0  0  0  0  0  0  0  0  0  0
    9.9804  -16.0031   27.1764 O   0  0  0  0  0  0  0  0  0  0  0  0
    9.3761  -17.8497   26.0150 O   0  0  0  0  0  0  0  0  0  0  0  0
  2  1  1  6
  2  7  1  0
  2  3  1  0
  4  3  1  0
  4  5  1  0
  5  6  2  0
  7  8  2  0
  9  5  1  0
 10 11  1  0
 10  7  1  0
 11 12  1  6
 12 13  1  0
 13 14  1  0
 14 15  2  0
 14 18  1  0
 16 11  1  0
 17 16  2  0
 20 22  1  0
 20 19  1  0
 21 20  2  0
 23 22  1  0
 24 23  1  6
 24 25  1  0
 25 16  1  0
 26 24  1  0
 27 26  1  0
 28 26  2  0
M  END
$$$$
