EEQ.pdb
     RDKit          3D

 28 27  0  0  1  0  0  0  0  0999 V2000
    8.8891  -12.7521   19.3508 N   0  0  0  0  0  0  0  0  0  0  0  0
    7.7738  -13.6268   19.3219 C   0  0  1  0  0  0  0  0  0  0  0  0
    7.4762  -14.2454   17.9956 C   0  0  0  0  0  0  0  0  0  0  0  0
    8.6851  -14.5611   17.1861 C   0  0  0  0  0  0  0  0  0  0  0  0
    8.4003  -15.0835   15.8459 C   0  0  0  0  0  0  0  0  0  0  0  0
    7.2415  -15.1254   15.3864 O   0  0  0  0  0  0  0  0  0  0  0  0
    8.0581  -14.7555   20.2899 C   0  0  0  0  0  0  0  0  0  0  0  0
    7.2316  -15.6673   20.4221 O   0  0  0  0  0  0  0  0  0  0  0  0
    9.4005  -15.5663   14.9992 O   0  0  0  0  0  0  0  0  0  0  0  0
    9.2582  -14.7890   21.0509 N   0  0  0  0  0  0  0  0  0  0  0  0
    9.5978  -15.8072   22.0047 C   0  0  1  0  0  0  0  0  0  0  0  0
   10.8366  -16.5542   21.6778 C   0  0  0  0  0  0  0  0  0  0  0  0
   10.7342  -17.7429   20.8054 C   0  0  0  0  0  0  0  0  0  0  0  0
   11.9834  -18.4120   20.4235 C   0  0  0  0  0  0  0  0  0  0  0  0
   12.6271  -18.0260   19.4240 O   0  0  0  0  0  0  0  0  0  0  0  0
    9.6137  -15.3592   23.4102 C   0  0  0  0  0  0  0  0  0  0  0  0
    9.8023  -14.1393   23.7243 O   0  0  0  0  0  0  0  0  0  0  0  0
   12.4883  -19.4797   21.1434 O   0  0  0  0  0  0  0  0  0  0  0  0
    5.4808  -13.5005   25.8001 N   0  0  0  0  0  0  0  0  0  0  0  0
    6.7028  -12.7877   25.8130 C   0  0  0  0  0  0  0  0  0  0  0  0
    6.6520  -11.5328   25.8685 O   0  0  0  0  0  0  0  0  0  0  0  0
    8.0264  -13.5055   25.7623 C   0  0  0  0  0  0  0  0  0  0  0  0
    7.7703  -15.0121   25.7125 C   0  0  0  0  0  0  0  0  0  0  0  0
    9.1101  -15.7559   25.8471 C   0  0  2  0  0  0  0  0  0  0  0  0
    9.4196  -16.2485   24.5063 N   0  0  0  0  0  0  0  0  0  0  0  0
    8.8442  -16.8483   26.8058 C   0  0  0  0  0  0  0  0  0  0  0  0
    8.9045  -16.6480   28.1710 O   0  0  0  0  0  0  0  0  0  0  0  0
    8.5563  -17.9863   26.3788 O   0  0  0  0  0  0  0  0  0  0  0  0
  2  1  1  6
  2  7  1  0
  2  3  1  0
  4  3  1  0
  4  5  1  0
  5  6  2  0
  7  8  2  0
  9  5  1  0
 10 11  1  0
 10  7  1  0
 11 12  1  6
 12 13  1  0
 13 14  1  0
 14 15  2  0
 14 18  1  0
 16 11  1  0
 17 16  2  0
 20 22  1  0
 20 19  1  0
 21 20  2  0
 23 22  1  0
 24 23  1  6
 24 25  1  0
 25 16  1  0
 26 24  1  0
 27 26  1  0
 28 26  2  0
M  END
$$$$
