EEQ.pdb
     RDKit          3D

 28 27  0  0  1  0  0  0  0  0999 V2000
    6.3906  -14.9749   19.4293 N   0  0  0  0  0  0  0  0  0  0  0  0
    7.7472  -14.7694   19.7860 C   0  0  1  0  0  0  0  0  0  0  0  0
    8.1769  -13.3426   19.8855 C   0  0  0  0  0  0  0  0  0  0  0  0
    8.2335  -12.6314   18.5788 C   0  0  0  0  0  0  0  0  0  0  0  0
    9.1203  -13.2491   17.5879 C   0  0  0  0  0  0  0  0  0  0  0  0
   10.2731  -13.6265   17.8784 O   0  0  0  0  0  0  0  0  0  0  0  0
    7.9578  -15.3975   21.1473 C   0  0  0  0  0  0  0  0  0  0  0  0
    7.0555  -15.3368   21.9923 O   0  0  0  0  0  0  0  0  0  0  0  0
    8.7369  -13.4550   16.2610 O   0  0  0  0  0  0  0  0  0  0  0  0
    9.1736  -16.0572   21.4744 N   0  0  0  0  0  0  0  0  0  0  0  0
    9.3996  -16.8169   22.6717 C   0  0  1  0  0  0  0  0  0  0  0  0
   10.0076  -18.1492   22.4378 C   0  0  0  0  0  0  0  0  0  0  0  0
   10.3583  -18.9801   23.6088 C   0  0  0  0  0  0  0  0  0  0  0  0
   10.8811  -20.3270   23.3510 C   0  0  0  0  0  0  0  0  0  0  0  0
   11.1869  -20.6747   22.1900 O   0  0  0  0  0  0  0  0  0  0  0  0
   10.1194  -16.0942   23.7375 C   0  0  0  0  0  0  0  0  0  0  0  0
   11.1728  -15.4193   23.4982 O   0  0  0  0  0  0  0  0  0  0  0  0
   11.0521  -21.2497   24.3671 O   0  0  0  0  0  0  0  0  0  0  0  0
    9.5103  -16.2973   29.7166 N   0  0  0  0  0  0  0  0  0  0  0  0
   10.0216  -14.9807   29.6348 C   0  0  0  0  0  0  0  0  0  0  0  0
   10.4515  -14.4493   30.6899 O   0  0  0  0  0  0  0  0  0  0  0  0
   10.0521  -14.2345   28.3263 C   0  0  0  0  0  0  0  0  0  0  0  0
    9.4012  -15.1009   27.2477 C   0  0  0  0  0  0  0  0  0  0  0  0
   10.4250  -15.3704   26.1317 C   0  0  2  0  0  0  0  0  0  0  0  0
    9.6922  -16.0971   25.0968 N   0  0  0  0  0  0  0  0  0  0  0  0
   11.4740  -16.1936   26.7685 C   0  0  0  0  0  0  0  0  0  0  0  0
   12.6033  -15.6273   27.3267 O   0  0  0  0  0  0  0  0  0  0  0  0
   11.3439  -17.4352   26.8074 O   0  0  0  0  0  0  0  0  0  0  0  0
  2  1  1  1
  2  7  1  0
  2  3  1  0
  4  3  1  0
  4  5  1  0
  5  6  2  0
  7  8  2  0
  9  5  1  0
 10 11  1  0
 10  7  1  0
 11 12  1  6
 12 13  1  0
 13 14  1  0
 14 15  2  0
 14 18  1  0
 16 11  1  0
 17 16  2  0
 20 22  1  0
 20 19  1  0
 21 20  2  0
 23 22  1  0
 24 23  1  1
 24 25  1  0
 25 16  1  0
 26 24  1  0
 27 26  1  0
 28 26  2  0
M  END
$$$$
