EEQ.pdb
     RDKit          3D

 28 27  0  0  1  0  0  0  0  0999 V2000
    9.3195  -12.9295   18.6464 N   0  0  0  0  0  0  0  0  0  0  0  0
    9.5446  -14.3240   18.7669 C   0  0  1  0  0  0  0  0  0  0  0  0
   10.9464  -14.7732   18.5146 C   0  0  0  0  0  0  0  0  0  0  0  0
   11.9697  -13.7077   18.6998 C   0  0  0  0  0  0  0  0  0  0  0  0
   13.3550  -14.1604   18.5389 C   0  0  0  0  0  0  0  0  0  0  0  0
   14.1264  -14.2831   19.5113 O   0  0  0  0  0  0  0  0  0  0  0  0
    9.1957  -14.7182   20.1863 C   0  0  0  0  0  0  0  0  0  0  0  0
    9.1027  -13.8427   21.0563 O   0  0  0  0  0  0  0  0  0  0  0  0
   13.9008  -14.4823   17.2944 O   0  0  0  0  0  0  0  0  0  0  0  0
    8.9717  -16.0766   20.5400 N   0  0  0  0  0  0  0  0  0  0  0  0
    8.5173  -16.5265   21.8256 C   0  0  1  0  0  0  0  0  0  0  0  0
    7.8466  -17.8490   21.8020 C   0  0  0  0  0  0  0  0  0  0  0  0
    7.0831  -18.2314   20.5956 C   0  0  0  0  0  0  0  0  0  0  0  0
    6.8998  -19.6643   20.3364 C   0  0  0  0  0  0  0  0  0  0  0  0
    7.5312  -20.5128   21.0025 O   0  0  0  0  0  0  0  0  0  0  0  0
    9.5325  -16.4748   22.8946 C   0  0  0  0  0  0  0  0  0  0  0  0
   10.7531  -16.7669   22.6766 O   0  0  0  0  0  0  0  0  0  0  0  0
    6.0351  -20.1239   19.3596 O   0  0  0  0  0  0  0  0  0  0  0  0
    9.3679  -13.2090   28.6027 N   0  0  0  0  0  0  0  0  0  0  0  0
    9.9365  -14.4944   28.7634 C   0  0  0  0  0  0  0  0  0  0  0  0
    9.8819  -15.0244   29.9021 O   0  0  0  0  0  0  0  0  0  0  0  0
   10.5881  -15.2102   27.6089 C   0  0  0  0  0  0  0  0  0  0  0  0
    9.5930  -15.2889   26.4507 C   0  0  0  0  0  0  0  0  0  0  0  0
   10.2636  -15.9895   25.2567 C   0  0  2  0  0  0  0  0  0  0  0  0
    9.2254  -16.0968   24.2336 N   0  0  0  0  0  0  0  0  0  0  0  0
   10.6863  -17.3065   25.7767 C   0  0  0  0  0  0  0  0  0  0  0  0
   11.9420  -17.5060   26.3161 O   0  0  0  0  0  0  0  0  0  0  0  0
    9.8931  -18.2703   25.7312 O   0  0  0  0  0  0  0  0  0  0  0  0
  2  1  1  1
  2  7  1  0
  2  3  1  0
  4  3  1  0
  4  5  1  0
  5  6  2  0
  7  8  2  0
  9  5  1  0
 10 11  1  0
 10  7  1  0
 11 12  1  6
 12 13  1  0
 13 14  1  0
 14 15  2  0
 14 18  1  0
 16 11  1  0
 17 16  2  0
 20 22  1  0
 20 19  1  0
 21 20  2  0
 23 22  1  0
 24 23  1  1
 24 25  1  0
 25 16  1  0
 26 24  1  0
 27 26  1  0
 28 26  2  0
M  END
$$$$
