EEQ.pdb
     RDKit          3D

 28 27  0  0  1  0  0  0  0  0999 V2000
   12.7113  -16.6003   20.7408 N   0  0  0  0  0  0  0  0  0  0  0  0
   11.3911  -16.1497   20.4882 C   0  0  1  0  0  0  0  0  0  0  0  0
   10.7191  -16.7603   19.3025 C   0  0  0  0  0  0  0  0  0  0  0  0
   11.5918  -17.6686   18.5089 C   0  0  0  0  0  0  0  0  0  0  0  0
   10.9276  -18.3071   17.3682 C   0  0  0  0  0  0  0  0  0  0  0  0
   10.2011  -19.3117   17.5052 O   0  0  0  0  0  0  0  0  0  0  0  0
   10.5553  -16.4920   21.7033 C   0  0  0  0  0  0  0  0  0  0  0  0
    9.3626  -16.1628   21.7346 O   0  0  0  0  0  0  0  0  0  0  0  0
   11.0627  -17.8370   16.0602 O   0  0  0  0  0  0  0  0  0  0  0  0
   11.1145  -17.1859   22.8106 N   0  0  0  0  0  0  0  0  0  0  0  0
   10.4336  -17.4416   24.0487 C   0  0  1  0  0  0  0  0  0  0  0  0
   10.6425  -18.8089   24.5834 C   0  0  0  0  0  0  0  0  0  0  0  0
   11.1461  -18.9568   25.9652 C   0  0  0  0  0  0  0  0  0  0  0  0
   11.4874  -20.3097   26.4201 C   0  0  0  0  0  0  0  0  0  0  0  0
   12.6832  -20.6529   26.5411 O   0  0  0  0  0  0  0  0  0  0  0  0
   10.6570  -16.4302   25.0991 C   0  0  0  0  0  0  0  0  0  0  0  0
   11.8198  -15.9833   25.3649 O   0  0  0  0  0  0  0  0  0  0  0  0
   10.5140  -21.2432   26.7271 O   0  0  0  0  0  0  0  0  0  0  0  0
    6.0663  -12.9107   27.2759 N   0  0  0  0  0  0  0  0  0  0  0  0
    7.0102  -12.3666   26.3734 C   0  0  0  0  0  0  0  0  0  0  0  0
    6.6754  -11.3510   25.7125 O   0  0  0  0  0  0  0  0  0  0  0  0
    8.3754  -12.9814   26.2060 C   0  0  0  0  0  0  0  0  0  0  0  0
    8.4947  -14.1833   27.1435 C   0  0  0  0  0  0  0  0  0  0  0  0
    9.8493  -14.8735   26.9084 C   0  0  2  0  0  0  0  0  0  0  0  0
    9.5997  -15.8844   25.8828 N   0  0  0  0  0  0  0  0  0  0  0  0
   10.2062  -15.4658   28.2142 C   0  0  0  0  0  0  0  0  0  0  0  0
   10.2140  -16.8323   28.4147 O   0  0  0  0  0  0  0  0  0  0  0  0
   10.5105  -14.7181   29.1674 O   0  0  0  0  0  0  0  0  0  0  0  0
  2  1  1  1
  2  7  1  0
  2  3  1  0
  4  3  1  0
  4  5  1  0
  5  6  2  0
  7  8  2  0
  9  5  1  0
 10 11  1  0
 10  7  1  0
 11 12  1  1
 12 13  1  0
 13 14  1  0
 14 15  2  0
 14 18  1  0
 16 11  1  0
 17 16  2  0
 20 22  1  0
 20 19  1  0
 21 20  2  0
 23 22  1  0
 24 23  1  1
 24 25  1  0
 25 16  1  0
 26 24  1  0
 27 26  1  0
 28 26  2  0
M  END
$$$$
