EEQ.pdb
     RDKit          3D

 28 27  0  0  1  0  0  0  0  0999 V2000
   11.5204  -13.9455   18.6432 N   0  0  0  0  0  0  0  0  0  0  0  0
   11.9736  -15.2397   19.0032 C   0  0  1  0  0  0  0  0  0  0  0  0
   13.4533  -15.3875   19.1408 C   0  0  0  0  0  0  0  0  0  0  0  0
   14.1834  -14.0978   19.2834 C   0  0  0  0  0  0  0  0  0  0  0  0
   15.6313  -14.2358   19.4691 C   0  0  0  0  0  0  0  0  0  0  0  0
   16.1308  -14.5149   20.5774 O   0  0  0  0  0  0  0  0  0  0  0  0
   11.3622  -15.5764   20.3466 C   0  0  0  0  0  0  0  0  0  0  0  0
   10.9904  -14.6618   21.0931 O   0  0  0  0  0  0  0  0  0  0  0  0
   16.5426  -14.0650   18.4249 O   0  0  0  0  0  0  0  0  0  0  0  0
   11.2059  -16.9248   20.7680 N   0  0  0  0  0  0  0  0  0  0  0  0
   10.5766  -17.3355   21.9916 C   0  0  1  0  0  0  0  0  0  0  0  0
   10.1796  -18.7641   22.0187 C   0  0  0  0  0  0  0  0  0  0  0  0
    9.4653  -19.2755   23.2072 C   0  0  0  0  0  0  0  0  0  0  0  0
    9.0498  -20.6830   23.1937 C   0  0  0  0  0  0  0  0  0  0  0  0
    9.2575  -21.4129   24.1869 O   0  0  0  0  0  0  0  0  0  0  0  0
   11.3124  -16.9745   23.2182 C   0  0  0  0  0  0  0  0  0  0  0  0
   12.5815  -17.0571   23.2891 O   0  0  0  0  0  0  0  0  0  0  0  0
    8.4226  -21.2477   22.0979 O   0  0  0  0  0  0  0  0  0  0  0  0
    8.8907  -13.6995   28.0467 N   0  0  0  0  0  0  0  0  0  0  0  0
   10.0676  -14.2305   28.6253 C   0  0  0  0  0  0  0  0  0  0  0  0
   10.2955  -13.9759   29.8351 O   0  0  0  0  0  0  0  0  0  0  0  0
   11.0209  -15.0755   27.8210 C   0  0  0  0  0  0  0  0  0  0  0  0
   10.4749  -15.2208   26.4003 C   0  0  0  0  0  0  0  0  0  0  0  0
   11.4223  -16.1179   25.5854 C   0  0  2  0  0  0  0  0  0  0  0  0
   10.6642  -16.5107   24.3992 N   0  0  0  0  0  0  0  0  0  0  0  0
   11.7207  -17.2611   26.4727 C   0  0  0  0  0  0  0  0  0  0  0  0
   11.0920  -18.4816   26.3219 O   0  0  0  0  0  0  0  0  0  0  0  0
   12.5626  -17.1290   27.3858 O   0  0  0  0  0  0  0  0  0  0  0  0
  2  1  1  1
  2  7  1  0
  2  3  1  0
  4  3  1  0
  4  5  1  0
  5  6  2  0
  7  8  2  0
  9  5  1  0
 10 11  1  0
 10  7  1  0
 11 12  1  6
 12 13  1  0
 13 14  1  0
 14 15  2  0
 14 18  1  0
 16 11  1  0
 17 16  2  0
 20 22  1  0
 20 19  1  0
 21 20  2  0
 23 22  1  0
 24 23  1  1
 24 25  1  0
 25 16  1  0
 26 24  1  0
 27 26  1  0
 28 26  2  0
M  END
$$$$
