SHR.pdb
     RDKit          3D

 28 28  0  0  1  0  0  0  0  0999 V2000
   24.9539  -25.0900  -14.4950 O   0  0  0  0  0  0  0  0  0  0  0  0
   24.5256  -25.1708  -15.8171 C   0  0  0  0  0  0  0  0  0  0  0  0
   24.6195  -23.7961  -16.4951 C   0  0  2  0  0  0  0  0  0  0  0  0
   25.9660  -23.2838  -16.3558 N   0  0  0  0  0  0  0  0  0  0  0  0
   23.6580  -22.8803  -15.7978 C   0  0  0  0  0  0  0  0  0  0  0  0
   24.0057  -22.1376  -14.8340 O   0  0  0  0  0  0  0  0  0  0  0  0
   22.3185  -22.8602  -16.2466 N   0  0  0  0  0  0  0  0  0  0  0  0
   21.3035  -22.0023  -15.6883 C   0  0  1  0  0  0  0  0  0  0  0  0
   20.7786  -21.0103  -16.7201 C   0  0  0  0  0  0  0  0  0  0  0  0
   21.7857  -19.9803  -17.0527 C   0  0  0  0  0  0  0  0  0  0  0  0
   21.9020  -18.7671  -16.4241 C   0  0  0  0  0  0  0  0  0  0  0  0
   22.9131  -18.0625  -16.9590 N   0  0  0  0  0  0  0  0  0  0  0  0
   23.4334  -18.8354  -17.9263 C   0  0  0  0  0  0  0  0  0  0  0  0
   22.7420  -20.0113  -17.9838 N   0  0  0  0  0  0  0  0  0  0  0  0
   20.2067  -22.8417  -15.1552 C   0  0  0  0  0  0  0  0  0  0  0  0
   19.9597  -23.9722  -15.7019 O   0  0  0  0  0  0  0  0  0  0  0  0
   17.2033  -26.0930   -8.4612 N   0  0  0  0  0  0  0  0  0  0  0  0
   17.9125  -27.1308   -9.1133 C   0  0  0  0  0  0  0  0  0  0  0  0
   17.6476  -28.3649   -8.8501 N   0  0  0  0  0  0  0  0  0  0  0  0
   18.9349  -26.8764  -10.0752 N   0  0  0  0  0  0  0  0  0  0  0  0
   19.1965  -25.5258  -10.4931 C   0  0  0  0  0  0  0  0  0  0  0  0
   18.5569  -25.2038  -11.8334 C   0  0  0  0  0  0  0  0  0  0  0  0
   18.9376  -23.7819  -12.1496 C   0  0  0  0  0  0  0  0  0  0  0  0
   18.4208  -23.2711  -13.4642 C   0  0  2  0  0  0  0  0  0  0  0  0
   19.4358  -22.4024  -14.0502 N   0  0  0  0  0  0  0  0  0  0  0  0
   17.1555  -22.5244  -13.3075 C   0  0  0  0  0  0  0  0  0  0  0  0
   17.1185  -21.2763  -13.2624 O   0  0  0  0  0  0  0  0  0  0  0  0
   15.9616  -23.2528  -13.2071 O   0  0  0  0  0  0  0  0  0  0  0  0
  2  3  1  0
  2  1  1  0
  3  4  1  1
  5  6  2  0
  5  3  1  0
  7  5  1  0
  8  7  1  0
  9 10  1  0
  8  9  1  6
 10 14  1  0
 11 12  1  0
 11 10  2  0
 12 13  1  0
 13 14  2  0
 15 25  1  0
 15  8  1  0
 16 15  2  0
 18 20  1  0
 18 17  1  0
 19 18  2  0
 21 22  1  0
 21 20  1  0
 22 23  1  0
 24 23  1  1
 24 25  1  0
 26 24  1  0
 27 26  2  0
 28 26  1  0
M  END
$$$$
