SHR.pdb
     RDKit          3D

 28 28  0  0  1  0  0  0  0  0999 V2000
   19.2924   -7.4196  -12.5931 O   0  0  0  0  0  0  0  0  0  0  0  0
   19.7693   -7.6082  -13.8873 C   0  0  0  0  0  0  0  0  0  0  0  0
   20.5143   -6.3555  -14.3710 C   0  0  2  0  0  0  0  0  0  0  0  0
   19.5622   -5.2895  -14.5991 N   0  0  0  0  0  0  0  0  0  0  0  0
   21.1977   -6.7041  -15.6598 C   0  0  0  0  0  0  0  0  0  0  0  0
   20.6534   -6.5217  -16.7875 O   0  0  0  0  0  0  0  0  0  0  0  0
   22.4964   -7.2562  -15.5925 N   0  0  0  0  0  0  0  0  0  0  0  0
   23.2064   -7.7657  -16.7390 C   0  0  1  0  0  0  0  0  0  0  0  0
   24.7162   -7.6626  -16.5544 C   0  0  0  0  0  0  0  0  0  0  0  0
   25.2164   -6.3079  -16.8711 C   0  0  0  0  0  0  0  0  0  0  0  0
   24.4472   -5.2841  -17.3615 C   0  0  0  0  0  0  0  0  0  0  0  0
   25.1985   -4.1853  -17.5429 N   0  0  0  0  0  0  0  0  0  0  0  0
   26.4433   -4.5199  -17.1653 C   0  0  0  0  0  0  0  0  0  0  0  0
   26.4542   -5.8215  -16.7534 N   0  0  0  0  0  0  0  0  0  0  0  0
   22.7962   -9.1690  -16.9721 C   0  0  0  0  0  0  0  0  0  0  0  0
   22.7946   -9.9928  -15.9925 O   0  0  0  0  0  0  0  0  0  0  0  0
   17.5275  -13.6462  -14.4328 N   0  0  0  0  0  0  0  0  0  0  0  0
   17.7063  -14.4301  -15.5985 C   0  0  0  0  0  0  0  0  0  0  0  0
   17.2059  -15.6163  -15.6679 N   0  0  0  0  0  0  0  0  0  0  0  0
   18.4319  -13.9633  -16.7347 N   0  0  0  0  0  0  0  0  0  0  0  0
   19.1465  -12.7181  -16.6583 C   0  0  0  0  0  0  0  0  0  0  0  0
   19.9101  -12.4132  -17.9362 C   0  0  0  0  0  0  0  0  0  0  0  0
   20.6380  -11.1182  -17.6917 C   0  0  0  0  0  0  0  0  0  0  0  0
   21.9100  -10.9556  -18.4740 C   0  0  2  0  0  0  0  0  0  0  0  0
   22.4075   -9.6003  -18.2648 N   0  0  0  0  0  0  0  0  0  0  0  0
   21.7046  -11.1941  -19.9177 C   0  0  0  0  0  0  0  0  0  0  0  0
   21.5434  -10.2602  -20.7318 O   0  0  0  0  0  0  0  0  0  0  0  0
   21.6923  -12.5186  -20.3776 O   0  0  0  0  0  0  0  0  0  0  0  0
  2  3  1  0
  2  1  1  0
  3  4  1  6
  5  6  2  0
  5  3  1  0
  7  5  1  0
  8  7  1  0
  9 10  1  0
  8  9  1  1
 10 14  1  0
 11 12  1  0
 11 10  2  0
 12 13  1  0
 13 14  2  0
 15 25  1  0
 15  8  1  0
 16 15  2  0
 18 20  1  0
 18 17  1  0
 19 18  2  0
 21 22  1  0
 21 20  1  0
 22 23  1  0
 24 23  1  1
 24 25  1  0
 26 24  1  0
 27 26  2  0
 28 26  1  0
M  END
$$$$
