SHR.pdb
     RDKit          3D

 28 28  0  0  1  0  0  0  0  0999 V2000
   15.6499  -10.9061  -15.1652 O   0  0  0  0  0  0  0  0  0  0  0  0
   16.5514  -10.2107  -15.9663 C   0  0  0  0  0  0  0  0  0  0  0  0
   17.9543  -10.8246  -15.8503 C   0  0  2  0  0  0  0  0  0  0  0  0
   17.8368  -12.2386  -15.5643 N   0  0  0  0  0  0  0  0  0  0  0  0
   18.6569  -10.1385  -14.7167 C   0  0  0  0  0  0  0  0  0  0  0  0
   18.7638  -10.6608  -13.5690 O   0  0  0  0  0  0  0  0  0  0  0  0
   19.2129   -8.8622  -14.9575 N   0  0  0  0  0  0  0  0  0  0  0  0
   19.9351   -8.1070  -13.9644 C   0  0  1  0  0  0  0  0  0  0  0  0
   20.9316   -7.1476  -14.6053 C   0  0  0  0  0  0  0  0  0  0  0  0
   22.0812   -7.8649  -15.1967 C   0  0  0  0  0  0  0  0  0  0  0  0
   22.2950   -9.2159  -15.0998 C   0  0  0  0  0  0  0  0  0  0  0  0
   23.4247   -9.5542  -15.7433 N   0  0  0  0  0  0  0  0  0  0  0  0
   23.9219   -8.4122  -16.2459 C   0  0  0  0  0  0  0  0  0  0  0  0
   23.0980   -7.3764  -15.9107 N   0  0  0  0  0  0  0  0  0  0  0  0
   18.9644   -7.3753  -13.1193 C   0  0  0  0  0  0  0  0  0  0  0  0
   17.8364   -7.0297  -13.6155 O   0  0  0  0  0  0  0  0  0  0  0  0
   12.9989  -10.1894   -9.3207 N   0  0  0  0  0  0  0  0  0  0  0  0
   12.9194   -8.9018   -8.7366 C   0  0  0  0  0  0  0  0  0  0  0  0
   11.9211   -8.5899   -7.9826 N   0  0  0  0  0  0  0  0  0  0  0  0
   13.9150   -7.9012   -8.9437 N   0  0  0  0  0  0  0  0  0  0  0  0
   15.0509   -8.1913   -9.7759 C   0  0  0  0  0  0  0  0  0  0  0  0
   16.0222   -7.0251   -9.8512 C   0  0  0  0  0  0  0  0  0  0  0  0
   17.1364   -7.4648  -10.7634 C   0  0  0  0  0  0  0  0  0  0  0  0
   18.2643   -6.4816  -10.8957 C   0  0  2  0  0  0  0  0  0  0  0  0
   19.2762   -7.0594  -11.7734 N   0  0  0  0  0  0  0  0  0  0  0  0
   18.8675   -6.1541   -9.5872 C   0  0  0  0  0  0  0  0  0  0  0  0
   20.0001   -6.5628   -9.2536 O   0  0  0  0  0  0  0  0  0  0  0  0
   18.1338   -5.3559   -8.6980 O   0  0  0  0  0  0  0  0  0  0  0  0
  2  3  1  0
  2  1  1  0
  3  4  1  1
  5  6  2  0
  5  3  1  0
  7  5  1  0
  8  7  1  0
  9 10  1  0
  8  9  1  6
 10 14  1  0
 11 12  1  0
 11 10  2  0
 12 13  1  0
 13 14  2  0
 15 25  1  0
 15  8  1  0
 16 15  2  0
 18 20  1  0
 18 17  1  0
 19 18  2  0
 21 22  1  0
 21 20  1  0
 22 23  1  0
 24 23  1  1
 24 25  1  0
 26 24  1  0
 27 26  2  0
 28 26  1  0
M  END
$$$$
