SHR.pdb
     RDKit          3D

 28 28  0  0  1  0  0  0  0  0999 V2000
   27.9583  -11.6122  -15.2321 O   0  0  0  0  0  0  0  0  0  0  0  0
   27.5419  -12.7246  -15.9580 C   0  0  0  0  0  0  0  0  0  0  0  0
   27.6458  -12.4496  -17.4653 C   0  0  2  0  0  0  0  0  0  0  0  0
   28.9785  -11.9777  -17.7758 N   0  0  0  0  0  0  0  0  0  0  0  0
   26.6440  -11.3854  -17.8020 C   0  0  0  0  0  0  0  0  0  0  0  0
   26.9624  -10.1663  -17.9192 O   0  0  0  0  0  0  0  0  0  0  0  0
   25.2998  -11.7772  -17.9907 N   0  0  0  0  0  0  0  0  0  0  0  0
   24.2611  -10.8778  -18.4269 C   0  0  1  0  0  0  0  0  0  0  0  0
   23.2057  -11.6008  -19.2563 C   0  0  0  0  0  0  0  0  0  0  0  0
   23.6857  -11.8885  -20.6247 C   0  0  0  0  0  0  0  0  0  0  0  0
   24.7408  -11.2584  -21.2330 C   0  0  0  0  0  0  0  0  0  0  0  0
   24.9216  -11.7471  -22.4713 N   0  0  0  0  0  0  0  0  0  0  0  0
   23.9772  -12.6869  -22.6412 C   0  0  0  0  0  0  0  0  0  0  0  0
   23.2194  -12.7736  -21.5088 N   0  0  0  0  0  0  0  0  0  0  0  0
   23.6530  -10.2360  -17.2394 C   0  0  0  0  0  0  0  0  0  0  0  0
   23.6078  -10.8786  -16.1335 O   0  0  0  0  0  0  0  0  0  0  0  0
   22.3537   -1.6308  -16.1494 N   0  0  0  0  0  0  0  0  0  0  0  0
   21.8304   -2.1651  -14.9470 C   0  0  0  0  0  0  0  0  0  0  0  0
   21.3949   -1.3801  -14.0215 N   0  0  0  0  0  0  0  0  0  0  0  0
   21.7566   -3.5678  -14.6973 N   0  0  0  0  0  0  0  0  0  0  0  0
   22.1799   -4.4931  -15.7131 C   0  0  0  0  0  0  0  0  0  0  0  0
   22.1037   -5.9366  -15.2447 C   0  0  0  0  0  0  0  0  0  0  0  0
   22.6863   -6.7698  -16.3552 C   0  0  0  0  0  0  0  0  0  0  0  0
   22.6203   -8.2532  -16.1281 C   0  0  2  0  0  0  0  0  0  0  0  0
   23.1257   -8.9232  -17.3213 N   0  0  0  0  0  0  0  0  0  0  0  0
   21.2429   -8.7078  -15.8466 C   0  0  0  0  0  0  0  0  0  0  0  0
   20.5064   -9.1930  -16.7317 O   0  0  0  0  0  0  0  0  0  0  0  0
   20.7569   -8.5855  -14.5370 O   0  0  0  0  0  0  0  0  0  0  0  0
  2  3  1  0
  2  1  1  0
  3  4  1  1
  5  6  2  0
  5  3  1  0
  7  5  1  0
  8  7  1  0
  9 10  1  0
  8  9  1  1
 10 14  1  0
 11 12  1  0
 11 10  2  0
 12 13  1  0
 13 14  2  0
 15 25  1  0
 15  8  1  0
 16 15  2  0
 18 20  1  0
 18 17  1  0
 19 18  2  0
 21 22  1  0
 21 20  1  0
 22 23  1  0
 24 23  1  6
 24 25  1  0
 26 24  1  0
 27 26  2  0
 28 26  1  0
M  END
$$$$
