SHR.pdb
     RDKit          3D

 28 28  0  0  1  0  0  0  0  0999 V2000
   25.8377  -15.0751  -15.8016 O   0  0  0  0  0  0  0  0  0  0  0  0
   24.8258  -14.3155  -16.3820 C   0  0  0  0  0  0  0  0  0  0  0  0
   24.0593  -15.1487  -17.4196 C   0  0  2  0  0  0  0  0  0  0  0  0
   23.0026  -14.3440  -17.9948 N   0  0  0  0  0  0  0  0  0  0  0  0
   23.4637  -16.3254  -16.7054 C   0  0  0  0  0  0  0  0  0  0  0  0
   22.5804  -16.1987  -15.8081 O   0  0  0  0  0  0  0  0  0  0  0  0
   23.9185  -17.6151  -17.0603 N   0  0  0  0  0  0  0  0  0  0  0  0
   23.4936  -18.8212  -16.3949 C   0  0  1  0  0  0  0  0  0  0  0  0
   22.9543  -19.8473  -17.3852 C   0  0  0  0  0  0  0  0  0  0  0  0
   21.5882  -19.5079  -17.8374 C   0  0  0  0  0  0  0  0  0  0  0  0
   20.4385  -19.8203  -17.1586 C   0  0  0  0  0  0  0  0  0  0  0  0
   19.3658  -19.3736  -17.8329 N   0  0  0  0  0  0  0  0  0  0  0  0
   19.8432  -18.7790  -18.9384 C   0  0  0  0  0  0  0  0  0  0  0  0
   21.2060  -18.8613  -18.9412 N   0  0  0  0  0  0  0  0  0  0  0  0
   24.6341  -19.3733  -15.6291 C   0  0  0  0  0  0  0  0  0  0  0  0
   25.7802  -19.4664  -16.1909 O   0  0  0  0  0  0  0  0  0  0  0  0
   25.2574  -20.6620   -6.8653 N   0  0  0  0  0  0  0  0  0  0  0  0
   24.6713  -21.5231   -7.8247 C   0  0  0  0  0  0  0  0  0  0  0  0
   23.6800  -22.2807   -7.4994 N   0  0  0  0  0  0  0  0  0  0  0  0
   25.1326  -21.5991   -9.1726 N   0  0  0  0  0  0  0  0  0  0  0  0
   25.8609  -20.4955   -9.7372 C   0  0  0  0  0  0  0  0  0  0  0  0
   26.3317  -20.7809  -11.1535 C   0  0  0  0  0  0  0  0  0  0  0  0
   25.2897  -20.1946  -12.0686 C   0  0  0  0  0  0  0  0  0  0  0  0
   25.5881  -20.3389  -13.5337 C   0  0  2  0  0  0  0  0  0  0  0  0
   24.4634  -19.7949  -14.2869 N   0  0  0  0  0  0  0  0  0  0  0  0
   25.8086  -21.7491  -13.9159 C   0  0  0  0  0  0  0  0  0  0  0  0
   26.9271  -22.2982  -13.8239 O   0  0  0  0  0  0  0  0  0  0  0  0
   24.7170  -22.4861  -14.3968 O   0  0  0  0  0  0  0  0  0  0  0  0
  2  3  1  0
  2  1  1  0
  3  4  1  1
  5  6  2  0
  5  3  1  0
  7  5  1  0
  8  7  1  0
  9 10  1  0
  8  9  1  6
 10 14  1  0
 11 12  1  0
 11 10  2  0
 12 13  1  0
 13 14  2  0
 15 25  1  0
 15  8  1  0
 16 15  2  0
 18 20  1  0
 18 17  1  0
 19 18  2  0
 21 22  1  0
 21 20  1  0
 22 23  1  0
 24 23  1  1
 24 25  1  0
 26 24  1  0
 27 26  2  0
 28 26  1  0
M  END
$$$$
