SHR.pdb
     RDKit          3D

 28 28  0  0  1  0  0  0  0  0999 V2000
   31.0458  -27.9956  -18.0552 O   0  0  0  0  0  0  0  0  0  0  0  0
   29.8831  -27.2315  -18.0999 C   0  0  0  0  0  0  0  0  0  0  0  0
   29.7292  -26.4151  -16.8083 C   0  0  2  0  0  0  0  0  0  0  0  0
   29.9328  -27.2812  -15.6666 N   0  0  0  0  0  0  0  0  0  0  0  0
   28.3332  -25.8675  -16.7819 C   0  0  0  0  0  0  0  0  0  0  0  0
   27.4755  -26.2364  -15.9278 O   0  0  0  0  0  0  0  0  0  0  0  0
   27.9806  -24.9057  -17.7549 N   0  0  0  0  0  0  0  0  0  0  0  0
   26.7071  -24.2308  -17.7837 C   0  0  1  0  0  0  0  0  0  0  0  0
   26.7268  -23.0374  -18.7323 C   0  0  0  0  0  0  0  0  0  0  0  0
   25.4167  -22.3540  -18.7814 C   0  0  0  0  0  0  0  0  0  0  0  0
   24.4345  -22.6092  -19.7036 C   0  0  0  0  0  0  0  0  0  0  0  0
   23.3695  -21.8224  -19.4769 N   0  0  0  0  0  0  0  0  0  0  0  0
   23.6837  -21.0707  -18.4091 C   0  0  0  0  0  0  0  0  0  0  0  0
   24.9391  -21.3967  -17.9827 N   0  0  0  0  0  0  0  0  0  0  0  0
   25.6593  -25.2008  -18.1750 C   0  0  0  0  0  0  0  0  0  0  0  0
   25.9667  -26.1828  -18.9360 O   0  0  0  0  0  0  0  0  0  0  0  0
   24.2439  -32.0909  -15.3322 N   0  0  0  0  0  0  0  0  0  0  0  0
   23.0498  -32.0331  -16.0911 C   0  0  0  0  0  0  0  0  0  0  0  0
   22.3000  -33.0758  -16.2046 N   0  0  0  0  0  0  0  0  0  0  0  0
   22.6187  -30.8470  -16.7564 N   0  0  0  0  0  0  0  0  0  0  0  0
   23.4362  -29.6656  -16.7025 C   0  0  0  0  0  0  0  0  0  0  0  0
   22.7914  -28.4865  -17.4118 C   0  0  0  0  0  0  0  0  0  0  0  0
   23.7738  -27.3496  -17.3147 C   0  0  0  0  0  0  0  0  0  0  0  0
   23.3301  -26.0780  -17.9799 C   0  0  2  0  0  0  0  0  0  0  0  0
   24.3282  -25.0481  -17.7133 N   0  0  0  0  0  0  0  0  0  0  0  0
   22.0094  -25.6309  -17.4909 C   0  0  0  0  0  0  0  0  0  0  0  0
   21.8669  -24.5953  -16.8066 O   0  0  0  0  0  0  0  0  0  0  0  0
   20.8847  -26.4038  -17.8129 O   0  0  0  0  0  0  0  0  0  0  0  0
  2  3  1  0
  2  1  1  0
  3  4  1  1
  5  6  2  0
  5  3  1  0
  7  5  1  0
  8  7  1  0
  9 10  1  0
  8  9  1  6
 10 14  1  0
 11 12  1  0
 11 10  2  0
 12 13  1  0
 13 14  2  0
 15 25  1  0
 15  8  1  0
 16 15  2  0
 18 20  1  0
 18 17  1  0
 19 18  2  0
 21 22  1  0
 21 20  1  0
 22 23  1  0
 24 23  1  1
 24 25  1  0
 26 24  1  0
 27 26  2  0
 28 26  1  0
M  END
$$$$
