SHR.pdb
     RDKit          3D

 28 28  0  0  1  0  0  0  0  0999 V2000
   23.9778  -21.8938  -18.6500 O   0  0  0  0  0  0  0  0  0  0  0  0
   24.0509  -20.5711  -19.0779 C   0  0  0  0  0  0  0  0  0  0  0  0
   25.0480  -19.7838  -18.2152 C   0  0  2  0  0  0  0  0  0  0  0  0
   26.2445  -20.5752  -18.0224 N   0  0  0  0  0  0  0  0  0  0  0  0
   24.3957  -19.5266  -16.8894 C   0  0  0  0  0  0  0  0  0  0  0  0
   24.8395  -20.0134  -15.8089 O   0  0  0  0  0  0  0  0  0  0  0  0
   23.2437  -18.7091  -16.8655 N   0  0  0  0  0  0  0  0  0  0  0  0
   22.6187  -18.2476  -15.6513 C   0  0  1  0  0  0  0  0  0  0  0  0
   22.3398  -16.7495  -15.6991 C   0  0  0  0  0  0  0  0  0  0  0  0
   23.5753  -15.9557  -15.5286 C   0  0  0  0  0  0  0  0  0  0  0  0
   24.8258  -16.4848  -15.3373 C   0  0  0  0  0  0  0  0  0  0  0  0
   25.7326  -15.5008  -15.2177 N   0  0  0  0  0  0  0  0  0  0  0  0
   25.0496  -14.3502  -15.3342 C   0  0  0  0  0  0  0  0  0  0  0  0
   23.7268  -14.6292  -15.5248 N   0  0  0  0  0  0  0  0  0  0  0  0
   21.3695  -19.0120  -15.4346 C   0  0  0  0  0  0  0  0  0  0  0  0
   20.6947  -19.4104  -16.4466 O   0  0  0  0  0  0  0  0  0  0  0  0
   18.7722  -24.8165  -11.4999 N   0  0  0  0  0  0  0  0  0  0  0  0
   17.7581  -24.2385  -10.6982 C   0  0  0  0  0  0  0  0  0  0  0  0
   16.7368  -24.9377  -10.3368 N   0  0  0  0  0  0  0  0  0  0  0  0
   17.8076  -22.8833  -10.2551 N   0  0  0  0  0  0  0  0  0  0  0  0
   18.8509  -22.0175  -10.7337 C   0  0  0  0  0  0  0  0  0  0  0  0
   18.6021  -21.5489  -12.1576 C   0  0  0  0  0  0  0  0  0  0  0  0
   19.7610  -20.6564  -12.5145 C   0  0  0  0  0  0  0  0  0  0  0  0
   19.7204  -20.1028  -13.9103 C   0  0  2  0  0  0  0  0  0  0  0  0
   20.9219  -19.3029  -14.1219 N   0  0  0  0  0  0  0  0  0  0  0  0
   18.5209  -19.2711  -14.1397 C   0  0  0  0  0  0  0  0  0  0  0  0
   17.4674  -19.7383  -14.6224 O   0  0  0  0  0  0  0  0  0  0  0  0
   18.5793  -17.9120  -13.7997 O   0  0  0  0  0  0  0  0  0  0  0  0
  2  3  1  0
  2  1  1  0
  3  4  1  1
  5  6  2  0
  5  3  1  0
  7  5  1  0
  8  7  1  0
  9 10  1  0
  8  9  1  6
 10 14  1  0
 11 12  1  0
 11 10  2  0
 12 13  1  0
 13 14  2  0
 15 25  1  0
 15  8  1  0
 16 15  2  0
 18 20  1  0
 18 17  1  0
 19 18  2  0
 21 22  1  0
 21 20  1  0
 22 23  1  0
 24 23  1  1
 24 25  1  0
 26 24  1  0
 27 26  2  0
 28 26  1  0
M  END
$$$$
