SHR.pdb
     RDKit          3D

 28 28  0  0  1  0  0  0  0  0999 V2000
   20.9192   -3.2903  -12.8523 O   0  0  0  0  0  0  0  0  0  0  0  0
   19.8342   -4.0080  -12.3568 C   0  0  0  0  0  0  0  0  0  0  0  0
   19.4319   -5.1168  -13.3402 C   0  0  2  0  0  0  0  0  0  0  0  0
   19.1553   -4.5321  -14.6350 N   0  0  0  0  0  0  0  0  0  0  0  0
   18.1905   -5.7675  -12.8064 C   0  0  0  0  0  0  0  0  0  0  0  0
   17.0294   -5.3798  -13.1271 O   0  0  0  0  0  0  0  0  0  0  0  0
   18.3427   -6.8513  -11.9129 N   0  0  0  0  0  0  0  0  0  0  0  0
   17.2363   -7.6053  -11.3786 C   0  0  1  0  0  0  0  0  0  0  0  0
   17.6350   -9.0448  -11.0727 C   0  0  0  0  0  0  0  0  0  0  0  0
   16.4826   -9.8466  -10.6094 C   0  0  0  0  0  0  0  0  0  0  0  0
   16.0887   -9.9684   -9.3016 C   0  0  0  0  0  0  0  0  0  0  0  0
   15.0102  -10.7647   -9.2142 N   0  0  0  0  0  0  0  0  0  0  0  0
   14.7259  -11.1441  -10.4708 C   0  0  0  0  0  0  0  0  0  0  0  0
   15.6288  -10.5811  -11.3263 N   0  0  0  0  0  0  0  0  0  0  0  0
   16.7352   -6.9251  -10.1629 C   0  0  0  0  0  0  0  0  0  0  0  0
   17.5695   -6.3750   -9.3632 O   0  0  0  0  0  0  0  0  0  0  0  0
   17.2040   -0.7753   -6.4426 N   0  0  0  0  0  0  0  0  0  0  0  0
   15.8250   -0.9084   -6.1496 C   0  0  0  0  0  0  0  0  0  0  0  0
   15.3176   -0.3149   -5.1236 N   0  0  0  0  0  0  0  0  0  0  0  0
   14.9402   -1.6871   -6.9534 N   0  0  0  0  0  0  0  0  0  0  0  0
   15.4681   -2.7495   -7.7655 C   0  0  0  0  0  0  0  0  0  0  0  0
   14.3766   -3.5078   -8.5022 C   0  0  0  0  0  0  0  0  0  0  0  0
   15.0754   -4.5628   -9.3181 C   0  0  0  0  0  0  0  0  0  0  0  0
   14.8256   -5.9734   -8.8665 C   0  0  2  0  0  0  0  0  0  0  0  0
   15.3466   -6.8801   -9.8837 N   0  0  0  0  0  0  0  0  0  0  0  0
   13.3878   -6.2380   -8.6520 C   0  0  0  0  0  0  0  0  0  0  0  0
   12.6454   -6.6665   -9.5610 O   0  0  0  0  0  0  0  0  0  0  0  0
   12.8498   -5.9960   -7.3799 O   0  0  0  0  0  0  0  0  0  0  0  0
  2  3  1  0
  2  1  1  0
  3  4  1  6
  5  6  2  0
  5  3  1  0
  7  5  1  0
  8  7  1  0
  9 10  1  0
  8  9  1  1
 10 14  1  0
 11 12  1  0
 11 10  2  0
 12 13  1  0
 13 14  2  0
 15 25  1  0
 15  8  1  0
 16 15  2  0
 18 20  1  0
 18 17  1  0
 19 18  2  0
 21 22  1  0
 21 20  1  0
 22 23  1  0
 24 23  1  6
 24 25  1  0
 26 24  1  0
 27 26  2  0
 28 26  1  0
M  END
$$$$
