SHR.pdb
     RDKit          3D

 28 28  0  0  1  0  0  0  0  0999 V2000
   13.5782   -8.1603   -7.0275 O   0  0  0  0  0  0  0  0  0  0  0  0
   14.3485   -7.7204   -8.1003 C   0  0  0  0  0  0  0  0  0  0  0  0
   14.6871   -6.2309   -7.9409 C   0  0  2  0  0  0  0  0  0  0  0  0
   13.4607   -5.4654   -7.8700 N   0  0  0  0  0  0  0  0  0  0  0  0
   15.4721   -5.8129   -9.1486 C   0  0  0  0  0  0  0  0  0  0  0  0
   14.9245   -5.5696  -10.2631 O   0  0  0  0  0  0  0  0  0  0  0  0
   16.8737   -5.6925   -9.0183 N   0  0  0  0  0  0  0  0  0  0  0  0
   17.7668   -5.5247  -10.1373 C   0  0  1  0  0  0  0  0  0  0  0  0
   19.0765   -4.8679   -9.7153 C   0  0  0  0  0  0  0  0  0  0  0  0
   20.0327   -4.7791  -10.8393 C   0  0  0  0  0  0  0  0  0  0  0  0
   21.0874   -5.6322  -11.0394 C   0  0  0  0  0  0  0  0  0  0  0  0
   21.7631   -5.2828  -12.1467 N   0  0  0  0  0  0  0  0  0  0  0  0
   21.1309   -4.2071  -12.6437 C   0  0  0  0  0  0  0  0  0  0  0  0
   20.0698   -3.8982  -11.8419 N   0  0  0  0  0  0  0  0  0  0  0  0
   18.0131   -6.8466  -10.7566 C   0  0  0  0  0  0  0  0  0  0  0  0
   18.3087   -7.8434  -10.0102 O   0  0  0  0  0  0  0  0  0  0  0  0
   13.1900  -11.7109  -15.4717 N   0  0  0  0  0  0  0  0  0  0  0  0
   14.4189  -12.4059  -15.5810 C   0  0  0  0  0  0  0  0  0  0  0  0
   14.4506  -13.5984  -16.0703 N   0  0  0  0  0  0  0  0  0  0  0  0
   15.6614  -11.8401  -15.1668 N   0  0  0  0  0  0  0  0  0  0  0  0
   15.6667  -10.6326  -14.3865 C   0  0  0  0  0  0  0  0  0  0  0  0
   17.0748  -10.1390  -14.0992 C   0  0  0  0  0  0  0  0  0  0  0  0
   16.9213   -8.8843  -13.2813 C   0  0  0  0  0  0  0  0  0  0  0  0
   18.2106   -8.3039  -12.7741 C   0  0  2  0  0  0  0  0  0  0  0  0
   17.9225   -7.0118  -12.1611 N   0  0  0  0  0  0  0  0  0  0  0  0
   19.2023   -8.1326  -13.8559 C   0  0  0  0  0  0  0  0  0  0  0  0
   19.2149   -7.1262  -14.5962 O   0  0  0  0  0  0  0  0  0  0  0  0
   20.1572   -9.1412  -14.0484 O   0  0  0  0  0  0  0  0  0  0  0  0
  2  3  1  0
  2  1  1  0
  3  4  1  6
  5  6  2  0
  5  3  1  0
  7  5  1  0
  8  7  1  0
  9 10  1  0
  8  9  1  1
 10 14  1  0
 11 12  1  0
 11 10  2  0
 12 13  1  0
 13 14  2  0
 15 25  1  0
 15  8  1  0
 16 15  2  0
 18 20  1  0
 18 17  1  0
 19 18  2  0
 21 22  1  0
 21 20  1  0
 22 23  1  0
 24 23  1  6
 24 25  1  0
 26 24  1  0
 27 26  2  0
 28 26  1  0
M  END
$$$$
