SHR.pdb
     RDKit          3D

 28 28  0  0  1  0  0  0  0  0999 V2000
   23.3223  -20.3696  -21.4897 O   0  0  0  0  0  0  0  0  0  0  0  0
   23.5255  -19.0149  -21.7376 C   0  0  0  0  0  0  0  0  0  0  0  0
   24.9974  -18.6433  -21.5053 C   0  0  2  0  0  0  0  0  0  0  0  0
   25.8463  -19.6625  -22.0847 N   0  0  0  0  0  0  0  0  0  0  0  0
   25.2215  -18.5844  -20.0235 C   0  0  0  0  0  0  0  0  0  0  0  0
   26.1413  -19.2373  -19.4498 O   0  0  0  0  0  0  0  0  0  0  0  0
   24.3638  -17.7651  -19.2560 N   0  0  0  0  0  0  0  0  0  0  0  0
   24.5549  -17.5068  -17.8508 C   0  0  1  0  0  0  0  0  0  0  0  0
   24.3380  -16.0351  -17.5170 C   0  0  0  0  0  0  0  0  0  0  0  0
   25.5638  -15.2372  -17.7327 C   0  0  0  0  0  0  0  0  0  0  0  0
   26.7921  -15.7587  -18.0483 C   0  0  0  0  0  0  0  0  0  0  0  0
   27.6955  -14.7728  -18.1773 N   0  0  0  0  0  0  0  0  0  0  0  0
   27.0326  -13.6286  -17.9421 C   0  0  0  0  0  0  0  0  0  0  0  0
   25.7255  -13.9134  -17.6695 N   0  0  0  0  0  0  0  0  0  0  0  0
   23.6324  -18.3669  -17.0755 C   0  0  0  0  0  0  0  0  0  0  0  0
   22.4263  -18.5148  -17.4773 O   0  0  0  0  0  0  0  0  0  0  0  0
   26.3744  -21.4602  -10.3946 N   0  0  0  0  0  0  0  0  0  0  0  0
   25.0472  -21.2963   -9.9291 C   0  0  0  0  0  0  0  0  0  0  0  0
   24.8240  -20.9619   -8.7040 N   0  0  0  0  0  0  0  0  0  0  0  0
   23.9094  -21.4867  -10.7684 N   0  0  0  0  0  0  0  0  0  0  0  0
   24.0889  -21.9798  -12.1069 C   0  0  0  0  0  0  0  0  0  0  0  0
   23.1101  -21.3547  -13.0869 C   0  0  0  0  0  0  0  0  0  0  0  0
   23.9284  -20.4749  -13.9942 C   0  0  0  0  0  0  0  0  0  0  0  0
   23.1618  -19.8580  -15.1291 C   0  0  2  0  0  0  0  0  0  0  0  0
   24.0761  -19.0227  -15.9002 N   0  0  0  0  0  0  0  0  0  0  0  0
   22.0262  -19.0433  -14.6498 C   0  0  0  0  0  0  0  0  0  0  0  0
   20.8768  -19.5144  -14.5152 O   0  0  0  0  0  0  0  0  0  0  0  0
   22.2591  -17.6961  -14.3383 O   0  0  0  0  0  0  0  0  0  0  0  0
  2  3  1  0
  2  1  1  0
  3  4  1  1
  5  6  2  0
  5  3  1  0
  7  5  1  0
  8  7  1  0
  9 10  1  0
  8  9  1  6
 10 14  1  0
 11 12  1  0
 11 10  2  0
 12 13  1  0
 13 14  2  0
 15 25  1  0
 15  8  1  0
 16 15  2  0
 18 20  1  0
 18 17  1  0
 19 18  2  0
 21 22  1  0
 21 20  1  0
 22 23  1  0
 24 23  1  1
 24 25  1  0
 26 24  1  0
 27 26  2  0
 28 26  1  0
M  END
$$$$
