SHR.pdb
     RDKit          3D

 28 28  0  0  1  0  0  0  0  0999 V2000
   22.4584  -20.8802   -9.0667 O   0  0  0  0  0  0  0  0  0  0  0  0
   23.5658  -21.7218   -9.0096 C   0  0  0  0  0  0  0  0  0  0  0  0
   24.8636  -20.9010   -9.0345 C   0  0  2  0  0  0  0  0  0  0  0  0
   24.7949  -19.8649   -8.0261 N   0  0  0  0  0  0  0  0  0  0  0  0
   24.9777  -20.2748  -10.3925 C   0  0  0  0  0  0  0  0  0  0  0  0
   24.2708  -19.2865  -10.7457 O   0  0  0  0  0  0  0  0  0  0  0  0
   25.9139  -20.8225  -11.2978 N   0  0  0  0  0  0  0  0  0  0  0  0
   26.1237  -20.3164  -12.6311 C   0  0  1  0  0  0  0  0  0  0  0  0
   27.4306  -20.8289  -13.2259 C   0  0  0  0  0  0  0  0  0  0  0  0
   27.6921  -20.2467  -14.5594 C   0  0  0  0  0  0  0  0  0  0  0  0
   26.8485  -19.3900  -15.2189 C   0  0  0  0  0  0  0  0  0  0  0  0
   27.3741  -19.0433  -16.4056 N   0  0  0  0  0  0  0  0  0  0  0  0
   28.5514  -19.6840  -16.4917 C   0  0  0  0  0  0  0  0  0  0  0  0
   28.7463  -20.4219  -15.3596 N   0  0  0  0  0  0  0  0  0  0  0  0
   24.9708  -20.7007  -13.4766 C   0  0  0  0  0  0  0  0  0  0  0  0
   24.4470  -21.8597  -13.3335 O   0  0  0  0  0  0  0  0  0  0  0  0
   17.1425  -19.1987  -12.9274 N   0  0  0  0  0  0  0  0  0  0  0  0
   17.2236  -20.2865  -13.8303 C   0  0  0  0  0  0  0  0  0  0  0  0
   16.1903  -21.0244  -14.0544 N   0  0  0  0  0  0  0  0  0  0  0  0
   18.4234  -20.6194  -14.5267 N   0  0  0  0  0  0  0  0  0  0  0  0
   19.6463  -19.9376  -14.2005 C   0  0  0  0  0  0  0  0  0  0  0  0
   20.7709  -20.2801  -15.1633 C   0  0  0  0  0  0  0  0  0  0  0  0
   22.0534  -19.9649  -14.4402 C   0  0  0  0  0  0  0  0  0  0  0  0
   23.2994  -20.1700  -15.2537 C   0  0  2  0  0  0  0  0  0  0  0  0
   24.4482  -19.7974  -14.4354 N   0  0  0  0  0  0  0  0  0  0  0  0
   23.2882  -19.3656  -16.4931 C   0  0  0  0  0  0  0  0  0  0  0  0
   23.6579  -18.1724  -16.5175 O   0  0  0  0  0  0  0  0  0  0  0  0
   22.8453  -19.9738  -17.6764 O   0  0  0  0  0  0  0  0  0  0  0  0
  2  3  1  0
  2  1  1  0
  3  4  1  1
  5  6  2  0
  5  3  1  0
  7  5  1  0
  8  7  1  0
  9 10  1  0
  8  9  1  6
 10 14  1  0
 11 12  1  0
 11 10  2  0
 12 13  1  0
 13 14  2  0
 15 25  1  0
 15  8  1  0
 16 15  2  0
 18 20  1  0
 18 17  1  0
 19 18  2  0
 21 22  1  0
 21 20  1  0
 22 23  1  0
 24 23  1  1
 24 25  1  0
 26 24  1  0
 27 26  2  0
 28 26  1  0
M  END
$$$$
