SHR.pdb
     RDKit          3D

 28 28  0  0  1  0  0  0  0  0999 V2000
   25.2383  -14.8231  -15.1500 O   0  0  0  0  0  0  0  0  0  0  0  0
   24.5341  -13.7283  -15.6434 C   0  0  0  0  0  0  0  0  0  0  0  0
   23.1197  -14.1492  -16.0685 C   0  0  2  0  0  0  0  0  0  0  0  0
   23.2051  -15.0229  -17.2194 N   0  0  0  0  0  0  0  0  0  0  0  0
   22.3678  -12.9046  -16.4363 C   0  0  0  0  0  0  0  0  0  0  0  0
   22.2795  -12.4927  -17.6295 O   0  0  0  0  0  0  0  0  0  0  0  0
   21.7423  -12.1779  -15.3987 N   0  0  0  0  0  0  0  0  0  0  0  0
   20.8195  -11.0945  -15.6285 C   0  0  1  0  0  0  0  0  0  0  0  0
   19.5007  -11.3170  -14.8964 C   0  0  0  0  0  0  0  0  0  0  0  0
   18.6867  -12.3699  -15.5402 C   0  0  0  0  0  0  0  0  0  0  0  0
   18.0889  -12.2559  -16.7690 C   0  0  0  0  0  0  0  0  0  0  0  0
   17.4234  -13.3840  -17.0676 N   0  0  0  0  0  0  0  0  0  0  0  0
   17.6037  -14.2091  -16.0232 C   0  0  0  0  0  0  0  0  0  0  0  0
   18.3784  -13.5872  -15.0867 N   0  0  0  0  0  0  0  0  0  0  0  0
   21.4537   -9.8262  -15.2030 C   0  0  0  0  0  0  0  0  0  0  0  0
   22.0553   -9.7737  -14.0746 O   0  0  0  0  0  0  0  0  0  0  0  0
   21.5164   -2.1656  -19.5774 N   0  0  0  0  0  0  0  0  0  0  0  0
   22.3935   -1.9063  -18.4963 C   0  0  0  0  0  0  0  0  0  0  0  0
   22.9159   -0.7368  -18.3485 N   0  0  0  0  0  0  0  0  0  0  0  0
   22.7401   -2.8995  -17.5326 N   0  0  0  0  0  0  0  0  0  0  0  0
   22.2179   -4.2322  -17.6671 C   0  0  0  0  0  0  0  0  0  0  0  0
   22.5118   -5.0914  -16.4487 C   0  0  0  0  0  0  0  0  0  0  0  0
   21.9424   -6.4528  -16.7476 C   0  0  0  0  0  0  0  0  0  0  0  0
   22.0065   -7.4249  -15.6042 C   0  0  2  0  0  0  0  0  0  0  0  0
   21.3986   -8.6795  -16.0338 N   0  0  0  0  0  0  0  0  0  0  0  0
   21.3062   -6.9158  -14.4068 C   0  0  0  0  0  0  0  0  0  0  0  0
   20.0708   -7.0288  -14.2580 O   0  0  0  0  0  0  0  0  0  0  0  0
   22.0653   -6.2862  -13.4101 O   0  0  0  0  0  0  0  0  0  0  0  0
  2  3  1  0
  2  1  1  0
  3  4  1  6
  5  6  2  0
  5  3  1  0
  7  5  1  0
  8  7  1  0
  9 10  1  0
  8  9  1  1
 10 14  1  0
 11 12  1  0
 11 10  2  0
 12 13  1  0
 13 14  2  0
 15 25  1  0
 15  8  1  0
 16 15  2  0
 18 20  1  0
 18 17  1  0
 19 18  2  0
 21 22  1  0
 21 20  1  0
 22 23  1  0
 24 23  1  6
 24 25  1  0
 26 24  1  0
 27 26  2  0
 28 26  1  0
M  END
$$$$
