SHR.pdb
     RDKit          3D

 28 28  0  0  1  0  0  0  0  0999 V2000
   46.0498  -13.2926  -10.1538 O   0  0  0  0  0  0  0  0  0  0  0  0
   45.1659  -12.3716   -9.5986 C   0  0  0  0  0  0  0  0  0  0  0  0
   45.8130  -11.6652   -8.3983 C   0  0  2  0  0  0  0  0  0  0  0  0
   46.2048  -12.6525   -7.4151 N   0  0  0  0  0  0  0  0  0  0  0  0
   44.7867  -10.7454   -7.8065 C   0  0  0  0  0  0  0  0  0  0  0  0
   43.8141  -11.1682   -7.1160 O   0  0  0  0  0  0  0  0  0  0  0  0
   44.9269   -9.3591   -8.0397 N   0  0  0  0  0  0  0  0  0  0  0  0
   43.9566   -8.3783   -7.6216 C   0  0  1  0  0  0  0  0  0  0  0  0
   44.4637   -6.9579   -7.8449 C   0  0  0  0  0  0  0  0  0  0  0  0
   43.4985   -5.9483   -7.3604 C   0  0  0  0  0  0  0  0  0  0  0  0
   42.3667   -6.2299   -6.6391 C   0  0  0  0  0  0  0  0  0  0  0  0
   41.7049   -5.0963   -6.3532 N   0  0  0  0  0  0  0  0  0  0  0  0
   42.4230   -4.0998   -6.8965 C   0  0  0  0  0  0  0  0  0  0  0  0
   43.5228   -4.6224   -7.5142 N   0  0  0  0  0  0  0  0  0  0  0  0
   42.6927   -8.6108   -8.3567 C   0  0  0  0  0  0  0  0  0  0  0  0
   42.7352   -8.8831   -9.6065 O   0  0  0  0  0  0  0  0  0  0  0  0
   35.8294  -12.9910   -5.5275 N   0  0  0  0  0  0  0  0  0  0  0  0
   35.6569  -12.8837   -6.9290 C   0  0  0  0  0  0  0  0  0  0  0  0
   34.8549  -13.6806   -7.5487 N   0  0  0  0  0  0  0  0  0  0  0  0
   36.3434  -11.9114   -7.7155 N   0  0  0  0  0  0  0  0  0  0  0  0
   37.5403  -11.3007   -7.2040 C   0  0  0  0  0  0  0  0  0  0  0  0
   38.1519  -10.3188   -8.1893 C   0  0  0  0  0  0  0  0  0  0  0  0
   39.4633   -9.8848   -7.5903 C   0  0  0  0  0  0  0  0  0  0  0  0
   40.2082   -8.8543   -8.3901 C   0  0  2  0  0  0  0  0  0  0  0  0
   41.4460   -8.5346   -7.6872 N   0  0  0  0  0  0  0  0  0  0  0  0
   39.4126   -7.6243   -8.5832 C   0  0  0  0  0  0  0  0  0  0  0  0
   39.5592   -6.6147   -7.8620 O   0  0  0  0  0  0  0  0  0  0  0  0
   38.4635   -7.6017   -9.6151 O   0  0  0  0  0  0  0  0  0  0  0  0
  2  3  1  0
  2  1  1  0
  3  4  1  1
  5  6  2  0
  5  3  1  0
  7  5  1  0
  8  7  1  0
  9 10  1  0
  8  9  1  6
 10 14  1  0
 11 12  1  0
 11 10  2  0
 12 13  1  0
 13 14  2  0
 15 25  1  0
 15  8  1  0
 16 15  2  0
 18 20  1  0
 18 17  1  0
 19 18  2  0
 21 22  1  0
 21 20  1  0
 22 23  1  0
 24 23  1  1
 24 25  1  0
 26 24  1  0
 27 26  2  0
 28 26  1  0
M  END
$$$$
