YNP.pdb
     RDKit          3D

 28 29  0  0  1  0  0  0  0  0999 V2000
   10.0982  -13.8945   15.0994 O   0  0  0  0  0  0  0  0  0  0  0  0
    9.4544  -13.9523   16.3401 C   0  0  0  0  0  0  0  0  0  0  0  0
    8.1259  -13.6122   16.4843 C   0  0  0  0  0  0  0  0  0  0  0  0
    7.4984  -13.6720   17.7117 C   0  0  0  0  0  0  0  0  0  0  0  0
    8.1676  -14.0732   18.8491 C   0  0  0  0  0  0  0  0  0  0  0  0
    7.4940  -14.1386   20.1721 C   0  0  0  0  0  0  0  0  0  0  0  0
    7.3979  -15.5773   20.6272 C   0  0  2  0  0  0  0  0  0  0  0  0
    6.6097  -16.3159   19.6928 N   0  0  0  0  0  0  0  0  0  0  0  0
    6.8990  -15.6827   22.0218 C   0  0  0  0  0  0  0  0  0  0  0  0
    5.6679  -15.6091   22.2719 O   0  0  0  0  0  0  0  0  0  0  0  0
    9.5031  -14.4153   18.7056 C   0  0  0  0  0  0  0  0  0  0  0  0
   10.1258  -14.3538   17.4761 C   0  0  0  0  0  0  0  0  0  0  0  0
    6.9106  -19.0580   23.4060 N   0  0  0  0  0  0  0  0  0  0  0  0
    6.4436  -18.0887   24.3243 C   0  0  0  0  0  0  0  0  0  0  0  0
    5.2170  -17.9641   24.5217 O   0  0  0  0  0  0  0  0  0  0  0  0
    7.3788  -17.2123   25.0624 C   0  0  0  0  0  0  0  0  0  0  0  0
    7.3303  -15.8022   24.5206 C   0  0  2  0  0  0  0  0  0  0  0  0
    7.7610  -15.8690   23.1363 N   0  0  0  0  0  0  0  0  0  0  0  0
    8.3117  -15.0134   25.3443 C   0  0  0  0  0  0  0  0  0  0  0  0
    9.5218  -15.2044   25.0916 O   0  0  0  0  0  0  0  0  0  0  0  0
    7.9346  -14.1131   26.3394 N   0  0  0  0  0  0  0  0  0  0  0  0
    6.5680  -13.7845   26.7631 C   0  0  0  0  0  0  0  0  0  0  0  0
    6.7194  -12.2730   26.9825 C   0  0  0  0  0  0  0  0  0  0  0  0
    7.9910  -12.2402   27.8039 C   0  0  0  0  0  0  0  0  0  0  0  0
    8.8129  -13.3209   27.1579 C   0  0  1  0  0  0  0  0  0  0  0  0
    9.4598  -14.1075   28.2179 C   0  0  0  0  0  0  0  0  0  0  0  0
    9.0706  -15.2644   28.4754 O   0  0  0  0  0  0  0  0  0  0  0  0
   10.5022  -13.5651   28.9319 O   0  0  0  0  0  0  0  0  0  0  0  0
  2 12  2  0
  2  1  1  0
  3  2  1  0
  4  5  1  0
  4  3  2  0
  5 11  2  0
  6  7  1  0
  6  5  1  0
  7  8  1  6
  9  7  1  0
  9 10  2  0
 11 12  1  0
 13 14  1  0
 14 16  1  0
 15 14  2  0
 17 16  1  1
 17 18  1  0
 18  9  1  0
 19 17  1  0
 20 19  2  0
 21 22  1  0
 21 19  1  0
 22 23  1  0
 24 23  1  0
 25 21  1  0
 25 24  1  0
 25 26  1  1
 27 26  2  0
 28 26  1  0
M  END
$$$$
