YNP.pdb
     RDKit          3D

 28 29  0  0  1  0  0  0  0  0999 V2000
    9.1920  -12.7301   15.4606 O   0  0  0  0  0  0  0  0  0  0  0  0
    8.6004  -13.1187   16.6673 C   0  0  0  0  0  0  0  0  0  0  0  0
    9.2522  -12.9752   17.8738 C   0  0  0  0  0  0  0  0  0  0  0  0
    8.6614  -13.3610   19.0596 C   0  0  0  0  0  0  0  0  0  0  0  0
    7.3952  -13.9068   19.0946 C   0  0  0  0  0  0  0  0  0  0  0  0
    6.7567  -14.3229   20.3703 C   0  0  0  0  0  0  0  0  0  0  0  0
    7.1847  -15.7297   20.7221 C   0  0  2  0  0  0  0  0  0  0  0  0
    6.5963  -16.6466   19.7985 N   0  0  0  0  0  0  0  0  0  0  0  0
    6.8873  -16.0589   22.1392 C   0  0  0  0  0  0  0  0  0  0  0  0
    5.8849  -16.7572   22.4406 O   0  0  0  0  0  0  0  0  0  0  0  0
    6.7388  -14.0516   17.8824 C   0  0  0  0  0  0  0  0  0  0  0  0
    7.3339  -13.6642   16.6997 C   0  0  0  0  0  0  0  0  0  0  0  0
    6.3268  -18.0123   26.7933 N   0  0  0  0  0  0  0  0  0  0  0  0
    7.5688  -17.9037   26.1252 C   0  0  0  0  0  0  0  0  0  0  0  0
    8.6240  -18.1815   26.7321 O   0  0  0  0  0  0  0  0  0  0  0  0
    7.6498  -17.4659   24.7147 C   0  0  0  0  0  0  0  0  0  0  0  0
    7.4696  -15.9690   24.6085 C   0  0  2  0  0  0  0  0  0  0  0  0
    7.6978  -15.6160   23.2194 N   0  0  0  0  0  0  0  0  0  0  0  0
    8.5288  -15.3658   25.4904 C   0  0  0  0  0  0  0  0  0  0  0  0
    9.7134  -15.6354   25.1918 O   0  0  0  0  0  0  0  0  0  0  0  0
    8.2477  -14.5496   26.5848 N   0  0  0  0  0  0  0  0  0  0  0  0
    6.9244  -14.2373   27.1384 C   0  0  0  0  0  0  0  0  0  0  0  0
    7.1259  -12.7532   27.4741 C   0  0  0  0  0  0  0  0  0  0  0  0
    8.4558  -12.8123   28.1954 C   0  0  0  0  0  0  0  0  0  0  0  0
    9.2025  -13.8456   27.3984 C   0  0  1  0  0  0  0  0  0  0  0  0
    9.9091  -14.7317   28.3345 C   0  0  0  0  0  0  0  0  0  0  0  0
    9.5302  -15.9084   28.5015 O   0  0  0  0  0  0  0  0  0  0  0  0
   10.9965  -14.2611   29.0323 O   0  0  0  0  0  0  0  0  0  0  0  0
  2 12  2  0
  2  1  1  0
  3  2  1  0
  4  5  1  0
  4  3  2  0
  5 11  2  0
  6  7  1  0
  6  5  1  0
  7  8  1  6
  9  7  1  0
  9 10  2  0
 11 12  1  0
 13 14  1  0
 14 16  1  0
 15 14  2  0
 17 16  1  6
 17 18  1  0
 18  9  1  0
 19 17  1  0
 20 19  2  0
 21 22  1  0
 21 19  1  0
 22 23  1  0
 24 23  1  0
 25 21  1  0
 25 24  1  0
 25 26  1  1
 27 26  2  0
 28 26  1  0
M  END
$$$$
