YNP.pdb
     RDKit          3D

 28 29  0  0  1  0  0  0  0  0999 V2000
    9.9377  -16.1409   31.4408 O   0  0  0  0  0  0  0  0  0  0  0  0
   10.0323  -15.8272   30.0808 C   0  0  0  0  0  0  0  0  0  0  0  0
    9.3322  -16.5309   29.1238 C   0  0  0  0  0  0  0  0  0  0  0  0
    9.4312  -16.2149   27.7843 C   0  0  0  0  0  0  0  0  0  0  0  0
   10.2324  -15.1837   27.3401 C   0  0  0  0  0  0  0  0  0  0  0  0
   10.3405  -14.8414   25.8981 C   0  0  0  0  0  0  0  0  0  0  0  0
   10.7763  -16.0586   25.1141 C   0  0  2  0  0  0  0  0  0  0  0  0
   11.8639  -16.6907   25.7906 N   0  0  0  0  0  0  0  0  0  0  0  0
   11.0852  -15.7232   23.7009 C   0  0  0  0  0  0  0  0  0  0  0  0
   12.2322  -15.3253   23.3702 O   0  0  0  0  0  0  0  0  0  0  0  0
   10.9368  -14.4755   28.3011 C   0  0  0  0  0  0  0  0  0  0  0  0
   10.8343  -14.7955   29.6391 C   0  0  0  0  0  0  0  0  0  0  0  0
   11.2720  -15.4655   18.6331 N   0  0  0  0  0  0  0  0  0  0  0  0
   11.6693  -16.5985   19.3810 C   0  0  0  0  0  0  0  0  0  0  0  0
   12.3874  -17.4702   18.8488 O   0  0  0  0  0  0  0  0  0  0  0  0
   11.2523  -16.7780   20.7887 C   0  0  0  0  0  0  0  0  0  0  0  0
   10.4210  -15.6046   21.2537 C   0  0  2  0  0  0  0  0  0  0  0  0
   10.1265  -15.8282   22.6571 N   0  0  0  0  0  0  0  0  0  0  0  0
    9.1603  -15.6458   20.4336 C   0  0  0  0  0  0  0  0  0  0  0  0
    8.4998  -16.7066   20.4917 O   0  0  0  0  0  0  0  0  0  0  0  0
    8.7200  -14.5856   19.6430 N   0  0  0  0  0  0  0  0  0  0  0  0
    9.3463  -13.2649   19.5059 C   0  0  0  0  0  0  0  0  0  0  0  0
    8.0901  -12.3841   19.4614 C   0  0  0  0  0  0  0  0  0  0  0  0
    7.2598  -13.1399   18.4456 C   0  0  0  0  0  0  0  0  0  0  0  0
    7.5577  -14.5715   18.7957 C   0  0  1  0  0  0  0  0  0  0  0  0
    7.7592  -15.3217   17.5477 C   0  0  0  0  0  0  0  0  0  0  0  0
    8.9016  -15.6886   17.2066 O   0  0  0  0  0  0  0  0  0  0  0  0
    6.6808  -15.6220   16.7492 O   0  0  0  0  0  0  0  0  0  0  0  0
  2 12  2  0
  2  1  1  0
  3  2  1  0
  4  5  1  0
  4  3  2  0
  5 11  2  0
  6  7  1  0
  6  5  1  0
  7  8  1  1
  9  7  1  0
  9 10  2  0
 11 12  1  0
 13 14  1  0
 14 16  1  0
 15 14  2  0
 17 16  1  6
 17 18  1  0
 18  9  1  0
 19 17  1  0
 20 19  2  0
 21 22  1  0
 21 19  1  0
 22 23  1  0
 24 23  1  0
 25 21  1  0
 25 24  1  0
 25 26  1  6
 27 26  2  0
 28 26  1  0
M  END
$$$$
