YNP.pdb
     RDKit          3D

 28 29  0  0  1  0  0  0  0  0999 V2000
    9.6642  -12.9641   15.8815 O   0  0  0  0  0  0  0  0  0  0  0  0
    8.9198  -13.2942   17.0191 C   0  0  0  0  0  0  0  0  0  0  0  0
    9.3903  -13.0454   18.2911 C   0  0  0  0  0  0  0  0  0  0  0  0
    8.6497  -13.3742   19.4078 C   0  0  0  0  0  0  0  0  0  0  0  0
    7.4077  -13.9653   19.3057 C   0  0  0  0  0  0  0  0  0  0  0  0
    6.6080  -14.3201   20.5069 C   0  0  0  0  0  0  0  0  0  0  0  0
    6.9595  -15.7187   20.9613 C   0  0  2  0  0  0  0  0  0  0  0  0
    6.3036  -16.6671   20.1184 N   0  0  0  0  0  0  0  0  0  0  0  0
    6.6670  -15.9205   22.4030 C   0  0  0  0  0  0  0  0  0  0  0  0
    5.4807  -16.0202   22.8109 O   0  0  0  0  0  0  0  0  0  0  0  0
    6.9334  -14.2160   18.0276 C   0  0  0  0  0  0  0  0  0  0  0  0
    7.6779  -13.8854   16.9143 C   0  0  0  0  0  0  0  0  0  0  0  0
    7.0396  -19.3452   23.5382 N   0  0  0  0  0  0  0  0  0  0  0  0
    6.7237  -18.4819   24.6134 C   0  0  0  0  0  0  0  0  0  0  0  0
    5.5705  -18.4862   25.0918 O   0  0  0  0  0  0  0  0  0  0  0  0
    7.7330  -17.5672   25.1897 C   0  0  0  0  0  0  0  0  0  0  0  0
    7.4322  -16.1344   24.8140 C   0  0  2  0  0  0  0  0  0  0  0  0
    7.6853  -16.0114   23.3903 N   0  0  0  0  0  0  0  0  0  0  0  0
    8.4010  -15.2933   25.5999 C   0  0  0  0  0  0  0  0  0  0  0  0
    9.6019  -15.3723   25.2585 O   0  0  0  0  0  0  0  0  0  0  0  0
    8.0224  -14.4623   26.6530 N   0  0  0  0  0  0  0  0  0  0  0  0
    6.6619  -14.2358   27.1557 C   0  0  0  0  0  0  0  0  0  0  0  0
    6.7361  -12.7290   27.4388 C   0  0  0  0  0  0  0  0  0  0  0  0
    8.0429  -12.6561   28.1999 C   0  0  0  0  0  0  0  0  0  0  0  0
    8.8930  -13.6556   27.4657 C   0  0  1  0  0  0  0  0  0  0  0  0
    9.6365  -14.4480   28.4557 C   0  0  0  0  0  0  0  0  0  0  0  0
    9.3524  -15.6469   28.6500 O   0  0  0  0  0  0  0  0  0  0  0  0
   10.6535  -13.8642   29.1738 O   0  0  0  0  0  0  0  0  0  0  0  0
  2 12  2  0
  2  1  1  0
  3  2  1  0
  4  5  1  0
  4  3  2  0
  5 11  2  0
  6  7  1  0
  6  5  1  0
  7  8  1  6
  9  7  1  0
  9 10  2  0
 11 12  1  0
 13 14  1  0
 14 16  1  0
 15 14  2  0
 17 16  1  1
 17 18  1  0
 18  9  1  0
 19 17  1  0
 20 19  2  0
 21 22  1  0
 21 19  1  0
 22 23  1  0
 24 23  1  0
 25 21  1  0
 25 24  1  0
 25 26  1  1
 27 26  2  0
 28 26  1  0
M  END
$$$$
