YNP.pdb
     RDKit          3D

 28 29  0  0  1  0  0  0  0  0999 V2000
    9.1055  -13.2944   15.7882 O   0  0  0  0  0  0  0  0  0  0  0  0
    8.6500  -13.5370   17.0885 C   0  0  0  0  0  0  0  0  0  0  0  0
    9.4462  -14.1489   18.0334 C   0  0  0  0  0  0  0  0  0  0  0  0
    8.9891  -14.3844   19.3139 C   0  0  0  0  0  0  0  0  0  0  0  0
    7.7186  -14.0203   19.7084 C   0  0  0  0  0  0  0  0  0  0  0  0
    7.2242  -14.2727   21.0869 C   0  0  0  0  0  0  0  0  0  0  0  0
    6.9824  -15.7526   21.2812 C   0  0  2  0  0  0  0  0  0  0  0  0
    5.9207  -16.1736   20.4237 N   0  0  0  0  0  0  0  0  0  0  0  0
    6.7478  -16.0907   22.7080 C   0  0  0  0  0  0  0  0  0  0  0  0
    5.5895  -16.0460   23.1976 O   0  0  0  0  0  0  0  0  0  0  0  0
    6.9172  -13.4052   18.7595 C   0  0  0  0  0  0  0  0  0  0  0  0
    7.3789  -13.1720   17.4806 C   0  0  0  0  0  0  0  0  0  0  0  0
    7.3231  -17.4776   27.6419 N   0  0  0  0  0  0  0  0  0  0  0  0
    7.6808  -18.4755   26.7054 C   0  0  0  0  0  0  0  0  0  0  0  0
    7.8494  -19.6517   27.0889 O   0  0  0  0  0  0  0  0  0  0  0  0
    7.8615  -18.1584   25.2721 C   0  0  0  0  0  0  0  0  0  0  0  0
    7.6210  -16.6884   25.0155 C   0  0  2  0  0  0  0  0  0  0  0  0
    7.7931  -16.4772   23.5900 N   0  0  0  0  0  0  0  0  0  0  0  0
    8.6828  -15.9585   25.7923 C   0  0  0  0  0  0  0  0  0  0  0  0
    9.8631  -16.3148   25.5806 O   0  0  0  0  0  0  0  0  0  0  0  0
    8.4083  -14.9396   26.7030 N   0  0  0  0  0  0  0  0  0  0  0  0
    7.0879  -14.4134   27.0699 C   0  0  0  0  0  0  0  0  0  0  0  0
    7.4214  -12.9184   27.1693 C   0  0  0  0  0  0  0  0  0  0  0  0
    8.6783  -12.9724   28.0118 C   0  0  0  0  0  0  0  0  0  0  0  0
    9.3683  -14.1948   27.4729 C   0  0  1  0  0  0  0  0  0  0  0  0
    9.9021  -14.9635   28.6064 C   0  0  0  0  0  0  0  0  0  0  0  0
   10.8005  -14.4865   29.3284 O   0  0  0  0  0  0  0  0  0  0  0  0
    9.4080  -16.2185   28.8742 O   0  0  0  0  0  0  0  0  0  0  0  0
  2 12  2  0
  2  1  1  0
  3  2  1  0
  4  5  1  0
  4  3  2  0
  5 11  2  0
  6  7  1  0
  6  5  1  0
  7  8  1  6
  9  7  1  0
  9 10  2  0
 11 12  1  0
 13 14  1  0
 14 16  1  0
 15 14  2  0
 17 16  1  6
 17 18  1  0
 18  9  1  0
 19 17  1  0
 20 19  2  0
 21 22  1  0
 21 19  1  0
 22 23  1  0
 24 23  1  0
 25 21  1  0
 25 24  1  0
 25 26  1  1
 27 26  2  0
 28 26  1  0
M  END
$$$$
