YNP.pdb
     RDKit          3D

 28 29  0  0  1  0  0  0  0  0999 V2000
   10.6431  -14.4916   30.3622 O   0  0  0  0  0  0  0  0  0  0  0  0
    9.9623  -14.5473   29.1413 C   0  0  0  0  0  0  0  0  0  0  0  0
    9.5763  -13.4045   28.4734 C   0  0  0  0  0  0  0  0  0  0  0  0
    8.9052  -13.4683   27.2695 C   0  0  0  0  0  0  0  0  0  0  0  0
    8.5894  -14.6740   26.6787 C   0  0  0  0  0  0  0  0  0  0  0  0
    7.8669  -14.7453   25.3821 C   0  0  0  0  0  0  0  0  0  0  0  0
    8.5108  -15.7854   24.4935 C   0  0  2  0  0  0  0  0  0  0  0  0
    9.9300  -15.6311   24.5389 N   0  0  0  0  0  0  0  0  0  0  0  0
    7.9645  -15.7468   23.1133 C   0  0  0  0  0  0  0  0  0  0  0  0
    6.7259  -15.8344   22.9091 O   0  0  0  0  0  0  0  0  0  0  0  0
    8.9768  -15.8237   27.3490 C   0  0  0  0  0  0  0  0  0  0  0  0
    9.6476  -15.7543   28.5525 C   0  0  0  0  0  0  0  0  0  0  0  0
    7.5030  -12.2199   20.3449 N   0  0  0  0  0  0  0  0  0  0  0  0
    7.3556  -13.5973   20.0583 C   0  0  0  0  0  0  0  0  0  0  0  0
    6.2126  -14.0870   19.9466 O   0  0  0  0  0  0  0  0  0  0  0  0
    8.5307  -14.4788   19.8861 C   0  0  0  0  0  0  0  0  0  0  0  0
    8.3212  -15.7942   20.6004 C   0  0  2  0  0  0  0  0  0  0  0  0
    8.7875  -15.6115   21.9626 N   0  0  0  0  0  0  0  0  0  0  0  0
    9.1796  -16.7948   19.8753 C   0  0  0  0  0  0  0  0  0  0  0  0
   10.3563  -16.9099   20.2842 O   0  0  0  0  0  0  0  0  0  0  0  0
    8.7277  -17.5672   18.8067 N   0  0  0  0  0  0  0  0  0  0  0  0
    7.4130  -17.4955   18.1573 C   0  0  0  0  0  0  0  0  0  0  0  0
    7.1567  -18.9904   17.9218 C   0  0  0  0  0  0  0  0  0  0  0  0
    8.4816  -19.4049   17.3174 C   0  0  0  0  0  0  0  0  0  0  0  0
    9.4624  -18.5951   18.1192 C   0  0  1  0  0  0  0  0  0  0  0  0
   10.4729  -18.0496   17.2016 C   0  0  0  0  0  0  0  0  0  0  0  0
   10.4843  -16.8340   16.9220 O   0  0  0  0  0  0  0  0  0  0  0  0
   11.4136  -18.8848   16.6463 O   0  0  0  0  0  0  0  0  0  0  0  0
  2 12  2  0
  2  1  1  0
  3  2  1  0
  4  5  1  0
  4  3  2  0
  5 11  2  0
  6  7  1  0
  6  5  1  0
  7  8  1  6
  9  7  1  0
  9 10  2  0
 11 12  1  0
 13 14  1  0
 14 16  1  0
 15 14  2  0
 17 16  1  6
 17 18  1  0
 18  9  1  0
 19 17  1  0
 20 19  2  0
 21 22  1  0
 21 19  1  0
 22 23  1  0
 24 23  1  0
 25 21  1  0
 25 24  1  0
 25 26  1  6
 27 26  2  0
 28 26  1  0
M  END
$$$$
