YNP.pdb
     RDKit          3D

 28 29  0  0  1  0  0  0  0  0999 V2000
    9.6201  -12.8004   16.5334 O   0  0  0  0  0  0  0  0  0  0  0  0
    8.8806  -13.2305   17.6403 C   0  0  0  0  0  0  0  0  0  0  0  0
    7.6201  -13.7725   17.5042 C   0  0  0  0  0  0  0  0  0  0  0  0
    6.8975  -14.1943   18.6013 C   0  0  0  0  0  0  0  0  0  0  0  0
    7.3996  -14.0943   19.8821 C   0  0  0  0  0  0  0  0  0  0  0  0
    6.6233  -14.5481   21.0652 C   0  0  0  0  0  0  0  0  0  0  0  0
    7.0094  -15.9669   21.4175 C   0  0  2  0  0  0  0  0  0  0  0  0
    6.2661  -16.8741   20.6024 N   0  0  0  0  0  0  0  0  0  0  0  0
    6.8617  -16.2344   22.8706 C   0  0  0  0  0  0  0  0  0  0  0  0
    5.7287  -16.4539   23.3724 O   0  0  0  0  0  0  0  0  0  0  0  0
    8.6665  -13.5496   20.0204 C   0  0  0  0  0  0  0  0  0  0  0  0
    9.3849  -13.1293   18.9202 C   0  0  0  0  0  0  0  0  0  0  0  0
    6.4866  -18.0383   27.6104 N   0  0  0  0  0  0  0  0  0  0  0  0
    7.6119  -18.3385   26.8076 C   0  0  0  0  0  0  0  0  0  0  0  0
    8.5975  -18.9137   27.3141 O   0  0  0  0  0  0  0  0  0  0  0  0
    7.6508  -17.9852   25.3718 C   0  0  0  0  0  0  0  0  0  0  0  0
    7.8534  -16.4982   25.1925 C   0  0  2  0  0  0  0  0  0  0  0  0
    7.9655  -16.2586   23.7655 N   0  0  0  0  0  0  0  0  0  0  0  0
    9.1476  -16.1749   25.8883 C   0  0  0  0  0  0  0  0  0  0  0  0
   10.1602  -16.7854   25.4798 O   0  0  0  0  0  0  0  0  0  0  0  0
    9.2537  -15.2553   26.9304 N   0  0  0  0  0  0  0  0  0  0  0  0
    8.1877  -14.4011   27.4681 C   0  0  0  0  0  0  0  0  0  0  0  0
    8.9841  -13.1113   27.7097 C   0  0  0  0  0  0  0  0  0  0  0  0
   10.1954  -13.6665   28.4287 C   0  0  0  0  0  0  0  0  0  0  0  0
   10.4349  -14.9570   27.6952 C   0  0  1  0  0  0  0  0  0  0  0  0
   10.7472  -16.0004   28.6824 C   0  0  0  0  0  0  0  0  0  0  0  0
    9.9200  -16.8983   28.9384 O   0  0  0  0  0  0  0  0  0  0  0  0
   11.9603  -15.9877   29.3296 O   0  0  0  0  0  0  0  0  0  0  0  0
  2 12  2  0
  2  1  1  0
  3  2  1  0
  4  5  1  0
  4  3  2  0
  5 11  2  0
  6  7  1  0
  6  5  1  0
  7  8  1  6
  9  7  1  0
  9 10  2  0
 11 12  1  0
 13 14  1  0
 14 16  1  0
 15 14  2  0
 17 16  1  6
 17 18  1  0
 18  9  1  0
 19 17  1  0
 20 19  2  0
 21 22  1  0
 21 19  1  0
 22 23  1  0
 24 23  1  0
 25 21  1  0
 25 24  1  0
 25 26  1  1
 27 26  2  0
 28 26  1  0
M  END
$$$$
