YNP.pdb
     RDKit          3D

 28 29  0  0  1  0  0  0  0  0999 V2000
   10.0865  -16.4593   31.4607 O   0  0  0  0  0  0  0  0  0  0  0  0
   10.3964  -16.0628   30.1554 C   0  0  0  0  0  0  0  0  0  0  0  0
    9.5109  -15.3349   29.3890 C   0  0  0  0  0  0  0  0  0  0  0  0
    9.8244  -14.9477   28.1023 C   0  0  0  0  0  0  0  0  0  0  0  0
   11.0343  -15.2692   27.5231 C   0  0  0  0  0  0  0  0  0  0  0  0
   11.3743  -14.8532   26.1376 C   0  0  0  0  0  0  0  0  0  0  0  0
   11.1388  -16.0036   25.1852 C   0  0  2  0  0  0  0  0  0  0  0  0
   11.9594  -17.1082   25.5677 N   0  0  0  0  0  0  0  0  0  0  0  0
   11.3320  -15.5969   23.7701 C   0  0  0  0  0  0  0  0  0  0  0  0
   12.4503  -15.1851   23.3662 O   0  0  0  0  0  0  0  0  0  0  0  0
   11.9254  -16.0009   28.2923 C   0  0  0  0  0  0  0  0  0  0  0  0
   11.6069  -16.3855   29.5783 C   0  0  0  0  0  0  0  0  0  0  0  0
   13.1311  -15.1826   19.5510 N   0  0  0  0  0  0  0  0  0  0  0  0
   12.7023  -15.9662   20.6479 C   0  0  0  0  0  0  0  0  0  0  0  0
   13.5241  -16.3052   21.5246 O   0  0  0  0  0  0  0  0  0  0  0  0
   11.2940  -16.3974   20.7836 C   0  0  0  0  0  0  0  0  0  0  0  0
   10.4574  -15.3028   21.4052 C   0  0  2  0  0  0  0  0  0  0  0  0
   10.2896  -15.6461   22.8053 N   0  0  0  0  0  0  0  0  0  0  0  0
    9.1357  -15.3404   20.6873 C   0  0  0  0  0  0  0  0  0  0  0  0
    8.3992  -16.3194   20.9403 O   0  0  0  0  0  0  0  0  0  0  0  0
    8.7197  -14.3616   19.7864 N   0  0  0  0  0  0  0  0  0  0  0  0
    9.4470  -13.1451   19.4040 C   0  0  0  0  0  0  0  0  0  0  0  0
    8.2773  -12.1539   19.3315 C   0  0  0  0  0  0  0  0  0  0  0  0
    7.2887  -12.9545   18.5103 C   0  0  0  0  0  0  0  0  0  0  0  0
    7.4878  -14.3461   19.0439 C   0  0  1  0  0  0  0  0  0  0  0  0
    7.5004  -15.2804   17.9091 C   0  0  0  0  0  0  0  0  0  0  0  0
    6.4609  -15.4956   17.2542 O   0  0  0  0  0  0  0  0  0  0  0  0
    8.6667  -15.9228   17.5658 O   0  0  0  0  0  0  0  0  0  0  0  0
  2 12  2  0
  2  1  1  0
  3  2  1  0
  4  5  1  0
  4  3  2  0
  5 11  2  0
  6  7  1  0
  6  5  1  0
  7  8  1  1
  9  7  1  0
  9 10  2  0
 11 12  1  0
 13 14  1  0
 14 16  1  0
 15 14  2  0
 17 16  1  6
 17 18  1  0
 18  9  1  0
 19 17  1  0
 20 19  2  0
 21 22  1  0
 21 19  1  0
 22 23  1  0
 24 23  1  0
 25 21  1  0
 25 24  1  0
 25 26  1  6
 27 26  2  0
 28 26  1  0
M  END
$$$$
