YNP.pdb
     RDKit          3D

 28 29  0  0  1  0  0  0  0  0999 V2000
    8.6005  -13.6002   15.2218 O   0  0  0  0  0  0  0  0  0  0  0  0
    8.2240  -13.7432   16.5615 C   0  0  0  0  0  0  0  0  0  0  0  0
    7.6258  -14.8947   17.0278 C   0  0  0  0  0  0  0  0  0  0  0  0
    7.2575  -15.0276   18.3509 C   0  0  0  0  0  0  0  0  0  0  0  0
    7.4695  -14.0186   19.2671 C   0  0  0  0  0  0  0  0  0  0  0  0
    7.0739  -14.1595   20.6926 C   0  0  0  0  0  0  0  0  0  0  0  0
    8.2844  -14.5119   21.5274 C   0  0  2  0  0  0  0  0  0  0  0  0
    8.9460  -15.6370   20.9474 N   0  0  0  0  0  0  0  0  0  0  0  0
    7.9296  -14.7168   22.9547 C   0  0  0  0  0  0  0  0  0  0  0  0
    7.4144  -13.7878   23.6292 O   0  0  0  0  0  0  0  0  0  0  0  0
    8.0707  -12.8605   18.7998 C   0  0  0  0  0  0  0  0  0  0  0  0
    8.4370  -12.7327   17.4759 C   0  0  0  0  0  0  0  0  0  0  0  0
    6.6129  -18.7271   23.1258 N   0  0  0  0  0  0  0  0  0  0  0  0
    6.3855  -17.9475   24.2841 C   0  0  0  0  0  0  0  0  0  0  0  0
    5.2336  -17.5379   24.5376 O   0  0  0  0  0  0  0  0  0  0  0  0
    7.4864  -17.6027   25.2096 C   0  0  0  0  0  0  0  0  0  0  0  0
    7.8883  -16.1549   25.0463 C   0  0  2  0  0  0  0  0  0  0  0  0
    8.1450  -15.9470   23.6330 N   0  0  0  0  0  0  0  0  0  0  0  0
    9.1522  -15.9884   25.8454 C   0  0  0  0  0  0  0  0  0  0  0  0
   10.1425  -16.6442   25.4527 O   0  0  0  0  0  0  0  0  0  0  0  0
    9.2542  -15.1620   26.9632 N   0  0  0  0  0  0  0  0  0  0  0  0
    8.2678  -14.1801   27.4301 C   0  0  0  0  0  0  0  0  0  0  0  0
    9.2113  -13.0530   27.8725 C   0  0  0  0  0  0  0  0  0  0  0  0
   10.2141  -13.8389   28.6905 C   0  0  0  0  0  0  0  0  0  0  0  0
   10.3517  -15.1050   27.8914 C   0  0  1  0  0  0  0  0  0  0  0  0
   10.3634  -16.2422   28.8228 C   0  0  0  0  0  0  0  0  0  0  0  0
    9.3628  -16.9782   28.9366 O   0  0  0  0  0  0  0  0  0  0  0  0
   11.4857  -16.4977   29.5751 O   0  0  0  0  0  0  0  0  0  0  0  0
  2 12  2  0
  2  1  1  0
  3  2  1  0
  4  5  1  0
  4  3  2  0
  5 11  2  0
  6  7  1  0
  6  5  1  0
  7  8  1  6
  9  7  1  0
  9 10  2  0
 11 12  1  0
 13 14  1  0
 14 16  1  0
 15 14  2  0
 17 16  1  6
 17 18  1  0
 18  9  1  0
 19 17  1  0
 20 19  2  0
 21 22  1  0
 21 19  1  0
 22 23  1  0
 24 23  1  0
 25 21  1  0
 25 24  1  0
 25 26  1  1
 27 26  2  0
 28 26  1  0
M  END
$$$$
