YNP.pdb
     RDKit          3D

 28 29  0  0  1  0  0  0  0  0999 V2000
    8.7624  -13.0637   15.5245 O   0  0  0  0  0  0  0  0  0  0  0  0
    8.2635  -13.4675   16.7676 C   0  0  0  0  0  0  0  0  0  0  0  0
    8.5947  -12.8063   17.9314 C   0  0  0  0  0  0  0  0  0  0  0  0
    8.0982  -13.2111   19.1535 C   0  0  0  0  0  0  0  0  0  0  0  0
    7.2500  -14.2927   19.2690 C   0  0  0  0  0  0  0  0  0  0  0  0
    6.7139  -14.7304   20.5841 C   0  0  0  0  0  0  0  0  0  0  0  0
    7.4950  -15.9247   21.0836 C   0  0  2  0  0  0  0  0  0  0  0  0
    7.3152  -17.0169   20.1809 N   0  0  0  0  0  0  0  0  0  0  0  0
    7.1461  -16.2648   22.4864 C   0  0  0  0  0  0  0  0  0  0  0  0
    6.0546  -16.8283   22.7592 O   0  0  0  0  0  0  0  0  0  0  0  0
    6.9164  -14.9583   18.1000 C   0  0  0  0  0  0  0  0  0  0  0  0
    7.4155  -14.5495   16.8806 C   0  0  0  0  0  0  0  0  0  0  0  0
    6.6573  -17.9281   27.1955 N   0  0  0  0  0  0  0  0  0  0  0  0
    7.6052  -18.4696   26.2959 C   0  0  0  0  0  0  0  0  0  0  0  0
    8.3254  -19.4236   26.6565 O   0  0  0  0  0  0  0  0  0  0  0  0
    7.7660  -17.9300   24.9283 C   0  0  0  0  0  0  0  0  0  0  0  0
    7.7571  -16.4187   24.9455 C   0  0  2  0  0  0  0  0  0  0  0  0
    8.0037  -15.9816   23.5837 N   0  0  0  0  0  0  0  0  0  0  0  0
    8.8914  -16.0131   25.8468 C   0  0  0  0  0  0  0  0  0  0  0  0
    9.9976  -16.5496   25.6157 O   0  0  0  0  0  0  0  0  0  0  0  0
    8.7582  -15.0968   26.8887 N   0  0  0  0  0  0  0  0  0  0  0  0
    7.5215  -14.4521   27.3469 C   0  0  0  0  0  0  0  0  0  0  0  0
    8.0542  -13.0418   27.6357 C   0  0  0  0  0  0  0  0  0  0  0  0
    9.2932  -13.3750   28.4395 C   0  0  0  0  0  0  0  0  0  0  0  0
    9.8110  -14.5961   27.7314 C   0  0  1  0  0  0  0  0  0  0  0  0
   10.2373  -15.5731   28.7436 C   0  0  0  0  0  0  0  0  0  0  0  0
   11.1806  -15.3131   29.5173 O   0  0  0  0  0  0  0  0  0  0  0  0
    9.5921  -16.7836   28.8394 O   0  0  0  0  0  0  0  0  0  0  0  0
  2 12  2  0
  2  1  1  0
  3  2  1  0
  4  5  1  0
  4  3  2  0
  5 11  2  0
  6  7  1  0
  6  5  1  0
  7  8  1  6
  9  7  1  0
  9 10  2  0
 11 12  1  0
 13 14  1  0
 14 16  1  0
 15 14  2  0
 17 16  1  6
 17 18  1  0
 18  9  1  0
 19 17  1  0
 20 19  2  0
 21 22  1  0
 21 19  1  0
 22 23  1  0
 24 23  1  0
 25 21  1  0
 25 24  1  0
 25 26  1  1
 27 26  2  0
 28 26  1  0
M  END
$$$$
