YNP.pdb
     RDKit          3D

 28 29  0  0  1  0  0  0  0  0999 V2000
    9.0159  -13.5891   15.6686 O   0  0  0  0  0  0  0  0  0  0  0  0
    8.6864  -13.6917   17.0243 C   0  0  0  0  0  0  0  0  0  0  0  0
    9.3897  -14.5113   17.8815 C   0  0  0  0  0  0  0  0  0  0  0  0
    9.0580  -14.6067   19.2175 C   0  0  0  0  0  0  0  0  0  0  0  0
    8.0109  -13.8894   19.7574 C   0  0  0  0  0  0  0  0  0  0  0  0
    7.6521  -13.9902   21.1959 C   0  0  0  0  0  0  0  0  0  0  0  0
    7.3146  -15.4233   21.5402 C   0  0  2  0  0  0  0  0  0  0  0  0
    6.1783  -15.8361   20.7796 N   0  0  0  0  0  0  0  0  0  0  0  0
    7.1369  -15.6125   23.0023 C   0  0  0  0  0  0  0  0  0  0  0  0
    6.1634  -15.0903   23.6048 O   0  0  0  0  0  0  0  0  0  0  0  0
    7.3031  -13.0651   18.8968 C   0  0  0  0  0  0  0  0  0  0  0  0
    7.6388  -12.9733   17.5619 C   0  0  0  0  0  0  0  0  0  0  0  0
    6.6223  -19.3158   23.7655 N   0  0  0  0  0  0  0  0  0  0  0  0
    6.5713  -18.5138   24.9296 C   0  0  0  0  0  0  0  0  0  0  0  0
    5.4684  -18.2539   25.4539 O   0  0  0  0  0  0  0  0  0  0  0  0
    7.8012  -17.9710   25.5462 C   0  0  0  0  0  0  0  0  0  0  0  0
    7.9485  -16.4985   25.2385 C   0  0  2  0  0  0  0  0  0  0  0  0
    8.0348  -16.3777   23.7948 N   0  0  0  0  0  0  0  0  0  0  0  0
    9.2385  -16.0724   25.8849 C   0  0  0  0  0  0  0  0  0  0  0  0
   10.2848  -16.5523   25.3952 O   0  0  0  0  0  0  0  0  0  0  0  0
    9.3059  -15.1965   26.9671 N   0  0  0  0  0  0  0  0  0  0  0  0
    8.2019  -14.4236   27.5494 C   0  0  0  0  0  0  0  0  0  0  0  0
    8.9330  -13.1066   27.8444 C   0  0  0  0  0  0  0  0  0  0  0  0
   10.1772  -13.6302   28.5301 C   0  0  0  0  0  0  0  0  0  0  0  0
   10.4766  -14.8722   27.7374 C   0  0  1  0  0  0  0  0  0  0  0  0
   10.8503  -15.9414   28.6743 C   0  0  0  0  0  0  0  0  0  0  0  0
   10.0757  -16.8953   28.8887 O   0  0  0  0  0  0  0  0  0  0  0  0
   12.0632  -15.8909   29.3203 O   0  0  0  0  0  0  0  0  0  0  0  0
  2 12  2  0
  2  1  1  0
  3  2  1  0
  4  5  1  0
  4  3  2  0
  5 11  2  0
  6  7  1  0
  6  5  1  0
  7  8  1  6
  9  7  1  0
  9 10  2  0
 11 12  1  0
 13 14  1  0
 14 16  1  0
 15 14  2  0
 17 16  1  6
 17 18  1  0
 18  9  1  0
 19 17  1  0
 20 19  2  0
 21 22  1  0
 21 19  1  0
 22 23  1  0
 24 23  1  0
 25 21  1  0
 25 24  1  0
 25 26  1  1
 27 26  2  0
 28 26  1  0
M  END
$$$$
