YNP.pdb
     RDKit          3D

 28 29  0  0  1  0  0  0  0  0999 V2000
   10.1383  -15.9780   31.4915 O   0  0  0  0  0  0  0  0  0  0  0  0
   10.2978  -15.7127   30.1273 C   0  0  0  0  0  0  0  0  0  0  0  0
    9.3255  -15.0637   29.3961 C   0  0  0  0  0  0  0  0  0  0  0  0
    9.4909  -14.8058   28.0508 C   0  0  0  0  0  0  0  0  0  0  0  0
   10.6327  -15.1836   27.3753 C   0  0  0  0  0  0  0  0  0  0  0  0
   10.8132  -14.9068   25.9265 C   0  0  0  0  0  0  0  0  0  0  0  0
   10.8905  -16.2091   25.1621 C   0  0  2  0  0  0  0  0  0  0  0  0
   12.0116  -16.9625   25.6263 N   0  0  0  0  0  0  0  0  0  0  0  0
   10.9055  -15.9871   23.6939 C   0  0  0  0  0  0  0  0  0  0  0  0
   11.7771  -15.2507   23.1635 O   0  0  0  0  0  0  0  0  0  0  0  0
   11.6109  -15.8361   28.1091 C   0  0  0  0  0  0  0  0  0  0  0  0
   11.4406  -16.0915   29.4540 C   0  0  0  0  0  0  0  0  0  0  0  0
   12.4660  -17.2346   19.8580 N   0  0  0  0  0  0  0  0  0  0  0  0
   11.5273  -17.9126   20.6705 C   0  0  0  0  0  0  0  0  0  0  0  0
   11.9108  -18.8320   21.4232 O   0  0  0  0  0  0  0  0  0  0  0  0
   10.0918  -17.5569   20.6509 C   0  0  0  0  0  0  0  0  0  0  0  0
    9.8502  -16.2679   21.4022 C   0  0  2  0  0  0  0  0  0  0  0  0
    9.9578  -16.5791   22.8157 N   0  0  0  0  0  0  0  0  0  0  0  0
    8.4471  -15.8495   21.0561 C   0  0  0  0  0  0  0  0  0  0  0  0
    7.5315  -16.4028   21.7045 O   0  0  0  0  0  0  0  0  0  0  0  0
    8.1438  -14.9044   20.0775 N   0  0  0  0  0  0  0  0  0  0  0  0
    9.0927  -14.0753   19.3244 C   0  0  0  0  0  0  0  0  0  0  0  0
    8.3119  -12.7544   19.2866 C   0  0  0  0  0  0  0  0  0  0  0  0
    6.9495  -13.2524   18.8526 C   0  0  0  0  0  0  0  0  0  0  0  0
    6.8327  -14.5497   19.6037 C   0  0  1  0  0  0  0  0  0  0  0  0
    6.2667  -15.5601   18.6985 C   0  0  0  0  0  0  0  0  0  0  0  0
    6.9858  -16.4657   18.2309 O   0  0  0  0  0  0  0  0  0  0  0  0
    4.9340  -15.5078   18.3638 O   0  0  0  0  0  0  0  0  0  0  0  0
  2 12  2  0
  2  1  1  0
  3  2  1  0
  4  5  1  0
  4  3  2  0
  5 11  2  0
  6  7  1  0
  6  5  1  0
  7  8  1  1
  9  7  1  0
  9 10  2  0
 11 12  1  0
 13 14  1  0
 14 16  1  0
 15 14  2  0
 17 16  1  6
 17 18  1  0
 18  9  1  0
 19 17  1  0
 20 19  2  0
 21 22  1  0
 21 19  1  0
 22 23  1  0
 24 23  1  0
 25 21  1  0
 25 24  1  0
 25 26  1  6
 27 26  2  0
 28 26  1  0
M  END
$$$$
