NVA.pdb
     RDKit          3D

 21 20  0  0  1  0  0  0  0  0999 V2000
    5.9178  -18.9323   16.5076 N   0  0  0  0  0  0  0  0  0  0  0  0
    6.8891  -19.6160   17.2730 C   0  0  0  0  0  0  0  0  0  0  0  0
    6.6665  -20.7916   17.6275 O   0  0  0  0  0  0  0  0  0  0  0  0
    8.1491  -18.9458   17.6465 C   0  0  0  0  0  0  0  0  0  0  0  0
    8.1671  -17.4934   17.2212 C   0  0  2  0  0  0  0  0  0  0  0  0
    8.9420  -17.3270   16.0295 N   0  0  0  0  0  0  0  0  0  0  0  0
    8.6643  -16.6962   18.3599 C   0  0  0  0  0  0  0  0  0  0  0  0
    9.8764  -16.8353   18.6758 O   0  0  0  0  0  0  0  0  0  0  0  0
    8.2563  -13.2071   21.8004 C   0  0  0  0  0  0  0  0  0  0  0  0
    7.5832  -13.8971   20.6410 C   0  0  1  0  0  0  0  0  0  0  0  0
    7.2992  -12.8883   19.5640 C   0  0  0  0  0  0  0  0  0  0  0  0
    8.5070  -15.0040   20.1633 C   0  0  2  0  0  0  0  0  0  0  0  0
    7.8930  -15.7965   19.1172 N   0  0  0  0  0  0  0  0  0  0  0  0
    8.7915  -15.8722   21.3401 C   0  0  0  0  0  0  0  0  0  0  0  0
    7.8722  -16.4956   21.9038 O   0  0  0  0  0  0  0  0  0  0  0  0
   11.6416  -17.6902   22.6096 C   0  0  0  0  0  0  0  0  0  0  0  0
   10.4051  -16.8874   22.9926 C   0  0  2  0  0  0  0  0  0  0  0  0
   10.1135  -16.0200   21.8594 N   0  0  0  0  0  0  0  0  0  0  0  0
   10.6443  -16.0238   24.1633 C   0  0  0  0  0  0  0  0  0  0  0  0
   10.7814  -16.4951   25.3420 O   0  0  0  0  0  0  0  0  0  0  0  0
   10.7383  -14.6343   24.0723 O   0  0  0  0  0  0  0  0  0  0  0  0
  2  1  1  0
  3  2  2  0
  4  2  1  0
  5  4  1  0
  5  6  1  6
  7  8  2  0
  7  5  1  0
 10  9  1  1
 10 12  1  0
 11 10  1  0
 12 13  1  6
 12 14  1  0
 13  7  1  0
 14 18  1  0
 15 14  2  0
 17 19  1  0
 17 16  1  6
 18 17  1  0
 19 20  2  0
 19 21  1  0
M  END
$$$$
