NVA.pdb
     RDKit          3D

 21 20  0  0  1  0  0  0  0  0999 V2000
    6.0696  -19.2929   16.7338 N   0  0  0  0  0  0  0  0  0  0  0  0
    7.4617  -19.4829   16.8837 C   0  0  0  0  0  0  0  0  0  0  0  0
    8.0234  -20.3941   16.2423 O   0  0  0  0  0  0  0  0  0  0  0  0
    8.2384  -18.6134   17.7877 C   0  0  0  0  0  0  0  0  0  0  0  0
    8.1342  -17.1542   17.3997 C   0  0  2  0  0  0  0  0  0  0  0  0
    8.6617  -16.9432   16.0861 N   0  0  0  0  0  0  0  0  0  0  0  0
    8.8178  -16.3609   18.4404 C   0  0  0  0  0  0  0  0  0  0  0  0
   10.0771  -16.3256   18.4044 O   0  0  0  0  0  0  0  0  0  0  0  0
    7.8960  -12.7785   19.9982 C   0  0  0  0  0  0  0  0  0  0  0  0
    8.1586  -13.7952   21.0802 C   0  0  1  0  0  0  0  0  0  0  0  0
    6.8476  -14.2587   21.6502 C   0  0  0  0  0  0  0  0  0  0  0  0
    8.9514  -14.9335   20.4614 C   0  0  2  0  0  0  0  0  0  0  0  0
    8.1751  -15.6441   19.4655 N   0  0  0  0  0  0  0  0  0  0  0  0
    9.3107  -15.8654   21.5670 C   0  0  0  0  0  0  0  0  0  0  0  0
    8.5394  -16.7873   21.8936 O   0  0  0  0  0  0  0  0  0  0  0  0
   12.4764  -16.7918   23.1907 C   0  0  0  0  0  0  0  0  0  0  0  0
   10.9575  -16.7170   23.2779 C   0  0  2  0  0  0  0  0  0  0  0  0
   10.5386  -15.7375   22.2847 N   0  0  0  0  0  0  0  0  0  0  0  0
   10.4999  -16.2380   24.5950 C   0  0  0  0  0  0  0  0  0  0  0  0
   10.0478  -15.0571   24.7720 O   0  0  0  0  0  0  0  0  0  0  0  0
   10.5260  -17.0342   25.7410 O   0  0  0  0  0  0  0  0  0  0  0  0
  2  1  1  0
  3  2  2  0
  4  2  1  0
  5  4  1  0
  5  6  1  6
  7  8  2  0
  7  5  1  0
 10  9  1  6
 10 12  1  0
 11 10  1  0
 12 13  1  6
 12 14  1  0
 13  7  1  0
 14 18  1  0
 15 14  2  0
 17 19  1  0
 17 16  1  1
 18 17  1  0
 19 20  2  0
 19 21  1  0
M  END
$$$$
