NVA.pdb
     RDKit          3D

 21 20  0  0  1  0  0  0  0  0999 V2000
    4.8227  -21.1499   24.5265 N   0  0  0  0  0  0  0  0  0  0  0  0
    5.9173  -20.5449   25.1842 C   0  0  0  0  0  0  0  0  0  0  0  0
    6.1379  -20.8244   26.3802 O   0  0  0  0  0  0  0  0  0  0  0  0
    6.7862  -19.5954   24.4632 C   0  0  0  0  0  0  0  0  0  0  0  0
    6.2638  -19.2886   23.0763 C   0  0  2  0  0  0  0  0  0  0  0  0
    6.1561  -20.4874   22.3019 N   0  0  0  0  0  0  0  0  0  0  0  0
    7.1547  -18.2783   22.4720 C   0  0  0  0  0  0  0  0  0  0  0  0
    8.2066  -18.6951   21.9168 O   0  0  0  0  0  0  0  0  0  0  0  0
    6.7550  -14.0562   22.8431 C   0  0  0  0  0  0  0  0  0  0  0  0
    7.2473  -14.6408   21.5434 C   0  0  1  0  0  0  0  0  0  0  0  0
    8.2254  -13.6895   20.9137 C   0  0  0  0  0  0  0  0  0  0  0  0
    7.8739  -15.9896   21.8520 C   0  0  2  0  0  0  0  0  0  0  0  0
    6.9216  -16.8914   22.4678 N   0  0  0  0  0  0  0  0  0  0  0  0
    9.0012  -15.7409   22.7939 C   0  0  0  0  0  0  0  0  0  0  0  0
    8.7806  -15.3528   23.9568 O   0  0  0  0  0  0  0  0  0  0  0  0
   11.2485  -16.8973   24.3963 C   0  0  0  0  0  0  0  0  0  0  0  0
   11.4612  -15.8123   23.3486 C   0  0  2  0  0  0  0  0  0  0  0  0
   10.3606  -15.9360   22.4026 N   0  0  0  0  0  0  0  0  0  0  0  0
   12.7158  -16.0034   22.5982 C   0  0  0  0  0  0  0  0  0  0  0  0
   12.7365  -16.4812   21.4143 O   0  0  0  0  0  0  0  0  0  0  0  0
   13.9680  -15.6784   23.1218 O   0  0  0  0  0  0  0  0  0  0  0  0
  2  1  1  0
  3  2  2  0
  4  2  1  0
  5  4  1  0
  5  6  1  6
  7  8  2  0
  7  5  1  0
 10  9  1  1
 10 12  1  0
 11 10  1  0
 12 13  1  1
 12 14  1  0
 13  7  1  0
 14 18  1  0
 15 14  2  0
 17 19  1  0
 17 16  1  1
 18 17  1  0
 19 20  2  0
 19 21  1  0
M  END
$$$$
