NVA.pdb
     RDKit          3D

 21 20  0  0  1  0  0  0  0  0999 V2000
    6.5695  -16.6099   19.4948 N   0  0  0  0  0  0  0  0  0  0  0  0
    6.7801  -17.4270   20.6281 C   0  0  0  0  0  0  0  0  0  0  0  0
    6.3937  -18.6133   20.6026 O   0  0  0  0  0  0  0  0  0  0  0  0
    7.4486  -16.8816   21.8249 C   0  0  0  0  0  0  0  0  0  0  0  0
    7.5604  -15.3731   21.7745 C   0  0  2  0  0  0  0  0  0  0  0  0
    8.3512  -14.9636   20.6541 N   0  0  0  0  0  0  0  0  0  0  0  0
    8.0999  -14.9173   23.0709 C   0  0  0  0  0  0  0  0  0  0  0  0
    9.3522  -14.9335   23.2122 O   0  0  0  0  0  0  0  0  0  0  0  0
    7.7464  -12.7489   27.4611 C   0  0  0  0  0  0  0  0  0  0  0  0
    7.0072  -13.1719   26.2169 C   0  0  1  0  0  0  0  0  0  0  0  0
    6.4965  -11.9497   25.5070 C   0  0  0  0  0  0  0  0  0  0  0  0
    7.9693  -13.9754   25.3591 C   0  0  2  0  0  0  0  0  0  0  0  0
    7.3277  -14.4679   24.1569 N   0  0  0  0  0  0  0  0  0  0  0  0
    8.4287  -15.1285   26.1833 C   0  0  0  0  0  0  0  0  0  0  0  0
    7.6155  -15.9797   26.5901 O   0  0  0  0  0  0  0  0  0  0  0  0
   11.6532  -16.7917   26.7143 C   0  0  0  0  0  0  0  0  0  0  0  0
   10.2732  -16.4635   27.2696 C   0  0  2  0  0  0  0  0  0  0  0  0
    9.8027  -15.2982   26.5333 N   0  0  0  0  0  0  0  0  0  0  0  0
   10.3216  -16.0976   28.6969 C   0  0  0  0  0  0  0  0  0  0  0  0
   10.2709  -14.8846   29.0923 O   0  0  0  0  0  0  0  0  0  0  0  0
   10.4257  -17.0436   29.7177 O   0  0  0  0  0  0  0  0  0  0  0  0
  2  1  1  0
  3  2  2  0
  4  2  1  0
  5  4  1  0
  5  6  1  6
  7  8  2  0
  7  5  1  0
 10  9  1  1
 10 12  1  0
 11 10  1  0
 12 13  1  6
 12 14  1  0
 13  7  1  0
 14 18  1  0
 15 14  2  0
 17 19  1  0
 17 16  1  6
 18 17  1  0
 19 20  2  0
 19 21  1  0
M  END
$$$$
