NVA.pdb
     RDKit          3D

 21 20  0  0  1  0  0  0  0  0999 V2000
    8.0610  -17.1314   13.9472 N   0  0  0  0  0  0  0  0  0  0  0  0
    8.7838  -17.6020   15.0665 C   0  0  0  0  0  0  0  0  0  0  0  0
    9.2254  -18.7691   15.0580 O   0  0  0  0  0  0  0  0  0  0  0  0
    9.0115  -16.7223   16.2287 C   0  0  0  0  0  0  0  0  0  0  0  0
    8.9255  -17.4776   17.5375 C   0  0  2  0  0  0  0  0  0  0  0  0
    7.6053  -17.9931   17.7358 N   0  0  0  0  0  0  0  0  0  0  0  0
    9.3674  -16.5678   18.6130 C   0  0  0  0  0  0  0  0  0  0  0  0
   10.5247  -16.0783   18.5151 O   0  0  0  0  0  0  0  0  0  0  0  0
    7.5180  -13.6134   20.2771 C   0  0  0  0  0  0  0  0  0  0  0  0
    8.1061  -14.4544   21.3818 C   0  0  1  0  0  0  0  0  0  0  0  0
    7.0073  -15.2366   22.0445 C   0  0  0  0  0  0  0  0  0  0  0  0
    9.1615  -15.3552   20.7641 C   0  0  2  0  0  0  0  0  0  0  0  0
    8.5999  -16.2061   19.7345 N   0  0  0  0  0  0  0  0  0  0  0  0
    9.7088  -16.2010   21.8617 C   0  0  0  0  0  0  0  0  0  0  0  0
    9.1288  -17.2494   22.2024 O   0  0  0  0  0  0  0  0  0  0  0  0
   13.0122  -16.4521   23.4932 C   0  0  0  0  0  0  0  0  0  0  0  0
   11.5143  -16.7242   23.5444 C   0  0  2  0  0  0  0  0  0  0  0  0
   10.9050  -15.8450   22.5559 N   0  0  0  0  0  0  0  0  0  0  0  0
   10.9333  -16.3875   24.8568 C   0  0  0  0  0  0  0  0  0  0  0  0
   10.2083  -15.3520   25.0365 O   0  0  0  0  0  0  0  0  0  0  0  0
   11.1304  -17.1705   25.9953 O   0  0  0  0  0  0  0  0  0  0  0  0
  2  1  1  0
  3  2  2  0
  4  2  1  0
  5  4  1  0
  5  6  1  1
  7  8  2  0
  7  5  1  0
 10  9  1  6
 10 12  1  0
 11 10  1  0
 12 13  1  6
 12 14  1  0
 13  7  1  0
 14 18  1  0
 15 14  2  0
 17 19  1  0
 17 16  1  1
 18 17  1  0
 19 20  2  0
 19 21  1  0
M  END
$$$$
