NVA.pdb
     RDKit          3D

 21 20  0  0  1  0  0  0  0  0999 V2000
    5.5292  -19.1841   17.8868 N   0  0  0  0  0  0  0  0  0  0  0  0
    6.8518  -19.6729   17.7959 C   0  0  0  0  0  0  0  0  0  0  0  0
    7.0538  -20.7851   17.2673 O   0  0  0  0  0  0  0  0  0  0  0  0
    7.9774  -18.8762   18.3202 C   0  0  0  0  0  0  0  0  0  0  0  0
    7.9753  -17.4641   17.7755 C   0  0  2  0  0  0  0  0  0  0  0  0
    8.5545  -17.4279   16.4673 N   0  0  0  0  0  0  0  0  0  0  0  0
    8.6746  -16.6037   18.7503 C   0  0  0  0  0  0  0  0  0  0  0  0
    9.9272  -16.7198   18.8277 O   0  0  0  0  0  0  0  0  0  0  0  0
    7.9235  -12.7660   19.8406 C   0  0  0  0  0  0  0  0  0  0  0  0
    8.0979  -13.6757   21.0303 C   0  0  1  0  0  0  0  0  0  0  0  0
    6.7478  -13.9999   21.6054 C   0  0  0  0  0  0  0  0  0  0  0  0
    8.8352  -14.9168   20.5582 C   0  0  2  0  0  0  0  0  0  0  0  0
    8.0537  -15.6677   19.5966 N   0  0  0  0  0  0  0  0  0  0  0  0
    9.0835  -15.7599   21.7613 C   0  0  0  0  0  0  0  0  0  0  0  0
    8.1319  -16.2510   22.3975 O   0  0  0  0  0  0  0  0  0  0  0  0
   10.9532  -18.2484   22.9172 C   0  0  0  0  0  0  0  0  0  0  0  0
   10.6580  -16.8382   23.4115 C   0  0  2  0  0  0  0  0  0  0  0  0
   10.4066  -16.0330   22.2241 N   0  0  0  0  0  0  0  0  0  0  0  0
   11.8089  -16.2442   24.1157 C   0  0  0  0  0  0  0  0  0  0  0  0
   12.1772  -16.6372   25.2734 O   0  0  0  0  0  0  0  0  0  0  0  0
   12.5784  -15.2137   23.5736 O   0  0  0  0  0  0  0  0  0  0  0  0
  2  1  1  0
  3  2  2  0
  4  2  1  0
  5  4  1  0
  5  6  1  6
  7  8  2  0
  7  5  1  0
 10  9  1  6
 10 12  1  0
 11 10  1  0
 12 13  1  6
 12 14  1  0
 13  7  1  0
 14 18  1  0
 15 14  2  0
 17 19  1  0
 17 16  1  6
 18 17  1  0
 19 20  2  0
 19 21  1  0
M  END
$$$$
