NVA.pdb
     RDKit          3D

 21 20  0  0  1  0  0  0  0  0999 V2000
   10.4929  -18.6394   14.6242 N   0  0  0  0  0  0  0  0  0  0  0  0
    9.4752  -17.7873   15.1086 C   0  0  0  0  0  0  0  0  0  0  0  0
    8.3652  -17.7809   14.5384 O   0  0  0  0  0  0  0  0  0  0  0  0
    9.7248  -16.9175   16.2738 C   0  0  0  0  0  0  0  0  0  0  0  0
    8.9897  -17.3963   17.5071 C   0  0  2  0  0  0  0  0  0  0  0  0
    7.5756  -17.3830   17.2878 N   0  0  0  0  0  0  0  0  0  0  0  0
    9.4151  -16.5526   18.6415 C   0  0  0  0  0  0  0  0  0  0  0  0
   10.6486  -16.5075   18.8961 O   0  0  0  0  0  0  0  0  0  0  0  0
    7.8837  -13.0580   19.7871 C   0  0  0  0  0  0  0  0  0  0  0  0
    8.1294  -13.9297   20.9925 C   0  0  1  0  0  0  0  0  0  0  0  0
    6.8160  -14.4631   21.4915 C   0  0  0  0  0  0  0  0  0  0  0  0
    9.0791  -15.0387   20.5743 C   0  0  2  0  0  0  0  0  0  0  0  0
    8.5536  -15.7977   19.4574 N   0  0  0  0  0  0  0  0  0  0  0  0
    9.2436  -15.9381   21.7507 C   0  0  0  0  0  0  0  0  0  0  0  0
    8.3571  -16.7613   22.0470 O   0  0  0  0  0  0  0  0  0  0  0  0
   11.9913  -17.4484   23.4438 C   0  0  0  0  0  0  0  0  0  0  0  0
   10.6204  -16.8242   23.6700 C   0  0  2  0  0  0  0  0  0  0  0  0
   10.4104  -15.8899   22.5726 N   0  0  0  0  0  0  0  0  0  0  0  0
   10.5609  -16.0549   24.9262 C   0  0  0  0  0  0  0  0  0  0  0  0
   10.5893  -14.7785   24.9465 O   0  0  0  0  0  0  0  0  0  0  0  0
   10.4697  -16.6597   26.1807 O   0  0  0  0  0  0  0  0  0  0  0  0
  2  1  1  0
  3  2  2  0
  4  2  1  0
  5  4  1  0
  5  6  1  6
  7  8  2  0
  7  5  1  0
 10  9  1  6
 10 12  1  0
 11 10  1  0
 12 13  1  6
 12 14  1  0
 13  7  1  0
 14 18  1  0
 15 14  2  0
 17 19  1  0
 17 16  1  6
 18 17  1  0
 19 20  2  0
 19 21  1  0
M  END
$$$$
