NVA.pdb
     RDKit          3D

 21 20  0  0  1  0  0  0  0  0999 V2000
    7.6102  -16.6850   19.1346 N   0  0  0  0  0  0  0  0  0  0  0  0
    8.2089  -15.4081   19.2237 C   0  0  0  0  0  0  0  0  0  0  0  0
    8.5041  -14.8006   18.1744 O   0  0  0  0  0  0  0  0  0  0  0  0
    8.4801  -14.8038   20.5419 C   0  0  0  0  0  0  0  0  0  0  0  0
    8.0697  -15.7144   21.6790 C   0  0  2  0  0  0  0  0  0  0  0  0
    6.6796  -16.0420   21.5854 N   0  0  0  0  0  0  0  0  0  0  0  0
    8.4307  -15.0460   22.9449 C   0  0  0  0  0  0  0  0  0  0  0  0
    9.6403  -14.7313   23.1063 O   0  0  0  0  0  0  0  0  0  0  0  0
    7.6278  -12.7971   27.1864 C   0  0  0  0  0  0  0  0  0  0  0  0
    6.9873  -13.3688   25.9469 C   0  0  1  0  0  0  0  0  0  0  0  0
    6.5086  -12.2425   25.0748 C   0  0  0  0  0  0  0  0  0  0  0  0
    8.0220  -14.2357   25.2506 C   0  0  2  0  0  0  0  0  0  0  0  0
    7.5326  -14.7342   23.9812 N   0  0  0  0  0  0  0  0  0  0  0  0
    8.3091  -15.3835   26.1561 C   0  0  0  0  0  0  0  0  0  0  0  0
    7.7560  -16.4850   25.9768 O   0  0  0  0  0  0  0  0  0  0  0  0
   10.7910  -17.0106   26.8437 C   0  0  0  0  0  0  0  0  0  0  0  0
    9.8321  -16.4288   27.8744 C   0  0  2  0  0  0  0  0  0  0  0  0
    9.2186  -15.2644   27.2506 N   0  0  0  0  0  0  0  0  0  0  0  0
   10.5330  -15.9663   29.0861 C   0  0  0  0  0  0  0  0  0  0  0  0
   10.8392  -14.7406   29.2711 O   0  0  0  0  0  0  0  0  0  0  0  0
   10.9126  -16.8279   30.1164 O   0  0  0  0  0  0  0  0  0  0  0  0
  2  1  1  0
  3  2  2  0
  4  2  1  0
  5  4  1  0
  5  6  1  1
  7  8  2  0
  7  5  1  0
 10  9  1  1
 10 12  1  0
 11 10  1  0
 12 13  1  6
 12 14  1  0
 13  7  1  0
 14 18  1  0
 15 14  2  0
 17 19  1  0
 17 16  1  6
 18 17  1  0
 19 20  2  0
 19 21  1  0
M  END
$$$$
