NVA.pdb
     RDKit          3D

 21 20  0  0  1  0  0  0  0  0999 V2000
    7.4304  -19.0733   15.5060 N   0  0  0  0  0  0  0  0  0  0  0  0
    8.0661  -19.6566   16.6250 C   0  0  0  0  0  0  0  0  0  0  0  0
    7.8948  -20.8708   16.8571 O   0  0  0  0  0  0  0  0  0  0  0  0
    8.9207  -18.8380   17.5059 C   0  0  0  0  0  0  0  0  0  0  0  0
    8.9368  -17.3832   17.0888 C   0  0  2  0  0  0  0  0  0  0  0  0
    9.8752  -17.1734   16.0288 N   0  0  0  0  0  0  0  0  0  0  0  0
    9.2183  -16.5727   18.2902 C   0  0  0  0  0  0  0  0  0  0  0  0
   10.4042  -16.5669   18.7171 O   0  0  0  0  0  0  0  0  0  0  0  0
    8.0680  -13.1726   21.6457 C   0  0  0  0  0  0  0  0  0  0  0  0
    7.6173  -13.9170   20.4144 C   0  0  1  0  0  0  0  0  0  0  0  0
    7.4054  -12.9366   19.2953 C   0  0  0  0  0  0  0  0  0  0  0  0
    8.6824  -14.9476   20.0823 C   0  0  2  0  0  0  0  0  0  0  0  0
    8.2693  -15.8091   18.9931 N   0  0  0  0  0  0  0  0  0  0  0  0
    8.8935  -15.7665   21.3089 C   0  0  0  0  0  0  0  0  0  0  0  0
    8.0146  -16.5571   21.7013 O   0  0  0  0  0  0  0  0  0  0  0  0
   11.8593  -16.5586   23.4149 C   0  0  0  0  0  0  0  0  0  0  0  0
   10.3486  -16.5334   23.2219 C   0  0  2  0  0  0  0  0  0  0  0  0
   10.0976  -15.6762   22.0714 N   0  0  0  0  0  0  0  0  0  0  0  0
    9.6509  -15.9413   24.3778 C   0  0  0  0  0  0  0  0  0  0  0  0
    9.3095  -14.7114   24.4119 O   0  0  0  0  0  0  0  0  0  0  0  0
    9.3128  -16.6758   25.5154 O   0  0  0  0  0  0  0  0  0  0  0  0
  2  1  1  0
  3  2  2  0
  4  2  1  0
  5  4  1  0
  5  6  1  6
  7  8  2  0
  7  5  1  0
 10  9  1  1
 10 12  1  0
 11 10  1  0
 12 13  1  6
 12 14  1  0
 13  7  1  0
 14 18  1  0
 15 14  2  0
 17 19  1  0
 17 16  1  1
 18 17  1  0
 19 20  2  0
 19 21  1  0
M  END
$$$$
