NVA.pdb
     RDKit          3D

 21 20  0  0  1  0  0  0  0  0999 V2000
    5.5753  -19.0643   16.5318 N   0  0  0  0  0  0  0  0  0  0  0  0
    6.8877  -19.5818   16.6110 C   0  0  0  0  0  0  0  0  0  0  0  0
    7.1197  -20.7224   16.1609 O   0  0  0  0  0  0  0  0  0  0  0  0
    7.9678  -18.7814   17.2187 C   0  0  0  0  0  0  0  0  0  0  0  0
    7.9564  -17.3490   16.7302 C   0  0  2  0  0  0  0  0  0  0  0  0
    8.6123  -17.2438   15.4626 N   0  0  0  0  0  0  0  0  0  0  0  0
    8.5692  -16.5099   17.7789 C   0  0  0  0  0  0  0  0  0  0  0  0
    9.8272  -16.5099   17.8556 O   0  0  0  0  0  0  0  0  0  0  0  0
    6.5770  -14.4384   20.9711 C   0  0  0  0  0  0  0  0  0  0  0  0
    7.6648  -13.7635   20.1745 C   0  0  1  0  0  0  0  0  0  0  0  0
    8.4058  -12.8055   21.0642 C   0  0  0  0  0  0  0  0  0  0  0  0
    8.5699  -14.8486   19.6174 C   0  0  2  0  0  0  0  0  0  0  0  0
    7.8608  -15.7133   18.6961 N   0  0  0  0  0  0  0  0  0  0  0  0
    9.0533  -15.6501   20.7766 C   0  0  0  0  0  0  0  0  0  0  0  0
    8.3221  -16.5127   21.2988 O   0  0  0  0  0  0  0  0  0  0  0  0
   12.3137  -15.8830   22.6235 C   0  0  0  0  0  0  0  0  0  0  0  0
   10.8485  -16.2577   22.4418 C   0  0  2  0  0  0  0  0  0  0  0  0
   10.3580  -15.4610   21.3255 N   0  0  0  0  0  0  0  0  0  0  0  0
   10.0368  -15.9140   23.6235 C   0  0  0  0  0  0  0  0  0  0  0  0
    9.7516  -16.7695   24.5275 O   0  0  0  0  0  0  0  0  0  0  0  0
    9.5217  -14.6354   23.8423 O   0  0  0  0  0  0  0  0  0  0  0  0
  2  1  1  0
  3  2  2  0
  4  2  1  0
  5  4  1  0
  5  6  1  6
  7  8  2  0
  7  5  1  0
 10  9  1  1
 10 12  1  0
 11 10  1  0
 12 13  1  6
 12 14  1  0
 13  7  1  0
 14 18  1  0
 15 14  2  0
 17 19  1  0
 17 16  1  1
 18 17  1  0
 19 20  2  0
 19 21  1  0
M  END
$$$$
