NVA.pdb
     RDKit          3D

 21 20  0  0  1  0  0  0  0  0999 V2000
    6.7475  -19.7189   16.3131 N   0  0  0  0  0  0  0  0  0  0  0  0
    8.0387  -19.3036   15.9169 C   0  0  0  0  0  0  0  0  0  0  0  0
    8.4423  -19.5843   14.7700 O   0  0  0  0  0  0  0  0  0  0  0  0
    8.8962  -18.5480   16.8498 C   0  0  0  0  0  0  0  0  0  0  0  0
    8.9239  -17.0701   16.5246 C   0  0  2  0  0  0  0  0  0  0  0  0
    9.8356  -16.8070   15.4532 N   0  0  0  0  0  0  0  0  0  0  0  0
    9.2519  -16.3413   17.7659 C   0  0  0  0  0  0  0  0  0  0  0  0
   10.4687  -16.2639   18.0849 O   0  0  0  0  0  0  0  0  0  0  0  0
    8.1993  -13.3370   21.5009 C   0  0  0  0  0  0  0  0  0  0  0  0
    7.6600  -14.0563   20.2906 C   0  0  1  0  0  0  0  0  0  0  0  0
    7.2243  -13.0442   19.2687 C   0  0  0  0  0  0  0  0  0  0  0  0
    8.7577  -14.9663   19.7672 C   0  0  2  0  0  0  0  0  0  0  0  0
    8.3151  -15.7288   18.6174 N   0  0  0  0  0  0  0  0  0  0  0  0
    9.1140  -15.8993   20.8729 C   0  0  0  0  0  0  0  0  0  0  0  0
    8.2587  -16.6659   21.3547 O   0  0  0  0  0  0  0  0  0  0  0  0
   12.1282  -17.5465   21.9291 C   0  0  0  0  0  0  0  0  0  0  0  0
   10.8216  -16.9332   22.4156 C   0  0  2  0  0  0  0  0  0  0  0  0
   10.4344  -15.9485   21.4147 N   0  0  0  0  0  0  0  0  0  0  0  0
   10.9847  -16.2235   23.6975 C   0  0  0  0  0  0  0  0  0  0  0  0
   11.0851  -14.9524   23.7655 O   0  0  0  0  0  0  0  0  0  0  0  0
   11.0413  -16.8832   24.9261 O   0  0  0  0  0  0  0  0  0  0  0  0
  2  1  1  0
  3  2  2  0
  4  2  1  0
  5  4  1  0
  5  6  1  6
  7  8  2  0
  7  5  1  0
 10  9  1  1
 10 12  1  0
 11 10  1  0
 12 13  1  6
 12 14  1  0
 13  7  1  0
 14 18  1  0
 15 14  2  0
 17 19  1  0
 17 16  1  6
 18 17  1  0
 19 20  2  0
 19 21  1  0
M  END
$$$$
