NVA.pdb
     RDKit          3D

 21 20  0  0  1  0  0  0  0  0999 V2000
    7.2684  -19.4053   15.5575 N   0  0  0  0  0  0  0  0  0  0  0  0
    7.0485  -19.6507   16.9315 C   0  0  0  0  0  0  0  0  0  0  0  0
    6.4712  -20.7019   17.2765 O   0  0  0  0  0  0  0  0  0  0  0  0
    7.4968  -18.6747   17.9429 C   0  0  0  0  0  0  0  0  0  0  0  0
    8.0171  -17.4015   17.3113 C   0  0  2  0  0  0  0  0  0  0  0  0
    8.9578  -17.7010   16.2751 N   0  0  0  0  0  0  0  0  0  0  0  0
    8.5781  -16.5608   18.3874 C   0  0  0  0  0  0  0  0  0  0  0  0
    9.8312  -16.5573   18.5227 O   0  0  0  0  0  0  0  0  0  0  0  0
    8.3259  -13.1839   21.9399 C   0  0  0  0  0  0  0  0  0  0  0  0
    7.5884  -13.8811   20.8249 C   0  0  1  0  0  0  0  0  0  0  0  0
    7.2431  -12.8790   19.7596 C   0  0  0  0  0  0  0  0  0  0  0  0
    8.4842  -14.9908   20.3022 C   0  0  2  0  0  0  0  0  0  0  0  0
    7.8255  -15.7662   19.2705 N   0  0  0  0  0  0  0  0  0  0  0  0
    8.8029  -15.8745   21.4586 C   0  0  0  0  0  0  0  0  0  0  0  0
    7.8904  -16.3859   22.1349 O   0  0  0  0  0  0  0  0  0  0  0  0
   11.5334  -18.0158   22.4206 C   0  0  0  0  0  0  0  0  0  0  0  0
   10.4718  -17.0538   22.9381 C   0  0  2  0  0  0  0  0  0  0  0  0
   10.1509  -16.1644   21.8301 N   0  0  0  0  0  0  0  0  0  0  0  0
   10.9709  -16.2202   24.0469 C   0  0  0  0  0  0  0  0  0  0  0  0
   11.0317  -16.6481   25.2483 O   0  0  0  0  0  0  0  0  0  0  0  0
   11.4120  -14.9081   23.8684 O   0  0  0  0  0  0  0  0  0  0  0  0
  2  1  1  0
  3  2  2  0
  4  2  1  0
  5  4  1  0
  5  6  1  6
  7  8  2  0
  7  5  1  0
 10  9  1  1
 10 12  1  0
 11 10  1  0
 12 13  1  6
 12 14  1  0
 13  7  1  0
 14 18  1  0
 15 14  2  0
 17 19  1  0
 17 16  1  6
 18 17  1  0
 19 20  2  0
 19 21  1  0
M  END
$$$$
