IYQ.pdb
     RDKit          3D

 30 30  0  0  1  0  0  0  0  0999 V2000
    7.9992  -16.2523   16.9140 C   0  0  0  0  0  0  0  0  0  0  0  0
    7.4438  -15.2403   17.8790 C   0  0  0  0  0  0  0  0  0  0  0  0
    8.2065  -15.2400   19.1870 C   0  0  2  0  0  0  0  0  0  0  0  0
    8.3861  -16.6712   19.6410 C   0  0  0  0  0  0  0  0  0  0  0  0
    7.5439  -14.3824   20.2387 C   0  0  2  0  0  0  0  0  0  0  0  0
    7.5530  -13.0158   19.6938 N   0  0  0  0  0  0  0  0  0  0  0  0
    8.3022  -14.3585   21.5068 C   0  0  0  0  0  0  0  0  0  0  0  0
    9.4137  -13.7285   21.5698 O   0  0  0  0  0  0  0  0  0  0  0  0
    5.9123  -10.2569   27.2197 O   0  0  0  0  0  0  0  0  0  0  0  0
    6.3184  -11.4791   26.7012 C   0  0  0  0  0  0  0  0  0  0  0  0
    5.4209  -12.4798   26.3872 C   0  0  0  0  0  0  0  0  0  0  0  0
    5.8639  -13.6809   25.8738 C   0  0  0  0  0  0  0  0  0  0  0  0
    7.1993  -13.9528   25.6467 C   0  0  0  0  0  0  0  0  0  0  0  0
    7.6777  -15.2377   25.1024 C   0  0  0  0  0  0  0  0  0  0  0  0
    8.5725  -15.0947   23.9227 C   0  0  2  0  0  0  0  0  0  0  0  0
    7.8377  -15.0173   22.6741 N   0  0  0  0  0  0  0  0  0  0  0  0
    9.5449  -16.1913   23.8155 C   0  0  0  0  0  0  0  0  0  0  0  0
    9.1744  -17.3151   23.4213 O   0  0  0  0  0  0  0  0  0  0  0  0
    8.0883  -12.9206   25.9738 C   0  0  0  0  0  0  0  0  0  0  0  0
    7.6595  -11.7155   26.4874 C   0  0  0  0  0  0  0  0  0  0  0  0
   16.4770  -18.0379   22.6870 N   0  0  0  0  0  0  0  0  0  0  0  0
   15.6000  -17.1210   23.3153 C   0  0  0  0  0  0  0  0  0  0  0  0
   15.9300  -15.9364   23.4844 O   0  0  0  0  0  0  0  0  0  0  0  0
   14.2585  -17.6435   23.7661 C   0  0  0  0  0  0  0  0  0  0  0  0
   13.2200  -16.5613   23.6845 C   0  0  0  0  0  0  0  0  0  0  0  0
   11.8724  -17.0852   24.0479 C   0  0  2  0  0  0  0  0  0  0  0  0
   10.8979  -16.0000   24.1508 N   0  0  0  0  0  0  0  0  0  0  0  0
   11.9259  -17.7930   25.3378 C   0  0  0  0  0  0  0  0  0  0  0  0
   12.6441  -19.0088   25.3673 O   0  0  0  0  0  0  0  0  0  0  0  0
   11.3940  -17.4092   26.3930 O   0  0  0  0  0  0  0  0  0  0  0  0
  2  1  1  0
  3  2  1  0
  3  4  1  1
  5  3  1  0
  5  6  1  6
  7  5  1  0
  7  8  2  0
  9 10  1  0
 10 20  2  0
 11 10  1  0
 11 12  2  0
 12 13  1  0
 13 19  2  0
 13 14  1  0
 15 14  1  1
 15 16  1  0
 16  7  1  0
 17 15  1  0
 18 17  2  0
 20 19  1  0
 22 21  1  0
 22 23  2  0
 24 22  1  0
 25 24  1  0
 26 25  1  1
 26 27  1  0
 27 17  1  0
 28 29  1  0
 28 26  1  0
 30 28  2  0
M  END
$$$$
