IYQ.pdb
     RDKit          3D

 30 30  0  0  1  0  0  0  0  0999 V2000
    7.6051  -15.1864   16.3823 C   0  0  0  0  0  0  0  0  0  0  0  0
    7.0474  -14.3170   17.4763 C   0  0  0  0  0  0  0  0  0  0  0  0
    7.8852  -14.3984   18.7349 C   0  0  2  0  0  0  0  0  0  0  0  0
    8.1441  -15.8547   19.0487 C   0  0  0  0  0  0  0  0  0  0  0  0
    7.2544  -13.6641   19.8940 C   0  0  2  0  0  0  0  0  0  0  0  0
    7.1956  -12.2535   19.4800 N   0  0  0  0  0  0  0  0  0  0  0  0
    8.0771  -13.7319   21.1196 C   0  0  0  0  0  0  0  0  0  0  0  0
    9.2039  -13.1279   21.1617 O   0  0  0  0  0  0  0  0  0  0  0  0
   10.1141  -14.6420   29.7353 O   0  0  0  0  0  0  0  0  0  0  0  0
    9.4773  -14.6459   28.5016 C   0  0  0  0  0  0  0  0  0  0  0  0
    9.2590  -13.4879   27.7828 C   0  0  0  0  0  0  0  0  0  0  0  0
    8.6223  -13.5331   26.5600 C   0  0  0  0  0  0  0  0  0  0  0  0
    8.1737  -14.7094   25.9909 C   0  0  0  0  0  0  0  0  0  0  0  0
    7.4881  -14.7617   24.6859 C   0  0  0  0  0  0  0  0  0  0  0  0
    8.3786  -14.4820   23.5276 C   0  0  2  0  0  0  0  0  0  0  0  0
    7.6589  -14.4519   22.2681 N   0  0  0  0  0  0  0  0  0  0  0  0
    9.4721  -15.4564   23.4079 C   0  0  0  0  0  0  0  0  0  0  0  0
   10.2482  -15.4041   22.4328 O   0  0  0  0  0  0  0  0  0  0  0  0
    8.4080  -15.8692   26.7411 C   0  0  0  0  0  0  0  0  0  0  0  0
    9.0430  -15.8386   27.9641 C   0  0  0  0  0  0  0  0  0  0  0  0
   12.8423  -17.2817   20.7962 N   0  0  0  0  0  0  0  0  0  0  0  0
   13.3978  -18.1146   21.7973 C   0  0  0  0  0  0  0  0  0  0  0  0
   14.2169  -19.0010   21.5074 O   0  0  0  0  0  0  0  0  0  0  0  0
   12.9536  -17.8786   23.2196 C   0  0  0  0  0  0  0  0  0  0  0  0
   11.7629  -16.9636   23.2520 C   0  0  0  0  0  0  0  0  0  0  0  0
   10.8015  -17.3750   24.3146 C   0  0  2  0  0  0  0  0  0  0  0  0
    9.6652  -16.4569   24.3781 N   0  0  0  0  0  0  0  0  0  0  0  0
   11.4643  -17.3943   25.6291 C   0  0  0  0  0  0  0  0  0  0  0  0
   11.5130  -16.1722   26.3352 O   0  0  0  0  0  0  0  0  0  0  0  0
   11.9797  -18.3915   26.1616 O   0  0  0  0  0  0  0  0  0  0  0  0
  2  1  1  0
  3  2  1  0
  3  4  1  1
  5  3  1  0
  5  6  1  6
  7  5  1  0
  7  8  2  0
  9 10  1  0
 10 20  2  0
 11 10  1  0
 11 12  2  0
 12 13  1  0
 13 19  2  0
 13 14  1  0
 15 14  1  1
 15 16  1  0
 16  7  1  0
 17 15  1  0
 18 17  2  0
 20 19  1  0
 22 21  1  0
 22 23  2  0
 24 22  1  0
 25 24  1  0
 26 25  1  6
 26 27  1  0
 27 17  1  0
 28 29  1  0
 28 26  1  0
 30 28  2  0
M  END
$$$$
