IYQ.pdb
     RDKit          3D

 30 30  0  0  1  0  0  0  0  0999 V2000
    6.3593  -11.9078   28.0287 C   0  0  0  0  0  0  0  0  0  0  0  0
    5.8075  -12.7458   26.9076 C   0  0  0  0  0  0  0  0  0  0  0  0
    6.8897  -13.5708   26.2433 C   0  0  2  0  0  0  0  0  0  0  0  0
    8.0350  -12.6555   25.8730 C   0  0  0  0  0  0  0  0  0  0  0  0
    6.3719  -14.3516   25.0589 C   0  0  2  0  0  0  0  0  0  0  0  0
    5.3225  -15.2313   25.5971 N   0  0  0  0  0  0  0  0  0  0  0  0
    7.4083  -15.2158   24.4565 C   0  0  0  0  0  0  0  0  0  0  0  0
    7.5406  -16.4227   24.8589 O   0  0  0  0  0  0  0  0  0  0  0  0
    6.4028  -14.3186   17.2322 O   0  0  0  0  0  0  0  0  0  0  0  0
    7.2670  -14.4263   18.3134 C   0  0  0  0  0  0  0  0  0  0  0  0
    7.7724  -13.3190   18.9644 C   0  0  0  0  0  0  0  0  0  0  0  0
    8.6289  -13.4675   20.0353 C   0  0  0  0  0  0  0  0  0  0  0  0
    9.0259  -14.7017   20.5128 C   0  0  0  0  0  0  0  0  0  0  0  0
    9.9455  -14.8649   21.6546 C   0  0  0  0  0  0  0  0  0  0  0  0
    9.3313  -15.5402   22.8291 C   0  0  2  0  0  0  0  0  0  0  0  0
    8.2747  -14.7510   23.4340 N   0  0  0  0  0  0  0  0  0  0  0  0
   10.3148  -15.8656   23.8715 C   0  0  0  0  0  0  0  0  0  0  0  0
   10.8292  -14.9529   24.5483 O   0  0  0  0  0  0  0  0  0  0  0  0
    8.4985  -15.8082   19.8344 C   0  0  0  0  0  0  0  0  0  0  0  0
    7.6417  -15.6743   18.7630 C   0  0  0  0  0  0  0  0  0  0  0  0
   11.7965  -20.4870   29.0953 N   0  0  0  0  0  0  0  0  0  0  0  0
   11.2144  -19.3383   28.5068 C   0  0  0  0  0  0  0  0  0  0  0  0
   10.1562  -18.8624   28.9478 O   0  0  0  0  0  0  0  0  0  0  0  0
   11.9316  -18.7239   27.3303 C   0  0  0  0  0  0  0  0  0  0  0  0
   10.9424  -18.1920   26.3329 C   0  0  0  0  0  0  0  0  0  0  0  0
   11.6373  -17.5339   25.1898 C   0  0  2  0  0  0  0  0  0  0  0  0
   10.6929  -17.1967   24.1256 N   0  0  0  0  0  0  0  0  0  0  0  0
   12.6721  -18.4227   24.6358 C   0  0  0  0  0  0  0  0  0  0  0  0
   13.8479  -18.5850   25.4013 O   0  0  0  0  0  0  0  0  0  0  0  0
   12.5940  -19.0356   23.5579 O   0  0  0  0  0  0  0  0  0  0  0  0
  2  1  1  0
  3  2  1  0
  3  4  1  6
  5  3  1  0
  5  6  1  1
  7  5  1  0
  7  8  2  0
  9 10  1  0
 10 20  2  0
 11 10  1  0
 11 12  2  0
 12 13  1  0
 13 19  2  0
 13 14  1  0
 15 14  1  6
 15 16  1  0
 16  7  1  0
 17 15  1  0
 18 17  2  0
 20 19  1  0
 22 21  1  0
 22 23  2  0
 24 22  1  0
 25 24  1  0
 26 25  1  1
 26 27  1  0
 27 17  1  0
 28 29  1  0
 28 26  1  0
 30 28  2  0
M  END
$$$$
