IYQ.pdb
     RDKit          3D

 30 30  0  0  1  0  0  0  0  0999 V2000
    6.8356  -12.3646   18.3029 C   0  0  0  0  0  0  0  0  0  0  0  0
    6.6150  -13.5774   19.1655 C   0  0  0  0  0  0  0  0  0  0  0  0
    7.3048  -13.4408   20.5065 C   0  0  2  0  0  0  0  0  0  0  0  0
    8.7619  -13.1140   20.2683 C   0  0  0  0  0  0  0  0  0  0  0  0
    7.1245  -14.6643   21.3732 C   0  0  2  0  0  0  0  0  0  0  0  0
    5.6723  -14.7958   21.5695 N   0  0  0  0  0  0  0  0  0  0  0  0
    7.7391  -14.5058   22.7076 C   0  0  0  0  0  0  0  0  0  0  0  0
    7.3826  -13.5340   23.4591 O   0  0  0  0  0  0  0  0  0  0  0  0
   11.0377  -15.0376   30.6875 O   0  0  0  0  0  0  0  0  0  0  0  0
   10.4061  -15.0936   29.4524 C   0  0  0  0  0  0  0  0  0  0  0  0
    9.9589  -16.2805   28.9079 C   0  0  0  0  0  0  0  0  0  0  0  0
    9.3357  -16.2948   27.6774 C   0  0  0  0  0  0  0  0  0  0  0  0
    9.1247  -15.1520   26.9301 C   0  0  0  0  0  0  0  0  0  0  0  0
    8.4632  -15.1634   25.6117 C   0  0  0  0  0  0  0  0  0  0  0  0
    9.4071  -15.2646   24.4665 C   0  0  2  0  0  0  0  0  0  0  0  0
    8.7240  -15.4034   23.1941 N   0  0  0  0  0  0  0  0  0  0  0  0
   10.3473  -16.3852   24.6071 C   0  0  0  0  0  0  0  0  0  0  0  0
    9.9147  -17.5478   24.7374 O   0  0  0  0  0  0  0  0  0  0  0  0
    9.5880  -13.9618   27.5058 C   0  0  0  0  0  0  0  0  0  0  0  0
   10.2122  -13.9330   28.7343 C   0  0  0  0  0  0  0  0  0  0  0  0
   15.2324  -14.8916   21.1744 N   0  0  0  0  0  0  0  0  0  0  0  0
   15.0387  -15.3261   22.5080 C   0  0  0  0  0  0  0  0  0  0  0  0
   15.6654  -14.8071   23.4453 O   0  0  0  0  0  0  0  0  0  0  0  0
   14.0454  -16.4383   22.7367 C   0  0  0  0  0  0  0  0  0  0  0  0
   14.0402  -16.8474   24.1820 C   0  0  0  0  0  0  0  0  0  0  0  0
   12.6818  -17.2912   24.6069 C   0  0  2  0  0  0  0  0  0  0  0  0
   11.7383  -16.1741   24.5979 N   0  0  0  0  0  0  0  0  0  0  0  0
   12.7266  -17.8577   25.9651 C   0  0  0  0  0  0  0  0  0  0  0  0
   12.6332  -16.9449   27.0388 O   0  0  0  0  0  0  0  0  0  0  0  0
   12.8393  -19.0643   26.2392 O   0  0  0  0  0  0  0  0  0  0  0  0
  2  1  1  0
  3  2  1  0
  3  4  1  6
  5  3  1  0
  5  6  1  1
  7  5  1  0
  7  8  2  0
  9 10  1  0
 10 20  2  0
 11 10  1  0
 11 12  2  0
 12 13  1  0
 13 19  2  0
 13 14  1  0
 15 14  1  1
 15 16  1  0
 16  7  1  0
 17 15  1  0
 18 17  2  0
 20 19  1  0
 22 21  1  0
 22 23  2  0
 24 22  1  0
 25 24  1  0
 26 25  1  1
 26 27  1  0
 27 17  1  0
 28 29  1  0
 28 26  1  0
 30 28  2  0
M  END
$$$$
