IYQ.pdb
     RDKit          3D

 30 30  0  0  1  0  0  0  0  0999 V2000
    7.7427  -16.1864   16.6473 C   0  0  0  0  0  0  0  0  0  0  0  0
    7.4062  -14.9265   17.3976 C   0  0  0  0  0  0  0  0  0  0  0  0
    7.9752  -14.9443   18.8007 C   0  0  2  0  0  0  0  0  0  0  0  0
    7.6588  -16.2811   19.4326 C   0  0  0  0  0  0  0  0  0  0  0  0
    7.4855  -13.7843   19.6345 C   0  0  2  0  0  0  0  0  0  0  0  0
    7.9688  -12.5759   18.9483 N   0  0  0  0  0  0  0  0  0  0  0  0
    8.0645  -13.7829   20.9941 C   0  0  0  0  0  0  0  0  0  0  0  0
    9.3176  -13.5790   21.1500 O   0  0  0  0  0  0  0  0  0  0  0  0
    8.6870  -13.9140   29.8763 O   0  0  0  0  0  0  0  0  0  0  0  0
    8.2142  -13.8742   28.5715 C   0  0  0  0  0  0  0  0  0  0  0  0
    7.6436  -14.9734   27.9620 C   0  0  0  0  0  0  0  0  0  0  0  0
    7.1856  -14.8938   26.6633 C   0  0  0  0  0  0  0  0  0  0  0  0
    7.2664  -13.7393   25.9087 C   0  0  0  0  0  0  0  0  0  0  0  0
    6.7823  -13.6514   24.5181 C   0  0  0  0  0  0  0  0  0  0  0  0
    7.7901  -14.0619   23.5038 C   0  0  2  0  0  0  0  0  0  0  0  0
    7.2719  -14.0023   22.1499 N   0  0  0  0  0  0  0  0  0  0  0  0
    8.3069  -15.4175   23.7379 C   0  0  0  0  0  0  0  0  0  0  0  0
    7.5616  -16.4043   23.5751 O   0  0  0  0  0  0  0  0  0  0  0  0
    7.8495  -12.6393   26.5512 C   0  0  0  0  0  0  0  0  0  0  0  0
    8.3112  -12.7047   27.8483 C   0  0  0  0  0  0  0  0  0  0  0  0
   11.8303  -17.1681   19.6975 N   0  0  0  0  0  0  0  0  0  0  0  0
   12.0784  -17.3200   21.0832 C   0  0  0  0  0  0  0  0  0  0  0  0
   13.2351  -17.4527   21.5133 O   0  0  0  0  0  0  0  0  0  0  0  0
   10.8844  -17.3134   22.0054 C   0  0  0  0  0  0  0  0  0  0  0  0
   11.3288  -17.2296   23.4378 C   0  0  0  0  0  0  0  0  0  0  0  0
   10.1713  -16.9760   24.3425 C   0  0  2  0  0  0  0  0  0  0  0  0
    9.6367  -15.6293   24.1456 N   0  0  0  0  0  0  0  0  0  0  0  0
   10.5772  -17.1195   25.7504 C   0  0  0  0  0  0  0  0  0  0  0  0
   11.0739  -18.3816   26.1441 O   0  0  0  0  0  0  0  0  0  0  0  0
   10.5178  -16.2264   26.6121 O   0  0  0  0  0  0  0  0  0  0  0  0
  2  1  1  0
  3  2  1  0
  3  4  1  1
  5  3  1  0
  5  6  1  6
  7  5  1  0
  7  8  2  0
  9 10  1  0
 10 20  2  0
 11 10  1  0
 11 12  2  0
 12 13  1  0
 13 19  2  0
 13 14  1  0
 15 14  1  1
 15 16  1  0
 16  7  1  0
 17 15  1  0
 18 17  2  0
 20 19  1  0
 22 21  1  0
 22 23  2  0
 24 22  1  0
 25 24  1  0
 26 25  1  6
 26 27  1  0
 27 17  1  0
 28 29  1  0
 28 26  1  0
 30 28  2  0
M  END
$$$$
