IYQ.pdb
     RDKit          3D

 30 30  0  0  1  0  0  0  0  0999 V2000
    6.8405  -16.4112   17.5215 C   0  0  0  0  0  0  0  0  0  0  0  0
    6.8375  -15.1291   18.3087 C   0  0  0  0  0  0  0  0  0  0  0  0
    7.6215  -15.2641   19.5972 C   0  0  2  0  0  0  0  0  0  0  0  0
    7.1498  -16.5051   20.3209 C   0  0  0  0  0  0  0  0  0  0  0  0
    7.5298  -14.0269   20.4583 C   0  0  2  0  0  0  0  0  0  0  0  0
    8.0752  -12.9352   19.6364 N   0  0  0  0  0  0  0  0  0  0  0  0
    8.3626  -14.1236   21.6751 C   0  0  0  0  0  0  0  0  0  0  0  0
    9.6363  -14.1774   21.5697 O   0  0  0  0  0  0  0  0  0  0  0  0
   10.4618  -15.1940   30.2902 O   0  0  0  0  0  0  0  0  0  0  0  0
    9.8239  -14.8698   29.1004 C   0  0  0  0  0  0  0  0  0  0  0  0
    9.9277  -13.6183   28.5274 C   0  0  0  0  0  0  0  0  0  0  0  0
    9.2784  -13.3349   27.3438 C   0  0  0  0  0  0  0  0  0  0  0  0
    8.5027  -14.2610   26.6733 C   0  0  0  0  0  0  0  0  0  0  0  0
    7.8028  -13.9606   25.4100 C   0  0  0  0  0  0  0  0  0  0  0  0
    8.5468  -14.3873   24.1946 C   0  0  2  0  0  0  0  0  0  0  0  0
    7.7952  -14.1597   22.9747 N   0  0  0  0  0  0  0  0  0  0  0  0
    8.9333  -15.8044   24.2377 C   0  0  0  0  0  0  0  0  0  0  0  0
    8.0840  -16.6883   24.0074 O   0  0  0  0  0  0  0  0  0  0  0  0
    8.4145  -15.5224   27.2764 C   0  0  0  0  0  0  0  0  0  0  0  0
    9.0579  -15.8193   28.4587 C   0  0  0  0  0  0  0  0  0  0  0  0
   11.5341  -18.7723   20.6096 N   0  0  0  0  0  0  0  0  0  0  0  0
   12.4071  -17.7985   21.1519 C   0  0  0  0  0  0  0  0  0  0  0  0
   13.3415  -17.3344   20.4795 O   0  0  0  0  0  0  0  0  0  0  0  0
   12.1533  -17.3543   22.5711 C   0  0  0  0  0  0  0  0  0  0  0  0
   10.9476  -18.0534   23.1315 C   0  0  0  0  0  0  0  0  0  0  0  0
   10.6614  -17.5944   24.5208 C   0  0  2  0  0  0  0  0  0  0  0  0
   10.2530  -16.1904   24.5358 N   0  0  0  0  0  0  0  0  0  0  0  0
   11.8551  -17.7458   25.3692 C   0  0  0  0  0  0  0  0  0  0  0  0
   12.3546  -16.5744   25.9799 O   0  0  0  0  0  0  0  0  0  0  0  0
   12.4527  -18.8128   25.5885 O   0  0  0  0  0  0  0  0  0  0  0  0
  2  1  1  0
  3  2  1  0
  3  4  1  1
  5  3  1  0
  5  6  1  6
  7  5  1  0
  7  8  2  0
  9 10  1  0
 10 20  2  0
 11 10  1  0
 11 12  2  0
 12 13  1  0
 13 19  2  0
 13 14  1  0
 15 14  1  1
 15 16  1  0
 16  7  1  0
 17 15  1  0
 18 17  2  0
 20 19  1  0
 22 21  1  0
 22 23  2  0
 24 22  1  0
 25 24  1  0
 26 25  1  6
 26 27  1  0
 27 17  1  0
 28 29  1  0
 28 26  1  0
 30 28  2  0
M  END
$$$$
