IYQ.pdb
     RDKit          3D

 30 30  0  0  1  0  0  0  0  0999 V2000
   12.3364  -20.2372   19.6242 C   0  0  0  0  0  0  0  0  0  0  0  0
   11.0334  -19.4856   19.5932 C   0  0  0  0  0  0  0  0  0  0  0  0
   10.8879  -18.5722   20.7921 C   0  0  2  0  0  0  0  0  0  0  0  0
   10.0689  -19.2846   21.8448 C   0  0  0  0  0  0  0  0  0  0  0  0
   10.3062  -17.2282   20.4236 C   0  0  2  0  0  0  0  0  0  0  0  0
   11.2602  -16.6344   19.4739 N   0  0  0  0  0  0  0  0  0  0  0  0
   10.2112  -16.3175   21.5835 C   0  0  0  0  0  0  0  0  0  0  0  0
   11.2579  -15.7144   22.0041 O   0  0  0  0  0  0  0  0  0  0  0  0
    6.3735  -11.3424   27.9314 O   0  0  0  0  0  0  0  0  0  0  0  0
    6.6178  -12.1395   26.8211 C   0  0  0  0  0  0  0  0  0  0  0  0
    6.1243  -13.4242   26.7149 C   0  0  0  0  0  0  0  0  0  0  0  0
    6.3892  -14.1849   25.5952 C   0  0  0  0  0  0  0  0  0  0  0  0
    7.1457  -13.7223   24.5357 C   0  0  0  0  0  0  0  0  0  0  0  0
    7.4353  -14.5341   23.3386 C   0  0  0  0  0  0  0  0  0  0  0  0
    8.8047  -15.1149   23.3233 C   0  0  2  0  0  0  0  0  0  0  0  0
    8.9856  -16.0833   22.2582 N   0  0  0  0  0  0  0  0  0  0  0  0
    9.1584  -15.7605   24.5952 C   0  0  0  0  0  0  0  0  0  0  0  0
    9.3010  -15.0708   25.6246 O   0  0  0  0  0  0  0  0  0  0  0  0
    7.6339  -12.4159   24.6692 C   0  0  0  0  0  0  0  0  0  0  0  0
    7.3769  -11.6447   25.7824 C   0  0  0  0  0  0  0  0  0  0  0  0
    9.4300  -21.9556   25.6263 N   0  0  0  0  0  0  0  0  0  0  0  0
   10.3792  -21.3579   24.7624 C   0  0  0  0  0  0  0  0  0  0  0  0
   11.0253  -22.0425   23.9533 O   0  0  0  0  0  0  0  0  0  0  0  0
   10.5687  -19.8650   24.8682 C   0  0  0  0  0  0  0  0  0  0  0  0
    9.5835  -19.2790   25.8390 C   0  0  0  0  0  0  0  0  0  0  0  0
    9.7379  -17.7989   25.9292 C   0  0  2  0  0  0  0  0  0  0  0  0
    9.3416  -17.1530   24.6787 N   0  0  0  0  0  0  0  0  0  0  0  0
   11.1370  -17.4440   26.2188 C   0  0  0  0  0  0  0  0  0  0  0  0
   11.6436  -17.8299   27.4795 O   0  0  0  0  0  0  0  0  0  0  0  0
   11.9007  -16.8371   25.4493 O   0  0  0  0  0  0  0  0  0  0  0  0
  2  1  1  0
  3  2  1  0
  3  4  1  1
  5  3  1  0
  5  6  1  6
  7  5  1  0
  7  8  2  0
  9 10  1  0
 10 20  2  0
 11 10  1  0
 11 12  2  0
 12 13  1  0
 13 19  2  0
 13 14  1  0
 15 14  1  1
 15 16  1  0
 16  7  1  0
 17 15  1  0
 18 17  2  0
 20 19  1  0
 22 21  1  0
 22 23  2  0
 24 22  1  0
 25 24  1  0
 26 25  1  6
 26 27  1  0
 27 17  1  0
 28 29  1  0
 28 26  1  0
 30 28  2  0
M  END
$$$$
