IYQ.pdb
     RDKit          3D

 30 30  0  0  1  0  0  0  0  0999 V2000
    6.5958  -11.6729   19.1084 C   0  0  0  0  0  0  0  0  0  0  0  0
    6.9762  -13.1104   19.3382 C   0  0  0  0  0  0  0  0  0  0  0  0
    7.8794  -13.2622   20.5440 C   0  0  2  0  0  0  0  0  0  0  0  0
    9.1185  -12.4232   20.3272 C   0  0  0  0  0  0  0  0  0  0  0  0
    8.2076  -14.7066   20.8382 C   0  0  2  0  0  0  0  0  0  0  0  0
    6.9133  -15.3608   21.0860 N   0  0  0  0  0  0  0  0  0  0  0  0
    9.0234  -14.8619   22.0605 C   0  0  0  0  0  0  0  0  0  0  0  0
   10.2980  -14.7824   21.9871 O   0  0  0  0  0  0  0  0  0  0  0  0
   11.1130  -15.5477   30.7052 O   0  0  0  0  0  0  0  0  0  0  0  0
   10.4569  -15.3491   29.4979 C   0  0  0  0  0  0  0  0  0  0  0  0
   10.4658  -14.1318   28.8472 C   0  0  0  0  0  0  0  0  0  0  0  0
    9.8015  -13.9744   27.6487 C   0  0  0  0  0  0  0  0  0  0  0  0
    9.1025  -14.9980   27.0383 C   0  0  0  0  0  0  0  0  0  0  0  0
    8.3867  -14.8326   25.7592 C   0  0  0  0  0  0  0  0  0  0  0  0
    9.1840  -15.2315   24.5684 C   0  0  2  0  0  0  0  0  0  0  0  0
    8.4383  -15.0993   23.3308 N   0  0  0  0  0  0  0  0  0  0  0  0
    9.6821  -16.6111   24.6587 C   0  0  0  0  0  0  0  0  0  0  0  0
    8.8849  -17.5670   24.5777 O   0  0  0  0  0  0  0  0  0  0  0  0
    9.1098  -16.2222   27.7196 C   0  0  0  0  0  0  0  0  0  0  0  0
    9.7694  -16.3935   28.9176 C   0  0  0  0  0  0  0  0  0  0  0  0
   15.2078  -21.0170   23.0443 N   0  0  0  0  0  0  0  0  0  0  0  0
   14.2262  -20.0239   22.8099 C   0  0  0  0  0  0  0  0  0  0  0  0
   14.2518  -19.3325   21.7794 O   0  0  0  0  0  0  0  0  0  0  0  0
   13.1573  -19.8452   23.8594 C   0  0  0  0  0  0  0  0  0  0  0  0
   12.6635  -18.4266   23.8685 C   0  0  0  0  0  0  0  0  0  0  0  0
   11.5650  -18.2495   24.8608 C   0  0  2  0  0  0  0  0  0  0  0  0
   11.0515  -16.8806   24.8361 N   0  0  0  0  0  0  0  0  0  0  0  0
   12.0462  -18.5467   26.2200 C   0  0  0  0  0  0  0  0  0  0  0  0
   12.1763  -19.9101   26.5652 O   0  0  0  0  0  0  0  0  0  0  0  0
   12.3441  -17.7009   27.0800 O   0  0  0  0  0  0  0  0  0  0  0  0
  2  1  1  0
  3  2  1  0
  3  4  1  6
  5  3  1  0
  5  6  1  1
  7  5  1  0
  7  8  2  0
  9 10  1  0
 10 20  2  0
 11 10  1  0
 11 12  2  0
 12 13  1  0
 13 19  2  0
 13 14  1  0
 15 14  1  1
 15 16  1  0
 16  7  1  0
 17 15  1  0
 18 17  2  0
 20 19  1  0
 22 21  1  0
 22 23  2  0
 24 22  1  0
 25 24  1  0
 26 25  1  6
 26 27  1  0
 27 17  1  0
 28 29  1  0
 28 26  1  0
 30 28  2  0
M  END
$$$$
