TPL.pdb
     RDKit          3D

 23 23  0  0  1  0  0  0  0  0999 V2000
   26.3100  -15.8395  -15.7863 C   0  0  0  0  0  0  0  0  0  0  0  0
   26.1297  -17.0272  -14.8713 C   0  0  1  0  0  0  0  0  0  0  0  0
   25.0011  -16.8489  -14.1386 O   0  0  0  0  0  0  0  0  0  0  0  0
   26.2384  -18.3340  -15.6285 C   0  0  2  0  0  0  0  0  0  0  0  0
   25.1707  -18.2672  -16.6470 N   0  0  0  0  0  0  0  0  0  0  0  0
   26.0277  -19.5209  -14.8028 C   0  0  0  0  0  0  0  0  0  0  0  0
   24.8861  -20.0916  -14.9123 O   0  0  0  0  0  0  0  0  0  0  0  0
   26.9675  -20.0743  -13.9149 N   0  0  0  0  0  0  0  0  0  0  0  0
   28.2690  -19.4413  -13.6333 C   0  0  0  0  0  0  0  0  0  0  0  0
   29.1833  -20.6590  -13.8089 C   0  0  0  0  0  0  0  0  0  0  0  0
   28.3475  -21.8398  -13.3770 C   0  0  0  0  0  0  0  0  0  0  0  0
   27.0034  -21.2575  -13.1090 C   0  0  1  0  0  0  0  0  0  0  0  0
   26.6975  -21.0180  -11.6824 C   0  0  0  0  0  0  0  0  0  0  0  0
   27.4318  -21.5889  -10.8349 O   0  0  0  0  0  0  0  0  0  0  0  0
   27.0101  -19.1418   -7.2179 C   0  0  0  0  0  0  0  0  0  0  0  0
   26.5220  -20.1395   -8.2141 C   0  0  1  0  0  0  0  0  0  0  0  0
   26.5188  -21.4953   -7.5164 C   0  0  0  0  0  0  0  0  0  0  0  0
   25.2739  -19.8362   -8.9106 C   0  0  0  0  0  0  0  0  0  0  0  0
   24.7913  -20.6535  -10.0516 C   0  0  2  0  0  0  0  0  0  0  0  0
   25.6521  -20.2050  -11.1920 N   0  0  0  0  0  0  0  0  0  0  0  0
   23.4001  -20.6008  -10.4439 C   0  0  0  0  0  0  0  0  0  0  0  0
   23.0654  -20.0107  -11.5513 O   0  0  0  0  0  0  0  0  0  0  0  0
   22.3096  -21.1250   -9.7739 O   0  0  0  0  0  0  0  0  0  0  0  0
  2  1  1  6
  2  3  1  0
  4  2  1  0
  4  5  1  6
  6  8  1  0
  6  4  1  0
  7  6  2  0
  8 12  1  0
  9 10  1  0
  9  8  1  0
 10 11  1  0
 12 11  1  0
 12 13  1  1
 13 20  1  0
 14 13  2  0
 16 15  1  1
 16 17  1  0
 18 16  1  0
 19 21  1  0
 19 20  1  0
 19 18  1  1
 21 23  1  0
 22 21  2  0
M  END
$$$$
