TPL.pdb
     RDKit          3D

 23 23  0  0  1  0  0  0  0  0999 V2000
   15.4793  -12.0529  -15.4306 C   0  0  0  0  0  0  0  0  0  0  0  0
   16.2098  -13.2344  -16.0229 C   0  0  1  0  0  0  0  0  0  0  0  0
   15.4663  -14.3529  -15.8266 O   0  0  0  0  0  0  0  0  0  0  0  0
   16.6472  -12.9610  -17.4465 C   0  0  2  0  0  0  0  0  0  0  0  0
   17.1164  -14.2672  -17.9521 N   0  0  0  0  0  0  0  0  0  0  0  0
   17.7362  -11.9936  -17.5603 C   0  0  0  0  0  0  0  0  0  0  0  0
   18.9202  -12.4784  -17.6246 O   0  0  0  0  0  0  0  0  0  0  0  0
   17.5845  -10.5961  -17.6054 N   0  0  0  0  0  0  0  0  0  0  0  0
   16.2731   -9.9313  -17.4951 C   0  0  0  0  0  0  0  0  0  0  0  0
   16.3768   -8.9730  -18.6869 C   0  0  0  0  0  0  0  0  0  0  0  0
   17.8450   -8.6371  -18.7907 C   0  0  0  0  0  0  0  0  0  0  0  0
   18.4904   -9.4980  -17.7613 C   0  0  1  0  0  0  0  0  0  0  0  0
   18.8250   -8.8150  -16.4935 C   0  0  0  0  0  0  0  0  0  0  0  0
   17.9436   -8.8092  -15.5954 O   0  0  0  0  0  0  0  0  0  0  0  0
   21.2874   -8.8767  -11.9120 C   0  0  0  0  0  0  0  0  0  0  0  0
   22.1262   -8.7423  -13.1385 C   0  0  1  0  0  0  0  0  0  0  0  0
   23.2574   -9.7570  -13.0134 C   0  0  0  0  0  0  0  0  0  0  0  0
   21.4404   -8.7856  -14.4279 C   0  0  0  0  0  0  0  0  0  0  0  0
   20.4111   -7.7851  -14.8054 C   0  0  2  0  0  0  0  0  0  0  0  0
   20.0475   -8.1689  -16.2066 N   0  0  0  0  0  0  0  0  0  0  0  0
   20.7194   -6.3729  -14.7537 C   0  0  0  0  0  0  0  0  0  0  0  0
   20.5787   -5.7236  -13.6379 O   0  0  0  0  0  0  0  0  0  0  0  0
   21.1760   -5.5664  -15.7804 O   0  0  0  0  0  0  0  0  0  0  0  0
  2  1  1  6
  2  3  1  0
  4  2  1  0
  4  5  1  1
  6  8  1  0
  6  4  1  0
  7  6  2  0
  8 12  1  0
  9 10  1  0
  9  8  1  0
 10 11  1  0
 12 11  1  0
 12 13  1  1
 13 20  1  0
 14 13  2  0
 16 15  1  1
 16 17  1  0
 18 16  1  0
 19 21  1  0
 19 20  1  0
 19 18  1  6
 21 23  1  0
 22 21  2  0
M  END
$$$$
