TPL.pdb
     RDKit          3D

 23 23  0  0  1  0  0  0  0  0999 V2000
   34.9472  -26.7483    5.9171 C   0  0  0  0  0  0  0  0  0  0  0  0
   36.2933  -26.3572    5.3554 C   0  0  1  0  0  0  0  0  0  0  0  0
   36.7649  -27.3783    4.5957 O   0  0  0  0  0  0  0  0  0  0  0  0
   36.2457  -24.9957    4.6944 C   0  0  2  0  0  0  0  0  0  0  0  0
   37.6170  -24.7746    4.1919 N   0  0  0  0  0  0  0  0  0  0  0  0
   35.8950  -23.9047    5.6008 C   0  0  0  0  0  0  0  0  0  0  0  0
   36.8721  -23.3172    6.1847 O   0  0  0  0  0  0  0  0  0  0  0  0
   34.5894  -23.4586    5.8736 N   0  0  0  0  0  0  0  0  0  0  0  0
   33.3876  -24.1660    5.3951 C   0  0  0  0  0  0  0  0  0  0  0  0
   32.6154  -22.9793    4.8076 C   0  0  0  0  0  0  0  0  0  0  0  0
   33.0053  -21.7983    5.6633 C   0  0  0  0  0  0  0  0  0  0  0  0
   34.0442  -22.3399    6.5823 C   0  0  1  0  0  0  0  0  0  0  0  0
   33.5674  -22.6694    7.9424 C   0  0  0  0  0  0  0  0  0  0  0  0
   32.9837  -23.7738    8.0936 O   0  0  0  0  0  0  0  0  0  0  0  0
   35.9632  -23.6064   12.5607 C   0  0  0  0  0  0  0  0  0  0  0  0
   35.5520  -22.1905   12.3331 C   0  0  1  0  0  0  0  0  0  0  0  0
   36.7113  -21.3141   12.7945 C   0  0  0  0  0  0  0  0  0  0  0  0
   35.0475  -21.8437   11.0065 C   0  0  0  0  0  0  0  0  0  0  0  0
   33.8058  -22.4421   10.4560 C   0  0  2  0  0  0  0  0  0  0  0  0
   33.7107  -21.8499    9.0837 N   0  0  0  0  0  0  0  0  0  0  0  0
   32.5479  -22.2671   11.1481 C   0  0  0  0  0  0  0  0  0  0  0  0
   31.6518  -21.4631   10.6613 O   0  0  0  0  0  0  0  0  0  0  0  0
   32.1334  -22.8732   12.3201 O   0  0  0  0  0  0  0  0  0  0  0  0
  2  1  1  6
  2  3  1  0
  4  2  1  0
  4  5  1  1
  6  8  1  0
  6  4  1  0
  7  6  2  0
  8 12  1  0
  9 10  1  0
  9  8  1  0
 10 11  1  0
 12 11  1  0
 12 13  1  1
 13 20  1  0
 14 13  2  0
 16 15  1  6
 16 17  1  0
 18 16  1  0
 19 21  1  0
 19 20  1  0
 19 18  1  1
 21 23  1  0
 22 21  2  0
M  END
$$$$
