TPL.pdb
     RDKit          3D

 23 23  0  0  1  0  0  0  0  0999 V2000
   27.5077  -17.8654  -15.3982 C   0  0  0  0  0  0  0  0  0  0  0  0
   27.6532  -18.8630  -16.5226 C   0  0  1  0  0  0  0  0  0  0  0  0
   27.9652  -18.1961  -17.6629 O   0  0  0  0  0  0  0  0  0  0  0  0
   28.5732  -20.0029  -16.1391 C   0  0  2  0  0  0  0  0  0  0  0  0
   28.6206  -20.8658  -17.3370 N   0  0  0  0  0  0  0  0  0  0  0  0
   28.1004  -20.7955  -15.0064 C   0  0  0  0  0  0  0  0  0  0  0  0
   27.3345  -21.7833  -15.2868 O   0  0  0  0  0  0  0  0  0  0  0  0
   28.4187  -20.5606  -13.6568 N   0  0  0  0  0  0  0  0  0  0  0  0
   29.2991  -19.4599  -13.2240 C   0  0  0  0  0  0  0  0  0  0  0  0
   30.2310  -20.2377  -12.2879 C   0  0  0  0  0  0  0  0  0  0  0  0
   29.3731  -21.3363  -11.7081 C   0  0  0  0  0  0  0  0  0  0  0  0
   28.0742  -21.2017  -12.4235 C   0  0  1  0  0  0  0  0  0  0  0  0
   27.0107  -20.5078  -11.6662 C   0  0  0  0  0  0  0  0  0  0  0  0
   27.1907  -19.2888  -11.4112 O   0  0  0  0  0  0  0  0  0  0  0  0
   22.9888  -22.2915  -12.6943 C   0  0  0  0  0  0  0  0  0  0  0  0
   23.6305  -20.9456  -12.6433 C   0  0  1  0  0  0  0  0  0  0  0  0
   23.0269  -20.1251  -13.7779 C   0  0  0  0  0  0  0  0  0  0  0  0
   23.6339  -20.2528  -11.3569 C   0  0  0  0  0  0  0  0  0  0  0  0
   24.8011  -20.2997  -10.4413 C   0  0  2  0  0  0  0  0  0  0  0  0
   25.8130  -21.0970  -11.2051 N   0  0  0  0  0  0  0  0  0  0  0  0
   24.6568  -20.8469   -9.1102 C   0  0  0  0  0  0  0  0  0  0  0  0
   23.8489  -20.2809   -8.2656 O   0  0  0  0  0  0  0  0  0  0  0  0
   25.2875  -21.9560   -8.5763 O   0  0  0  0  0  0  0  0  0  0  0  0
  2  1  1  1
  2  3  1  0
  4  2  1  0
  4  5  1  6
  6  8  1  0
  6  4  1  0
  7  6  2  0
  8 12  1  0
  9 10  1  0
  9  8  1  0
 10 11  1  0
 12 11  1  0
 12 13  1  1
 13 20  1  0
 14 13  2  0
 16 15  1  1
 16 17  1  0
 18 16  1  0
 19 21  1  0
 19 20  1  0
 19 18  1  6
 21 23  1  0
 22 21  2  0
M  END
$$$$
