TPL.pdb
     RDKit          3D

 23 23  0  0  1  0  0  0  0  0999 V2000
   25.3998  -13.0252  -19.9096 C   0  0  0  0  0  0  0  0  0  0  0  0
   24.4969  -14.1760  -20.2853 C   0  0  1  0  0  0  0  0  0  0  0  0
   25.1128  -14.9243  -21.2355 O   0  0  0  0  0  0  0  0  0  0  0  0
   24.0043  -14.9188  -19.0613 C   0  0  2  0  0  0  0  0  0  0  0  0
   23.2362  -16.0601  -19.5991 N   0  0  0  0  0  0  0  0  0  0  0  0
   23.1306  -14.1294  -18.1961 C   0  0  0  0  0  0  0  0  0  0  0  0
   21.9346  -13.9447  -18.6160 O   0  0  0  0  0  0  0  0  0  0  0  0
   23.4972  -13.5693  -16.9592 N   0  0  0  0  0  0  0  0  0  0  0  0
   24.8538  -13.6963  -16.3959 C   0  0  0  0  0  0  0  0  0  0  0  0
   24.4941  -14.1420  -14.9741 C   0  0  0  0  0  0  0  0  0  0  0  0
   23.1711  -13.4770  -14.6799 C   0  0  0  0  0  0  0  0  0  0  0  0
   22.8031  -12.8129  -15.9609 C   0  0  1  0  0  0  0  0  0  0  0  0
   23.0758  -11.3608  -16.0147 C   0  0  0  0  0  0  0  0  0  0  0  0
   24.1533  -10.9994  -16.5549 O   0  0  0  0  0  0  0  0  0  0  0  0
   23.0936   -7.1126  -18.5245 C   0  0  0  0  0  0  0  0  0  0  0  0
   21.7945   -7.7718  -18.2025 C   0  0  1  0  0  0  0  0  0  0  0  0
   21.0671   -7.9844  -19.5256 C   0  0  0  0  0  0  0  0  0  0  0  0
   21.8386   -8.9648  -17.3601 C   0  0  0  0  0  0  0  0  0  0  0  0
   22.3627   -8.9285  -15.9719 C   0  0  2  0  0  0  0  0  0  0  0  0
   22.2310  -10.3473  -15.5111 N   0  0  0  0  0  0  0  0  0  0  0  0
   21.7670   -8.0439  -14.9949 C   0  0  0  0  0  0  0  0  0  0  0  0
   20.7258   -8.4337  -14.3238 O   0  0  0  0  0  0  0  0  0  0  0  0
   22.1736   -6.7688  -14.6460 O   0  0  0  0  0  0  0  0  0  0  0  0
  2  1  1  1
  2  3  1  0
  4  2  1  0
  4  5  1  6
  6  8  1  0
  6  4  1  0
  7  6  2  0
  8 12  1  0
  9 10  1  0
  9  8  1  0
 10 11  1  0
 12 11  1  0
 12 13  1  1
 13 20  1  0
 14 13  2  0
 16 15  1  6
 16 17  1  0
 18 16  1  0
 19 21  1  0
 19 20  1  0
 19 18  1  6
 21 23  1  0
 22 21  2  0
M  END
$$$$
