TPL.pdb
     RDKit          3D

 23 23  0  0  1  0  0  0  0  0999 V2000
   23.3337  -20.6760  -13.6647 C   0  0  0  0  0  0  0  0  0  0  0  0
   23.6726  -21.9282  -14.4379 C   0  0  1  0  0  0  0  0  0  0  0  0
   22.8077  -22.0495  -15.4769 O   0  0  0  0  0  0  0  0  0  0  0  0
   25.1461  -21.9882  -14.7811 C   0  0  2  0  0  0  0  0  0  0  0  0
   25.2793  -23.1699  -15.6573 N   0  0  0  0  0  0  0  0  0  0  0  0
   26.0214  -22.1593  -13.6238 C   0  0  0  0  0  0  0  0  0  0  0  0
   26.2526  -23.3662  -13.2620 O   0  0  0  0  0  0  0  0  0  0  0  0
   26.6194  -21.1176  -12.8921 N   0  0  0  0  0  0  0  0  0  0  0  0
   26.4459  -19.6955  -13.2403 C   0  0  0  0  0  0  0  0  0  0  0  0
   27.9106  -19.2458  -13.1952 C   0  0  0  0  0  0  0  0  0  0  0  0
   28.5529  -20.1141  -12.1403 C   0  0  0  0  0  0  0  0  0  0  0  0
   27.4781  -21.0668  -11.7472 C   0  0  1  0  0  0  0  0  0  0  0  0
   26.7765  -20.7352  -10.4887 C   0  0  0  0  0  0  0  0  0  0  0  0
   25.5612  -20.4205  -10.5755 O   0  0  0  0  0  0  0  0  0  0  0  0
   29.3134  -19.0766   -5.7299 C   0  0  0  0  0  0  0  0  0  0  0  0
   28.4307  -20.1239   -6.3213 C   0  0  1  0  0  0  0  0  0  0  0  0
   28.0450  -21.0682   -5.1879 C   0  0  0  0  0  0  0  0  0  0  0  0
   27.2933  -19.6702   -7.1184 C   0  0  0  0  0  0  0  0  0  0  0  0
   26.5103  -20.5988   -7.9714 C   0  0  2  0  0  0  0  0  0  0  0  0
   27.3545  -20.7409   -9.2002 N   0  0  0  0  0  0  0  0  0  0  0  0
   25.1545  -20.2666   -8.3501 C   0  0  0  0  0  0  0  0  0  0  0  0
   24.9414  -19.3305   -9.2245 O   0  0  0  0  0  0  0  0  0  0  0  0
   23.9818  -20.8402   -7.8935 O   0  0  0  0  0  0  0  0  0  0  0  0
  2  1  1  6
  2  3  1  0
  4  2  1  0
  4  5  1  6
  6  8  1  0
  6  4  1  0
  7  6  2  0
  8 12  1  0
  9 10  1  0
  9  8  1  0
 10 11  1  0
 12 11  1  0
 12 13  1  1
 13 20  1  0
 14 13  2  0
 16 15  1  1
 16 17  1  0
 18 16  1  0
 19 21  1  0
 19 20  1  0
 19 18  1  1
 21 23  1  0
 22 21  2  0
M  END
$$$$
