TPL.pdb
     RDKit          3D

 23 23  0  0  1  0  0  0  0  0999 V2000
   25.5188  -17.3066  -17.6786 C   0  0  0  0  0  0  0  0  0  0  0  0
   25.4915  -18.1917  -16.4553 C   0  0  1  0  0  0  0  0  0  0  0  0
   24.2129  -18.2837  -16.0091 O   0  0  0  0  0  0  0  0  0  0  0  0
   26.2125  -19.5005  -16.6997 C   0  0  2  0  0  0  0  0  0  0  0  0
   25.4531  -20.1496  -17.7878 N   0  0  0  0  0  0  0  0  0  0  0  0
   26.2351  -20.3938  -15.5437 C   0  0  0  0  0  0  0  0  0  0  0  0
   25.4142  -21.3768  -15.5714 O   0  0  0  0  0  0  0  0  0  0  0  0
   27.0761  -20.2586  -14.4246 N   0  0  0  0  0  0  0  0  0  0  0  0
   28.0667  -19.1741  -14.2966 C   0  0  0  0  0  0  0  0  0  0  0  0
   29.2911  -20.0000  -13.8864 C   0  0  0  0  0  0  0  0  0  0  0  0
   28.7323  -21.1623  -13.1014 C   0  0  0  0  0  0  0  0  0  0  0  0
   27.2561  -21.0039  -13.2151 C   0  0  1  0  0  0  0  0  0  0  0  0
   26.5983  -20.3990  -12.0373 C   0  0  0  0  0  0  0  0  0  0  0  0
   26.6657  -19.1477  -11.9225 O   0  0  0  0  0  0  0  0  0  0  0  0
   21.6694  -21.7108  -10.9203 C   0  0  0  0  0  0  0  0  0  0  0  0
   22.9354  -20.9267  -11.0110 C   0  0  1  0  0  0  0  0  0  0  0  0
   22.5447  -19.4964  -11.3668 C   0  0  0  0  0  0  0  0  0  0  0  0
   23.8626  -21.0178   -9.8856 C   0  0  0  0  0  0  0  0  0  0  0  0
   25.2052  -20.3858   -9.9194 C   0  0  2  0  0  0  0  0  0  0  0  0
   25.9029  -21.1060  -11.0317 N   0  0  0  0  0  0  0  0  0  0  0  0
   26.0398  -20.3929   -8.7382 C   0  0  0  0  0  0  0  0  0  0  0  0
   27.0648  -21.1881   -8.6789 O   0  0  0  0  0  0  0  0  0  0  0  0
   25.9002  -19.6247   -7.5965 O   0  0  0  0  0  0  0  0  0  0  0  0
  2  1  1  6
  2  3  1  0
  4  2  1  0
  4  5  1  6
  6  8  1  0
  6  4  1  0
  7  6  2  0
  8 12  1  0
  9 10  1  0
  9  8  1  0
 10 11  1  0
 12 11  1  0
 12 13  1  1
 13 20  1  0
 14 13  2  0
 16 15  1  1
 16 17  1  0
 18 16  1  0
 19 21  1  0
 19 20  1  0
 19 18  1  1
 21 23  1  0
 22 21  2  0
M  END
$$$$
