MLG.pdb
     RDKit          3D

 21 20  0  0  1  0  0  0  0  0999 V2000
   27.1002  -18.5006  -18.1333 C   0  0  0  0  0  0  0  0  0  0  0  0
   27.3043  -16.8407  -17.4343 S   0  0  0  0  0  0  0  0  0  0  0  0
   28.0449  -16.8976  -15.7904 C   0  0  0  0  0  0  0  0  0  0  0  0
   27.5829  -18.1131  -15.0347 C   0  0  0  0  0  0  0  0  0  0  0  0
   26.1074  -18.0828  -14.7272 C   0  0  2  0  0  0  0  0  0  0  0  0
   25.7615  -16.9339  -13.9235 N   0  0  0  0  0  0  0  0  0  0  0  0
   25.5958  -19.3499  -14.1628 C   0  0  0  0  0  0  0  0  0  0  0  0
   25.7910  -20.4244  -14.7884 O   0  0  0  0  0  0  0  0  0  0  0  0
   27.1206  -21.4380  -11.0649 C   0  0  0  0  0  0  0  0  0  0  0  0
   26.0620  -20.4454  -10.5856 C   0  0  2  0  0  0  0  0  0  0  0  0
   26.2066  -20.3656   -9.0832 C   0  0  0  0  0  0  0  0  0  0  0  0
   24.6959  -20.8987  -10.9834 C   0  0  0  0  0  0  0  0  0  0  0  0
   24.3549  -20.6974  -12.4054 C   0  0  2  0  0  0  0  0  0  0  0  0
   24.8862  -19.4401  -12.9412 N   0  0  0  0  0  0  0  0  0  0  0  0
   22.9445  -20.7978  -12.7941 C   0  0  0  0  0  0  0  0  0  0  0  0
   22.2267  -21.7539  -12.3593 O   0  0  0  0  0  0  0  0  0  0  0  0
   22.2636  -19.8877  -13.6498 N   0  0  0  0  0  0  0  0  0  0  0  0
   20.8660  -20.0089  -13.9675 C   0  0  0  0  0  0  0  0  0  0  0  0
   20.6882  -20.9020  -15.1179 C   0  0  0  0  0  0  0  0  0  0  0  0
   21.6387  -21.5675  -15.5860 O   0  0  0  0  0  0  0  0  0  0  0  0
   19.4465  -21.0257  -15.7145 O   0  0  0  0  0  0  0  0  0  0  0  0
  2  1  1  0
  3  2  1  0
  4  3  1  0
  4  5  1  0
  5  6  1  1
  7  8  2  0
  7  5  1  0
 10  9  1  1
 10 12  1  0
 11 10  1  0
 13 14  1  0
 13 12  1  1
 14  7  1  0
 15 13  1  0
 16 15  2  0
 17 15  1  0
 18 17  1  0
 19 18  1  0
 19 21  1  0
 20 19  2  0
M  END
$$$$
