MLG.pdb
     RDKit          3D

 21 20  0  0  1  0  0  0  0  0999 V2000
   20.8518  -20.9884  -13.3391 C   0  0  0  0  0  0  0  0  0  0  0  0
   21.7175  -19.9710  -14.5642 S   0  0  0  0  0  0  0  0  0  0  0  0
   23.5029  -19.9950  -14.3069 C   0  0  0  0  0  0  0  0  0  0  0  0
   23.8438  -20.5696  -12.9595 C   0  0  0  0  0  0  0  0  0  0  0  0
   25.3221  -20.5317  -12.6664 C   0  0  2  0  0  0  0  0  0  0  0  0
   26.0736  -21.2631  -13.6592 N   0  0  0  0  0  0  0  0  0  0  0  0
   25.6604  -20.9325  -11.2840 C   0  0  0  0  0  0  0  0  0  0  0  0
   25.8069  -22.1535  -11.0166 O   0  0  0  0  0  0  0  0  0  0  0  0
   27.3746  -18.5752   -5.8149 C   0  0  0  0  0  0  0  0  0  0  0  0
   27.0335  -19.8342   -6.6114 C   0  0  2  0  0  0  0  0  0  0  0  0
   28.1647  -20.8070   -6.3693 C   0  0  0  0  0  0  0  0  0  0  0  0
   26.8833  -19.5153   -8.0625 C   0  0  0  0  0  0  0  0  0  0  0  0
   26.0049  -20.4283   -8.8200 C   0  0  2  0  0  0  0  0  0  0  0  0
   25.8345  -20.0180  -10.2175 N   0  0  0  0  0  0  0  0  0  0  0  0
   24.6789  -20.7215   -8.2670 C   0  0  0  0  0  0  0  0  0  0  0  0
   23.6979  -19.9490   -8.5111 O   0  0  0  0  0  0  0  0  0  0  0  0
   24.3625  -21.8389   -7.4451 N   0  0  0  0  0  0  0  0  0  0  0  0
   23.0339  -22.1033   -6.9616 C   0  0  0  0  0  0  0  0  0  0  0  0
   22.8930  -21.6116   -5.5865 C   0  0  0  0  0  0  0  0  0  0  0  0
   23.8225  -21.0077   -5.0062 O   0  0  0  0  0  0  0  0  0  0  0  0
   21.7108  -21.8104   -4.8966 O   0  0  0  0  0  0  0  0  0  0  0  0
  2  1  1  0
  3  2  1  0
  4  3  1  0
  4  5  1  0
  5  6  1  6
  7  8  2  0
  7  5  1  0
 10  9  1  1
 10 12  1  0
 11 10  1  0
 13 14  1  0
 13 12  1  1
 14  7  1  0
 15 13  1  0
 16 15  2  0
 17 15  1  0
 18 17  1  0
 19 18  1  0
 19 21  1  0
 20 19  2  0
M  END
$$$$
