MLG.pdb
     RDKit          3D

 21 20  0  0  1  0  0  0  0  0999 V2000
   29.3260  -23.1979  -15.9518 C   0  0  0  0  0  0  0  0  0  0  0  0
   28.3376  -22.0483  -16.9452 S   0  0  0  0  0  0  0  0  0  0  0  0
   28.2695  -20.4093  -16.1948 C   0  0  0  0  0  0  0  0  0  0  0  0
   28.1356  -20.5079  -14.7000 C   0  0  0  0  0  0  0  0  0  0  0  0
   26.7026  -20.6372  -14.2501 C   0  0  2  0  0  0  0  0  0  0  0  0
   25.9527  -19.4357  -14.5321 N   0  0  0  0  0  0  0  0  0  0  0  0
   26.5620  -21.0825  -12.8473 C   0  0  0  0  0  0  0  0  0  0  0  0
   27.1332  -22.1417  -12.4786 O   0  0  0  0  0  0  0  0  0  0  0  0
   27.6988  -21.2049   -9.0725 C   0  0  0  0  0  0  0  0  0  0  0  0
   26.7801  -19.9955   -9.2434 C   0  0  2  0  0  0  0  0  0  0  0  0
   26.9206  -19.1760   -7.9813 C   0  0  0  0  0  0  0  0  0  0  0  0
   25.3689  -20.4323   -9.4615 C   0  0  0  0  0  0  0  0  0  0  0  0
   25.0960  -21.0475  -10.7752 C   0  0  2  0  0  0  0  0  0  0  0  0
   25.8134  -20.3849  -11.8691 N   0  0  0  0  0  0  0  0  0  0  0  0
   23.6959  -21.2080  -11.1806 C   0  0  0  0  0  0  0  0  0  0  0  0
   22.8184  -21.5579  -10.3285 O   0  0  0  0  0  0  0  0  0  0  0  0
   23.1947  -21.0002  -12.4958 N   0  0  0  0  0  0  0  0  0  0  0  0
   21.8419  -21.3082  -12.8753 C   0  0  0  0  0  0  0  0  0  0  0  0
   21.1246  -20.0761  -13.2215 C   0  0  0  0  0  0  0  0  0  0  0  0
   21.7174  -18.9799  -13.3326 O   0  0  0  0  0  0  0  0  0  0  0  0
   19.7583  -20.1054  -13.4345 O   0  0  0  0  0  0  0  0  0  0  0  0
  2  1  1  0
  3  2  1  0
  4  3  1  0
  4  5  1  0
  5  6  1  1
  7  8  2  0
  7  5  1  0
 10  9  1  1
 10 12  1  0
 11 10  1  0
 13 14  1  0
 13 12  1  1
 14  7  1  0
 15 13  1  0
 16 15  2  0
 17 15  1  0
 18 17  1  0
 19 18  1  0
 19 21  1  0
 20 19  2  0
M  END
$$$$
