MLG.pdb
     RDKit          3D

 21 20  0  0  1  0  0  0  0  0999 V2000
   23.0305  -20.8933  -21.9904 C   0  0  0  0  0  0  0  0  0  0  0  0
   22.2069  -19.3576  -22.4892 S   0  0  0  0  0  0  0  0  0  0  0  0
   22.5596  -18.0106  -21.3422 C   0  0  0  0  0  0  0  0  0  0  0  0
   23.3255  -18.5089  -20.1476 C   0  0  0  0  0  0  0  0  0  0  0  0
   22.5302  -18.4274  -18.8694 C   0  0  2  0  0  0  0  0  0  0  0  0
   21.8705  -17.1492  -18.7415 N   0  0  0  0  0  0  0  0  0  0  0  0
   23.3078  -18.7921  -17.6660 C   0  0  0  0  0  0  0  0  0  0  0  0
   23.9330  -19.8842  -17.6459 O   0  0  0  0  0  0  0  0  0  0  0  0
   27.0732  -17.5365  -16.2590 C   0  0  0  0  0  0  0  0  0  0  0  0
   25.9071  -16.6173  -15.8972 C   0  0  2  0  0  0  0  0  0  0  0  0
   26.5223  -15.3259  -15.4091 C   0  0  0  0  0  0  0  0  0  0  0  0
   25.0454  -17.2456  -14.8520 C   0  0  0  0  0  0  0  0  0  0  0  0
   24.1827  -18.3459  -15.3251 C   0  0  2  0  0  0  0  0  0  0  0  0
   23.3997  -17.9803  -16.5098 N   0  0  0  0  0  0  0  0  0  0  0  0
   23.2772  -18.9733  -14.3571 C   0  0  0  0  0  0  0  0  0  0  0  0
   23.7111  -19.3407  -13.2190 O   0  0  0  0  0  0  0  0  0  0  0  0
   21.8934  -19.2237  -14.5725 N   0  0  0  0  0  0  0  0  0  0  0  0
   21.0389  -19.8065  -13.5729 C   0  0  0  0  0  0  0  0  0  0  0  0
   20.8877  -21.2451  -13.8183 C   0  0  0  0  0  0  0  0  0  0  0  0
   21.5277  -21.8283  -14.7215 O   0  0  0  0  0  0  0  0  0  0  0  0
   20.0209  -21.9936  -13.0429 O   0  0  0  0  0  0  0  0  0  0  0  0
  2  1  1  0
  3  2  1  0
  4  3  1  0
  4  5  1  0
  5  6  1  1
  7  8  2  0
  7  5  1  0
 10  9  1  1
 10 12  1  0
 11 10  1  0
 13 14  1  0
 13 12  1  1
 14  7  1  0
 15 13  1  0
 16 15  2  0
 17 15  1  0
 18 17  1  0
 19 18  1  0
 19 21  1  0
 20 19  2  0
M  END
$$$$
