MLG.pdb
     RDKit          3D

 21 20  0  0  1  0  0  0  0  0999 V2000
   21.0296  -20.2759   -9.6409 C   0  0  0  0  0  0  0  0  0  0  0  0
   22.1693  -20.6924   -8.2944 S   0  0  0  0  0  0  0  0  0  0  0  0
   23.7755  -21.2219   -8.9221 C   0  0  0  0  0  0  0  0  0  0  0  0
   24.2566  -20.3024  -10.0107 C   0  0  0  0  0  0  0  0  0  0  0  0
   24.3396  -20.9820  -11.3538 C   0  0  2  0  0  0  0  0  0  0  0  0
   24.7053  -22.3724  -11.2176 N   0  0  0  0  0  0  0  0  0  0  0  0
   25.1858  -20.2615  -12.3288 C   0  0  0  0  0  0  0  0  0  0  0  0
   24.9958  -19.0316  -12.5166 O   0  0  0  0  0  0  0  0  0  0  0  0
   29.2252  -19.4157  -11.9033 C   0  0  0  0  0  0  0  0  0  0  0  0
   29.0506  -20.7696  -12.5905 C   0  0  2  0  0  0  0  0  0  0  0  0
   30.4219  -21.4039  -12.6297 C   0  0  0  0  0  0  0  0  0  0  0  0
   28.4856  -20.5956  -13.9618 C   0  0  0  0  0  0  0  0  0  0  0  0
   27.0826  -20.1396  -14.0115 C   0  0  2  0  0  0  0  0  0  0  0  0
   26.2171  -20.8725  -13.0819 N   0  0  0  0  0  0  0  0  0  0  0  0
   26.4186  -20.1028  -15.3185 C   0  0  0  0  0  0  0  0  0  0  0  0
   26.9699  -19.5114  -16.3007 O   0  0  0  0  0  0  0  0  0  0  0  0
   25.1578  -20.6923  -15.6139 N   0  0  0  0  0  0  0  0  0  0  0  0
   24.5584  -20.6436  -16.9205 C   0  0  0  0  0  0  0  0  0  0  0  0
   23.3041  -19.8842  -16.8695 C   0  0  0  0  0  0  0  0  0  0  0  0
   22.2741  -20.3521  -16.3352 O   0  0  0  0  0  0  0  0  0  0  0  0
   23.2376  -18.6171  -17.4202 O   0  0  0  0  0  0  0  0  0  0  0  0
  2  1  1  0
  3  2  1  0
  4  3  1  0
  4  5  1  0
  5  6  1  1
  7  8  2  0
  7  5  1  0
 10  9  1  6
 10 12  1  0
 11 10  1  0
 13 14  1  0
 13 12  1  6
 14  7  1  0
 15 13  1  0
 16 15  2  0
 17 15  1  0
 18 17  1  0
 19 18  1  0
 19 21  1  0
 20 19  2  0
M  END
$$$$
