MLG.pdb
     RDKit          3D

 21 20  0  0  1  0  0  0  0  0999 V2000
   26.7118  -20.5123   -7.7027 C   0  0  0  0  0  0  0  0  0  0  0  0
   25.1160  -19.6743   -7.5111 S   0  0  0  0  0  0  0  0  0  0  0  0
   23.7633  -20.6561   -8.1898 C   0  0  0  0  0  0  0  0  0  0  0  0
   24.0745  -21.1029   -9.5918 C   0  0  0  0  0  0  0  0  0  0  0  0
   23.9428  -19.9908  -10.6011 C   0  0  2  0  0  0  0  0  0  0  0  0
   22.5792  -19.5247  -10.6946 N   0  0  0  0  0  0  0  0  0  0  0  0
   24.5266  -20.3179  -11.9194 C   0  0  0  0  0  0  0  0  0  0  0  0
   24.0068  -19.8344  -12.9587 O   0  0  0  0  0  0  0  0  0  0  0  0
   28.6681  -19.1991  -13.4843 C   0  0  0  0  0  0  0  0  0  0  0  0
   28.6058  -20.3953  -12.5352 C   0  0  2  0  0  0  0  0  0  0  0  0
   30.0382  -20.7903  -12.2582 C   0  0  0  0  0  0  0  0  0  0  0  0
   27.8352  -21.5168  -13.1503 C   0  0  0  0  0  0  0  0  0  0  0  0
   26.3976  -21.2536  -13.3575 C   0  0  2  0  0  0  0  0  0  0  0  0
   25.6540  -21.1554  -12.0975 N   0  0  0  0  0  0  0  0  0  0  0  0
   25.6581  -22.1481  -14.2538 C   0  0  0  0  0  0  0  0  0  0  0  0
   26.0688  -22.3481  -15.4411 O   0  0  0  0  0  0  0  0  0  0  0  0
   24.4692  -22.8509  -13.9120 N   0  0  0  0  0  0  0  0  0  0  0  0
   23.8591  -23.8239  -14.7781 C   0  0  0  0  0  0  0  0  0  0  0  0
   22.4757  -23.4351  -15.0743 C   0  0  0  0  0  0  0  0  0  0  0  0
   22.2063  -22.3684  -15.6702 O   0  0  0  0  0  0  0  0  0  0  0  0
   21.4284  -24.2543  -14.6936 O   0  0  0  0  0  0  0  0  0  0  0  0
  2  1  1  0
  3  2  1  0
  4  3  1  0
  4  5  1  0
  5  6  1  6
  7  8  2  0
  7  5  1  0
 10  9  1  6
 10 12  1  0
 11 10  1  0
 13 14  1  0
 13 12  1  1
 14  7  1  0
 15 13  1  0
 16 15  2  0
 17 15  1  0
 18 17  1  0
 19 18  1  0
 19 21  1  0
 20 19  2  0
M  END
$$$$
