MLG.pdb
     RDKit          3D

 21 20  0  0  1  0  0  0  0  0999 V2000
   21.7348  -22.8591  -16.9364 C   0  0  0  0  0  0  0  0  0  0  0  0
   20.1394  -22.3393  -16.2509 S   0  0  0  0  0  0  0  0  0  0  0  0
   20.3038  -21.7548  -14.5522 C   0  0  0  0  0  0  0  0  0  0  0  0
   21.6914  -21.2347  -14.2949 C   0  0  0  0  0  0  0  0  0  0  0  0
   21.8936  -20.7940  -12.8675 C   0  0  2  0  0  0  0  0  0  0  0  0
   20.9104  -19.8112  -12.4766 N   0  0  0  0  0  0  0  0  0  0  0  0
   23.2777  -20.3664  -12.5721 C   0  0  0  0  0  0  0  0  0  0  0  0
   23.6120  -19.1728  -12.7905 O   0  0  0  0  0  0  0  0  0  0  0  0
   25.6147  -19.2016   -9.2424 C   0  0  0  0  0  0  0  0  0  0  0  0
   25.4599  -20.7182   -9.3503 C   0  0  2  0  0  0  0  0  0  0  0  0
   26.0005  -21.2913   -8.0604 C   0  0  0  0  0  0  0  0  0  0  0  0
   26.2005  -21.2405  -10.5372 C   0  0  0  0  0  0  0  0  0  0  0  0
   25.6685  -20.8174  -11.8475 C   0  0  2  0  0  0  0  0  0  0  0  0
   24.2744  -21.2251  -12.0495 N   0  0  0  0  0  0  0  0  0  0  0  0
   26.4279  -21.1832  -13.0474 C   0  0  0  0  0  0  0  0  0  0  0  0
   26.3599  -22.3653  -13.5129 O   0  0  0  0  0  0  0  0  0  0  0  0
   27.2742  -20.3056  -13.7808 N   0  0  0  0  0  0  0  0  0  0  0  0
   28.0650  -20.7370  -14.9022 C   0  0  0  0  0  0  0  0  0  0  0  0
   27.4292  -20.3171  -16.1560 C   0  0  0  0  0  0  0  0  0  0  0  0
   26.2910  -20.7209  -16.4828 O   0  0  0  0  0  0  0  0  0  0  0  0
   28.0879  -19.4536  -17.0125 O   0  0  0  0  0  0  0  0  0  0  0  0
  2  1  1  0
  3  2  1  0
  4  3  1  0
  4  5  1  0
  5  6  1  6
  7  8  2  0
  7  5  1  0
 10  9  1  1
 10 12  1  0
 11 10  1  0
 13 14  1  0
 13 12  1  1
 14  7  1  0
 15 13  1  0
 16 15  2  0
 17 15  1  0
 18 17  1  0
 19 18  1  0
 19 21  1  0
 20 19  2  0
M  END
$$$$
