MLG.pdb
     RDKit          3D

 21 20  0  0  1  0  0  0  0  0999 V2000
   17.9966  -16.1886  -16.2800 C   0  0  0  0  0  0  0  0  0  0  0  0
   16.6856  -15.1319  -16.9510 S   0  0  0  0  0  0  0  0  0  0  0  0
   17.3393  -13.5624  -17.5538 C   0  0  0  0  0  0  0  0  0  0  0  0
   18.1841  -12.8937  -16.5044 C   0  0  0  0  0  0  0  0  0  0  0  0
   18.7540  -11.5767  -16.9665 C   0  0  2  0  0  0  0  0  0  0  0  0
   19.4689  -11.7217  -18.2128 N   0  0  0  0  0  0  0  0  0  0  0  0
   19.5466  -10.8804  -15.9307 C   0  0  0  0  0  0  0  0  0  0  0  0
   19.0834  -10.7829  -14.7646 O   0  0  0  0  0  0  0  0  0  0  0  0
   22.7640  -12.0024  -13.5702 C   0  0  0  0  0  0  0  0  0  0  0  0
   23.2375  -11.5468  -14.9500 C   0  0  2  0  0  0  0  0  0  0  0  0
   24.7025  -11.9088  -15.0352 C   0  0  0  0  0  0  0  0  0  0  0  0
   23.0226  -10.0792  -15.1230 C   0  0  0  0  0  0  0  0  0  0  0  0
   21.6118   -9.6451  -15.1226 C   0  0  2  0  0  0  0  0  0  0  0  0
   20.8179  -10.3034  -16.1650 N   0  0  0  0  0  0  0  0  0  0  0  0
   21.3363   -8.2060  -15.1816 C   0  0  0  0  0  0  0  0  0  0  0  0
   21.9018   -7.4115  -14.3645 O   0  0  0  0  0  0  0  0  0  0  0  0
   20.4579   -7.5771  -16.1073 N   0  0  0  0  0  0  0  0  0  0  0  0
   20.2221   -6.1582  -16.1222 C   0  0  0  0  0  0  0  0  0  0  0  0
   19.0335   -5.8384  -15.3238 C   0  0  0  0  0  0  0  0  0  0  0  0
   18.4153   -6.7183  -14.6843 O   0  0  0  0  0  0  0  0  0  0  0  0
   18.5681   -4.5373  -15.2634 O   0  0  0  0  0  0  0  0  0  0  0  0
  2  1  1  0
  3  2  1  0
  4  3  1  0
  4  5  1  0
  5  6  1  6
  7  8  2  0
  7  5  1  0
 10  9  1  1
 10 12  1  0
 11 10  1  0
 13 14  1  0
 13 12  1  6
 14  7  1  0
 15 13  1  0
 16 15  2  0
 17 15  1  0
 18 17  1  0
 19 18  1  0
 19 21  1  0
 20 19  2  0
M  END
$$$$
