MLG.pdb
     RDKit          3D

 21 20  0  0  1  0  0  0  0  0999 V2000
   30.3078  -23.6599  -15.3697 C   0  0  0  0  0  0  0  0  0  0  0  0
   29.7129  -22.6313  -16.7385 S   0  0  0  0  0  0  0  0  0  0  0  0
   28.3631  -21.5519  -16.2217 C   0  0  0  0  0  0  0  0  0  0  0  0
   28.0848  -21.7058  -14.7517 C   0  0  0  0  0  0  0  0  0  0  0  0
   26.9280  -20.8590  -14.2854 C   0  0  2  0  0  0  0  0  0  0  0  0
   27.2246  -19.4509  -14.4076 N   0  0  0  0  0  0  0  0  0  0  0  0
   26.4334  -21.2241  -12.9408 C   0  0  0  0  0  0  0  0  0  0  0  0
   26.1513  -22.4258  -12.6951 O   0  0  0  0  0  0  0  0  0  0  0  0
   27.6654  -19.6064   -7.4437 C   0  0  0  0  0  0  0  0  0  0  0  0
   27.2182  -20.5326   -8.5741 C   0  0  2  0  0  0  0  0  0  0  0  0
   28.4757  -20.9496   -9.3016 C   0  0  0  0  0  0  0  0  0  0  0  0
   26.2634  -19.8316   -9.4834 C   0  0  0  0  0  0  0  0  0  0  0  0
   25.7104  -20.6584  -10.5741 C   0  0  2  0  0  0  0  0  0  0  0  0
   26.2512  -20.2955  -11.8879 N   0  0  0  0  0  0  0  0  0  0  0  0
   24.2518  -20.7520  -10.6926 C   0  0  0  0  0  0  0  0  0  0  0  0
   23.5429  -21.0309   -9.6736 O   0  0  0  0  0  0  0  0  0  0  0  0
   23.5124  -20.5512  -11.8914 N   0  0  0  0  0  0  0  0  0  0  0  0
   22.0764  -20.6137  -11.9448 C   0  0  0  0  0  0  0  0  0  0  0  0
   21.6088  -20.2733  -13.2932 C   0  0  0  0  0  0  0  0  0  0  0  0
   22.4037  -20.1416  -14.2504 O   0  0  0  0  0  0  0  0  0  0  0  0
   20.2592  -20.0891  -13.5333 O   0  0  0  0  0  0  0  0  0  0  0  0
  2  1  1  0
  3  2  1  0
  4  3  1  0
  4  5  1  0
  5  6  1  1
  7  8  2  0
  7  5  1  0
 10  9  1  1
 10 12  1  0
 11 10  1  0
 13 14  1  0
 13 12  1  1
 14  7  1  0
 15 13  1  0
 16 15  2  0
 17 15  1  0
 18 17  1  0
 19 18  1  0
 19 21  1  0
 20 19  2  0
M  END
$$$$
