MLG.pdb
     RDKit          3D

 21 20  0  0  1  0  0  0  0  0999 V2000
   17.6159  -11.5682  -20.5624 C   0  0  0  0  0  0  0  0  0  0  0  0
   17.4067  -13.2966  -20.0579 S   0  0  0  0  0  0  0  0  0  0  0  0
   18.9700  -14.0319  -19.5384 C   0  0  0  0  0  0  0  0  0  0  0  0
   19.5741  -13.2599  -18.3978 C   0  0  0  0  0  0  0  0  0  0  0  0
   20.9373  -13.7701  -18.0054 C   0  0  2  0  0  0  0  0  0  0  0  0
   20.8888  -15.1636  -17.6295 N   0  0  0  0  0  0  0  0  0  0  0  0
   21.6143  -12.9290  -16.9954 C   0  0  0  0  0  0  0  0  0  0  0  0
   21.3775  -13.1240  -15.7748 O   0  0  0  0  0  0  0  0  0  0  0  0
   26.7800   -9.9393  -15.8001 C   0  0  0  0  0  0  0  0  0  0  0  0
   25.2983  -10.0709  -15.4492 C   0  0  2  0  0  0  0  0  0  0  0  0
   25.2441  -10.5644  -14.0216 C   0  0  0  0  0  0  0  0  0  0  0  0
   24.6171  -11.0155  -16.3839 C   0  0  0  0  0  0  0  0  0  0  0  0
   23.1429  -11.0222  -16.3087 C   0  0  2  0  0  0  0  0  0  0  0  0
   22.5301  -11.8974  -17.3132 N   0  0  0  0  0  0  0  0  0  0  0  0
   22.4478   -9.7316  -16.3448 C   0  0  0  0  0  0  0  0  0  0  0  0
   22.4146   -9.0517  -17.4196 O   0  0  0  0  0  0  0  0  0  0  0  0
   21.7719   -9.1338  -15.2447 N   0  0  0  0  0  0  0  0  0  0  0  0
   21.0647   -7.8854  -15.3457 C   0  0  0  0  0  0  0  0  0  0  0  0
   22.0182   -6.7727  -15.4181 C   0  0  0  0  0  0  0  0  0  0  0  0
   21.6393   -5.5804  -15.3971 O   0  0  0  0  0  0  0  0  0  0  0  0
   23.3746   -7.0265  -15.5123 O   0  0  0  0  0  0  0  0  0  0  0  0
  2  1  1  0
  3  2  1  0
  4  3  1  0
  4  5  1  0
  5  6  1  1
  7  8  2  0
  7  5  1  0
 10  9  1  6
 10 12  1  0
 11 10  1  0
 13 14  1  0
 13 12  1  6
 14  7  1  0
 15 13  1  0
 16 15  2  0
 17 15  1  0
 18 17  1  0
 19 18  1  0
 19 21  1  0
 20 19  2  0
M  END
$$$$
