MLG.pdb
     RDKit          3D

 21 20  0  0  1  0  0  0  0  0999 V2000
   21.1250  -20.7442  -13.0385 C   0  0  0  0  0  0  0  0  0  0  0  0
   20.8757  -20.8964  -11.2496 S   0  0  0  0  0  0  0  0  0  0  0  0
   22.4342  -21.1616  -10.3807 C   0  0  0  0  0  0  0  0  0  0  0  0
   23.5768  -20.5204  -11.1192 C   0  0  0  0  0  0  0  0  0  0  0  0
   24.9154  -20.8139  -10.4908 C   0  0  2  0  0  0  0  0  0  0  0  0
   24.9685  -20.3473   -9.1252 N   0  0  0  0  0  0  0  0  0  0  0  0
   26.0621  -20.3475  -11.2991 C   0  0  0  0  0  0  0  0  0  0  0  0
   26.4887  -19.1741  -11.1407 O   0  0  0  0  0  0  0  0  0  0  0  0
   30.2864  -20.0149  -11.3536 C   0  0  0  0  0  0  0  0  0  0  0  0
   29.7533  -21.4309  -11.5693 C   0  0  2  0  0  0  0  0  0  0  0  0
   30.9507  -22.3499  -11.4920 C   0  0  0  0  0  0  0  0  0  0  0  0
   29.0616  -21.5384  -12.8884 C   0  0  0  0  0  0  0  0  0  0  0  0
   27.8723  -20.6787  -13.0477 C   0  0  2  0  0  0  0  0  0  0  0  0
   26.7276  -21.1466  -12.2596 N   0  0  0  0  0  0  0  0  0  0  0  0
   27.4040  -20.3999  -14.4090 C   0  0  0  0  0  0  0  0  0  0  0  0
   28.2176  -19.9819  -15.2933 O   0  0  0  0  0  0  0  0  0  0  0  0
   26.0653  -20.5589  -14.8638 N   0  0  0  0  0  0  0  0  0  0  0  0
   25.6638  -20.2993  -16.2204 C   0  0  0  0  0  0  0  0  0  0  0  0
   24.2148  -20.4829  -16.3590 C   0  0  0  0  0  0  0  0  0  0  0  0
   23.4190  -20.1313  -15.4598 O   0  0  0  0  0  0  0  0  0  0  0  0
   23.6949  -21.0572  -17.5048 O   0  0  0  0  0  0  0  0  0  0  0  0
  2  1  1  0
  3  2  1  0
  4  3  1  0
  4  5  1  0
  5  6  1  1
  7  8  2  0
  7  5  1  0
 10  9  1  6
 10 12  1  0
 11 10  1  0
 13 14  1  0
 13 12  1  6
 14  7  1  0
 15 13  1  0
 16 15  2  0
 17 15  1  0
 18 17  1  0
 19 18  1  0
 19 21  1  0
 20 19  2  0
M  END
$$$$
