MLG.pdb
     RDKit          3D

 21 20  0  0  1  0  0  0  0  0999 V2000
   29.3240  -20.7626  -16.3173 C   0  0  0  0  0  0  0  0  0  0  0  0
   28.8977  -19.0040  -16.4215 S   0  0  0  0  0  0  0  0  0  0  0  0
   28.5655  -18.3024  -14.7931 C   0  0  0  0  0  0  0  0  0  0  0  0
   28.2945  -19.3862  -13.7862 C   0  0  0  0  0  0  0  0  0  0  0  0
   26.9131  -19.2956  -13.1893 C   0  0  2  0  0  0  0  0  0  0  0  0
   26.5419  -17.9245  -12.9292 N   0  0  0  0  0  0  0  0  0  0  0  0
   26.7187  -20.1728  -12.0152 C   0  0  0  0  0  0  0  0  0  0  0  0
   27.0003  -21.3959  -12.1085 O   0  0  0  0  0  0  0  0  0  0  0  0
   28.5107  -20.9761   -8.3582 C   0  0  0  0  0  0  0  0  0  0  0  0
   27.5710  -19.7761   -8.2455 C   0  0  2  0  0  0  0  0  0  0  0  0
   27.8483  -19.1468   -6.8995 C   0  0  0  0  0  0  0  0  0  0  0  0
   26.1470  -20.2085   -8.3676 C   0  0  0  0  0  0  0  0  0  0  0  0
   25.7285  -20.6223   -9.7213 C   0  0  2  0  0  0  0  0  0  0  0  0
   26.2269  -19.7225  -10.7664 N   0  0  0  0  0  0  0  0  0  0  0  0
   24.2992  -20.8482   -9.9590 C   0  0  0  0  0  0  0  0  0  0  0  0
   23.6175  -21.5494   -9.1454 O   0  0  0  0  0  0  0  0  0  0  0  0
   23.5609  -20.3357  -11.0620 N   0  0  0  0  0  0  0  0  0  0  0  0
   22.1327  -20.4635  -11.1745 C   0  0  0  0  0  0  0  0  0  0  0  0
   21.7941  -21.3354  -12.3048 C   0  0  0  0  0  0  0  0  0  0  0  0
   22.6704  -21.9802  -12.9226 O   0  0  0  0  0  0  0  0  0  0  0  0
   20.4788  -21.4617  -12.7137 O   0  0  0  0  0  0  0  0  0  0  0  0
  2  1  1  0
  3  2  1  0
  4  3  1  0
  4  5  1  0
  5  6  1  1
  7  8  2  0
  7  5  1  0
 10  9  1  1
 10 12  1  0
 11 10  1  0
 13 14  1  0
 13 12  1  1
 14  7  1  0
 15 13  1  0
 16 15  2  0
 17 15  1  0
 18 17  1  0
 19 18  1  0
 19 21  1  0
 20 19  2  0
M  END
$$$$
