MLG.pdb
     RDKit          3D

 21 20  0  0  1  0  0  0  0  0999 V2000
   15.7368   -7.3229  -20.6510 C   0  0  0  0  0  0  0  0  0  0  0  0
   14.6304   -8.5235  -19.8637 S   0  0  0  0  0  0  0  0  0  0  0  0
   15.5525   -9.8204  -19.0139 C   0  0  0  0  0  0  0  0  0  0  0  0
   16.2739   -9.2692  -17.8149 C   0  0  0  0  0  0  0  0  0  0  0  0
   17.0889  -10.3126  -17.0940 C   0  0  2  0  0  0  0  0  0  0  0  0
   16.2465  -11.3439  -16.5352 N   0  0  0  0  0  0  0  0  0  0  0  0
   18.0312   -9.7465  -16.1053 C   0  0  0  0  0  0  0  0  0  0  0  0
   17.6739   -9.6472  -14.9026 O   0  0  0  0  0  0  0  0  0  0  0  0
   23.4747   -9.8918  -13.8140 C   0  0  0  0  0  0  0  0  0  0  0  0
   22.3016   -8.9454  -14.0668 C   0  0  2  0  0  0  0  0  0  0  0  0
   21.6492   -8.7123  -12.7235 C   0  0  0  0  0  0  0  0  0  0  0  0
   21.3453   -9.5413  -15.0467 C   0  0  0  0  0  0  0  0  0  0  0  0
   20.2323   -8.6618  -15.4549 C   0  0  2  0  0  0  0  0  0  0  0  0
   19.3356   -9.2987  -16.4248 N   0  0  0  0  0  0  0  0  0  0  0  0
   20.5625   -7.3223  -15.9518 C   0  0  0  0  0  0  0  0  0  0  0  0
   21.1860   -7.1828  -17.0520 O   0  0  0  0  0  0  0  0  0  0  0  0
   20.2387   -6.1020  -15.2958 N   0  0  0  0  0  0  0  0  0  0  0  0
   20.6299   -4.8138  -15.8020 C   0  0  0  0  0  0  0  0  0  0  0  0
   19.9811   -3.7512  -15.0259 C   0  0  0  0  0  0  0  0  0  0  0  0
   19.0351   -3.9931  -14.2437 O   0  0  0  0  0  0  0  0  0  0  0  0
   20.4111   -2.4422  -15.1475 O   0  0  0  0  0  0  0  0  0  0  0  0
  2  1  1  0
  3  2  1  0
  4  3  1  0
  4  5  1  0
  5  6  1  1
  7  8  2  0
  7  5  1  0
 10  9  1  1
 10 12  1  0
 11 10  1  0
 13 14  1  0
 13 12  1  6
 14  7  1  0
 15 13  1  0
 16 15  2  0
 17 15  1  0
 18 17  1  0
 19 18  1  0
 19 21  1  0
 20 19  2  0
M  END
$$$$
