MLG.pdb
     RDKit          3D

 21 20  0  0  1  0  0  0  0  0999 V2000
   20.7748   -8.5607  -22.1156 C   0  0  0  0  0  0  0  0  0  0  0  0
   19.7063  -10.0172  -22.2656 S   0  0  0  0  0  0  0  0  0  0  0  0
   18.2441   -9.8803  -21.2180 C   0  0  0  0  0  0  0  0  0  0  0  0
   18.6121   -9.3955  -19.8427 C   0  0  0  0  0  0  0  0  0  0  0  0
   18.7581  -10.5188  -18.8479 C   0  0  2  0  0  0  0  0  0  0  0  0
   17.5329  -11.2728  -18.7229 N   0  0  0  0  0  0  0  0  0  0  0  0
   19.2975  -10.0843  -17.5417 C   0  0  0  0  0  0  0  0  0  0  0  0
   18.5016   -9.8501  -16.5954 O   0  0  0  0  0  0  0  0  0  0  0  0
   24.3914  -10.3129  -14.0720 C   0  0  0  0  0  0  0  0  0  0  0  0
   23.0604   -9.6067  -14.3277 C   0  0  2  0  0  0  0  0  0  0  0  0
   22.2123   -9.8453  -13.0997 C   0  0  0  0  0  0  0  0  0  0  0  0
   22.4077  -10.1422  -15.5595 C   0  0  0  0  0  0  0  0  0  0  0  0
   21.1985   -9.4175  -15.9971 C   0  0  2  0  0  0  0  0  0  0  0  0
   20.6771   -9.9097  -17.2763 N   0  0  0  0  0  0  0  0  0  0  0  0
   21.2618   -7.9541  -16.0644 C   0  0  0  0  0  0  0  0  0  0  0  0
   21.4673   -7.2726  -15.0099 O   0  0  0  0  0  0  0  0  0  0  0  0
   21.1105   -7.1809  -17.2491 N   0  0  0  0  0  0  0  0  0  0  0  0
   21.2447   -5.7490  -17.2713 C   0  0  0  0  0  0  0  0  0  0  0  0
   20.0048   -5.1211  -16.8014 C   0  0  0  0  0  0  0  0  0  0  0  0
   18.9851   -5.7966  -16.5384 O   0  0  0  0  0  0  0  0  0  0  0  0
   19.9407   -3.7491  -16.6383 O   0  0  0  0  0  0  0  0  0  0  0  0
  2  1  1  0
  3  2  1  0
  4  3  1  0
  4  5  1  0
  5  6  1  1
  7  8  2  0
  7  5  1  0
 10  9  1  1
 10 12  1  0
 11 10  1  0
 13 14  1  0
 13 12  1  6
 14  7  1  0
 15 13  1  0
 16 15  2  0
 17 15  1  0
 18 17  1  0
 19 18  1  0
 19 21  1  0
 20 19  2  0
M  END
$$$$
