MLG.pdb
     RDKit          3D

 21 20  0  0  1  0  0  0  0  0999 V2000
   23.7174  -22.8158  -20.8219 C   0  0  0  0  0  0  0  0  0  0  0  0
   22.8786  -21.3930  -21.5686 S   0  0  0  0  0  0  0  0  0  0  0  0
   23.3258  -19.8505  -20.7470 C   0  0  0  0  0  0  0  0  0  0  0  0
   24.0606  -20.1194  -19.4626 C   0  0  0  0  0  0  0  0  0  0  0  0
   23.4022  -19.4766  -18.2684 C   0  0  2  0  0  0  0  0  0  0  0  0
   23.8342  -18.1086  -18.1031 N   0  0  0  0  0  0  0  0  0  0  0  0
   23.5279  -20.2696  -17.0270 C   0  0  0  0  0  0  0  0  0  0  0  0
   23.1691  -21.4759  -17.0293 O   0  0  0  0  0  0  0  0  0  0  0  0
   26.9456  -21.8320  -15.3778 C   0  0  0  0  0  0  0  0  0  0  0  0
   26.7511  -20.3969  -14.8894 C   0  0  2  0  0  0  0  0  0  0  0  0
   28.0294  -20.0150  -14.1790 C   0  0  0  0  0  0  0  0  0  0  0  0
   25.5689  -20.3047  -13.9818 C   0  0  0  0  0  0  0  0  0  0  0  0
   24.2646  -20.5767  -14.6172 C   0  0  2  0  0  0  0  0  0  0  0  0
   24.0348  -19.7547  -15.8096 N   0  0  0  0  0  0  0  0  0  0  0  0
   23.0641  -20.5065  -13.7779 C   0  0  0  0  0  0  0  0  0  0  0  0
   23.0438  -21.0754  -12.6401 O   0  0  0  0  0  0  0  0  0  0  0  0
   21.8605  -19.8316  -14.1243 N   0  0  0  0  0  0  0  0  0  0  0  0
   20.7287  -19.7472  -13.2406 C   0  0  0  0  0  0  0  0  0  0  0  0
   19.8339  -20.8890  -13.4603 C   0  0  0  0  0  0  0  0  0  0  0  0
   18.7383  -20.9892  -12.8644 O   0  0  0  0  0  0  0  0  0  0  0  0
   20.1918  -21.8907  -14.3443 O   0  0  0  0  0  0  0  0  0  0  0  0
  2  1  1  0
  3  2  1  0
  4  3  1  0
  4  5  1  0
  5  6  1  1
  7  8  2  0
  7  5  1  0
 10  9  1  1
 10 12  1  0
 11 10  1  0
 13 14  1  0
 13 12  1  1
 14  7  1  0
 15 13  1  0
 16 15  2  0
 17 15  1  0
 18 17  1  0
 19 18  1  0
 19 21  1  0
 20 19  2  0
M  END
$$$$
