EWS.pdb
     RDKit          3D

 30 31  0  0  1  0  0  0  0  0999 V2000
   28.4860  -22.1580  -15.1564 N   0  0  0  0  0  0  0  0  0  0  0  0
   27.3284  -21.3425  -15.1903 C   0  0  1  0  0  0  0  0  0  0  0  0
   26.4744  -21.3864  -16.4014 C   0  0  0  0  0  0  0  0  0  0  0  0
   26.6916  -20.3864  -17.4595 C   0  0  0  0  0  0  0  0  0  0  0  0
   27.8774  -19.5538  -17.2471 C   0  0  0  0  0  0  0  0  0  0  0  0
   29.0266  -19.8692  -17.5559 O   0  0  0  0  0  0  0  0  0  0  0  0
   26.4350  -21.5612  -13.9918 C   0  0  0  0  0  0  0  0  0  0  0  0
   25.9307  -22.7241  -13.8441 O   0  0  0  0  0  0  0  0  0  0  0  0
   27.6723  -18.2856  -16.6359 O   0  0  0  0  0  0  0  0  0  0  0  0
   26.1277  -20.5778  -13.0393 N   0  0  0  0  0  0  0  0  0  0  0  0
   25.2724  -20.8618  -11.8693 C   0  0  1  0  0  0  0  0  0  0  0  0
   25.8031  -19.9770  -10.7528 C   0  0  0  0  0  0  0  0  0  0  0  0
   27.0291  -20.4541  -10.1224 C   0  0  0  0  0  0  0  0  0  0  0  0
   27.9631  -21.2738  -10.7204 C   0  0  0  0  0  0  0  0  0  0  0  0
   28.9475  -21.4972   -9.7985 N   0  0  0  0  0  0  0  0  0  0  0  0
   28.6357  -20.8398   -8.6688 C   0  0  0  0  0  0  0  0  0  0  0  0
   29.3135  -20.7573   -7.4603 C   0  0  0  0  0  0  0  0  0  0  0  0
   28.8065  -20.0139   -6.4120 C   0  0  0  0  0  0  0  0  0  0  0  0
   27.6105  -19.3448   -6.5683 C   0  0  0  0  0  0  0  0  0  0  0  0
   26.9536  -19.4395   -7.7752 C   0  0  0  0  0  0  0  0  0  0  0  0
   27.4343  -20.1721   -8.8367 C   0  0  0  0  0  0  0  0  0  0  0  0
   23.8633  -20.6450  -12.1935 C   0  0  0  0  0  0  0  0  0  0  0  0
   23.4745  -19.4539  -12.4560 O   0  0  0  0  0  0  0  0  0  0  0  0
   21.3692  -23.2171  -13.9929 O   0  0  0  0  0  0  0  0  0  0  0  0
   20.7772  -22.6363  -12.8879 C   0  0  0  0  0  0  0  0  0  0  0  0
   21.4575  -21.3118  -12.5123 C   0  0  2  0  0  0  0  0  0  0  0  0
   22.8466  -21.6298  -12.2555 N   0  0  0  0  0  0  0  0  0  0  0  0
   20.7277  -20.7674  -11.3730 C   0  0  0  0  0  0  0  0  0  0  0  0
   21.2666  -20.9280  -10.2274 O   0  0  0  0  0  0  0  0  0  0  0  0
   19.5307  -20.1042  -11.3916 O   0  0  0  0  0  0  0  0  0  0  0  0
  2  1  1  6
  2  3  1  0
  4  3  1  0
  5  4  1  0
  6  5  2  0
  7  2  1  0
  7  8  2  0
  9  5  1  0
 10  7  1  0
 11 10  1  0
 12 13  1  0
 11 12  1  1
 13 21  1  0
 14 13  2  0
 14 15  1  0
 15 16  1  0
 16 17  1  0
 17 18  2  0
 19 18  1  0
 20 19  2  0
 21 16  2  0
 21 20  1  0
 22 27  1  0
 22 11  1  0
 23 22  2  0
 24 25  1  0
 26 25  1  1
 26 27  1  0
 26 28  1  0
 28 30  1  0
 29 28  2  0
M  END
$$$$
