EWS.pdb
     RDKit          3D

 30 31  0  0  1  0  0  0  0  0999 V2000
   26.2838  -21.2126  -18.2137 N   0  0  0  0  0  0  0  0  0  0  0  0
   25.0195  -20.6417  -18.4997 C   0  0  1  0  0  0  0  0  0  0  0  0
   24.1406  -21.3346  -19.4719 C   0  0  0  0  0  0  0  0  0  0  0  0
   24.6313  -21.5521  -20.8426 C   0  0  0  0  0  0  0  0  0  0  0  0
   24.7851  -20.3174  -21.6148 C   0  0  0  0  0  0  0  0  0  0  0  0
   23.9004  -19.4799  -21.7916 O   0  0  0  0  0  0  0  0  0  0  0  0
   24.2084  -20.3847  -17.2513 C   0  0  0  0  0  0  0  0  0  0  0  0
   24.4164  -21.1507  -16.2520 O   0  0  0  0  0  0  0  0  0  0  0  0
   26.0595  -20.0794  -22.2008 O   0  0  0  0  0  0  0  0  0  0  0  0
   23.2508  -19.3674  -17.1208 N   0  0  0  0  0  0  0  0  0  0  0  0
   22.6421  -19.0282  -15.8187 C   0  0  1  0  0  0  0  0  0  0  0  0
   22.9204  -17.5480  -15.6126 C   0  0  0  0  0  0  0  0  0  0  0  0
   22.2447  -16.6602  -16.5524 C   0  0  0  0  0  0  0  0  0  0  0  0
   20.9930  -16.1114  -16.3674 C   0  0  0  0  0  0  0  0  0  0  0  0
   20.7204  -15.3560  -17.4738 N   0  0  0  0  0  0  0  0  0  0  0  0
   21.7652  -15.4331  -18.3152 C   0  0  0  0  0  0  0  0  0  0  0  0
   21.9639  -14.8477  -19.5579 C   0  0  0  0  0  0  0  0  0  0  0  0
   23.1310  -15.0632  -20.2651 C   0  0  0  0  0  0  0  0  0  0  0  0
   24.1121  -15.8710  -19.7289 C   0  0  0  0  0  0  0  0  0  0  0  0
   23.8954  -16.4424  -18.4945 C   0  0  0  0  0  0  0  0  0  0  0  0
   22.7433  -16.2459  -17.7675 C   0  0  0  0  0  0  0  0  0  0  0  0
   21.2240  -19.3840  -15.8021 C   0  0  0  0  0  0  0  0  0  0  0  0
   20.5894  -19.4113  -16.9135 O   0  0  0  0  0  0  0  0  0  0  0  0
   19.0825  -20.2315  -12.3334 O   0  0  0  0  0  0  0  0  0  0  0  0
   18.6960  -20.8504  -13.5066 C   0  0  0  0  0  0  0  0  0  0  0  0
   19.0268  -19.9907  -14.7353 C   0  0  2  0  0  0  0  0  0  0  0  0
   20.4464  -19.7148  -14.6648 N   0  0  0  0  0  0  0  0  0  0  0  0
   18.1654  -18.8153  -14.6756 C   0  0  0  0  0  0  0  0  0  0  0  0
   18.7495  -17.6949  -14.4954 O   0  0  0  0  0  0  0  0  0  0  0  0
   16.8023  -18.7759  -14.7904 O   0  0  0  0  0  0  0  0  0  0  0  0
  2  1  1  1
  2  3  1  0
  4  3  1  0
  5  4  1  0
  6  5  2  0
  7  2  1  0
  7  8  2  0
  9  5  1  0
 10  7  1  0
 11 10  1  0
 12 13  1  0
 11 12  1  6
 13 21  1  0
 14 13  2  0
 14 15  1  0
 15 16  1  0
 16 17  1  0
 17 18  2  0
 19 18  1  0
 20 19  2  0
 21 16  2  0
 21 20  1  0
 22 27  1  0
 22 11  1  0
 23 22  2  0
 24 25  1  0
 26 25  1  1
 26 27  1  0
 26 28  1  0
 28 30  1  0
 29 28  2  0
M  END
$$$$
