EWS.pdb
     RDKit          3D

 30 31  0  0  1  0  0  0  0  0999 V2000
   27.6583  -19.7866  -15.1467 N   0  0  0  0  0  0  0  0  0  0  0  0
   27.0127  -21.0443  -15.0595 C   0  0  1  0  0  0  0  0  0  0  0  0
   27.7171  -22.2332  -15.5965 C   0  0  0  0  0  0  0  0  0  0  0  0
   28.2570  -22.1801  -16.9650 C   0  0  0  0  0  0  0  0  0  0  0  0
   29.6493  -21.7310  -17.0306 C   0  0  0  0  0  0  0  0  0  0  0  0
   30.6234  -22.3955  -16.6772 O   0  0  0  0  0  0  0  0  0  0  0  0
   26.5738  -21.3695  -13.6510 C   0  0  0  0  0  0  0  0  0  0  0  0
   26.2042  -22.5683  -13.4168 O   0  0  0  0  0  0  0  0  0  0  0  0
   29.8805  -20.4244  -17.5439 O   0  0  0  0  0  0  0  0  0  0  0  0
   26.5474  -20.4474  -12.5936 N   0  0  0  0  0  0  0  0  0  0  0  0
   25.7279  -20.6664  -11.3847 C   0  0  1  0  0  0  0  0  0  0  0  0
   26.3212  -19.7570  -10.3207 C   0  0  0  0  0  0  0  0  0  0  0  0
   27.3603  -20.3695   -9.5003 C   0  0  0  0  0  0  0  0  0  0  0  0
   28.3011  -21.2711   -9.9521 C   0  0  0  0  0  0  0  0  0  0  0  0
   29.0763  -21.6114   -8.8787 N   0  0  0  0  0  0  0  0  0  0  0  0
   28.6327  -20.9451   -7.7994 C   0  0  0  0  0  0  0  0  0  0  0  0
   29.0866  -20.9543   -6.4877 C   0  0  0  0  0  0  0  0  0  0  0  0
   28.4750  -20.1808   -5.5201 C   0  0  0  0  0  0  0  0  0  0  0  0
   27.3989  -19.3886   -5.8621 C   0  0  0  0  0  0  0  0  0  0  0  0
   26.9640  -19.3937   -7.1690 C   0  0  0  0  0  0  0  0  0  0  0  0
   27.5532  -20.1536   -8.1538 C   0  0  0  0  0  0  0  0  0  0  0  0
   24.3141  -20.4233  -11.6670 C   0  0  0  0  0  0  0  0  0  0  0  0
   23.9887  -19.3347  -12.2567 O   0  0  0  0  0  0  0  0  0  0  0  0
   21.7934  -23.0853  -12.6673 O   0  0  0  0  0  0  0  0  0  0  0  0
   21.3882  -21.7706  -12.7945 C   0  0  0  0  0  0  0  0  0  0  0  0
   21.8476  -20.9193  -11.6017 C   0  0  2  0  0  0  0  0  0  0  0  0
   23.2285  -21.2793  -11.3567 N   0  0  0  0  0  0  0  0  0  0  0  0
   20.9317  -21.1998  -10.5019 C   0  0  0  0  0  0  0  0  0  0  0  0
   21.4497  -21.7006   -9.4486 O   0  0  0  0  0  0  0  0  0  0  0  0
   19.5801  -20.9876  -10.4701 O   0  0  0  0  0  0  0  0  0  0  0  0
  2  1  1  1
  2  3  1  0
  4  3  1  0
  5  4  1  0
  6  5  2  0
  7  2  1  0
  7  8  2  0
  9  5  1  0
 10  7  1  0
 11 10  1  0
 12 13  1  0
 11 12  1  1
 13 21  1  0
 14 13  2  0
 14 15  1  0
 15 16  1  0
 16 17  1  0
 17 18  2  0
 19 18  1  0
 20 19  2  0
 21 16  2  0
 21 20  1  0
 22 27  1  0
 22 11  1  0
 23 22  2  0
 24 25  1  0
 26 25  1  6
 26 27  1  0
 26 28  1  0
 28 30  1  0
 29 28  2  0
M  END
$$$$
