EWS.pdb
     RDKit          3D

 30 31  0  0  1  0  0  0  0  0999 V2000
   28.2862  -19.1200  -14.2309 N   0  0  0  0  0  0  0  0  0  0  0  0
   27.3868  -20.0046  -14.8749 C   0  0  1  0  0  0  0  0  0  0  0  0
   27.9450  -21.0328  -15.7854 C   0  0  0  0  0  0  0  0  0  0  0  0
   28.7075  -20.5961  -16.9664 C   0  0  0  0  0  0  0  0  0  0  0  0
   28.0011  -19.6147  -17.7924 C   0  0  0  0  0  0  0  0  0  0  0  0
   26.8688  -19.7625  -18.2522 O   0  0  0  0  0  0  0  0  0  0  0  0
   26.4714  -20.7058  -13.8987 C   0  0  0  0  0  0  0  0  0  0  0  0
   26.1181  -21.8986  -14.1833 O   0  0  0  0  0  0  0  0  0  0  0  0
   28.6871  -18.4016  -18.0786 O   0  0  0  0  0  0  0  0  0  0  0  0
   25.9898  -20.1357  -12.7104 N   0  0  0  0  0  0  0  0  0  0  0  0
   25.0210  -20.8359  -11.8432 C   0  0  1  0  0  0  0  0  0  0  0  0
   25.3049  -20.3416  -10.4339 C   0  0  0  0  0  0  0  0  0  0  0  0
   26.6006  -20.7391   -9.8940 C   0  0  0  0  0  0  0  0  0  0  0  0
   27.5346  -21.5089  -10.5551 C   0  0  0  0  0  0  0  0  0  0  0  0
   28.5963  -21.6641   -9.7079 N   0  0  0  0  0  0  0  0  0  0  0  0
   28.3309  -21.0141   -8.5623 C   0  0  0  0  0  0  0  0  0  0  0  0
   29.0906  -20.8788   -7.4085 C   0  0  0  0  0  0  0  0  0  0  0  0
   28.6197  -20.1553   -6.3299 C   0  0  0  0  0  0  0  0  0  0  0  0
   27.3778  -19.5593   -6.4005 C   0  0  0  0  0  0  0  0  0  0  0  0
   26.6397  -19.7054   -7.5543 C   0  0  0  0  0  0  0  0  0  0  0  0
   27.0828  -20.4200   -8.6440 C   0  0  0  0  0  0  0  0  0  0  0  0
   23.6525  -20.6011  -12.3012 C   0  0  0  0  0  0  0  0  0  0  0  0
   23.3250  -19.4171  -12.6613 O   0  0  0  0  0  0  0  0  0  0  0  0
   21.2731  -23.3614  -13.9138 O   0  0  0  0  0  0  0  0  0  0  0  0
   20.9800  -22.0209  -14.0750 C   0  0  0  0  0  0  0  0  0  0  0  0
   21.2640  -21.2219  -12.7946 C   0  0  2  0  0  0  0  0  0  0  0  0
   22.6147  -21.5608  -12.3983 N   0  0  0  0  0  0  0  0  0  0  0  0
   20.2293  -21.5809  -11.8315 C   0  0  0  0  0  0  0  0  0  0  0  0
   19.0344  -21.2525  -12.1367 O   0  0  0  0  0  0  0  0  0  0  0  0
   20.3928  -22.2297  -10.6377 O   0  0  0  0  0  0  0  0  0  0  0  0
  2  1  1  1
  2  3  1  0
  4  3  1  0
  5  4  1  0
  6  5  2  0
  7  2  1  0
  7  8  2  0
  9  5  1  0
 10  7  1  0
 11 10  1  0
 12 13  1  0
 11 12  1  1
 13 21  1  0
 14 13  2  0
 14 15  1  0
 15 16  1  0
 16 17  1  0
 17 18  2  0
 19 18  1  0
 20 19  2  0
 21 16  2  0
 21 20  1  0
 22 27  1  0
 22 11  1  0
 23 22  2  0
 24 25  1  0
 26 25  1  6
 26 27  1  0
 26 28  1  0
 28 30  1  0
 29 28  2  0
M  END
$$$$
