EWS.pdb
     RDKit          3D

 30 31  0  0  1  0  0  0  0  0999 V2000
   28.8122  -21.0868  -12.0121 N   0  0  0  0  0  0  0  0  0  0  0  0
   27.4459  -20.7135  -12.0007 C   0  0  1  0  0  0  0  0  0  0  0  0
   26.6041  -21.0970  -13.1592 C   0  0  0  0  0  0  0  0  0  0  0  0
   26.8519  -20.4543  -14.4601 C   0  0  0  0  0  0  0  0  0  0  0  0
   27.0299  -19.0032  -14.3746 C   0  0  0  0  0  0  0  0  0  0  0  0
   28.0503  -18.3963  -14.6995 O   0  0  0  0  0  0  0  0  0  0  0  0
   26.7354  -21.1689  -10.7476 C   0  0  0  0  0  0  0  0  0  0  0  0
   26.8947  -22.3851  -10.3955 O   0  0  0  0  0  0  0  0  0  0  0  0
   25.9318  -18.2486  -13.8758 O   0  0  0  0  0  0  0  0  0  0  0  0
   25.9201  -20.3484   -9.9532 N   0  0  0  0  0  0  0  0  0  0  0  0
   25.2320  -20.8588   -8.7503 C   0  0  1  0  0  0  0  0  0  0  0  0
   25.2232  -19.7014   -7.7646 C   0  0  0  0  0  0  0  0  0  0  0  0
   26.5295  -19.3524   -7.2169 C   0  0  0  0  0  0  0  0  0  0  0  0
   27.3707  -18.3841   -7.7235 C   0  0  0  0  0  0  0  0  0  0  0  0
   28.4902  -18.3769   -6.9389 N   0  0  0  0  0  0  0  0  0  0  0  0
   28.3490  -19.3073   -5.9798 C   0  0  0  0  0  0  0  0  0  0  0  0
   29.2062  -19.6768   -4.9524 C   0  0  0  0  0  0  0  0  0  0  0  0
   28.8583  -20.6749   -4.0629 C   0  0  0  0  0  0  0  0  0  0  0  0
   27.6428  -21.3129   -4.1974 C   0  0  0  0  0  0  0  0  0  0  0  0
   26.8067  -20.9314   -5.2233 C   0  0  0  0  0  0  0  0  0  0  0  0
   27.1263  -19.9410   -6.1241 C   0  0  0  0  0  0  0  0  0  0  0  0
   23.9059  -21.3716   -9.0912 C   0  0  0  0  0  0  0  0  0  0  0  0
   23.4117  -21.0722  -10.2335 O   0  0  0  0  0  0  0  0  0  0  0  0
   21.1315  -22.7776   -6.3767 O   0  0  0  0  0  0  0  0  0  0  0  0
   21.2267  -23.5029   -7.5487 C   0  0  0  0  0  0  0  0  0  0  0  0
   21.7713  -22.6466   -8.7012 C   0  0  2  0  0  0  0  0  0  0  0  0
   23.0791  -22.1885   -8.2810 N   0  0  0  0  0  0  0  0  0  0  0  0
   20.7954  -21.5902   -8.9436 C   0  0  0  0  0  0  0  0  0  0  0  0
   21.1904  -20.3957   -8.7297 O   0  0  0  0  0  0  0  0  0  0  0  0
   19.5042  -21.7332   -9.3740 O   0  0  0  0  0  0  0  0  0  0  0  0
  2  1  1  6
  2  3  1  0
  4  3  1  0
  5  4  1  0
  6  5  2  0
  7  2  1  0
  7  8  2  0
  9  5  1  0
 10  7  1  0
 11 10  1  0
 12 13  1  0
 11 12  1  1
 13 21  1  0
 14 13  2  0
 14 15  1  0
 15 16  1  0
 16 17  1  0
 17 18  2  0
 19 18  1  0
 20 19  2  0
 21 16  2  0
 21 20  1  0
 22 27  1  0
 22 11  1  0
 23 22  2  0
 24 25  1  0
 26 25  1  1
 26 27  1  0
 26 28  1  0
 28 30  1  0
 29 28  2  0
M  END
$$$$
