EWS.pdb
     RDKit          3D

 30 31  0  0  1  0  0  0  0  0999 V2000
   27.5475    6.0095  -13.5633 N   0  0  0  0  0  0  0  0  0  0  0  0
   28.3079    5.7314  -12.4011 C   0  0  1  0  0  0  0  0  0  0  0  0
   29.3159    6.7281  -11.9671 C   0  0  0  0  0  0  0  0  0  0  0  0
   30.7436    6.3838  -12.0682 C   0  0  0  0  0  0  0  0  0  0  0  0
   31.2426    6.3435  -13.4443 C   0  0  0  0  0  0  0  0  0  0  0  0
   31.1840    7.2770  -14.2446 O   0  0  0  0  0  0  0  0  0  0  0  0
   27.4387    5.4098  -11.2080 C   0  0  0  0  0  0  0  0  0  0  0  0
   26.6830    6.3395  -10.7686 O   0  0  0  0  0  0  0  0  0  0  0  0
   31.8384    5.1264  -13.8775 O   0  0  0  0  0  0  0  0  0  0  0  0
   27.4086    4.1663  -10.5585 N   0  0  0  0  0  0  0  0  0  0  0  0
   26.5857    3.9320   -9.3547 C   0  0  1  0  0  0  0  0  0  0  0  0
   26.1741    2.4701   -9.4214 C   0  0  0  0  0  0  0  0  0  0  0  0
   25.1863    2.0651   -8.4272 C   0  0  0  0  0  0  0  0  0  0  0  0
   23.8252    2.0007   -8.6399 C   0  0  0  0  0  0  0  0  0  0  0  0
   23.2561    1.5935   -7.4655 N   0  0  0  0  0  0  0  0  0  0  0  0
   24.2289    1.4118   -6.5565 C   0  0  0  0  0  0  0  0  0  0  0  0
   24.1565    1.0062   -5.2310 C   0  0  0  0  0  0  0  0  0  0  0  0
   25.2986    0.8832   -4.4636 C   0  0  0  0  0  0  0  0  0  0  0  0
   26.5275    1.1672   -5.0220 C   0  0  0  0  0  0  0  0  0  0  0  0
   26.5777    1.5680   -6.3389 C   0  0  0  0  0  0  0  0  0  0  0  0
   25.4572    1.6995   -7.1273 C   0  0  0  0  0  0  0  0  0  0  0  0
   27.3219    4.2975   -8.1456 C   0  0  0  0  0  0  0  0  0  0  0  0
   28.5634    3.9937   -8.0725 O   0  0  0  0  0  0  0  0  0  0  0  0
   28.2543    7.0760   -4.4431 O   0  0  0  0  0  0  0  0  0  0  0  0
   27.4180    6.6915   -5.4734 C   0  0  0  0  0  0  0  0  0  0  0  0
   27.5853    5.2030   -5.8122 C   0  0  2  0  0  0  0  0  0  0  0  0
   26.8067    4.9717   -7.0109 N   0  0  0  0  0  0  0  0  0  0  0  0
   27.1539    4.4496   -4.6404 C   0  0  0  0  0  0  0  0  0  0  0  0
   25.9174    4.1371   -4.5930 O   0  0  0  0  0  0  0  0  0  0  0  0
   27.9230    4.0393   -3.5854 O   0  0  0  0  0  0  0  0  0  0  0  0
  2  1  1  6
  2  3  1  0
  4  3  1  0
  5  4  1  0
  6  5  2  0
  7  2  1  0
  7  8  2  0
  9  5  1  0
 10  7  1  0
 11 10  1  0
 12 13  1  0
 11 12  1  1
 13 21  1  0
 14 13  2  0
 14 15  1  0
 15 16  1  0
 16 17  1  0
 17 18  2  0
 19 18  1  0
 20 19  2  0
 21 16  2  0
 21 20  1  0
 22 27  1  0
 22 11  1  0
 23 22  2  0
 24 25  1  0
 26 25  1  1
 26 27  1  0
 26 28  1  0
 28 30  1  0
 29 28  2  0
M  END
$$$$
