EWS.pdb
     RDKit          3D

 30 31  0  0  1  0  0  0  0  0999 V2000
   28.9906  -21.4698  -14.0116 N   0  0  0  0  0  0  0  0  0  0  0  0
   28.1739  -20.3855  -13.6073 C   0  0  1  0  0  0  0  0  0  0  0  0
   27.4479  -19.6258  -14.6531 C   0  0  0  0  0  0  0  0  0  0  0  0
   28.2080  -19.0762  -15.7875 C   0  0  0  0  0  0  0  0  0  0  0  0
   28.0836  -19.8643  -17.0155 C   0  0  0  0  0  0  0  0  0  0  0  0
   29.0278  -20.2711  -17.6926 O   0  0  0  0  0  0  0  0  0  0  0  0
   27.1703  -20.7836  -12.5505 C   0  0  0  0  0  0  0  0  0  0  0  0
   26.4559  -21.8151  -12.7831 O   0  0  0  0  0  0  0  0  0  0  0  0
   26.7651  -20.1769  -17.4487 O   0  0  0  0  0  0  0  0  0  0  0  0
   26.9755  -20.0993  -11.3411 N   0  0  0  0  0  0  0  0  0  0  0  0
   25.9600  -20.5239  -10.3566 C   0  0  1  0  0  0  0  0  0  0  0  0
   26.3797  -19.8903   -9.0399 C   0  0  0  0  0  0  0  0  0  0  0  0
   27.6000  -20.4377   -8.4574 C   0  0  0  0  0  0  0  0  0  0  0  0
   28.4290  -21.3559   -9.0670 C   0  0  0  0  0  0  0  0  0  0  0  0
   29.4464  -21.6184   -8.1923 N   0  0  0  0  0  0  0  0  0  0  0  0
   29.2557  -20.8894   -7.0798 C   0  0  0  0  0  0  0  0  0  0  0  0
   30.0093  -20.8098   -5.9168 C   0  0  0  0  0  0  0  0  0  0  0  0
   29.6261  -19.9829   -4.8786 C   0  0  0  0  0  0  0  0  0  0  0  0
   28.4793  -19.2260   -4.9992 C   0  0  0  0  0  0  0  0  0  0  0  0
   27.7457  -19.3194   -6.1613 C   0  0  0  0  0  0  0  0  0  0  0  0
   28.1026  -20.1341   -7.2116 C   0  0  0  0  0  0  0  0  0  0  0  0
   24.6184  -20.1534  -10.8044 C   0  0  0  0  0  0  0  0  0  0  0  0
   24.5053  -19.2770  -11.7306 O   0  0  0  0  0  0  0  0  0  0  0  0
   21.4484  -21.6924  -13.2047 O   0  0  0  0  0  0  0  0  0  0  0  0
   22.5065  -21.6263  -12.3188 C   0  0  0  0  0  0  0  0  0  0  0  0
   22.1866  -20.7183  -11.1224 C   0  0  2  0  0  0  0  0  0  0  0  0
   23.3907  -20.6686  -10.3198 N   0  0  0  0  0  0  0  0  0  0  0  0
   21.0225  -21.2896  -10.4549 C   0  0  0  0  0  0  0  0  0  0  0  0
   21.2588  -22.1657   -9.5574 O   0  0  0  0  0  0  0  0  0  0  0  0
   19.7055  -20.9941  -10.6808 O   0  0  0  0  0  0  0  0  0  0  0  0
  2  1  1  6
  2  3  1  0
  4  3  1  0
  5  4  1  0
  6  5  2  0
  7  2  1  0
  7  8  2  0
  9  5  1  0
 10  7  1  0
 11 10  1  0
 12 13  1  0
 11 12  1  1
 13 21  1  0
 14 13  2  0
 14 15  1  0
 15 16  1  0
 16 17  1  0
 17 18  2  0
 19 18  1  0
 20 19  2  0
 21 16  2  0
 21 20  1  0
 22 27  1  0
 22 11  1  0
 23 22  2  0
 24 25  1  0
 26 25  1  6
 26 27  1  0
 26 28  1  0
 28 30  1  0
 29 28  2  0
M  END
$$$$
