EWS.pdb
     RDKit          3D

 30 31  0  0  1  0  0  0  0  0999 V2000
   26.3585  -32.0831  -16.3084 N   0  0  0  0  0  0  0  0  0  0  0  0
   25.0436  -31.8504  -15.8361 C   0  0  1  0  0  0  0  0  0  0  0  0
   23.9441  -31.7797  -16.8280 C   0  0  0  0  0  0  0  0  0  0  0  0
   23.8621  -30.6071  -17.7142 C   0  0  0  0  0  0  0  0  0  0  0  0
   23.1604  -29.4680  -17.1186 C   0  0  0  0  0  0  0  0  0  0  0  0
   22.1919  -29.5513  -16.3633 O   0  0  0  0  0  0  0  0  0  0  0  0
   24.6332  -32.8360  -14.7671 C   0  0  0  0  0  0  0  0  0  0  0  0
   25.1194  -34.0136  -14.8411 O   0  0  0  0  0  0  0  0  0  0  0  0
   23.6447  -28.1711  -17.4462 O   0  0  0  0  0  0  0  0  0  0  0  0
   23.7610  -32.5425  -13.7078 N   0  0  0  0  0  0  0  0  0  0  0  0
   23.4260  -33.5395  -12.6710 C   0  0  1  0  0  0  0  0  0  0  0  0
   23.6294  -32.8290  -11.3425 C   0  0  0  0  0  0  0  0  0  0  0  0
   24.8885  -33.1324  -10.6712 C   0  0  0  0  0  0  0  0  0  0  0  0
   25.9164  -33.8779  -11.2094 C   0  0  0  0  0  0  0  0  0  0  0  0
   26.9026  -33.9394  -10.2647 N   0  0  0  0  0  0  0  0  0  0  0  0
   26.5014  -33.2567   -9.1791 C   0  0  0  0  0  0  0  0  0  0  0  0
   27.1447  -33.0317   -7.9699 C   0  0  0  0  0  0  0  0  0  0  0  0
   26.5414  -32.2897   -6.9729 C   0  0  0  0  0  0  0  0  0  0  0  0
   25.2829  -31.7653   -7.1818 C   0  0  0  0  0  0  0  0  0  0  0  0
   24.6617  -31.9999   -8.3886 C   0  0  0  0  0  0  0  0  0  0  0  0
   25.2378  -32.7350   -9.3997 C   0  0  0  0  0  0  0  0  0  0  0  0
   22.0767  -34.0644  -12.8747 C   0  0  0  0  0  0  0  0  0  0  0  0
   21.1795  -33.2767  -13.3367 O   0  0  0  0  0  0  0  0  0  0  0  0
   19.0848  -37.9182  -13.0530 O   0  0  0  0  0  0  0  0  0  0  0  0
   20.2677  -37.3421  -12.6316 C   0  0  0  0  0  0  0  0  0  0  0  0
   20.2806  -35.8273  -12.8840 C   0  0  2  0  0  0  0  0  0  0  0  0
   21.6326  -35.3845  -12.6147 N   0  0  0  0  0  0  0  0  0  0  0  0
   19.2570  -35.2447  -12.0238 C   0  0  0  0  0  0  0  0  0  0  0  0
   19.6314  -34.8992  -10.8536 O   0  0  0  0  0  0  0  0  0  0  0  0
   17.9406  -35.0262  -12.3276 O   0  0  0  0  0  0  0  0  0  0  0  0
  2  1  1  6
  2  3  1  0
  4  3  1  0
  5  4  1  0
  6  5  2  0
  7  2  1  0
  7  8  2  0
  9  5  1  0
 10  7  1  0
 11 10  1  0
 12 13  1  0
 11 12  1  1
 13 21  1  0
 14 13  2  0
 14 15  1  0
 15 16  1  0
 16 17  1  0
 17 18  2  0
 19 18  1  0
 20 19  2  0
 21 16  2  0
 21 20  1  0
 22 27  1  0
 22 11  1  0
 23 22  2  0
 24 25  1  0
 26 25  1  1
 26 27  1  0
 26 28  1  0
 28 30  1  0
 29 28  2  0
M  END
$$$$
