HPP.pdb
     RDKit          3D

 25 27  0  0  1  0  0  0  0  0999 V2000
   25.1569  -22.6126  -12.8316 N   0  0  0  0  0  0  0  0  0  0  0  0
   25.1058  -21.5999  -11.8431 C   0  0  1  0  0  0  0  0  0  0  0  0
   23.6342  -21.4176  -11.4364 C   0  0  0  0  0  0  0  0  0  0  0  0
   23.0108  -20.3285  -12.2453 C   0  0  0  0  0  0  0  0  0  0  0  0
   23.1494  -20.0522  -13.5840 C   0  0  0  0  0  0  0  0  0  0  0  0
   22.4153  -18.9856  -13.8973 N   0  0  0  0  0  0  0  0  0  0  0  0
   21.8066  -18.5720  -12.7786 C   0  0  0  0  0  0  0  0  0  0  0  0
   22.1615  -19.3818  -11.7651 N   0  0  0  0  0  0  0  0  0  0  0  0
   25.9774  -21.7325  -10.6894 C   0  0  0  0  0  0  0  0  0  0  0  0
   25.6758  -22.6694   -9.8691 O   0  0  0  0  0  0  0  0  0  0  0  0
   27.1164  -20.9595  -10.3532 N   0  0  0  0  0  0  0  0  0  0  0  0
   27.6709  -19.9063  -11.1547 C   0  0  0  0  0  0  0  0  0  0  0  0
   29.1030  -19.8101  -10.7401 C   0  0  0  0  0  0  0  0  0  0  0  0
   29.3261  -21.0111   -9.8004 C   0  0  0  0  0  0  0  0  0  0  0  0
   27.9451  -21.0475   -9.1665 C   0  0  1  0  0  0  0  0  0  0  0  0
   27.6999  -19.9999   -8.1967 C   0  0  0  0  0  0  0  0  0  0  0  0
   26.9865  -19.0143   -8.5068 O   0  0  0  0  0  0  0  0  0  0  0  0
   28.2400  -20.0526   -6.9034 N   0  0  0  0  0  0  0  0  0  0  0  0
   29.5519  -20.6168   -6.5796 C   0  0  0  0  0  0  0  0  0  0  0  0
   29.4191  -21.1590   -5.1966 C   0  0  0  0  0  0  0  0  0  0  0  0
   28.0501  -20.7700   -4.7438 C   0  0  0  0  0  0  0  0  0  0  0  0
   27.6818  -19.6071   -5.6354 C   0  0  1  0  0  0  0  0  0  0  0  0
   28.3957  -18.4099   -5.1088 C   0  0  0  0  0  0  0  0  0  0  0  0
   29.4261  -18.0335   -5.7154 O   0  0  0  0  0  0  0  0  0  0  0  0
   27.9708  -17.7139   -3.9981 O   0  0  0  0  0  0  0  0  0  0  0  0
  2  1  1  6
  3  2  1  0
  4  3  1  0
  5  4  2  0
  6  5  1  0
  7  6  1  0
  7  8  2  0
  8  4  1  0
  9  2  1  0
  9 11  1  0
 10  9  2  0
 11 15  1  0
 12 11  1  0
 12 13  1  0
 13 14  1  0
 15 14  1  0
 15 16  1  1
 16 17  2  0
 18 22  1  0
 18 16  1  0
 19 18  1  0
 20 19  1  0
 20 21  1  0
 21 22  1  0
 23 25  1  0
 22 23  1  1
 24 23  2  0
M  END
$$$$
