HPP.pdb
     RDKit          3D

 25 27  0  0  1  0  0  0  0  0999 V2000
   24.3140  -18.9788  -19.1147 N   0  0  0  0  0  0  0  0  0  0  0  0
   24.2521  -18.4587  -17.7990 C   0  0  1  0  0  0  0  0  0  0  0  0
   22.7811  -18.1304  -17.4949 C   0  0  0  0  0  0  0  0  0  0  0  0
   22.4543  -16.7542  -17.9730 C   0  0  0  0  0  0  0  0  0  0  0  0
   22.4968  -15.5636  -17.2887 C   0  0  0  0  0  0  0  0  0  0  0  0
   22.1229  -14.5720  -18.0958 N   0  0  0  0  0  0  0  0  0  0  0  0
   21.8404  -15.1084  -19.2898 C   0  0  0  0  0  0  0  0  0  0  0  0
   22.0382  -16.4373  -19.2278 N   0  0  0  0  0  0  0  0  0  0  0  0
   24.8695  -19.2292  -16.7344 C   0  0  0  0  0  0  0  0  0  0  0  0
   24.4881  -20.4485  -16.6369 O   0  0  0  0  0  0  0  0  0  0  0  0
   25.8374  -18.8069  -15.7895 N   0  0  0  0  0  0  0  0  0  0  0  0
   26.4598  -17.5142  -15.7598 C   0  0  0  0  0  0  0  0  0  0  0  0
   27.7540  -17.7181  -15.0418 C   0  0  0  0  0  0  0  0  0  0  0  0
   27.8705  -19.2439  -14.8586 C   0  0  0  0  0  0  0  0  0  0  0  0
   26.3933  -19.5521  -14.6766 C   0  0  1  0  0  0  0  0  0  0  0  0
   25.8540  -19.1752  -13.3862 C   0  0  0  0  0  0  0  0  0  0  0  0
   25.6255  -17.9670  -13.1319 O   0  0  0  0  0  0  0  0  0  0  0  0
   25.5734  -20.1301  -12.3980 N   0  0  0  0  0  0  0  0  0  0  0  0
   26.0779  -20.0689  -11.0248 C   0  0  0  0  0  0  0  0  0  0  0  0
   26.2179  -21.4890  -10.5909 C   0  0  0  0  0  0  0  0  0  0  0  0
   25.6685  -22.3066  -11.7134 C   0  0  0  0  0  0  0  0  0  0  0  0
   24.7788  -21.3472  -12.4692 C   0  0  1  0  0  0  0  0  0  0  0  0
   23.5117  -21.2246  -11.6949 C   0  0  0  0  0  0  0  0  0  0  0  0
   23.3773  -20.2225  -10.9540 O   0  0  0  0  0  0  0  0  0  0  0  0
   22.4998  -22.1574  -11.7632 O   0  0  0  0  0  0  0  0  0  0  0  0
  2  1  1  6
  3  2  1  0
  4  3  1  0
  5  4  2  0
  6  5  1  0
  7  6  1  0
  7  8  2  0
  8  4  1  0
  9  2  1  0
  9 11  1  0
 10  9  2  0
 11 15  1  0
 12 11  1  0
 12 13  1  0
 13 14  1  0
 15 14  1  0
 15 16  1  1
 16 17  2  0
 18 22  1  0
 18 16  1  0
 19 18  1  0
 20 19  1  0
 20 21  1  0
 21 22  1  0
 23 25  1  0
 22 23  1  1
 24 23  2  0
M  END
$$$$
