HPP.pdb
     RDKit          3D

 25 27  0  0  1  0  0  0  0  0999 V2000
   23.0647  -19.7288  -16.1405 N   0  0  0  0  0  0  0  0  0  0  0  0
   24.1408  -19.2575  -15.3497 C   0  0  1  0  0  0  0  0  0  0  0  0
   23.9817  -17.7352  -15.2035 C   0  0  0  0  0  0  0  0  0  0  0  0
   25.3083  -17.0656  -15.3488 C   0  0  0  0  0  0  0  0  0  0  0  0
   26.2695  -16.8257  -14.3968 C   0  0  0  0  0  0  0  0  0  0  0  0
   27.3036  -16.1989  -14.9556 N   0  0  0  0  0  0  0  0  0  0  0  0
   27.0208  -16.0322  -16.2538 C   0  0  0  0  0  0  0  0  0  0  0  0
   25.8078  -16.5558  -16.5058 N   0  0  0  0  0  0  0  0  0  0  0  0
   24.3794  -19.9054  -14.0723 C   0  0  0  0  0  0  0  0  0  0  0  0
   23.3327  -20.2179  -13.4029 O   0  0  0  0  0  0  0  0  0  0  0  0
   25.6193  -20.2350  -13.4706 N   0  0  0  0  0  0  0  0  0  0  0  0
   26.9124  -19.9332  -14.0147 C   0  0  0  0  0  0  0  0  0  0  0  0
   27.8382  -20.9348  -13.4050 C   0  0  0  0  0  0  0  0  0  0  0  0
   26.9208  -21.9137  -12.6467 C   0  0  0  0  0  0  0  0  0  0  0  0
   25.8559  -20.9192  -12.2142 C   0  0  1  0  0  0  0  0  0  0  0  0
   26.2540  -20.0435  -11.1314 C   0  0  0  0  0  0  0  0  0  0  0  0
   26.7540  -18.9203  -11.3863 O   0  0  0  0  0  0  0  0  0  0  0  0
   26.0953  -20.4143   -9.7881 N   0  0  0  0  0  0  0  0  0  0  0  0
   25.7396  -21.7625   -9.3409 C   0  0  0  0  0  0  0  0  0  0  0  0
   24.9671  -21.5703   -8.0797 C   0  0  0  0  0  0  0  0  0  0  0  0
   25.0175  -20.1044   -7.7988 C   0  0  0  0  0  0  0  0  0  0  0  0
   26.2199  -19.6198   -8.5751 C   0  0  1  0  0  0  0  0  0  0  0  0
   27.4282  -19.9982   -7.7898 C   0  0  0  0  0  0  0  0  0  0  0  0
   27.7232  -19.2899   -6.7985 O   0  0  0  0  0  0  0  0  0  0  0  0
   28.2192  -21.0805   -8.1088 O   0  0  0  0  0  0  0  0  0  0  0  0
  2  1  1  1
  3  2  1  0
  4  3  1  0
  5  4  2  0
  6  5  1  0
  7  6  1  0
  7  8  2  0
  8  4  1  0
  9  2  1  0
  9 11  1  0
 10  9  2  0
 11 15  1  0
 12 11  1  0
 12 13  1  0
 13 14  1  0
 15 14  1  0
 15 16  1  1
 16 17  2  0
 18 22  1  0
 18 16  1  0
 19 18  1  0
 20 19  1  0
 20 21  1  0
 21 22  1  0
 23 25  1  0
 22 23  1  1
 24 23  2  0
M  END
$$$$
