HPP.pdb
     RDKit          3D

 25 27  0  0  1  0  0  0  0  0999 V2000
   25.8482  -23.1219  -17.7028 N   0  0  0  0  0  0  0  0  0  0  0  0
   25.6971  -21.9445  -16.9307 C   0  0  1  0  0  0  0  0  0  0  0  0
   24.2237  -21.5137  -17.0186 C   0  0  0  0  0  0  0  0  0  0  0  0
   23.9070  -21.0525  -18.4029 C   0  0  0  0  0  0  0  0  0  0  0  0
   23.1412  -21.6610  -19.3677 C   0  0  0  0  0  0  0  0  0  0  0  0
   23.1214  -20.9045  -20.4640 N   0  0  0  0  0  0  0  0  0  0  0  0
   23.8641  -19.8178  -20.2177 C   0  0  0  0  0  0  0  0  0  0  0  0
   24.3485  -19.8963  -18.9654 N   0  0  0  0  0  0  0  0  0  0  0  0
   26.1778  -21.9644  -15.5607 C   0  0  0  0  0  0  0  0  0  0  0  0
   26.1075  -23.0953  -14.9628 O   0  0  0  0  0  0  0  0  0  0  0  0
   26.7129  -20.8953  -14.8000 N   0  0  0  0  0  0  0  0  0  0  0  0
   26.9848  -19.5771  -15.2975 C   0  0  0  0  0  0  0  0  0  0  0  0
   28.0327  -19.0228  -14.3883 C   0  0  0  0  0  0  0  0  0  0  0  0
   28.4419  -20.2041  -13.4871 C   0  0  0  0  0  0  0  0  0  0  0  0
   27.0868  -20.8868  -13.3989 C   0  0  1  0  0  0  0  0  0  0  0  0
   26.1318  -20.2207  -12.5375 C   0  0  0  0  0  0  0  0  0  0  0  0
   25.2881  -19.4319  -13.0302 O   0  0  0  0  0  0  0  0  0  0  0  0
   26.1178  -20.4324  -11.1511 N   0  0  0  0  0  0  0  0  0  0  0  0
   27.3162  -20.6431  -10.3367 C   0  0  0  0  0  0  0  0  0  0  0  0
   26.8833  -21.5285   -9.2172 C   0  0  0  0  0  0  0  0  0  0  0  0
   25.4080  -21.6907   -9.3826 C   0  0  0  0  0  0  0  0  0  0  0  0
   24.9974  -20.5055  -10.2252 C   0  0  1  0  0  0  0  0  0  0  0  0
   24.9512  -19.3220   -9.3210 C   0  0  0  0  0  0  0  0  0  0  0  0
   23.9163  -19.1550   -8.6337 O   0  0  0  0  0  0  0  0  0  0  0  0
   25.9878  -18.4203   -9.2153 O   0  0  0  0  0  0  0  0  0  0  0  0
  2  1  1  1
  3  2  1  0
  4  3  1  0
  5  4  2  0
  6  5  1  0
  7  6  1  0
  7  8  2  0
  8  4  1  0
  9  2  1  0
  9 11  1  0
 10  9  2  0
 11 15  1  0
 12 11  1  0
 12 13  1  0
 13 14  1  0
 15 14  1  0
 15 16  1  1
 16 17  2  0
 18 22  1  0
 18 16  1  0
 19 18  1  0
 20 19  1  0
 20 21  1  0
 21 22  1  0
 23 25  1  0
 22 23  1  1
 24 23  2  0
M  END
$$$$
