HPP.pdb
     RDKit          3D

 25 27  0  0  1  0  0  0  0  0999 V2000
   25.2866  -22.1852  -12.0856 N   0  0  0  0  0  0  0  0  0  0  0  0
   26.1258  -21.2190  -11.4792 C   0  0  1  0  0  0  0  0  0  0  0  0
   25.3820  -19.8735  -11.5020 C   0  0  0  0  0  0  0  0  0  0  0  0
   25.0963  -19.4704  -12.9110 C   0  0  0  0  0  0  0  0  0  0  0  0
   25.9512  -18.9654  -13.8606 C   0  0  0  0  0  0  0  0  0  0  0  0
   25.2805  -18.7395  -14.9892 N   0  0  0  0  0  0  0  0  0  0  0  0
   24.0059  -19.0920  -14.7785 C   0  0  0  0  0  0  0  0  0  0  0  0
   23.8809  -19.5387  -13.5160 N   0  0  0  0  0  0  0  0  0  0  0  0
   26.6685  -21.5191  -10.1663 C   0  0  0  0  0  0  0  0  0  0  0  0
   25.8590  -22.0750   -9.3434 O   0  0  0  0  0  0  0  0  0  0  0  0
   27.9762  -21.2756   -9.6777 N   0  0  0  0  0  0  0  0  0  0  0  0
   29.0637  -20.7417  -10.4468 C   0  0  0  0  0  0  0  0  0  0  0  0
   30.3016  -21.2071   -9.7518 C   0  0  0  0  0  0  0  0  0  0  0  0
   29.8054  -22.1858   -8.6696 C   0  0  0  0  0  0  0  0  0  0  0  0
   28.4923  -21.4947   -8.3404 C   0  0  1  0  0  0  0  0  0  0  0  0
   28.6286  -20.2853   -7.5551 C   0  0  0  0  0  0  0  0  0  0  0  0
   28.6024  -19.1650   -8.1214 O   0  0  0  0  0  0  0  0  0  0  0  0
   28.7897  -20.3259   -6.1625 N   0  0  0  0  0  0  0  0  0  0  0  0
   29.2352  -21.5051   -5.4175 C   0  0  0  0  0  0  0  0  0  0  0  0
   28.5734  -21.4046   -4.0847 C   0  0  0  0  0  0  0  0  0  0  0  0
   27.8612  -20.0920   -4.0893 C   0  0  0  0  0  0  0  0  0  0  0  0
   28.5641  -19.2932   -5.1621 C   0  0  1  0  0  0  0  0  0  0  0  0
   29.8437  -18.8050   -4.5753 C   0  0  0  0  0  0  0  0  0  0  0  0
   30.8829  -19.4631   -4.8167 O   0  0  0  0  0  0  0  0  0  0  0  0
   29.9239  -17.6753   -3.7904 O   0  0  0  0  0  0  0  0  0  0  0  0
  2  1  1  1
  3  2  1  0
  4  3  1  0
  5  4  2  0
  6  5  1  0
  7  6  1  0
  7  8  2  0
  8  4  1  0
  9  2  1  0
  9 11  1  0
 10  9  2  0
 11 15  1  0
 12 11  1  0
 12 13  1  0
 13 14  1  0
 15 14  1  0
 15 16  1  6
 16 17  2  0
 18 22  1  0
 18 16  1  0
 19 18  1  0
 20 19  1  0
 20 21  1  0
 21 22  1  0
 23 25  1  0
 22 23  1  1
 24 23  2  0
M  END
$$$$
