HPP.pdb
     RDKit          3D

 25 27  0  0  1  0  0  0  0  0999 V2000
   14.5356  -21.7233    0.2361 N   0  0  0  0  0  0  0  0  0  0  0  0
   14.6308  -20.7191    1.2300 C   0  0  1  0  0  0  0  0  0  0  0  0
   13.4634  -20.9196    2.2103 C   0  0  0  0  0  0  0  0  0  0  0  0
   12.1620  -20.7576    1.4966 C   0  0  0  0  0  0  0  0  0  0  0  0
   11.4027  -19.6263    1.3202 C   0  0  0  0  0  0  0  0  0  0  0  0
   10.3095  -19.9277    0.6210 N   0  0  0  0  0  0  0  0  0  0  0  0
   10.3553  -21.2374    0.3455 C   0  0  0  0  0  0  0  0  0  0  0  0
   11.4789  -21.7544    0.8737 N   0  0  0  0  0  0  0  0  0  0  0  0
   15.8996  -20.5633    1.9185 C   0  0  0  0  0  0  0  0  0  0  0  0
   16.7163  -21.5443    1.8089 O   0  0  0  0  0  0  0  0  0  0  0  0
   16.3503  -19.4679    2.6964 N   0  0  0  0  0  0  0  0  0  0  0  0
   15.6073  -18.2660    2.9466 C   0  0  0  0  0  0  0  0  0  0  0  0
   16.6346  -17.2280    3.2615 C   0  0  0  0  0  0  0  0  0  0  0  0
   17.9875  -17.9081    2.9748 C   0  0  0  0  0  0  0  0  0  0  0  0
   17.6120  -19.3196    3.3955 C   0  0  1  0  0  0  0  0  0  0  0  0
   17.5197  -19.5167    4.8275 C   0  0  0  0  0  0  0  0  0  0  0  0
   16.4005  -19.4708    5.3949 O   0  0  0  0  0  0  0  0  0  0  0  0
   18.6563  -19.7620    5.6118 N   0  0  0  0  0  0  0  0  0  0  0  0
   20.0336  -19.5973    5.1428 C   0  0  0  0  0  0  0  0  0  0  0  0
   20.8316  -20.6075    5.8958 C   0  0  0  0  0  0  0  0  0  0  0  0
   19.8780  -21.2335    6.8596 C   0  0  0  0  0  0  0  0  0  0  0  0
   18.7640  -20.2208    6.9887 C   0  0  1  0  0  0  0  0  0  0  0  0
   19.2562  -19.1430    7.8922 C   0  0  0  0  0  0  0  0  0  0  0  0
   19.3253  -19.3976    9.1177 O   0  0  0  0  0  0  0  0  0  0  0  0
   19.6317  -17.8981    7.4364 O   0  0  0  0  0  0  0  0  0  0  0  0
  2  1  1  6
  3  2  1  0
  4  3  1  0
  5  4  2  0
  6  5  1  0
  7  6  1  0
  7  8  2  0
  8  4  1  0
  9  2  1  0
  9 11  1  0
 10  9  2  0
 11 15  1  0
 12 11  1  0
 12 13  1  0
 13 14  1  0
 15 14  1  0
 15 16  1  1
 16 17  2  0
 18 22  1  0
 18 16  1  0
 19 18  1  0
 20 19  1  0
 20 21  1  0
 21 22  1  0
 23 25  1  0
 22 23  1  1
 24 23  2  0
M  END
$$$$
