HPP.pdb
     RDKit          3D

 25 27  0  0  1  0  0  0  0  0999 V2000
   20.0604  -13.3145  -17.3699 N   0  0  0  0  0  0  0  0  0  0  0  0
   21.1087  -12.3673  -17.4670 C   0  0  1  0  0  0  0  0  0  0  0  0
   21.1671  -11.8828  -18.9251 C   0  0  0  0  0  0  0  0  0  0  0  0
   21.4736  -13.0277  -19.8331 C   0  0  0  0  0  0  0  0  0  0  0  0
   22.6744  -13.6524  -20.0690 C   0  0  0  0  0  0  0  0  0  0  0  0
   22.5011  -14.6309  -20.9561 N   0  0  0  0  0  0  0  0  0  0  0  0
   21.2054  -14.6440  -21.2944 C   0  0  0  0  0  0  0  0  0  0  0  0
   20.5689  -13.6719  -20.6171 N   0  0  0  0  0  0  0  0  0  0  0  0
   21.1150  -11.2623  -16.5252 C   0  0  0  0  0  0  0  0  0  0  0  0
   19.9634  -10.8471  -16.1470 O   0  0  0  0  0  0  0  0  0  0  0  0
   22.2291  -10.5836  -15.9720 N   0  0  0  0  0  0  0  0  0  0  0  0
   23.6051  -10.8979  -16.2310 C   0  0  0  0  0  0  0  0  0  0  0  0
   24.3561  -10.3750  -15.0501 C   0  0  0  0  0  0  0  0  0  0  0  0
   23.2686   -9.9313  -14.0524 C   0  0  0  0  0  0  0  0  0  0  0  0
   22.2337   -9.4567  -15.0593 C   0  0  1  0  0  0  0  0  0  0  0  0
   22.5428   -8.1892  -15.6886 C   0  0  0  0  0  0  0  0  0  0  0  0
   23.2134   -8.1642  -16.7498 O   0  0  0  0  0  0  0  0  0  0  0  0
   22.1097   -6.9716  -15.1437 N   0  0  0  0  0  0  0  0  0  0  0  0
   21.5419   -6.8236  -13.8021 C   0  0  0  0  0  0  0  0  0  0  0  0
   20.5813   -5.6871  -13.9020 C   0  0  0  0  0  0  0  0  0  0  0  0
   20.7329   -5.1555  -15.2894 C   0  0  0  0  0  0  0  0  0  0  0  0
   22.0981   -5.6366  -15.7230 C   0  0  1  0  0  0  0  0  0  0  0  0
   23.1012   -4.7455  -15.0751 C   0  0  0  0  0  0  0  0  0  0  0  0
   23.4169   -4.9918  -13.8872 O   0  0  0  0  0  0  0  0  0  0  0  0
   23.6842   -3.6789  -15.7240 O   0  0  0  0  0  0  0  0  0  0  0  0
  2  1  1  6
  3  2  1  0
  4  3  1  0
  5  4  2  0
  6  5  1  0
  7  6  1  0
  7  8  2  0
  8  4  1  0
  9  2  1  0
  9 11  1  0
 10  9  2  0
 11 15  1  0
 12 11  1  0
 12 13  1  0
 13 14  1  0
 15 14  1  0
 15 16  1  6
 16 17  2  0
 18 22  1  0
 18 16  1  0
 19 18  1  0
 20 19  1  0
 20 21  1  0
 21 22  1  0
 23 25  1  0
 22 23  1  1
 24 23  2  0
M  END
$$$$
