HPP.pdb
     RDKit          3D

 25 27  0  0  1  0  0  0  0  0999 V2000
   23.2179  -22.4098  -14.6741 N   0  0  0  0  0  0  0  0  0  0  0  0
   23.8279  -21.2961  -14.0474 C   0  0  1  0  0  0  0  0  0  0  0  0
   22.7161  -20.2995  -13.6800 C   0  0  0  0  0  0  0  0  0  0  0  0
   22.6894  -19.1768  -14.6640 C   0  0  0  0  0  0  0  0  0  0  0  0
   22.0744  -19.1110  -15.8908 C   0  0  0  0  0  0  0  0  0  0  0  0
   22.3059  -17.9207  -16.4422 N   0  0  0  0  0  0  0  0  0  0  0  0
   23.0616  -17.2200  -15.5870 C   0  0  0  0  0  0  0  0  0  0  0  0
   23.3022  -17.9745  -14.4999 N   0  0  0  0  0  0  0  0  0  0  0  0
   24.7220  -21.5501  -12.9318 C   0  0  0  0  0  0  0  0  0  0  0  0
   24.4149  -22.5475  -12.1887 O   0  0  0  0  0  0  0  0  0  0  0  0
   25.8884  -20.8372  -12.5586 N   0  0  0  0  0  0  0  0  0  0  0  0
   26.4505  -19.7302  -13.2781 C   0  0  0  0  0  0  0  0  0  0  0  0
   27.8942  -19.7052  -12.8944 C   0  0  0  0  0  0  0  0  0  0  0  0
   28.1087  -20.9900  -12.0710 C   0  0  0  0  0  0  0  0  0  0  0  0
   26.7429  -21.0502  -11.4066 C   0  0  1  0  0  0  0  0  0  0  0  0
   26.5483  -20.0878  -10.3418 C   0  0  0  0  0  0  0  0  0  0  0  0
   25.9693  -18.9993  -10.5798 O   0  0  0  0  0  0  0  0  0  0  0  0
   26.9907  -20.3366   -9.0343 N   0  0  0  0  0  0  0  0  0  0  0  0
   28.1860  -21.1143   -8.7018 C   0  0  0  0  0  0  0  0  0  0  0  0
   27.8887  -21.7548   -7.3881 C   0  0  0  0  0  0  0  0  0  0  0  0
   26.5620  -21.2120   -6.9692 C   0  0  0  0  0  0  0  0  0  0  0  0
   26.4201  -19.9312   -7.7584 C   0  0  1  0  0  0  0  0  0  0  0  0
   27.2604  -18.9048   -7.0798 C   0  0  0  0  0  0  0  0  0  0  0  0
   28.3800  -18.6457   -7.5805 O   0  0  0  0  0  0  0  0  0  0  0  0
   26.8573  -18.2416   -5.9411 O   0  0  0  0  0  0  0  0  0  0  0  0
  2  1  1  1
  3  2  1  0
  4  3  1  0
  5  4  2  0
  6  5  1  0
  7  6  1  0
  7  8  2  0
  8  4  1  0
  9  2  1  0
  9 11  1  0
 10  9  2  0
 11 15  1  0
 12 11  1  0
 12 13  1  0
 13 14  1  0
 15 14  1  0
 15 16  1  1
 16 17  2  0
 18 22  1  0
 18 16  1  0
 19 18  1  0
 20 19  1  0
 20 21  1  0
 21 22  1  0
 23 25  1  0
 22 23  1  1
 24 23  2  0
M  END
$$$$
