HPP.pdb
     RDKit          3D

 25 27  0  0  1  0  0  0  0  0999 V2000
   25.1042  -22.0455  -12.0113 N   0  0  0  0  0  0  0  0  0  0  0  0
   25.8922  -21.0531  -11.3793 C   0  0  1  0  0  0  0  0  0  0  0  0
   25.0412  -19.7767  -11.2752 C   0  0  0  0  0  0  0  0  0  0  0  0
   24.6521  -19.3083  -12.6384 C   0  0  0  0  0  0  0  0  0  0  0  0
   23.4355  -19.3911  -13.2713 C   0  0  0  0  0  0  0  0  0  0  0  0
   23.5264  -18.8490  -14.4847 N   0  0  0  0  0  0  0  0  0  0  0  0
   24.7849  -18.4187  -14.6411 C   0  0  0  0  0  0  0  0  0  0  0  0
   25.4807  -18.6929  -13.5232 N   0  0  0  0  0  0  0  0  0  0  0  0
   26.5248  -21.3904  -10.1166 C   0  0  0  0  0  0  0  0  0  0  0  0
   25.8145  -22.0832   -9.3061 O   0  0  0  0  0  0  0  0  0  0  0  0
   27.8245  -21.0515   -9.6650 N   0  0  0  0  0  0  0  0  0  0  0  0
   28.8293  -20.3908  -10.4479 C   0  0  0  0  0  0  0  0  0  0  0  0
   30.1300  -20.7723   -9.8196 C   0  0  0  0  0  0  0  0  0  0  0  0
   29.7653  -21.8358   -8.7656 C   0  0  0  0  0  0  0  0  0  0  0  0
   28.4108  -21.2793   -8.3584 C   0  0  1  0  0  0  0  0  0  0  0  0
   28.4716  -20.0964   -7.5247 C   0  0  0  0  0  0  0  0  0  0  0  0
   28.2658  -18.9646   -8.0280 O   0  0  0  0  0  0  0  0  0  0  0  0
   28.7555  -20.1757   -6.1535 N   0  0  0  0  0  0  0  0  0  0  0  0
   29.4662  -21.2889   -5.5212 C   0  0  0  0  0  0  0  0  0  0  0  0
   28.9132  -21.3774   -4.1389 C   0  0  0  0  0  0  0  0  0  0  0  0
   27.9805  -20.2186   -4.0059 C   0  0  0  0  0  0  0  0  0  0  0  0
   28.4355  -19.2526   -5.0749 C   0  0  1  0  0  0  0  0  0  0  0  0
   29.6528  -18.5681   -4.5555 C   0  0  0  0  0  0  0  0  0  0  0  0
   30.7650  -18.9498   -4.9900 O   0  0  0  0  0  0  0  0  0  0  0  0
   29.6004  -17.5481   -3.6306 O   0  0  0  0  0  0  0  0  0  0  0  0
  2  1  1  1
  3  2  1  0
  4  3  1  0
  5  4  2  0
  6  5  1  0
  7  6  1  0
  7  8  2  0
  8  4  1  0
  9  2  1  0
  9 11  1  0
 10  9  2  0
 11 15  1  0
 12 11  1  0
 12 13  1  0
 13 14  1  0
 15 14  1  0
 15 16  1  6
 16 17  2  0
 18 22  1  0
 18 16  1  0
 19 18  1  0
 20 19  1  0
 20 21  1  0
 21 22  1  0
 23 25  1  0
 22 23  1  1
 24 23  2  0
M  END
$$$$
