HPP.pdb
     RDKit          3D

 25 27  0  0  1  0  0  0  0  0999 V2000
   43.8540  -10.1753   -8.2852 N   0  0  0  0  0  0  0  0  0  0  0  0
   42.7847   -9.7668   -7.4514 C   0  0  1  0  0  0  0  0  0  0  0  0
   43.3379   -8.7368   -6.4527 C   0  0  0  0  0  0  0  0  0  0  0  0
   44.3558   -9.3773   -5.5680 C   0  0  0  0  0  0  0  0  0  0  0  0
   44.1835  -10.0063   -4.3587 C   0  0  0  0  0  0  0  0  0  0  0  0
   45.3613  -10.4351   -3.9075 N   0  0  0  0  0  0  0  0  0  0  0  0
   46.2888  -10.0904   -4.8098 C   0  0  0  0  0  0  0  0  0  0  0  0
   45.6888   -9.4451   -5.8260 N   0  0  0  0  0  0  0  0  0  0  0  0
   41.5642   -9.3062   -8.0890 C   0  0  0  0  0  0  0  0  0  0  0  0
   41.6940   -8.8626   -9.2840 O   0  0  0  0  0  0  0  0  0  0  0  0
   40.2497   -9.2827   -7.5603 N   0  0  0  0  0  0  0  0  0  0  0  0
   39.8733   -9.7337   -6.2511 C   0  0  0  0  0  0  0  0  0  0  0  0
   38.4220  -10.0725   -6.3549 C   0  0  0  0  0  0  0  0  0  0  0  0
   38.0931   -9.9552   -7.8559 C   0  0  0  0  0  0  0  0  0  0  0  0
   39.0337   -8.8099   -8.1933 C   0  0  1  0  0  0  0  0  0  0  0  0
   38.5927   -7.5112   -7.7277 C   0  0  0  0  0  0  0  0  0  0  0  0
   38.8821   -7.1312   -6.5665 O   0  0  0  0  0  0  0  0  0  0  0  0
   37.8434   -6.6516   -8.5442 N   0  0  0  0  0  0  0  0  0  0  0  0
   37.1545   -7.0680   -9.7673 C   0  0  0  0  0  0  0  0  0  0  0  0
   37.1675   -5.8704  -10.6562 C   0  0  0  0  0  0  0  0  0  0  0  0
   37.7705   -4.7736   -9.8414 C   0  0  0  0  0  0  0  0  0  0  0  0
   37.5800   -5.2264   -8.4125 C   0  0  1  0  0  0  0  0  0  0  0  0
   36.1583   -4.9591   -8.0555 C   0  0  0  0  0  0  0  0  0  0  0  0
   35.8390   -3.7779   -7.7833 O   0  0  0  0  0  0  0  0  0  0  0  0
   35.1986   -5.9471   -8.0148 O   0  0  0  0  0  0  0  0  0  0  0  0
  2  1  1  6
  3  2  1  0
  4  3  1  0
  5  4  2  0
  6  5  1  0
  7  6  1  0
  7  8  2  0
  8  4  1  0
  9  2  1  0
  9 11  1  0
 10  9  2  0
 11 15  1  0
 12 11  1  0
 12 13  1  0
 13 14  1  0
 15 14  1  0
 15 16  1  1
 16 17  2  0
 18 22  1  0
 18 16  1  0
 19 18  1  0
 20 19  1  0
 20 21  1  0
 21 22  1  0
 23 25  1  0
 22 23  1  6
 24 23  2  0
M  END
$$$$
