HPP.pdb
     RDKit          3D

 25 27  0  0  1  0  0  0  0  0999 V2000
   16.4946  -20.8486    3.7397 N   0  0  0  0  0  0  0  0  0  0  0  0
   17.4624  -20.0816    4.4328 C   0  0  1  0  0  0  0  0  0  0  0  0
   16.8289  -18.7208    4.7664 C   0  0  0  0  0  0  0  0  0  0  0  0
   16.3946  -18.0371    3.5122 C   0  0  0  0  0  0  0  0  0  0  0  0
   17.1436  -17.3262    2.6059 C   0  0  0  0  0  0  0  0  0  0  0  0
   16.3562  -16.8826    1.6273 N   0  0  0  0  0  0  0  0  0  0  0  0
   15.1109  -17.2981    1.8917 C   0  0  0  0  0  0  0  0  0  0  0  0
   15.1211  -18.0023    3.0376 N   0  0  0  0  0  0  0  0  0  0  0  0
   18.1038  -20.6818    5.5889 C   0  0  0  0  0  0  0  0  0  0  0  0
   17.4502  -21.6233    6.1615 O   0  0  0  0  0  0  0  0  0  0  0  0
   19.3575  -20.3602    6.1658 N   0  0  0  0  0  0  0  0  0  0  0  0
   20.2672  -19.3655    5.6735 C   0  0  0  0  0  0  0  0  0  0  0  0
   21.6107  -19.7768    6.1811 C   0  0  0  0  0  0  0  0  0  0  0  0
   21.3880  -21.1630    6.8167 C   0  0  0  0  0  0  0  0  0  0  0  0
   19.9803  -20.9347    7.3426 C   0  0  1  0  0  0  0  0  0  0  0  0
   19.9061  -20.0935    8.5194 C   0  0  0  0  0  0  0  0  0  0  0  0
   19.6589  -18.8684    8.3987 O   0  0  0  0  0  0  0  0  0  0  0  0
   20.1029  -20.6110    9.8081 N   0  0  0  0  0  0  0  0  0  0  0  0
   20.5239  -21.9848   10.0900 C   0  0  0  0  0  0  0  0  0  0  0  0
   19.9024  -22.3280   11.4016 C   0  0  0  0  0  0  0  0  0  0  0  0
   19.2399  -21.0746   11.8709 C   0  0  0  0  0  0  0  0  0  0  0  0
   19.9430  -19.9762   11.1078 C   0  0  1  0  0  0  0  0  0  0  0  0
   21.2553  -19.7509   11.7767 C   0  0  0  0  0  0  0  0  0  0  0  0
   21.2582  -19.1004   12.8482 O   0  0  0  0  0  0  0  0  0  0  0  0
   22.4453  -20.2242   11.2681 O   0  0  0  0  0  0  0  0  0  0  0  0
  2  1  1  1
  3  2  1  0
  4  3  1  0
  5  4  2  0
  6  5  1  0
  7  6  1  0
  7  8  2  0
  8  4  1  0
  9  2  1  0
  9 11  1  0
 10  9  2  0
 11 15  1  0
 12 11  1  0
 12 13  1  0
 13 14  1  0
 15 14  1  0
 15 16  1  1
 16 17  2  0
 18 22  1  0
 18 16  1  0
 19 18  1  0
 20 19  1  0
 20 21  1  0
 21 22  1  0
 23 25  1  0
 22 23  1  1
 24 23  2  0
M  END
$$$$
