HPP.pdb
     RDKit          3D

 25 27  0  0  1  0  0  0  0  0999 V2000
   25.2703  -22.2629  -12.3305 N   0  0  0  0  0  0  0  0  0  0  0  0
   25.9222  -21.2392  -11.6008 C   0  0  1  0  0  0  0  0  0  0  0  0
   24.9057  -20.1084  -11.3722 C   0  0  0  0  0  0  0  0  0  0  0  0
   24.3743  -19.6254  -12.6813 C   0  0  0  0  0  0  0  0  0  0  0  0
   25.0287  -18.9703  -13.6963 C   0  0  0  0  0  0  0  0  0  0  0  0
   24.1758  -18.7210  -14.6886 N   0  0  0  0  0  0  0  0  0  0  0  0
   22.9817  -19.2066  -14.3259 C   0  0  0  0  0  0  0  0  0  0  0  0
   23.0895  -19.7599  -13.1047 N   0  0  0  0  0  0  0  0  0  0  0  0
   26.6091  -21.6099  -10.3765 C   0  0  0  0  0  0  0  0  0  0  0  0
   25.9812  -22.4225   -9.6104 O   0  0  0  0  0  0  0  0  0  0  0  0
   27.8823  -21.1883   -9.9193 N   0  0  0  0  0  0  0  0  0  0  0  0
   28.8452  -20.4624  -10.6972 C   0  0  0  0  0  0  0  0  0  0  0  0
   30.1655  -20.7599  -10.0645 C   0  0  0  0  0  0  0  0  0  0  0  0
   29.8665  -21.8467   -9.0136 C   0  0  0  0  0  0  0  0  0  0  0  0
   28.4773  -21.3800   -8.6108 C   0  0  1  0  0  0  0  0  0  0  0  0
   28.4581  -20.1972   -7.7750 C   0  0  0  0  0  0  0  0  0  0  0  0
   28.1720  -19.0817   -8.2753 O   0  0  0  0  0  0  0  0  0  0  0  0
   28.7517  -20.2588   -6.4049 N   0  0  0  0  0  0  0  0  0  0  0  0
   29.6127  -21.2713   -5.7904 C   0  0  0  0  0  0  0  0  0  0  0  0
   29.0790  -21.4602   -4.4106 C   0  0  0  0  0  0  0  0  0  0  0  0
   27.9925  -20.4469   -4.2594 C   0  0  0  0  0  0  0  0  0  0  0  0
   28.3058  -19.4084   -5.3114 C   0  0  1  0  0  0  0  0  0  0  0  0
   29.4150  -18.5681   -4.7787 C   0  0  0  0  0  0  0  0  0  0  0  0
   30.5748  -18.8070   -5.1897 O   0  0  0  0  0  0  0  0  0  0  0  0
   29.2145  -17.5552   -3.8662 O   0  0  0  0  0  0  0  0  0  0  0  0
  2  1  1  1
  3  2  1  0
  4  3  1  0
  5  4  2  0
  6  5  1  0
  7  6  1  0
  7  8  2  0
  8  4  1  0
  9  2  1  0
  9 11  1  0
 10  9  2  0
 11 15  1  0
 12 11  1  0
 12 13  1  0
 13 14  1  0
 15 14  1  0
 15 16  1  6
 16 17  2  0
 18 22  1  0
 18 16  1  0
 19 18  1  0
 20 19  1  0
 20 21  1  0
 21 22  1  0
 23 25  1  0
 22 23  1  1
 24 23  2  0
M  END
$$$$
