HPP.pdb
     RDKit          3D

 25 27  0  0  1  0  0  0  0  0999 V2000
   25.9424  -19.6222  -13.5082 N   0  0  0  0  0  0  0  0  0  0  0  0
   26.4305  -20.4746  -12.4882 C   0  0  1  0  0  0  0  0  0  0  0  0
   27.7151  -21.1396  -13.0096 C   0  0  0  0  0  0  0  0  0  0  0  0
   27.4510  -21.8064  -14.3192 C   0  0  0  0  0  0  0  0  0  0  0  0
   26.7307  -22.9458  -14.5845 C   0  0  0  0  0  0  0  0  0  0  0  0
   26.7489  -23.1899  -15.8939 N   0  0  0  0  0  0  0  0  0  0  0  0
   27.4713  -22.2233  -16.4745 C   0  0  0  0  0  0  0  0  0  0  0  0
   27.9047  -21.3743  -15.5257 N   0  0  0  0  0  0  0  0  0  0  0  0
   26.6080  -19.9130  -11.1610 C   0  0  0  0  0  0  0  0  0  0  0  0
   27.3715  -18.8867  -11.0888 O   0  0  0  0  0  0  0  0  0  0  0  0
   26.0475  -20.3538   -9.9365 N   0  0  0  0  0  0  0  0  0  0  0  0
   25.2101  -21.5078   -9.7745 C   0  0  0  0  0  0  0  0  0  0  0  0
   24.4149  -21.2451   -8.5374 C   0  0  0  0  0  0  0  0  0  0  0  0
   24.7441  -19.7889   -8.1552 C   0  0  0  0  0  0  0  0  0  0  0  0
   26.1917  -19.7671   -8.6182 C   0  0  1  0  0  0  0  0  0  0  0  0
   27.1112  -20.4777   -7.7536 C   0  0  0  0  0  0  0  0  0  0  0  0
   27.4401  -21.6586   -8.0252 O   0  0  0  0  0  0  0  0  0  0  0  0
   27.6551  -19.8800   -6.6073 N   0  0  0  0  0  0  0  0  0  0  0  0
   27.2294  -18.5859   -6.0706 C   0  0  0  0  0  0  0  0  0  0  0  0
   28.4430  -18.0061   -5.4260 C   0  0  0  0  0  0  0  0  0  0  0  0
   29.4927  -19.0638   -5.5247 C   0  0  0  0  0  0  0  0  0  0  0  0
   28.7122  -20.3428   -5.7205 C   0  0  1  0  0  0  0  0  0  0  0  0
   28.1794  -20.7378   -4.3863 C   0  0  0  0  0  0  0  0  0  0  0  0
   26.9690  -20.5103   -4.1526 O   0  0  0  0  0  0  0  0  0  0  0  0
   28.9563  -21.3340   -3.4170 O   0  0  0  0  0  0  0  0  0  0  0  0
  2  1  1  6
  3  2  1  0
  4  3  1  0
  5  4  2  0
  6  5  1  0
  7  6  1  0
  7  8  2  0
  8  4  1  0
  9  2  1  0
  9 11  1  0
 10  9  2  0
 11 15  1  0
 12 11  1  0
 12 13  1  0
 13 14  1  0
 15 14  1  0
 15 16  1  1
 16 17  2  0
 18 22  1  0
 18 16  1  0
 19 18  1  0
 20 19  1  0
 20 21  1  0
 21 22  1  0
 23 25  1  0
 22 23  1  1
 24 23  2  0
M  END
$$$$
