HPP.pdb
     RDKit          3D

 25 27  0  0  1  0  0  0  0  0999 V2000
   25.3642  -22.1793  -12.4260 N   0  0  0  0  0  0  0  0  0  0  0  0
   26.3545  -21.3196  -11.8917 C   0  0  1  0  0  0  0  0  0  0  0  0
   25.8777  -19.8724  -12.0977 C   0  0  0  0  0  0  0  0  0  0  0  0
   24.3932  -19.7975  -11.9565 C   0  0  0  0  0  0  0  0  0  0  0  0
   23.4235  -19.8656  -12.9274 C   0  0  0  0  0  0  0  0  0  0  0  0
   22.2210  -19.7543  -12.3650 N   0  0  0  0  0  0  0  0  0  0  0  0
   22.4040  -19.6154  -11.0457 C   0  0  0  0  0  0  0  0  0  0  0  0
   23.7231  -19.6399  -10.7843 N   0  0  0  0  0  0  0  0  0  0  0  0
   26.7982  -21.5582  -10.5299 C   0  0  0  0  0  0  0  0  0  0  0  0
   25.9475  -22.1275   -9.7594 O   0  0  0  0  0  0  0  0  0  0  0  0
   28.0487  -21.2418   -9.9433 N   0  0  0  0  0  0  0  0  0  0  0  0
   29.1589  -20.6431  -10.6276 C   0  0  0  0  0  0  0  0  0  0  0  0
   30.3651  -21.0394   -9.8403 C   0  0  0  0  0  0  0  0  0  0  0  0
   29.8455  -22.0495   -8.7987 C   0  0  0  0  0  0  0  0  0  0  0  0
   28.4735  -21.4364   -8.5706 C   0  0  1  0  0  0  0  0  0  0  0  0
   28.4797  -20.2244   -7.7776 C   0  0  0  0  0  0  0  0  0  0  0  0
   28.2924  -19.1131   -8.3312 O   0  0  0  0  0  0  0  0  0  0  0  0
   28.6898  -20.2526   -6.3911 N   0  0  0  0  0  0  0  0  0  0  0  0
   29.2477  -21.3948   -5.6643 C   0  0  0  0  0  0  0  0  0  0  0  0
   28.6251  -21.3446   -4.3100 C   0  0  0  0  0  0  0  0  0  0  0  0
   27.8160  -20.0895   -4.2876 C   0  0  0  0  0  0  0  0  0  0  0  0
   28.4204  -19.2399   -5.3813 C   0  0  1  0  0  0  0  0  0  0  0  0
   29.6784  -18.6564   -4.8361 C   0  0  0  0  0  0  0  0  0  0  0  0
   30.7614  -19.1886   -5.1755 O   0  0  0  0  0  0  0  0  0  0  0  0
   29.6933  -17.5713   -3.9870 O   0  0  0  0  0  0  0  0  0  0  0  0
  2  1  1  1
  3  2  1  0
  4  3  1  0
  5  4  2  0
  6  5  1  0
  7  6  1  0
  7  8  2  0
  8  4  1  0
  9  2  1  0
  9 11  1  0
 10  9  2  0
 11 15  1  0
 12 11  1  0
 12 13  1  0
 13 14  1  0
 15 14  1  0
 15 16  1  1
 16 17  2  0
 18 22  1  0
 18 16  1  0
 19 18  1  0
 20 19  1  0
 20 21  1  0
 21 22  1  0
 23 25  1  0
 22 23  1  1
 24 23  2  0
M  END
$$$$
