GAL.pdb
     RDKit          3D

 18 17  0  0  1  0  0  0  0  0999 V2000
    8.0907  -12.2062   18.7704 N   0  0  0  0  0  0  0  0  0  0  0  0
    8.9621  -13.2185   19.2913 C   0  0  0  0  0  0  0  0  0  0  0  0
    8.3396  -13.9700   20.4104 C   0  0  0  0  0  0  0  0  0  0  0  0
    7.3331  -13.4672   20.9623 O   0  0  0  0  0  0  0  0  0  0  0  0
    8.3652  -17.3767   21.9283 C   0  0  0  0  0  0  0  0  0  0  0  0
    8.1577  -15.8801   21.9564 C   0  0  2  0  0  0  0  0  0  0  0  0
    8.8193  -15.2100   20.8798 N   0  0  0  0  0  0  0  0  0  0  0  0
    8.6967  -15.4069   23.2810 C   0  0  0  0  0  0  0  0  0  0  0  0
    9.9142  -15.1001   23.4102 O   0  0  0  0  0  0  0  0  0  0  0  0
    5.5286  -12.2314   26.3800 C   0  0  0  0  0  0  0  0  0  0  0  0
    6.7243  -12.8405   25.6954 C   0  0  1  0  0  0  0  0  0  0  0  0
    7.8790  -11.8525   25.9110 C   0  0  0  0  0  0  0  0  0  0  0  0
    7.1676  -14.1158   26.3365 C   0  0  0  0  0  0  0  0  0  0  0  0
    8.3082  -14.8126   25.7079 C   0  0  2  0  0  0  0  0  0  0  0  0
    7.8731  -15.2907   24.4102 N   0  0  0  0  0  0  0  0  0  0  0  0
    8.9369  -15.8867   26.4320 C   0  0  0  0  0  0  0  0  0  0  0  0
    9.9496  -15.5890   27.3311 O   0  0  0  0  0  0  0  0  0  0  0  0
    8.6649  -17.1169   26.3422 O   0  0  0  0  0  0  0  0  0  0  0  0
  2  3  1  0
  2  1  1  0
  3  4  2  0
  6  5  1  6
  6  8  1  0
  7  6  1  0
  7  3  1  0
  8  9  2  0
 11 10  1  1
 11 12  1  0
 11 13  1  0
 14 13  1  1
 14 16  1  0
 15 14  1  0
 15  8  1  0
 16 18  2  0
 16 17  1  0
M  END
$$$$
