GAL.pdb
     RDKit          3D

 18 17  0  0  1  0  0  0  0  0999 V2000
    8.4510  -12.0813   18.7846 N   0  0  0  0  0  0  0  0  0  0  0  0
    8.9267  -13.3763   19.1748 C   0  0  0  0  0  0  0  0  0  0  0  0
    8.2314  -13.8862   20.3835 C   0  0  0  0  0  0  0  0  0  0  0  0
    7.5793  -13.0662   21.0711 O   0  0  0  0  0  0  0  0  0  0  0  0
    7.3579  -17.1604   22.0041 C   0  0  0  0  0  0  0  0  0  0  0  0
    7.5304  -15.6603   21.9433 C   0  0  2  0  0  0  0  0  0  0  0  0
    8.2672  -15.2348   20.7935 N   0  0  0  0  0  0  0  0  0  0  0  0
    8.2536  -15.2700   23.2057 C   0  0  0  0  0  0  0  0  0  0  0  0
    9.5127  -15.1841   23.2282 O   0  0  0  0  0  0  0  0  0  0  0  0
    5.4876  -12.0176   26.6816 C   0  0  0  0  0  0  0  0  0  0  0  0
    6.5363  -12.6511   25.8051 C   0  0  1  0  0  0  0  0  0  0  0  0
    7.6698  -11.6218   25.6973 C   0  0  0  0  0  0  0  0  0  0  0  0
    7.1554  -13.8599   26.4290 C   0  0  0  0  0  0  0  0  0  0  0  0
    8.1800  -14.5660   25.6332 C   0  0  2  0  0  0  0  0  0  0  0  0
    7.5610  -14.9901   24.3926 N   0  0  0  0  0  0  0  0  0  0  0  0
    8.8664  -15.6794   26.2353 C   0  0  0  0  0  0  0  0  0  0  0  0
    9.9532  -15.4327   27.0601 O   0  0  0  0  0  0  0  0  0  0  0  0
    8.5852  -16.9029   26.0959 O   0  0  0  0  0  0  0  0  0  0  0  0
  2  3  1  0
  2  1  1  0
  3  4  2  0
  6  5  1  6
  6  8  1  0
  7  6  1  0
  7  3  1  0
  8  9  2  0
 11 10  1  1
 11 12  1  0
 11 13  1  0
 14 13  1  1
 14 16  1  0
 15 14  1  0
 15  8  1  0
 16 18  2  0
 16 17  1  0
M  END
$$$$
