GAL.pdb
     RDKit          3D

 18 17  0  0  1  0  0  0  0  0999 V2000
    7.9071  -12.3158   18.6812 N   0  0  0  0  0  0  0  0  0  0  0  0
    8.5315  -13.5562   19.0376 C   0  0  0  0  0  0  0  0  0  0  0  0
    7.9937  -14.1082   20.3067 C   0  0  0  0  0  0  0  0  0  0  0  0
    7.2373  -13.3764   20.9871 O   0  0  0  0  0  0  0  0  0  0  0  0
    7.7306  -17.4143   22.0631 C   0  0  0  0  0  0  0  0  0  0  0  0
    7.6358  -15.9104   21.9485 C   0  0  2  0  0  0  0  0  0  0  0  0
    8.2883  -15.4028   20.7813 N   0  0  0  0  0  0  0  0  0  0  0  0
    8.2761  -15.3539   23.1932 C   0  0  0  0  0  0  0  0  0  0  0  0
    9.5127  -15.1034   23.2263 O   0  0  0  0  0  0  0  0  0  0  0  0
    7.4322  -11.7172   25.1541 C   0  0  0  0  0  0  0  0  0  0  0  0
    7.2204  -12.4147   26.4724 C   0  0  1  0  0  0  0  0  0  0  0  0
    5.8914  -11.8780   27.0216 C   0  0  0  0  0  0  0  0  0  0  0  0
    7.0210  -13.8880   26.3193 C   0  0  0  0  0  0  0  0  0  0  0  0
    8.0817  -14.6305   25.6083 C   0  0  2  0  0  0  0  0  0  0  0  0
    7.5286  -15.0958   24.3515 N   0  0  0  0  0  0  0  0  0  0  0  0
    8.7233  -15.7256   26.2881 C   0  0  0  0  0  0  0  0  0  0  0  0
    9.8131  -15.4641   27.1045 O   0  0  0  0  0  0  0  0  0  0  0  0
    8.3988  -16.9447   26.2269 O   0  0  0  0  0  0  0  0  0  0  0  0
  2  3  1  0
  2  1  1  0
  3  4  2  0
  6  5  1  1
  6  8  1  0
  7  6  1  0
  7  3  1  0
  8  9  2  0
 11 10  1  6
 11 12  1  0
 11 13  1  0
 14 13  1  1
 14 16  1  0
 15 14  1  0
 15  8  1  0
 16 18  2  0
 16 17  1  0
M  END
$$$$
