GAL.pdb
     RDKit          3D

 18 17  0  0  1  0  0  0  0  0999 V2000
    7.7857  -12.7474   17.8574 N   0  0  0  0  0  0  0  0  0  0  0  0
    8.7263  -13.6171   18.5010 C   0  0  0  0  0  0  0  0  0  0  0  0
    8.1727  -14.2204   19.7395 C   0  0  0  0  0  0  0  0  0  0  0  0
    7.2530  -13.6050   20.3278 O   0  0  0  0  0  0  0  0  0  0  0  0
    8.3008  -17.4604   21.6298 C   0  0  0  0  0  0  0  0  0  0  0  0
    7.9965  -15.9920   21.4432 C   0  0  2  0  0  0  0  0  0  0  0  0
    8.6252  -15.4402   20.2830 N   0  0  0  0  0  0  0  0  0  0  0  0
    8.4888  -15.3004   22.6875 C   0  0  0  0  0  0  0  0  0  0  0  0
    9.6818  -14.8972   22.7729 O   0  0  0  0  0  0  0  0  0  0  0  0
    7.8465  -11.5521   26.4310 C   0  0  0  0  0  0  0  0  0  0  0  0
    7.0120  -12.7804   26.6843 C   0  0  1  0  0  0  0  0  0  0  0  0
    5.6076  -12.2683   27.0326 C   0  0  0  0  0  0  0  0  0  0  0  0
    6.8365  -13.6203   25.4606 C   0  0  0  0  0  0  0  0  0  0  0  0
    8.0240  -14.3611   24.9887 C   0  0  2  0  0  0  0  0  0  0  0  0
    7.6474  -15.0807   23.7878 N   0  0  0  0  0  0  0  0  0  0  0  0
    8.6784  -15.2593   25.9043 C   0  0  0  0  0  0  0  0  0  0  0  0
    9.8028  -14.8216   26.5873 O   0  0  0  0  0  0  0  0  0  0  0  0
    8.3364  -16.4458   26.1701 O   0  0  0  0  0  0  0  0  0  0  0  0
  2  3  1  0
  2  1  1  0
  3  4  2  0
  6  5  1  1
  6  8  1  0
  7  6  1  0
  7  3  1  0
  8  9  2  0
 11 10  1  6
 11 12  1  0
 11 13  1  0
 14 13  1  1
 14 16  1  0
 15 14  1  0
 15  8  1  0
 16 18  2  0
 16 17  1  0
M  END
$$$$
