GAL.pdb
     RDKit          3D

 18 17  0  0  1  0  0  0  0  0999 V2000
    6.4787  -19.3913   20.5494 N   0  0  0  0  0  0  0  0  0  0  0  0
    5.8693  -18.1911   21.0428 C   0  0  0  0  0  0  0  0  0  0  0  0
    6.8753  -17.1572   21.3942 C   0  0  0  0  0  0  0  0  0  0  0  0
    8.0266  -17.5444   21.7027 O   0  0  0  0  0  0  0  0  0  0  0  0
    7.2511  -13.4172   21.5657 C   0  0  0  0  0  0  0  0  0  0  0  0
    7.5589  -14.8513   21.9298 C   0  0  2  0  0  0  0  0  0  0  0  0
    6.6035  -15.7737   21.3986 N   0  0  0  0  0  0  0  0  0  0  0  0
    7.5657  -14.9093   23.4350 C   0  0  0  0  0  0  0  0  0  0  0  0
    6.5808  -15.3816   24.0674 O   0  0  0  0  0  0  0  0  0  0  0  0
    5.6721  -12.2956   26.4340 C   0  0  0  0  0  0  0  0  0  0  0  0
    7.0106  -12.6470   25.8389 C   0  0  1  0  0  0  0  0  0  0  0  0
    8.0300  -11.7308   26.5298 C   0  0  0  0  0  0  0  0  0  0  0  0
    7.4404  -14.0398   26.1692 C   0  0  0  0  0  0  0  0  0  0  0  0
    8.7442  -14.4772   25.6301 C   0  0  2  0  0  0  0  0  0  0  0  0
    8.6572  -14.4449   24.1832 N   0  0  0  0  0  0  0  0  0  0  0  0
    9.2674  -15.7499   26.0538 C   0  0  0  0  0  0  0  0  0  0  0  0
   10.3368  -16.3005   25.3641 O   0  0  0  0  0  0  0  0  0  0  0  0
    8.8517  -16.4526   27.0176 O   0  0  0  0  0  0  0  0  0  0  0  0
  2  3  1  0
  2  1  1  0
  3  4  2  0
  6  5  1  1
  6  8  1  0
  7  6  1  0
  7  3  1  0
  8  9  2  0
 11 10  1  1
 11 12  1  0
 11 13  1  0
 14 13  1  1
 14 16  1  0
 15 14  1  0
 15  8  1  0
 16 18  2  0
 16 17  1  0
M  END
$$$$
