GAL.pdb
     RDKit          3D

 18 17  0  0  1  0  0  0  0  0999 V2000
    7.5034  -15.2982   18.9262 N   0  0  0  0  0  0  0  0  0  0  0  0
    8.1382  -16.2546   19.7851 C   0  0  0  0  0  0  0  0  0  0  0  0
    7.6539  -16.1565   21.1852 C   0  0  0  0  0  0  0  0  0  0  0  0
    6.8821  -15.2112   21.4708 O   0  0  0  0  0  0  0  0  0  0  0  0
    7.4205  -18.2561   24.2575 C   0  0  0  0  0  0  0  0  0  0  0  0
    7.4569  -16.9418   23.5125 C   0  0  2  0  0  0  0  0  0  0  0  0
    8.0150  -17.0649   22.2013 N   0  0  0  0  0  0  0  0  0  0  0  0
    8.2875  -16.0069   24.3522 C   0  0  0  0  0  0  0  0  0  0  0  0
    9.5240  -15.8723   24.1374 O   0  0  0  0  0  0  0  0  0  0  0  0
    5.6383  -11.7710   26.6084 C   0  0  0  0  0  0  0  0  0  0  0  0
    6.5835  -12.7151   25.9124 C   0  0  1  0  0  0  0  0  0  0  0  0
    7.4927  -11.8339   25.0449 C   0  0  0  0  0  0  0  0  0  0  0  0
    7.4994  -13.4176   26.8618 C   0  0  0  0  0  0  0  0  0  0  0  0
    8.4612  -14.3711   26.2726 C   0  0  2  0  0  0  0  0  0  0  0  0
    7.7229  -15.2578   25.3948 N   0  0  0  0  0  0  0  0  0  0  0  0
    9.2856  -15.1483   27.1612 C   0  0  0  0  0  0  0  0  0  0  0  0
   10.4273  -14.5712   27.6961 O   0  0  0  0  0  0  0  0  0  0  0  0
    9.0846  -16.3407   27.5262 O   0  0  0  0  0  0  0  0  0  0  0  0
  2  3  1  0
  2  1  1  0
  3  4  2  0
  6  5  1  1
  6  8  1  0
  7  6  1  0
  7  3  1  0
  8  9  2  0
 11 10  1  1
 11 12  1  0
 11 13  1  0
 14 13  1  1
 14 16  1  0
 15 14  1  0
 15  8  1  0
 16 18  2  0
 16 17  1  0
M  END
$$$$
