GAL.pdb
     RDKit          3D

 18 17  0  0  1  0  0  0  0  0999 V2000
    8.0613  -12.4996   18.5124 N   0  0  0  0  0  0  0  0  0  0  0  0
    8.7189  -13.6042   19.1471 C   0  0  0  0  0  0  0  0  0  0  0  0
    8.0350  -14.0176   20.3984 C   0  0  0  0  0  0  0  0  0  0  0  0
    7.5193  -13.1205   21.1054 O   0  0  0  0  0  0  0  0  0  0  0  0
    6.9630  -17.1609   22.1688 C   0  0  0  0  0  0  0  0  0  0  0  0
    7.2331  -15.6804   22.0305 C   0  0  2  0  0  0  0  0  0  0  0  0
    7.9370  -15.3569   20.8282 N   0  0  0  0  0  0  0  0  0  0  0  0
    8.0446  -15.2878   23.2373 C   0  0  0  0  0  0  0  0  0  0  0  0
    9.2987  -15.1675   23.1606 O   0  0  0  0  0  0  0  0  0  0  0  0
    5.6610  -12.0157   26.9099 C   0  0  0  0  0  0  0  0  0  0  0  0
    6.6020  -12.7086   25.9593 C   0  0  1  0  0  0  0  0  0  0  0  0
    7.7609  -11.7291   25.7285 C   0  0  0  0  0  0  0  0  0  0  0  0
    7.2261  -13.9295   26.5539 C   0  0  0  0  0  0  0  0  0  0  0  0
    8.1553  -14.6868   25.6909 C   0  0  2  0  0  0  0  0  0  0  0  0
    7.4423  -15.0435   24.4800 N   0  0  0  0  0  0  0  0  0  0  0  0
    8.7962  -15.8554   26.2356 C   0  0  0  0  0  0  0  0  0  0  0  0
    9.8947  -15.6942   27.0661 O   0  0  0  0  0  0  0  0  0  0  0  0
    8.4635  -17.0580   26.0393 O   0  0  0  0  0  0  0  0  0  0  0  0
  2  3  1  0
  2  1  1  0
  3  4  2  0
  6  5  1  1
  6  8  1  0
  7  6  1  0
  7  3  1  0
  8  9  2  0
 11 10  1  1
 11 12  1  0
 11 13  1  0
 14 13  1  1
 14 16  1  0
 15 14  1  0
 15  8  1  0
 16 18  2  0
 16 17  1  0
M  END
$$$$
