GAL.pdb
     RDKit          3D

 18 17  0  0  1  0  0  0  0  0999 V2000
    5.5402  -19.5506   22.6780 N   0  0  0  0  0  0  0  0  0  0  0  0
    5.3216  -18.1371   22.7767 C   0  0  0  0  0  0  0  0  0  0  0  0
    6.5461  -17.3589   22.4616 C   0  0  0  0  0  0  0  0  0  0  0  0
    7.6495  -17.9471   22.5469 O   0  0  0  0  0  0  0  0  0  0  0  0
    7.5525  -14.0291   21.0450 C   0  0  0  0  0  0  0  0  0  0  0  0
    7.7563  -15.3107   21.8194 C   0  0  2  0  0  0  0  0  0  0  0  0
    6.5310  -16.0032   22.0745 N   0  0  0  0  0  0  0  0  0  0  0  0
    8.4178  -14.9175   23.1143 C   0  0  0  0  0  0  0  0  0  0  0  0
    9.5711  -14.4046   23.1203 O   0  0  0  0  0  0  0  0  0  0  0  0
    5.6418  -12.2483   26.6885 C   0  0  0  0  0  0  0  0  0  0  0  0
    6.8109  -12.7819   25.9026 C   0  0  1  0  0  0  0  0  0  0  0  0
    7.9554  -11.7834   26.1240 C   0  0  0  0  0  0  0  0  0  0  0  0
    7.3137  -14.0862   26.4316 C   0  0  0  0  0  0  0  0  0  0  0  0
    8.3573  -14.7660   25.6376 C   0  0  2  0  0  0  0  0  0  0  0  0
    7.7825  -15.1049   24.3505 N   0  0  0  0  0  0  0  0  0  0  0  0
    8.9980  -15.9260   26.2005 C   0  0  0  0  0  0  0  0  0  0  0  0
    8.8580  -17.1482   25.5610 O   0  0  0  0  0  0  0  0  0  0  0  0
    9.7006  -15.9644   27.2495 O   0  0  0  0  0  0  0  0  0  0  0  0
  2  3  1  0
  2  1  1  0
  3  4  2  0
  6  5  1  6
  6  8  1  0
  7  6  1  0
  7  3  1  0
  8  9  2  0
 11 10  1  1
 11 12  1  0
 11 13  1  0
 14 13  1  1
 14 16  1  0
 15 14  1  0
 15  8  1  0
 16 18  2  0
 16 17  1  0
M  END
$$$$
