GAL.pdb
     RDKit          3D

 18 17  0  0  1  0  0  0  0  0999 V2000
    5.4710  -19.5607   22.8308 N   0  0  0  0  0  0  0  0  0  0  0  0
    5.2787  -18.1475   22.6855 C   0  0  0  0  0  0  0  0  0  0  0  0
    6.5561  -17.4321   22.4386 C   0  0  0  0  0  0  0  0  0  0  0  0
    7.6234  -18.0485   22.6654 O   0  0  0  0  0  0  0  0  0  0  0  0
    7.7990  -14.2274   20.9158 C   0  0  0  0  0  0  0  0  0  0  0  0
    7.8988  -15.4847   21.7482 C   0  0  2  0  0  0  0  0  0  0  0  0
    6.6288  -16.1056   21.9661 N   0  0  0  0  0  0  0  0  0  0  0  0
    8.5142  -15.0715   23.0595 C   0  0  0  0  0  0  0  0  0  0  0  0
    9.6759  -14.5797   23.1009 O   0  0  0  0  0  0  0  0  0  0  0  0
    5.5821  -12.3527   26.5501 C   0  0  0  0  0  0  0  0  0  0  0  0
    6.7805  -12.8740   25.8008 C   0  0  1  0  0  0  0  0  0  0  0  0
    7.9165  -11.8816   26.0847 C   0  0  0  0  0  0  0  0  0  0  0  0
    7.2609  -14.1885   26.3252 C   0  0  0  0  0  0  0  0  0  0  0  0
    8.3490  -14.8453   25.5726 C   0  0  2  0  0  0  0  0  0  0  0  0
    7.8254  -15.2165   24.2726 N   0  0  0  0  0  0  0  0  0  0  0  0
    9.0064  -15.9786   26.1696 C   0  0  0  0  0  0  0  0  0  0  0  0
    9.9348  -15.7636   27.1769 O   0  0  0  0  0  0  0  0  0  0  0  0
    8.8313  -17.1939   25.8733 O   0  0  0  0  0  0  0  0  0  0  0  0
  2  3  1  0
  2  1  1  0
  3  4  2  0
  6  5  1  6
  6  8  1  0
  7  6  1  0
  7  3  1  0
  8  9  2  0
 11 10  1  1
 11 12  1  0
 11 13  1  0
 14 13  1  1
 14 16  1  0
 15 14  1  0
 15  8  1  0
 16 18  2  0
 16 17  1  0
M  END
$$$$
