GAL.pdb
     RDKit          3D

 18 17  0  0  1  0  0  0  0  0999 V2000
    8.3784  -12.0350   18.9808 N   0  0  0  0  0  0  0  0  0  0  0  0
    9.0080  -13.2836   19.2972 C   0  0  0  0  0  0  0  0  0  0  0  0
    8.4079  -13.9244   20.4946 C   0  0  0  0  0  0  0  0  0  0  0  0
    7.5568  -13.2704   21.1416 O   0  0  0  0  0  0  0  0  0  0  0  0
    8.1704  -17.3200   22.0606 C   0  0  0  0  0  0  0  0  0  0  0  0
    8.0421  -15.8145   22.0326 C   0  0  2  0  0  0  0  0  0  0  0  0
    8.7440  -15.2202   20.9372 N   0  0  0  0  0  0  0  0  0  0  0  0
    8.5982  -15.3220   23.3430 C   0  0  0  0  0  0  0  0  0  0  0  0
    9.8248  -15.0491   23.4621 O   0  0  0  0  0  0  0  0  0  0  0  0
    5.5782  -12.0282   26.4628 C   0  0  0  0  0  0  0  0  0  0  0  0
    6.7017  -12.7179   25.7338 C   0  0  1  0  0  0  0  0  0  0  0  0
    7.8990  -11.7603   25.8074 C   0  0  0  0  0  0  0  0  0  0  0  0
    7.1505  -13.9685   26.4180 C   0  0  0  0  0  0  0  0  0  0  0  0
    8.2468  -14.7202   25.7737 C   0  0  2  0  0  0  0  0  0  0  0  0
    7.7810  -15.1499   24.4697 N   0  0  0  0  0  0  0  0  0  0  0  0
    8.8132  -15.8414   26.4774 C   0  0  0  0  0  0  0  0  0  0  0  0
    9.7877  -15.6104   27.4364 O   0  0  0  0  0  0  0  0  0  0  0  0
    8.5164  -17.0588   26.3189 O   0  0  0  0  0  0  0  0  0  0  0  0
  2  3  1  0
  2  1  1  0
  3  4  2  0
  6  5  1  1
  6  8  1  0
  7  6  1  0
  7  3  1  0
  8  9  2  0
 11 10  1  1
 11 12  1  0
 11 13  1  0
 14 13  1  1
 14 16  1  0
 15 14  1  0
 15  8  1  0
 16 18  2  0
 16 17  1  0
M  END
$$$$
