GAL.pdb
     RDKit          3D

 18 17  0  0  1  0  0  0  0  0999 V2000
    7.9959  -12.4504   18.5901 N   0  0  0  0  0  0  0  0  0  0  0  0
    8.8208  -13.4459   19.2097 C   0  0  0  0  0  0  0  0  0  0  0  0
    8.1447  -14.0940   20.3618 C   0  0  0  0  0  0  0  0  0  0  0  0
    7.2957  -13.4224   20.9933 O   0  0  0  0  0  0  0  0  0  0  0  0
    7.8681  -17.4431   22.0423 C   0  0  0  0  0  0  0  0  0  0  0  0
    7.7929  -15.9359   21.9603 C   0  0  2  0  0  0  0  0  0  0  0  0
    8.4069  -15.4154   20.7780 N   0  0  0  0  0  0  0  0  0  0  0  0
    8.4905  -15.4139   23.1891 C   0  0  0  0  0  0  0  0  0  0  0  0
    9.7237  -15.1460   23.1665 O   0  0  0  0  0  0  0  0  0  0  0  0
    5.4844  -12.2086   26.3892 C   0  0  0  0  0  0  0  0  0  0  0  0
    6.5701  -12.8538   25.5681 C   0  0  1  0  0  0  0  0  0  0  0  0
    7.6117  -11.7555   25.3135 C   0  0  0  0  0  0  0  0  0  0  0  0
    7.2970  -13.9256   26.3141 C   0  0  0  0  0  0  0  0  0  0  0  0
    8.3779  -14.6228   25.5881 C   0  0  2  0  0  0  0  0  0  0  0  0
    7.8017  -15.2078   24.3932 N   0  0  0  0  0  0  0  0  0  0  0  0
    9.1432  -15.6186   26.2922 C   0  0  0  0  0  0  0  0  0  0  0  0
    8.8639  -16.9592   26.0746 O   0  0  0  0  0  0  0  0  0  0  0  0
   10.0760  -15.4081   27.1175 O   0  0  0  0  0  0  0  0  0  0  0  0
  2  3  1  0
  2  1  1  0
  3  4  2  0
  6  5  1  6
  6  8  1  0
  7  6  1  0
  7  3  1  0
  8  9  2  0
 11 10  1  1
 11 12  1  0
 11 13  1  0
 14 13  1  1
 14 16  1  0
 15 14  1  0
 15  8  1  0
 16 18  2  0
 16 17  1  0
M  END
$$$$
