GAL.pdb
     RDKit          3D

 18 17  0  0  1  0  0  0  0  0999 V2000
    5.7717  -19.6580   22.9882 N   0  0  0  0  0  0  0  0  0  0  0  0
    5.4782  -18.2559   23.0465 C   0  0  0  0  0  0  0  0  0  0  0  0
    6.6257  -17.4257   22.6008 C   0  0  0  0  0  0  0  0  0  0  0  0
    7.7709  -17.9309   22.6644 O   0  0  0  0  0  0  0  0  0  0  0  0
    7.3396  -14.1178   20.9653 C   0  0  0  0  0  0  0  0  0  0  0  0
    7.6549  -15.3320   21.8080 C   0  0  2  0  0  0  0  0  0  0  0  0
    6.4938  -16.1092   22.1138 N   0  0  0  0  0  0  0  0  0  0  0  0
    8.2879  -14.8120   23.0721 C   0  0  0  0  0  0  0  0  0  0  0  0
    9.4287  -14.2724   23.0482 O   0  0  0  0  0  0  0  0  0  0  0  0
    7.7974  -11.4939   25.6801 C   0  0  0  0  0  0  0  0  0  0  0  0
    7.4210  -12.4177   26.8090 C   0  0  1  0  0  0  0  0  0  0  0  0
    6.0875  -11.8897   27.3556 C   0  0  0  0  0  0  0  0  0  0  0  0
    7.1368  -13.8094   26.3443 C   0  0  0  0  0  0  0  0  0  0  0  0
    8.2043  -14.4838   25.5779 C   0  0  2  0  0  0  0  0  0  0  0  0
    7.6390  -14.9073   24.3117 N   0  0  0  0  0  0  0  0  0  0  0  0
    8.8938  -15.5886   26.1921 C   0  0  0  0  0  0  0  0  0  0  0  0
    8.5061  -16.8820   25.8770 O   0  0  0  0  0  0  0  0  0  0  0  0
    9.8479  -15.5170   27.0168 O   0  0  0  0  0  0  0  0  0  0  0  0
  2  3  1  0
  2  1  1  0
  3  4  2  0
  6  5  1  6
  6  8  1  0
  7  6  1  0
  7  3  1  0
  8  9  2  0
 11 10  1  6
 11 12  1  0
 11 13  1  0
 14 13  1  1
 14 16  1  0
 15 14  1  0
 15  8  1  0
 16 18  2  0
 16 17  1  0
M  END
$$$$
