GAL.pdb
     RDKit          3D

 18 17  0  0  1  0  0  0  0  0999 V2000
    5.3267  -18.8801   21.5101 N   0  0  0  0  0  0  0  0  0  0  0  0
    5.2489  -17.5446   22.0256 C   0  0  0  0  0  0  0  0  0  0  0  0
    6.5278  -16.8078   21.8640 C   0  0  0  0  0  0  0  0  0  0  0  0
    7.5926  -17.4655   21.9303 O   0  0  0  0  0  0  0  0  0  0  0  0
    7.7721  -13.3986   20.8929 C   0  0  0  0  0  0  0  0  0  0  0  0
    7.8760  -14.7770   21.5034 C   0  0  2  0  0  0  0  0  0  0  0  0
    6.6046  -15.4176   21.6416 N   0  0  0  0  0  0  0  0  0  0  0  0
    8.5206  -14.5907   22.8520 C   0  0  0  0  0  0  0  0  0  0  0  0
    9.7077  -14.1728   22.9480 O   0  0  0  0  0  0  0  0  0  0  0  0
    5.6560  -12.2523   26.6156 C   0  0  0  0  0  0  0  0  0  0  0  0
    6.8281  -12.7246   25.7956 C   0  0  1  0  0  0  0  0  0  0  0  0
    7.9810  -11.7651   26.1211 C   0  0  0  0  0  0  0  0  0  0  0  0
    7.3101  -14.0786   26.2057 C   0  0  0  0  0  0  0  0  0  0  0  0
    8.3693  -14.6856   25.3743 C   0  0  2  0  0  0  0  0  0  0  0  0
    7.8318  -14.8721   24.0408 N   0  0  0  0  0  0  0  0  0  0  0  0
    8.9755  -15.9110   25.8261 C   0  0  0  0  0  0  0  0  0  0  0  0
    8.7199  -17.0835   25.1315 O   0  0  0  0  0  0  0  0  0  0  0  0
    9.7431  -16.0507   26.8194 O   0  0  0  0  0  0  0  0  0  0  0  0
  2  3  1  0
  2  1  1  0
  3  4  2  0
  6  5  1  1
  6  8  1  0
  7  6  1  0
  7  3  1  0
  8  9  2  0
 11 10  1  1
 11 12  1  0
 11 13  1  0
 14 13  1  1
 14 16  1  0
 15 14  1  0
 15  8  1  0
 16 18  2  0
 16 17  1  0
M  END
$$$$
