GAL.pdb
     RDKit          3D

 18 17  0  0  1  0  0  0  0  0999 V2000
    8.3083  -12.1789   18.7823 N   0  0  0  0  0  0  0  0  0  0  0  0
    8.9664  -13.3826   19.1986 C   0  0  0  0  0  0  0  0  0  0  0  0
    8.3286  -13.9821   20.3979 C   0  0  0  0  0  0  0  0  0  0  0  0
    7.5439  -13.2649   21.0615 O   0  0  0  0  0  0  0  0  0  0  0  0
    7.9119  -17.3389   22.0284 C   0  0  0  0  0  0  0  0  0  0  0  0
    7.8667  -15.8299   21.9613 C   0  0  2  0  0  0  0  0  0  0  0  0
    8.5589  -15.3062   20.8245 N   0  0  0  0  0  0  0  0  0  0  0  0
    8.4981  -15.3344   23.2360 C   0  0  0  0  0  0  0  0  0  0  0  0
    9.7304  -15.0658   23.2841 O   0  0  0  0  0  0  0  0  0  0  0  0
    5.4151  -12.2081   26.5166 C   0  0  0  0  0  0  0  0  0  0  0  0
    6.5679  -12.7780   25.7321 C   0  0  1  0  0  0  0  0  0  0  0  0
    7.6704  -11.7109   25.7725 C   0  0  0  0  0  0  0  0  0  0  0  0
    7.1620  -13.9879   26.3776 C   0  0  0  0  0  0  0  0  0  0  0  0
    8.2718  -14.6460   25.6585 C   0  0  2  0  0  0  0  0  0  0  0  0
    7.7468  -15.1548   24.4066 N   0  0  0  0  0  0  0  0  0  0  0  0
    9.0028  -15.6866   26.3338 C   0  0  0  0  0  0  0  0  0  0  0  0
    8.7779  -17.0071   25.9758 O   0  0  0  0  0  0  0  0  0  0  0  0
    9.8586  -15.5337   27.2501 O   0  0  0  0  0  0  0  0  0  0  0  0
  2  3  1  0
  2  1  1  0
  3  4  2  0
  6  5  1  1
  6  8  1  0
  7  6  1  0
  7  3  1  0
  8  9  2  0
 11 10  1  1
 11 12  1  0
 11 13  1  0
 14 13  1  1
 14 16  1  0
 15 14  1  0
 15  8  1  0
 16 18  2  0
 16 17  1  0
M  END
$$$$
