GAL.pdb
     RDKit          3D

 18 17  0  0  1  0  0  0  0  0999 V2000
    7.8413  -12.4447   18.6640 N   0  0  0  0  0  0  0  0  0  0  0  0
    8.6012  -13.5260   19.2197 C   0  0  0  0  0  0  0  0  0  0  0  0
    8.0262  -14.0137   20.4987 C   0  0  0  0  0  0  0  0  0  0  0  0
    7.4755  -13.1741   21.2487 O   0  0  0  0  0  0  0  0  0  0  0  0
    7.2568  -17.2711   22.2122 C   0  0  0  0  0  0  0  0  0  0  0  0
    7.4144  -15.7713   22.1137 C   0  0  2  0  0  0  0  0  0  0  0  0
    8.0678  -15.3620   20.9090 N   0  0  0  0  0  0  0  0  0  0  0  0
    8.2195  -15.3545   23.3167 C   0  0  0  0  0  0  0  0  0  0  0  0
    9.4737  -15.2334   23.2437 O   0  0  0  0  0  0  0  0  0  0  0  0
    5.6875  -12.0387   26.7474 C   0  0  0  0  0  0  0  0  0  0  0  0
    6.6686  -12.7557   25.8571 C   0  0  1  0  0  0  0  0  0  0  0  0
    7.7530  -11.7254   25.5133 C   0  0  0  0  0  0  0  0  0  0  0  0
    7.3824  -13.8639   26.5613 C   0  0  0  0  0  0  0  0  0  0  0  0
    8.3139  -14.6739   25.7501 C   0  0  2  0  0  0  0  0  0  0  0  0
    7.6108  -15.0879   24.5517 N   0  0  0  0  0  0  0  0  0  0  0  0
    8.9377  -15.8177   26.3631 C   0  0  0  0  0  0  0  0  0  0  0  0
    9.9999  -15.6191   27.2319 O   0  0  0  0  0  0  0  0  0  0  0  0
    8.6200  -17.0289   26.1970 O   0  0  0  0  0  0  0  0  0  0  0  0
  2  3  1  0
  2  1  1  0
  3  4  2  0
  6  5  1  6
  6  8  1  0
  7  6  1  0
  7  3  1  0
  8  9  2  0
 11 10  1  1
 11 12  1  0
 11 13  1  0
 14 13  1  1
 14 16  1  0
 15 14  1  0
 15  8  1  0
 16 18  2  0
 16 17  1  0
M  END
$$$$
