EYQ.pdb
     RDKit          3D

 31 31  0  0  1  0  0  0  0  0999 V2000
    9.8999  -16.1483   18.6005 N   0  0  0  0  0  0  0  0  0  0  0  0
    9.3178  -16.9833   19.6769 C   0  0  1  0  0  0  0  0  0  0  0  0
   10.0727  -18.2638   19.6372 C   0  0  0  0  0  0  0  0  0  0  0  0
    9.9866  -19.0545   18.3825 C   0  0  0  0  0  0  0  0  0  0  0  0
   10.7699  -20.3279   18.5697 C   0  0  0  0  0  0  0  0  0  0  0  0
   10.1738  -21.3751   18.8989 O   0  0  0  0  0  0  0  0  0  0  0  0
    9.4326  -16.1945   20.8995 C   0  0  0  0  0  0  0  0  0  0  0  0
   10.5057  -15.9972   21.5280 O   0  0  0  0  0  0  0  0  0  0  0  0
   12.1436  -20.3703   18.3854 O   0  0  0  0  0  0  0  0  0  0  0  0
    7.1792  -11.8598   28.0166 O   0  0  0  0  0  0  0  0  0  0  0  0
    7.1049  -12.4767   26.7831 C   0  0  0  0  0  0  0  0  0  0  0  0
    7.7733  -11.9038   25.7194 C   0  0  0  0  0  0  0  0  0  0  0  0
    7.7249  -12.4874   24.4716 C   0  0  0  0  0  0  0  0  0  0  0  0
    6.9985  -13.6450   24.3204 C   0  0  0  0  0  0  0  0  0  0  0  0
    6.9624  -14.2564   22.9577 C   0  0  0  0  0  0  0  0  0  0  0  0
    8.2762  -14.9960   22.7811 C   0  0  2  0  0  0  0  0  0  0  0  0
    8.2855  -15.5775   21.4700 N   0  0  0  0  0  0  0  0  0  0  0  0
    8.4446  -15.9167   23.8828 C   0  0  0  0  0  0  0  0  0  0  0  0
    7.7467  -16.9426   24.0235 O   0  0  0  0  0  0  0  0  0  0  0  0
    6.3235  -14.2404   25.3535 C   0  0  0  0  0  0  0  0  0  0  0  0
    6.3931  -13.6258   26.5988 C   0  0  0  0  0  0  0  0  0  0  0  0
   13.3081  -18.3897   23.9991 N   0  0  0  0  0  0  0  0  0  0  0  0
   12.9353  -18.8511   25.2967 C   0  0  0  0  0  0  0  0  0  0  0  0
   13.7004  -19.7110   25.8407 O   0  0  0  0  0  0  0  0  0  0  0  0
   11.7385  -18.3736   26.0027 C   0  0  0  0  0  0  0  0  0  0  0  0
   11.0147  -17.3444   25.2489 C   0  0  0  0  0  0  0  0  0  0  0  0
    9.8009  -16.7100   25.8624 C   0  0  2  0  0  0  0  0  0  0  0  0
    9.4391  -15.6607   24.8547 N   0  0  0  0  0  0  0  0  0  0  0  0
   10.0259  -16.0526   27.1532 C   0  0  0  0  0  0  0  0  0  0  0  0
    9.8893  -16.6958   28.3712 O   0  0  0  0  0  0  0  0  0  0  0  0
   10.3640  -14.8312   27.1803 O   0  0  0  0  0  0  0  0  0  0  0  0
  2  1  1  6
  2  3  1  0
  3  4  1  0
  5  9  1  0
  5  4  1  0
  6  5  2  0
  7  2  1  0
  8  7  2  0
 10 11  1  0
 11 12  2  0
 12 13  1  0
 14 15  1  0
 14 13  2  0
 16 15  1  1
 16 17  1  0
 17  7  1  0
 18 28  1  0
 18 16  1  0
 19 18  2  0
 20 14  1  0
 21 20  2  0
 21 11  1  0
 22 23  1  0
 23 25  1  0
 24 23  2  0
 25 26  1  0
 27 26  1  6
 27 29  1  0
 27 28  1  0
 29 30  1  0
 31 29  2  0
M  END
$$$$
