EYQ.pdb
     RDKit          3D

 31 31  0  0  1  0  0  0  0  0999 V2000
   10.2595  -16.8612   18.8878 N   0  0  0  0  0  0  0  0  0  0  0  0
    9.3990  -17.3386   19.9952 C   0  0  1  0  0  0  0  0  0  0  0  0
    9.9564  -18.6599   20.3887 C   0  0  0  0  0  0  0  0  0  0  0  0
   11.3396  -18.9646   19.9409 C   0  0  0  0  0  0  0  0  0  0  0  0
   11.8934  -20.0554   20.8205 C   0  0  0  0  0  0  0  0  0  0  0  0
   12.7175  -19.7674   21.7140 O   0  0  0  0  0  0  0  0  0  0  0  0
    9.4321  -16.2876   21.0074 C   0  0  0  0  0  0  0  0  0  0  0  0
   10.3532  -15.4379   21.1295 O   0  0  0  0  0  0  0  0  0  0  0  0
   11.5111  -21.3792   20.6651 O   0  0  0  0  0  0  0  0  0  0  0  0
    6.8631  -11.1295   27.4801 O   0  0  0  0  0  0  0  0  0  0  0  0
    6.8845  -12.0538   26.4541 C   0  0  0  0  0  0  0  0  0  0  0  0
    6.4729  -13.3442   26.7221 C   0  0  0  0  0  0  0  0  0  0  0  0
    6.4788  -14.2973   25.7263 C   0  0  0  0  0  0  0  0  0  0  0  0
    6.9025  -13.9274   24.4716 C   0  0  0  0  0  0  0  0  0  0  0  0
    6.8993  -14.9798   23.4111 C   0  0  0  0  0  0  0  0  0  0  0  0
    8.3389  -15.1406   22.9575 C   0  0  2  0  0  0  0  0  0  0  0  0
    8.3758  -16.1616   21.9510 N   0  0  0  0  0  0  0  0  0  0  0  0
    9.1709  -15.3658   24.1182 C   0  0  0  0  0  0  0  0  0  0  0  0
    9.1333  -14.6382   25.1323 O   0  0  0  0  0  0  0  0  0  0  0  0
    7.3174  -12.6568   24.1707 C   0  0  0  0  0  0  0  0  0  0  0  0
    7.2990  -11.7200   25.1980 C   0  0  0  0  0  0  0  0  0  0  0  0
    9.9294  -15.2998   28.4848 N   0  0  0  0  0  0  0  0  0  0  0  0
   10.4161  -16.6334   28.6279 C   0  0  0  0  0  0  0  0  0  0  0  0
   11.1066  -16.8827   29.6680 O   0  0  0  0  0  0  0  0  0  0  0  0
   10.1466  -17.6933   27.6468 C   0  0  0  0  0  0  0  0  0  0  0  0
    9.7704  -17.1605   26.3330 C   0  0  0  0  0  0  0  0  0  0  0  0
   10.8512  -16.7864   25.3615 C   0  0  2  0  0  0  0  0  0  0  0  0
   10.0737  -16.4539   24.1236 N   0  0  0  0  0  0  0  0  0  0  0  0
   11.7977  -17.8582   25.0385 C   0  0  0  0  0  0  0  0  0  0  0  0
   13.0182  -18.0152   25.6722 O   0  0  0  0  0  0  0  0  0  0  0  0
   11.5046  -18.6972   24.1345 O   0  0  0  0  0  0  0  0  0  0  0  0
  2  1  1  6
  2  3  1  0
  3  4  1  0
  5  9  1  0
  5  4  1  0
  6  5  2  0
  7  2  1  0
  8  7  2  0
 10 11  1  0
 11 12  2  0
 12 13  1  0
 14 15  1  0
 14 13  2  0
 16 15  1  1
 16 17  1  0
 17  7  1  0
 18 28  1  0
 18 16  1  0
 19 18  2  0
 20 14  1  0
 21 20  2  0
 21 11  1  0
 22 23  1  0
 23 25  1  0
 24 23  2  0
 25 26  1  0
 27 26  1  1
 27 29  1  0
 27 28  1  0
 29 30  1  0
 31 29  2  0
M  END
$$$$
