EYQ.pdb
     RDKit          3D

 31 31  0  0  1  0  0  0  0  0999 V2000
    8.3744  -12.5263   18.6671 N   0  0  0  0  0  0  0  0  0  0  0  0
    7.8881  -13.8320   19.1702 C   0  0  1  0  0  0  0  0  0  0  0  0
    8.4259  -14.8461   18.2248 C   0  0  0  0  0  0  0  0  0  0  0  0
    7.4354  -15.5935   17.4080 C   0  0  0  0  0  0  0  0  0  0  0  0
    7.9109  -17.0166   17.2710 C   0  0  0  0  0  0  0  0  0  0  0  0
    7.9367  -17.5516   16.1425 O   0  0  0  0  0  0  0  0  0  0  0  0
    8.3443  -13.9213   20.5536 C   0  0  0  0  0  0  0  0  0  0  0  0
    9.5208  -13.6893   20.9375 O   0  0  0  0  0  0  0  0  0  0  0  0
    8.3238  -17.7543   18.3701 O   0  0  0  0  0  0  0  0  0  0  0  0
    8.6522  -13.9134   29.0862 O   0  0  0  0  0  0  0  0  0  0  0  0
    8.1647  -13.8908   27.7941 C   0  0  0  0  0  0  0  0  0  0  0  0
    8.7631  -13.0471   26.8795 C   0  0  0  0  0  0  0  0  0  0  0  0
    8.3072  -12.9941   25.5797 C   0  0  0  0  0  0  0  0  0  0  0  0
    7.2497  -13.7985   25.2260 C   0  0  0  0  0  0  0  0  0  0  0  0
    6.7753  -13.7212   23.8114 C   0  0  0  0  0  0  0  0  0  0  0  0
    7.8293  -14.4105   22.9639 C   0  0  2  0  0  0  0  0  0  0  0  0
    7.4414  -14.2902   21.5884 N   0  0  0  0  0  0  0  0  0  0  0  0
    8.0133  -15.7581   23.4539 C   0  0  0  0  0  0  0  0  0  0  0  0
    7.0604  -16.5149   23.7343 O   0  0  0  0  0  0  0  0  0  0  0  0
    6.6326  -14.6470   26.1071 C   0  0  0  0  0  0  0  0  0  0  0  0
    7.1172  -14.6759   27.4101 C   0  0  0  0  0  0  0  0  0  0  0  0
   10.5005  -15.9540   29.2882 N   0  0  0  0  0  0  0  0  0  0  0  0
   11.1337  -16.1638   28.0269 C   0  0  0  0  0  0  0  0  0  0  0  0
   12.1850  -15.4847   27.7937 O   0  0  0  0  0  0  0  0  0  0  0  0
   10.6291  -17.1139   27.0263 C   0  0  0  0  0  0  0  0  0  0  0  0
   10.1537  -16.4482   25.8088 C   0  0  0  0  0  0  0  0  0  0  0  0
    9.6071  -17.2828   24.6878 C   0  0  2  0  0  0  0  0  0  0  0  0
    9.3237  -16.2592   23.6299 N   0  0  0  0  0  0  0  0  0  0  0  0
    8.3605  -17.9928   24.9894 C   0  0  0  0  0  0  0  0  0  0  0  0
    8.1253  -19.3083   24.6293 O   0  0  0  0  0  0  0  0  0  0  0  0
    7.4350  -17.3904   25.6119 O   0  0  0  0  0  0  0  0  0  0  0  0
  2  1  1  6
  2  3  1  0
  3  4  1  0
  5  9  1  0
  5  4  1  0
  6  5  2  0
  7  2  1  0
  8  7  2  0
 10 11  1  0
 11 12  2  0
 12 13  1  0
 14 15  1  0
 14 13  2  0
 16 15  1  1
 16 17  1  0
 17  7  1  0
 18 28  1  0
 18 16  1  0
 19 18  2  0
 20 14  1  0
 21 20  2  0
 21 11  1  0
 22 23  1  0
 23 25  1  0
 24 23  2  0
 25 26  1  0
 27 26  1  1
 27 29  1  0
 27 28  1  0
 29 30  1  0
 31 29  2  0
M  END
$$$$
