EYQ.pdb
     RDKit          3D

 31 31  0  0  1  0  0  0  0  0999 V2000
    9.6334  -16.6471   18.3375 N   0  0  0  0  0  0  0  0  0  0  0  0
    8.3310  -16.4446   19.0138 C   0  0  1  0  0  0  0  0  0  0  0  0
    7.6196  -17.7456   18.9011 C   0  0  0  0  0  0  0  0  0  0  0  0
    8.4241  -18.9724   19.1342 C   0  0  0  0  0  0  0  0  0  0  0  0
    7.5035  -20.1633   19.0668 C   0  0  0  0  0  0  0  0  0  0  0  0
    7.1001  -20.6908   20.1248 O   0  0  0  0  0  0  0  0  0  0  0  0
    8.6490  -15.9883   20.3632 C   0  0  0  0  0  0  0  0  0  0  0  0
    9.7391  -16.2040   20.9552 O   0  0  0  0  0  0  0  0  0  0  0  0
    7.0885  -20.6937   17.8547 O   0  0  0  0  0  0  0  0  0  0  0  0
    7.7512  -12.2984   28.1431 O   0  0  0  0  0  0  0  0  0  0  0  0
    7.5096  -12.7098   26.8470 C   0  0  0  0  0  0  0  0  0  0  0  0
    6.7005  -13.8104   26.6458 C   0  0  0  0  0  0  0  0  0  0  0  0
    6.4341  -14.2538   25.3681 C   0  0  0  0  0  0  0  0  0  0  0  0
    6.9929  -13.5739   24.3117 C   0  0  0  0  0  0  0  0  0  0  0  0
    6.6884  -14.0756   22.9379 C   0  0  0  0  0  0  0  0  0  0  0  0
    7.9203  -14.8290   22.4700 C   0  0  2  0  0  0  0  0  0  0  0  0
    7.7010  -15.2398   21.1135 N   0  0  0  0  0  0  0  0  0  0  0  0
    8.2059  -15.8868   23.4132 C   0  0  0  0  0  0  0  0  0  0  0  0
    7.4538  -16.8696   23.5798 O   0  0  0  0  0  0  0  0  0  0  0  0
    7.8000  -12.4787   24.4748 C   0  0  0  0  0  0  0  0  0  0  0  0
    8.0483  -12.0579   25.7766 C   0  0  0  0  0  0  0  0  0  0  0  0
   13.8863  -17.9497   24.4985 N   0  0  0  0  0  0  0  0  0  0  0  0
   12.9890  -17.8662   23.3923 C   0  0  0  0  0  0  0  0  0  0  0  0
   13.5052  -17.9271   22.2302 O   0  0  0  0  0  0  0  0  0  0  0  0
   11.5353  -17.7241   23.5501 C   0  0  0  0  0  0  0  0  0  0  0  0
   11.1623  -17.1874   24.8632 C   0  0  0  0  0  0  0  0  0  0  0  0
    9.7151  -16.9205   25.1571 C   0  0  2  0  0  0  0  0  0  0  0  0
    9.3850  -15.8229   24.1908 N   0  0  0  0  0  0  0  0  0  0  0  0
    9.4321  -16.4421   26.5136 C   0  0  0  0  0  0  0  0  0  0  0  0
    9.0461  -17.2732   27.5509 O   0  0  0  0  0  0  0  0  0  0  0  0
    9.5399  -15.2062   26.7739 O   0  0  0  0  0  0  0  0  0  0  0  0
  2  1  1  6
  2  3  1  0
  3  4  1  0
  5  9  1  0
  5  4  1  0
  6  5  2  0
  7  2  1  0
  8  7  2  0
 10 11  1  0
 11 12  2  0
 12 13  1  0
 14 15  1  0
 14 13  2  0
 16 15  1  1
 16 17  1  0
 17  7  1  0
 18 28  1  0
 18 16  1  0
 19 18  2  0
 20 14  1  0
 21 20  2  0
 21 11  1  0
 22 23  1  0
 23 25  1  0
 24 23  2  0
 25 26  1  0
 27 26  1  1
 27 29  1  0
 27 28  1  0
 29 30  1  0
 31 29  2  0
M  END
$$$$
