EYQ.pdb
     RDKit          3D

 31 31  0  0  1  0  0  0  0  0999 V2000
   10.1790  -16.8692   18.9079 N   0  0  0  0  0  0  0  0  0  0  0  0
    8.8215  -16.7391   19.4864 C   0  0  1  0  0  0  0  0  0  0  0  0
    8.2285  -18.1010   19.4160 C   0  0  0  0  0  0  0  0  0  0  0  0
    8.4081  -18.8457   18.1433 C   0  0  0  0  0  0  0  0  0  0  0  0
    7.7132  -20.1766   18.2704 C   0  0  0  0  0  0  0  0  0  0  0  0
    7.7000  -20.9601   17.2977 O   0  0  0  0  0  0  0  0  0  0  0  0
    9.0086  -16.1757   20.8197 C   0  0  0  0  0  0  0  0  0  0  0  0
   10.1136  -16.1014   21.4186 O   0  0  0  0  0  0  0  0  0  0  0  0
    7.0836  -20.5587   19.4453 O   0  0  0  0  0  0  0  0  0  0  0  0
    7.3953  -11.5447   27.9293 O   0  0  0  0  0  0  0  0  0  0  0  0
    7.2465  -12.1647   26.7041 C   0  0  0  0  0  0  0  0  0  0  0  0
    8.0150  -11.7233   25.6454 C   0  0  0  0  0  0  0  0  0  0  0  0
    7.8973  -12.3147   24.4059 C   0  0  0  0  0  0  0  0  0  0  0  0
    7.0006  -13.3466   24.2579 C   0  0  0  0  0  0  0  0  0  0  0  0
    6.8926  -13.9695   22.9043 C   0  0  0  0  0  0  0  0  0  0  0  0
    8.0353  -14.9626   22.7932 C   0  0  2  0  0  0  0  0  0  0  0  0
    7.9014  -15.6556   21.5447 N   0  0  0  0  0  0  0  0  0  0  0  0
    8.0499  -15.7907   23.9781 C   0  0  0  0  0  0  0  0  0  0  0  0
    8.1866  -15.3268   25.1294 O   0  0  0  0  0  0  0  0  0  0  0  0
    6.2225  -13.8097   25.2862 C   0  0  0  0  0  0  0  0  0  0  0  0
    6.3662  -13.1910   26.5231 C   0  0  0  0  0  0  0  0  0  0  0  0
   12.1867  -19.9485   24.6227 N   0  0  0  0  0  0  0  0  0  0  0  0
   12.2182  -18.5280   24.7536 C   0  0  0  0  0  0  0  0  0  0  0  0
   13.3410  -18.0045   25.0468 O   0  0  0  0  0  0  0  0  0  0  0  0
   11.0342  -17.6800   24.5594 C   0  0  0  0  0  0  0  0  0  0  0  0
    9.8409  -18.4544   24.2019 C   0  0  0  0  0  0  0  0  0  0  0  0
    8.5304  -18.1141   24.8490 C   0  0  2  0  0  0  0  0  0  0  0  0
    7.9043  -17.1910   23.8474 N   0  0  0  0  0  0  0  0  0  0  0  0
    8.6319  -17.4067   26.1289 C   0  0  0  0  0  0  0  0  0  0  0  0
    8.9898  -16.0741   26.2379 O   0  0  0  0  0  0  0  0  0  0  0  0
    8.3836  -18.0276   27.2058 O   0  0  0  0  0  0  0  0  0  0  0  0
  2  1  1  1
  2  3  1  0
  3  4  1  0
  5  9  1  0
  5  4  1  0
  6  5  2  0
  7  2  1  0
  8  7  2  0
 10 11  1  0
 11 12  2  0
 12 13  1  0
 14 15  1  0
 14 13  2  0
 16 15  1  1
 16 17  1  0
 17  7  1  0
 18 28  1  0
 18 16  1  0
 19 18  2  0
 20 14  1  0
 21 20  2  0
 21 11  1  0
 22 23  1  0
 23 25  1  0
 24 23  2  0
 25 26  1  0
 27 26  1  6
 27 29  1  0
 27 28  1  0
 29 30  1  0
 31 29  2  0
M  END
$$$$
