EYQ.pdb
     RDKit          3D

 31 31  0  0  1  0  0  0  0  0999 V2000
   10.2422  -16.6780   18.7942 N   0  0  0  0  0  0  0  0  0  0  0  0
    9.1404  -17.0809   19.6988 C   0  0  1  0  0  0  0  0  0  0  0  0
    9.2363  -18.5611   19.8051 C   0  0  0  0  0  0  0  0  0  0  0  0
    9.0395  -19.3376   18.5541 C   0  0  0  0  0  0  0  0  0  0  0  0
    9.1450  -20.8038   18.8844 C   0  0  0  0  0  0  0  0  0  0  0  0
    8.9780  -21.6521   17.9827 O   0  0  0  0  0  0  0  0  0  0  0  0
    9.3380  -16.3229   20.9302 C   0  0  0  0  0  0  0  0  0  0  0  0
   10.4187  -16.2694   21.5742 O   0  0  0  0  0  0  0  0  0  0  0  0
    9.4244  -21.2412   20.1703 O   0  0  0  0  0  0  0  0  0  0  0  0
    7.4356  -11.8606   28.0959 O   0  0  0  0  0  0  0  0  0  0  0  0
    7.3601  -12.4195   26.8352 C   0  0  0  0  0  0  0  0  0  0  0  0
    6.5334  -13.5093   26.6467 C   0  0  0  0  0  0  0  0  0  0  0  0
    6.4292  -14.0969   25.4042 C   0  0  0  0  0  0  0  0  0  0  0  0
    7.1659  -13.5702   24.3695 C   0  0  0  0  0  0  0  0  0  0  0  0
    7.0347  -14.2262   23.0336 C   0  0  0  0  0  0  0  0  0  0  0  0
    8.3033  -15.0323   22.8216 C   0  0  2  0  0  0  0  0  0  0  0  0
    8.2713  -15.5688   21.4919 N   0  0  0  0  0  0  0  0  0  0  0  0
    8.4263  -15.9976   23.8907 C   0  0  0  0  0  0  0  0  0  0  0  0
    7.5922  -16.9066   24.0842 O   0  0  0  0  0  0  0  0  0  0  0  0
    7.9956  -12.4904   24.5208 C   0  0  0  0  0  0  0  0  0  0  0  0
    8.0774  -11.9216   25.7870 C   0  0  0  0  0  0  0  0  0  0  0  0
   13.4215  -18.6728   24.0862 N   0  0  0  0  0  0  0  0  0  0  0  0
   12.8973  -19.2452   25.2833 C   0  0  0  0  0  0  0  0  0  0  0  0
   13.5645  -20.1966   25.8033 O   0  0  0  0  0  0  0  0  0  0  0  0
   11.6557  -18.7797   25.9160 C   0  0  0  0  0  0  0  0  0  0  0  0
   11.0321  -17.6729   25.1828 C   0  0  0  0  0  0  0  0  0  0  0  0
    9.7986  -17.0294   25.7453 C   0  0  2  0  0  0  0  0  0  0  0  0
    9.5338  -15.9252   24.7665 N   0  0  0  0  0  0  0  0  0  0  0  0
    9.9559  -16.4379   27.0774 C   0  0  0  0  0  0  0  0  0  0  0  0
   10.2525  -15.1026   27.2893 O   0  0  0  0  0  0  0  0  0  0  0  0
    9.8177  -17.1684   28.1041 O   0  0  0  0  0  0  0  0  0  0  0  0
  2  1  1  6
  2  3  1  0
  3  4  1  0
  5  9  1  0
  5  4  1  0
  6  5  2  0
  7  2  1  0
  8  7  2  0
 10 11  1  0
 11 12  2  0
 12 13  1  0
 14 15  1  0
 14 13  2  0
 16 15  1  1
 16 17  1  0
 17  7  1  0
 18 28  1  0
 18 16  1  0
 19 18  2  0
 20 14  1  0
 21 20  2  0
 21 11  1  0
 22 23  1  0
 23 25  1  0
 24 23  2  0
 25 26  1  0
 27 26  1  6
 27 29  1  0
 27 28  1  0
 29 30  1  0
 31 29  2  0
M  END
$$$$
