EYQ.pdb
     RDKit          3D

 31 31  0  0  1  0  0  0  0  0999 V2000
    9.6333  -17.0570   18.1566 N   0  0  0  0  0  0  0  0  0  0  0  0
    9.9413  -17.9734   19.2792 C   0  0  1  0  0  0  0  0  0  0  0  0
   11.1008  -18.7844   18.8219 C   0  0  0  0  0  0  0  0  0  0  0  0
   12.2136  -18.0525   18.1641 C   0  0  0  0  0  0  0  0  0  0  0  0
   13.3065  -19.0390   17.8442 C   0  0  0  0  0  0  0  0  0  0  0  0
   13.0826  -19.9666   17.0381 O   0  0  0  0  0  0  0  0  0  0  0  0
   10.1592  -17.1195   20.4426 C   0  0  0  0  0  0  0  0  0  0  0  0
   11.1625  -16.3776   20.6102 O   0  0  0  0  0  0  0  0  0  0  0  0
   14.5629  -18.9454   18.4235 O   0  0  0  0  0  0  0  0  0  0  0  0
    7.6996  -12.1866   18.3148 O   0  0  0  0  0  0  0  0  0  0  0  0
    7.7752  -13.0127   19.4192 C   0  0  0  0  0  0  0  0  0  0  0  0
    8.6318  -12.6642   20.4444 C   0  0  0  0  0  0  0  0  0  0  0  0
    8.7373  -13.4610   21.5642 C   0  0  0  0  0  0  0  0  0  0  0  0
    7.9715  -14.6012   21.6281 C   0  0  0  0  0  0  0  0  0  0  0  0
    8.1053  -15.4469   22.8524 C   0  0  0  0  0  0  0  0  0  0  0  0
    9.3659  -16.2728   22.6714 C   0  0  2  0  0  0  0  0  0  0  0  0
    9.2043  -17.0777   21.4954 N   0  0  0  0  0  0  0  0  0  0  0  0
    9.6329  -16.9905   23.8976 C   0  0  0  0  0  0  0  0  0  0  0  0
    8.8978  -17.9062   24.3226 O   0  0  0  0  0  0  0  0  0  0  0  0
    7.1116  -14.9771   20.6298 C   0  0  0  0  0  0  0  0  0  0  0  0
    7.0294  -14.1510   19.5144 C   0  0  0  0  0  0  0  0  0  0  0  0
   15.3609  -16.5512   25.8173 N   0  0  0  0  0  0  0  0  0  0  0  0
   14.8482  -17.4852   24.8683 C   0  0  0  0  0  0  0  0  0  0  0  0
   15.6985  -18.0676   24.1209 O   0  0  0  0  0  0  0  0  0  0  0  0
   13.4168  -17.7894   24.7377 C   0  0  0  0  0  0  0  0  0  0  0  0
   12.6388  -17.3399   25.8971 C   0  0  0  0  0  0  0  0  0  0  0  0
   11.1440  -17.4693   25.8661 C   0  0  2  0  0  0  0  0  0  0  0  0
   10.7729  -16.6547   24.6636 N   0  0  0  0  0  0  0  0  0  0  0  0
   10.4460  -16.9174   27.0312 C   0  0  0  0  0  0  0  0  0  0  0  0
   10.3378  -17.5811   28.2409 O   0  0  0  0  0  0  0  0  0  0  0  0
    9.9053  -15.7737   26.9499 O   0  0  0  0  0  0  0  0  0  0  0  0
  2  1  1  6
  2  3  1  0
  3  4  1  0
  5  9  1  0
  5  4  1  0
  6  5  2  0
  7  2  1  0
  8  7  2  0
 10 11  1  0
 11 12  2  0
 12 13  1  0
 14 15  1  0
 14 13  2  0
 16 15  1  1
 16 17  1  0
 17  7  1  0
 18 28  1  0
 18 16  1  0
 19 18  2  0
 20 14  1  0
 21 20  2  0
 21 11  1  0
 22 23  1  0
 23 25  1  0
 24 23  2  0
 25 26  1  0
 27 26  1  1
 27 29  1  0
 27 28  1  0
 29 30  1  0
 31 29  2  0
M  END
$$$$
