EYQ.pdb
     RDKit          3D

 31 31  0  0  1  0  0  0  0  0999 V2000
   10.5563  -16.8616   19.1720 N   0  0  0  0  0  0  0  0  0  0  0  0
    9.1994  -16.8510   19.7663 C   0  0  1  0  0  0  0  0  0  0  0  0
    8.7325  -18.2619   19.7130 C   0  0  0  0  0  0  0  0  0  0  0  0
    9.7522  -19.3153   19.9521 C   0  0  0  0  0  0  0  0  0  0  0  0
    9.0718  -20.6580   19.8849 C   0  0  0  0  0  0  0  0  0  0  0  0
    8.9553  -21.3422   20.9235 O   0  0  0  0  0  0  0  0  0  0  0  0
    9.3498  -16.2619   21.0931 C   0  0  0  0  0  0  0  0  0  0  0  0
   10.3917  -16.3345   21.7964 O   0  0  0  0  0  0  0  0  0  0  0  0
    8.5676  -21.1589   18.6943 O   0  0  0  0  0  0  0  0  0  0  0  0
    7.4940  -12.0031   28.3929 O   0  0  0  0  0  0  0  0  0  0  0  0
    7.4257  -12.5038   27.1075 C   0  0  0  0  0  0  0  0  0  0  0  0
    6.5368  -13.5276   26.8464 C   0  0  0  0  0  0  0  0  0  0  0  0
    6.4373  -14.0558   25.5771 C   0  0  0  0  0  0  0  0  0  0  0  0
    7.2418  -13.5374   24.5898 C   0  0  0  0  0  0  0  0  0  0  0  0
    7.1141  -14.1282   23.2235 C   0  0  0  0  0  0  0  0  0  0  0  0
    8.3284  -15.0165   23.0217 C   0  0  2  0  0  0  0  0  0  0  0  0
    8.2784  -15.5402   21.6874 N   0  0  0  0  0  0  0  0  0  0  0  0
    8.3714  -15.9955   24.0845 C   0  0  0  0  0  0  0  0  0  0  0  0
    7.4810  -16.8546   24.2531 O   0  0  0  0  0  0  0  0  0  0  0  0
    8.1344  -12.5223   24.8135 C   0  0  0  0  0  0  0  0  0  0  0  0
    8.2095  -12.0124   26.1049 C   0  0  0  0  0  0  0  0  0  0  0  0
   11.9892  -20.6990   23.6659 N   0  0  0  0  0  0  0  0  0  0  0  0
   11.8735  -19.2999   23.9205 C   0  0  0  0  0  0  0  0  0  0  0  0
   12.9286  -18.6023   23.7768 O   0  0  0  0  0  0  0  0  0  0  0  0
   10.6130  -18.6613   24.3230 C   0  0  0  0  0  0  0  0  0  0  0  0
   10.7523  -17.8647   25.5468 C   0  0  0  0  0  0  0  0  0  0  0  0
    9.5807  -17.0616   26.0309 C   0  0  2  0  0  0  0  0  0  0  0  0
    9.4629  -15.9959   24.9832 N   0  0  0  0  0  0  0  0  0  0  0  0
    9.7650  -16.4119   27.3320 C   0  0  0  0  0  0  0  0  0  0  0  0
    9.6869  -17.0849   28.5390 O   0  0  0  0  0  0  0  0  0  0  0  0
   10.0095  -15.1689   27.3790 O   0  0  0  0  0  0  0  0  0  0  0  0
  2  1  1  1
  2  3  1  0
  3  4  1  0
  5  9  1  0
  5  4  1  0
  6  5  2  0
  7  2  1  0
  8  7  2  0
 10 11  1  0
 11 12  2  0
 12 13  1  0
 14 15  1  0
 14 13  2  0
 16 15  1  1
 16 17  1  0
 17  7  1  0
 18 28  1  0
 18 16  1  0
 19 18  2  0
 20 14  1  0
 21 20  2  0
 21 11  1  0
 22 23  1  0
 23 25  1  0
 24 23  2  0
 25 26  1  0
 27 26  1  6
 27 29  1  0
 27 28  1  0
 29 30  1  0
 31 29  2  0
M  END
$$$$
