EYQ.pdb
     RDKit          3D

 31 31  0  0  1  0  0  0  0  0999 V2000
    9.0438  -18.0895   20.0594 N   0  0  0  0  0  0  0  0  0  0  0  0
   10.3574  -17.4065   20.1085 C   0  0  1  0  0  0  0  0  0  0  0  0
   10.6008  -16.9158   18.7260 C   0  0  0  0  0  0  0  0  0  0  0  0
   10.8169  -17.9453   17.6772 C   0  0  0  0  0  0  0  0  0  0  0  0
   11.0940  -17.2431   16.3732 C   0  0  0  0  0  0  0  0  0  0  0  0
   12.1134  -16.5298   16.2621 O   0  0  0  0  0  0  0  0  0  0  0  0
   10.2406  -16.3920   21.1512 C   0  0  0  0  0  0  0  0  0  0  0  0
   11.1673  -15.6164   21.5047 O   0  0  0  0  0  0  0  0  0  0  0  0
   10.2431  -17.3673   15.2854 O   0  0  0  0  0  0  0  0  0  0  0  0
    7.5186  -12.6591   17.3225 O   0  0  0  0  0  0  0  0  0  0  0  0
    7.5232  -13.0984   18.6320 C   0  0  0  0  0  0  0  0  0  0  0  0
    6.9088  -14.2996   18.9254 C   0  0  0  0  0  0  0  0  0  0  0  0
    6.8908  -14.7740   20.2195 C   0  0  0  0  0  0  0  0  0  0  0  0
    7.4969  -14.0223   21.1984 C   0  0  0  0  0  0  0  0  0  0  0  0
    7.4626  -14.5593   22.5922 C   0  0  0  0  0  0  0  0  0  0  0  0
    8.8166  -15.1981   22.8426 C   0  0  2  0  0  0  0  0  0  0  0  0
    9.0165  -16.2172   21.8534 N   0  0  0  0  0  0  0  0  0  0  0  0
    8.8795  -15.6324   24.2200 C   0  0  0  0  0  0  0  0  0  0  0  0
    8.5524  -14.9016   25.1783 O   0  0  0  0  0  0  0  0  0  0  0  0
    8.1154  -12.8267   20.9430 C   0  0  0  0  0  0  0  0  0  0  0  0
    8.1153  -12.3772   19.6272 C   0  0  0  0  0  0  0  0  0  0  0  0
    5.8237  -20.6246   26.7243 N   0  0  0  0  0  0  0  0  0  0  0  0
    6.8388  -20.1356   25.8489 C   0  0  0  0  0  0  0  0  0  0  0  0
    7.2913  -20.9524   24.9837 O   0  0  0  0  0  0  0  0  0  0  0  0
    7.3543  -18.7612   25.9102 C   0  0  0  0  0  0  0  0  0  0  0  0
    8.8196  -18.7121   25.9549 C   0  0  0  0  0  0  0  0  0  0  0  0
    9.5050  -17.3772   25.9382 C   0  0  2  0  0  0  0  0  0  0  0  0
    9.3289  -16.9401   24.5151 N   0  0  0  0  0  0  0  0  0  0  0  0
   10.9397  -17.4090   26.2375 C   0  0  0  0  0  0  0  0  0  0  0  0
   11.4498  -17.5978   27.5103 O   0  0  0  0  0  0  0  0  0  0  0  0
   11.7762  -17.2578   25.2971 O   0  0  0  0  0  0  0  0  0  0  0  0
  2  1  1  6
  2  3  1  0
  3  4  1  0
  5  9  1  0
  5  4  1  0
  6  5  2  0
  7  2  1  0
  8  7  2  0
 10 11  1  0
 11 12  2  0
 12 13  1  0
 14 15  1  0
 14 13  2  0
 16 15  1  6
 16 17  1  0
 17  7  1  0
 18 28  1  0
 18 16  1  0
 19 18  2  0
 20 14  1  0
 21 20  2  0
 21 11  1  0
 22 23  1  0
 23 25  1  0
 24 23  2  0
 25 26  1  0
 27 26  1  6
 27 29  1  0
 27 28  1  0
 29 30  1  0
 31 29  2  0
M  END
$$$$
