EYQ.pdb
     RDKit          3D

 31 31  0  0  1  0  0  0  0  0999 V2000
    7.9149  -13.3862   19.7106 N   0  0  0  0  0  0  0  0  0  0  0  0
    7.6516  -14.7398   20.2520 C   0  0  1  0  0  0  0  0  0  0  0  0
    8.2268  -15.6833   19.2568 C   0  0  0  0  0  0  0  0  0  0  0  0
    7.8766  -15.4511   17.8320 C   0  0  0  0  0  0  0  0  0  0  0  0
    8.3756  -16.6210   17.0243 C   0  0  0  0  0  0  0  0  0  0  0  0
    9.4923  -16.5544   16.4684 O   0  0  0  0  0  0  0  0  0  0  0  0
    8.2421  -14.7572   21.5866 C   0  0  0  0  0  0  0  0  0  0  0  0
    9.4022  -14.3534   21.8632 O   0  0  0  0  0  0  0  0  0  0  0  0
    7.6247  -17.7778   16.8797 O   0  0  0  0  0  0  0  0  0  0  0  0
    6.3207   -9.9449   26.6223 O   0  0  0  0  0  0  0  0  0  0  0  0
    6.4880  -11.2497   26.2016 C   0  0  0  0  0  0  0  0  0  0  0  0
    5.6664  -12.2234   26.7341 C   0  0  0  0  0  0  0  0  0  0  0  0
    5.8003  -13.5379   26.3414 C   0  0  0  0  0  0  0  0  0  0  0  0
    6.7667  -13.8462   25.4131 C   0  0  0  0  0  0  0  0  0  0  0  0
    6.8906  -15.2781   25.0052 C   0  0  0  0  0  0  0  0  0  0  0  0
    8.0438  -15.3487   24.0206 C   0  0  2  0  0  0  0  0  0  0  0  0
    7.5029  -15.2523   22.6958 N   0  0  0  0  0  0  0  0  0  0  0  0
    8.8242  -16.5329   24.3009 C   0  0  0  0  0  0  0  0  0  0  0  0
    8.4891  -17.6734   23.9183 O   0  0  0  0  0  0  0  0  0  0  0  0
    7.5986  -12.9060   24.8643 C   0  0  0  0  0  0  0  0  0  0  0  0
    7.4368  -11.5898   25.2823 C   0  0  0  0  0  0  0  0  0  0  0  0
   15.7222  -17.5038   25.3010 N   0  0  0  0  0  0  0  0  0  0  0  0
   14.5424  -17.8088   24.5589 C   0  0  0  0  0  0  0  0  0  0  0  0
   14.6211  -17.7108   23.2920 O   0  0  0  0  0  0  0  0  0  0  0  0
   13.2840  -18.2256   25.1922 C   0  0  0  0  0  0  0  0  0  0  0  0
   12.1660  -17.3362   24.8599 C   0  0  0  0  0  0  0  0  0  0  0  0
   10.8052  -17.6368   25.4165 C   0  0  2  0  0  0  0  0  0  0  0  0
   10.0236  -16.4142   25.0400 N   0  0  0  0  0  0  0  0  0  0  0  0
   10.7474  -17.7916   26.8731 C   0  0  0  0  0  0  0  0  0  0  0  0
   10.4697  -16.7496   27.7408 O   0  0  0  0  0  0  0  0  0  0  0  0
   10.9595  -18.9304   27.3878 O   0  0  0  0  0  0  0  0  0  0  0  0
  2  1  1  6
  2  3  1  0
  3  4  1  0
  5  9  1  0
  5  4  1  0
  6  5  2  0
  7  2  1  0
  8  7  2  0
 10 11  1  0
 11 12  2  0
 12 13  1  0
 14 15  1  0
 14 13  2  0
 16 15  1  1
 16 17  1  0
 17  7  1  0
 18 28  1  0
 18 16  1  0
 19 18  2  0
 20 14  1  0
 21 20  2  0
 21 11  1  0
 22 23  1  0
 23 25  1  0
 24 23  2  0
 25 26  1  0
 27 26  1  1
 27 29  1  0
 27 28  1  0
 29 30  1  0
 31 29  2  0
M  END
$$$$
