EYQ.pdb
     RDKit          3D

 31 31  0  0  1  0  0  0  0  0999 V2000
    8.7402  -15.4564   19.4897 N   0  0  0  0  0  0  0  0  0  0  0  0
    8.9653  -16.4416   20.5729 C   0  0  1  0  0  0  0  0  0  0  0  0
   10.1917  -17.1864   20.1825 C   0  0  0  0  0  0  0  0  0  0  0  0
   10.0612  -18.6578   20.0251 C   0  0  0  0  0  0  0  0  0  0  0  0
   11.3723  -19.2938   20.4081 C   0  0  0  0  0  0  0  0  0  0  0  0
   11.3753  -20.3068   21.1390 O   0  0  0  0  0  0  0  0  0  0  0  0
    9.0362  -15.6670   21.8079 C   0  0  0  0  0  0  0  0  0  0  0  0
    9.7971  -14.6813   21.9938 O   0  0  0  0  0  0  0  0  0  0  0  0
   12.5842  -18.7827   19.9689 O   0  0  0  0  0  0  0  0  0  0  0  0
    6.2956   -9.8727   26.5157 O   0  0  0  0  0  0  0  0  0  0  0  0
    6.4065  -11.1784   26.0793 C   0  0  0  0  0  0  0  0  0  0  0  0
    6.7043  -11.4051   24.7503 C   0  0  0  0  0  0  0  0  0  0  0  0
    6.8238  -12.6931   24.2739 C   0  0  0  0  0  0  0  0  0  0  0  0
    6.6393  -13.7337   25.1535 C   0  0  0  0  0  0  0  0  0  0  0  0
    6.7742  -15.1193   24.6111 C   0  0  0  0  0  0  0  0  0  0  0  0
    8.2123  -15.2636   24.1471 C   0  0  2  0  0  0  0  0  0  0  0  0
    8.2099  -15.9997   22.9162 N   0  0  0  0  0  0  0  0  0  0  0  0
    8.9941  -15.8314   25.2224 C   0  0  0  0  0  0  0  0  0  0  0  0
    9.1685  -15.2520   26.3148 O   0  0  0  0  0  0  0  0  0  0  0  0
    6.3429  -13.5453   26.4778 C   0  0  0  0  0  0  0  0  0  0  0  0
    6.2296  -12.2337   26.9255 C   0  0  0  0  0  0  0  0  0  0  0  0
    7.0746  -20.6189   27.1321 N   0  0  0  0  0  0  0  0  0  0  0  0
    8.2617  -20.6395   27.9234 C   0  0  0  0  0  0  0  0  0  0  0  0
    8.3190  -21.5131   28.8477 O   0  0  0  0  0  0  0  0  0  0  0  0
    9.3849  -19.7179   27.7053 C   0  0  0  0  0  0  0  0  0  0  0  0
    9.1229  -18.7577   26.6279 C   0  0  0  0  0  0  0  0  0  0  0  0
   10.2118  -17.8116   26.2141 C   0  0  2  0  0  0  0  0  0  0  0  0
    9.5961  -17.0988   25.0479 N   0  0  0  0  0  0  0  0  0  0  0  0
   11.4531  -18.4482   25.7634 C   0  0  0  0  0  0  0  0  0  0  0  0
   11.8952  -18.4150   24.4523 O   0  0  0  0  0  0  0  0  0  0  0  0
   12.1758  -19.0673   26.6008 O   0  0  0  0  0  0  0  0  0  0  0  0
  2  1  1  6
  2  3  1  0
  3  4  1  0
  5  9  1  0
  5  4  1  0
  6  5  2  0
  7  2  1  0
  8  7  2  0
 10 11  1  0
 11 12  2  0
 12 13  1  0
 14 15  1  0
 14 13  2  0
 16 15  1  1
 16 17  1  0
 17  7  1  0
 18 28  1  0
 18 16  1  0
 19 18  2  0
 20 14  1  0
 21 20  2  0
 21 11  1  0
 22 23  1  0
 23 25  1  0
 24 23  2  0
 25 26  1  0
 27 26  1  6
 27 29  1  0
 27 28  1  0
 29 30  1  0
 31 29  2  0
M  END
$$$$
