EYQ.pdb
     RDKit          3D

 31 31  0  0  1  0  0  0  0  0999 V2000
   10.5179  -17.3976   17.7918 N   0  0  0  0  0  0  0  0  0  0  0  0
    9.9090  -18.0849   18.9544 C   0  0  1  0  0  0  0  0  0  0  0  0
   10.5611  -19.4201   19.0115 C   0  0  0  0  0  0  0  0  0  0  0  0
   10.4376  -20.2790   17.8057 C   0  0  0  0  0  0  0  0  0  0  0  0
   11.0938  -21.6035   18.0977 C   0  0  0  0  0  0  0  0  0  0  0  0
   11.9876  -22.0293   17.3360 O   0  0  0  0  0  0  0  0  0  0  0  0
   10.1246  -17.2027   20.0969 C   0  0  0  0  0  0  0  0  0  0  0  0
   11.1681  -16.5262   20.2941 O   0  0  0  0  0  0  0  0  0  0  0  0
   10.7310  -22.3683   19.1959 O   0  0  0  0  0  0  0  0  0  0  0  0
    7.2180  -12.1217   18.1953 O   0  0  0  0  0  0  0  0  0  0  0  0
    7.4398  -12.9355   19.2889 C   0  0  0  0  0  0  0  0  0  0  0  0
    6.8333  -14.1756   19.3204 C   0  0  0  0  0  0  0  0  0  0  0  0
    7.0285  -15.0186   20.3933 C   0  0  0  0  0  0  0  0  0  0  0  0
    7.8370  -14.5912   21.4202 C   0  0  0  0  0  0  0  0  0  0  0  0
    8.0313  -15.5242   22.5708 C   0  0  0  0  0  0  0  0  0  0  0  0
    9.3108  -16.2923   22.2929 C   0  0  2  0  0  0  0  0  0  0  0  0
    9.1200  -17.0529   21.0921 N   0  0  0  0  0  0  0  0  0  0  0  0
    9.6650  -17.0498   23.4722 C   0  0  0  0  0  0  0  0  0  0  0  0
    9.1004  -18.1178   23.7884 O   0  0  0  0  0  0  0  0  0  0  0  0
    8.4542  -13.3680   21.4218 C   0  0  0  0  0  0  0  0  0  0  0  0
    8.2362  -12.5424   20.3245 C   0  0  0  0  0  0  0  0  0  0  0  0
   15.3442  -16.4301   24.8321 N   0  0  0  0  0  0  0  0  0  0  0  0
   14.7494  -17.4023   23.9738 C   0  0  0  0  0  0  0  0  0  0  0  0
   15.4621  -17.8264   23.0080 O   0  0  0  0  0  0  0  0  0  0  0  0
   13.3871  -17.9163   24.1699 C   0  0  0  0  0  0  0  0  0  0  0  0
   12.7011  -17.2747   25.2964 C   0  0  0  0  0  0  0  0  0  0  0  0
   11.2150  -17.4341   25.4312 C   0  0  2  0  0  0  0  0  0  0  0  0
   10.6946  -16.5760   24.3175 N   0  0  0  0  0  0  0  0  0  0  0  0
   10.6474  -16.9482   26.6924 C   0  0  0  0  0  0  0  0  0  0  0  0
   10.8048  -17.6022   27.9021 O   0  0  0  0  0  0  0  0  0  0  0  0
    9.9732  -15.8748   26.7001 O   0  0  0  0  0  0  0  0  0  0  0  0
  2  1  1  6
  2  3  1  0
  3  4  1  0
  5  9  1  0
  5  4  1  0
  6  5  2  0
  7  2  1  0
  8  7  2  0
 10 11  1  0
 11 12  2  0
 12 13  1  0
 14 15  1  0
 14 13  2  0
 16 15  1  1
 16 17  1  0
 17  7  1  0
 18 28  1  0
 18 16  1  0
 19 18  2  0
 20 14  1  0
 21 20  2  0
 21 11  1  0
 22 23  1  0
 23 25  1  0
 24 23  2  0
 25 26  1  0
 27 26  1  1
 27 29  1  0
 27 28  1  0
 29 30  1  0
 31 29  2  0
M  END
$$$$
