EYQ.pdb
     RDKit          3D

 31 31  0  0  1  0  0  0  0  0999 V2000
    9.5986  -17.4226   17.5142 N   0  0  0  0  0  0  0  0  0  0  0  0
    9.2294  -18.1794   18.7331 C   0  0  1  0  0  0  0  0  0  0  0  0
    9.8077  -19.5367   18.5469 C   0  0  0  0  0  0  0  0  0  0  0  0
   11.2716  -19.6149   18.3067 C   0  0  0  0  0  0  0  0  0  0  0  0
   11.6500  -21.0651   18.1525 C   0  0  0  0  0  0  0  0  0  0  0  0
   12.8377  -21.3699   17.9137 O   0  0  0  0  0  0  0  0  0  0  0  0
    9.7399  -17.3998   19.8564 C   0  0  0  0  0  0  0  0  0  0  0  0
   10.8785  -16.8640   19.8993 O   0  0  0  0  0  0  0  0  0  0  0  0
   10.7104  -22.0782   18.2691 O   0  0  0  0  0  0  0  0  0  0  0  0
    6.7448  -12.0616   18.5308 O   0  0  0  0  0  0  0  0  0  0  0  0
    7.0679  -12.9612   19.5277 C   0  0  0  0  0  0  0  0  0  0  0  0
    8.0389  -12.6080   20.4436 C   0  0  0  0  0  0  0  0  0  0  0  0
    8.3910  -13.4768   21.4542 C   0  0  0  0  0  0  0  0  0  0  0  0
    7.7525  -14.6927   21.5213 C   0  0  0  0  0  0  0  0  0  0  0  0
    8.1533  -15.6153   22.6259 C   0  0  0  0  0  0  0  0  0  0  0  0
    9.3588  -16.3903   22.1256 C   0  0  2  0  0  0  0  0  0  0  0  0
    8.9399  -17.1937   21.0137 N   0  0  0  0  0  0  0  0  0  0  0  0
    9.9474  -17.1046   23.2361 C   0  0  0  0  0  0  0  0  0  0  0  0
    9.5334  -18.2169   23.6243 O   0  0  0  0  0  0  0  0  0  0  0  0
    6.7850  -15.0756   20.6298 C   0  0  0  0  0  0  0  0  0  0  0  0
    6.4538  -14.1756   19.6229 C   0  0  0  0  0  0  0  0  0  0  0  0
   16.9091  -17.1900   25.5680 N   0  0  0  0  0  0  0  0  0  0  0  0
   15.6741  -16.8316   24.9501 C   0  0  0  0  0  0  0  0  0  0  0  0
   15.7222  -15.9260   24.0566 O   0  0  0  0  0  0  0  0  0  0  0  0
   14.3929  -17.4610   25.2979 C   0  0  0  0  0  0  0  0  0  0  0  0
   13.2695  -16.9084   24.5336 C   0  0  0  0  0  0  0  0  0  0  0  0
   11.8770  -17.3722   24.8463 C   0  0  2  0  0  0  0  0  0  0  0  0
   11.0417  -16.5339   23.9260 N   0  0  0  0  0  0  0  0  0  0  0  0
   11.4332  -17.1298   26.2223 C   0  0  0  0  0  0  0  0  0  0  0  0
   11.7768  -17.9418   27.2892 O   0  0  0  0  0  0  0  0  0  0  0  0
   10.6951  -16.1299   26.4722 O   0  0  0  0  0  0  0  0  0  0  0  0
  2  1  1  6
  2  3  1  0
  3  4  1  0
  5  9  1  0
  5  4  1  0
  6  5  2  0
  7  2  1  0
  8  7  2  0
 10 11  1  0
 11 12  2  0
 12 13  1  0
 14 15  1  0
 14 13  2  0
 16 15  1  1
 16 17  1  0
 17  7  1  0
 18 28  1  0
 18 16  1  0
 19 18  2  0
 20 14  1  0
 21 20  2  0
 21 11  1  0
 22 23  1  0
 23 25  1  0
 24 23  2  0
 25 26  1  0
 27 26  1  1
 27 29  1  0
 27 28  1  0
 29 30  1  0
 31 29  2  0
M  END
$$$$
