EYQ.pdb
     RDKit          3D

 31 31  0  0  1  0  0  0  0  0999 V2000
   10.4469  -16.7808   19.6441 N   0  0  0  0  0  0  0  0  0  0  0  0
   11.5770  -16.2741   20.4570 C   0  0  1  0  0  0  0  0  0  0  0  0
   12.2919  -15.3070   19.5823 C   0  0  0  0  0  0  0  0  0  0  0  0
   12.8282  -15.8316   18.3002 C   0  0  0  0  0  0  0  0  0  0  0  0
   13.5565  -14.7148   17.5984 C   0  0  0  0  0  0  0  0  0  0  0  0
   13.6330  -14.7171   16.3516 O   0  0  0  0  0  0  0  0  0  0  0  0
   10.9817  -15.7364   21.6762 C   0  0  0  0  0  0  0  0  0  0  0  0
   11.6132  -15.1093   22.5669 O   0  0  0  0  0  0  0  0  0  0  0  0
   14.1483  -13.6773   18.3026 O   0  0  0  0  0  0  0  0  0  0  0  0
    8.4674  -12.0390   17.8536 O   0  0  0  0  0  0  0  0  0  0  0  0
    8.2652  -12.6918   19.0539 C   0  0  0  0  0  0  0  0  0  0  0  0
    7.7314  -13.9650   19.0289 C   0  0  0  0  0  0  0  0  0  0  0  0
    7.5136  -14.6512   20.2044 C   0  0  0  0  0  0  0  0  0  0  0  0
    7.8408  -14.0356   21.3895 C   0  0  0  0  0  0  0  0  0  0  0  0
    7.5944  -14.8014   22.6484 C   0  0  0  0  0  0  0  0  0  0  0  0
    8.9378  -15.3553   23.0873 C   0  0  2  0  0  0  0  0  0  0  0  0
    9.5925  -15.8988   21.9328 N   0  0  0  0  0  0  0  0  0  0  0  0
    8.7279  -16.2715   24.1857 C   0  0  0  0  0  0  0  0  0  0  0  0
    7.8428  -17.1523   24.1757 O   0  0  0  0  0  0  0  0  0  0  0  0
    8.3719  -12.7741   21.4512 C   0  0  0  0  0  0  0  0  0  0  0  0
    8.5787  -12.1099   20.2472 C   0  0  0  0  0  0  0  0  0  0  0  0
   12.1016  -19.6199   23.1261 N   0  0  0  0  0  0  0  0  0  0  0  0
   12.0072  -20.1572   24.4444 C   0  0  0  0  0  0  0  0  0  0  0  0
   12.6329  -21.2434   24.6665 O   0  0  0  0  0  0  0  0  0  0  0  0
   11.2407  -19.5115   25.5188 C   0  0  0  0  0  0  0  0  0  0  0  0
   10.6798  -18.2192   25.1105 C   0  0  0  0  0  0  0  0  0  0  0  0
    9.9028  -17.4134   26.1100 C   0  0  2  0  0  0  0  0  0  0  0  0
    9.5520  -16.1816   25.3310 N   0  0  0  0  0  0  0  0  0  0  0  0
   10.6529  -17.0078   27.3025 C   0  0  0  0  0  0  0  0  0  0  0  0
   10.7544  -17.7872   28.4418 O   0  0  0  0  0  0  0  0  0  0  0  0
   11.2480  -15.8886   27.3138 O   0  0  0  0  0  0  0  0  0  0  0  0
  2  1  1  6
  2  3  1  0
  3  4  1  0
  5  9  1  0
  5  4  1  0
  6  5  2  0
  7  2  1  0
  8  7  2  0
 10 11  1  0
 11 12  2  0
 12 13  1  0
 14 15  1  0
 14 13  2  0
 16 15  1  6
 16 17  1  0
 17  7  1  0
 18 28  1  0
 18 16  1  0
 19 18  2  0
 20 14  1  0
 21 20  2  0
 21 11  1  0
 22 23  1  0
 23 25  1  0
 24 23  2  0
 25 26  1  0
 27 26  1  6
 27 29  1  0
 27 28  1  0
 29 30  1  0
 31 29  2  0
M  END
$$$$
