IFS.pdb
     RDKit          3D

 26 26  0  0  1  0  0  0  0  0999 V2000
   36.8004   -3.5930    4.5881 C   0  0  0  0  0  0  0  0  0  0  0  0
   35.7758   -3.1092    3.5974 C   0  0  0  0  0  0  0  0  0  0  0  0
   34.6540   -2.3892    4.2815 C   0  0  2  0  0  0  0  0  0  0  0  0
   34.0115   -3.3200    5.3117 C   0  0  0  0  0  0  0  0  0  0  0  0
   33.5916   -1.8568    3.3531 C   0  0  2  0  0  0  0  0  0  0  0  0
   34.2471   -0.8468    2.4847 N   0  0  0  0  0  0  0  0  0  0  0  0
   32.4639   -1.1742    3.9600 C   0  0  0  0  0  0  0  0  0  0  0  0
   32.6256   -0.0677    4.5302 O   0  0  0  0  0  0  0  0  0  0  0  0
   31.1585   -1.7103    3.9318 N   0  0  0  0  0  0  0  0  0  0  0  0
   29.9850   -1.1588    4.5233 C   0  0  1  0  0  0  0  0  0  0  0  0
   28.7642   -1.0670    3.6233 C   0  0  0  0  0  0  0  0  0  0  0  0
   27.6118   -0.3875    4.2717 C   0  0  0  0  0  0  0  0  0  0  0  0
   26.6843   -1.1513    5.0030 C   0  0  0  0  0  0  0  0  0  0  0  0
   25.5903   -0.5825    5.6089 C   0  0  0  0  0  0  0  0  0  0  0  0
   25.3426    0.7670    5.5330 C   0  0  0  0  0  0  0  0  0  0  0  0
   26.2347    1.5341    4.8236 C   0  0  0  0  0  0  0  0  0  0  0  0
   27.3522    0.9571    4.2036 C   0  0  0  0  0  0  0  0  0  0  0  0
   29.6009   -1.7805    5.8115 C   0  0  0  0  0  0  0  0  0  0  0  0
   29.3412   -3.0085    5.8800 O   0  0  0  0  0  0  0  0  0  0  0  0
   30.0264   -1.9538   10.5238 O   0  0  0  0  0  0  0  0  0  0  0  0
   30.2596   -1.2553    9.3436 C   0  0  0  0  0  0  0  0  0  0  0  0
   29.2311   -1.6508    8.3069 C   0  0  2  0  0  0  0  0  0  0  0  0
   29.5063   -1.0321    7.0245 N   0  0  0  0  0  0  0  0  0  0  0  0
   27.8587   -1.2905    8.7336 C   0  0  0  0  0  0  0  0  0  0  0  0
   27.3583   -0.1736    8.4199 O   0  0  0  0  0  0  0  0  0  0  0  0
   27.0954   -2.1659    9.4832 O   0  0  0  0  0  0  0  0  0  0  0  0
  2  1  1  0
  3  2  1  0
  3  4  1  1
  5  3  1  0
  5  6  1  6
  7  9  1  0
  7  5  1  0
  8  7  2  0
 10 11  1  6
 10  9  1  0
 12 17  2  0
 12 11  1  0
 13 12  1  0
 14 15  1  0
 14 13  2  0
 15 16  2  0
 16 17  1  0
 18 10  1  0
 18 19  2  0
 20 21  1  0
 22 21  1  1
 22 24  1  0
 22 23  1  0
 23 18  1  0
 24 26  1  0
 25 24  2  0
M  END
$$$$
