IFS.pdb
     RDKit          3D

 26 26  0  0  1  0  0  0  0  0999 V2000
   30.1532  -20.4869  -11.3461 C   0  0  0  0  0  0  0  0  0  0  0  0
   28.7848  -20.1785  -11.8918 C   0  0  0  0  0  0  0  0  0  0  0  0
   28.6538  -20.6224  -13.3168 C   0  0  2  0  0  0  0  0  0  0  0  0
   29.7196  -19.9233  -14.1627 C   0  0  0  0  0  0  0  0  0  0  0  0
   27.2942  -20.3862  -13.9251 C   0  0  2  0  0  0  0  0  0  0  0  0
   27.0664  -18.9192  -13.9106 N   0  0  0  0  0  0  0  0  0  0  0  0
   26.1530  -20.9634  -13.2393 C   0  0  0  0  0  0  0  0  0  0  0  0
   26.0162  -22.2097  -13.1760 O   0  0  0  0  0  0  0  0  0  0  0  0
   25.1677  -20.1654  -12.6193 N   0  0  0  0  0  0  0  0  0  0  0  0
   23.9845  -20.6098  -11.9608 C   0  0  1  0  0  0  0  0  0  0  0  0
   23.6267  -19.8880  -10.6725 C   0  0  0  0  0  0  0  0  0  0  0  0
   24.6476  -20.0594   -9.6054 C   0  0  0  0  0  0  0  0  0  0  0  0
   24.9680  -21.3547   -9.1604 C   0  0  0  0  0  0  0  0  0  0  0  0
   25.8895  -21.5749   -8.1655 C   0  0  0  0  0  0  0  0  0  0  0  0
   26.5496  -20.5389   -7.5498 C   0  0  0  0  0  0  0  0  0  0  0  0
   26.2531  -19.2640   -7.9672 C   0  0  0  0  0  0  0  0  0  0  0  0
   25.3130  -19.0353   -8.9823 C   0  0  0  0  0  0  0  0  0  0  0  0
   22.7899  -20.6799  -12.8335 C   0  0  0  0  0  0  0  0  0  0  0  0
   22.4297  -19.6842  -13.5108 O   0  0  0  0  0  0  0  0  0  0  0  0
   20.3766  -24.1545  -13.0833 O   0  0  0  0  0  0  0  0  0  0  0  0
   20.5396  -23.3673  -14.2187 C   0  0  0  0  0  0  0  0  0  0  0  0
   20.8306  -21.9398  -13.8103 C   0  0  2  0  0  0  0  0  0  0  0  0
   21.9960  -21.8617  -12.9509 N   0  0  0  0  0  0  0  0  0  0  0  0
   19.6754  -21.3238  -13.1165 C   0  0  0  0  0  0  0  0  0  0  0  0
   19.7664  -20.9616  -11.9096 O   0  0  0  0  0  0  0  0  0  0  0  0
   18.4736  -21.1314  -13.7720 O   0  0  0  0  0  0  0  0  0  0  0  0
  2  1  1  0
  3  2  1  0
  3  4  1  6
  5  3  1  0
  5  6  1  1
  7  9  1  0
  7  5  1  0
  8  7  2  0
 10 11  1  1
 10  9  1  0
 12 17  2  0
 12 11  1  0
 13 12  1  0
 14 15  1  0
 14 13  2  0
 15 16  2  0
 16 17  1  0
 18 10  1  0
 18 19  2  0
 20 21  1  0
 22 21  1  1
 22 24  1  0
 22 23  1  0
 23 18  1  0
 24 26  1  0
 25 24  2  0
M  END
$$$$
