IFS.pdb
     RDKit          3D

 26 26  0  0  1  0  0  0  0  0999 V2000
   18.8208  -18.8734  -11.2460 C   0  0  0  0  0  0  0  0  0  0  0  0
   19.6941  -20.0953  -11.3439 C   0  0  0  0  0  0  0  0  0  0  0  0
   21.0070  -19.7762  -11.9915 C   0  0  2  0  0  0  0  0  0  0  0  0
   20.7536  -19.1754  -13.3755 C   0  0  0  0  0  0  0  0  0  0  0  0
   21.9463  -20.9493  -12.1168 C   0  0  2  0  0  0  0  0  0  0  0  0
   22.0158  -21.5885  -10.7787 N   0  0  0  0  0  0  0  0  0  0  0  0
   23.3209  -20.6605  -12.4814 C   0  0  0  0  0  0  0  0  0  0  0  0
   23.5764  -19.7915  -13.3505 O   0  0  0  0  0  0  0  0  0  0  0  0
   24.4119  -21.3264  -11.8826 N   0  0  0  0  0  0  0  0  0  0  0  0
   25.7983  -21.1112  -12.1326 C   0  0  1  0  0  0  0  0  0  0  0  0
   26.7363  -21.3834  -10.9686 C   0  0  0  0  0  0  0  0  0  0  0  0
   26.3158  -20.7106   -9.7114 C   0  0  0  0  0  0  0  0  0  0  0  0
   25.8943  -21.4913   -8.6200 C   0  0  0  0  0  0  0  0  0  0  0  0
   25.4773  -20.9262   -7.4392 C   0  0  0  0  0  0  0  0  0  0  0  0
   25.4495  -19.5640   -7.2603 C   0  0  0  0  0  0  0  0  0  0  0  0
   25.8564  -18.7802   -8.3126 C   0  0  0  0  0  0  0  0  0  0  0  0
   26.2824  -19.3534   -9.5194 C   0  0  0  0  0  0  0  0  0  0  0  0
   26.3117  -21.7867  -13.3465 C   0  0  0  0  0  0  0  0  0  0  0  0
   27.4999  -21.6192  -13.7210 O   0  0  0  0  0  0  0  0  0  0  0  0
   25.6917  -25.1011  -16.8502 O   0  0  0  0  0  0  0  0  0  0  0  0
   25.1483  -24.4830  -15.7286 C   0  0  0  0  0  0  0  0  0  0  0  0
   25.9802  -23.2738  -15.3612 C   0  0  2  0  0  0  0  0  0  0  0  0
   25.4993  -22.6499  -14.1437 N   0  0  0  0  0  0  0  0  0  0  0  0
   25.9918  -22.2677  -16.4488 C   0  0  0  0  0  0  0  0  0  0  0  0
   25.0430  -21.4429  -16.5743 O   0  0  0  0  0  0  0  0  0  0  0  0
   27.0386  -22.2080  -17.3498 O   0  0  0  0  0  0  0  0  0  0  0  0
  2  1  1  0
  3  2  1  0
  3  4  1  6
  5  3  1  0
  5  6  1  1
  7  9  1  0
  7  5  1  0
  8  7  2  0
 10 11  1  1
 10  9  1  0
 12 17  2  0
 12 11  1  0
 13 12  1  0
 14 15  1  0
 14 13  2  0
 15 16  2  0
 16 17  1  0
 18 10  1  0
 18 19  2  0
 20 21  1  0
 22 21  1  6
 22 24  1  0
 22 23  1  0
 23 18  1  0
 24 26  1  0
 25 24  2  0
M  END
$$$$
