IFS.pdb
     RDKit          3D

 26 26  0  0  1  0  0  0  0  0999 V2000
   20.6143  -13.0049  -21.3357 C   0  0  0  0  0  0  0  0  0  0  0  0
   22.0589  -12.7325  -21.0132 C   0  0  0  0  0  0  0  0  0  0  0  0
   22.2099  -12.1446  -19.6434 C   0  0  2  0  0  0  0  0  0  0  0  0
   21.3704  -10.8694  -19.5468 C   0  0  0  0  0  0  0  0  0  0  0  0
   23.6322  -11.8418  -19.2439 C   0  0  2  0  0  0  0  0  0  0  0  0
   24.3470  -13.1416  -19.1828 N   0  0  0  0  0  0  0  0  0  0  0  0
   23.8382  -11.2238  -17.9471 C   0  0  0  0  0  0  0  0  0  0  0  0
   23.6548  -11.8835  -16.8950 O   0  0  0  0  0  0  0  0  0  0  0  0
   24.2518   -9.8811  -17.8129 N   0  0  0  0  0  0  0  0  0  0  0  0
   24.3862   -9.1349  -16.6062 C   0  0  1  0  0  0  0  0  0  0  0  0
   25.8077   -8.8212  -16.1705 C   0  0  0  0  0  0  0  0  0  0  0  0
   26.6658  -10.0307  -16.0665 C   0  0  0  0  0  0  0  0  0  0  0  0
   27.5756  -10.3207  -17.0992 C   0  0  0  0  0  0  0  0  0  0  0  0
   28.3816  -11.4328  -17.0677 C   0  0  0  0  0  0  0  0  0  0  0  0
   28.3422  -12.3243  -16.0228 C   0  0  0  0  0  0  0  0  0  0  0  0
   27.4609  -12.0626  -15.0019 C   0  0  0  0  0  0  0  0  0  0  0  0
   26.6365  -10.9286  -15.0307 C   0  0  0  0  0  0  0  0  0  0  0  0
   23.5731   -7.8979  -16.5596 C   0  0  0  0  0  0  0  0  0  0  0  0
   23.4135   -7.1948  -17.5893 O   0  0  0  0  0  0  0  0  0  0  0  0
   20.2044   -5.3062  -14.2079 O   0  0  0  0  0  0  0  0  0  0  0  0
   21.0802   -6.3864  -14.1688 C   0  0  0  0  0  0  0  0  0  0  0  0
   22.0374   -6.3075  -15.3378 C   0  0  2  0  0  0  0  0  0  0  0  0
   22.9372   -7.4444  -15.3635 N   0  0  0  0  0  0  0  0  0  0  0  0
   22.8352   -5.0593  -15.3074 C   0  0  0  0  0  0  0  0  0  0  0  0
   24.0596   -5.0842  -14.9973 O   0  0  0  0  0  0  0  0  0  0  0  0
   22.2597   -3.8411  -15.6169 O   0  0  0  0  0  0  0  0  0  0  0  0
  2  1  1  0
  3  2  1  0
  3  4  1  6
  5  3  1  0
  5  6  1  1
  7  9  1  0
  7  5  1  0
  8  7  2  0
 10 11  1  6
 10  9  1  0
 12 17  2  0
 12 11  1  0
 13 12  1  0
 14 15  1  0
 14 13  2  0
 15 16  2  0
 16 17  1  0
 18 10  1  0
 18 19  2  0
 20 21  1  0
 22 21  1  1
 22 24  1  0
 22 23  1  0
 23 18  1  0
 24 26  1  0
 25 24  2  0
M  END
$$$$
