IFS.pdb
     RDKit          3D

 26 26  0  0  1  0  0  0  0  0999 V2000
   28.8036  -18.4281  -17.1708 C   0  0  0  0  0  0  0  0  0  0  0  0
   28.7238  -19.5469  -16.1673 C   0  0  0  0  0  0  0  0  0  0  0  0
   28.6016  -20.8781  -16.8440 C   0  0  2  0  0  0  0  0  0  0  0  0
   29.0686  -20.7507  -18.2952 C   0  0  0  0  0  0  0  0  0  0  0  0
   27.2164  -21.4735  -16.8119 C   0  0  2  0  0  0  0  0  0  0  0  0
   26.3264  -20.5292  -17.5333 N   0  0  0  0  0  0  0  0  0  0  0  0
   26.6073  -21.6626  -15.5084 C   0  0  0  0  0  0  0  0  0  0  0  0
   26.8470  -22.6990  -14.8419 O   0  0  0  0  0  0  0  0  0  0  0  0
   25.7396  -20.7058  -14.9395 N   0  0  0  0  0  0  0  0  0  0  0  0
   25.1012  -20.7669  -13.6669 C   0  0  1  0  0  0  0  0  0  0  0  0
   25.5812  -19.7645  -12.6307 C   0  0  0  0  0  0  0  0  0  0  0  0
   26.8224  -20.1947  -11.9347 C   0  0  0  0  0  0  0  0  0  0  0  0
   28.0705  -19.9371  -12.5299 C   0  0  0  0  0  0  0  0  0  0  0  0
   29.2504  -20.3264  -11.9436 C   0  0  0  0  0  0  0  0  0  0  0  0
   29.2749  -20.9903  -10.7408 C   0  0  0  0  0  0  0  0  0  0  0  0
   28.0678  -21.2538  -10.1399 C   0  0  0  0  0  0  0  0  0  0  0  0
   26.8615  -20.8582  -10.7355 C   0  0  0  0  0  0  0  0  0  0  0  0
   23.6214  -20.7444  -13.7246 C   0  0  0  0  0  0  0  0  0  0  0  0
   23.0209  -19.9707  -14.5124 O   0  0  0  0  0  0  0  0  0  0  0  0
   19.3775  -22.6343  -12.2024 O   0  0  0  0  0  0  0  0  0  0  0  0
   20.7638  -22.6545  -12.0878 C   0  0  0  0  0  0  0  0  0  0  0  0
   21.3612  -21.5640  -12.9498 C   0  0  2  0  0  0  0  0  0  0  0  0
   22.8104  -21.5857  -12.9028 N   0  0  0  0  0  0  0  0  0  0  0  0
   20.8837  -20.2220  -12.5419 C   0  0  0  0  0  0  0  0  0  0  0  0
   21.5128  -19.5491  -11.6773 O   0  0  0  0  0  0  0  0  0  0  0  0
   19.7412  -19.6760  -13.0966 O   0  0  0  0  0  0  0  0  0  0  0  0
  2  1  1  0
  3  2  1  0
  3  4  1  6
  5  3  1  0
  5  6  1  6
  7  9  1  0
  7  5  1  0
  8  7  2  0
 10 11  1  1
 10  9  1  0
 12 17  2  0
 12 11  1  0
 13 12  1  0
 14 15  1  0
 14 13  2  0
 15 16  2  0
 16 17  1  0
 18 10  1  0
 18 19  2  0
 20 21  1  0
 22 21  1  1
 22 24  1  0
 22 23  1  0
 23 18  1  0
 24 26  1  0
 25 24  2  0
M  END
$$$$
