IFS.pdb
     RDKit          3D

 26 26  0  0  1  0  0  0  0  0999 V2000
   31.8019  -21.1541  -20.9133 C   0  0  0  0  0  0  0  0  0  0  0  0
   30.3362  -21.2825  -20.5962 C   0  0  0  0  0  0  0  0  0  0  0  0
   29.9531  -22.7116  -20.3599 C   0  0  2  0  0  0  0  0  0  0  0  0
   30.2678  -23.5317  -21.6124 C   0  0  0  0  0  0  0  0  0  0  0  0
   28.5104  -22.9185  -19.9726 C   0  0  2  0  0  0  0  0  0  0  0  0
   28.2864  -22.1483  -18.7234 N   0  0  0  0  0  0  0  0  0  0  0  0
   28.0939  -24.2758  -19.6722 C   0  0  0  0  0  0  0  0  0  0  0  0
   28.1271  -25.1601  -20.5626 O   0  0  0  0  0  0  0  0  0  0  0  0
   27.6471  -24.6570  -18.3888 N   0  0  0  0  0  0  0  0  0  0  0  0
   27.0665  -25.9024  -18.0106 C   0  0  1  0  0  0  0  0  0  0  0  0
   27.3853  -26.3882  -16.6066 C   0  0  0  0  0  0  0  0  0  0  0  0
   26.7692  -27.7039  -16.2912 C   0  0  0  0  0  0  0  0  0  0  0  0
   25.5100  -27.7427  -15.6656 C   0  0  0  0  0  0  0  0  0  0  0  0
   24.8989  -28.9274  -15.3334 C   0  0  0  0  0  0  0  0  0  0  0  0
   25.4865  -30.1417  -15.5949 C   0  0  0  0  0  0  0  0  0  0  0  0
   26.7173  -30.1296  -16.2053 C   0  0  0  0  0  0  0  0  0  0  0  0
   27.3442  -28.9223  -16.5457 C   0  0  0  0  0  0  0  0  0  0  0  0
   25.6063  -25.9906  -18.2420 C   0  0  0  0  0  0  0  0  0  0  0  0
   24.8250  -25.1391  -17.7475 O   0  0  0  0  0  0  0  0  0  0  0  0
   23.1759  -26.8041  -21.6047 O   0  0  0  0  0  0  0  0  0  0  0  0
   23.3052  -27.7702  -20.6121 C   0  0  0  0  0  0  0  0  0  0  0  0
   23.5919  -27.1012  -19.2857 C   0  0  2  0  0  0  0  0  0  0  0  0
   25.0168  -27.0293  -19.0256 N   0  0  0  0  0  0  0  0  0  0  0  0
   22.9301  -27.8070  -18.1635 C   0  0  0  0  0  0  0  0  0  0  0  0
   21.8930  -27.3290  -17.6233 O   0  0  0  0  0  0  0  0  0  0  0  0
   23.4310  -29.0023  -17.6825 O   0  0  0  0  0  0  0  0  0  0  0  0
  2  1  1  0
  3  2  1  0
  3  4  1  6
  5  3  1  0
  5  6  1  1
  7  9  1  0
  7  5  1  0
  8  7  2  0
 10 11  1  1
 10  9  1  0
 12 17  2  0
 12 11  1  0
 13 12  1  0
 14 15  1  0
 14 13  2  0
 15 16  2  0
 16 17  1  0
 18 10  1  0
 18 19  2  0
 20 21  1  0
 22 21  1  6
 22 24  1  0
 22 23  1  0
 23 18  1  0
 24 26  1  0
 25 24  2  0
M  END
$$$$
