IFS.pdb
     RDKit          3D

 26 26  0  0  1  0  0  0  0  0999 V2000
   17.9510  -11.5601    3.2790 C   0  0  0  0  0  0  0  0  0  0  0  0
   17.2092  -12.8198    3.6368 C   0  0  0  0  0  0  0  0  0  0  0  0
   18.1533  -13.9160    4.0265 C   0  0  2  0  0  0  0  0  0  0  0  0
   19.1063  -14.1977    2.8634 C   0  0  0  0  0  0  0  0  0  0  0  0
   17.4841  -15.1992    4.4505 C   0  0  2  0  0  0  0  0  0  0  0  0
   16.5790  -14.8595    5.5772 N   0  0  0  0  0  0  0  0  0  0  0  0
   18.3410  -16.2600    4.9466 C   0  0  0  0  0  0  0  0  0  0  0  0
   18.8180  -17.1106    4.1563 O   0  0  0  0  0  0  0  0  0  0  0  0
   18.6754  -16.3775    6.3129 N   0  0  0  0  0  0  0  0  0  0  0  0
   19.5220  -17.3534    6.9144 C   0  0  1  0  0  0  0  0  0  0  0  0
   20.2684  -16.9113    8.1619 C   0  0  0  0  0  0  0  0  0  0  0  0
   21.1571  -17.9674    8.7144 C   0  0  0  0  0  0  0  0  0  0  0  0
   20.6569  -18.8468    9.6916 C   0  0  0  0  0  0  0  0  0  0  0  0
   21.4353  -19.8305   10.2519 C   0  0  0  0  0  0  0  0  0  0  0  0
   22.7480  -20.0087    9.8870 C   0  0  0  0  0  0  0  0  0  0  0  0
   23.2595  -19.1613    8.9342 C   0  0  0  0  0  0  0  0  0  0  0  0
   22.4681  -18.1560    8.3602 C   0  0  0  0  0  0  0  0  0  0  0  0
   18.8662  -18.6566    7.1694 C   0  0  0  0  0  0  0  0  0  0  0  0
   17.7167  -18.7093    7.6753 O   0  0  0  0  0  0  0  0  0  0  0  0
   17.4665  -22.8325    6.0332 O   0  0  0  0  0  0  0  0  0  0  0  0
   18.1336  -21.6360    5.7909 C   0  0  0  0  0  0  0  0  0  0  0  0
   18.8336  -21.1796    7.0523 C   0  0  2  0  0  0  0  0  0  0  0  0
   19.4928  -19.9025    6.8599 N   0  0  0  0  0  0  0  0  0  0  0  0
   19.8301  -22.1740    7.5144 C   0  0  0  0  0  0  0  0  0  0  0  0
   21.0062  -22.1703    7.0532 O   0  0  0  0  0  0  0  0  0  0  0  0
   19.4969  -23.1269    8.4589 O   0  0  0  0  0  0  0  0  0  0  0  0
  2  1  1  0
  3  2  1  0
  3  4  1  6
  5  3  1  0
  5  6  1  1
  7  9  1  0
  7  5  1  0
  8  7  2  0
 10 11  1  1
 10  9  1  0
 12 17  2  0
 12 11  1  0
 13 12  1  0
 14 15  1  0
 14 13  2  0
 15 16  2  0
 16 17  1  0
 18 10  1  0
 18 19  2  0
 20 21  1  0
 22 21  1  6
 22 24  1  0
 22 23  1  0
 23 18  1  0
 24 26  1  0
 25 24  2  0
M  END
$$$$
