IFS.pdb
     RDKit          3D

 26 26  0  0  1  0  0  0  0  0999 V2000
   22.3264   -8.9549  -24.1370 C   0  0  0  0  0  0  0  0  0  0  0  0
   23.4418   -8.7115  -23.1563 C   0  0  0  0  0  0  0  0  0  0  0  0
   23.0274   -9.0658  -21.7608 C   0  0  2  0  0  0  0  0  0  0  0  0
   21.8056   -8.2320  -21.3707 C   0  0  0  0  0  0  0  0  0  0  0  0
   24.1072   -8.8921  -20.7224 C   0  0  2  0  0  0  0  0  0  0  0  0
   25.2190   -9.7993  -21.1033 N   0  0  0  0  0  0  0  0  0  0  0  0
   23.7721   -9.2412  -19.3544 C   0  0  0  0  0  0  0  0  0  0  0  0
   23.7777  -10.4417  -18.9876 O   0  0  0  0  0  0  0  0  0  0  0  0
   23.4372   -8.2652  -18.3913 N   0  0  0  0  0  0  0  0  0  0  0  0
   23.1925   -8.4701  -17.0024 C   0  0  1  0  0  0  0  0  0  0  0  0
   24.2757   -7.9822  -16.0549 C   0  0  0  0  0  0  0  0  0  0  0  0
   25.5459   -8.7445  -16.1797 C   0  0  0  0  0  0  0  0  0  0  0  0
   25.7900   -9.8233  -15.3109 C   0  0  0  0  0  0  0  0  0  0  0  0
   26.9525  -10.5534  -15.3663 C   0  0  0  0  0  0  0  0  0  0  0  0
   27.9422  -10.2682  -16.2759 C   0  0  0  0  0  0  0  0  0  0  0  0
   27.7268   -9.2181  -17.1353 C   0  0  0  0  0  0  0  0  0  0  0  0
   26.5416   -8.4706  -17.0816 C   0  0  0  0  0  0  0  0  0  0  0  0
   21.8744   -7.9814  -16.5362 C   0  0  0  0  0  0  0  0  0  0  0  0
   21.4853   -6.8189  -16.8141 O   0  0  0  0  0  0  0  0  0  0  0  0
   17.7250   -8.8955  -14.1129 O   0  0  0  0  0  0  0  0  0  0  0  0
   18.9313   -9.4041  -14.5835 C   0  0  0  0  0  0  0  0  0  0  0  0
   19.7139   -8.3050  -15.2682 C   0  0  2  0  0  0  0  0  0  0  0  0
   20.9894   -8.7898  -15.7592 N   0  0  0  0  0  0  0  0  0  0  0  0
   19.9489   -7.1561  -14.3626 C   0  0  0  0  0  0  0  0  0  0  0  0
   20.9651   -7.1235  -13.6127 O   0  0  0  0  0  0  0  0  0  0  0  0
   19.0637   -6.0953  -14.3172 O   0  0  0  0  0  0  0  0  0  0  0  0
  2  1  1  0
  3  2  1  0
  3  4  1  1
  5  3  1  0
  5  6  1  6
  7  9  1  0
  7  5  1  0
  8  7  2  0
 10 11  1  1
 10  9  1  0
 12 17  2  0
 12 11  1  0
 13 12  1  0
 14 15  1  0
 14 13  2  0
 15 16  2  0
 16 17  1  0
 18 10  1  0
 18 19  2  0
 20 21  1  0
 22 21  1  1
 22 24  1  0
 22 23  1  0
 23 18  1  0
 24 26  1  0
 25 24  2  0
M  END
$$$$
