IFS.pdb
     RDKit          3D

 26 26  0  0  1  0  0  0  0  0999 V2000
   17.8294  -15.5247  -19.2356 C   0  0  0  0  0  0  0  0  0  0  0  0
   18.3630  -14.1561  -19.5635 C   0  0  0  0  0  0  0  0  0  0  0  0
   18.3041  -13.2487  -18.3727 C   0  0  2  0  0  0  0  0  0  0  0  0
   16.8549  -13.1363  -17.8958 C   0  0  0  0  0  0  0  0  0  0  0  0
   18.8649  -11.8685  -18.6073 C   0  0  2  0  0  0  0  0  0  0  0  0
   20.2742  -12.0454  -19.0394 N   0  0  0  0  0  0  0  0  0  0  0  0
   18.9176  -10.9729  -17.4668 C   0  0  0  0  0  0  0  0  0  0  0  0
   17.8832  -10.7430  -16.7938 O   0  0  0  0  0  0  0  0  0  0  0  0
   20.1124  -10.3369  -17.0666 N   0  0  0  0  0  0  0  0  0  0  0  0
   20.2587   -9.3075  -16.0919 C   0  0  1  0  0  0  0  0  0  0  0  0
   21.5933   -9.2598  -15.3671 C   0  0  0  0  0  0  0  0  0  0  0  0
   21.7155   -8.0987  -14.4467 C   0  0  0  0  0  0  0  0  0  0  0  0
   22.2331   -6.8850  -14.9339 C   0  0  0  0  0  0  0  0  0  0  0  0
   22.3865   -5.7835  -14.1273 C   0  0  0  0  0  0  0  0  0  0  0  0
   22.0417   -5.8082  -12.7973 C   0  0  0  0  0  0  0  0  0  0  0  0
   21.5341   -6.9832  -12.2981 C   0  0  0  0  0  0  0  0  0  0  0  0
   21.3763   -8.1096  -13.1183 C   0  0  0  0  0  0  0  0  0  0  0  0
   19.9149   -7.9519  -16.5794 C   0  0  0  0  0  0  0  0  0  0  0  0
   20.5038   -7.4584  -17.5742 O   0  0  0  0  0  0  0  0  0  0  0  0
   16.2919   -6.1889  -15.8072 O   0  0  0  0  0  0  0  0  0  0  0  0
   17.0969   -5.7776  -16.8646 C   0  0  0  0  0  0  0  0  0  0  0  0
   18.5503   -5.8303  -16.4477 C   0  0  2  0  0  0  0  0  0  0  0  0
   18.9133   -7.1457  -15.9569 N   0  0  0  0  0  0  0  0  0  0  0  0
   18.8565   -4.8232  -15.4049 C   0  0  0  0  0  0  0  0  0  0  0  0
   19.0003   -5.1679  -14.1981 O   0  0  0  0  0  0  0  0  0  0  0  0
   18.9916   -3.4858  -15.7276 O   0  0  0  0  0  0  0  0  0  0  0  0
  2  1  1  0
  3  2  1  0
  3  4  1  6
  5  3  1  0
  5  6  1  1
  7  9  1  0
  7  5  1  0
  8  7  2  0
 10 11  1  6
 10  9  1  0
 12 17  2  0
 12 11  1  0
 13 12  1  0
 14 15  1  0
 14 13  2  0
 15 16  2  0
 16 17  1  0
 18 10  1  0
 18 19  2  0
 20 21  1  0
 22 21  1  1
 22 24  1  0
 22 23  1  0
 23 18  1  0
 24 26  1  0
 25 24  2  0
M  END
$$$$
