IFS.pdb
     RDKit          3D

 26 26  0  0  1  0  0  0  0  0999 V2000
   33.4109  -22.7436   -8.6855 C   0  0  0  0  0  0  0  0  0  0  0  0
   32.4665  -22.1941   -9.7205 C   0  0  0  0  0  0  0  0  0  0  0  0
   31.0430  -22.2839   -9.2617 C   0  0  2  0  0  0  0  0  0  0  0  0
   30.7160  -23.7375   -8.9145 C   0  0  0  0  0  0  0  0  0  0  0  0
   30.0309  -21.7631  -10.2509 C   0  0  2  0  0  0  0  0  0  0  0  0
   30.3982  -20.3539  -10.5394 N   0  0  0  0  0  0  0  0  0  0  0  0
   28.6454  -21.7234   -9.8213 C   0  0  0  0  0  0  0  0  0  0  0  0
   28.0110  -22.7895   -9.6296 O   0  0  0  0  0  0  0  0  0  0  0  0
   27.9634  -20.5080   -9.5981 N   0  0  0  0  0  0  0  0  0  0  0  0
   26.6145  -20.3401   -9.1701 C   0  0  1  0  0  0  0  0  0  0  0  0
   26.3991  -19.3995   -7.9962 C   0  0  0  0  0  0  0  0  0  0  0  0
   27.2085  -19.7617   -6.8030 C   0  0  0  0  0  0  0  0  0  0  0  0
   28.3293  -18.9806   -6.4679 C   0  0  0  0  0  0  0  0  0  0  0  0
   29.1255  -19.2763   -5.3881 C   0  0  0  0  0  0  0  0  0  0  0  0
   28.8693  -20.3539   -4.5749 C   0  0  0  0  0  0  0  0  0  0  0  0
   27.7798  -21.1324   -4.8824 C   0  0  0  0  0  0  0  0  0  0  0  0
   26.9649  -20.8339   -5.9838 C   0  0  0  0  0  0  0  0  0  0  0  0
   25.6677  -19.9964  -10.2559 C   0  0  0  0  0  0  0  0  0  0  0  0
   25.6958  -18.8626  -10.7978 O   0  0  0  0  0  0  0  0  0  0  0  0
   23.7369  -22.9794  -12.3700 O   0  0  0  0  0  0  0  0  0  0  0  0
   24.0250  -21.7458  -12.9448 C   0  0  0  0  0  0  0  0  0  0  0  0
   23.8739  -20.6541  -11.9082 C   0  0  2  0  0  0  0  0  0  0  0  0
   24.6886  -20.9181  -10.7380 N   0  0  0  0  0  0  0  0  0  0  0  0
   22.4623  -20.4909  -11.4884 C   0  0  0  0  0  0  0  0  0  0  0  0
   22.1245  -20.6599  -10.2828 O   0  0  0  0  0  0  0  0  0  0  0  0
   21.4841  -20.1506  -12.4040 O   0  0  0  0  0  0  0  0  0  0  0  0
  2  1  1  0
  3  2  1  0
  3  4  1  6
  5  3  1  0
  5  6  1  1
  7  9  1  0
  7  5  1  0
  8  7  2  0
 10 11  1  1
 10  9  1  0
 12 17  2  0
 12 11  1  0
 13 12  1  0
 14 15  1  0
 14 13  2  0
 15 16  2  0
 16 17  1  0
 18 10  1  0
 18 19  2  0
 20 21  1  0
 22 21  1  6
 22 24  1  0
 22 23  1  0
 23 18  1  0
 24 26  1  0
 25 24  2  0
M  END
$$$$
