IFS.pdb
     RDKit          3D

 26 26  0  0  1  0  0  0  0  0999 V2000
   30.0827  -18.5193  -14.6949 C   0  0  0  0  0  0  0  0  0  0  0  0
   28.6427  -18.6931  -15.0968 C   0  0  0  0  0  0  0  0  0  0  0  0
   27.9748  -19.7591  -14.2830 C   0  0  2  0  0  0  0  0  0  0  0  0
   28.7954  -21.0474  -14.3689 C   0  0  0  0  0  0  0  0  0  0  0  0
   26.5469  -20.0453  -14.6747 C   0  0  2  0  0  0  0  0  0  0  0  0
   25.8797  -18.7314  -14.8555 N   0  0  0  0  0  0  0  0  0  0  0  0
   25.7299  -20.7674  -13.7171 C   0  0  0  0  0  0  0  0  0  0  0  0
   25.7917  -22.0193  -13.6489 O   0  0  0  0  0  0  0  0  0  0  0  0
   24.8505  -20.1073  -12.8323 N   0  0  0  0  0  0  0  0  0  0  0  0
   23.9019  -20.7038  -11.9518 C   0  0  1  0  0  0  0  0  0  0  0  0
   23.7726  -20.0658  -10.5788 C   0  0  0  0  0  0  0  0  0  0  0  0
   24.9966  -20.2161   -9.7486 C   0  0  0  0  0  0  0  0  0  0  0  0
   25.4243  -19.1396   -8.9507 C   0  0  0  0  0  0  0  0  0  0  0  0
   26.5569  -19.2127   -8.1766 C   0  0  0  0  0  0  0  0  0  0  0  0
   27.3353  -20.3445   -8.1400 C   0  0  0  0  0  0  0  0  0  0  0  0
   26.9379  -21.4096   -8.9115 C   0  0  0  0  0  0  0  0  0  0  0  0
   25.7826  -21.3386   -9.7030 C   0  0  0  0  0  0  0  0  0  0  0  0
   22.5543  -20.8856  -12.5387 C   0  0  0  0  0  0  0  0  0  0  0  0
   22.1191  -20.0883  -13.4076 O   0  0  0  0  0  0  0  0  0  0  0  0
   19.7563  -23.8103  -11.1693 O   0  0  0  0  0  0  0  0  0  0  0  0
   19.9034  -23.5875  -12.5346 C   0  0  0  0  0  0  0  0  0  0  0  0
   20.3951  -22.1760  -12.7694 C   0  0  2  0  0  0  0  0  0  0  0  0
   21.6910  -21.9575  -12.1563 N   0  0  0  0  0  0  0  0  0  0  0  0
   19.4384  -21.1708  -12.2503 C   0  0  0  0  0  0  0  0  0  0  0  0
   19.7502  -20.4250  -11.2794 O   0  0  0  0  0  0  0  0  0  0  0  0
   18.1849  -21.0256  -12.8150 O   0  0  0  0  0  0  0  0  0  0  0  0
  2  1  1  0
  3  2  1  0
  3  4  1  6
  5  3  1  0
  5  6  1  1
  7  9  1  0
  7  5  1  0
  8  7  2  0
 10 11  1  1
 10  9  1  0
 12 17  2  0
 12 11  1  0
 13 12  1  0
 14 15  1  0
 14 13  2  0
 15 16  2  0
 16 17  1  0
 18 10  1  0
 18 19  2  0
 20 21  1  0
 22 21  1  1
 22 24  1  0
 22 23  1  0
 23 18  1  0
 24 26  1  0
 25 24  2  0
M  END
$$$$
