KVG.pdb
     RDKit          3D

 21 20  0  0  1  0  0  0  0  0999 V2000
   25.7732  -20.2674  -18.1773 N   0  0  0  0  0  0  0  0  0  0  0  0
   25.4931  -19.5179  -16.9901 C   0  0  1  0  0  0  0  0  0  0  0  0
   24.4258  -18.4879  -17.1826 C   0  0  0  0  0  0  0  0  0  0  0  0
   24.7555  -17.3893  -18.1220 C   0  0  0  0  0  0  0  0  0  0  0  0
   24.1468  -17.4682  -19.4737 C   0  0  0  0  0  0  0  0  0  0  0  0
   22.6495  -17.2892  -19.4791 C   0  0  0  0  0  0  0  0  0  0  0  0
   22.1972  -17.4159  -20.8526 N   0  0  0  0  0  0  0  0  0  0  0  0
   25.2590  -20.3780  -15.8065 C   0  0  0  0  0  0  0  0  0  0  0  0
   24.4988  -21.3948  -15.9069 O   0  0  0  0  0  0  0  0  0  0  0  0
   27.0469  -19.6262  -11.9979 C   0  0  0  0  0  0  0  0  0  0  0  0
   26.5999  -21.0147  -12.3585 C   0  0  1  0  0  0  0  0  0  0  0  0
   26.2497  -21.8169  -11.1404 C   0  0  0  0  0  0  0  0  0  0  0  0
   25.4674  -20.9986  -13.3728 C   0  0  2  0  0  0  0  0  0  0  0  0
   25.8236  -20.1674  -14.5237 N   0  0  0  0  0  0  0  0  0  0  0  0
   24.2767  -20.3746  -12.7384 C   0  0  0  0  0  0  0  0  0  0  0  0
   24.0643  -19.1379  -12.8684 O   0  0  0  0  0  0  0  0  0  0  0  0
   23.3411  -21.1224  -11.9724 N   0  0  0  0  0  0  0  0  0  0  0  0
   22.2009  -20.5444  -11.3230 C   0  0  0  0  0  0  0  0  0  0  0  0
   20.9878  -20.8491  -12.1203 C   0  0  0  0  0  0  0  0  0  0  0  0
   19.7163  -20.4269  -11.7149 O   0  0  0  0  0  0  0  0  0  0  0  0
   21.1181  -21.5028  -13.1835 O   0  0  0  0  0  0  0  0  0  0  0  0
  2  1  1  6
  3  4  1  0
  3  2  1  0
  5  4  1  0
  6  5  1  0
  7  6  1  0
  8  2  1  0
  9  8  2  0
 11 10  1  1
 11 13  1  0
 12 11  1  0
 13 15  1  0
 13 14  1  6
 14  8  1  0
 15 17  1  0
 16 15  2  0
 17 18  1  0
 19 18  1  0
 19 20  1  0
 21 19  2  0
M  END
$$$$
