KVG.pdb
     RDKit          3D

 21 20  0  0  1  0  0  0  0  0999 V2000
   21.1614  -21.6618  -13.1709 N   0  0  0  0  0  0  0  0  0  0  0  0
   21.7030  -20.6478  -14.0242 C   0  0  1  0  0  0  0  0  0  0  0  0
   20.7397  -19.5387  -14.3050 C   0  0  0  0  0  0  0  0  0  0  0  0
   20.1082  -19.5608  -15.6461 C   0  0  0  0  0  0  0  0  0  0  0  0
   19.8057  -20.8985  -16.2143 C   0  0  0  0  0  0  0  0  0  0  0  0
   19.1383  -20.8498  -17.5656 C   0  0  0  0  0  0  0  0  0  0  0  0
   18.0401  -21.7989  -17.5472 N   0  0  0  0  0  0  0  0  0  0  0  0
   23.0281  -20.1616  -13.5733 C   0  0  0  0  0  0  0  0  0  0  0  0
   23.4037  -18.9831  -13.8768 O   0  0  0  0  0  0  0  0  0  0  0  0
   24.5347  -20.4776   -9.9762 C   0  0  0  0  0  0  0  0  0  0  0  0
   25.5876  -20.8512  -10.9811 C   0  0  1  0  0  0  0  0  0  0  0  0
   25.8736  -22.3235  -10.9612 C   0  0  0  0  0  0  0  0  0  0  0  0
   25.2372  -20.3595  -12.3765 C   0  0  2  0  0  0  0  0  0  0  0  0
   23.9525  -20.9138  -12.8062 N   0  0  0  0  0  0  0  0  0  0  0  0
   26.2659  -20.8621  -13.3244 C   0  0  0  0  0  0  0  0  0  0  0  0
   26.2163  -22.0518  -13.7413 O   0  0  0  0  0  0  0  0  0  0  0  0
   27.3307  -20.0469  -13.7967 N   0  0  0  0  0  0  0  0  0  0  0  0
   28.4116  -20.5366  -14.6016 C   0  0  0  0  0  0  0  0  0  0  0  0
   28.1591  -20.1739  -16.0176 C   0  0  0  0  0  0  0  0  0  0  0  0
   29.1563  -20.2840  -16.9937 O   0  0  0  0  0  0  0  0  0  0  0  0
   27.0183  -19.7592  -16.3357 O   0  0  0  0  0  0  0  0  0  0  0  0
  2  1  1  1
  3  4  1  0
  3  2  1  0
  5  4  1  0
  6  5  1  0
  7  6  1  0
  8  2  1  0
  9  8  2  0
 11 10  1  1
 11 13  1  0
 12 11  1  0
 13 15  1  0
 13 14  1  6
 14  8  1  0
 15 17  1  0
 16 15  2  0
 17 18  1  0
 19 18  1  0
 19 20  1  0
 21 19  2  0
M  END
$$$$
