KVG.pdb
     RDKit          3D

 21 20  0  0  1  0  0  0  0  0999 V2000
   23.4646  -20.9992  -15.5465 N   0  0  0  0  0  0  0  0  0  0  0  0
   23.1370  -21.0589  -14.1541 C   0  0  1  0  0  0  0  0  0  0  0  0
   21.8870  -21.8317  -13.8763 C   0  0  0  0  0  0  0  0  0  0  0  0
   20.6215  -21.0674  -13.9869 C   0  0  0  0  0  0  0  0  0  0  0  0
   20.4712  -20.2043  -15.1854 C   0  0  0  0  0  0  0  0  0  0  0  0
   19.2393  -20.5044  -16.0017 C   0  0  0  0  0  0  0  0  0  0  0  0
   19.1775  -19.5312  -17.0771 N   0  0  0  0  0  0  0  0  0  0  0  0
   24.2786  -21.4843  -13.3105 C   0  0  0  0  0  0  0  0  0  0  0  0
   24.6032  -22.7149  -13.2635 O   0  0  0  0  0  0  0  0  0  0  0  0
   27.5003  -19.0703  -12.3645 C   0  0  0  0  0  0  0  0  0  0  0  0
   27.5108  -20.5692  -12.2595 C   0  0  1  0  0  0  0  0  0  0  0  0
   28.6855  -21.0600  -11.4664 C   0  0  0  0  0  0  0  0  0  0  0  0
   26.1956  -21.1073  -11.7186 C   0  0  2  0  0  0  0  0  0  0  0  0
   25.0739  -20.6169  -12.5209 N   0  0  0  0  0  0  0  0  0  0  0  0
   26.0049  -20.5846  -10.3402 C   0  0  0  0  0  0  0  0  0  0  0  0
   25.5303  -19.4296  -10.1604 O   0  0  0  0  0  0  0  0  0  0  0  0
   26.3398  -21.3419   -9.1845 N   0  0  0  0  0  0  0  0  0  0  0  0
   26.1331  -20.8804   -7.8428 C   0  0  0  0  0  0  0  0  0  0  0  0
   27.2929  -20.0499   -7.4361 C   0  0  0  0  0  0  0  0  0  0  0  0
   27.3977  -19.5145   -6.1470 O   0  0  0  0  0  0  0  0  0  0  0  0
   28.1964  -19.8290   -8.2784 O   0  0  0  0  0  0  0  0  0  0  0  0
  2  1  1  6
  3  4  1  0
  3  2  1  0
  5  4  1  0
  6  5  1  0
  7  6  1  0
  8  2  1  0
  9  8  2  0
 11 10  1  1
 11 13  1  0
 12 11  1  0
 13 15  1  0
 13 14  1  6
 14  8  1  0
 15 17  1  0
 16 15  2  0
 17 18  1  0
 19 18  1  0
 19 20  1  0
 21 19  2  0
M  END
$$$$
