KVG.pdb
     RDKit          3D

 21 20  0  0  1  0  0  0  0  0999 V2000
   17.5447  -15.1718  -17.9646 N   0  0  0  0  0  0  0  0  0  0  0  0
   18.5201  -14.6018  -17.0852 C   0  0  1  0  0  0  0  0  0  0  0  0
   19.7548  -15.4361  -16.9560 C   0  0  0  0  0  0  0  0  0  0  0  0
   19.5382  -16.8447  -16.5475 C   0  0  0  0  0  0  0  0  0  0  0  0
   20.7519  -17.6877  -16.4057 C   0  0  0  0  0  0  0  0  0  0  0  0
   20.4587  -19.1217  -16.0428 C   0  0  0  0  0  0  0  0  0  0  0  0
   21.7223  -19.8357  -16.0192 N   0  0  0  0  0  0  0  0  0  0  0  0
   18.8120  -13.1815  -17.3902 C   0  0  0  0  0  0  0  0  0  0  0  0
   19.0785  -12.8358  -18.5867 O   0  0  0  0  0  0  0  0  0  0  0  0
   16.7644  -10.4103  -15.8594 C   0  0  0  0  0  0  0  0  0  0  0  0
   17.7306   -9.9926  -16.9317 C   0  0  1  0  0  0  0  0  0  0  0  0
   17.9259   -8.5055  -16.9515 C   0  0  0  0  0  0  0  0  0  0  0  0
   19.0517  -10.7375  -16.8237 C   0  0  2  0  0  0  0  0  0  0  0  0
   18.8229  -12.1310  -16.4389 N   0  0  0  0  0  0  0  0  0  0  0  0
   19.8559  -10.1142  -15.7401 C   0  0  0  0  0  0  0  0  0  0  0  0
   19.5429  -10.2990  -14.5321 O   0  0  0  0  0  0  0  0  0  0  0  0
   20.9901   -9.2988  -16.0050 N   0  0  0  0  0  0  0  0  0  0  0  0
   21.7902   -8.6911  -14.9820 C   0  0  0  0  0  0  0  0  0  0  0  0
   21.1338   -7.4365  -14.5401 C   0  0  0  0  0  0  0  0  0  0  0  0
   21.5977   -6.7139  -13.4347 O   0  0  0  0  0  0  0  0  0  0  0  0
   20.1381   -7.0228  -15.1822 O   0  0  0  0  0  0  0  0  0  0  0  0
  2  1  1  6
  3  4  1  0
  3  2  1  0
  5  4  1  0
  6  5  1  0
  7  6  1  0
  8  2  1  0
  9  8  2  0
 11 10  1  1
 11 13  1  0
 12 11  1  0
 13 15  1  0
 13 14  1  1
 14  8  1  0
 15 17  1  0
 16 15  2  0
 17 18  1  0
 19 18  1  0
 19 20  1  0
 21 19  2  0
M  END
$$$$
