KVG.pdb
     RDKit          3D

 21 20  0  0  1  0  0  0  0  0999 V2000
   17.1564  -23.6043  -10.8962 N   0  0  0  0  0  0  0  0  0  0  0  0
   18.5292  -23.2669  -10.6703 C   0  0  1  0  0  0  0  0  0  0  0  0
   19.2191  -24.2054   -9.7321 C   0  0  0  0  0  0  0  0  0  0  0  0
   18.6729  -24.2534   -8.3547 C   0  0  0  0  0  0  0  0  0  0  0  0
   18.1400  -25.5617   -7.8983 C   0  0  0  0  0  0  0  0  0  0  0  0
   17.7627  -25.5901   -6.4386 C   0  0  0  0  0  0  0  0  0  0  0  0
   18.9827  -25.7720   -5.6733 N   0  0  0  0  0  0  0  0  0  0  0  0
   19.2837  -23.0475  -11.9265 C   0  0  0  0  0  0  0  0  0  0  0  0
   18.9510  -23.6808  -12.9802 O   0  0  0  0  0  0  0  0  0  0  0  0
   19.2780  -20.6099  -14.3730 C   0  0  0  0  0  0  0  0  0  0  0  0
   20.7281  -20.6709  -13.9837 C   0  0  1  0  0  0  0  0  0  0  0  0
   21.1171  -19.5108  -13.1160 C   0  0  0  0  0  0  0  0  0  0  0  0
   21.0863  -22.0032  -13.3448 C   0  0  2  0  0  0  0  0  0  0  0  0
   20.3832  -22.1650  -12.0713 N   0  0  0  0  0  0  0  0  0  0  0  0
   22.5413  -22.0028  -13.0405 C   0  0  0  0  0  0  0  0  0  0  0  0
   22.9966  -21.2668  -12.1226 O   0  0  0  0  0  0  0  0  0  0  0  0
   23.4692  -22.8120  -13.7514 N   0  0  0  0  0  0  0  0  0  0  0  0
   24.8713  -22.8630  -13.4557 C   0  0  0  0  0  0  0  0  0  0  0  0
   25.5829  -21.9019  -14.3333 C   0  0  0  0  0  0  0  0  0  0  0  0
   26.9716  -21.7382  -14.2705 O   0  0  0  0  0  0  0  0  0  0  0  0
   24.9113  -21.2242  -15.1484 O   0  0  0  0  0  0  0  0  0  0  0  0
  2  1  1  6
  3  4  1  0
  3  2  1  0
  5  4  1  0
  6  5  1  0
  7  6  1  0
  8  2  1  0
  9  8  2  0
 11 10  1  1
 11 13  1  0
 12 11  1  0
 13 15  1  0
 13 14  1  1
 14  8  1  0
 15 17  1  0
 16 15  2  0
 17 18  1  0
 19 18  1  0
 19 20  1  0
 21 19  2  0
M  END
$$$$
