KVG.pdb
     RDKit          3D

 21 20  0  0  1  0  0  0  0  0999 V2000
   24.9674  -21.2031   -9.8629 N   0  0  0  0  0  0  0  0  0  0  0  0
   24.5549  -20.7886  -11.1697 C   0  0  1  0  0  0  0  0  0  0  0  0
   23.1922  -20.1725  -11.1889 C   0  0  0  0  0  0  0  0  0  0  0  0
   22.0741  -21.0963  -11.4959 C   0  0  0  0  0  0  0  0  0  0  0  0
   20.7110  -20.5082  -11.5018 C   0  0  0  0  0  0  0  0  0  0  0  0
   19.6136  -21.5160  -11.7341 C   0  0  0  0  0  0  0  0  0  0  0  0
   18.3491  -20.8041  -11.6983 N   0  0  0  0  0  0  0  0  0  0  0  0
   25.5723  -19.9620  -11.8607 C   0  0  0  0  0  0  0  0  0  0  0  0
   26.2458  -19.1077  -11.1984 O   0  0  0  0  0  0  0  0  0  0  0  0
   28.6788  -21.0345  -13.4133 C   0  0  0  0  0  0  0  0  0  0  0  0
   28.0046  -20.1843  -14.4528 C   0  0  1  0  0  0  0  0  0  0  0  0
   27.4295  -21.0166  -15.5602 C   0  0  0  0  0  0  0  0  0  0  0  0
   26.9657  -19.2590  -13.8395 C   0  0  2  0  0  0  0  0  0  0  0  0
   25.8781  -20.0357  -13.2426 N   0  0  0  0  0  0  0  0  0  0  0  0
   26.3680  -18.4378  -14.9249 C   0  0  0  0  0  0  0  0  0  0  0  0
   25.3693  -18.8653  -15.5664 O   0  0  0  0  0  0  0  0  0  0  0  0
   26.8796  -17.1612  -15.2850 N   0  0  0  0  0  0  0  0  0  0  0  0
   26.3107  -16.3357  -16.3101 C   0  0  0  0  0  0  0  0  0  0  0  0
   26.8311  -16.7774  -17.6270 C   0  0  0  0  0  0  0  0  0  0  0  0
   27.3484  -15.8671  -18.5560 O   0  0  0  0  0  0  0  0  0  0  0  0
   26.8013  -18.0011  -17.9033 O   0  0  0  0  0  0  0  0  0  0  0  0
  2  1  1  1
  3  4  1  0
  3  2  1  0
  5  4  1  0
  6  5  1  0
  7  6  1  0
  8  2  1  0
  9  8  2  0
 11 10  1  1
 11 13  1  0
 12 11  1  0
 13 15  1  0
 13 14  1  6
 14  8  1  0
 15 17  1  0
 16 15  2  0
 17 18  1  0
 19 18  1  0
 19 20  1  0
 21 19  2  0
M  END
$$$$
