KVG.pdb
     RDKit          3D

 21 20  0  0  1  0  0  0  0  0999 V2000
   20.4283  -20.0710  -13.1216 N   0  0  0  0  0  0  0  0  0  0  0  0
   21.5171  -20.8299  -12.5846 C   0  0  1  0  0  0  0  0  0  0  0  0
   21.2418  -22.2991  -12.5342 C   0  0  0  0  0  0  0  0  0  0  0  0
   20.1012  -22.7099  -11.6809 C   0  0  0  0  0  0  0  0  0  0  0  0
   18.8759  -23.1635  -12.3857 C   0  0  0  0  0  0  0  0  0  0  0  0
   17.7479  -23.5468  -11.4612 C   0  0  0  0  0  0  0  0  0  0  0  0
   16.5626  -23.7477  -12.2748 N   0  0  0  0  0  0  0  0  0  0  0  0
   22.8152  -20.5070  -13.2220 C   0  0  0  0  0  0  0  0  0  0  0  0
   22.8337  -19.9249  -14.3546 O   0  0  0  0  0  0  0  0  0  0  0  0
   26.5508  -20.9749  -11.2196 C   0  0  0  0  0  0  0  0  0  0  0  0
   26.3568  -19.9466  -12.2979 C   0  0  1  0  0  0  0  0  0  0  0  0
   27.6586  -19.5613  -12.9355 C   0  0  0  0  0  0  0  0  0  0  0  0
   25.3307  -20.3934  -13.3271 C   0  0  2  0  0  0  0  0  0  0  0  0
   24.0873  -20.7960  -12.6680 N   0  0  0  0  0  0  0  0  0  0  0  0
   25.8589  -21.5932  -14.0278 C   0  0  0  0  0  0  0  0  0  0  0  0
   25.6558  -22.7446  -13.5540 O   0  0  0  0  0  0  0  0  0  0  0  0
   26.6012  -21.5047  -15.2372 N   0  0  0  0  0  0  0  0  0  0  0  0
   27.1414  -22.6411  -15.9248 C   0  0  0  0  0  0  0  0  0  0  0  0
   27.7855  -22.1821  -17.1796 C   0  0  0  0  0  0  0  0  0  0  0  0
   28.7673  -22.9443  -17.8234 O   0  0  0  0  0  0  0  0  0  0  0  0
   27.4325  -21.0807  -17.6663 O   0  0  0  0  0  0  0  0  0  0  0  0
  2  1  1  6
  3  4  1  0
  3  2  1  0
  5  4  1  0
  6  5  1  0
  7  6  1  0
  8  2  1  0
  9  8  2  0
 11 10  1  1
 11 13  1  0
 12 11  1  0
 13 15  1  0
 13 14  1  1
 14  8  1  0
 15 17  1  0
 16 15  2  0
 17 18  1  0
 19 18  1  0
 19 20  1  0
 21 19  2  0
M  END
$$$$
