KVG.pdb
     RDKit          3D

 21 20  0  0  1  0  0  0  0  0999 V2000
   25.4349  -17.8703  -17.0412 N   0  0  0  0  0  0  0  0  0  0  0  0
   24.3379  -18.5528  -16.4244 C   0  0  1  0  0  0  0  0  0  0  0  0
   23.2949  -18.9937  -17.4015 C   0  0  0  0  0  0  0  0  0  0  0  0
   22.2336  -18.0022  -17.6991 C   0  0  0  0  0  0  0  0  0  0  0  0
   22.6800  -16.6089  -17.9506 C   0  0  0  0  0  0  0  0  0  0  0  0
   21.5513  -15.6482  -18.2281 C   0  0  0  0  0  0  0  0  0  0  0  0
   22.1379  -14.3489  -18.5015 N   0  0  0  0  0  0  0  0  0  0  0  0
   24.7721  -19.6381  -15.5139 C   0  0  0  0  0  0  0  0  0  0  0  0
   24.2712  -20.8025  -15.6375 O   0  0  0  0  0  0  0  0  0  0  0  0
   28.2499  -20.9672  -15.0887 C   0  0  0  0  0  0  0  0  0  0  0  0
   27.7163  -20.7083  -13.7081 C   0  0  1  0  0  0  0  0  0  0  0  0
   28.3386  -19.4895  -13.0941 C   0  0  0  0  0  0  0  0  0  0  0  0
   26.1975  -20.6395  -13.6927 C   0  0  2  0  0  0  0  0  0  0  0  0
   25.7295  -19.4968  -14.4785 N   0  0  0  0  0  0  0  0  0  0  0  0
   25.7510  -20.4157  -12.2926 C   0  0  0  0  0  0  0  0  0  0  0  0
   26.5078  -19.8276  -11.4724 O   0  0  0  0  0  0  0  0  0  0  0  0
   24.4800  -20.8430  -11.8202 N   0  0  0  0  0  0  0  0  0  0  0  0
   24.0037  -20.6035  -10.4891 C   0  0  0  0  0  0  0  0  0  0  0  0
   22.6443  -21.1813  -10.3538 C   0  0  0  0  0  0  0  0  0  0  0  0
   21.8719  -20.9820   -9.2036 O   0  0  0  0  0  0  0  0  0  0  0  0
   22.1863  -21.8642  -11.3017 O   0  0  0  0  0  0  0  0  0  0  0  0
  2  1  1  6
  3  4  1  0
  3  2  1  0
  5  4  1  0
  6  5  1  0
  7  6  1  0
  8  2  1  0
  9  8  2  0
 11 10  1  6
 11 13  1  0
 12 11  1  0
 13 15  1  0
 13 14  1  6
 14  8  1  0
 15 17  1  0
 16 15  2  0
 17 18  1  0
 19 18  1  0
 19 20  1  0
 21 19  2  0
M  END
$$$$
