KVG.pdb
     RDKit          3D

 21 20  0  0  1  0  0  0  0  0999 V2000
   27.8445  -21.8471  -15.3816 N   0  0  0  0  0  0  0  0  0  0  0  0
   26.6371  -21.0909  -15.5228 C   0  0  1  0  0  0  0  0  0  0  0  0
   26.0877  -21.1137  -16.9137 C   0  0  0  0  0  0  0  0  0  0  0  0
   27.0508  -20.7797  -17.9901 C   0  0  0  0  0  0  0  0  0  0  0  0
   27.5308  -19.3757  -18.0377 C   0  0  0  0  0  0  0  0  0  0  0  0
   28.4688  -19.0910  -19.1836 C   0  0  0  0  0  0  0  0  0  0  0  0
   27.7507  -18.2760  -20.1465 N   0  0  0  0  0  0  0  0  0  0  0  0
   25.6230  -21.4260  -14.4956 C   0  0  0  0  0  0  0  0  0  0  0  0
   24.6520  -22.1935  -14.7956 O   0  0  0  0  0  0  0  0  0  0  0  0
   26.5295  -21.6853  -10.6251 C   0  0  0  0  0  0  0  0  0  0  0  0
   25.1236  -21.1755  -10.7714 C   0  0  1  0  0  0  0  0  0  0  0  0
   24.9959  -19.7598  -10.2927 C   0  0  0  0  0  0  0  0  0  0  0  0
   24.6061  -21.3438  -12.1912 C   0  0  2  0  0  0  0  0  0  0  0  0
   25.6327  -20.9546  -13.1591 N   0  0  0  0  0  0  0  0  0  0  0  0
   23.4555  -20.4228  -12.3846 C   0  0  0  0  0  0  0  0  0  0  0  0
   23.6300  -19.1739  -12.3467 O   0  0  0  0  0  0  0  0  0  0  0  0
   22.1336  -20.8922  -12.6163 N   0  0  0  0  0  0  0  0  0  0  0  0
   21.0049  -20.0295  -12.8102 C   0  0  0  0  0  0  0  0  0  0  0  0
   19.8014  -20.8607  -13.0570 C   0  0  0  0  0  0  0  0  0  0  0  0
   18.5311  -20.2907  -13.2010 O   0  0  0  0  0  0  0  0  0  0  0  0
   19.9389  -22.1055  -13.1366 O   0  0  0  0  0  0  0  0  0  0  0  0
  2  1  1  6
  3  4  1  0
  3  2  1  0
  5  4  1  0
  6  5  1  0
  7  6  1  0
  8  2  1  0
  9  8  2  0
 11 10  1  6
 11 13  1  0
 12 11  1  0
 13 15  1  0
 13 14  1  6
 14  8  1  0
 15 17  1  0
 16 15  2  0
 17 18  1  0
 19 18  1  0
 19 20  1  0
 21 19  2  0
M  END
$$$$
