KVG.pdb
     RDKit          3D

 21 20  0  0  1  0  0  0  0  0999 V2000
   18.8388  -14.7107  -16.7851 N   0  0  0  0  0  0  0  0  0  0  0  0
   18.8079  -13.3282  -17.1558 C   0  0  1  0  0  0  0  0  0  0  0  0
   17.4513  -12.8631  -17.5803 C   0  0  0  0  0  0  0  0  0  0  0  0
   16.8716  -13.5596  -18.7536 C   0  0  0  0  0  0  0  0  0  0  0  0
   17.5508  -13.3421  -20.0557 C   0  0  0  0  0  0  0  0  0  0  0  0
   16.8473  -13.9845  -21.2246 C   0  0  0  0  0  0  0  0  0  0  0  0
   17.2303  -15.3844  -21.2520 N   0  0  0  0  0  0  0  0  0  0  0  0
   19.4303  -12.4450  -16.1419 C   0  0  0  0  0  0  0  0  0  0  0  0
   19.0260  -12.4883  -14.9350 O   0  0  0  0  0  0  0  0  0  0  0  0
   23.0685  -12.2736  -15.1024 C   0  0  0  0  0  0  0  0  0  0  0  0
   22.6147  -10.8718  -15.3971 C   0  0  1  0  0  0  0  0  0  0  0  0
   23.1628  -10.3758  -16.7023 C   0  0  0  0  0  0  0  0  0  0  0  0
   21.1013  -10.7417  -15.3306 C   0  0  2  0  0  0  0  0  0  0  0  0
   20.4737  -11.5209  -16.3989 N   0  0  0  0  0  0  0  0  0  0  0  0
   20.7409   -9.3183  -15.5621 C   0  0  0  0  0  0  0  0  0  0  0  0
   20.6064   -8.8818  -16.7381 O   0  0  0  0  0  0  0  0  0  0  0  0
   20.5350   -8.4007  -14.4959 N   0  0  0  0  0  0  0  0  0  0  0  0
   20.1084   -7.0448  -14.6835 C   0  0  0  0  0  0  0  0  0  0  0  0
   21.3018   -6.1911  -14.9008 C   0  0  0  0  0  0  0  0  0  0  0  0
   21.1974   -4.8016  -15.0339 O   0  0  0  0  0  0  0  0  0  0  0  0
   22.4281   -6.7407  -14.9652 O   0  0  0  0  0  0  0  0  0  0  0  0
  2  1  1  1
  3  4  1  0
  3  2  1  0
  5  4  1  0
  6  5  1  0
  7  6  1  0
  8  2  1  0
  9  8  2  0
 11 10  1  6
 11 13  1  0
 12 11  1  0
 13 15  1  0
 13 14  1  6
 14  8  1  0
 15 17  1  0
 16 15  2  0
 17 18  1  0
 19 18  1  0
 19 20  1  0
 21 19  2  0
M  END
$$$$
