KVG.pdb
     RDKit          3D

 21 20  0  0  1  0  0  0  0  0999 V2000
   19.3381  -11.5689  -17.6926 N   0  0  0  0  0  0  0  0  0  0  0  0
   18.6536  -11.5457  -16.4354 C   0  0  1  0  0  0  0  0  0  0  0  0
   18.1887  -12.8968  -15.9934 C   0  0  0  0  0  0  0  0  0  0  0  0
   17.1353  -13.5191  -16.8306 C   0  0  0  0  0  0  0  0  0  0  0  0
   15.7895  -12.8949  -16.7748 C   0  0  0  0  0  0  0  0  0  0  0  0
   14.7511  -13.6107  -17.6013 C   0  0  0  0  0  0  0  0  0  0  0  0
   14.7529  -15.0049  -17.1970 N   0  0  0  0  0  0  0  0  0  0  0  0
   19.4036  -10.8202  -15.3834 C   0  0  0  0  0  0  0  0  0  0  0  0
   19.0613  -10.9482  -14.1634 O   0  0  0  0  0  0  0  0  0  0  0  0
   23.0706  -10.9621  -14.4227 C   0  0  0  0  0  0  0  0  0  0  0  0
   22.7101   -9.5187  -14.6336 C   0  0  1  0  0  0  0  0  0  0  0  0
   23.2649   -8.9929  -15.9242 C   0  0  0  0  0  0  0  0  0  0  0  0
   21.2111   -9.2885  -14.5242 C   0  0  2  0  0  0  0  0  0  0  0  0
   20.5090   -9.9643  -15.6163 N   0  0  0  0  0  0  0  0  0  0  0  0
   20.9467   -7.8333  -14.6728 C   0  0  0  0  0  0  0  0  0  0  0  0
   20.7850   -7.3323  -15.8192 O   0  0  0  0  0  0  0  0  0  0  0  0
   20.8649   -6.9555  -13.5574 N   0  0  0  0  0  0  0  0  0  0  0  0
   20.6203   -5.5471  -13.6690 C   0  0  0  0  0  0  0  0  0  0  0  0
   21.9193   -4.8419  -13.7932 C   0  0  0  0  0  0  0  0  0  0  0  0
   21.9923   -3.4475  -13.8924 O   0  0  0  0  0  0  0  0  0  0  0  0
   22.9724   -5.5241  -13.8086 O   0  0  0  0  0  0  0  0  0  0  0  0
  2  1  1  6
  3  4  1  0
  3  2  1  0
  5  4  1  0
  6  5  1  0
  7  6  1  0
  8  2  1  0
  9  8  2  0
 11 10  1  6
 11 13  1  0
 12 11  1  0
 13 15  1  0
 13 14  1  6
 14  8  1  0
 15 17  1  0
 16 15  2  0
 17 18  1  0
 19 18  1  0
 19 20  1  0
 21 19  2  0
M  END
$$$$
