KVG.pdb
     RDKit          3D

 21 20  0  0  1  0  0  0  0  0999 V2000
   14.0197  -22.9567   -1.3336 N   0  0  0  0  0  0  0  0  0  0  0  0
   13.6602  -22.2257   -0.1563 C   0  0  1  0  0  0  0  0  0  0  0  0
   12.2842  -22.5433    0.3363 C   0  0  0  0  0  0  0  0  0  0  0  0
   11.1945  -21.7035   -0.2162 C   0  0  0  0  0  0  0  0  0  0  0  0
   10.9215  -21.8435   -1.6687 C   0  0  0  0  0  0  0  0  0  0  0  0
    9.7976  -20.9689   -2.1644 C   0  0  0  0  0  0  0  0  0  0  0  0
    9.7009  -21.1507   -3.6013 N   0  0  0  0  0  0  0  0  0  0  0  0
   14.6876  -22.3052    0.9085 C   0  0  0  0  0  0  0  0  0  0  0  0
   15.2898  -23.4069    1.1221 O   0  0  0  0  0  0  0  0  0  0  0  0
   17.2810  -19.3858    1.7005 C   0  0  0  0  0  0  0  0  0  0  0  0
   17.4488  -20.7954    2.1932 C   0  0  1  0  0  0  0  0  0  0  0  0
   18.5649  -20.9040    3.1894 C   0  0  0  0  0  0  0  0  0  0  0  0
   16.1467  -21.3637    2.7349 C   0  0  2  0  0  0  0  0  0  0  0  0
   15.0784  -21.2289    1.7436 N   0  0  0  0  0  0  0  0  0  0  0  0
   15.7420  -20.5642    3.9209 C   0  0  0  0  0  0  0  0  0  0  0  0
   15.2857  -19.3974    3.7731 O   0  0  0  0  0  0  0  0  0  0  0  0
   15.8465  -21.0628    5.2483 N   0  0  0  0  0  0  0  0  0  0  0  0
   15.4490  -20.3228    6.4103 C   0  0  0  0  0  0  0  0  0  0  0  0
   16.6449  -19.6699    6.9967 C   0  0  0  0  0  0  0  0  0  0  0  0
   17.9333  -19.9250    6.5129 O   0  0  0  0  0  0  0  0  0  0  0  0
   16.4839  -18.8705    7.9506 O   0  0  0  0  0  0  0  0  0  0  0  0
  2  1  1  6
  3  4  1  0
  3  2  1  0
  5  4  1  0
  6  5  1  0
  7  6  1  0
  8  2  1  0
  9  8  2  0
 11 10  1  1
 11 13  1  0
 12 11  1  0
 13 15  1  0
 13 14  1  6
 14  8  1  0
 15 17  1  0
 16 15  2  0
 17 18  1  0
 19 18  1  0
 19 20  1  0
 21 19  2  0
M  END
$$$$
