KVG.pdb
     RDKit          3D

 21 20  0  0  1  0  0  0  0  0999 V2000
   25.2211  -22.1321  -12.2611 N   0  0  0  0  0  0  0  0  0  0  0  0
   24.6567  -21.1314  -13.1153 C   0  0  1  0  0  0  0  0  0  0  0  0
   23.2934  -20.6915  -12.6855 C   0  0  0  0  0  0  0  0  0  0  0  0
   22.2335  -21.7259  -12.7541 C   0  0  0  0  0  0  0  0  0  0  0  0
   20.8802  -21.3193  -12.2990 C   0  0  0  0  0  0  0  0  0  0  0  0
   19.8789  -22.4467  -12.2817 C   0  0  0  0  0  0  0  0  0  0  0  0
   18.6257  -21.9132  -11.7796 N   0  0  0  0  0  0  0  0  0  0  0  0
   25.5781  -19.9977  -13.3629 C   0  0  0  0  0  0  0  0  0  0  0  0
   26.2920  -19.5462  -12.4098 O   0  0  0  0  0  0  0  0  0  0  0  0
   28.5727  -19.7296  -15.3409 C   0  0  0  0  0  0  0  0  0  0  0  0
   27.7476  -18.5544  -15.7836 C   0  0  1  0  0  0  0  0  0  0  0  0
   27.1893  -18.7580  -17.1608 C   0  0  0  0  0  0  0  0  0  0  0  0
   26.6619  -18.2138  -14.7752 C   0  0  2  0  0  0  0  0  0  0  0  0
   25.7461  -19.3435  -14.6089 N   0  0  0  0  0  0  0  0  0  0  0  0
   25.8615  -17.0812  -15.3103 C   0  0  0  0  0  0  0  0  0  0  0  0
   24.9604  -17.2913  -16.1677 O   0  0  0  0  0  0  0  0  0  0  0  0
   26.0671  -15.7379  -14.8924 N   0  0  0  0  0  0  0  0  0  0  0  0
   25.2630  -14.6353  -15.3325 C   0  0  0  0  0  0  0  0  0  0  0  0
   25.7362  -14.1983  -16.6686 C   0  0  0  0  0  0  0  0  0  0  0  0
   26.5676  -15.0052  -17.4542 O   0  0  0  0  0  0  0  0  0  0  0  0
   25.3750  -13.0744  -17.0941 O   0  0  0  0  0  0  0  0  0  0  0  0
  2  1  1  1
  3  4  1  0
  3  2  1  0
  5  4  1  0
  6  5  1  0
  7  6  1  0
  8  2  1  0
  9  8  2  0
 11 10  1  1
 11 13  1  0
 12 11  1  0
 13 15  1  0
 13 14  1  6
 14  8  1  0
 15 17  1  0
 16 15  2  0
 17 18  1  0
 19 18  1  0
 19 20  1  0
 21 19  2  0
M  END
$$$$
