KVG.pdb
     RDKit          3D

 21 20  0  0  1  0  0  0  0  0999 V2000
   16.8271  -23.9444   -8.0698 N   0  0  0  0  0  0  0  0  0  0  0  0
   17.4564  -25.0807   -7.4676 C   0  0  1  0  0  0  0  0  0  0  0  0
   18.8168  -25.3622   -8.0216 C   0  0  0  0  0  0  0  0  0  0  0  0
   18.8688  -25.6710   -9.4707 C   0  0  0  0  0  0  0  0  0  0  0  0
   18.8637  -24.5103  -10.3963 C   0  0  0  0  0  0  0  0  0  0  0  0
   19.0481  -24.8855  -11.8451 C   0  0  0  0  0  0  0  0  0  0  0  0
   18.8680  -23.6821  -12.6366 N   0  0  0  0  0  0  0  0  0  0  0  0
   17.4338  -25.0354   -5.9867 C   0  0  0  0  0  0  0  0  0  0  0  0
   17.4064  -23.9101   -5.3910 O   0  0  0  0  0  0  0  0  0  0  0  0
   15.0733  -25.2702   -3.3100 C   0  0  0  0  0  0  0  0  0  0  0  0
   16.0488  -26.3993   -3.1329 C   0  0  1  0  0  0  0  0  0  0  0  0
   15.5243  -27.6795   -3.7126 C   0  0  0  0  0  0  0  0  0  0  0  0
   17.4237  -26.0497   -3.6797 C   0  0  2  0  0  0  0  0  0  0  0  0
   17.4399  -26.1706   -5.1382 N   0  0  0  0  0  0  0  0  0  0  0  0
   18.4043  -27.0341   -3.1515 C   0  0  0  0  0  0  0  0  0  0  0  0
   18.4626  -28.1955   -3.6407 O   0  0  0  0  0  0  0  0  0  0  0  0
   19.3029  -26.7233   -2.0945 N   0  0  0  0  0  0  0  0  0  0  0  0
   20.2456  -27.6567   -1.5505 C   0  0  0  0  0  0  0  0  0  0  0  0
   19.9802  -27.8178   -0.1000 C   0  0  0  0  0  0  0  0  0  0  0  0
   20.7851  -28.6283    0.7091 O   0  0  0  0  0  0  0  0  0  0  0  0
   19.0063  -27.2065    0.4025 O   0  0  0  0  0  0  0  0  0  0  0  0
  2  1  1  6
  3  4  1  0
  3  2  1  0
  5  4  1  0
  6  5  1  0
  7  6  1  0
  8  2  1  0
  9  8  2  0
 11 10  1  6
 11 13  1  0
 12 11  1  0
 13 15  1  0
 13 14  1  6
 14  8  1  0
 15 17  1  0
 16 15  2  0
 17 18  1  0
 19 18  1  0
 19 20  1  0
 21 19  2  0
M  END
$$$$
