HPI.pdb
     RDKit          3D

 26 27  0  0  1  0  0  0  0  0999 V2000
   10.2576  -18.2171   19.2252 N   0  0  0  0  0  0  0  0  0  0  0  0
    9.1603  -17.3204   19.4627 C   0  0  1  0  0  0  0  0  0  0  0  0
    7.9251  -18.1797   19.6586 C   0  0  0  0  0  0  0  0  0  0  0  0
    7.4820  -18.7873   18.3771 C   0  0  0  0  0  0  0  0  0  0  0  0
    6.9444  -18.1230   17.2927 C   0  0  0  0  0  0  0  0  0  0  0  0
    6.6705  -19.0167   16.3279 N   0  0  0  0  0  0  0  0  0  0  0  0
    7.0235  -20.2399   16.7768 C   0  0  0  0  0  0  0  0  0  0  0  0
    7.5143  -20.0914   18.0194 N   0  0  0  0  0  0  0  0  0  0  0  0
    9.3442  -16.4366   20.6318 C   0  0  0  0  0  0  0  0  0  0  0  0
   10.3573  -16.7220   21.3797 O   0  0  0  0  0  0  0  0  0  0  0  0
    8.5049  -15.3427   20.9577 N   0  0  0  0  0  0  0  0  0  0  0  0
    7.2434  -15.1021   20.2386 C   0  0  0  0  0  0  0  0  0  0  0  0
    7.3573  -13.6107   19.9978 C   0  0  0  0  0  0  0  0  0  0  0  0
    7.9488  -13.1068   21.2833 C   0  0  0  0  0  0  0  0  0  0  0  0
    8.6087  -14.3182   21.9446 C   0  0  1  0  0  0  0  0  0  0  0  0
    7.9240  -14.6612   23.2221 C   0  0  0  0  0  0  0  0  0  0  0  0
    7.0250  -15.5319   23.2123 O   0  0  0  0  0  0  0  0  0  0  0  0
    6.8617  -11.4124   27.7433 C   0  0  0  0  0  0  0  0  0  0  0  0
    7.4312  -12.0138   26.4783 C   0  0  0  0  0  0  0  0  0  0  0  0
    7.8975  -13.4172   26.8163 C   0  0  2  0  0  0  0  0  0  0  0  0
    9.3829  -13.3558   27.0876 C   0  0  0  0  0  0  0  0  0  0  0  0
    7.5776  -14.3933   25.7027 C   0  0  2  0  0  0  0  0  0  0  0  0
    8.2258  -14.0576   24.4723 N   0  0  0  0  0  0  0  0  0  0  0  0
    6.1237  -14.6189   25.5645 C   0  0  0  0  0  0  0  0  0  0  0  0
    5.3722  -15.3225   26.5162 O   0  0  0  0  0  0  0  0  0  0  0  0
    5.4553  -14.1973   24.5854 O   0  0  0  0  0  0  0  0  0  0  0  0
  2  1  1  1
  3  2  1  0
  4  3  1  0
  5  4  2  0
  6  7  1  0
  6  5  1  0
  7  8  2  0
  8  4  1  0
  9 11  1  0
  9  2  1  0
 10  9  2  0
 11 15  1  0
 12 13  1  0
 12 11  1  0
 13 14  1  0
 15 14  1  0
 15 16  1  1
 16 17  2  0
 18 19  1  0
 19 20  1  0
 20 21  1  6
 20 22  1  0
 22 24  1  0
 22 23  1  6
 23 16  1  0
 24 25  1  0
 26 24  2  0
M  END
$$$$
