HPI.pdb
     RDKit          3D

 26 27  0  0  1  0  0  0  0  0999 V2000
   12.0708  -16.1931   19.6963 N   0  0  0  0  0  0  0  0  0  0  0  0
   10.8567  -16.7720   20.2017 C   0  0  1  0  0  0  0  0  0  0  0  0
   11.2534  -18.0071   20.9890 C   0  0  0  0  0  0  0  0  0  0  0  0
   11.8955  -19.0215   20.1135 C   0  0  0  0  0  0  0  0  0  0  0  0
   11.2622  -19.8426   19.2020 C   0  0  0  0  0  0  0  0  0  0  0  0
   12.1812  -20.6206   18.6062 N   0  0  0  0  0  0  0  0  0  0  0  0
   13.3900  -20.3109   19.1210 C   0  0  0  0  0  0  0  0  0  0  0  0
   13.2075  -19.3409   20.0336 N   0  0  0  0  0  0  0  0  0  0  0  0
   10.0664  -15.8658   21.0595 C   0  0  0  0  0  0  0  0  0  0  0  0
   10.7594  -15.0250   21.7523 O   0  0  0  0  0  0  0  0  0  0  0  0
    8.6528  -15.8719   21.1549 N   0  0  0  0  0  0  0  0  0  0  0  0
    7.8419  -16.8942   20.4740 C   0  0  0  0  0  0  0  0  0  0  0  0
    6.7661  -16.0167   19.8674 C   0  0  0  0  0  0  0  0  0  0  0  0
    6.4999  -15.0126   20.9524 C   0  0  0  0  0  0  0  0  0  0  0  0
    7.7374  -15.0286   21.8516 C   0  0  1  0  0  0  0  0  0  0  0  0
    7.3958  -15.5294   23.2120 C   0  0  0  0  0  0  0  0  0  0  0  0
    7.6227  -16.7283   23.4905 O   0  0  0  0  0  0  0  0  0  0  0  0
    5.5638  -11.3176   26.2672 C   0  0  0  0  0  0  0  0  0  0  0  0
    6.5560  -12.1975   25.5409 C   0  0  0  0  0  0  0  0  0  0  0  0
    6.6916  -13.4796   26.3403 C   0  0  2  0  0  0  0  0  0  0  0  0
    7.4550  -13.1557   27.6036 C   0  0  0  0  0  0  0  0  0  0  0  0
    7.3812  -14.5648   25.5390 C   0  0  2  0  0  0  0  0  0  0  0  0
    6.8201  -14.7263   24.2329 N   0  0  0  0  0  0  0  0  0  0  0  0
    7.4912  -15.8283   26.2974 C   0  0  0  0  0  0  0  0  0  0  0  0
    6.6174  -16.9072   26.1030 O   0  0  0  0  0  0  0  0  0  0  0  0
    8.3746  -16.0280   27.1709 O   0  0  0  0  0  0  0  0  0  0  0  0
  2  1  1  1
  3  2  1  0
  4  3  1  0
  5  4  2  0
  6  7  1  0
  6  5  1  0
  7  8  2  0
  8  4  1  0
  9 11  1  0
  9  2  1  0
 10  9  2  0
 11 15  1  0
 12 13  1  0
 12 11  1  0
 13 14  1  0
 15 14  1  0
 15 16  1  1
 16 17  2  0
 18 19  1  0
 19 20  1  0
 20 21  1  1
 20 22  1  0
 22 24  1  0
 22 23  1  6
 23 16  1  0
 24 25  1  0
 26 24  2  0
M  END
$$$$
