HPI.pdb
     RDKit          3D

 26 27  0  0  1  0  0  0  0  0999 V2000
    6.8210  -16.8225   19.1516 N   0  0  0  0  0  0  0  0  0  0  0  0
    7.7071  -15.9727   19.8981 C   0  0  1  0  0  0  0  0  0  0  0  0
    7.3478  -14.5422   19.5416 C   0  0  0  0  0  0  0  0  0  0  0  0
    7.7244  -14.2249   18.1397 C   0  0  0  0  0  0  0  0  0  0  0  0
    8.5794  -13.2243   17.7225 C   0  0  0  0  0  0  0  0  0  0  0  0
    8.6641  -13.2560   16.3822 N   0  0  0  0  0  0  0  0  0  0  0  0
    7.8784  -14.2590   15.9360 C   0  0  0  0  0  0  0  0  0  0  0  0
    7.3129  -14.8407   17.0078 N   0  0  0  0  0  0  0  0  0  0  0  0
    7.6308  -16.1567   21.3616 C   0  0  0  0  0  0  0  0  0  0  0  0
    6.4506  -16.0268   21.8688 O   0  0  0  0  0  0  0  0  0  0  0  0
    8.7354  -16.4554   22.1971 N   0  0  0  0  0  0  0  0  0  0  0  0
   10.1047  -16.5283   21.6624 C   0  0  0  0  0  0  0  0  0  0  0  0
   10.5785  -17.8065   22.3237 C   0  0  0  0  0  0  0  0  0  0  0  0
    9.9905  -17.7094   23.7026 C   0  0  0  0  0  0  0  0  0  0  0  0
    8.8341  -16.7136   23.5964 C   0  0  1  0  0  0  0  0  0  0  0  0
    9.1132  -15.4919   24.4013 C   0  0  0  0  0  0  0  0  0  0  0  0
   10.0506  -14.7390   24.0536 O   0  0  0  0  0  0  0  0  0  0  0  0
    5.5576  -12.0080   27.0620 C   0  0  0  0  0  0  0  0  0  0  0  0
    6.3023  -13.2710   26.6925 C   0  0  0  0  0  0  0  0  0  0  0  0
    7.6805  -12.8579   26.2121 C   0  0  2  0  0  0  0  0  0  0  0  0
    7.5553  -12.4283   24.7687 C   0  0  0  0  0  0  0  0  0  0  0  0
    8.6851  -13.9808   26.3708 C   0  0  2  0  0  0  0  0  0  0  0  0
    8.3763  -15.1158   25.5562 N   0  0  0  0  0  0  0  0  0  0  0  0
    8.9209  -14.3166   27.7904 C   0  0  0  0  0  0  0  0  0  0  0  0
    8.6670  -15.5895   28.3203 O   0  0  0  0  0  0  0  0  0  0  0  0
    9.3657  -13.4871   28.6255 O   0  0  0  0  0  0  0  0  0  0  0  0
  2  1  1  6
  3  2  1  0
  4  3  1  0
  5  4  2  0
  6  7  1  0
  6  5  1  0
  7  8  2  0
  8  4  1  0
  9 11  1  0
  9  2  1  0
 10  9  2  0
 11 15  1  0
 12 13  1  0
 12 11  1  0
 13 14  1  0
 15 14  1  0
 15 16  1  1
 16 17  2  0
 18 19  1  0
 19 20  1  0
 20 21  1  6
 20 22  1  0
 22 24  1  0
 22 23  1  6
 23 16  1  0
 24 25  1  0
 26 24  2  0
M  END
$$$$
