HPI.pdb
     RDKit          3D

 26 27  0  0  1  0  0  0  0  0999 V2000
   10.6905  -14.4367   18.3237 N   0  0  0  0  0  0  0  0  0  0  0  0
   10.8637  -15.2838   19.4713 C   0  0  1  0  0  0  0  0  0  0  0  0
   12.0828  -14.7716   20.2155 C   0  0  0  0  0  0  0  0  0  0  0  0
   13.2532  -14.6429   19.3092 C   0  0  0  0  0  0  0  0  0  0  0  0
   13.3961  -15.2163   18.0614 C   0  0  0  0  0  0  0  0  0  0  0  0
   14.5912  -14.8671   17.5570 N   0  0  0  0  0  0  0  0  0  0  0  0
   15.2141  -14.0809   18.4605 C   0  0  0  0  0  0  0  0  0  0  0  0
   14.3960  -13.9504   19.5191 N   0  0  0  0  0  0  0  0  0  0  0  0
    9.7003  -15.3149   20.3808 C   0  0  0  0  0  0  0  0  0  0  0  0
    8.9178  -14.2907   20.3037 O   0  0  0  0  0  0  0  0  0  0  0  0
    9.4130  -16.3630   21.2898 N   0  0  0  0  0  0  0  0  0  0  0  0
   10.2996  -17.5305   21.4202 C   0  0  0  0  0  0  0  0  0  0  0  0
    9.2721  -18.6439   21.4151 C   0  0  0  0  0  0  0  0  0  0  0  0
    8.1542  -18.0735   22.2407 C   0  0  0  0  0  0  0  0  0  0  0  0
    8.3508  -16.5565   22.2219 C   0  0  1  0  0  0  0  0  0  0  0  0
    8.6657  -16.0475   23.5858 C   0  0  0  0  0  0  0  0  0  0  0  0
    9.8220  -16.2045   24.0385 O   0  0  0  0  0  0  0  0  0  0  0  0
    6.4673  -11.3610   26.9011 C   0  0  0  0  0  0  0  0  0  0  0  0
    7.5594  -12.3939   26.7382 C   0  0  0  0  0  0  0  0  0  0  0  0
    7.1147  -13.3531   25.6504 C   0  0  2  0  0  0  0  0  0  0  0  0
    5.7318  -13.8460   26.0086 C   0  0  0  0  0  0  0  0  0  0  0  0
    8.0883  -14.5026   25.4898 C   0  0  2  0  0  0  0  0  0  0  0  0
    7.7282  -15.3849   24.4226 N   0  0  0  0  0  0  0  0  0  0  0  0
    8.3446  -15.1946   26.7701 C   0  0  0  0  0  0  0  0  0  0  0  0
    9.1784  -14.6642   27.7645 O   0  0  0  0  0  0  0  0  0  0  0  0
    7.8347  -16.3076   27.0610 O   0  0  0  0  0  0  0  0  0  0  0  0
  2  1  1  6
  3  2  1  0
  4  3  1  0
  5  4  2  0
  6  7  1  0
  6  5  1  0
  7  8  2  0
  8  4  1  0
  9 11  1  0
  9  2  1  0
 10  9  2  0
 11 15  1  0
 12 13  1  0
 12 11  1  0
 13 14  1  0
 15 14  1  0
 15 16  1  1
 16 17  2  0
 18 19  1  0
 19 20  1  0
 20 21  1  1
 20 22  1  0
 22 24  1  0
 22 23  1  6
 23 16  1  0
 24 25  1  0
 26 24  2  0
M  END
$$$$
