HPI.pdb
     RDKit          3D

 26 27  0  0  1  0  0  0  0  0999 V2000
    8.1533  -16.7665   19.0863 N   0  0  0  0  0  0  0  0  0  0  0  0
    8.0636  -15.5662   19.8711 C   0  0  1  0  0  0  0  0  0  0  0  0
    7.1097  -14.6364   19.1445 C   0  0  0  0  0  0  0  0  0  0  0  0
    7.6097  -14.3058   17.7849 C   0  0  0  0  0  0  0  0  0  0  0  0
    8.4762  -13.2839   17.4516 C   0  0  0  0  0  0  0  0  0  0  0  0
    8.6883  -13.3093   16.1253 N   0  0  0  0  0  0  0  0  0  0  0  0
    7.9727  -14.3293   15.6057 C   0  0  0  0  0  0  0  0  0  0  0  0
    7.3222  -14.9276   16.6185 N   0  0  0  0  0  0  0  0  0  0  0  0
    7.5932  -15.7823   21.2545 C   0  0  0  0  0  0  0  0  0  0  0  0
    6.4441  -15.2618   21.5294 O   0  0  0  0  0  0  0  0  0  0  0  0
    8.3057  -16.4990   22.2475 N   0  0  0  0  0  0  0  0  0  0  0  0
    9.6031  -17.1301   21.9564 C   0  0  0  0  0  0  0  0  0  0  0  0
    9.3883  -18.4843   22.6009 C   0  0  0  0  0  0  0  0  0  0  0  0
    8.6424  -18.1431   23.8594 C   0  0  0  0  0  0  0  0  0  0  0  0
    8.0278  -16.7625   23.6215 C   0  0  1  0  0  0  0  0  0  0  0  0
    8.6194  -15.7545   24.5446 C   0  0  0  0  0  0  0  0  0  0  0  0
    9.8137  -15.4155   24.3857 O   0  0  0  0  0  0  0  0  0  0  0  0
    5.7317  -11.8553   27.6253 C   0  0  0  0  0  0  0  0  0  0  0  0
    6.1809  -13.0958   26.8868 C   0  0  0  0  0  0  0  0  0  0  0  0
    7.5866  -12.8349   26.3799 C   0  0  2  0  0  0  0  0  0  0  0  0
    7.4757  -12.2929   24.9737 C   0  0  0  0  0  0  0  0  0  0  0  0
    8.4362  -14.0885   26.4251 C   0  0  2  0  0  0  0  0  0  0  0  0
    7.9096  -15.1408   25.6114 N   0  0  0  0  0  0  0  0  0  0  0  0
    8.7367  -14.5044   27.8109 C   0  0  0  0  0  0  0  0  0  0  0  0
    9.5043  -13.7240   28.6867 O   0  0  0  0  0  0  0  0  0  0  0  0
    8.3267  -15.5865   28.3052 O   0  0  0  0  0  0  0  0  0  0  0  0
  2  1  1  6
  3  2  1  0
  4  3  1  0
  5  4  2  0
  6  7  1  0
  6  5  1  0
  7  8  2  0
  8  4  1  0
  9 11  1  0
  9  2  1  0
 10  9  2  0
 11 15  1  0
 12 13  1  0
 12 11  1  0
 13 14  1  0
 15 14  1  0
 15 16  1  1
 16 17  2  0
 18 19  1  0
 19 20  1  0
 20 21  1  6
 20 22  1  0
 22 24  1  0
 22 23  1  1
 23 16  1  0
 24 25  1  0
 26 24  2  0
M  END
$$$$
