HPI.pdb
     RDKit          3D

 26 27  0  0  1  0  0  0  0  0999 V2000
   11.0212  -17.9072   19.1906 N   0  0  0  0  0  0  0  0  0  0  0  0
    9.7541  -17.8035   19.8600 C   0  0  1  0  0  0  0  0  0  0  0  0
    9.5903  -19.0642   20.6884 C   0  0  0  0  0  0  0  0  0  0  0  0
    9.2685  -20.2346   19.8315 C   0  0  0  0  0  0  0  0  0  0  0  0
    9.0485  -20.2223   18.4685 C   0  0  0  0  0  0  0  0  0  0  0  0
    8.7863  -21.4747   18.0594 N   0  0  0  0  0  0  0  0  0  0  0  0
    8.8350  -22.2866   19.1368 C   0  0  0  0  0  0  0  0  0  0  0  0
    9.1278  -21.5267   20.2063 N   0  0  0  0  0  0  0  0  0  0  0  0
    9.6244  -16.6154   20.7280 C   0  0  0  0  0  0  0  0  0  0  0  0
   10.7390  -16.1352   21.1685 O   0  0  0  0  0  0  0  0  0  0  0  0
    8.3964  -16.0048   21.0837 N   0  0  0  0  0  0  0  0  0  0  0  0
    7.1054  -16.5833   20.6775 C   0  0  0  0  0  0  0  0  0  0  0  0
    6.3983  -15.3348   20.1908 C   0  0  0  0  0  0  0  0  0  0  0  0
    6.8185  -14.2981   21.1933 C   0  0  0  0  0  0  0  0  0  0  0  0
    8.0940  -14.8366   21.8441 C   0  0  1  0  0  0  0  0  0  0  0  0
    7.8714  -15.1178   23.2898 C   0  0  0  0  0  0  0  0  0  0  0  0
    7.5234  -16.2691   23.6360 O   0  0  0  0  0  0  0  0  0  0  0  0
    5.6960  -11.5855   26.9762 C   0  0  0  0  0  0  0  0  0  0  0  0
    6.1060  -12.6924   26.0314 C   0  0  0  0  0  0  0  0  0  0  0  0
    7.4426  -13.2243   26.5126 C   0  0  2  0  0  0  0  0  0  0  0  0
    8.4491  -12.1020   26.4086 C   0  0  0  0  0  0  0  0  0  0  0  0
    7.8793  -14.4359   25.7147 C   0  0  2  0  0  0  0  0  0  0  0  0
    8.0295  -14.1528   24.3204 N   0  0  0  0  0  0  0  0  0  0  0  0
    7.0344  -15.6161   25.9923 C   0  0  0  0  0  0  0  0  0  0  0  0
    6.0328  -16.0542   25.1147 O   0  0  0  0  0  0  0  0  0  0  0  0
    7.1515  -16.3124   27.0338 O   0  0  0  0  0  0  0  0  0  0  0  0
  2  1  1  1
  3  2  1  0
  4  3  1  0
  5  4  2  0
  6  7  1  0
  6  5  1  0
  7  8  2  0
  8  4  1  0
  9 11  1  0
  9  2  1  0
 10  9  2  0
 11 15  1  0
 12 13  1  0
 12 11  1  0
 13 14  1  0
 15 14  1  0
 15 16  1  1
 16 17  2  0
 18 19  1  0
 19 20  1  0
 20 21  1  6
 20 22  1  0
 22 24  1  0
 22 23  1  6
 23 16  1  0
 24 25  1  0
 26 24  2  0
M  END
$$$$
