HPI.pdb
     RDKit          3D

 26 27  0  0  1  0  0  0  0  0999 V2000
    6.4083  -19.1762   20.6264 N   0  0  0  0  0  0  0  0  0  0  0  0
    6.2428  -17.8065   21.0278 C   0  0  1  0  0  0  0  0  0  0  0  0
    5.4830  -17.8223   22.3412 C   0  0  0  0  0  0  0  0  0  0  0  0
    6.1747  -18.6608   23.3543 C   0  0  0  0  0  0  0  0  0  0  0  0
    7.3329  -19.3892   23.1693 C   0  0  0  0  0  0  0  0  0  0  0  0
    7.6414  -20.0140   24.3178 N   0  0  0  0  0  0  0  0  0  0  0  0
    6.7009  -19.6975   25.2330 C   0  0  0  0  0  0  0  0  0  0  0  0
    5.8161  -18.8772   24.6405 N   0  0  0  0  0  0  0  0  0  0  0  0
    7.5110  -17.0677   21.1936 C   0  0  0  0  0  0  0  0  0  0  0  0
    8.5729  -17.8018   21.2176 O   0  0  0  0  0  0  0  0  0  0  0  0
    7.6157  -15.6605   21.3206 N   0  0  0  0  0  0  0  0  0  0  0  0
    6.4203  -14.8036   21.3748 C   0  0  0  0  0  0  0  0  0  0  0  0
    6.8346  -13.7115   20.4098 C   0  0  0  0  0  0  0  0  0  0  0  0
    8.2882  -13.5121   20.7317 C   0  0  0  0  0  0  0  0  0  0  0  0
    8.7409  -14.7917   21.4374 C   0  0  1  0  0  0  0  0  0  0  0  0
    9.1218  -14.5099   22.8495 C   0  0  0  0  0  0  0  0  0  0  0  0
   10.1893  -13.8978   23.0780 O   0  0  0  0  0  0  0  0  0  0  0  0
    5.7585  -12.1711   25.9054 C   0  0  0  0  0  0  0  0  0  0  0  0
    6.9713  -12.7147   25.1844 C   0  0  0  0  0  0  0  0  0  0  0  0
    7.5353  -13.8379   26.0337 C   0  0  2  0  0  0  0  0  0  0  0  0
    7.9944  -13.2390   27.3429 C   0  0  0  0  0  0  0  0  0  0  0  0
    8.6660  -14.5566   25.3265 C   0  0  2  0  0  0  0  0  0  0  0  0
    8.3437  -14.8948   23.9742 N   0  0  0  0  0  0  0  0  0  0  0  0
    9.1783  -15.6956   26.1164 C   0  0  0  0  0  0  0  0  0  0  0  0
   10.3192  -15.6041   26.9260 O   0  0  0  0  0  0  0  0  0  0  0  0
    8.6298  -16.8280   26.1204 O   0  0  0  0  0  0  0  0  0  0  0  0
  2  1  1  1
  3  2  1  0
  4  3  1  0
  5  4  2  0
  6  7  1  0
  6  5  1  0
  7  8  2  0
  8  4  1  0
  9 11  1  0
  9  2  1  0
 10  9  2  0
 11 15  1  0
 12 13  1  0
 12 11  1  0
 13 14  1  0
 15 14  1  0
 15 16  1  1
 16 17  2  0
 18 19  1  0
 19 20  1  0
 20 21  1  1
 20 22  1  0
 22 24  1  0
 22 23  1  6
 23 16  1  0
 24 25  1  0
 26 24  2  0
M  END
$$$$
