HPI.pdb
     RDKit          3D

 26 27  0  0  1  0  0  0  0  0999 V2000
   10.5486  -17.3360   19.1393 N   0  0  0  0  0  0  0  0  0  0  0  0
    9.4571  -17.2849   20.0723 C   0  0  1  0  0  0  0  0  0  0  0  0
    9.2303  -18.7033   20.5613 C   0  0  0  0  0  0  0  0  0  0  0  0
    8.8080  -19.5956   19.4509 C   0  0  0  0  0  0  0  0  0  0  0  0
    7.6193  -19.5344   18.7512 C   0  0  0  0  0  0  0  0  0  0  0  0
    7.6087  -20.5087   17.8265 N   0  0  0  0  0  0  0  0  0  0  0  0
    8.7695  -21.1911   17.9230 C   0  0  0  0  0  0  0  0  0  0  0  0
    9.4901  -20.6309   18.9099 N   0  0  0  0  0  0  0  0  0  0  0  0
    9.6883  -16.3904   21.2247 C   0  0  0  0  0  0  0  0  0  0  0  0
   10.9289  -16.1566   21.4958 O   0  0  0  0  0  0  0  0  0  0  0  0
    8.6656  -15.8032   22.0098 N   0  0  0  0  0  0  0  0  0  0  0  0
    7.2450  -16.1035   21.7690 C   0  0  0  0  0  0  0  0  0  0  0  0
    6.6664  -14.7044   21.8253 C   0  0  0  0  0  0  0  0  0  0  0  0
    7.4320  -14.0690   22.9508 C   0  0  0  0  0  0  0  0  0  0  0  0
    8.7059  -14.9002   23.1132 C   0  0  1  0  0  0  0  0  0  0  0  0
    8.7237  -15.5873   24.4346 C   0  0  0  0  0  0  0  0  0  0  0  0
    8.1412  -16.6888   24.5521 O   0  0  0  0  0  0  0  0  0  0  0  0
   10.6203  -13.5342   29.5612 C   0  0  0  0  0  0  0  0  0  0  0  0
    9.7454  -14.3235   28.6137 C   0  0  0  0  0  0  0  0  0  0  0  0
   10.6654  -15.0755   27.6707 C   0  0  2  0  0  0  0  0  0  0  0  0
   11.5665  -14.0634   27.0022 C   0  0  0  0  0  0  0  0  0  0  0  0
    9.8826  -15.8786   26.6521 C   0  0  2  0  0  0  0  0  0  0  0  0
    9.3672  -15.0697   25.5906 N   0  0  0  0  0  0  0  0  0  0  0  0
    8.8644  -16.7395   27.2894 C   0  0  0  0  0  0  0  0  0  0  0  0
    9.1962  -17.8666   28.0542 O   0  0  0  0  0  0  0  0  0  0  0  0
    7.6284  -16.5248   27.1925 O   0  0  0  0  0  0  0  0  0  0  0  0
  2  1  1  6
  3  2  1  0
  4  3  1  0
  5  4  2  0
  6  7  1  0
  6  5  1  0
  7  8  2  0
  8  4  1  0
  9 11  1  0
  9  2  1  0
 10  9  2  0
 11 15  1  0
 12 13  1  0
 12 11  1  0
 13 14  1  0
 15 14  1  0
 15 16  1  1
 16 17  2  0
 18 19  1  0
 19 20  1  0
 20 21  1  6
 20 22  1  0
 22 24  1  0
 22 23  1  6
 23 16  1  0
 24 25  1  0
 26 24  2  0
M  END
$$$$
