HPI.pdb
     RDKit          3D

 26 27  0  0  1  0  0  0  0  0999 V2000
    6.2539  -18.7232   20.1132 N   0  0  0  0  0  0  0  0  0  0  0  0
    6.1365  -17.4545   20.7774 C   0  0  1  0  0  0  0  0  0  0  0  0
    5.2966  -17.6852   22.0200 C   0  0  0  0  0  0  0  0  0  0  0  0
    3.9894  -18.3043   21.6800 C   0  0  0  0  0  0  0  0  0  0  0  0
    3.1592  -17.9545   20.6337 C   0  0  0  0  0  0  0  0  0  0  0  0
    2.0725  -18.7439   20.6588 N   0  0  0  0  0  0  0  0  0  0  0  0
    2.1938  -19.5914   21.7025 C   0  0  0  0  0  0  0  0  0  0  0  0
    3.3584  -19.3180   22.3157 N   0  0  0  0  0  0  0  0  0  0  0  0
    7.4294  -16.8477   21.1543 C   0  0  0  0  0  0  0  0  0  0  0  0
    8.4044  -17.6819   21.2975 O   0  0  0  0  0  0  0  0  0  0  0  0
    7.6432  -15.4618   21.3561 N   0  0  0  0  0  0  0  0  0  0  0  0
    6.5311  -14.4988   21.3099 C   0  0  0  0  0  0  0  0  0  0  0  0
    7.1535  -13.4180   20.4497 C   0  0  0  0  0  0  0  0  0  0  0  0
    8.5702  -13.3671   20.9467 C   0  0  0  0  0  0  0  0  0  0  0  0
    8.8193  -14.7070   21.6417 C   0  0  1  0  0  0  0  0  0  0  0  0
    9.0521  -14.5108   23.0996 C   0  0  0  0  0  0  0  0  0  0  0  0
   10.0532  -13.8576   23.4703 O   0  0  0  0  0  0  0  0  0  0  0  0
    5.9418  -11.9670   26.0441 C   0  0  0  0  0  0  0  0  0  0  0  0
    7.1023  -12.6820   25.3899 C   0  0  0  0  0  0  0  0  0  0  0  0
    7.3222  -13.9756   26.1511 C   0  0  2  0  0  0  0  0  0  0  0  0
    7.6628  -13.6172   27.5790 C   0  0  0  0  0  0  0  0  0  0  0  0
    8.4106  -14.8169   25.5163 C   0  0  2  0  0  0  0  0  0  0  0  0
    8.2017  -15.0230   24.1160 N   0  0  0  0  0  0  0  0  0  0  0  0
    8.6563  -16.0646   26.2690 C   0  0  0  0  0  0  0  0  0  0  0  0
    9.5812  -16.1463   27.3193 O   0  0  0  0  0  0  0  0  0  0  0  0
    8.0551  -17.1423   26.0232 O   0  0  0  0  0  0  0  0  0  0  0  0
  2  1  1  1
  3  2  1  0
  4  3  1  0
  5  4  2  0
  6  7  1  0
  6  5  1  0
  7  8  2  0
  8  4  1  0
  9 11  1  0
  9  2  1  0
 10  9  2  0
 11 15  1  0
 12 13  1  0
 12 11  1  0
 13 14  1  0
 15 14  1  0
 15 16  1  1
 16 17  2  0
 18 19  1  0
 19 20  1  0
 20 21  1  1
 20 22  1  0
 22 24  1  0
 22 23  1  6
 23 16  1  0
 24 25  1  0
 26 24  2  0
M  END
$$$$
