HPI.pdb
     RDKit          3D

 26 27  0  0  1  0  0  0  0  0999 V2000
    7.2810  -16.0279   18.7067 N   0  0  0  0  0  0  0  0  0  0  0  0
    8.2496  -15.5254   19.6414 C   0  0  1  0  0  0  0  0  0  0  0  0
    8.2525  -14.0145   19.5016 C   0  0  0  0  0  0  0  0  0  0  0  0
    8.9641  -13.5883   18.2688 C   0  0  0  0  0  0  0  0  0  0  0  0
   10.2730  -13.1582   18.1798 C   0  0  0  0  0  0  0  0  0  0  0  0
   10.5470  -12.8626   16.8983 N   0  0  0  0  0  0  0  0  0  0  0  0
    9.4365  -13.0963   16.1673 C   0  0  0  0  0  0  0  0  0  0  0  0
    8.4822  -13.5358   17.0059 N   0  0  0  0  0  0  0  0  0  0  0  0
    7.9830  -15.8962   21.0461 C   0  0  0  0  0  0  0  0  0  0  0  0
    6.7548  -15.7660   21.4229 O   0  0  0  0  0  0  0  0  0  0  0  0
    8.9608  -16.3662   21.9573 N   0  0  0  0  0  0  0  0  0  0  0  0
   10.3842  -16.4330   21.5890 C   0  0  0  0  0  0  0  0  0  0  0  0
   10.7266  -17.8144   22.1085 C   0  0  0  0  0  0  0  0  0  0  0  0
    9.9703  -17.8832   23.4045 C   0  0  0  0  0  0  0  0  0  0  0  0
    8.8706  -16.8243   23.3051 C   0  0  1  0  0  0  0  0  0  0  0  0
    9.0844  -15.7445   24.3084 C   0  0  0  0  0  0  0  0  0  0  0  0
   10.1614  -15.1071   24.2915 O   0  0  0  0  0  0  0  0  0  0  0  0
    6.3295  -11.2314   27.1442 C   0  0  0  0  0  0  0  0  0  0  0  0
    7.5009  -12.1842   27.2217 C   0  0  0  0  0  0  0  0  0  0  0  0
    7.1933  -13.3528   26.3047 C   0  0  2  0  0  0  0  0  0  0  0  0
    5.9177  -13.9985   26.7942 C   0  0  0  0  0  0  0  0  0  0  0  0
    8.3371  -14.3455   26.2653 C   0  0  2  0  0  0  0  0  0  0  0  0
    8.1341  -15.3821   25.3004 N   0  0  0  0  0  0  0  0  0  0  0  0
    8.6811  -14.8480   27.6117 C   0  0  0  0  0  0  0  0  0  0  0  0
    8.5295  -16.1920   27.9806 O   0  0  0  0  0  0  0  0  0  0  0  0
    9.1341  -14.1086   28.5235 O   0  0  0  0  0  0  0  0  0  0  0  0
  2  1  1  6
  3  2  1  0
  4  3  1  0
  5  4  2  0
  6  7  1  0
  6  5  1  0
  7  8  2  0
  8  4  1  0
  9 11  1  0
  9  2  1  0
 10  9  2  0
 11 15  1  0
 12 13  1  0
 12 11  1  0
 13 14  1  0
 15 14  1  0
 15 16  1  1
 16 17  2  0
 18 19  1  0
 19 20  1  0
 20 21  1  1
 20 22  1  0
 22 24  1  0
 22 23  1  6
 23 16  1  0
 24 25  1  0
 26 24  2  0
M  END
$$$$
