HPI.pdb
     RDKit          3D

 26 27  0  0  1  0  0  0  0  0999 V2000
    7.4887  -17.0165   19.0339 N   0  0  0  0  0  0  0  0  0  0  0  0
    8.2081  -16.1133   19.8890 C   0  0  1  0  0  0  0  0  0  0  0  0
    7.5559  -14.7516   19.7377 C   0  0  0  0  0  0  0  0  0  0  0  0
    7.6857  -14.2429   18.3477 C   0  0  0  0  0  0  0  0  0  0  0  0
    8.4215  -13.1497   17.9357 C   0  0  0  0  0  0  0  0  0  0  0  0
    8.2871  -13.0116   16.6062 N   0  0  0  0  0  0  0  0  0  0  0  0
    7.4787  -13.9971   16.1619 C   0  0  0  0  0  0  0  0  0  0  0  0
    7.1189  -14.7385   17.2239 N   0  0  0  0  0  0  0  0  0  0  0  0
    8.2176  -16.5070   21.3126 C   0  0  0  0  0  0  0  0  0  0  0  0
    7.0567  -16.7594   21.8183 O   0  0  0  0  0  0  0  0  0  0  0  0
    9.3816  -16.6172   22.1127 N   0  0  0  0  0  0  0  0  0  0  0  0
   10.7151  -16.3021   21.5754 C   0  0  0  0  0  0  0  0  0  0  0  0
   11.4970  -17.4909   22.0959 C   0  0  0  0  0  0  0  0  0  0  0  0
   10.9367  -17.6833   23.4764 C   0  0  0  0  0  0  0  0  0  0  0  0
    9.5734  -16.9894   23.4762 C   0  0  1  0  0  0  0  0  0  0  0  0
    9.5715  -15.8277   24.4084 C   0  0  0  0  0  0  0  0  0  0  0  0
   10.1669  -14.7798   24.0709 O   0  0  0  0  0  0  0  0  0  0  0  0
    6.4060  -12.1638   25.4319 C   0  0  0  0  0  0  0  0  0  0  0  0
    7.7152  -12.9193   25.3963 C   0  0  0  0  0  0  0  0  0  0  0  0
    7.7049  -13.8948   26.5580 C   0  0  2  0  0  0  0  0  0  0  0  0
    7.5347  -13.0953   27.8289 C   0  0  0  0  0  0  0  0  0  0  0  0
    8.9680  -14.7306   26.5941 C   0  0  2  0  0  0  0  0  0  0  0  0
    8.9298  -15.8271   25.6759 N   0  0  0  0  0  0  0  0  0  0  0  0
    9.3334  -15.1230   27.9712 C   0  0  0  0  0  0  0  0  0  0  0  0
   10.0704  -14.2913   28.8258 O   0  0  0  0  0  0  0  0  0  0  0  0
    9.0107  -16.2293   28.4764 O   0  0  0  0  0  0  0  0  0  0  0  0
  2  1  1  6
  3  2  1  0
  4  3  1  0
  5  4  2  0
  6  7  1  0
  6  5  1  0
  7  8  2  0
  8  4  1  0
  9 11  1  0
  9  2  1  0
 10  9  2  0
 11 15  1  0
 12 13  1  0
 12 11  1  0
 13 14  1  0
 15 14  1  0
 15 16  1  1
 16 17  2  0
 18 19  1  0
 19 20  1  0
 20 21  1  1
 20 22  1  0
 22 24  1  0
 22 23  1  6
 23 16  1  0
 24 25  1  0
 26 24  2  0
M  END
$$$$
