HPI.pdb
     RDKit          3D

 26 27  0  0  1  0  0  0  0  0999 V2000
   10.8656  -16.7554   19.5232 N   0  0  0  0  0  0  0  0  0  0  0  0
    9.7736  -16.9694   20.4321 C   0  0  1  0  0  0  0  0  0  0  0  0
    9.7346  -18.4568   20.7297 C   0  0  0  0  0  0  0  0  0  0  0  0
    9.4120  -19.2425   19.5106 C   0  0  0  0  0  0  0  0  0  0  0  0
    8.1732  -19.3656   18.9135 C   0  0  0  0  0  0  0  0  0  0  0  0
    8.2876  -20.1581   17.8349 N   0  0  0  0  0  0  0  0  0  0  0  0
    9.5774  -20.5434   17.7325 C   0  0  0  0  0  0  0  0  0  0  0  0
   10.2515  -19.9839   18.7520 N   0  0  0  0  0  0  0  0  0  0  0  0
    9.8803  -16.2103   21.6947 C   0  0  0  0  0  0  0  0  0  0  0  0
   11.0842  -15.9131   22.0544 O   0  0  0  0  0  0  0  0  0  0  0  0
    8.7800  -15.8101   22.4924 N   0  0  0  0  0  0  0  0  0  0  0  0
    7.4103  -16.2559   22.1901 C   0  0  0  0  0  0  0  0  0  0  0  0
    6.6677  -14.9432   22.3343 C   0  0  0  0  0  0  0  0  0  0  0  0
    7.3304  -14.3112   23.5251 C   0  0  0  0  0  0  0  0  0  0  0  0
    8.6912  -14.9967   23.6608 C   0  0  1  0  0  0  0  0  0  0  0  0
    8.7659  -15.7771   24.9272 C   0  0  0  0  0  0  0  0  0  0  0  0
    8.4686  -16.9927   24.9076 O   0  0  0  0  0  0  0  0  0  0  0  0
    9.4798  -14.0534   29.9050 C   0  0  0  0  0  0  0  0  0  0  0  0
    9.7780  -13.7738   28.4493 C   0  0  0  0  0  0  0  0  0  0  0  0
   10.7680  -14.8238   27.9818 C   0  0  2  0  0  0  0  0  0  0  0  0
   11.9141  -14.1072   27.3062 C   0  0  0  0  0  0  0  0  0  0  0  0
   10.1173  -15.8278   27.0524 C   0  0  2  0  0  0  0  0  0  0  0  0
    9.1578  -15.2274   26.1772 N   0  0  0  0  0  0  0  0  0  0  0  0
    9.5996  -17.0038   27.7823 C   0  0  0  0  0  0  0  0  0  0  0  0
   10.4343  -17.8999   28.4647 O   0  0  0  0  0  0  0  0  0  0  0  0
    8.3751  -17.2866   27.8447 O   0  0  0  0  0  0  0  0  0  0  0  0
  2  1  1  6
  3  2  1  0
  4  3  1  0
  5  4  2  0
  6  7  1  0
  6  5  1  0
  7  8  2  0
  8  4  1  0
  9 11  1  0
  9  2  1  0
 10  9  2  0
 11 15  1  0
 12 13  1  0
 12 11  1  0
 13 14  1  0
 15 14  1  0
 15 16  1  1
 16 17  2  0
 18 19  1  0
 19 20  1  0
 20 21  1  6
 20 22  1  0
 22 24  1  0
 22 23  1  1
 23 16  1  0
 24 25  1  0
 26 24  2  0
M  END
$$$$
