HPI.pdb
     RDKit          3D

 26 27  0  0  1  0  0  0  0  0999 V2000
   11.7285  -17.7839   19.9710 N   0  0  0  0  0  0  0  0  0  0  0  0
   10.3180  -17.6212   20.1917 C   0  0  1  0  0  0  0  0  0  0  0  0
    9.8296  -18.8897   20.8661 C   0  0  0  0  0  0  0  0  0  0  0  0
    9.9537  -20.0629   19.9627 C   0  0  0  0  0  0  0  0  0  0  0  0
    9.3300  -20.2331   18.7428 C   0  0  0  0  0  0  0  0  0  0  0  0
    9.6928  -21.4211   18.2314 N   0  0  0  0  0  0  0  0  0  0  0  0
   10.5371  -22.0127   19.1029 C   0  0  0  0  0  0  0  0  0  0  0  0
   10.6895  -21.1825   20.1492 N   0  0  0  0  0  0  0  0  0  0  0  0
    9.9669  -16.4490   21.0190 C   0  0  0  0  0  0  0  0  0  0  0  0
   10.9619  -15.8826   21.6159 O   0  0  0  0  0  0  0  0  0  0  0  0
    8.6553  -15.9387   21.1819 N   0  0  0  0  0  0  0  0  0  0  0  0
    7.4949  -16.5890   20.5521 C   0  0  0  0  0  0  0  0  0  0  0  0
    6.7860  -15.3748   19.9877 C   0  0  0  0  0  0  0  0  0  0  0  0
    6.9582  -14.3505   21.0729 C   0  0  0  0  0  0  0  0  0  0  0  0
    8.1464  -14.8240   21.9120 C   0  0  1  0  0  0  0  0  0  0  0  0
    7.7120  -15.1748   23.2928 C   0  0  0  0  0  0  0  0  0  0  0  0
    7.6808  -16.3797   23.6299 O   0  0  0  0  0  0  0  0  0  0  0  0
    6.4781  -10.8325   26.4851 C   0  0  0  0  0  0  0  0  0  0  0  0
    7.3752  -11.8830   25.8704 C   0  0  0  0  0  0  0  0  0  0  0  0
    6.9935  -13.2170   26.4834 C   0  0  2  0  0  0  0  0  0  0  0  0
    7.5143  -13.2377   27.9018 C   0  0  0  0  0  0  0  0  0  0  0  0
    7.5390  -14.3770   25.6759 C   0  0  2  0  0  0  0  0  0  0  0  0
    7.3237  -14.2197   24.2703 N   0  0  0  0  0  0  0  0  0  0  0  0
    7.0851  -15.6809   26.2029 C   0  0  0  0  0  0  0  0  0  0  0  0
    7.8417  -16.4368   27.1092 O   0  0  0  0  0  0  0  0  0  0  0  0
    5.9892  -16.2069   25.8778 O   0  0  0  0  0  0  0  0  0  0  0  0
  2  1  1  1
  3  2  1  0
  4  3  1  0
  5  4  2  0
  6  7  1  0
  6  5  1  0
  7  8  2  0
  8  4  1  0
  9 11  1  0
  9  2  1  0
 10  9  2  0
 11 15  1  0
 12 13  1  0
 12 11  1  0
 13 14  1  0
 15 14  1  0
 15 16  1  1
 16 17  2  0
 18 19  1  0
 19 20  1  0
 20 21  1  1
 20 22  1  0
 22 24  1  0
 22 23  1  6
 23 16  1  0
 24 25  1  0
 26 24  2  0
M  END
$$$$
