HPI.pdb
     RDKit          3D

 26 27  0  0  1  0  0  0  0  0999 V2000
   11.4029  -17.5924   19.1343 N   0  0  0  0  0  0  0  0  0  0  0  0
   10.1588  -17.6593   19.8500 C   0  0  1  0  0  0  0  0  0  0  0  0
   10.2374  -18.8745   20.7553 C   0  0  0  0  0  0  0  0  0  0  0  0
   11.3733  -18.7655   21.7069 C   0  0  0  0  0  0  0  0  0  0  0  0
   12.7172  -18.7795   21.3909 C   0  0  0  0  0  0  0  0  0  0  0  0
   13.4309  -18.6586   22.5225 N   0  0  0  0  0  0  0  0  0  0  0  0
   12.5667  -18.5676   23.5556 C   0  0  0  0  0  0  0  0  0  0  0  0
   11.3221  -18.6333   23.0521 N   0  0  0  0  0  0  0  0  0  0  0  0
    9.8583  -16.4568   20.6534 C   0  0  0  0  0  0  0  0  0  0  0  0
   10.8626  -15.6725   20.8613 O   0  0  0  0  0  0  0  0  0  0  0  0
    8.5834  -16.1357   21.1815 N   0  0  0  0  0  0  0  0  0  0  0  0
    7.4382  -17.0480   21.0311 C   0  0  0  0  0  0  0  0  0  0  0  0
    6.3686  -16.0615   20.6090 C   0  0  0  0  0  0  0  0  0  0  0  0
    6.6555  -14.8654   21.4712 C   0  0  0  0  0  0  0  0  0  0  0  0
    8.1100  -15.0123   21.9219 C   0  0  1  0  0  0  0  0  0  0  0  0
    8.1894  -15.2046   23.3967 C   0  0  0  0  0  0  0  0  0  0  0  0
    8.0855  -16.3615   23.8628 O   0  0  0  0  0  0  0  0  0  0  0  0
    6.1341  -11.3983   26.2132 C   0  0  0  0  0  0  0  0  0  0  0  0
    7.4506  -12.0262   25.8146 C   0  0  0  0  0  0  0  0  0  0  0  0
    7.5293  -13.3795   26.4953 C   0  0  2  0  0  0  0  0  0  0  0  0
    8.0087  -13.1557   27.9108 C   0  0  0  0  0  0  0  0  0  0  0  0
    8.4417  -14.3279   25.7447 C   0  0  2  0  0  0  0  0  0  0  0  0
    8.3780  -14.1474   24.3268 N   0  0  0  0  0  0  0  0  0  0  0  0
    8.2564  -15.7300   26.1727 C   0  0  0  0  0  0  0  0  0  0  0  0
    7.2613  -16.5603   25.6381 O   0  0  0  0  0  0  0  0  0  0  0  0
    8.9760  -16.2803   27.0461 O   0  0  0  0  0  0  0  0  0  0  0  0
  2  1  1  1
  3  2  1  0
  4  3  1  0
  5  4  2  0
  6  7  1  0
  6  5  1  0
  7  8  2  0
  8  4  1  0
  9 11  1  0
  9  2  1  0
 10  9  2  0
 11 15  1  0
 12 13  1  0
 12 11  1  0
 13 14  1  0
 15 14  1  0
 15 16  1  1
 16 17  2  0
 18 19  1  0
 19 20  1  0
 20 21  1  1
 20 22  1  0
 22 24  1  0
 22 23  1  6
 23 16  1  0
 24 25  1  0
 26 24  2  0
M  END
$$$$
