HPI.pdb
     RDKit          3D

 26 27  0  0  1  0  0  0  0  0999 V2000
   11.7886  -17.3277   19.4151 N   0  0  0  0  0  0  0  0  0  0  0  0
   10.4599  -17.5080   19.9315 C   0  0  1  0  0  0  0  0  0  0  0  0
   10.4783  -18.7811   20.7569 C   0  0  0  0  0  0  0  0  0  0  0  0
   11.3187  -18.6239   21.9721 C   0  0  0  0  0  0  0  0  0  0  0  0
   12.6864  -18.4392   22.0098 C   0  0  0  0  0  0  0  0  0  0  0  0
   13.0764  -18.3403   23.2915 N   0  0  0  0  0  0  0  0  0  0  0  0
   11.9821  -18.4586   24.0730 C   0  0  0  0  0  0  0  0  0  0  0  0
   10.9215  -18.6301   23.2651 N   0  0  0  0  0  0  0  0  0  0  0  0
    9.9749  -16.3841   20.7581 C   0  0  0  0  0  0  0  0  0  0  0  0
   10.8821  -15.5396   21.1200 O   0  0  0  0  0  0  0  0  0  0  0  0
    8.6279  -16.1947   21.1541 N   0  0  0  0  0  0  0  0  0  0  0  0
    7.5851  -17.1796   20.8243 C   0  0  0  0  0  0  0  0  0  0  0  0
    6.4904  -16.2521   20.3377 C   0  0  0  0  0  0  0  0  0  0  0  0
    6.5818  -15.0949   21.2912 C   0  0  0  0  0  0  0  0  0  0  0  0
    7.9855  -15.1597   21.8960 C   0  0  1  0  0  0  0  0  0  0  0  0
    7.9187  -15.4389   23.3575 C   0  0  0  0  0  0  0  0  0  0  0  0
    8.2500  -16.5720   23.7731 O   0  0  0  0  0  0  0  0  0  0  0  0
    5.8670  -11.4306   26.3728 C   0  0  0  0  0  0  0  0  0  0  0  0
    7.0753  -12.1895   25.8727 C   0  0  0  0  0  0  0  0  0  0  0  0
    7.0680  -13.5466   26.5504 C   0  0  2  0  0  0  0  0  0  0  0  0
    7.6965  -13.3832   27.9149 C   0  0  0  0  0  0  0  0  0  0  0  0
    7.7990  -14.5852   25.7245 C   0  0  2  0  0  0  0  0  0  0  0  0
    7.4976  -14.4916   24.3290 N   0  0  0  0  0  0  0  0  0  0  0  0
    7.6363  -15.9465   26.2760 C   0  0  0  0  0  0  0  0  0  0  0  0
    8.5730  -16.5309   27.1401 O   0  0  0  0  0  0  0  0  0  0  0  0
    6.6480  -16.6789   26.0115 O   0  0  0  0  0  0  0  0  0  0  0  0
  2  1  1  1
  3  2  1  0
  4  3  1  0
  5  4  2  0
  6  7  1  0
  6  5  1  0
  7  8  2  0
  8  4  1  0
  9 11  1  0
  9  2  1  0
 10  9  2  0
 11 15  1  0
 12 13  1  0
 12 11  1  0
 13 14  1  0
 15 14  1  0
 15 16  1  1
 16 17  2  0
 18 19  1  0
 19 20  1  0
 20 21  1  1
 20 22  1  0
 22 24  1  0
 22 23  1  6
 23 16  1  0
 24 25  1  0
 26 24  2  0
M  END
$$$$
