HTI.pdb
     RDKit          3D

 26 26  0  0  1  0  0  0  0  0999 V2000
   17.6099  -11.4229  -15.1757 N   0  0  0  0  0  0  0  0  0  0  0  0
   16.5599  -10.8781  -14.3693 C   0  0  1  0  0  0  0  0  0  0  0  0
   15.7924  -11.9837  -13.6445 C   0  0  0  0  0  0  0  0  0  0  0  0
   15.0859  -12.7584  -14.6998 C   0  0  0  0  0  0  0  0  0  0  0  0
   15.4260  -13.9827  -15.2510 C   0  0  0  0  0  0  0  0  0  0  0  0
   14.5247  -14.3377  -16.1774 N   0  0  0  0  0  0  0  0  0  0  0  0
   13.6210  -13.3508  -16.2157 C   0  0  0  0  0  0  0  0  0  0  0  0
   13.9489  -12.3875  -15.3255 N   0  0  0  0  0  0  0  0  0  0  0  0
   17.0778   -9.8663  -13.4282 C   0  0  0  0  0  0  0  0  0  0  0  0
   18.0427  -10.1897  -12.6613 O   0  0  0  0  0  0  0  0  0  0  0  0
   19.2066   -7.5572  -13.8643 C   0  0  0  0  0  0  0  0  0  0  0  0
   18.0204   -6.7494  -13.4071 C   0  0  1  0  0  0  0  0  0  0  0  0
   17.4274   -6.1725  -14.4999 O   0  0  0  0  0  0  0  0  0  0  0  0
   17.0676   -7.5677  -12.5676 C   0  0  2  0  0  0  0  0  0  0  0  0
   16.4860   -8.5837  -13.4142 N   0  0  0  0  0  0  0  0  0  0  0  0
   16.0137   -6.7553  -11.9230 C   0  0  0  0  0  0  0  0  0  0  0  0
   14.8862   -6.6930  -12.4754 O   0  0  0  0  0  0  0  0  0  0  0  0
   14.5613   -7.5619   -7.0547 C   0  0  0  0  0  0  0  0  0  0  0  0
   14.6398   -7.0679   -8.4490 C   0  0  0  0  0  0  0  0  0  0  0  0
   15.1311   -5.7085   -8.7095 C   0  0  2  0  0  0  0  0  0  0  0  0
   14.2974   -4.6833   -7.8923 C   0  0  0  0  0  0  0  0  0  0  0  0
   15.2643   -5.2158  -10.0994 C   0  0  2  0  0  0  0  0  0  0  0  0
   16.3132   -6.0852  -10.7187 N   0  0  0  0  0  0  0  0  0  0  0  0
   15.6789   -3.8212  -10.3050 C   0  0  0  0  0  0  0  0  0  0  0  0
   14.8617   -2.7691  -10.6625 O   0  0  0  0  0  0  0  0  0  0  0  0
   16.9179   -3.4805  -10.1590 O   0  0  0  0  0  0  0  0  0  0  0  0
  2  9  1  0
  2  1  1  1
  3  2  1  0
  4  8  1  0
  4  3  1  0
  5  4  2  0
  6  5  1  0
  6  7  1  0
  7  8  2  0
  9 10  2  0
 12 11  1  6
 12 14  1  0
 13 12  1  0
 14 15  1  6
 15  9  1  0
 16 17  2  0
 16 14  1  0
 18 19  1  0
 19 20  1  0
 20 22  1  0
 20 21  1  1
 22 23  1  6
 22 24  1  0
 23 16  1  0
 24 26  2  0
 24 25  1  0
M  END
$$$$
