HTI.pdb
     RDKit          3D

 26 26  0  0  1  0  0  0  0  0999 V2000
   45.6149  -12.2594   -6.6666 N   0  0  0  0  0  0  0  0  0  0  0  0
   44.4013  -11.9236   -7.3477 C   0  0  1  0  0  0  0  0  0  0  0  0
   43.6914  -13.1777   -7.8578 C   0  0  0  0  0  0  0  0  0  0  0  0
   44.1807  -13.3956   -9.2457 C   0  0  0  0  0  0  0  0  0  0  0  0
   45.0287  -12.6025  -10.0007 C   0  0  0  0  0  0  0  0  0  0  0  0
   45.2232  -13.1535  -11.2071 N   0  0  0  0  0  0  0  0  0  0  0  0
   44.5071  -14.2845  -11.2200 C   0  0  0  0  0  0  0  0  0  0  0  0
   43.8705  -14.4435  -10.0380 N   0  0  0  0  0  0  0  0  0  0  0  0
   43.5177  -11.1051   -6.4953 C   0  0  0  0  0  0  0  0  0  0  0  0
   43.1428  -11.5838   -5.3754 O   0  0  0  0  0  0  0  0  0  0  0  0
   43.9535   -8.4995   -4.4933 C   0  0  0  0  0  0  0  0  0  0  0  0
   42.9316   -7.9664   -5.4630 C   0  0  1  0  0  0  0  0  0  0  0  0
   43.5486   -7.0999   -6.3274 O   0  0  0  0  0  0  0  0  0  0  0  0
   42.1786   -9.0759   -6.1589 C   0  0  2  0  0  0  0  0  0  0  0  0
   43.1234   -9.8279   -6.9521 N   0  0  0  0  0  0  0  0  0  0  0  0
   41.0625   -8.5866   -6.9963 C   0  0  0  0  0  0  0  0  0  0  0  0
   41.1896   -8.6316   -8.2461 O   0  0  0  0  0  0  0  0  0  0  0  0
   36.4200  -10.4751   -5.8007 C   0  0  0  0  0  0  0  0  0  0  0  0
   37.4881   -9.8148   -6.5865 C   0  0  0  0  0  0  0  0  0  0  0  0
   37.5696   -8.3485   -6.6095 C   0  0  2  0  0  0  0  0  0  0  0  0
   36.2770   -7.7606   -7.2398 C   0  0  0  0  0  0  0  0  0  0  0  0
   38.7431   -7.6748   -7.2106 C   0  0  2  0  0  0  0  0  0  0  0  0
   39.9039   -8.0911   -6.3629 N   0  0  0  0  0  0  0  0  0  0  0  0
   38.7487   -6.2065   -7.2644 C   0  0  0  0  0  0  0  0  0  0  0  0
   38.4398   -5.4268   -8.3594 O   0  0  0  0  0  0  0  0  0  0  0  0
   39.0719   -5.5165   -6.2193 O   0  0  0  0  0  0  0  0  0  0  0  0
  2  9  1  0
  2  1  1  1
  3  2  1  0
  4  8  1  0
  4  3  1  0
  5  4  2  0
  6  5  1  0
  6  7  1  0
  7  8  2  0
  9 10  2  0
 12 11  1  1
 12 14  1  0
 13 12  1  0
 14 15  1  6
 15  9  1  0
 16 17  2  0
 16 14  1  0
 18 19  1  0
 19 20  1  0
 20 22  1  0
 20 21  1  6
 22 23  1  1
 22 24  1  0
 23 16  1  0
 24 26  2  0
 24 25  1  0
M  END
$$$$
