HTI.pdb
     RDKit          3D

 26 26  0  0  1  0  0  0  0  0999 V2000
   17.9523  -16.2884  -14.9761 N   0  0  0  0  0  0  0  0  0  0  0  0
   17.5552  -16.1665  -16.3461 C   0  0  1  0  0  0  0  0  0  0  0  0
   16.6071  -17.2966  -16.7470 C   0  0  0  0  0  0  0  0  0  0  0  0
   17.3392  -18.5648  -16.4849 C   0  0  0  0  0  0  0  0  0  0  0  0
   18.5670  -18.9749  -16.9773 C   0  0  0  0  0  0  0  0  0  0  0  0
   18.8744  -20.1882  -16.4975 N   0  0  0  0  0  0  0  0  0  0  0  0
   17.8540  -20.5465  -15.7086 C   0  0  0  0  0  0  0  0  0  0  0  0
   16.9169  -19.5721  -15.6918 N   0  0  0  0  0  0  0  0  0  0  0  0
   16.9685  -14.8400  -16.6174 C   0  0  0  0  0  0  0  0  0  0  0  0
   16.5617  -14.5874  -17.7984 O   0  0  0  0  0  0  0  0  0  0  0  0
   13.9882  -13.3563  -15.5945 C   0  0  0  0  0  0  0  0  0  0  0  0
   15.0610  -12.4279  -15.0885 C   0  0  1  0  0  0  0  0  0  0  0  0
   15.1975  -12.6015  -13.7358 O   0  0  0  0  0  0  0  0  0  0  0  0
   16.3559  -12.5907  -15.8495 C   0  0  2  0  0  0  0  0  0  0  0  0
   16.8809  -13.9056  -15.5617 N   0  0  0  0  0  0  0  0  0  0  0  0
   17.3534  -11.5464  -15.5325 C   0  0  0  0  0  0  0  0  0  0  0  0
   18.3004  -11.8401  -14.7598 O   0  0  0  0  0  0  0  0  0  0  0  0
   18.6256   -7.5718  -19.2378 C   0  0  0  0  0  0  0  0  0  0  0  0
   17.9663   -8.1414  -18.0398 C   0  0  0  0  0  0  0  0  0  0  0  0
   18.7850   -8.7456  -16.9805 C   0  0  2  0  0  0  0  0  0  0  0  0
   19.6145   -9.9222  -17.5647 C   0  0  0  0  0  0  0  0  0  0  0  0
   18.1600   -9.1854  -15.7123 C   0  0  2  0  0  0  0  0  0  0  0  0
   17.2043  -10.2671  -16.1073 N   0  0  0  0  0  0  0  0  0  0  0  0
   17.4006   -8.1978  -14.9333 C   0  0  0  0  0  0  0  0  0  0  0  0
   17.9253   -7.2558  -14.0731 O   0  0  0  0  0  0  0  0  0  0  0  0
   16.1102   -8.1581  -15.0107 O   0  0  0  0  0  0  0  0  0  0  0  0
  2  9  1  0
  2  1  1  1
  3  2  1  0
  4  8  1  0
  4  3  1  0
  5  4  2  0
  6  5  1  0
  6  7  1  0
  7  8  2  0
  9 10  2  0
 12 11  1  6
 12 14  1  0
 13 12  1  0
 14 15  1  1
 15  9  1  0
 16 17  2  0
 16 14  1  0
 18 19  1  0
 19 20  1  0
 20 22  1  0
 20 21  1  6
 22 23  1  6
 22 24  1  0
 23 16  1  0
 24 26  2  0
 24 25  1  0
M  END
$$$$
