HTI.pdb
     RDKit          3D

 26 26  0  0  1  0  0  0  0  0999 V2000
   35.0306   -8.9767  -17.9078 N   0  0  0  0  0  0  0  0  0  0  0  0
   33.9599   -8.1784  -17.3921 C   0  0  1  0  0  0  0  0  0  0  0  0
   34.4922   -7.0390  -16.5230 C   0  0  0  0  0  0  0  0  0  0  0  0
   35.2485   -7.6814  -15.4147 C   0  0  0  0  0  0  0  0  0  0  0  0
   36.6077   -7.6364  -15.1523 C   0  0  0  0  0  0  0  0  0  0  0  0
   36.8892   -8.3512  -14.0539 N   0  0  0  0  0  0  0  0  0  0  0  0
   35.7226   -8.8456  -13.6218 C   0  0  0  0  0  0  0  0  0  0  0  0
   34.7202   -8.4476  -14.4370 N   0  0  0  0  0  0  0  0  0  0  0  0
   33.0942   -7.6782  -18.4774 C   0  0  0  0  0  0  0  0  0  0  0  0
   33.6156   -7.4706  -19.6214 O   0  0  0  0  0  0  0  0  0  0  0  0
   32.2156   -8.5358  -20.8562 C   0  0  0  0  0  0  0  0  0  0  0  0
   30.8512   -8.2837  -20.2702 C   0  0  1  0  0  0  0  0  0  0  0  0
   30.3834   -9.4466  -19.7157 O   0  0  0  0  0  0  0  0  0  0  0  0
   30.8541   -7.1179  -19.3094 C   0  0  2  0  0  0  0  0  0  0  0  0
   31.7267   -7.4500  -18.2068 N   0  0  0  0  0  0  0  0  0  0  0  0
   29.5047   -6.7611  -18.8216 C   0  0  0  0  0  0  0  0  0  0  0  0
   29.1033   -7.2746  -17.7467 O   0  0  0  0  0  0  0  0  0  0  0  0
   27.9052   -1.6536  -19.5187 C   0  0  0  0  0  0  0  0  0  0  0  0
   28.0656   -3.0388  -19.0189 C   0  0  0  0  0  0  0  0  0  0  0  0
   27.1631   -4.0923  -19.5015 C   0  0  2  0  0  0  0  0  0  0  0  0
   25.6888   -3.6887  -19.2233 C   0  0  0  0  0  0  0  0  0  0  0  0
   27.3613   -5.4974  -19.0788 C   0  0  2  0  0  0  0  0  0  0  0  0
   28.7240   -5.8625  -19.5780 N   0  0  0  0  0  0  0  0  0  0  0  0
   26.4271   -6.5128  -19.5838 C   0  0  0  0  0  0  0  0  0  0  0  0
   25.3831   -7.0833  -18.8857 O   0  0  0  0  0  0  0  0  0  0  0  0
   26.5433   -6.9639  -20.7904 O   0  0  0  0  0  0  0  0  0  0  0  0
  2  9  1  0
  2  1  1  6
  3  2  1  0
  4  8  1  0
  4  3  1  0
  5  4  2  0
  6  5  1  0
  6  7  1  0
  7  8  2  0
  9 10  2  0
 12 11  1  1
 12 14  1  0
 13 12  1  0
 14 15  1  1
 15  9  1  0
 16 17  2  0
 16 14  1  0
 18 19  1  0
 19 20  1  0
 20 22  1  0
 20 21  1  1
 22 23  1  6
 22 24  1  0
 23 16  1  0
 24 26  2  0
 24 25  1  0
M  END
$$$$
