HTI.pdb
     RDKit          3D

 26 26  0  0  1  0  0  0  0  0999 V2000
   18.1106  -21.8982  -14.3472 N   0  0  0  0  0  0  0  0  0  0  0  0
   19.0334  -21.0380  -13.6703 C   0  0  1  0  0  0  0  0  0  0  0  0
   18.5457  -20.7090  -12.2594 C   0  0  0  0  0  0  0  0  0  0  0  0
   17.3488  -19.8415  -12.4262 C   0  0  0  0  0  0  0  0  0  0  0  0
   16.7314  -19.4313  -13.5961 C   0  0  0  0  0  0  0  0  0  0  0  0
   15.6776  -18.6527  -13.3130 N   0  0  0  0  0  0  0  0  0  0  0  0
   15.6246  -18.5682  -11.9781 C   0  0  0  0  0  0  0  0  0  0  0  0
   16.6313  -19.2837  -11.4281 N   0  0  0  0  0  0  0  0  0  0  0  0
   20.3918  -21.6143  -13.6575 C   0  0  0  0  0  0  0  0  0  0  0  0
   20.5121  -22.8827  -13.6771 O   0  0  0  0  0  0  0  0  0  0  0  0
   21.7424  -23.0026  -15.3777 C   0  0  0  0  0  0  0  0  0  0  0  0
   22.7682  -21.9036  -15.2862 C   0  0  1  0  0  0  0  0  0  0  0  0
   22.5391  -20.9969  -16.2884 O   0  0  0  0  0  0  0  0  0  0  0  0
   22.8104  -21.2813  -13.9103 C   0  0  2  0  0  0  0  0  0  0  0  0
   21.5015  -20.7408  -13.6241 N   0  0  0  0  0  0  0  0  0  0  0  0
   23.8500  -20.2388  -13.7737 C   0  0  0  0  0  0  0  0  0  0  0  0
   23.6366  -19.2824  -12.9864 O   0  0  0  0  0  0  0  0  0  0  0  0
   25.8612  -20.9970  -10.2432 C   0  0  0  0  0  0  0  0  0  0  0  0
   25.6231  -20.2972  -11.5269 C   0  0  0  0  0  0  0  0  0  0  0  0
   26.4869  -20.5842  -12.6797 C   0  0  2  0  0  0  0  0  0  0  0  0
   27.9782  -20.5035  -12.2514 C   0  0  0  0  0  0  0  0  0  0  0  0
   26.3132  -19.8392  -13.9474 C   0  0  2  0  0  0  0  0  0  0  0  0
   25.0354  -20.3580  -14.5285 N   0  0  0  0  0  0  0  0  0  0  0  0
   27.3481  -19.9768  -14.9811 C   0  0  0  0  0  0  0  0  0  0  0  0
   28.1756  -18.9771  -15.4485 O   0  0  0  0  0  0  0  0  0  0  0  0
   27.5502  -21.1185  -15.5542 O   0  0  0  0  0  0  0  0  0  0  0  0
  2  9  1  0
  2  1  1  1
  3  2  1  0
  4  8  1  0
  4  3  1  0
  5  4  2  0
  6  5  1  0
  6  7  1  0
  7  8  2  0
  9 10  2  0
 12 11  1  1
 12 14  1  0
 13 12  1  0
 14 15  1  6
 15  9  1  0
 16 17  2  0
 16 14  1  0
 18 19  1  0
 19 20  1  0
 20 22  1  0
 20 21  1  1
 22 23  1  6
 22 24  1  0
 23 16  1  0
 24 26  2  0
 24 25  1  0
M  END
$$$$
