HTI.pdb
     RDKit          3D

 26 26  0  0  1  0  0  0  0  0999 V2000
   20.0332  -21.6318  -15.9381 N   0  0  0  0  0  0  0  0  0  0  0  0
   20.3543  -20.8590  -14.7766 C   0  0  1  0  0  0  0  0  0  0  0  0
   19.0993  -20.5377  -13.9650 C   0  0  0  0  0  0  0  0  0  0  0  0
   18.4200  -19.4217  -14.6764 C   0  0  0  0  0  0  0  0  0  0  0  0
   18.6892  -18.0644  -14.6175 C   0  0  0  0  0  0  0  0  0  0  0  0
   17.8453  -17.3919  -15.4127 N   0  0  0  0  0  0  0  0  0  0  0  0
   17.0479  -18.3105  -15.9716 C   0  0  0  0  0  0  0  0  0  0  0  0
   17.3851  -19.5446  -15.5342 N   0  0  0  0  0  0  0  0  0  0  0  0
   21.3792  -21.5298  -13.9538 C   0  0  0  0  0  0  0  0  0  0  0  0
   21.0260  -22.5213  -13.2354 O   0  0  0  0  0  0  0  0  0  0  0  0
   23.4232  -23.8204  -14.7024 C   0  0  0  0  0  0  0  0  0  0  0  0
   24.3747  -22.7429  -14.2525 C   0  0  1  0  0  0  0  0  0  0  0  0
   24.9037  -22.1272  -15.3569 O   0  0  0  0  0  0  0  0  0  0  0  0
   23.7262  -21.7839  -13.2819 C   0  0  2  0  0  0  0  0  0  0  0  0
   22.7067  -21.0487  -13.9943 N   0  0  0  0  0  0  0  0  0  0  0  0
   24.6890  -20.8612  -12.6432 C   0  0  0  0  0  0  0  0  0  0  0  0
   24.7163  -19.6653  -13.0297 O   0  0  0  0  0  0  0  0  0  0  0  0
   25.8733  -20.9973   -7.3481 C   0  0  0  0  0  0  0  0  0  0  0  0
   25.7485  -20.5353   -8.7500 C   0  0  0  0  0  0  0  0  0  0  0  0
   26.8146  -20.8436   -9.7122 C   0  0  2  0  0  0  0  0  0  0  0  0
   28.1646  -20.2682   -9.2022 C   0  0  0  0  0  0  0  0  0  0  0  0
   26.6554  -20.4924  -11.1417 C   0  0  2  0  0  0  0  0  0  0  0  0
   25.5352  -21.3566  -11.6295 N   0  0  0  0  0  0  0  0  0  0  0  0
   27.7961  -20.7107  -12.0416 C   0  0  0  0  0  0  0  0  0  0  0  0
   28.2249  -21.9235  -12.5396 O   0  0  0  0  0  0  0  0  0  0  0  0
   28.5147  -19.7113  -12.4386 O   0  0  0  0  0  0  0  0  0  0  0  0
  2  9  1  0
  2  1  1  6
  3  2  1  0
  4  8  1  0
  4  3  1  0
  5  4  2  0
  6  5  1  0
  6  7  1  0
  7  8  2  0
  9 10  2  0
 12 11  1  6
 12 14  1  0
 13 12  1  0
 14 15  1  6
 15  9  1  0
 16 17  2  0
 16 14  1  0
 18 19  1  0
 19 20  1  0
 20 22  1  0
 20 21  1  1
 22 23  1  6
 22 24  1  0
 23 16  1  0
 24 26  2  0
 24 25  1  0
M  END
$$$$
