HTI.pdb
     RDKit          3D

 26 26  0  0  1  0  0  0  0  0999 V2000
   18.9170  -19.7418  -16.7050 N   0  0  0  0  0  0  0  0  0  0  0  0
   19.7132  -19.0510  -15.7363 C   0  0  1  0  0  0  0  0  0  0  0  0
   18.8346  -18.2954  -14.7394 C   0  0  0  0  0  0  0  0  0  0  0  0
   18.3719  -17.0682  -15.4416 C   0  0  0  0  0  0  0  0  0  0  0  0
   19.1224  -16.1220  -16.1194 C   0  0  0  0  0  0  0  0  0  0  0  0
   18.3228  -15.1658  -16.6124 N   0  0  0  0  0  0  0  0  0  0  0  0
   17.0773  -15.4994  -16.2526 C   0  0  0  0  0  0  0  0  0  0  0  0
   17.0925  -16.6499  -15.5427 N   0  0  0  0  0  0  0  0  0  0  0  0
   20.6446  -19.9706  -15.0549 C   0  0  0  0  0  0  0  0  0  0  0  0
   20.1792  -20.7546  -14.1646 O   0  0  0  0  0  0  0  0  0  0  0  0
   22.1413  -22.7206  -16.4091 C   0  0  0  0  0  0  0  0  0  0  0  0
   23.3020  -21.8943  -15.9205 C   0  0  1  0  0  0  0  0  0  0  0  0
   23.8964  -21.2838  -16.9942 O   0  0  0  0  0  0  0  0  0  0  0  0
   22.8924  -20.9307  -14.8315 C   0  0  2  0  0  0  0  0  0  0  0  0
   22.0104  -19.9462  -15.4147 N   0  0  0  0  0  0  0  0  0  0  0  0
   24.0416  -20.2783  -14.1681 C   0  0  0  0  0  0  0  0  0  0  0  0
   24.1719  -19.0337  -14.2871 O   0  0  0  0  0  0  0  0  0  0  0  0
   24.9262  -21.1067   -9.0991 C   0  0  0  0  0  0  0  0  0  0  0  0
   24.9554  -20.5700  -10.4795 C   0  0  0  0  0  0  0  0  0  0  0  0
   26.0761  -20.9104  -11.3657 C   0  0  2  0  0  0  0  0  0  0  0  0
   27.4200  -20.5467  -10.6762 C   0  0  0  0  0  0  0  0  0  0  0  0
   26.1045  -20.4120  -12.7597 C   0  0  2  0  0  0  0  0  0  0  0  0
   24.9424  -21.0744  -13.4306 N   0  0  0  0  0  0  0  0  0  0  0  0
   27.2947  -20.6937  -13.5738 C   0  0  0  0  0  0  0  0  0  0  0  0
   28.3589  -19.8429  -13.7887 O   0  0  0  0  0  0  0  0  0  0  0  0
   27.4162  -21.8292  -14.1809 O   0  0  0  0  0  0  0  0  0  0  0  0
  2  9  1  0
  2  1  1  6
  3  2  1  0
  4  8  1  0
  4  3  1  0
  5  4  2  0
  6  5  1  0
  6  7  1  0
  7  8  2  0
  9 10  2  0
 12 11  1  6
 12 14  1  0
 13 12  1  0
 14 15  1  6
 15  9  1  0
 16 17  2  0
 16 14  1  0
 18 19  1  0
 19 20  1  0
 20 22  1  0
 20 21  1  1
 22 23  1  6
 22 24  1  0
 23 16  1  0
 24 26  2  0
 24 25  1  0
M  END
$$$$
