HTI.pdb
     RDKit          3D

 26 26  0  0  1  0  0  0  0  0999 V2000
   23.9923  -19.8254  -13.4468 N   0  0  0  0  0  0  0  0  0  0  0  0
   25.1484  -20.6681  -13.3934 C   0  0  1  0  0  0  0  0  0  0  0  0
   24.8806  -21.9173  -12.5540 C   0  0  0  0  0  0  0  0  0  0  0  0
   24.6182  -21.4387  -11.1701 C   0  0  0  0  0  0  0  0  0  0  0  0
   25.5267  -21.1544  -10.1641 C   0  0  0  0  0  0  0  0  0  0  0  0
   24.8817  -20.7478   -9.0617 N   0  0  0  0  0  0  0  0  0  0  0  0
   23.5775  -20.7730   -9.3622 C   0  0  0  0  0  0  0  0  0  0  0  0
   23.4036  -21.1897  -10.6366 N   0  0  0  0  0  0  0  0  0  0  0  0
   25.6232  -21.0120  -14.7475 C   0  0  0  0  0  0  0  0  0  0  0  0
   24.8227  -21.6135  -15.5357 O   0  0  0  0  0  0  0  0  0  0  0  0
   26.5100  -18.7746  -17.3225 C   0  0  0  0  0  0  0  0  0  0  0  0
   27.7225  -19.6485  -17.1358 C   0  0  1  0  0  0  0  0  0  0  0  0
   28.6898  -18.9326  -16.4797 O   0  0  0  0  0  0  0  0  0  0  0  0
   27.3799  -20.9558  -16.4608 C   0  0  2  0  0  0  0  0  0  0  0  0
   26.9414  -20.6626  -15.1157 N   0  0  0  0  0  0  0  0  0  0  0  0
   28.5029  -21.9175  -16.4488 C   0  0  0  0  0  0  0  0  0  0  0  0
   29.0138  -22.2250  -15.3422 O   0  0  0  0  0  0  0  0  0  0  0  0
   29.3480  -27.1426  -16.3285 C   0  0  0  0  0  0  0  0  0  0  0  0
   30.0294  -25.9837  -16.9505 C   0  0  0  0  0  0  0  0  0  0  0  0
   29.3156  -24.7063  -17.0781 C   0  0  2  0  0  0  0  0  0  0  0  0
   27.9758  -24.9267  -17.8332 C   0  0  0  0  0  0  0  0  0  0  0  0
   29.9975  -23.5233  -17.6507 C   0  0  2  0  0  0  0  0  0  0  0  0
   28.9548  -22.4501  -17.6740 N   0  0  0  0  0  0  0  0  0  0  0  0
   30.5443  -23.6276  -19.0104 C   0  0  0  0  0  0  0  0  0  0  0  0
   31.8665  -23.8300  -19.3471 O   0  0  0  0  0  0  0  0  0  0  0  0
   29.7649  -23.5216  -20.0371 O   0  0  0  0  0  0  0  0  0  0  0  0
  2  9  1  0
  2  1  1  6
  3  2  1  0
  4  8  1  0
  4  3  1  0
  5  4  2  0
  6  5  1  0
  6  7  1  0
  7  8  2  0
  9 10  2  0
 12 11  1  1
 12 14  1  0
 13 12  1  0
 14 15  1  1
 15  9  1  0
 16 17  2  0
 16 14  1  0
 18 19  1  0
 19 20  1  0
 20 22  1  0
 20 21  1  6
 22 23  1  6
 22 24  1  0
 23 16  1  0
 24 26  2  0
 24 25  1  0
M  END
$$$$
