HTI.pdb
     RDKit          3D

 26 26  0  0  1  0  0  0  0  0999 V2000
   21.8969  -20.5817  -17.4723 N   0  0  0  0  0  0  0  0  0  0  0  0
   22.2407  -20.0065  -16.2072 C   0  0  1  0  0  0  0  0  0  0  0  0
   21.0318  -19.9706  -15.2722 C   0  0  0  0  0  0  0  0  0  0  0  0
   20.0778  -18.9952  -15.8651 C   0  0  0  0  0  0  0  0  0  0  0  0
   18.7847  -19.2095  -16.3125 C   0  0  0  0  0  0  0  0  0  0  0  0
   18.2625  -18.0662  -16.7784 N   0  0  0  0  0  0  0  0  0  0  0  0
   19.2122  -17.1347  -16.6293 C   0  0  0  0  0  0  0  0  0  0  0  0
   20.3173  -17.6838  -16.0771 N   0  0  0  0  0  0  0  0  0  0  0  0
   23.3846  -20.7078  -15.5932 C   0  0  0  0  0  0  0  0  0  0  0  0
   23.3229  -21.9745  -15.4689 O   0  0  0  0  0  0  0  0  0  0  0  0
   26.5754  -21.1228  -16.8252 C   0  0  0  0  0  0  0  0  0  0  0  0
   26.8080  -20.4919  -15.4774 C   0  0  1  0  0  0  0  0  0  0  0  0
   27.1931  -19.1887  -15.6569 O   0  0  0  0  0  0  0  0  0  0  0  0
   25.6130  -20.6458  -14.5661 C   0  0  2  0  0  0  0  0  0  0  0  0
   24.4991  -19.9506  -15.1689 N   0  0  0  0  0  0  0  0  0  0  0  0
   25.8589  -20.1527  -13.1941 C   0  0  0  0  0  0  0  0  0  0  0  0
   25.1638  -19.1949  -12.7703 O   0  0  0  0  0  0  0  0  0  0  0  0
   23.1515  -20.4562  -10.1286 C   0  0  0  0  0  0  0  0  0  0  0  0
   24.4510  -20.0431  -10.7074 C   0  0  0  0  0  0  0  0  0  0  0  0
   25.6642  -20.8041  -10.3812 C   0  0  2  0  0  0  0  0  0  0  0  0
   25.8199  -20.9080   -8.8388 C   0  0  0  0  0  0  0  0  0  0  0  0
   26.9680  -20.4191  -10.9679 C   0  0  2  0  0  0  0  0  0  0  0  0
   26.8591  -20.7738  -12.4177 N   0  0  0  0  0  0  0  0  0  0  0  0
   28.1806  -21.0685  -10.4515 C   0  0  0  0  0  0  0  0  0  0  0  0
   29.0157  -20.5788   -9.4689 O   0  0  0  0  0  0  0  0  0  0  0  0
   28.5624  -22.2094  -10.9261 O   0  0  0  0  0  0  0  0  0  0  0  0
  2  9  1  0
  2  1  1  6
  3  2  1  0
  4  8  1  0
  4  3  1  0
  5  4  2  0
  6  5  1  0
  6  7  1  0
  7  8  2  0
  9 10  2  0
 12 11  1  6
 12 14  1  0
 13 12  1  0
 14 15  1  6
 15  9  1  0
 16 17  2  0
 16 14  1  0
 18 19  1  0
 19 20  1  0
 20 22  1  0
 20 21  1  1
 22 23  1  6
 22 24  1  0
 23 16  1  0
 24 26  2  0
 24 25  1  0
M  END
$$$$
