HTI.pdb
     RDKit          3D

 26 26  0  0  1  0  0  0  0  0999 V2000
   21.2184  -16.1488  -16.9138 N   0  0  0  0  0  0  0  0  0  0  0  0
   20.7025  -14.8882  -17.3544 C   0  0  1  0  0  0  0  0  0  0  0  0
   19.2127  -14.9873  -17.6821 C   0  0  0  0  0  0  0  0  0  0  0  0
   19.0962  -15.9757  -18.7878 C   0  0  0  0  0  0  0  0  0  0  0  0
   19.5159  -15.8594  -20.1026 C   0  0  0  0  0  0  0  0  0  0  0  0
   19.2230  -16.9779  -20.7808 N   0  0  0  0  0  0  0  0  0  0  0  0
   18.6238  -17.7970  -19.9078 C   0  0  0  0  0  0  0  0  0  0  0  0
   18.5404  -17.2024  -18.6965 N   0  0  0  0  0  0  0  0  0  0  0  0
   20.9747  -13.8243  -16.3688 C   0  0  0  0  0  0  0  0  0  0  0  0
   20.5167  -13.9611  -15.1875 O   0  0  0  0  0  0  0  0  0  0  0  0
   24.0621  -12.7814  -15.0088 C   0  0  0  0  0  0  0  0  0  0  0  0
   23.4692  -11.5365  -15.6148 C   0  0  1  0  0  0  0  0  0  0  0  0
   24.1442  -11.2394  -16.7701 O   0  0  0  0  0  0  0  0  0  0  0  0
   21.9752  -11.6552  -15.8046 C   0  0  2  0  0  0  0  0  0  0  0  0
   21.7294  -12.7001  -16.7715 N   0  0  0  0  0  0  0  0  0  0  0  0
   21.3389  -10.3891  -16.2269 C   0  0  0  0  0  0  0  0  0  0  0  0
   21.1233  -10.2089  -17.4521 O   0  0  0  0  0  0  0  0  0  0  0  0
   16.6583   -9.1442  -15.6608 C   0  0  0  0  0  0  0  0  0  0  0  0
   18.0695   -9.0200  -16.0935 C   0  0  0  0  0  0  0  0  0  0  0  0
   18.9963   -8.1898  -15.3129 C   0  0  2  0  0  0  0  0  0  0  0  0
   18.4405   -6.7432  -15.2035 C   0  0  0  0  0  0  0  0  0  0  0  0
   20.4296   -8.1242  -15.6786 C   0  0  2  0  0  0  0  0  0  0  0  0
   21.0001   -9.4373  -15.2428 N   0  0  0  0  0  0  0  0  0  0  0  0
   21.2535   -7.0698  -15.0718 C   0  0  0  0  0  0  0  0  0  0  0  0
   21.5705   -5.8522  -15.6372 O   0  0  0  0  0  0  0  0  0  0  0  0
   21.7678   -7.2382  -13.8972 O   0  0  0  0  0  0  0  0  0  0  0  0
  2  9  1  0
  2  1  1  1
  3  2  1  0
  4  8  1  0
  4  3  1  0
  5  4  2  0
  6  5  1  0
  6  7  1  0
  7  8  2  0
  9 10  2  0
 12 11  1  6
 12 14  1  0
 13 12  1  0
 14 15  1  6
 15  9  1  0
 16 17  2  0
 16 14  1  0
 18 19  1  0
 19 20  1  0
 20 22  1  0
 20 21  1  6
 22 23  1  1
 22 24  1  0
 23 16  1  0
 24 26  2  0
 24 25  1  0
M  END
$$$$
