HTI.pdb
     RDKit          3D

 26 26  0  0  1  0  0  0  0  0999 V2000
   19.9554  -14.9340  -20.6969 N   0  0  0  0  0  0  0  0  0  0  0  0
   19.7772  -14.4507  -19.3611 C   0  0  1  0  0  0  0  0  0  0  0  0
   20.3895  -15.4115  -18.3419 C   0  0  0  0  0  0  0  0  0  0  0  0
   19.5997  -16.6690  -18.4308 C   0  0  0  0  0  0  0  0  0  0  0  0
   18.2243  -16.8317  -18.4201 C   0  0  0  0  0  0  0  0  0  0  0  0
   17.9129  -18.1315  -18.5209 N   0  0  0  0  0  0  0  0  0  0  0  0
   19.0766  -18.7889  -18.5949 C   0  0  0  0  0  0  0  0  0  0  0  0
   20.1068  -17.9150  -18.5415 N   0  0  0  0  0  0  0  0  0  0  0  0
   20.3109  -13.0832  -19.2109 C   0  0  0  0  0  0  0  0  0  0  0  0
   21.5120  -12.8584  -19.5722 O   0  0  0  0  0  0  0  0  0  0  0  0
   19.1153  -10.1211  -20.8124 C   0  0  0  0  0  0  0  0  0  0  0  0
   19.0946   -9.8143  -19.3380 C   0  0  1  0  0  0  0  0  0  0  0  0
   17.7955   -9.8188  -18.9010 O   0  0  0  0  0  0  0  0  0  0  0  0
   19.9960  -10.7393  -18.5543 C   0  0  2  0  0  0  0  0  0  0  0  0
   19.4727  -12.0806  -18.6746 N   0  0  0  0  0  0  0  0  0  0  0  0
   20.1321  -10.3545  -17.1332 C   0  0  0  0  0  0  0  0  0  0  0  0
   19.4016  -10.9288  -16.2865 O   0  0  0  0  0  0  0  0  0  0  0  0
   24.1501  -11.2883  -14.4326 C   0  0  0  0  0  0  0  0  0  0  0  0
   22.7995  -10.8397  -14.8439 C   0  0  0  0  0  0  0  0  0  0  0  0
   22.5004   -9.4030  -14.9044 C   0  0  2  0  0  0  0  0  0  0  0  0
   22.8296   -8.7401  -13.5384 C   0  0  0  0  0  0  0  0  0  0  0  0
   21.1694   -8.9352  -15.3537 C   0  0  2  0  0  0  0  0  0  0  0  0
   21.0723   -9.3627  -16.7845 N   0  0  0  0  0  0  0  0  0  0  0  0
   20.8892   -7.4935  -15.3111 C   0  0  0  0  0  0  0  0  0  0  0  0
   21.1332   -6.5826  -16.3177 O   0  0  0  0  0  0  0  0  0  0  0  0
   20.3694   -6.9607  -14.2534 O   0  0  0  0  0  0  0  0  0  0  0  0
  2  9  1  0
  2  1  1  6
  3  2  1  0
  4  8  1  0
  4  3  1  0
  5  4  2  0
  6  5  1  0
  6  7  1  0
  7  8  2  0
  9 10  2  0
 12 11  1  6
 12 14  1  0
 13 12  1  0
 14 15  1  1
 15  9  1  0
 16 17  2  0
 16 14  1  0
 18 19  1  0
 19 20  1  0
 20 22  1  0
 20 21  1  1
 22 23  1  6
 22 24  1  0
 23 16  1  0
 24 26  2  0
 24 25  1  0
M  END
$$$$
