HTI.pdb
     RDKit          3D

 26 26  0  0  1  0  0  0  0  0999 V2000
   19.4161  -14.5258  -20.5936 N   0  0  0  0  0  0  0  0  0  0  0  0
   19.0242  -13.9245  -19.3548 C   0  0  1  0  0  0  0  0  0  0  0  0
   19.2013  -14.8985  -18.1900 C   0  0  0  0  0  0  0  0  0  0  0  0
   18.2747  -16.0322  -18.4529 C   0  0  0  0  0  0  0  0  0  0  0  0
   16.8991  -16.0815  -18.2990 C   0  0  0  0  0  0  0  0  0  0  0  0
   16.4394  -17.2921  -18.6453 N   0  0  0  0  0  0  0  0  0  0  0  0
   17.5100  -18.0054  -19.0155 C   0  0  0  0  0  0  0  0  0  0  0  0
   18.6285  -17.2543  -18.9038 N   0  0  0  0  0  0  0  0  0  0  0  0
   19.7459  -12.6587  -19.1221 C   0  0  0  0  0  0  0  0  0  0  0  0
   21.0044  -12.6334  -19.3206 O   0  0  0  0  0  0  0  0  0  0  0  0
   19.1734   -9.5169  -20.8087 C   0  0  0  0  0  0  0  0  0  0  0  0
   19.0555   -9.2263  -19.3355 C   0  0  1  0  0  0  0  0  0  0  0  0
   17.7342   -9.0378  -19.0237 O   0  0  0  0  0  0  0  0  0  0  0  0
   19.7268  -10.2861  -18.4937 C   0  0  2  0  0  0  0  0  0  0  0  0
   19.0165  -11.5288  -18.6901 N   0  0  0  0  0  0  0  0  0  0  0  0
   19.7881   -9.9378  -17.0581 C   0  0  0  0  0  0  0  0  0  0  0  0
   18.9483  -10.4585  -16.2810 O   0  0  0  0  0  0  0  0  0  0  0  0
   23.8592  -11.1548  -14.5031 C   0  0  0  0  0  0  0  0  0  0  0  0
   22.5167  -10.6638  -14.8916 C   0  0  0  0  0  0  0  0  0  0  0  0
   22.1929   -9.2397  -14.7354 C   0  0  2  0  0  0  0  0  0  0  0  0
   22.4572   -8.7989  -13.2693 C   0  0  0  0  0  0  0  0  0  0  0  0
   20.8712   -8.7233  -15.1584 C   0  0  2  0  0  0  0  0  0  0  0  0
   20.7822   -9.0391  -16.6185 N   0  0  0  0  0  0  0  0  0  0  0  0
   20.6068   -7.2859  -15.0079 C   0  0  0  0  0  0  0  0  0  0  0  0
   19.8911   -6.6877  -13.9917 O   0  0  0  0  0  0  0  0  0  0  0  0
   21.0549   -6.4449  -15.8823 O   0  0  0  0  0  0  0  0  0  0  0  0
  2  9  1  0
  2  1  1  6
  3  2  1  0
  4  8  1  0
  4  3  1  0
  5  4  2  0
  6  5  1  0
  6  7  1  0
  7  8  2  0
  9 10  2  0
 12 11  1  6
 12 14  1  0
 13 12  1  0
 14 15  1  1
 15  9  1  0
 16 17  2  0
 16 14  1  0
 18 19  1  0
 19 20  1  0
 20 22  1  0
 20 21  1  1
 22 23  1  6
 22 24  1  0
 23 16  1  0
 24 26  2  0
 24 25  1  0
M  END
$$$$
