HTI.pdb
     RDKit          3D

 26 26  0  0  1  0  0  0  0  0999 V2000
   20.3886  -14.2817  -16.8269 N   0  0  0  0  0  0  0  0  0  0  0  0
   20.3419  -13.0334  -17.5262 C   0  0  1  0  0  0  0  0  0  0  0  0
   19.1806  -13.0022  -18.5198 C   0  0  0  0  0  0  0  0  0  0  0  0
   19.5546  -13.9264  -19.6239 C   0  0  0  0  0  0  0  0  0  0  0  0
   20.1977  -13.6376  -20.8161 C   0  0  0  0  0  0  0  0  0  0  0  0
   20.3485  -14.7549  -21.5411 N   0  0  0  0  0  0  0  0  0  0  0  0
   19.8076  -15.7437  -20.8189 C   0  0  0  0  0  0  0  0  0  0  0  0
   19.3229  -15.2558  -19.6549 N   0  0  0  0  0  0  0  0  0  0  0  0
   20.2878  -11.8958  -16.5879 C   0  0  0  0  0  0  0  0  0  0  0  0
   19.4795  -11.9592  -15.6048 O   0  0  0  0  0  0  0  0  0  0  0  0
   22.7760  -10.8951  -14.4000 C   0  0  0  0  0  0  0  0  0  0  0  0
   22.4834   -9.6531  -15.2003 C   0  0  1  0  0  0  0  0  0  0  0  0
   23.5064   -9.4451  -16.0885 O   0  0  0  0  0  0  0  0  0  0  0  0
   21.1220   -9.7076  -15.8530 C   0  0  2  0  0  0  0  0  0  0  0  0
   21.1307  -10.7853  -16.8152 N   0  0  0  0  0  0  0  0  0  0  0  0
   20.7320   -8.4340  -16.4949 C   0  0  0  0  0  0  0  0  0  0  0  0
   20.5575   -8.4218  -17.7397 O   0  0  0  0  0  0  0  0  0  0  0  0
   16.2571   -6.6049  -16.4041 C   0  0  0  0  0  0  0  0  0  0  0  0
   17.6492   -6.5614  -15.8996 C   0  0  0  0  0  0  0  0  0  0  0  0
   18.7524   -6.3141  -16.8373 C   0  0  2  0  0  0  0  0  0  0  0  0
   18.8434   -7.4801  -17.8601 C   0  0  0  0  0  0  0  0  0  0  0  0
   20.1113   -6.0164  -16.3304 C   0  0  2  0  0  0  0  0  0  0  0  0
   20.5716   -7.2878  -15.6890 N   0  0  0  0  0  0  0  0  0  0  0  0
   20.2619   -4.9476  -15.3336 C   0  0  0  0  0  0  0  0  0  0  0  0
   20.5566   -5.1118  -13.9962 O   0  0  0  0  0  0  0  0  0  0  0  0
   20.1097   -3.7097  -15.6762 O   0  0  0  0  0  0  0  0  0  0  0  0
  2  9  1  0
  2  1  1  1
  3  2  1  0
  4  8  1  0
  4  3  1  0
  5  4  2  0
  6  5  1  0
  6  7  1  0
  7  8  2  0
  9 10  2  0
 12 11  1  6
 12 14  1  0
 13 12  1  0
 14 15  1  6
 15  9  1  0
 16 17  2  0
 16 14  1  0
 18 19  1  0
 19 20  1  0
 20 22  1  0
 20 21  1  6
 22 23  1  1
 22 24  1  0
 23 16  1  0
 24 26  2  0
 24 25  1  0
M  END
$$$$
