TCY.pdb
     RDKit          3D

 26 26  0  0  1  0  0  0  0  0999 V2000
   16.5334  -10.2177  -16.2467 C   0  0  0  0  0  0  0  0  0  0  0  0
   16.8098  -11.6726  -15.9019 C   0  0  1  0  0  0  0  0  0  0  0  0
   15.7102  -12.4081  -16.3395 O   0  0  0  0  0  0  0  0  0  0  0  0
   18.0165  -12.1406  -16.6846 C   0  0  2  0  0  0  0  0  0  0  0  0
   18.2559  -13.5188  -16.3286 N   0  0  0  0  0  0  0  0  0  0  0  0
   19.2234  -11.3503  -16.3320 C   0  0  0  0  0  0  0  0  0  0  0  0
   19.8761  -11.6137  -15.2663 O   0  0  0  0  0  0  0  0  0  0  0  0
   19.7099  -10.2872  -17.1326 N   0  0  0  0  0  0  0  0  0  0  0  0
   20.8355   -9.4274  -16.6853 C   0  0  1  0  0  0  0  0  0  0  0  0
   21.4854   -8.9172  -17.9451 C   0  0  0  0  0  0  0  0  0  0  0  0
   22.7250   -7.6643  -17.6556 S   0  0  0  0  0  0  0  0  0  0  0  0
   20.3207   -8.3127  -15.8915 C   0  0  0  0  0  0  0  0  0  0  0  0
   19.2489   -7.7316  -16.2230 O   0  0  0  0  0  0  0  0  0  0  0  0
   18.8157   -3.1518   -8.8678 O   0  0  0  0  0  0  0  0  0  0  0  0
   19.2615   -4.1124   -9.7670 C   0  0  0  0  0  0  0  0  0  0  0  0
   18.4753   -5.1518  -10.2086 C   0  0  0  0  0  0  0  0  0  0  0  0
   18.9827   -6.0774  -11.1076 C   0  0  0  0  0  0  0  0  0  0  0  0
   20.2789   -5.9975  -11.5914 C   0  0  0  0  0  0  0  0  0  0  0  0
   20.7966   -6.9886  -12.5418 C   0  0  0  0  0  0  0  0  0  0  0  0
   20.4806   -6.6874  -13.9828 C   0  0  2  0  0  0  0  0  0  0  0  0
   20.9708   -7.8456  -14.7493 N   0  0  0  0  0  0  0  0  0  0  0  0
   21.1834   -5.4917  -14.4769 C   0  0  0  0  0  0  0  0  0  0  0  0
   20.5811   -4.2571  -14.4109 O   0  0  0  0  0  0  0  0  0  0  0  0
   21.0388   -4.9411  -11.1261 C   0  0  0  0  0  0  0  0  0  0  0  0
   20.5511   -4.0066  -10.2288 C   0  0  0  0  0  0  0  0  0  0  0  0
   22.3430   -5.5297  -14.9740 O   0  0  0  0  0  0  0  0  0  0  0  0
  2  1  1  6
  3  2  1  0
  4  2  1  0
  4  6  1  0
  4  5  1  1
  6  7  2  0
  8  6  1  0
  8  9  1  0
  9 10  1  6
 11 10  1  0
 12  9  1  0
 12 21  1  0
 13 12  2  0
 15 14  1  0
 16 15  2  0
 17 16  1  0
 18 24  1  0
 18 17  2  0
 19 18  1  0
 20 22  1  0
 20 21  1  0
 20 19  1  1
 22 23  1  0
 24 25  2  0
 25 15  1  0
 26 22  2  0
M  END
$$$$
