TCY.pdb
     RDKit          3D

 26 26  0  0  1  0  0  0  0  0999 V2000
   23.3112  -10.9220  -14.5919 C   0  0  0  0  0  0  0  0  0  0  0  0
   23.1108  -11.8931  -15.7446 C   0  0  1  0  0  0  0  0  0  0  0  0
   23.8754  -13.0227  -15.4597 O   0  0  0  0  0  0  0  0  0  0  0  0
   21.6596  -12.3178  -15.7804 C   0  0  2  0  0  0  0  0  0  0  0  0
   21.5276  -13.3236  -16.8073 N   0  0  0  0  0  0  0  0  0  0  0  0
   20.7756  -11.1762  -16.1280 C   0  0  0  0  0  0  0  0  0  0  0  0
   20.7408  -10.7305  -17.3243 O   0  0  0  0  0  0  0  0  0  0  0  0
   19.9415  -10.5309  -15.1815 N   0  0  0  0  0  0  0  0  0  0  0  0
   19.0364   -9.4195  -15.5710 C   0  0  1  0  0  0  0  0  0  0  0  0
   17.6673   -9.8181  -15.0848 C   0  0  0  0  0  0  0  0  0  0  0  0
   16.9366  -11.1551  -16.0169 S   0  0  0  0  0  0  0  0  0  0  0  0
   19.4659   -8.1817  -14.9220 C   0  0  0  0  0  0  0  0  0  0  0  0
   19.7390   -8.1669  -13.6885 O   0  0  0  0  0  0  0  0  0  0  0  0
   22.4457    0.1938  -14.4152 O   0  0  0  0  0  0  0  0  0  0  0  0
   22.0979   -1.0985  -14.7877 C   0  0  0  0  0  0  0  0  0  0  0  0
   21.5055   -1.4004  -15.9925 C   0  0  0  0  0  0  0  0  0  0  0  0
   21.1836   -2.7129  -16.3023 C   0  0  0  0  0  0  0  0  0  0  0  0
   21.4396   -3.7580  -15.4289 C   0  0  0  0  0  0  0  0  0  0  0  0
   21.0898   -5.1403  -15.7762 C   0  0  0  0  0  0  0  0  0  0  0  0
   19.9731   -5.7216  -14.9504 C   0  0  2  0  0  0  0  0  0  0  0  0
   19.5968   -6.9797  -15.6173 N   0  0  0  0  0  0  0  0  0  0  0  0
   18.7828   -4.8554  -14.9210 C   0  0  0  0  0  0  0  0  0  0  0  0
   18.6366   -3.9120  -13.9310 O   0  0  0  0  0  0  0  0  0  0  0  0
   22.0350   -3.4174  -14.2291 C   0  0  0  0  0  0  0  0  0  0  0  0
   22.3642   -2.1134  -13.9008 C   0  0  0  0  0  0  0  0  0  0  0  0
   17.8569   -4.9267  -15.7759 O   0  0  0  0  0  0  0  0  0  0  0  0
  2  1  1  1
  3  2  1  0
  4  2  1  0
  4  6  1  0
  4  5  1  6
  6  7  2  0
  8  6  1  0
  8  9  1  0
  9 10  1  1
 11 10  1  0
 12  9  1  0
 12 21  1  0
 13 12  2  0
 15 14  1  0
 16 15  2  0
 17 16  1  0
 18 24  1  0
 18 17  2  0
 19 18  1  0
 20 22  1  0
 20 21  1  0
 20 19  1  6
 22 23  1  0
 24 25  2  0
 25 15  1  0
 26 22  2  0
M  END
$$$$
