TCY.pdb
     RDKit          3D

 26 26  0  0  1  0  0  0  0  0999 V2000
   28.9507  -22.8666  -16.1426 C   0  0  0  0  0  0  0  0  0  0  0  0
   29.0560  -22.2855  -17.5436 C   0  0  1  0  0  0  0  0  0  0  0  0
   29.7117  -23.2333  -18.3267 O   0  0  0  0  0  0  0  0  0  0  0  0
   27.6632  -22.1088  -18.1064 C   0  0  2  0  0  0  0  0  0  0  0  0
   27.8009  -21.6376  -19.4638 N   0  0  0  0  0  0  0  0  0  0  0  0
   26.8982  -21.0960  -17.3353 C   0  0  0  0  0  0  0  0  0  0  0  0
   26.8126  -21.1850  -16.0642 O   0  0  0  0  0  0  0  0  0  0  0  0
   26.2362  -20.0014  -17.9449 N   0  0  0  0  0  0  0  0  0  0  0  0
   25.3830  -19.0724  -17.1605 C   0  0  1  0  0  0  0  0  0  0  0  0
   25.3430  -17.7897  -17.9498 C   0  0  0  0  0  0  0  0  0  0  0  0
   26.9196  -16.9552  -18.0420 S   0  0  0  0  0  0  0  0  0  0  0  0
   24.0378  -19.6297  -17.0276 C   0  0  0  0  0  0  0  0  0  0  0  0
   23.5170  -20.2791  -17.9781 O   0  0  0  0  0  0  0  0  0  0  0  0
   24.5880  -25.8972  -15.0809 O   0  0  0  0  0  0  0  0  0  0  0  0
   23.9163  -24.6878  -14.9552 C   0  0  0  0  0  0  0  0  0  0  0  0
   22.6851  -24.4487  -15.5213 C   0  0  0  0  0  0  0  0  0  0  0  0
   22.0687  -23.2177  -15.3572 C   0  0  0  0  0  0  0  0  0  0  0  0
   22.6547  -22.1938  -14.6299 C   0  0  0  0  0  0  0  0  0  0  0  0
   21.9855  -20.8976  -14.4693 C   0  0  0  0  0  0  0  0  0  0  0  0
   21.9353  -20.0680  -15.7248 C   0  0  2  0  0  0  0  0  0  0  0  0
   23.2778  -19.4793  -15.8679 N   0  0  0  0  0  0  0  0  0  0  0  0
   20.9675  -18.9623  -15.6325 C   0  0  0  0  0  0  0  0  0  0  0  0
   19.6224  -19.2041  -15.7866 O   0  0  0  0  0  0  0  0  0  0  0  0
   23.8905  -22.4697  -14.0762 C   0  0  0  0  0  0  0  0  0  0  0  0
   24.5225  -23.6919  -14.2283 C   0  0  0  0  0  0  0  0  0  0  0  0
   21.3059  -17.7662  -15.4135 O   0  0  0  0  0  0  0  0  0  0  0  0
  2  1  1  1
  3  2  1  0
  4  2  1  0
  4  6  1  0
  4  5  1  6
  6  7  2  0
  8  6  1  0
  8  9  1  0
  9 10  1  6
 11 10  1  0
 12  9  1  0
 12 21  1  0
 13 12  2  0
 15 14  1  0
 16 15  2  0
 17 16  1  0
 18 24  1  0
 18 17  2  0
 19 18  1  0
 20 22  1  0
 20 21  1  0
 20 19  1  1
 22 23  1  0
 24 25  2  0
 25 15  1  0
 26 22  2  0
M  END
$$$$
