TCY.pdb
     RDKit          3D

 26 26  0  0  1  0  0  0  0  0999 V2000
   23.5614  -17.3708  -17.0060 C   0  0  0  0  0  0  0  0  0  0  0  0
   24.1374  -17.8094  -18.3431 C   0  0  1  0  0  0  0  0  0  0  0  0
   24.4298  -16.6495  -19.0578 O   0  0  0  0  0  0  0  0  0  0  0  0
   25.4395  -18.5394  -18.0995 C   0  0  2  0  0  0  0  0  0  0  0  0
   25.9730  -18.9150  -19.3872 N   0  0  0  0  0  0  0  0  0  0  0  0
   25.2206  -19.7753  -17.3057 C   0  0  0  0  0  0  0  0  0  0  0  0
   24.6332  -20.7809  -17.8298 O   0  0  0  0  0  0  0  0  0  0  0  0
   25.6378  -19.9101  -15.9583 N   0  0  0  0  0  0  0  0  0  0  0  0
   25.1917  -21.0487  -15.1151 C   0  0  1  0  0  0  0  0  0  0  0  0
   26.4516  -21.7375  -14.6591 C   0  0  0  0  0  0  0  0  0  0  0  0
   26.1542  -23.2013  -13.6797 S   0  0  0  0  0  0  0  0  0  0  0  0
   24.4413  -20.5476  -13.9647 C   0  0  0  0  0  0  0  0  0  0  0  0
   25.0280  -20.3126  -12.8706 O   0  0  0  0  0  0  0  0  0  0  0  0
   25.9994  -20.8032   -7.7961 O   0  0  0  0  0  0  0  0  0  0  0  0
   25.0436  -20.5513   -8.7723 C   0  0  0  0  0  0  0  0  0  0  0  0
   23.7265  -20.9312   -8.6512 C   0  0  0  0  0  0  0  0  0  0  0  0
   22.8229  -20.6485   -9.6641 C   0  0  0  0  0  0  0  0  0  0  0  0
   23.1995  -19.9838  -10.8203 C   0  0  0  0  0  0  0  0  0  0  0  0
   22.2270  -19.6954  -11.8809 C   0  0  0  0  0  0  0  0  0  0  0  0
   22.1508  -20.7495  -12.9533 C   0  0  2  0  0  0  0  0  0  0  0  0
   23.0688  -20.3049  -14.0158 N   0  0  0  0  0  0  0  0  0  0  0  0
   20.8052  -20.8616  -13.5402 C   0  0  0  0  0  0  0  0  0  0  0  0
   20.5973  -20.5452  -14.8624 O   0  0  0  0  0  0  0  0  0  0  0  0
   24.5294  -19.6178  -10.9071 C   0  0  0  0  0  0  0  0  0  0  0  0
   25.4472  -19.8906   -9.9073 C   0  0  0  0  0  0  0  0  0  0  0  0
   19.7964  -21.2426  -12.8842 O   0  0  0  0  0  0  0  0  0  0  0  0
  2  1  1  1
  3  2  1  0
  4  2  1  0
  4  6  1  0
  4  5  1  6
  6  7  2  0
  8  6  1  0
  8  9  1  0
  9 10  1  1
 11 10  1  0
 12  9  1  0
 12 21  1  0
 13 12  2  0
 15 14  1  0
 16 15  2  0
 17 16  1  0
 18 24  1  0
 18 17  2  0
 19 18  1  0
 20 22  1  0
 20 21  1  0
 20 19  1  1
 22 23  1  0
 24 25  2  0
 25 15  1  0
 26 22  2  0
M  END
$$$$
