TCY.pdb
     RDKit          3D

 26 26  0  0  1  0  0  0  0  0999 V2000
   24.4813  -21.7164  -12.4900 C   0  0  0  0  0  0  0  0  0  0  0  0
   25.6117  -20.8458  -13.0153 C   0  0  1  0  0  0  0  0  0  0  0  0
   26.8026  -21.4195  -12.5746 O   0  0  0  0  0  0  0  0  0  0  0  0
   25.6083  -20.8984  -14.5269 C   0  0  2  0  0  0  0  0  0  0  0  0
   26.7518  -20.1484  -14.9891 N   0  0  0  0  0  0  0  0  0  0  0  0
   24.3822  -20.2708  -15.0822 C   0  0  0  0  0  0  0  0  0  0  0  0
   24.1711  -19.0212  -14.9243 O   0  0  0  0  0  0  0  0  0  0  0  0
   23.4009  -20.9987  -15.7999 N   0  0  0  0  0  0  0  0  0  0  0  0
   22.1350  -20.3648  -16.2494 C   0  0  1  0  0  0  0  0  0  0  0  0
   21.9935  -20.7232  -17.7059 C   0  0  0  0  0  0  0  0  0  0  0  0
   23.1748  -19.9020  -18.7644 S   0  0  0  0  0  0  0  0  0  0  0  0
   21.0130  -20.9031  -15.4820 C   0  0  0  0  0  0  0  0  0  0  0  0
   21.0053  -22.1146  -15.1230 O   0  0  0  0  0  0  0  0  0  0  0  0
   14.0160  -21.0861  -10.0619 O   0  0  0  0  0  0  0  0  0  0  0  0
   15.1610  -20.8147  -10.8002 C   0  0  0  0  0  0  0  0  0  0  0  0
   16.3269  -21.5343  -10.6722 C   0  0  0  0  0  0  0  0  0  0  0  0
   17.4347  -21.2106  -11.4405 C   0  0  0  0  0  0  0  0  0  0  0  0
   17.4164  -20.1681  -12.3535 C   0  0  0  0  0  0  0  0  0  0  0  0
   18.6007  -19.8415  -13.1562 C   0  0  0  0  0  0  0  0  0  0  0  0
   18.7590  -20.6821  -14.3953 C   0  0  2  0  0  0  0  0  0  0  0  0
   19.9180  -20.1227  -15.1116 N   0  0  0  0  0  0  0  0  0  0  0  0
   17.5929  -20.5943  -15.2898 C   0  0  0  0  0  0  0  0  0  0  0  0
   16.5825  -21.5235  -15.2045 O   0  0  0  0  0  0  0  0  0  0  0  0
   16.2292  -19.4680  -12.4551 C   0  0  0  0  0  0  0  0  0  0  0  0
   15.1121  -19.7752  -11.6973 C   0  0  0  0  0  0  0  0  0  0  0  0
   17.4575  -19.6896  -16.1594 O   0  0  0  0  0  0  0  0  0  0  0  0
  2  1  1  1
  3  2  1  0
  4  2  1  0
  4  6  1  0
  4  5  1  6
  6  7  2  0
  8  6  1  0
  8  9  1  0
  9 10  1  6
 11 10  1  0
 12  9  1  0
 12 21  1  0
 13 12  2  0
 15 14  1  0
 16 15  2  0
 17 16  1  0
 18 24  1  0
 18 17  2  0
 19 18  1  0
 20 22  1  0
 20 21  1  0
 20 19  1  1
 22 23  1  0
 24 25  2  0
 25 15  1  0
 26 22  2  0
M  END
$$$$
