TCY.pdb
     RDKit          3D

 26 26  0  0  1  0  0  0  0  0999 V2000
   14.3051  -14.5415    6.9058 C   0  0  0  0  0  0  0  0  0  0  0  0
   14.2362  -13.8182    5.5702 C   0  0  1  0  0  0  0  0  0  0  0  0
   13.0543  -13.0802    5.5701 O   0  0  0  0  0  0  0  0  0  0  0  0
   15.3877  -12.8415    5.4823 C   0  0  2  0  0  0  0  0  0  0  0  0
   15.2660  -12.1400    4.2266 N   0  0  0  0  0  0  0  0  0  0  0  0
   16.6932  -13.5493    5.4976 C   0  0  0  0  0  0  0  0  0  0  0  0
   17.0217  -14.3142    4.5289 O   0  0  0  0  0  0  0  0  0  0  0  0
   17.6263  -13.4231    6.5564 N   0  0  0  0  0  0  0  0  0  0  0  0
   18.9545  -14.0861    6.5071 C   0  0  1  0  0  0  0  0  0  0  0  0
   19.8215  -13.3371    7.4855 C   0  0  0  0  0  0  0  0  0  0  0  0
   20.4542  -11.7935    6.8472 S   0  0  0  0  0  0  0  0  0  0  0  0
   18.8239  -15.4852    6.9111 C   0  0  0  0  0  0  0  0  0  0  0  0
   18.0359  -15.8116    7.8433 O   0  0  0  0  0  0  0  0  0  0  0  0
   18.9657  -24.3066    5.9481 O   0  0  0  0  0  0  0  0  0  0  0  0
   19.2037  -22.9439    5.8209 C   0  0  0  0  0  0  0  0  0  0  0  0
   20.4626  -22.4119    5.6605 C   0  0  0  0  0  0  0  0  0  0  0  0
   20.6306  -21.0410    5.5392 C   0  0  0  0  0  0  0  0  0  0  0  0
   19.5584  -20.1635    5.5736 C   0  0  0  0  0  0  0  0  0  0  0  0
   19.7584  -18.7154    5.4445 C   0  0  0  0  0  0  0  0  0  0  0  0
   19.3656  -17.9257    6.6648 C   0  0  2  0  0  0  0  0  0  0  0  0
   19.5446  -16.5103    6.2987 N   0  0  0  0  0  0  0  0  0  0  0  0
   20.2337  -18.2040    7.8209 C   0  0  0  0  0  0  0  0  0  0  0  0
   21.4065  -17.5061    7.9907 O   0  0  0  0  0  0  0  0  0  0  0  0
   18.3098  -20.7333    5.7359 C   0  0  0  0  0  0  0  0  0  0  0  0
   18.1208  -22.0992    5.8588 C   0  0  0  0  0  0  0  0  0  0  0  0
   19.9601  -19.0719    8.6956 O   0  0  0  0  0  0  0  0  0  0  0  0
  2  1  1  1
  3  2  1  0
  4  2  1  0
  4  6  1  0
  4  5  1  6
  6  7  2  0
  8  6  1  0
  8  9  1  0
  9 10  1  1
 11 10  1  0
 12  9  1  0
 12 21  1  0
 13 12  2  0
 15 14  1  0
 16 15  2  0
 17 16  1  0
 18 24  1  0
 18 17  2  0
 19 18  1  0
 20 22  1  0
 20 21  1  0
 20 19  1  6
 22 23  1  0
 24 25  2  0
 25 15  1  0
 26 22  2  0
M  END
$$$$
