TCY.pdb
     RDKit          3D

 26 26  0  0  1  0  0  0  0  0999 V2000
   21.5500  -11.2997  -21.0811 C   0  0  0  0  0  0  0  0  0  0  0  0
   21.5041  -12.7561  -20.6466 C   0  0  1  0  0  0  0  0  0  0  0  0
   21.8636  -13.5205  -21.7547 O   0  0  0  0  0  0  0  0  0  0  0  0
   22.5481  -12.9806  -19.5754 C   0  0  2  0  0  0  0  0  0  0  0  0
   22.5759  -14.3947  -19.2872 N   0  0  0  0  0  0  0  0  0  0  0  0
   22.1993  -12.2558  -18.3269 C   0  0  0  0  0  0  0  0  0  0  0  0
   21.0457  -12.4023  -17.7989 O   0  0  0  0  0  0  0  0  0  0  0  0
   23.0986  -11.3835  -17.6650 N   0  0  0  0  0  0  0  0  0  0  0  0
   22.7367  -10.7128  -16.3901 C   0  0  1  0  0  0  0  0  0  0  0  0
   24.0190  -10.6058  -15.6065 C   0  0  0  0  0  0  0  0  0  0  0  0
   24.5727  -12.1599  -14.9220 S   0  0  0  0  0  0  0  0  0  0  0  0
   22.1978   -9.3822  -16.6673 C   0  0  0  0  0  0  0  0  0  0  0  0
   22.7678   -8.6210  -17.4993 O   0  0  0  0  0  0  0  0  0  0  0  0
   16.0453   -3.0195  -17.3409 O   0  0  0  0  0  0  0  0  0  0  0  0
   16.7865   -4.1855  -17.1973 C   0  0  0  0  0  0  0  0  0  0  0  0
   17.4909   -4.7612  -18.2299 C   0  0  0  0  0  0  0  0  0  0  0  0
   18.2111   -5.9269  -18.0186 C   0  0  0  0  0  0  0  0  0  0  0  0
   18.2523   -6.5512  -16.7820 C   0  0  0  0  0  0  0  0  0  0  0  0
   19.0202   -7.7854  -16.5802 C   0  0  0  0  0  0  0  0  0  0  0  0
   20.4914   -7.5670  -16.3456 C   0  0  2  0  0  0  0  0  0  0  0  0
   21.0489   -8.8963  -16.0433 N   0  0  0  0  0  0  0  0  0  0  0  0
   20.7554   -6.6955  -15.1887 C   0  0  0  0  0  0  0  0  0  0  0  0
   20.9603   -5.3475  -15.3690 O   0  0  0  0  0  0  0  0  0  0  0  0
   17.5334   -5.9450  -15.7692 C   0  0  0  0  0  0  0  0  0  0  0  0
   16.8081   -4.7814  -15.9595 C   0  0  0  0  0  0  0  0  0  0  0  0
   20.8071   -7.1219  -14.0018 O   0  0  0  0  0  0  0  0  0  0  0  0
  2  1  1  6
  3  2  1  0
  4  2  1  0
  4  6  1  0
  4  5  1  1
  6  7  2  0
  8  6  1  0
  8  9  1  0
  9 10  1  1
 11 10  1  0
 12  9  1  0
 12 21  1  0
 13 12  2  0
 15 14  1  0
 16 15  2  0
 17 16  1  0
 18 24  1  0
 18 17  2  0
 19 18  1  0
 20 22  1  0
 20 21  1  0
 20 19  1  1
 22 23  1  0
 24 25  2  0
 25 15  1  0
 26 22  2  0
M  END
$$$$
