TCY.pdb
     RDKit          3D

 26 26  0  0  1  0  0  0  0  0999 V2000
   28.6273  -18.1565  -15.0713 C   0  0  0  0  0  0  0  0  0  0  0  0
   27.8719  -17.5310  -16.2332 C   0  0  1  0  0  0  0  0  0  0  0  0
   28.6814  -16.5184  -16.7439 O   0  0  0  0  0  0  0  0  0  0  0  0
   27.6958  -18.5696  -17.3186 C   0  0  2  0  0  0  0  0  0  0  0  0
   27.0781  -17.9160  -18.4477 N   0  0  0  0  0  0  0  0  0  0  0  0
   26.8036  -19.6685  -16.8690 C   0  0  0  0  0  0  0  0  0  0  0  0
   25.5464  -19.4721  -16.7588 O   0  0  0  0  0  0  0  0  0  0  0  0
   27.2786  -20.9634  -16.5446 N   0  0  0  0  0  0  0  0  0  0  0  0
   26.3667  -22.0257  -16.0484 C   0  0  1  0  0  0  0  0  0  0  0  0
   26.9045  -23.3184  -16.6049 C   0  0  0  0  0  0  0  0  0  0  0  0
   26.3345  -23.6792  -18.2587 S   0  0  0  0  0  0  0  0  0  0  0  0
   26.3888  -22.0532  -14.5868 C   0  0  0  0  0  0  0  0  0  0  0  0
   27.3715  -22.5544  -13.9705 O   0  0  0  0  0  0  0  0  0  0  0  0
   27.2441  -19.6472   -6.4552 O   0  0  0  0  0  0  0  0  0  0  0  0
   27.0973  -19.8940   -7.8144 C   0  0  0  0  0  0  0  0  0  0  0  0
   27.8378  -20.8350   -8.4924 C   0  0  0  0  0  0  0  0  0  0  0  0
   27.6411  -21.0315   -9.8507 C   0  0  0  0  0  0  0  0  0  0  0  0
   26.7079  -20.3027  -10.5710 C   0  0  0  0  0  0  0  0  0  0  0  0
   26.5163  -20.5258  -12.0088 C   0  0  0  0  0  0  0  0  0  0  0  0
   25.4099  -21.4908  -12.3427 C   0  0  2  0  0  0  0  0  0  0  0  0
   25.3498  -21.5353  -13.8137 N   0  0  0  0  0  0  0  0  0  0  0  0
   24.0977  -21.0367  -11.8531 C   0  0  0  0  0  0  0  0  0  0  0  0
   23.6604  -21.4028  -10.6017 O   0  0  0  0  0  0  0  0  0  0  0  0
   25.9830  -19.3671   -9.8574 C   0  0  0  0  0  0  0  0  0  0  0  0
   26.1642  -19.1556   -8.5014 C   0  0  0  0  0  0  0  0  0  0  0  0
   23.3228  -20.3079  -12.5325 O   0  0  0  0  0  0  0  0  0  0  0  0
  2  1  1  1
  3  2  1  0
  4  2  1  0
  4  6  1  0
  4  5  1  6
  6  7  2  0
  8  6  1  0
  8  9  1  0
  9 10  1  6
 11 10  1  0
 12  9  1  0
 12 21  1  0
 13 12  2  0
 15 14  1  0
 16 15  2  0
 17 16  1  0
 18 24  1  0
 18 17  2  0
 19 18  1  0
 20 22  1  0
 20 21  1  0
 20 19  1  6
 22 23  1  0
 24 25  2  0
 25 15  1  0
 26 22  2  0
M  END
$$$$
