TCY.pdb
     RDKit          3D

 26 26  0  0  1  0  0  0  0  0999 V2000
   19.3765  -13.0319  -19.2036 C   0  0  0  0  0  0  0  0  0  0  0  0
   19.3716  -14.1880  -18.2160 C   0  0  1  0  0  0  0  0  0  0  0  0
   18.4214  -15.1018  -18.6674 O   0  0  0  0  0  0  0  0  0  0  0  0
   20.7206  -14.8710  -18.2549 C   0  0  2  0  0  0  0  0  0  0  0  0
   20.6681  -15.9864  -17.3402 N   0  0  0  0  0  0  0  0  0  0  0  0
   21.7994  -13.9522  -17.8103 C   0  0  0  0  0  0  0  0  0  0  0  0
   21.8768  -13.5955  -16.5864 O   0  0  0  0  0  0  0  0  0  0  0  0
   22.7796  -13.4308  -18.6907 N   0  0  0  0  0  0  0  0  0  0  0  0
   23.8328  -12.4963  -18.2180 C   0  0  1  0  0  0  0  0  0  0  0  0
   24.9475  -12.5930  -19.2269 C   0  0  0  0  0  0  0  0  0  0  0  0
   26.2388  -11.3825  -18.9869 S   0  0  0  0  0  0  0  0  0  0  0  0
   23.3024  -11.1344  -18.1754 C   0  0  0  0  0  0  0  0  0  0  0  0
   22.5541  -10.7095  -19.1005 O   0  0  0  0  0  0  0  0  0  0  0  0
   20.6622   -3.4355  -14.6269 O   0  0  0  0  0  0  0  0  0  0  0  0
   21.1446   -4.7136  -14.8786 C   0  0  0  0  0  0  0  0  0  0  0  0
   20.3265   -5.7873  -15.1460 C   0  0  0  0  0  0  0  0  0  0  0  0
   20.8736   -7.0379  -15.3889 C   0  0  0  0  0  0  0  0  0  0  0  0
   22.2420   -7.2569  -15.3734 C   0  0  0  0  0  0  0  0  0  0  0  0
   22.8004   -8.5892  -15.6321 C   0  0  0  0  0  0  0  0  0  0  0  0
   23.0461   -8.8846  -17.0879 C   0  0  2  0  0  0  0  0  0  0  0  0
   23.5863  -10.2541  -17.1315 N   0  0  0  0  0  0  0  0  0  0  0  0
   24.0491   -7.9869  -17.6846 C   0  0  0  0  0  0  0  0  0  0  0  0
   25.3865   -8.3007  -17.6185 O   0  0  0  0  0  0  0  0  0  0  0  0
   23.0321   -6.1561  -15.1015 C   0  0  0  0  0  0  0  0  0  0  0  0
   22.5057   -4.8994  -14.8563 C   0  0  0  0  0  0  0  0  0  0  0  0
   23.7487   -6.9114  -18.2729 O   0  0  0  0  0  0  0  0  0  0  0  0
  2  1  1  6
  3  2  1  0
  4  2  1  0
  4  6  1  0
  4  5  1  1
  6  7  2  0
  8  6  1  0
  8  9  1  0
  9 10  1  6
 11 10  1  0
 12  9  1  0
 12 21  1  0
 13 12  2  0
 15 14  1  0
 16 15  2  0
 17 16  1  0
 18 24  1  0
 18 17  2  0
 19 18  1  0
 20 22  1  0
 20 21  1  0
 20 19  1  1
 22 23  1  0
 24 25  2  0
 25 15  1  0
 26 22  2  0
M  END
$$$$
