TCY.pdb
     RDKit          3D

 26 26  0  0  1  0  0  0  0  0999 V2000
   26.9151  -26.7759  -17.6721 C   0  0  0  0  0  0  0  0  0  0  0  0
   28.2762  -27.3274  -17.2784 C   0  0  1  0  0  0  0  0  0  0  0  0
   28.5105  -28.4398  -18.0842 O   0  0  0  0  0  0  0  0  0  0  0  0
   29.3344  -26.2958  -17.6005 C   0  0  2  0  0  0  0  0  0  0  0  0
   30.5854  -26.7764  -17.0642 N   0  0  0  0  0  0  0  0  0  0  0  0
   29.0227  -24.9913  -16.9627 C   0  0  0  0  0  0  0  0  0  0  0  0
   29.2229  -24.8223  -15.7127 O   0  0  0  0  0  0  0  0  0  0  0  0
   28.4998  -23.8874  -17.6808 N   0  0  0  0  0  0  0  0  0  0  0  0
   28.0875  -22.6365  -16.9942 C   0  0  1  0  0  0  0  0  0  0  0  0
   28.4714  -21.5147  -17.9238 C   0  0  0  0  0  0  0  0  0  0  0  0
   27.9343  -19.9053  -17.3655 S   0  0  0  0  0  0  0  0  0  0  0  0
   26.6416  -22.6450  -16.7778 C   0  0  0  0  0  0  0  0  0  0  0  0
   25.8598  -23.0358  -17.6902 O   0  0  0  0  0  0  0  0  0  0  0  0
   18.9552  -21.3796  -12.4097 O   0  0  0  0  0  0  0  0  0  0  0  0
   20.2923  -21.4329  -12.7828 C   0  0  0  0  0  0  0  0  0  0  0  0
   21.0877  -20.3154  -12.8927 C   0  0  0  0  0  0  0  0  0  0  0  0
   22.4161  -20.4388  -13.2703 C   0  0  0  0  0  0  0  0  0  0  0  0
   22.9897  -21.6694  -13.5481 C   0  0  0  0  0  0  0  0  0  0  0  0
   24.3977  -21.7776  -13.9473 C   0  0  0  0  0  0  0  0  0  0  0  0
   24.6041  -22.1894  -15.3808 C   0  0  2  0  0  0  0  0  0  0  0  0
   26.0632  -22.2341  -15.5769 N   0  0  0  0  0  0  0  0  0  0  0  0
   24.0525  -21.2122  -16.3340 C   0  0  0  0  0  0  0  0  0  0  0  0
   22.8722  -21.4740  -16.9897 O   0  0  0  0  0  0  0  0  0  0  0  0
   22.1611  -22.7690  -13.4274 C   0  0  0  0  0  0  0  0  0  0  0  0
   20.8326  -22.6671  -13.0518 C   0  0  0  0  0  0  0  0  0  0  0  0
   24.6134  -20.1123  -16.5960 O   0  0  0  0  0  0  0  0  0  0  0  0
  2  1  1  6
  3  2  1  0
  4  2  1  0
  4  6  1  0
  4  5  1  1
  6  7  2  0
  8  6  1  0
  8  9  1  0
  9 10  1  6
 11 10  1  0
 12  9  1  0
 12 21  1  0
 13 12  2  0
 15 14  1  0
 16 15  2  0
 17 16  1  0
 18 24  1  0
 18 17  2  0
 19 18  1  0
 20 22  1  0
 20 21  1  0
 20 19  1  1
 22 23  1  0
 24 25  2  0
 25 15  1  0
 26 22  2  0
M  END
$$$$
