TCY.pdb
     RDKit          3D

 26 26  0  0  1  0  0  0  0  0999 V2000
   25.7552  -20.0955  -20.8519 C   0  0  0  0  0  0  0  0  0  0  0  0
   25.0232  -19.8362  -19.5447 C   0  0  1  0  0  0  0  0  0  0  0  0
   25.5354  -20.7331  -18.6093 O   0  0  0  0  0  0  0  0  0  0  0  0
   25.3514  -18.4386  -19.0686 C   0  0  2  0  0  0  0  0  0  0  0  0
   26.7761  -18.3809  -18.8437 N   0  0  0  0  0  0  0  0  0  0  0  0
   24.6633  -18.1331  -17.7885 C   0  0  0  0  0  0  0  0  0  0  0  0
   25.3200  -18.1163  -16.6932 O   0  0  0  0  0  0  0  0  0  0  0  0
   23.2773  -17.8502  -17.7066 N   0  0  0  0  0  0  0  0  0  0  0  0
   22.6174  -17.5584  -16.4083 C   0  0  1  0  0  0  0  0  0  0  0  0
   21.8807  -16.2594  -16.6074 C   0  0  0  0  0  0  0  0  0  0  0  0
   20.8384  -15.8078  -15.2289 S   0  0  0  0  0  0  0  0  0  0  0  0
   21.6788  -18.6300  -16.0791 C   0  0  0  0  0  0  0  0  0  0  0  0
   20.9847  -19.1737  -16.9841 O   0  0  0  0  0  0  0  0  0  0  0  0
   17.5474  -24.7231  -11.0367 O   0  0  0  0  0  0  0  0  0  0  0  0
   18.3424  -23.6861  -11.5082 C   0  0  0  0  0  0  0  0  0  0  0  0
   18.1357  -22.3675  -11.1733 C   0  0  0  0  0  0  0  0  0  0  0  0
   18.9673  -21.3803  -11.6795 C   0  0  0  0  0  0  0  0  0  0  0  0
   20.0228  -21.6729  -12.5285 C   0  0  0  0  0  0  0  0  0  0  0  0
   20.8905  -20.6124  -13.0540 C   0  0  0  0  0  0  0  0  0  0  0  0
   20.5315  -20.1505  -14.4414 C   0  0  2  0  0  0  0  0  0  0  0  0
   21.5074  -19.0997  -14.7770 N   0  0  0  0  0  0  0  0  0  0  0  0
   19.1875  -19.5530  -14.5074 C   0  0  0  0  0  0  0  0  0  0  0  0
   18.9894  -18.2483  -14.1200 O   0  0  0  0  0  0  0  0  0  0  0  0
   20.2000  -23.0070  -12.8429 C   0  0  0  0  0  0  0  0  0  0  0  0
   19.3810  -24.0075  -12.3482 C   0  0  0  0  0  0  0  0  0  0  0  0
   18.1715  -20.1839  -14.9108 O   0  0  0  0  0  0  0  0  0  0  0  0
  2  1  1  6
  3  2  1  0
  4  2  1  0
  4  6  1  0
  4  5  1  1
  6  7  2  0
  8  6  1  0
  8  9  1  0
  9 10  1  6
 11 10  1  0
 12  9  1  0
 12 21  1  0
 13 12  2  0
 15 14  1  0
 16 15  2  0
 17 16  1  0
 18 24  1  0
 18 17  2  0
 19 18  1  0
 20 22  1  0
 20 21  1  0
 20 19  1  1
 22 23  1  0
 24 25  2  0
 25 15  1  0
 26 22  2  0
M  END
$$$$
