TCY.pdb
     RDKit          3D

 26 26  0  0  1  0  0  0  0  0999 V2000
   26.8897  -11.1422  -14.9705 C   0  0  0  0  0  0  0  0  0  0  0  0
   25.7180  -10.2296  -15.2962 C   0  0  1  0  0  0  0  0  0  0  0  0
   25.8689   -9.8355  -16.6241 O   0  0  0  0  0  0  0  0  0  0  0  0
   24.4354  -11.0249  -15.1960 C   0  0  2  0  0  0  0  0  0  0  0  0
   24.5124  -12.0949  -16.1619 N   0  0  0  0  0  0  0  0  0  0  0  0
   23.2562  -10.1836  -15.5235 C   0  0  0  0  0  0  0  0  0  0  0  0
   22.7464  -10.2182  -16.6940 O   0  0  0  0  0  0  0  0  0  0  0  0
   22.6429   -9.3169  -14.5851 N   0  0  0  0  0  0  0  0  0  0  0  0
   21.4307   -8.5300  -14.9282 C   0  0  1  0  0  0  0  0  0  0  0  0
   20.2961   -9.1811  -14.1809 C   0  0  0  0  0  0  0  0  0  0  0  0
   20.6083   -9.3785  -12.4334 S   0  0  0  0  0  0  0  0  0  0  0  0
   21.5998   -7.1454  -14.4899 C   0  0  0  0  0  0  0  0  0  0  0  0
   22.2185   -6.8835  -13.4198 O   0  0  0  0  0  0  0  0  0  0  0  0
   21.7348    1.7051  -15.4351 O   0  0  0  0  0  0  0  0  0  0  0  0
   21.8284    0.3208  -15.5019 C   0  0  0  0  0  0  0  0  0  0  0  0
   22.7505   -0.4064  -14.7846 C   0  0  0  0  0  0  0  0  0  0  0  0
   22.7903   -1.7877  -14.8973 C   0  0  0  0  0  0  0  0  0  0  0  0
   21.9199   -2.4830  -15.7216 C   0  0  0  0  0  0  0  0  0  0  0  0
   21.9797   -3.9455  -15.8272 C   0  0  0  0  0  0  0  0  0  0  0  0
   21.2257   -4.6748  -14.7472 C   0  0  2  0  0  0  0  0  0  0  0  0
   21.1005   -6.0650  -15.2171 N   0  0  0  0  0  0  0  0  0  0  0  0
   19.8668   -4.1433  -14.5499 C   0  0  0  0  0  0  0  0  0  0  0  0
   18.8011   -4.7008  -15.2170 O   0  0  0  0  0  0  0  0  0  0  0  0
   21.0080   -1.7202  -16.4264 C   0  0  0  0  0  0  0  0  0  0  0  0
   20.9519   -0.3405  -16.3278 C   0  0  0  0  0  0  0  0  0  0  0  0
   19.6098   -3.1757  -13.7813 O   0  0  0  0  0  0  0  0  0  0  0  0
  2  1  1  6
  3  2  1  0
  4  2  1  0
  4  6  1  0
  4  5  1  6
  6  7  2  0
  8  6  1  0
  8  9  1  0
  9 10  1  1
 11 10  1  0
 12  9  1  0
 12 21  1  0
 13 12  2  0
 15 14  1  0
 16 15  2  0
 17 16  1  0
 18 24  1  0
 18 17  2  0
 19 18  1  0
 20 22  1  0
 20 21  1  0
 20 19  1  6
 22 23  1  0
 24 25  2  0
 25 15  1  0
 26 22  2  0
M  END
$$$$
