TCY.pdb
     RDKit          3D

 26 26  0  0  1  0  0  0  0  0999 V2000
   29.9611  -36.5517   -1.2368 C   0  0  0  0  0  0  0  0  0  0  0  0
   30.6473  -36.1835   -2.5427 C   0  0  1  0  0  0  0  0  0  0  0  0
   31.3632  -37.3059   -2.9541 O   0  0  0  0  0  0  0  0  0  0  0  0
   29.5914  -35.9032   -3.5887 C   0  0  2  0  0  0  0  0  0  0  0  0
   30.2742  -35.6179   -4.8280 N   0  0  0  0  0  0  0  0  0  0  0  0
   28.7746  -34.7185   -3.2215 C   0  0  0  0  0  0  0  0  0  0  0  0
   29.2189  -33.5400   -3.4333 O   0  0  0  0  0  0  0  0  0  0  0  0
   27.4904  -34.8203   -2.6313 N   0  0  0  0  0  0  0  0  0  0  0  0
   26.7059  -33.6148   -2.2606 C   0  0  1  0  0  0  0  0  0  0  0  0
   25.4078  -33.7235   -3.0176 C   0  0  0  0  0  0  0  0  0  0  0  0
   24.6620  -32.1444   -3.3924 S   0  0  0  0  0  0  0  0  0  0  0  0
   26.4556  -33.6116   -0.8201 C   0  0  0  0  0  0  0  0  0  0  0  0
   26.1727  -34.6853   -0.2170 O   0  0  0  0  0  0  0  0  0  0  0  0
   26.3377  -30.4101    7.5061 O   0  0  0  0  0  0  0  0  0  0  0  0
   26.4865  -30.6200    6.1410 C   0  0  0  0  0  0  0  0  0  0  0  0
   27.3637  -31.5392    5.6124 C   0  0  0  0  0  0  0  0  0  0  0  0
   27.4632  -31.6991    4.2388 C   0  0  0  0  0  0  0  0  0  0  0  0
   26.6981  -30.9544    3.3551 C   0  0  0  0  0  0  0  0  0  0  0  0
   26.8198  -31.1387    1.9043 C   0  0  0  0  0  0  0  0  0  0  0  0
   26.2776  -32.4497    1.3999 C   0  0  2  0  0  0  0  0  0  0  0  0
   26.5183  -32.4484   -0.0532 N   0  0  0  0  0  0  0  0  0  0  0  0
   24.8269  -32.5808    1.6148 C   0  0  0  0  0  0  0  0  0  0  0  0
   24.3467  -33.1767    2.7575 O   0  0  0  0  0  0  0  0  0  0  0  0
   25.8287  -30.0416    3.9215 C   0  0  0  0  0  0  0  0  0  0  0  0
   25.7144  -29.8668    5.2900 C   0  0  0  0  0  0  0  0  0  0  0  0
   23.9673  -32.1668    0.7884 O   0  0  0  0  0  0  0  0  0  0  0  0
  2  1  1  1
  3  2  1  0
  4  2  1  0
  4  6  1  0
  4  5  1  6
  6  7  2  0
  8  6  1  0
  8  9  1  0
  9 10  1  6
 11 10  1  0
 12  9  1  0
 12 21  1  0
 13 12  2  0
 15 14  1  0
 16 15  2  0
 17 16  1  0
 18 24  1  0
 18 17  2  0
 19 18  1  0
 20 22  1  0
 20 21  1  0
 20 19  1  6
 22 23  1  0
 24 25  2  0
 25 15  1  0
 26 22  2  0
M  END
$$$$
