TCY.pdb
     RDKit          3D

 26 26  0  0  1  0  0  0  0  0999 V2000
   21.4220  -14.4156  -17.4374 C   0  0  0  0  0  0  0  0  0  0  0  0
   22.3099  -15.6459  -17.3385 C   0  0  1  0  0  0  0  0  0  0  0  0
   21.4687  -16.7562  -17.3765 O   0  0  0  0  0  0  0  0  0  0  0  0
   23.2030  -15.7044  -18.5578 C   0  0  2  0  0  0  0  0  0  0  0  0
   22.3571  -15.9394  -19.7036 N   0  0  0  0  0  0  0  0  0  0  0  0
   24.1749  -16.8228  -18.4570 C   0  0  0  0  0  0  0  0  0  0  0  0
   23.7619  -18.0282  -18.3697 O   0  0  0  0  0  0  0  0  0  0  0  0
   25.5782  -16.6266  -18.4517 N   0  0  0  0  0  0  0  0  0  0  0  0
   26.5236  -17.7671  -18.3430 C   0  0  1  0  0  0  0  0  0  0  0  0
   27.8062  -17.2964  -18.9780 C   0  0  0  0  0  0  0  0  0  0  0  0
   29.1988  -18.3691  -18.6613 S   0  0  0  0  0  0  0  0  0  0  0  0
   26.7436  -18.0943  -16.9351 C   0  0  0  0  0  0  0  0  0  0  0  0
   27.0292  -17.1866  -16.1038 O   0  0  0  0  0  0  0  0  0  0  0  0
   25.7843  -20.8572   -8.8064 O   0  0  0  0  0  0  0  0  0  0  0  0
   25.7328  -20.5481  -10.1597 C   0  0  0  0  0  0  0  0  0  0  0  0
   25.2332  -21.4093  -11.1096 C   0  0  0  0  0  0  0  0  0  0  0  0
   25.2107  -21.0380  -12.4453 C   0  0  0  0  0  0  0  0  0  0  0  0
   25.6815  -19.8070  -12.8737 C   0  0  0  0  0  0  0  0  0  0  0  0
   25.6496  -19.4343  -14.2927 C   0  0  0  0  0  0  0  0  0  0  0  0
   26.9228  -19.7325  -15.0392 C   0  0  2  0  0  0  0  0  0  0  0  0
   26.6479  -19.3972  -16.4468 N   0  0  0  0  0  0  0  0  0  0  0  0
   27.2914  -21.1567  -14.9804 C   0  0  0  0  0  0  0  0  0  0  0  0
   28.2313  -21.5925  -14.0758 O   0  0  0  0  0  0  0  0  0  0  0  0
   26.1757  -18.9686  -11.8924 C   0  0  0  0  0  0  0  0  0  0  0  0
   26.2069  -19.3203  -10.5538 C   0  0  0  0  0  0  0  0  0  0  0  0
   26.7819  -22.0324  -15.7332 O   0  0  0  0  0  0  0  0  0  0  0  0
  2  1  1  6
  3  2  1  0
  4  2  1  0
  4  6  1  0
  4  5  1  6
  6  7  2  0
  8  6  1  0
  8  9  1  0
  9 10  1  1
 11 10  1  0
 12  9  1  0
 12 21  1  0
 13 12  2  0
 15 14  1  0
 16 15  2  0
 17 16  1  0
 18 24  1  0
 18 17  2  0
 19 18  1  0
 20 22  1  0
 20 21  1  0
 20 19  1  1
 22 23  1  0
 24 25  2  0
 25 15  1  0
 26 22  2  0
M  END
$$$$
