AAG.pdb
     RDKit          3D

 15 14  0  0  1  0  0  0  0  0999 V2000
   19.8934  -12.0737  -18.5376 C   0  0  0  0  0  0  0  0  0  0  0  0
   20.2472  -11.5859  -17.1492 C   0  0  2  0  0  0  0  0  0  0  0  0
   19.1174  -11.7007  -16.2494 N   0  0  0  0  0  0  0  0  0  0  0  0
   20.6414  -10.1481  -17.2832 C   0  0  0  0  0  0  0  0  0  0  0  0
   21.6490   -9.8437  -17.9353 O   0  0  0  0  0  0  0  0  0  0  0  0
   19.0029   -6.8775  -16.9883 C   0  0  0  0  0  0  0  0  0  0  0  0
   20.2341   -7.7544  -16.7731 C   0  0  2  0  0  0  0  0  0  0  0  0
   19.8680   -9.1460  -16.6692 N   0  0  0  0  0  0  0  0  0  0  0  0
   20.9322   -7.3030  -15.5388 C   0  0  0  0  0  0  0  0  0  0  0  0
   20.6651   -7.8767  -14.4427 O   0  0  0  0  0  0  0  0  0  0  0  0
   21.8733   -6.2489  -15.6171 N   0  0  0  0  0  0  0  0  0  0  0  0
   22.6257   -5.8833  -14.4514 C   0  0  0  0  0  0  0  0  0  0  0  0
   21.9397   -4.8115  -13.7216 C   0  0  0  0  0  0  0  0  0  0  0  0
   20.8238   -4.3864  -14.1158 O   0  0  0  0  0  0  0  0  0  0  0  0
   22.4600   -4.2109  -12.5797 O   0  0  0  0  0  0  0  0  0  0  0  0
  2  4  1  0
  2  1  1  6
  3  2  1  0
  4  8  1  0
  5  4  2  0
  7  6  1  1
  7  9  1  0
  8  7  1  0
  9 11  1  0
  9 10  2  0
 11 12  1  0
 12 13  1  0
 13 15  1  0
 14 13  2  0
M  END
$$$$
