AAG.pdb
     RDKit          3D

 15 14  0  0  1  0  0  0  0  0999 V2000
   20.8273  -11.2127  -19.2239 C   0  0  0  0  0  0  0  0  0  0  0  0
   20.9142  -11.0347  -17.7234 C   0  0  2  0  0  0  0  0  0  0  0  0
   19.7284  -11.5447  -17.0653 N   0  0  0  0  0  0  0  0  0  0  0  0
   21.0400   -9.5651  -17.4686 C   0  0  0  0  0  0  0  0  0  0  0  0
   22.0904   -8.9772  -17.7584 O   0  0  0  0  0  0  0  0  0  0  0  0
   18.6034   -6.8239  -16.7787 C   0  0  0  0  0  0  0  0  0  0  0  0
   20.0096   -7.4185  -16.7710 C   0  0  2  0  0  0  0  0  0  0  0  0
   19.9662   -8.8547  -16.9012 N   0  0  0  0  0  0  0  0  0  0  0  0
   20.6866   -7.0277  -15.5047 C   0  0  0  0  0  0  0  0  0  0  0  0
   20.8268   -7.8963  -14.5950 O   0  0  0  0  0  0  0  0  0  0  0  0
   21.1556   -5.7018  -15.3464 N   0  0  0  0  0  0  0  0  0  0  0  0
   21.9371   -5.3601  -14.1927 C   0  0  0  0  0  0  0  0  0  0  0  0
   22.1655   -3.9117  -14.1467 C   0  0  0  0  0  0  0  0  0  0  0  0
   22.7874   -3.3358  -15.0757 O   0  0  0  0  0  0  0  0  0  0  0  0
   21.7239   -3.1017  -13.1055 O   0  0  0  0  0  0  0  0  0  0  0  0
  2  4  1  0
  2  1  1  6
  3  2  1  0
  4  8  1  0
  5  4  2  0
  7  6  1  1
  7  9  1  0
  8  7  1  0
  9 11  1  0
  9 10  2  0
 11 12  1  0
 12 13  1  0
 13 15  1  0
 14 13  2  0
M  END
$$$$
