AAG.pdb
     RDKit          3D

 15 14  0  0  1  0  0  0  0  0999 V2000
   16.5300   -8.3011  -16.4947 C   0  0  0  0  0  0  0  0  0  0  0  0
   17.5817   -9.3690  -16.7050 C   0  0  2  0  0  0  0  0  0  0  0  0
   17.0831  -10.6768  -16.3304 N   0  0  0  0  0  0  0  0  0  0  0  0
   18.7465   -9.0059  -15.8379 C   0  0  0  0  0  0  0  0  0  0  0  0
   18.6706   -9.1527  -14.6108 O   0  0  0  0  0  0  0  0  0  0  0  0
   22.3683   -8.3651  -16.4848 C   0  0  0  0  0  0  0  0  0  0  0  0
   21.1098   -8.2810  -15.6245 C   0  0  2  0  0  0  0  0  0  0  0  0
   19.9242   -8.4989  -16.4172 N   0  0  0  0  0  0  0  0  0  0  0  0
   21.0653   -6.9441  -14.9725 C   0  0  0  0  0  0  0  0  0  0  0  0
   20.3464   -6.0383  -15.4869 O   0  0  0  0  0  0  0  0  0  0  0  0
   21.8230   -6.7162  -13.7990 N   0  0  0  0  0  0  0  0  0  0  0  0
   21.6826   -5.4736  -13.0956 C   0  0  0  0  0  0  0  0  0  0  0  0
   22.2008   -4.3692  -13.9104 C   0  0  0  0  0  0  0  0  0  0  0  0
   23.1568   -4.5589  -14.7051 O   0  0  0  0  0  0  0  0  0  0  0  0
   21.6868   -3.0774  -13.8614 O   0  0  0  0  0  0  0  0  0  0  0  0
  2  4  1  0
  2  1  1  1
  3  2  1  0
  4  8  1  0
  5  4  2  0
  7  6  1  6
  7  9  1  0
  8  7  1  0
  9 11  1  0
  9 10  2  0
 11 12  1  0
 12 13  1  0
 13 15  1  0
 14 13  2  0
M  END
$$$$
