AAG.pdb
     RDKit          3D

 15 14  0  0  1  0  0  0  0  0999 V2000
   25.6428  -14.5029  -14.6090 C   0  0  0  0  0  0  0  0  0  0  0  0
   25.4852  -15.4431  -15.7845 C   0  0  2  0  0  0  0  0  0  0  0  0
   26.2408  -14.9804  -16.9309 N   0  0  0  0  0  0  0  0  0  0  0  0
   24.0270  -15.4748  -16.1208 C   0  0  0  0  0  0  0  0  0  0  0  0
   23.5008  -14.4996  -16.6733 O   0  0  0  0  0  0  0  0  0  0  0  0
   21.4672  -17.8743  -16.9022 C   0  0  0  0  0  0  0  0  0  0  0  0
   21.8399  -16.6456  -16.0763 C   0  0  2  0  0  0  0  0  0  0  0  0
   23.2573  -16.6105  -15.8092 N   0  0  0  0  0  0  0  0  0  0  0  0
   21.0679  -16.6729  -14.8043 C   0  0  0  0  0  0  0  0  0  0  0  0
   21.5769  -17.2403  -13.7941 O   0  0  0  0  0  0  0  0  0  0  0  0
   19.7896  -16.0676  -14.7526 N   0  0  0  0  0  0  0  0  0  0  0  0
   19.0467  -16.0857  -13.5253 C   0  0  0  0  0  0  0  0  0  0  0  0
   18.2240  -17.2980  -13.4492 C   0  0  0  0  0  0  0  0  0  0  0  0
   17.4031  -17.4519  -12.5091 O   0  0  0  0  0  0  0  0  0  0  0  0
   18.2934  -18.3276  -14.3821 O   0  0  0  0  0  0  0  0  0  0  0  0
  2  4  1  0
  2  1  1  1
  3  2  1  0
  4  8  1  0
  5  4  2  0
  7  6  1  6
  7  9  1  0
  8  7  1  0
  9 11  1  0
  9 10  2  0
 11 12  1  0
 12 13  1  0
 13 15  1  0
 14 13  2  0
M  END
$$$$
