AAG.pdb
     RDKit          3D

 15 14  0  0  1  0  0  0  0  0999 V2000
   25.2982  -24.1367  -15.0743 C   0  0  0  0  0  0  0  0  0  0  0  0
   25.9082  -23.9344  -16.4445 C   0  0  2  0  0  0  0  0  0  0  0  0
   25.0849  -23.0667  -17.2621 N   0  0  0  0  0  0  0  0  0  0  0  0
   26.0021  -25.2864  -17.0801 C   0  0  0  0  0  0  0  0  0  0  0  0
   24.9885  -25.8158  -17.5549 O   0  0  0  0  0  0  0  0  0  0  0  0
   28.3803  -27.2091  -18.9028 C   0  0  0  0  0  0  0  0  0  0  0  0
   27.3611  -27.2454  -17.7666 C   0  0  2  0  0  0  0  0  0  0  0  0
   27.2398  -25.9530  -17.1371 N   0  0  0  0  0  0  0  0  0  0  0  0
   27.7858  -28.2722  -16.7767 C   0  0  0  0  0  0  0  0  0  0  0  0
   28.6293  -27.9516  -15.8893 O   0  0  0  0  0  0  0  0  0  0  0  0
   27.2407  -29.5763  -16.8488 N   0  0  0  0  0  0  0  0  0  0  0  0
   27.5740  -30.5400  -15.8394 C   0  0  0  0  0  0  0  0  0  0  0  0
   28.4665  -31.5645  -16.3926 C   0  0  0  0  0  0  0  0  0  0  0  0
   28.8932  -31.4673  -17.5715 O   0  0  0  0  0  0  0  0  0  0  0  0
   28.8885  -32.6783  -15.6739 O   0  0  0  0  0  0  0  0  0  0  0  0
  2  4  1  0
  2  1  1  1
  3  2  1  0
  4  8  1  0
  5  4  2  0
  7  6  1  6
  7  9  1  0
  8  7  1  0
  9 11  1  0
  9 10  2  0
 11 12  1  0
 12 13  1  0
 13 15  1  0
 14 13  2  0
M  END
$$$$
