AAG.pdb
     RDKit          3D

 15 14  0  0  1  0  0  0  0  0999 V2000
   44.8798   -9.0256   -4.9323 C   0  0  0  0  0  0  0  0  0  0  0  0
   43.8196   -9.6353   -5.8239 C   0  0  2  0  0  0  0  0  0  0  0  0
   42.9192  -10.4800   -5.0656 N   0  0  0  0  0  0  0  0  0  0  0  0
   44.5369  -10.4558   -6.8501 C   0  0  0  0  0  0  0  0  0  0  0  0
   45.3031   -9.9063   -7.6525 O   0  0  0  0  0  0  0  0  0  0  0  0
   45.5266  -13.9644   -7.2305 C   0  0  0  0  0  0  0  0  0  0  0  0
   45.0389  -12.6638   -7.8643 C   0  0  2  0  0  0  0  0  0  0  0  0
   44.3399  -11.8479   -6.9014 N   0  0  0  0  0  0  0  0  0  0  0  0
   44.1518  -12.9950   -9.0123 C   0  0  0  0  0  0  0  0  0  0  0  0
   44.6002  -13.7353   -9.9357 O   0  0  0  0  0  0  0  0  0  0  0  0
   42.8347  -12.4784   -9.0460 N   0  0  0  0  0  0  0  0  0  0  0  0
   41.9716  -12.8105  -10.1431 C   0  0  0  0  0  0  0  0  0  0  0  0
   42.0333  -11.7649  -11.1703 C   0  0  0  0  0  0  0  0  0  0  0  0
   42.6060  -10.6711  -10.9313 O   0  0  0  0  0  0  0  0  0  0  0  0
   41.4800  -11.9070  -12.4387 O   0  0  0  0  0  0  0  0  0  0  0  0
  2  4  1  0
  2  1  1  1
  3  2  1  0
  4  8  1  0
  5  4  2  0
  7  6  1  1
  7  9  1  0
  8  7  1  0
  9 11  1  0
  9 10  2  0
 11 12  1  0
 12 13  1  0
 13 15  1  0
 14 13  2  0
M  END
$$$$
