AAG.pdb
     RDKit          3D

 15 14  0  0  1  0  0  0  0  0999 V2000
   17.3757   -8.3025  -17.5045 C   0  0  0  0  0  0  0  0  0  0  0  0
   18.0908   -9.5821  -17.1279 C   0  0  2  0  0  0  0  0  0  0  0  0
   17.1577  -10.5845  -16.6548 N   0  0  0  0  0  0  0  0  0  0  0  0
   19.0540   -9.2342  -16.0362 C   0  0  0  0  0  0  0  0  0  0  0  0
   18.6458   -9.0951  -14.8756 O   0  0  0  0  0  0  0  0  0  0  0  0
   22.7906   -9.0505  -15.7173 C   0  0  0  0  0  0  0  0  0  0  0  0
   21.3634   -8.7041  -15.3001 C   0  0  2  0  0  0  0  0  0  0  0  0
   20.4197   -9.0660  -16.3296 N   0  0  0  0  0  0  0  0  0  0  0  0
   21.2905   -7.2459  -15.0122 C   0  0  0  0  0  0  0  0  0  0  0  0
   20.8202   -6.4724  -15.8966 O   0  0  0  0  0  0  0  0  0  0  0  0
   21.7458   -6.7591  -13.7636 N   0  0  0  0  0  0  0  0  0  0  0  0
   21.6035   -5.3658  -13.4522 C   0  0  0  0  0  0  0  0  0  0  0  0
   22.3934   -4.5552  -14.3855 C   0  0  0  0  0  0  0  0  0  0  0  0
   21.9945   -3.4140  -14.7322 O   0  0  0  0  0  0  0  0  0  0  0  0
   23.5995   -4.9796  -14.9336 O   0  0  0  0  0  0  0  0  0  0  0  0
  2  4  1  0
  2  1  1  1
  3  2  1  0
  4  8  1  0
  5  4  2  0
  7  6  1  6
  7  9  1  0
  8  7  1  0
  9 11  1  0
  9 10  2  0
 11 12  1  0
 12 13  1  0
 13 15  1  0
 14 13  2  0
M  END
$$$$
