AAG.pdb
     RDKit          3D

 15 14  0  0  1  0  0  0  0  0999 V2000
   18.7071  -10.3281  -18.9057 C   0  0  0  0  0  0  0  0  0  0  0  0
   19.3512  -11.3668  -18.0130 C   0  0  2  0  0  0  0  0  0  0  0  0
   18.4407  -12.4601  -17.7392 N   0  0  0  0  0  0  0  0  0  0  0  0
   19.7091  -10.6761  -16.7341 C   0  0  0  0  0  0  0  0  0  0  0  0
   18.8275  -10.4248  -15.9019 O   0  0  0  0  0  0  0  0  0  0  0  0
   22.8832   -9.9964  -14.8938 C   0  0  0  0  0  0  0  0  0  0  0  0
   21.4243   -9.6986  -15.2312 C   0  0  2  0  0  0  0  0  0  0  0  0
   21.0446  -10.3139  -16.4797 N   0  0  0  0  0  0  0  0  0  0  0  0
   21.2409   -8.2233  -15.2975 C   0  0  0  0  0  0  0  0  0  0  0  0
   21.3158   -7.6493  -16.4230 O   0  0  0  0  0  0  0  0  0  0  0  0
   20.9885   -7.4989  -14.1081 N   0  0  0  0  0  0  0  0  0  0  0  0
   20.6724   -6.1015  -14.1836 C   0  0  0  0  0  0  0  0  0  0  0  0
   21.9022   -5.3095  -14.2956 C   0  0  0  0  0  0  0  0  0  0  0  0
   23.0268   -5.8695  -14.2403 O   0  0  0  0  0  0  0  0  0  0  0  0
   21.9085   -3.9288  -14.4653 O   0  0  0  0  0  0  0  0  0  0  0  0
  2  4  1  0
  2  1  1  6
  3  2  1  0
  4  8  1  0
  5  4  2  0
  7  6  1  6
  7  9  1  0
  8  7  1  0
  9 11  1  0
  9 10  2  0
 11 12  1  0
 12 13  1  0
 13 15  1  0
 14 13  2  0
M  END
$$$$
