AAG.pdb
     RDKit          3D

 15 14  0  0  1  0  0  0  0  0999 V2000
   18.1605  -13.5768  -15.9911 C   0  0  0  0  0  0  0  0  0  0  0  0
   18.8774  -12.5368  -16.8248 C   0  0  2  0  0  0  0  0  0  0  0  0
   19.9226  -13.1381  -17.6280 N   0  0  0  0  0  0  0  0  0  0  0  0
   19.4782  -11.5546  -15.8682 C   0  0  0  0  0  0  0  0  0  0  0  0
   18.7622  -10.9993  -15.0245 O   0  0  0  0  0  0  0  0  0  0  0  0
   22.9767  -10.5505  -14.9394 C   0  0  0  0  0  0  0  0  0  0  0  0
   21.4638  -10.3519  -14.9924 C   0  0  2  0  0  0  0  0  0  0  0  0
   20.8535  -11.2640  -15.9289 N   0  0  0  0  0  0  0  0  0  0  0  0
   21.1802   -8.9419  -15.3742 C   0  0  0  0  0  0  0  0  0  0  0  0
   21.1112   -8.6447  -16.6025 O   0  0  0  0  0  0  0  0  0  0  0  0
   20.9950   -7.9702  -14.3619 N   0  0  0  0  0  0  0  0  0  0  0  0
   20.6901   -6.6166  -14.7270 C   0  0  0  0  0  0  0  0  0  0  0  0
   21.4580   -5.6829  -13.8959 C   0  0  0  0  0  0  0  0  0  0  0  0
   22.1833   -6.1109  -12.9620 O   0  0  0  0  0  0  0  0  0  0  0  0
   21.4372   -4.3039  -14.0781 O   0  0  0  0  0  0  0  0  0  0  0  0
  2  4  1  0
  2  1  1  1
  3  2  1  0
  4  8  1  0
  5  4  2  0
  7  6  1  6
  7  9  1  0
  8  7  1  0
  9 11  1  0
  9 10  2  0
 11 12  1  0
 12 13  1  0
 13 15  1  0
 14 13  2  0
M  END
$$$$
