AAG.pdb
     RDKit          3D

 15 14  0  0  1  0  0  0  0  0999 V2000
   20.6705  -12.2117  -17.8909 C   0  0  0  0  0  0  0  0  0  0  0  0
   20.7384  -11.7859  -16.4401 C   0  0  2  0  0  0  0  0  0  0  0  0
   19.5781  -12.2453  -15.7040 N   0  0  0  0  0  0  0  0  0  0  0  0
   20.7823  -10.2897  -16.4300 C   0  0  0  0  0  0  0  0  0  0  0  0
   21.7558   -9.6985  -16.9157 O   0  0  0  0  0  0  0  0  0  0  0  0
   18.2885   -7.5708  -15.8758 C   0  0  0  0  0  0  0  0  0  0  0  0
   19.7147   -8.1155  -15.8921 C   0  0  2  0  0  0  0  0  0  0  0  0
   19.7192   -9.5581  -15.8696 N   0  0  0  0  0  0  0  0  0  0  0  0
   20.4474   -7.5712  -14.7167 C   0  0  0  0  0  0  0  0  0  0  0  0
   20.5798   -8.2992  -13.6900 O   0  0  0  0  0  0  0  0  0  0  0  0
   20.9767   -6.2598  -14.7725 N   0  0  0  0  0  0  0  0  0  0  0  0
   21.7377   -5.7556  -13.6655 C   0  0  0  0  0  0  0  0  0  0  0  0
   22.1532   -4.3728  -13.9248 C   0  0  0  0  0  0  0  0  0  0  0  0
   22.7586   -3.7140  -13.0410 O   0  0  0  0  0  0  0  0  0  0  0  0
   21.9139   -3.7163  -15.1277 O   0  0  0  0  0  0  0  0  0  0  0  0
  2  4  1  0
  2  1  1  6
  3  2  1  0
  4  8  1  0
  5  4  2  0
  7  6  1  1
  7  9  1  0
  8  7  1  0
  9 11  1  0
  9 10  2  0
 11 12  1  0
 12 13  1  0
 13 15  1  0
 14 13  2  0
M  END
$$$$
