AAG.pdb
     RDKit          3D

 15 14  0  0  1  0  0  0  0  0999 V2000
   20.1634  -10.8755  -19.6926 C   0  0  0  0  0  0  0  0  0  0  0  0
   20.7578  -11.8018  -18.6536 C   0  0  2  0  0  0  0  0  0  0  0  0
   19.8243  -12.8481  -18.2885 N   0  0  0  0  0  0  0  0  0  0  0  0
   21.0697  -10.9629  -17.4538 C   0  0  0  0  0  0  0  0  0  0  0  0
   20.1480  -10.5065  -16.7646 O   0  0  0  0  0  0  0  0  0  0  0  0
   24.1320  -10.3057  -15.4167 C   0  0  0  0  0  0  0  0  0  0  0  0
   22.7361   -9.9478  -15.9213 C   0  0  2  0  0  0  0  0  0  0  0  0
   22.4077  -10.6943  -17.1114 N   0  0  0  0  0  0  0  0  0  0  0  0
   22.6860   -8.4850  -16.1902 C   0  0  0  0  0  0  0  0  0  0  0  0
   22.9394   -8.0708  -17.3589 O   0  0  0  0  0  0  0  0  0  0  0  0
   22.3580   -7.5949  -15.1399 N   0  0  0  0  0  0  0  0  0  0  0  0
   22.3126   -6.1838  -15.3958 C   0  0  0  0  0  0  0  0  0  0  0  0
   21.8671   -5.4659  -14.1965 C   0  0  0  0  0  0  0  0  0  0  0  0
   21.4844   -6.1005  -13.1804 O   0  0  0  0  0  0  0  0  0  0  0  0
   21.8382   -4.0782  -14.1039 O   0  0  0  0  0  0  0  0  0  0  0  0
  2  4  1  0
  2  1  1  6
  3  2  1  0
  4  8  1  0
  5  4  2  0
  7  6  1  6
  7  9  1  0
  8  7  1  0
  9 11  1  0
  9 10  2  0
 11 12  1  0
 12 13  1  0
 13 15  1  0
 14 13  2  0
M  END
$$$$
