AAG.pdb
     RDKit          3D

 15 14  0  0  1  0  0  0  0  0999 V2000
   17.6067  -11.9131  -17.5888 C   0  0  0  0  0  0  0  0  0  0  0  0
   18.5404  -11.6751  -16.4216 C   0  0  2  0  0  0  0  0  0  0  0  0
   17.9026  -12.0073  -15.1638 N   0  0  0  0  0  0  0  0  0  0  0  0
   18.8934  -10.2206  -16.4396 C   0  0  0  0  0  0  0  0  0  0  0  0
   19.5465   -9.7567  -17.3838 O   0  0  0  0  0  0  0  0  0  0  0  0
   17.4303   -7.2188  -14.9383 C   0  0  0  0  0  0  0  0  0  0  0  0
   18.6639   -7.9541  -15.4567 C   0  0  2  0  0  0  0  0  0  0  0  0
   18.4836   -9.3837  -15.3855 N   0  0  0  0  0  0  0  0  0  0  0  0
   19.8433   -7.5343  -14.6522 C   0  0  0  0  0  0  0  0  0  0  0  0
   20.0733   -8.1215  -13.5549 O   0  0  0  0  0  0  0  0  0  0  0  0
   20.6766   -6.4943  -15.1287 N   0  0  0  0  0  0  0  0  0  0  0  0
   21.8497   -6.1307  -14.3868 C   0  0  0  0  0  0  0  0  0  0  0  0
   21.5671   -4.9767  -13.5263 C   0  0  0  0  0  0  0  0  0  0  0  0
   20.4168   -4.4691  -13.5001 O   0  0  0  0  0  0  0  0  0  0  0  0
   22.5216   -4.3837  -12.7063 O   0  0  0  0  0  0  0  0  0  0  0  0
  2  4  1  0
  2  1  1  6
  3  2  1  0
  4  8  1  0
  5  4  2  0
  7  6  1  1
  7  9  1  0
  8  7  1  0
  9 11  1  0
  9 10  2  0
 11 12  1  0
 12 13  1  0
 13 15  1  0
 14 13  2  0
M  END
$$$$
