AAG.pdb
     RDKit          3D

 15 14  0  0  1  0  0  0  0  0999 V2000
   18.9804  -12.6145  -16.9825 C   0  0  0  0  0  0  0  0  0  0  0  0
   19.7799  -11.4432  -17.5111 C   0  0  2  0  0  0  0  0  0  0  0  0
   20.8014  -11.8822  -18.4401 N   0  0  0  0  0  0  0  0  0  0  0  0
   20.4218  -10.7883  -16.3280 C   0  0  0  0  0  0  0  0  0  0  0  0
   19.7202  -10.3858  -15.3906 O   0  0  0  0  0  0  0  0  0  0  0  0
   23.9166  -10.2664  -15.0726 C   0  0  0  0  0  0  0  0  0  0  0  0
   22.4495   -9.8739  -15.2286 C   0  0  2  0  0  0  0  0  0  0  0  0
   21.8192  -10.6311  -16.2826 N   0  0  0  0  0  0  0  0  0  0  0  0
   22.3729   -8.4154  -15.5139 C   0  0  0  0  0  0  0  0  0  0  0  0
   22.3503   -8.0301  -16.7192 O   0  0  0  0  0  0  0  0  0  0  0  0
   22.3274   -7.4970  -14.4380 N   0  0  0  0  0  0  0  0  0  0  0  0
   22.1863   -6.0951  -14.7092 C   0  0  0  0  0  0  0  0  0  0  0  0
   22.1368   -5.3389  -13.4531 C   0  0  0  0  0  0  0  0  0  0  0  0
   22.0924   -4.0822  -13.4682 O   0  0  0  0  0  0  0  0  0  0  0  0
   22.1354   -5.9409  -12.1989 O   0  0  0  0  0  0  0  0  0  0  0  0
  2  4  1  0
  2  1  1  1
  3  2  1  0
  4  8  1  0
  5  4  2  0
  7  6  1  6
  7  9  1  0
  8  7  1  0
  9 11  1  0
  9 10  2  0
 11 12  1  0
 12 13  1  0
 13 15  1  0
 14 13  2  0
M  END
$$$$
