AAG.pdb
     RDKit          3D

 15 14  0  0  1  0  0  0  0  0999 V2000
   18.0682  -12.6903  -16.6783 C   0  0  0  0  0  0  0  0  0  0  0  0
   18.1171  -11.9718  -15.3471 C   0  0  2  0  0  0  0  0  0  0  0  0
   16.7912  -11.8241  -14.7820 N   0  0  0  0  0  0  0  0  0  0  0  0
   18.7084  -10.6212  -15.6060 C   0  0  0  0  0  0  0  0  0  0  0  0
   19.8750  -10.5265  -16.0098 O   0  0  0  0  0  0  0  0  0  0  0  0
   17.3611   -7.1444  -15.9251 C   0  0  0  0  0  0  0  0  0  0  0  0
   18.4772   -8.1514  -15.6584 C   0  0  2  0  0  0  0  0  0  0  0  0
   17.9392   -9.4630  -15.3904 N   0  0  0  0  0  0  0  0  0  0  0  0
   19.2876   -7.6723  -14.5059 C   0  0  0  0  0  0  0  0  0  0  0  0
   19.0175   -8.1065  -13.3481 O   0  0  0  0  0  0  0  0  0  0  0  0
   20.3357   -6.7476  -14.7282 N   0  0  0  0  0  0  0  0  0  0  0  0
   21.1752   -6.3522  -13.6340 C   0  0  0  0  0  0  0  0  0  0  0  0
   22.1741   -5.3786  -14.0883 C   0  0  0  0  0  0  0  0  0  0  0  0
   22.3230   -5.1449  -15.3149 O   0  0  0  0  0  0  0  0  0  0  0  0
   22.9989   -4.6696  -13.2210 O   0  0  0  0  0  0  0  0  0  0  0  0
  2  4  1  0
  2  1  1  6
  3  2  1  0
  4  8  1  0
  5  4  2  0
  7  6  1  1
  7  9  1  0
  8  7  1  0
  9 11  1  0
  9 10  2  0
 11 12  1  0
 12 13  1  0
 13 15  1  0
 14 13  2  0
M  END
$$$$
