DGP.pdb
     RDKit          3D

 20 20  0  0  1  0  0  0  0  0999 V2000
    9.1869  -16.8584   20.5997 N   0  0  0  0  0  0  0  0  0  0  0  0
    9.7101  -17.0539   21.9128 C   0  0  1  0  0  0  0  0  0  0  0  0
   11.1769  -16.7357   21.9861 C   0  0  0  0  0  0  0  0  0  0  0  0
   11.9528  -17.3546   20.8967 C   0  0  0  0  0  0  0  0  0  0  0  0
   11.9947  -18.6110   20.8544 O   0  0  0  0  0  0  0  0  0  0  0  0
    8.9282  -16.3564   22.9622 C   0  0  0  0  0  0  0  0  0  0  0  0
    9.3431  -16.3756   24.1476 O   0  0  0  0  0  0  0  0  0  0  0  0
   12.6359  -16.6583   19.9211 O   0  0  0  0  0  0  0  0  0  0  0  0
    7.7209  -15.6629   22.6777 N   0  0  0  0  0  0  0  0  0  0  0  0
    7.0026  -14.8808   23.6357 C   0  0  0  0  0  0  0  0  0  0  0  0
    7.8433  -14.4606   24.7932 C   0  0  0  0  0  0  0  0  0  0  0  0
    8.7765  -15.2546   25.0771 O   0  0  0  0  0  0  0  0  0  0  0  0
    7.5831  -13.2648   25.4877 N   0  0  0  0  0  0  0  0  0  0  0  0
    6.8867  -12.1198   24.8578 C   0  0  0  0  0  0  0  0  0  0  0  0
    5.8816  -11.7647   25.9476 C   0  0  0  0  0  0  0  0  0  0  0  0
    6.4121  -12.3811   27.2299 C   0  0  0  0  0  0  0  0  0  0  0  0
    7.8205  -12.7641   26.7865 C   0  0  1  0  0  0  0  0  0  0  0  0
    8.5690  -13.5069   27.7480 C   0  0  0  0  0  0  0  0  0  0  0  0
    8.2210  -14.8707   27.9009 O   0  0  0  0  0  0  0  0  0  0  0  0
    9.5046  -13.1539   28.4999 O   0  0  0  0  0  0  0  0  0  0  0  0
  2  1  1  6
  3  4  1  0
  3  2  1  0
  4  5  2  0
  6  7  2  0
  6  2  1  0
  8  4  1  0
  9  6  1  0
 10  9  1  0
 11 10  1  0
 12 11  2  0
 13 11  1  0
 13 17  1  0
 14 13  1  0
 14 15  1  0
 15 16  1  0
 17 16  1  0
 18 19  1  0
 17 18  1  1
 20 18  2  0
M  END
$$$$
