DGP.pdb
     RDKit          3D

 20 20  0  0  1  0  0  0  0  0999 V2000
   10.6157  -16.5713   20.5949 N   0  0  0  0  0  0  0  0  0  0  0  0
    9.2985  -16.7226   21.1225 C   0  0  1  0  0  0  0  0  0  0  0  0
    9.1116  -18.0543   21.7931 C   0  0  0  0  0  0  0  0  0  0  0  0
    9.9632  -19.1104   21.2177 C   0  0  0  0  0  0  0  0  0  0  0  0
    9.8703  -19.3223   19.9813 O   0  0  0  0  0  0  0  0  0  0  0  0
    8.8831  -15.5919   21.9874 C   0  0  0  0  0  0  0  0  0  0  0  0
    9.7347  -14.7293   22.3165 O   0  0  0  0  0  0  0  0  0  0  0  0
   10.8537  -19.8830   21.9343 O   0  0  0  0  0  0  0  0  0  0  0  0
    7.5514  -15.4451   22.4614 N   0  0  0  0  0  0  0  0  0  0  0  0
    7.1005  -14.3416   23.2516 C   0  0  0  0  0  0  0  0  0  0  0  0
    7.6400  -14.3609   24.6415 C   0  0  0  0  0  0  0  0  0  0  0  0
    8.1426  -15.4593   24.9919 O   0  0  0  0  0  0  0  0  0  0  0  0
    7.5742  -13.2221   25.4653 N   0  0  0  0  0  0  0  0  0  0  0  0
    7.2715  -11.8750   24.9299 C   0  0  0  0  0  0  0  0  0  0  0  0
    6.2320  -11.3965   25.9371 C   0  0  0  0  0  0  0  0  0  0  0  0
    6.4063  -12.2650   27.1703 C   0  0  0  0  0  0  0  0  0  0  0  0
    7.7317  -12.9445   26.8408 C   0  0  1  0  0  0  0  0  0  0  0  0
    8.1320  -13.9550   27.7656 C   0  0  0  0  0  0  0  0  0  0  0  0
    9.2397  -13.6495   28.5926 O   0  0  0  0  0  0  0  0  0  0  0  0
    7.6622  -15.0947   27.9789 O   0  0  0  0  0  0  0  0  0  0  0  0
  2  1  1  1
  3  4  1  0
  3  2  1  0
  4  5  2  0
  6  7  2  0
  6  2  1  0
  8  4  1  0
  9  6  1  0
 10  9  1  0
 11 10  1  0
 12 11  2  0
 13 11  1  0
 13 17  1  0
 14 13  1  0
 14 15  1  0
 15 16  1  0
 17 16  1  0
 18 19  1  0
 17 18  1  1
 20 18  2  0
M  END
$$$$
