DGP.pdb
     RDKit          3D

 20 20  0  0  1  0  0  0  0  0999 V2000
    8.9595  -18.0608   21.1003 N   0  0  0  0  0  0  0  0  0  0  0  0
    9.9084  -17.1358   21.6295 C   0  0  1  0  0  0  0  0  0  0  0  0
   10.8008  -16.5727   20.5596 C   0  0  0  0  0  0  0  0  0  0  0  0
   11.9112  -17.4746   20.2060 C   0  0  0  0  0  0  0  0  0  0  0  0
   13.0582  -16.9695   20.0981 O   0  0  0  0  0  0  0  0  0  0  0  0
    9.2889  -16.0770   22.4627 C   0  0  0  0  0  0  0  0  0  0  0  0
    9.9940  -15.1113   22.8473 O   0  0  0  0  0  0  0  0  0  0  0  0
   11.7858  -18.8306   19.9847 O   0  0  0  0  0  0  0  0  0  0  0  0
    7.9207  -16.1121   22.8453 N   0  0  0  0  0  0  0  0  0  0  0  0
    7.2495  -15.0416   23.5154 C   0  0  0  0  0  0  0  0  0  0  0  0
    7.8432  -14.7233   24.8456 C   0  0  0  0  0  0  0  0  0  0  0  0
    8.4343  -15.6862   25.3981 O   0  0  0  0  0  0  0  0  0  0  0  0
    7.7307  -13.4374   25.4056 N   0  0  0  0  0  0  0  0  0  0  0  0
    7.3083  -12.2622   24.6097 C   0  0  0  0  0  0  0  0  0  0  0  0
    6.2813  -11.6385   25.5480 C   0  0  0  0  0  0  0  0  0  0  0  0
    6.5714  -12.2020   26.9278 C   0  0  0  0  0  0  0  0  0  0  0  0
    7.9271  -12.8548   26.6768 C   0  0  1  0  0  0  0  0  0  0  0  0
    8.4393  -13.6106   27.7736 C   0  0  0  0  0  0  0  0  0  0  0  0
    7.7997  -14.8449   28.0419 O   0  0  0  0  0  0  0  0  0  0  0  0
    9.3804  -13.3663   28.5609 O   0  0  0  0  0  0  0  0  0  0  0  0
  2  1  1  6
  3  4  1  0
  3  2  1  0
  4  5  2  0
  6  7  2  0
  6  2  1  0
  8  4  1  0
  9  6  1  0
 10  9  1  0
 11 10  1  0
 12 11  2  0
 13 11  1  0
 13 17  1  0
 14 13  1  0
 14 15  1  0
 15 16  1  0
 17 16  1  0
 18 19  1  0
 17 18  1  1
 20 18  2  0
M  END
$$$$
