DGP.pdb
     RDKit          3D

 20 20  0  0  1  0  0  0  0  0999 V2000
    8.0505  -17.8951   21.2372 N   0  0  0  0  0  0  0  0  0  0  0  0
    8.4897  -16.6005   20.8281 C   0  0  1  0  0  0  0  0  0  0  0  0
    8.1915  -16.3383   19.3788 C   0  0  0  0  0  0  0  0  0  0  0  0
    9.0278  -17.1393   18.4674 C   0  0  0  0  0  0  0  0  0  0  0  0
    9.8927  -17.8926   18.9837 O   0  0  0  0  0  0  0  0  0  0  0  0
    8.0019  -15.5131   21.7104 C   0  0  0  0  0  0  0  0  0  0  0  0
    8.5315  -14.3770   21.6300 O   0  0  0  0  0  0  0  0  0  0  0  0
    8.9320  -17.1239   17.0912 O   0  0  0  0  0  0  0  0  0  0  0  0
    6.9525  -15.7070   22.6490 N   0  0  0  0  0  0  0  0  0  0  0  0
    6.5034  -14.7050   23.5654 C   0  0  0  0  0  0  0  0  0  0  0  0
    7.4239  -14.5199   24.7237 C   0  0  0  0  0  0  0  0  0  0  0  0
    8.2149  -15.4776   24.9211 O   0  0  0  0  0  0  0  0  0  0  0  0
    7.3815  -13.3537   25.5099 N   0  0  0  0  0  0  0  0  0  0  0  0
    6.7101  -12.1155   25.0527 C   0  0  0  0  0  0  0  0  0  0  0  0
    5.9138  -11.7477   26.2995 C   0  0  0  0  0  0  0  0  0  0  0  0
    6.5672  -12.4882   27.4529 C   0  0  0  0  0  0  0  0  0  0  0  0
    7.8531  -12.9598   26.7813 C   0  0  1  0  0  0  0  0  0  0  0  0
    8.6621  -13.8238   27.5784 C   0  0  0  0  0  0  0  0  0  0  0  0
    8.1449  -15.1176   27.8295 O   0  0  0  0  0  0  0  0  0  0  0  0
    9.7791  -13.6325   28.1085 O   0  0  0  0  0  0  0  0  0  0  0  0
  2  1  1  1
  3  4  1  0
  3  2  1  0
  4  5  2  0
  6  7  2  0
  6  2  1  0
  8  4  1  0
  9  6  1  0
 10  9  1  0
 11 10  1  0
 12 11  2  0
 13 11  1  0
 13 17  1  0
 14 13  1  0
 14 15  1  0
 15 16  1  0
 17 16  1  0
 18 19  1  0
 17 18  1  1
 20 18  2  0
M  END
$$$$
