DGP.pdb
     RDKit          3D

 20 20  0  0  1  0  0  0  0  0999 V2000
   10.1258  -16.6567   21.2323 N   0  0  0  0  0  0  0  0  0  0  0  0
    9.1280  -16.0980   20.3788 C   0  0  1  0  0  0  0  0  0  0  0  0
    8.5319  -17.1287   19.4621 C   0  0  0  0  0  0  0  0  0  0  0  0
    9.5475  -17.8592   18.6833 C   0  0  0  0  0  0  0  0  0  0  0  0
    9.9568  -17.3279   17.6193 O   0  0  0  0  0  0  0  0  0  0  0  0
    8.0936  -15.3313   21.1146 C   0  0  0  0  0  0  0  0  0  0  0  0
    7.1304  -14.8375   20.4774 O   0  0  0  0  0  0  0  0  0  0  0  0
   10.0819  -19.0816   19.0349 O   0  0  0  0  0  0  0  0  0  0  0  0
    8.1496  -15.1322   22.5206 N   0  0  0  0  0  0  0  0  0  0  0  0
    7.1248  -14.4833   23.2782 C   0  0  0  0  0  0  0  0  0  0  0  0
    7.3363  -14.5840   24.7507 C   0  0  0  0  0  0  0  0  0  0  0  0
    7.4151  -15.7605   25.1883 O   0  0  0  0  0  0  0  0  0  0  0  0
    7.4348  -13.4328   25.5539 N   0  0  0  0  0  0  0  0  0  0  0  0
    6.9873  -12.1011   25.0857 C   0  0  0  0  0  0  0  0  0  0  0  0
    6.1951  -11.6257   26.2983 C   0  0  0  0  0  0  0  0  0  0  0  0
    6.6664  -12.4695   27.4693 C   0  0  0  0  0  0  0  0  0  0  0  0
    7.8963  -13.1289   26.8533 C   0  0  1  0  0  0  0  0  0  0  0  0
    8.5203  -14.1156   27.6740 C   0  0  0  0  0  0  0  0  0  0  0  0
    9.3679  -13.6364   28.7018 O   0  0  0  0  0  0  0  0  0  0  0  0
    8.4471  -15.3641   27.6431 O   0  0  0  0  0  0  0  0  0  0  0  0
  2  1  1  1
  3  4  1  0
  3  2  1  0
  4  5  2  0
  6  7  2  0
  6  2  1  0
  8  4  1  0
  9  6  1  0
 10  9  1  0
 11 10  1  0
 12 11  2  0
 13 11  1  0
 13 17  1  0
 14 13  1  0
 14 15  1  0
 15 16  1  0
 17 16  1  0
 18 19  1  0
 17 18  1  1
 20 18  2  0
M  END
$$$$
