DGP.pdb
     RDKit          3D

 20 20  0  0  1  0  0  0  0  0999 V2000
    8.6742  -18.2435   24.4345 N   0  0  0  0  0  0  0  0  0  0  0  0
    7.5256  -17.7616   25.1307 C   0  0  1  0  0  0  0  0  0  0  0  0
    7.8044  -17.5438   26.5911 C   0  0  0  0  0  0  0  0  0  0  0  0
    8.4110  -18.7193   27.2406 C   0  0  0  0  0  0  0  0  0  0  0  0
    9.3364  -19.3095   26.6262 O   0  0  0  0  0  0  0  0  0  0  0  0
    6.9108  -16.5738   24.4902 C   0  0  0  0  0  0  0  0  0  0  0  0
    6.1858  -15.8144   25.1796 O   0  0  0  0  0  0  0  0  0  0  0  0
    8.0391  -19.2197   28.4713 O   0  0  0  0  0  0  0  0  0  0  0  0
    7.1109  -16.2591   23.1189 N   0  0  0  0  0  0  0  0  0  0  0  0
    7.4425  -14.9538   22.6376 C   0  0  0  0  0  0  0  0  0  0  0  0
    8.5629  -14.9625   21.6538 C   0  0  0  0  0  0  0  0  0  0  0  0
    9.4777  -15.7865   21.9106 O   0  0  0  0  0  0  0  0  0  0  0  0
    8.5618  -14.1032   20.5395 N   0  0  0  0  0  0  0  0  0  0  0  0
    7.3532  -13.3602   20.1148 C   0  0  0  0  0  0  0  0  0  0  0  0
    7.9387  -11.9706   19.8909 C   0  0  0  0  0  0  0  0  0  0  0  0
    9.4358  -12.1634   19.7268 C   0  0  0  0  0  0  0  0  0  0  0  0
    9.5009  -13.6797   19.5737 C   0  0  1  0  0  0  0  0  0  0  0  0
   10.8208  -14.2203   19.5282 C   0  0  0  0  0  0  0  0  0  0  0  0
   11.5068  -14.3132   20.7632 O   0  0  0  0  0  0  0  0  0  0  0  0
   11.4960  -14.6379   18.5613 O   0  0  0  0  0  0  0  0  0  0  0  0
  2  1  1  6
  3  4  1  0
  3  2  1  0
  4  5  2  0
  6  7  2  0
  6  2  1  0
  8  4  1  0
  9  6  1  0
 10  9  1  0
 11 10  1  0
 12 11  2  0
 13 11  1  0
 13 17  1  0
 14 13  1  0
 14 15  1  0
 15 16  1  0
 17 16  1  0
 18 19  1  0
 17 18  1  1
 20 18  2  0
M  END
$$$$
