DGP.pdb
     RDKit          3D

 20 20  0  0  1  0  0  0  0  0999 V2000
    9.4364  -17.6048   14.6661 N   0  0  0  0  0  0  0  0  0  0  0  0
    9.6857  -16.2046   14.5496 C   0  0  1  0  0  0  0  0  0  0  0  0
    9.3850  -15.6936   13.1689 C   0  0  0  0  0  0  0  0  0  0  0  0
   10.2025  -16.3407   12.1274 C   0  0  0  0  0  0  0  0  0  0  0  0
   11.4459  -16.3893   12.3116 O   0  0  0  0  0  0  0  0  0  0  0  0
    9.0200  -15.4037   15.6053 C   0  0  0  0  0  0  0  0  0  0  0  0
    9.2553  -14.1719   15.6774 O   0  0  0  0  0  0  0  0  0  0  0  0
    9.7053  -16.8965   10.9667 O   0  0  0  0  0  0  0  0  0  0  0  0
    8.1211  -15.9782   16.5440 N   0  0  0  0  0  0  0  0  0  0  0  0
    7.5169  -15.2547   17.6196 C   0  0  0  0  0  0  0  0  0  0  0  0
    8.3273  -15.2859   18.8708 C   0  0  0  0  0  0  0  0  0  0  0  0
    8.7439  -16.4273   19.1954 O   0  0  0  0  0  0  0  0  0  0  0  0
    8.5843  -14.1120   19.6028 N   0  0  0  0  0  0  0  0  0  0  0  0
    8.5634  -12.7697   18.9779 C   0  0  0  0  0  0  0  0  0  0  0  0
    7.7360  -11.9950   19.9974 C   0  0  0  0  0  0  0  0  0  0  0  0
    7.7920  -12.7973   21.2854 C   0  0  0  0  0  0  0  0  0  0  0  0
    8.8983  -13.7896   20.9413 C   0  0  1  0  0  0  0  0  0  0  0  0
    9.1191  -14.8029   21.9215 C   0  0  0  0  0  0  0  0  0  0  0  0
   10.4444  -14.9383   22.4007 O   0  0  0  0  0  0  0  0  0  0  0  0
    8.3244  -15.6147   22.4456 O   0  0  0  0  0  0  0  0  0  0  0  0
  2  1  1  6
  3  4  1  0
  3  2  1  0
  4  5  2  0
  6  7  2  0
  6  2  1  0
  8  4  1  0
  9  6  1  0
 10  9  1  0
 11 10  1  0
 12 11  2  0
 13 11  1  0
 13 17  1  0
 14 13  1  0
 14 15  1  0
 15 16  1  0
 17 16  1  0
 18 19  1  0
 17 18  1  1
 20 18  2  0
M  END
$$$$
