DGP.pdb
     RDKit          3D

 20 20  0  0  1  0  0  0  0  0999 V2000
    7.8791  -16.7982   20.9106 N   0  0  0  0  0  0  0  0  0  0  0  0
    7.8532  -15.4606   21.4068 C   0  0  1  0  0  0  0  0  0  0  0  0
    6.9421  -14.5796   20.5994 C   0  0  0  0  0  0  0  0  0  0  0  0
    7.3934  -14.4113   19.2067 C   0  0  0  0  0  0  0  0  0  0  0  0
    7.2542  -15.3898   18.4287 O   0  0  0  0  0  0  0  0  0  0  0  0
    7.5709  -15.3829   22.8605 C   0  0  0  0  0  0  0  0  0  0  0  0
    6.7067  -16.1475   23.3569 O   0  0  0  0  0  0  0  0  0  0  0  0
    7.9566  -13.2610   18.6938 O   0  0  0  0  0  0  0  0  0  0  0  0
    8.2436  -14.4720   23.7192 N   0  0  0  0  0  0  0  0  0  0  0  0
    8.0757  -14.4382   25.1391 C   0  0  0  0  0  0  0  0  0  0  0  0
    9.0493  -15.3057   25.8620 C   0  0  0  0  0  0  0  0  0  0  0  0
    9.0828  -16.4983   25.4641 O   0  0  0  0  0  0  0  0  0  0  0  0
    9.8495  -14.7954   26.9009 N   0  0  0  0  0  0  0  0  0  0  0  0
   10.1256  -13.3481   27.0487 C   0  0  0  0  0  0  0  0  0  0  0  0
    9.8734  -13.1621   28.5406 C   0  0  0  0  0  0  0  0  0  0  0  0
    9.9681  -14.5445   29.1615 C   0  0  0  0  0  0  0  0  0  0  0  0
   10.5650  -15.3271   27.9961 C   0  0  1  0  0  0  0  0  0  0  0  0
   10.6659  -16.7344   28.2098 C   0  0  0  0  0  0  0  0  0  0  0  0
   11.9511  -17.2323   28.5338 O   0  0  0  0  0  0  0  0  0  0  0  0
    9.7933  -17.6295   28.1595 O   0  0  0  0  0  0  0  0  0  0  0  0
  2  1  1  6
  3  4  1  0
  3  2  1  0
  4  5  2  0
  6  7  2  0
  6  2  1  0
  8  4  1  0
  9  6  1  0
 10  9  1  0
 11 10  1  0
 12 11  2  0
 13 11  1  0
 13 17  1  0
 14 13  1  0
 14 15  1  0
 15 16  1  0
 17 16  1  0
 18 19  1  0
 17 18  1  1
 20 18  2  0
M  END
$$$$
