DGP.pdb
     RDKit          3D

 20 20  0  0  1  0  0  0  0  0999 V2000
    7.9177  -18.0638   21.1834 N   0  0  0  0  0  0  0  0  0  0  0  0
    8.6343  -16.8721   20.8633 C   0  0  1  0  0  0  0  0  0  0  0  0
    8.6227  -16.5891   19.3876 C   0  0  0  0  0  0  0  0  0  0  0  0
    9.3116  -17.6263   18.5994 C   0  0  0  0  0  0  0  0  0  0  0  0
   10.4733  -17.9510   18.9559 O   0  0  0  0  0  0  0  0  0  0  0  0
    8.2068  -15.7008   21.6660 C   0  0  0  0  0  0  0  0  0  0  0  0
    8.8136  -14.6100   21.5262 O   0  0  0  0  0  0  0  0  0  0  0  0
    8.7769  -18.2668   17.5007 O   0  0  0  0  0  0  0  0  0  0  0  0
    7.1312  -15.7644   22.5926 N   0  0  0  0  0  0  0  0  0  0  0  0
    6.7235  -14.6724   23.4214 C   0  0  0  0  0  0  0  0  0  0  0  0
    7.5384  -14.5477   24.6638 C   0  0  0  0  0  0  0  0  0  0  0  0
    8.2135  -15.5693   24.9509 O   0  0  0  0  0  0  0  0  0  0  0  0
    7.5273  -13.3661   25.4277 N   0  0  0  0  0  0  0  0  0  0  0  0
    6.9517  -12.1003   24.9185 C   0  0  0  0  0  0  0  0  0  0  0  0
    6.1206  -11.6633   26.1195 C   0  0  0  0  0  0  0  0  0  0  0  0
    6.6748  -12.4180   27.3149 C   0  0  0  0  0  0  0  0  0  0  0  0
    7.9610  -12.9756   26.7136 C   0  0  1  0  0  0  0  0  0  0  0  0
    8.6799  -13.8694   27.5627 C   0  0  0  0  0  0  0  0  0  0  0  0
    8.1091  -15.1504   27.7570 O   0  0  0  0  0  0  0  0  0  0  0  0
    9.7557  -13.7144   28.1822 O   0  0  0  0  0  0  0  0  0  0  0  0
  2  1  1  6
  3  4  1  0
  3  2  1  0
  4  5  2  0
  6  7  2  0
  6  2  1  0
  8  4  1  0
  9  6  1  0
 10  9  1  0
 11 10  1  0
 12 11  2  0
 13 11  1  0
 13 17  1  0
 14 13  1  0
 14 15  1  0
 15 16  1  0
 17 16  1  0
 18 19  1  0
 17 18  1  1
 20 18  2  0
M  END
$$$$
