DGP.pdb
     RDKit          3D

 20 20  0  0  1  0  0  0  0  0999 V2000
    9.0947  -18.4410   21.5430 N   0  0  0  0  0  0  0  0  0  0  0  0
   10.2173  -17.5912   21.7752 C   0  0  1  0  0  0  0  0  0  0  0  0
   10.7022  -16.9428   20.5092 C   0  0  0  0  0  0  0  0  0  0  0  0
   11.4316  -17.8745   19.6309 C   0  0  0  0  0  0  0  0  0  0  0  0
   12.1222  -18.7708   20.1803 O   0  0  0  0  0  0  0  0  0  0  0  0
    9.9899  -16.6079   22.8616 C   0  0  0  0  0  0  0  0  0  0  0  0
   10.8669  -15.7388   23.0926 O   0  0  0  0  0  0  0  0  0  0  0  0
   11.4129  -17.8363   18.2519 O   0  0  0  0  0  0  0  0  0  0  0  0
    8.8119  -16.6103   23.6565 N   0  0  0  0  0  0  0  0  0  0  0  0
    8.5407  -15.6572   24.6878 C   0  0  0  0  0  0  0  0  0  0  0  0
    9.4107  -15.8316   25.8861 C   0  0  0  0  0  0  0  0  0  0  0  0
    9.7580  -17.0192   26.1116 O   0  0  0  0  0  0  0  0  0  0  0  0
    9.7917  -14.7320   26.6771 N   0  0  0  0  0  0  0  0  0  0  0  0
    9.6741  -13.3353   26.1992 C   0  0  0  0  0  0  0  0  0  0  0  0
    9.0317  -12.6734   27.4129 C   0  0  0  0  0  0  0  0  0  0  0  0
    9.2969  -13.5970   28.5886 C   0  0  0  0  0  0  0  0  0  0  0  0
   10.3255  -14.5383   27.9699 C   0  0  1  0  0  0  0  0  0  0  0  0
   10.7009  -15.6400   28.7956 C   0  0  0  0  0  0  0  0  0  0  0  0
    9.7593  -16.6910   28.9110 O   0  0  0  0  0  0  0  0  0  0  0  0
   11.7453  -15.8450   29.4534 O   0  0  0  0  0  0  0  0  0  0  0  0
  2  1  1  6
  3  4  1  0
  3  2  1  0
  4  5  2  0
  6  7  2  0
  6  2  1  0
  8  4  1  0
  9  6  1  0
 10  9  1  0
 11 10  1  0
 12 11  2  0
 13 11  1  0
 13 17  1  0
 14 13  1  0
 14 15  1  0
 15 16  1  0
 17 16  1  0
 18 19  1  0
 17 18  1  1
 20 18  2  0
M  END
$$$$
