DGP.pdb
     RDKit          3D

 20 20  0  0  1  0  0  0  0  0999 V2000
    9.6170  -15.8367   20.3928 N   0  0  0  0  0  0  0  0  0  0  0  0
    9.1465  -16.8755   21.2505 C   0  0  1  0  0  0  0  0  0  0  0  0
   10.2707  -17.7253   21.7724 C   0  0  0  0  0  0  0  0  0  0  0  0
   11.5093  -16.9603   22.0005 C   0  0  0  0  0  0  0  0  0  0  0  0
   11.9107  -16.2138   21.0711 O   0  0  0  0  0  0  0  0  0  0  0  0
    8.2623  -16.3820   22.3339 C   0  0  0  0  0  0  0  0  0  0  0  0
    7.7826  -17.2042   23.1534 O   0  0  0  0  0  0  0  0  0  0  0  0
   12.2604  -17.0023   23.1571 O   0  0  0  0  0  0  0  0  0  0  0  0
    7.9343  -15.0072   22.4822 N   0  0  0  0  0  0  0  0  0  0  0  0
    7.0519  -14.4989   23.4864 C   0  0  0  0  0  0  0  0  0  0  0  0
    7.7120  -14.3341   24.8131 C   0  0  0  0  0  0  0  0  0  0  0  0
    8.4031  -15.3191   25.1792 O   0  0  0  0  0  0  0  0  0  0  0  0
    7.5514  -13.1565   25.5664 N   0  0  0  0  0  0  0  0  0  0  0  0
    7.0917  -11.8861   24.9599 C   0  0  0  0  0  0  0  0  0  0  0  0
    6.0387  -11.4527   25.9735 C   0  0  0  0  0  0  0  0  0  0  0  0
    6.3416  -12.2154   27.2510 C   0  0  0  0  0  0  0  0  0  0  0  0
    7.7207  -12.7742   26.9151 C   0  0  1  0  0  0  0  0  0  0  0  0
    8.2537  -13.6748   27.8853 C   0  0  0  0  0  0  0  0  0  0  0  0
    9.2168  -13.1433   28.7767 O   0  0  0  0  0  0  0  0  0  0  0  0
    8.0120  -14.8849   28.0915 O   0  0  0  0  0  0  0  0  0  0  0  0
  2  1  1  1
  3  4  1  0
  3  2  1  0
  4  5  2  0
  6  7  2  0
  6  2  1  0
  8  4  1  0
  9  6  1  0
 10  9  1  0
 11 10  1  0
 12 11  2  0
 13 11  1  0
 13 17  1  0
 14 13  1  0
 14 15  1  0
 15 16  1  0
 17 16  1  0
 18 19  1  0
 17 18  1  1
 20 18  2  0
M  END
$$$$
