DGP.pdb
     RDKit          3D

 20 20  0  0  1  0  0  0  0  0999 V2000
    9.2589  -16.2786   20.3952 N   0  0  0  0  0  0  0  0  0  0  0  0
    9.1796  -17.2626   21.4256 C   0  0  1  0  0  0  0  0  0  0  0  0
   10.5305  -17.8212   21.7738 C   0  0  0  0  0  0  0  0  0  0  0  0
   11.3953  -18.0069   20.5952 C   0  0  0  0  0  0  0  0  0  0  0  0
   11.0581  -18.8846   19.7597 O   0  0  0  0  0  0  0  0  0  0  0  0
    8.4363  -16.7968   22.6212 C   0  0  0  0  0  0  0  0  0  0  0  0
    8.4205  -17.5173   23.6500 O   0  0  0  0  0  0  0  0  0  0  0  0
   12.5462  -17.2899   20.3407 O   0  0  0  0  0  0  0  0  0  0  0  0
    7.7370  -15.5599   22.6490 N   0  0  0  0  0  0  0  0  0  0  0  0
    6.9532  -15.1086   23.7569 C   0  0  0  0  0  0  0  0  0  0  0  0
    7.7807  -14.6949   24.9262 C   0  0  0  0  0  0  0  0  0  0  0  0
    8.6002  -15.5638   25.3202 O   0  0  0  0  0  0  0  0  0  0  0  0
    7.6286  -13.4260   25.5149 N   0  0  0  0  0  0  0  0  0  0  0  0
    6.9432  -12.3102   24.8235 C   0  0  0  0  0  0  0  0  0  0  0  0
    6.0381  -11.7989   25.9385 C   0  0  0  0  0  0  0  0  0  0  0  0
    6.6309  -12.3178   27.2365 C   0  0  0  0  0  0  0  0  0  0  0  0
    7.9835  -12.8172   26.7386 C   0  0  1  0  0  0  0  0  0  0  0  0
    8.7641  -13.5043   27.7159 C   0  0  0  0  0  0  0  0  0  0  0  0
    8.4573  -14.8713   27.9204 O   0  0  0  0  0  0  0  0  0  0  0  0
    9.6977  -13.0987   28.4433 O   0  0  0  0  0  0  0  0  0  0  0  0
  2  1  1  6
  3  4  1  0
  3  2  1  0
  4  5  2  0
  6  7  2  0
  6  2  1  0
  8  4  1  0
  9  6  1  0
 10  9  1  0
 11 10  1  0
 12 11  2  0
 13 11  1  0
 13 17  1  0
 14 13  1  0
 14 15  1  0
 15 16  1  0
 17 16  1  0
 18 19  1  0
 17 18  1  1
 20 18  2  0
M  END
$$$$
