KCF.pdb
     RDKit          3D

 27 27  0  0  1  0  0  0  0  0999 V2000
    8.7516  -16.3728   18.9812 N   0  0  0  0  0  0  0  0  0  0  0  0
    8.5157  -17.5178   19.8319 C   0  0  1  0  0  0  0  0  0  0  0  0
    9.7643  -18.3075   19.9573 C   0  0  0  0  0  0  0  0  0  0  0  0
   10.8023  -17.7866   19.0033 C   0  0  0  0  0  0  0  0  0  0  0  0
   11.5126  -18.8880   18.2790 C   0  0  0  0  0  0  0  0  0  0  0  0
   12.6723  -18.3084   17.4831 C   0  0  0  0  0  0  0  0  0  0  0  0
   13.9407  -18.8362   17.8969 N   0  0  0  0  0  0  0  0  0  0  0  0
    7.9722  -17.0891   21.1643 C   0  0  0  0  0  0  0  0  0  0  0  0
    8.1854  -15.9114   21.5433 O   0  0  0  0  0  0  0  0  0  0  0  0
    7.2334  -17.9362   22.0180 N   0  0  0  0  0  0  0  0  0  0  0  0
    6.6507  -17.5532   23.2638 C   0  0  1  0  0  0  0  0  0  0  0  0
    5.5876  -18.5025   23.7502 C   0  0  0  0  0  0  0  0  0  0  0  0
    6.3790  -20.0522   24.2594 S   0  0  0  0  0  0  0  0  0  0  0  0
    7.6570  -17.3573   24.3400 C   0  0  0  0  0  0  0  0  0  0  0  0
    8.7865  -17.8924   24.1962 O   0  0  0  0  0  0  0  0  0  0  0  0
    7.4177  -16.6089   25.5071 N   0  0  0  0  0  0  0  0  0  0  0  0
    8.3971  -16.5061   26.6039 C   0  0  1  0  0  0  0  0  0  0  0  0
    8.1508  -15.2778   27.4162 C   0  0  0  0  0  0  0  0  0  0  0  0
    7.7716  -14.1314   26.5737 C   0  0  0  0  0  0  0  0  0  0  0  0
    8.7169  -13.3823   25.9170 C   0  0  0  0  0  0  0  0  0  0  0  0
    8.3935  -12.3064   25.1137 C   0  0  0  0  0  0  0  0  0  0  0  0
    7.0722  -11.9827   24.9740 C   0  0  0  0  0  0  0  0  0  0  0  0
    6.0851  -12.7019   25.6115 C   0  0  0  0  0  0  0  0  0  0  0  0
    6.4515  -13.7680   26.4035 C   0  0  0  0  0  0  0  0  0  0  0  0
    8.3198  -17.7179   27.4405 C   0  0  0  0  0  0  0  0  0  0  0  0
    7.4450  -18.6053   27.3486 O   0  0  0  0  0  0  0  0  0  0  0  0
    9.2980  -17.9024   28.4200 O   0  0  0  0  0  0  0  0  0  0  0  0
  2  8  1  0
  2  1  1  6
  3  2  1  0
  4  3  1  0
  5  6  1  0
  5  4  1  0
  7  6  1  0
  8  9  2  0
 10 11  1  0
 10  8  1  0
 12 13  1  0
 11 12  1  1
 14 15  2  0
 14 11  1  0
 16 14  1  0
 17 25  1  0
 17 16  1  0
 17 18  1  1
 19 18  1  0
 20 19  2  0
 21 20  1  0
 22 23  1  0
 22 21  2  0
 23 24  2  0
 24 19  1  0
 25 27  1  0
 26 25  2  0
M  END
$$$$
