KCF.pdb
     RDKit          3D

 27 27  0  0  1  0  0  0  0  0999 V2000
    9.5791  -15.8247   19.9583 N   0  0  0  0  0  0  0  0  0  0  0  0
    9.0113  -14.8515   20.8643 C   0  0  1  0  0  0  0  0  0  0  0  0
    7.7933  -14.2618   20.2584 C   0  0  0  0  0  0  0  0  0  0  0  0
    7.7829  -14.5093   18.7761 C   0  0  0  0  0  0  0  0  0  0  0  0
    7.9214  -13.2439   17.9873 C   0  0  0  0  0  0  0  0  0  0  0  0
    7.9126  -13.5674   16.5009 C   0  0  0  0  0  0  0  0  0  0  0  0
    8.0577  -12.3975   15.6832 N   0  0  0  0  0  0  0  0  0  0  0  0
    8.7433  -15.4665   22.2076 C   0  0  0  0  0  0  0  0  0  0  0  0
    7.7667  -15.0418   22.8726 O   0  0  0  0  0  0  0  0  0  0  0  0
    9.5280  -16.4973   22.7676 N   0  0  0  0  0  0  0  0  0  0  0  0
    9.3539  -17.0573   24.0694 C   0  0  1  0  0  0  0  0  0  0  0  0
    9.9835  -18.4157   24.2314 C   0  0  0  0  0  0  0  0  0  0  0  0
   11.7338  -18.3052   23.7717 S   0  0  0  0  0  0  0  0  0  0  0  0
    9.8372  -16.1647   25.1551 C   0  0  0  0  0  0  0  0  0  0  0  0
   10.7664  -15.3598   24.8876 O   0  0  0  0  0  0  0  0  0  0  0  0
    9.3150  -16.1696   26.4616 N   0  0  0  0  0  0  0  0  0  0  0  0
    9.8072  -15.2705   27.5210 C   0  0  1  0  0  0  0  0  0  0  0  0
    8.6749  -14.5264   28.1480 C   0  0  0  0  0  0  0  0  0  0  0  0
    8.0406  -13.5950   27.2003 C   0  0  0  0  0  0  0  0  0  0  0  0
    8.6493  -12.4188   26.8371 C   0  0  0  0  0  0  0  0  0  0  0  0
    8.0846  -11.5281   25.9453 C   0  0  0  0  0  0  0  0  0  0  0  0
    6.8668  -11.8417   25.4078 C   0  0  0  0  0  0  0  0  0  0  0  0
    6.2141  -13.0088   25.7394 C   0  0  0  0  0  0  0  0  0  0  0  0
    6.8131  -13.8695   26.6330 C   0  0  0  0  0  0  0  0  0  0  0  0
   10.5426  -16.0599   28.5262 C   0  0  0  0  0  0  0  0  0  0  0  0
   11.1335  -15.5913   29.5225 O   0  0  0  0  0  0  0  0  0  0  0  0
   10.5911  -17.4462   28.3644 O   0  0  0  0  0  0  0  0  0  0  0  0
  2  8  1  0
  2  1  1  6
  3  2  1  0
  4  3  1  0
  5  6  1  0
  5  4  1  0
  7  6  1  0
  8  9  2  0
 10 11  1  0
 10  8  1  0
 12 13  1  0
 11 12  1  6
 14 15  2  0
 14 11  1  0
 16 14  1  0
 17 25  1  0
 17 16  1  0
 17 18  1  1
 19 18  1  0
 20 19  2  0
 21 20  1  0
 22 23  1  0
 22 21  2  0
 23 24  2  0
 24 19  1  0
 25 27  1  0
 26 25  2  0
M  END
$$$$
