KCF.pdb
     RDKit          3D

 27 27  0  0  1  0  0  0  0  0999 V2000
    5.9247  -20.2100   20.6479 N   0  0  0  0  0  0  0  0  0  0  0  0
    5.6659  -19.2824   21.7263 C   0  0  1  0  0  0  0  0  0  0  0  0
    5.6148  -20.0191   23.0120 C   0  0  0  0  0  0  0  0  0  0  0  0
    4.2146  -20.4959   23.2782 C   0  0  0  0  0  0  0  0  0  0  0  0
    3.8169  -21.6236   22.3767 C   0  0  0  0  0  0  0  0  0  0  0  0
    4.0478  -22.9487   23.0873 C   0  0  0  0  0  0  0  0  0  0  0  0
    2.8429  -23.4879   23.6493 N   0  0  0  0  0  0  0  0  0  0  0  0
    6.6851  -18.1799   21.7374 C   0  0  0  0  0  0  0  0  0  0  0  0
    7.8686  -18.4663   22.0429 O   0  0  0  0  0  0  0  0  0  0  0  0
    6.3887  -16.8362   21.4233 N   0  0  0  0  0  0  0  0  0  0  0  0
    7.2827  -15.7333   21.5738 C   0  0  1  0  0  0  0  0  0  0  0  0
    6.7400  -14.4377   21.0311 C   0  0  0  0  0  0  0  0  0  0  0  0
    8.0860  -13.2249   20.9637 S   0  0  0  0  0  0  0  0  0  0  0  0
    7.7191  -15.5269   22.9796 C   0  0  0  0  0  0  0  0  0  0  0  0
    6.8347  -15.5001   23.8741 O   0  0  0  0  0  0  0  0  0  0  0  0
    9.0620  -15.3603   23.3648 N   0  0  0  0  0  0  0  0  0  0  0  0
    9.4672  -15.1146   24.7606 C   0  0  1  0  0  0  0  0  0  0  0  0
    8.2874  -15.1905   25.6724 C   0  0  0  0  0  0  0  0  0  0  0  0
    7.7931  -13.8533   26.0403 C   0  0  0  0  0  0  0  0  0  0  0  0
    8.6303  -12.7652   26.0742 C   0  0  0  0  0  0  0  0  0  0  0  0
    8.1963  -11.4971   26.4075 C   0  0  0  0  0  0  0  0  0  0  0  0
    6.8743  -11.3303   26.7153 C   0  0  0  0  0  0  0  0  0  0  0  0
    5.9932  -12.3891   26.6964 C   0  0  0  0  0  0  0  0  0  0  0  0
    6.4679  -13.6375   26.3583 C   0  0  0  0  0  0  0  0  0  0  0  0
   10.4988  -16.0946   25.1475 C   0  0  0  0  0  0  0  0  0  0  0  0
   11.7260  -15.9690   24.9492 O   0  0  0  0  0  0  0  0  0  0  0  0
   10.0848  -17.2639   25.7893 O   0  0  0  0  0  0  0  0  0  0  0  0
  2  8  1  0
  2  1  1  6
  3  2  1  0
  4  3  1  0
  5  6  1  0
  5  4  1  0
  7  6  1  0
  8  9  2  0
 10 11  1  0
 10  8  1  0
 12 13  1  0
 11 12  1  1
 14 15  2  0
 14 11  1  0
 16 14  1  0
 17 25  1  0
 17 16  1  0
 17 18  1  1
 19 18  1  0
 20 19  2  0
 21 20  1  0
 22 23  1  0
 22 21  2  0
 23 24  2  0
 24 19  1  0
 25 27  1  0
 26 25  2  0
M  END
$$$$
