KCF.pdb
     RDKit          3D

 27 27  0  0  1  0  0  0  0  0999 V2000
    9.8468  -13.8810   19.0876 N   0  0  0  0  0  0  0  0  0  0  0  0
    8.6835  -13.3528   19.7647 C   0  0  1  0  0  0  0  0  0  0  0  0
    7.6390  -13.0180   18.7669 C   0  0  0  0  0  0  0  0  0  0  0  0
    7.5340  -14.1129   17.7428 C   0  0  0  0  0  0  0  0  0  0  0  0
    8.2777  -13.7876   16.4843 C   0  0  0  0  0  0  0  0  0  0  0  0
    7.8723  -14.7608   15.3877 C   0  0  0  0  0  0  0  0  0  0  0  0
    8.6669  -14.6145   14.2021 N   0  0  0  0  0  0  0  0  0  0  0  0
    8.1922  -14.3136   20.8087 C   0  0  0  0  0  0  0  0  0  0  0  0
    7.1028  -14.0650   21.3810 O   0  0  0  0  0  0  0  0  0  0  0  0
    8.8863  -15.4836   21.1849 N   0  0  0  0  0  0  0  0  0  0  0  0
    8.4553  -16.4219   22.1709 C   0  0  1  0  0  0  0  0  0  0  0  0
    8.7591  -17.8534   21.8156 C   0  0  0  0  0  0  0  0  0  0  0  0
   10.4448  -17.9444   21.1543 S   0  0  0  0  0  0  0  0  0  0  0  0
    8.9960  -16.1315   23.5247 C   0  0  0  0  0  0  0  0  0  0  0  0
   10.1061  -15.5447   23.6034 O   0  0  0  0  0  0  0  0  0  0  0  0
    8.3375  -16.4754   24.7196 N   0  0  0  0  0  0  0  0  0  0  0  0
    8.8860  -16.1623   26.0515 C   0  0  1  0  0  0  0  0  0  0  0  0
    7.8275  -15.5907   26.9357 C   0  0  0  0  0  0  0  0  0  0  0  0
    7.5001  -14.2025   26.5704 C   0  0  0  0  0  0  0  0  0  0  0  0
    8.3960  -13.1804   26.7672 C   0  0  0  0  0  0  0  0  0  0  0  0
    8.1225  -11.8697   26.4283 C   0  0  0  0  0  0  0  0  0  0  0  0
    6.9039  -11.5900   25.8741 C   0  0  0  0  0  0  0  0  0  0  0  0
    5.9698  -12.5789   25.6561 C   0  0  0  0  0  0  0  0  0  0  0  0
    6.2836  -13.8733   26.0087 C   0  0  0  0  0  0  0  0  0  0  0  0
    9.4632  -17.3851   26.6396 C   0  0  0  0  0  0  0  0  0  0  0  0
   10.0701  -17.4460   27.7302 O   0  0  0  0  0  0  0  0  0  0  0  0
    9.3282  -18.5809   25.9309 O   0  0  0  0  0  0  0  0  0  0  0  0
  2  8  1  0
  2  1  1  6
  3  2  1  0
  4  3  1  0
  5  6  1  0
  5  4  1  0
  7  6  1  0
  8  9  2  0
 10 11  1  0
 10  8  1  0
 12 13  1  0
 11 12  1  6
 14 15  2  0
 14 11  1  0
 16 14  1  0
 17 25  1  0
 17 16  1  0
 17 18  1  1
 19 18  1  0
 20 19  2  0
 21 20  1  0
 22 23  1  0
 22 21  2  0
 23 24  2  0
 24 19  1  0
 25 27  1  0
 26 25  2  0
M  END
$$$$
