KCF.pdb
     RDKit          3D

 27 27  0  0  1  0  0  0  0  0999 V2000
    8.0672  -16.6852   18.8155 N   0  0  0  0  0  0  0  0  0  0  0  0
    8.0388  -15.4167   19.5088 C   0  0  1  0  0  0  0  0  0  0  0  0
    7.1437  -14.4788   18.7893 C   0  0  0  0  0  0  0  0  0  0  0  0
    7.3647  -14.5893   17.3069 C   0  0  0  0  0  0  0  0  0  0  0  0
    8.4382  -13.6649   16.8216 C   0  0  0  0  0  0  0  0  0  0  0  0
    8.6399  -13.8599   15.3264 C   0  0  0  0  0  0  0  0  0  0  0  0
    7.4423  -13.6177   14.5744 N   0  0  0  0  0  0  0  0  0  0  0  0
    7.6400  -15.6025   20.9443 C   0  0  0  0  0  0  0  0  0  0  0  0
    7.5552  -14.5852   21.6751 O   0  0  0  0  0  0  0  0  0  0  0  0
    7.3540  -16.8584   21.5214 N   0  0  0  0  0  0  0  0  0  0  0  0
    7.0576  -17.0893   22.8988 C   0  0  1  0  0  0  0  0  0  0  0  0
    6.4727  -18.4501   23.1706 C   0  0  0  0  0  0  0  0  0  0  0  0
    6.2782  -18.6535   24.9616 S   0  0  0  0  0  0  0  0  0  0  0  0
    8.2291  -16.8770   23.7886 C   0  0  0  0  0  0  0  0  0  0  0  0
    9.2998  -17.4750   23.5075 O   0  0  0  0  0  0  0  0  0  0  0  0
    8.2076  -16.0471   24.9246 N   0  0  0  0  0  0  0  0  0  0  0  0
    9.4089  -15.7685   25.7321 C   0  0  1  0  0  0  0  0  0  0  0  0
    9.6168  -14.2971   25.8762 C   0  0  0  0  0  0  0  0  0  0  0  0
    8.3970  -13.6147   26.3391 C   0  0  0  0  0  0  0  0  0  0  0  0
    8.2173  -13.2888   27.6611 C   0  0  0  0  0  0  0  0  0  0  0  0
    7.0888  -12.6422   28.1258 C   0  0  0  0  0  0  0  0  0  0  0  0
    6.1155  -12.3180   27.2214 C   0  0  0  0  0  0  0  0  0  0  0  0
    6.2469  -12.6228   25.8843 C   0  0  0  0  0  0  0  0  0  0  0  0
    7.3889  -13.2682   25.4631 C   0  0  0  0  0  0  0  0  0  0  0  0
    9.2697  -16.4147   27.0502 C   0  0  0  0  0  0  0  0  0  0  0  0
   10.1176  -16.3767   27.9672 O   0  0  0  0  0  0  0  0  0  0  0  0
    8.0993  -17.1313   27.3092 O   0  0  0  0  0  0  0  0  0  0  0  0
  2  8  1  0
  2  1  1  6
  3  2  1  0
  4  3  1  0
  5  6  1  0
  5  4  1  0
  7  6  1  0
  8  9  2  0
 10 11  1  0
 10  8  1  0
 12 13  1  0
 11 12  1  6
 14 15  2  0
 14 11  1  0
 16 14  1  0
 17 25  1  0
 17 16  1  0
 17 18  1  1
 19 18  1  0
 20 19  2  0
 21 20  1  0
 22 23  1  0
 22 21  2  0
 23 24  2  0
 24 19  1  0
 25 27  1  0
 26 25  2  0
M  END
$$$$
