KCF.pdb
     RDKit          3D

 27 27  0  0  1  0  0  0  0  0999 V2000
    5.4840  -18.4158   21.9074 N   0  0  0  0  0  0  0  0  0  0  0  0
    5.8275  -17.8413   23.1890 C   0  0  1  0  0  0  0  0  0  0  0  0
    6.3426  -18.9035   24.0861 C   0  0  0  0  0  0  0  0  0  0  0  0
    6.5799  -20.1666   23.3071 C   0  0  0  0  0  0  0  0  0  0  0  0
    8.0254  -20.3628   22.9687 C   0  0  0  0  0  0  0  0  0  0  0  0
    8.2112  -21.7136   22.2941 C   0  0  0  0  0  0  0  0  0  0  0  0
    9.5472  -21.9055   21.8074 N   0  0  0  0  0  0  0  0  0  0  0  0
    6.8004  -16.7098   23.0225 C   0  0  0  0  0  0  0  0  0  0  0  0
    7.6146  -16.7603   22.0681 O   0  0  0  0  0  0  0  0  0  0  0  0
    6.8528  -15.5895   23.8794 N   0  0  0  0  0  0  0  0  0  0  0  0
    7.7927  -14.5188   23.7870 C   0  0  1  0  0  0  0  0  0  0  0  0
    7.3480  -13.2629   24.4890 C   0  0  0  0  0  0  0  0  0  0  0  0
    6.4339  -13.7244   25.9852 S   0  0  0  0  0  0  0  0  0  0  0  0
    9.1479  -14.8921   24.2699 C   0  0  0  0  0  0  0  0  0  0  0  0
   10.0519  -14.0182   24.2247 O   0  0  0  0  0  0  0  0  0  0  0  0
    9.4753  -16.1645   24.7733 N   0  0  0  0  0  0  0  0  0  0  0  0
   10.8056  -16.4885   25.3193 C   0  0  1  0  0  0  0  0  0  0  0  0
   10.6944  -16.9601   26.7315 C   0  0  0  0  0  0  0  0  0  0  0  0
   10.2862  -15.8759   27.6401 C   0  0  0  0  0  0  0  0  0  0  0  0
   11.1344  -15.3954   28.6074 C   0  0  0  0  0  0  0  0  0  0  0  0
   10.7847  -14.3747   29.4697 C   0  0  0  0  0  0  0  0  0  0  0  0
    9.5377  -13.8272   29.3454 C   0  0  0  0  0  0  0  0  0  0  0  0
    8.6490  -14.2732   28.3918 C   0  0  0  0  0  0  0  0  0  0  0  0
    9.0385  -15.2935   27.5518 C   0  0  0  0  0  0  0  0  0  0  0  0
   11.4449  -17.5098   24.4692 C   0  0  0  0  0  0  0  0  0  0  0  0
   12.6307  -17.8916   24.5656 O   0  0  0  0  0  0  0  0  0  0  0  0
   10.6738  -18.1081   23.4702 O   0  0  0  0  0  0  0  0  0  0  0  0
  2  8  1  0
  2  1  1  6
  3  2  1  0
  4  3  1  0
  5  6  1  0
  5  4  1  0
  7  6  1  0
  8  9  2  0
 10 11  1  0
 10  8  1  0
 12 13  1  0
 11 12  1  1
 14 15  2  0
 14 11  1  0
 16 14  1  0
 17 25  1  0
 17 16  1  0
 17 18  1  1
 19 18  1  0
 20 19  2  0
 21 20  1  0
 22 23  1  0
 22 21  2  0
 23 24  2  0
 24 19  1  0
 25 27  1  0
 26 25  2  0
M  END
$$$$
