KCF.pdb
     RDKit          3D

 27 27  0  0  1  0  0  0  0  0999 V2000
    6.4446  -19.4588   19.0455 N   0  0  0  0  0  0  0  0  0  0  0  0
    6.0304  -19.0120   20.3566 C   0  0  1  0  0  0  0  0  0  0  0  0
    5.6625  -20.1845   21.1863 C   0  0  0  0  0  0  0  0  0  0  0  0
    5.8259  -21.4500   20.3923 C   0  0  0  0  0  0  0  0  0  0  0  0
    4.5546  -21.8675   19.7199 C   0  0  0  0  0  0  0  0  0  0  0  0
    4.7147  -23.2711   19.1556 C   0  0  0  0  0  0  0  0  0  0  0  0
    4.4583  -24.2890   20.1336 N   0  0  0  0  0  0  0  0  0  0  0  0
    7.0974  -18.1702   20.9948 C   0  0  0  0  0  0  0  0  0  0  0  0
    7.9088  -18.7276   21.7741 O   0  0  0  0  0  0  0  0  0  0  0  0
    7.2415  -16.7845   20.7687 N   0  0  0  0  0  0  0  0  0  0  0  0
    8.1481  -15.9224   21.4566 C   0  0  1  0  0  0  0  0  0  0  0  0
    8.3209  -14.5790   20.7985 C   0  0  0  0  0  0  0  0  0  0  0  0
    6.6887  -13.8171   20.5922 S   0  0  0  0  0  0  0  0  0  0  0  0
    7.7884  -15.7216   22.8847 C   0  0  0  0  0  0  0  0  0  0  0  0
    6.6736  -15.1996   23.1447 O   0  0  0  0  0  0  0  0  0  0  0  0
    8.6225  -16.0818   23.9590 N   0  0  0  0  0  0  0  0  0  0  0  0
    8.3295  -15.7122   25.3556 C   0  0  1  0  0  0  0  0  0  0  0  0
    6.9531  -16.1467   25.7374 C   0  0  0  0  0  0  0  0  0  0  0  0
    6.7769  -17.6008   25.5877 C   0  0  0  0  0  0  0  0  0  0  0  0
    7.3381  -18.4849   26.4763 C   0  0  0  0  0  0  0  0  0  0  0  0
    7.1852  -19.8533   26.3681 C   0  0  0  0  0  0  0  0  0  0  0  0
    6.4412  -20.3366   25.3274 C   0  0  0  0  0  0  0  0  0  0  0  0
    5.8573  -19.4924   24.4086 C   0  0  0  0  0  0  0  0  0  0  0  0
    6.0349  -18.1338   24.5537 C   0  0  0  0  0  0  0  0  0  0  0  0
    9.3404  -16.3182   26.2416 C   0  0  0  0  0  0  0  0  0  0  0  0
    9.3879  -16.1833   27.4829 O   0  0  0  0  0  0  0  0  0  0  0  0
   10.3323  -17.1106   25.6597 O   0  0  0  0  0  0  0  0  0  0  0  0
  2  8  1  0
  2  1  1  6
  3  2  1  0
  4  3  1  0
  5  6  1  0
  5  4  1  0
  7  6  1  0
  8  9  2  0
 10 11  1  0
 10  8  1  0
 12 13  1  0
 11 12  1  6
 14 15  2  0
 14 11  1  0
 16 14  1  0
 17 25  1  0
 17 16  1  0
 17 18  1  1
 19 18  1  0
 20 19  2  0
 21 20  1  0
 22 23  1  0
 22 21  2  0
 23 24  2  0
 24 19  1  0
 25 27  1  0
 26 25  2  0
M  END
$$$$
