KCF.pdb
     RDKit          3D

 27 27  0  0  1  0  0  0  0  0999 V2000
    7.9915  -17.1442   19.9496 N   0  0  0  0  0  0  0  0  0  0  0  0
    8.5713  -16.1093   20.7762 C   0  0  1  0  0  0  0  0  0  0  0  0
    7.8792  -14.8236   20.5188 C   0  0  0  0  0  0  0  0  0  0  0  0
    7.9637  -14.4754   19.0592 C   0  0  0  0  0  0  0  0  0  0  0  0
    8.7582  -13.2293   18.8170 C   0  0  0  0  0  0  0  0  0  0  0  0
    8.7838  -12.9238   17.3270 C   0  0  0  0  0  0  0  0  0  0  0  0
    7.5301  -12.4161   16.8486 N   0  0  0  0  0  0  0  0  0  0  0  0
    8.5333  -16.5007   22.2253 C   0  0  0  0  0  0  0  0  0  0  0  0
    7.4334  -16.8510   22.7188 O   0  0  0  0  0  0  0  0  0  0  0  0
    9.6661  -16.4976   23.0673 N   0  0  0  0  0  0  0  0  0  0  0  0
    9.7131  -17.0197   24.3953 C   0  0  1  0  0  0  0  0  0  0  0  0
   10.5955  -18.2317   24.5367 C   0  0  0  0  0  0  0  0  0  0  0  0
   10.2363  -19.3758   23.1769 S   0  0  0  0  0  0  0  0  0  0  0  0
   10.1149  -16.0051   25.4044 C   0  0  0  0  0  0  0  0  0  0  0  0
   11.1232  -15.2943   25.1575 O   0  0  0  0  0  0  0  0  0  0  0  0
    9.4326  -15.7958   26.6170 N   0  0  0  0  0  0  0  0  0  0  0  0
    9.9189  -14.8714   27.6570 C   0  0  1  0  0  0  0  0  0  0  0  0
    8.7842  -14.1061   28.2535 C   0  0  0  0  0  0  0  0  0  0  0  0
    8.0300  -13.3606   27.2322 C   0  0  0  0  0  0  0  0  0  0  0  0
    6.6895  -13.5802   27.0302 C   0  0  0  0  0  0  0  0  0  0  0  0
    5.9523  -12.8924   26.0863 C   0  0  0  0  0  0  0  0  0  0  0  0
    6.5958  -11.9552   25.3260 C   0  0  0  0  0  0  0  0  0  0  0  0
    7.9392  -11.6972   25.4889 C   0  0  0  0  0  0  0  0  0  0  0  0
    8.6371  -12.4060   26.4422 C   0  0  0  0  0  0  0  0  0  0  0  0
   10.6413  -15.6372   28.6895 C   0  0  0  0  0  0  0  0  0  0  0  0
   11.2233  -15.1453   29.6798 O   0  0  0  0  0  0  0  0  0  0  0  0
   10.6871  -17.0273   28.5634 O   0  0  0  0  0  0  0  0  0  0  0  0
  2  8  1  0
  2  1  1  6
  3  2  1  0
  4  3  1  0
  5  6  1  0
  5  4  1  0
  7  6  1  0
  8  9  2  0
 10 11  1  0
 10  8  1  0
 12 13  1  0
 11 12  1  6
 14 15  2  0
 14 11  1  0
 16 14  1  0
 17 25  1  0
 17 16  1  0
 17 18  1  1
 19 18  1  0
 20 19  2  0
 21 20  1  0
 22 23  1  0
 22 21  2  0
 23 24  2  0
 24 19  1  0
 25 27  1  0
 26 25  2  0
M  END
$$$$
