KCF.pdb
     RDKit          3D

 27 27  0  0  1  0  0  0  0  0999 V2000
    9.7952  -16.5646   19.5119 N   0  0  0  0  0  0  0  0  0  0  0  0
    8.4837  -16.0440   19.8267 C   0  0  1  0  0  0  0  0  0  0  0  0
    7.4886  -16.6022   18.8797 C   0  0  0  0  0  0  0  0  0  0  0  0
    8.1181  -16.8054   17.5302 C   0  0  0  0  0  0  0  0  0  0  0  0
    7.1413  -17.3211   16.5190 C   0  0  0  0  0  0  0  0  0  0  0  0
    7.8641  -17.6009   15.2101 C   0  0  0  0  0  0  0  0  0  0  0  0
    7.0063  -18.1939   14.2247 N   0  0  0  0  0  0  0  0  0  0  0  0
    8.1299  -16.3210   21.2594 C   0  0  0  0  0  0  0  0  0  0  0  0
    6.9778  -16.0200   21.6571 O   0  0  0  0  0  0  0  0  0  0  0  0
    9.0203  -16.9021   22.1876 N   0  0  0  0  0  0  0  0  0  0  0  0
    8.6939  -17.2775   23.5258 C   0  0  1  0  0  0  0  0  0  0  0  0
    8.9513  -18.7308   23.8251 C   0  0  0  0  0  0  0  0  0  0  0  0
   10.7268  -19.0553   23.6534 S   0  0  0  0  0  0  0  0  0  0  0  0
    9.3784  -16.4421   24.5470 C   0  0  0  0  0  0  0  0  0  0  0  0
   10.5000  -15.9531   24.2541 O   0  0  0  0  0  0  0  0  0  0  0  0
    8.8435  -16.1683   25.8193 N   0  0  0  0  0  0  0  0  0  0  0  0
    9.5957  -15.4490   26.8631 C   0  0  1  0  0  0  0  0  0  0  0  0
    8.6764  -14.6203   27.6979 C   0  0  0  0  0  0  0  0  0  0  0  0
    7.9927  -13.5889   26.9000 C   0  0  0  0  0  0  0  0  0  0  0  0
    6.6723  -13.7173   26.5448 C   0  0  0  0  0  0  0  0  0  0  0  0
    6.0005  -12.7647   25.8040 C   0  0  0  0  0  0  0  0  0  0  0  0
    6.6902  -11.6504   25.4130 C   0  0  0  0  0  0  0  0  0  0  0  0
    8.0161  -11.4736   25.7429 C   0  0  0  0  0  0  0  0  0  0  0  0
    8.6482  -12.4485   26.4833 C   0  0  0  0  0  0  0  0  0  0  0  0
   10.3299  -16.4228   27.6921 C   0  0  0  0  0  0  0  0  0  0  0  0
   10.2055  -17.6645   27.6297 O   0  0  0  0  0  0  0  0  0  0  0  0
   11.2424  -15.9313   28.6282 O   0  0  0  0  0  0  0  0  0  0  0  0
  2  8  1  0
  2  1  1  6
  3  2  1  0
  4  3  1  0
  5  6  1  0
  5  4  1  0
  7  6  1  0
  8  9  2  0
 10 11  1  0
 10  8  1  0
 12 13  1  0
 11 12  1  1
 14 15  2  0
 14 11  1  0
 16 14  1  0
 17 25  1  0
 17 16  1  0
 17 18  1  1
 19 18  1  0
 20 19  2  0
 21 20  1  0
 22 23  1  0
 22 21  2  0
 23 24  2  0
 24 19  1  0
 25 27  1  0
 26 25  2  0
M  END
$$$$
