KCF.pdb
     RDKit          3D

 27 27  0  0  1  0  0  0  0  0999 V2000
    9.4666  -19.3395   19.6971 N   0  0  0  0  0  0  0  0  0  0  0  0
    8.4795  -18.6815   20.5237 C   0  0  1  0  0  0  0  0  0  0  0  0
    8.0711  -19.5877   21.6240 C   0  0  0  0  0  0  0  0  0  0  0  0
    9.2423  -20.4164   22.0715 C   0  0  0  0  0  0  0  0  0  0  0  0
    8.8495  -21.4670   23.0637 C   0  0  0  0  0  0  0  0  0  0  0  0
   10.0733  -22.2827   23.4524 C   0  0  0  0  0  0  0  0  0  0  0  0
   10.0877  -23.5788   22.8372 N   0  0  0  0  0  0  0  0  0  0  0  0
    8.9976  -17.3654   21.0274 C   0  0  0  0  0  0  0  0  0  0  0  0
   10.2394  -17.2165   21.1356 O   0  0  0  0  0  0  0  0  0  0  0  0
    8.1667  -16.2826   21.3873 N   0  0  0  0  0  0  0  0  0  0  0  0
    8.6173  -15.0183   21.8739 C   0  0  1  0  0  0  0  0  0  0  0  0
    7.6924  -13.8781   21.5391 C   0  0  0  0  0  0  0  0  0  0  0  0
    5.9930  -14.3711   21.9343 S   0  0  0  0  0  0  0  0  0  0  0  0
    8.8791  -15.0187   23.3370 C   0  0  0  0  0  0  0  0  0  0  0  0
    9.1588  -13.9222   23.8867 O   0  0  0  0  0  0  0  0  0  0  0  0
    8.8316  -16.1736   24.1392 N   0  0  0  0  0  0  0  0  0  0  0  0
    8.6066  -16.1251   25.5952 C   0  0  1  0  0  0  0  0  0  0  0  0
    7.2069  -15.7029   25.8978 C   0  0  0  0  0  0  0  0  0  0  0  0
    7.1155  -14.2566   26.1576 C   0  0  0  0  0  0  0  0  0  0  0  0
    8.1737  -13.5553   26.6815 C   0  0  0  0  0  0  0  0  0  0  0  0
    8.1226  -12.1976   26.9294 C   0  0  0  0  0  0  0  0  0  0  0  0
    6.9631  -11.5340   26.6369 C   0  0  0  0  0  0  0  0  0  0  0  0
    5.8726  -12.1909   26.1104 C   0  0  0  0  0  0  0  0  0  0  0  0
    5.9663  -13.5457   25.8784 C   0  0  0  0  0  0  0  0  0  0  0  0
    8.8975  -17.4485   26.1769 C   0  0  0  0  0  0  0  0  0  0  0  0
    8.8907  -17.7195   27.3966 O   0  0  0  0  0  0  0  0  0  0  0  0
    9.2075  -18.4945   25.3050 O   0  0  0  0  0  0  0  0  0  0  0  0
  2  8  1  0
  2  1  1  1
  3  2  1  0
  4  3  1  0
  5  6  1  0
  5  4  1  0
  7  6  1  0
  8  9  2  0
 10 11  1  0
 10  8  1  0
 12 13  1  0
 11 12  1  1
 14 15  2  0
 14 11  1  0
 16 14  1  0
 17 25  1  0
 17 16  1  0
 17 18  1  6
 19 18  1  0
 20 19  2  0
 21 20  1  0
 22 23  1  0
 22 21  2  0
 23 24  2  0
 24 19  1  0
 25 27  1  0
 26 25  2  0
M  END
$$$$
