KCF.pdb
     RDKit          3D

 27 27  0  0  1  0  0  0  0  0999 V2000
    8.8870  -15.8234   19.4508 N   0  0  0  0  0  0  0  0  0  0  0  0
    8.5183  -14.7222   20.3121 C   0  0  1  0  0  0  0  0  0  0  0  0
    7.5011  -13.8826   19.6349 C   0  0  0  0  0  0  0  0  0  0  0  0
    7.5138  -14.1491   18.1559 C   0  0  0  0  0  0  0  0  0  0  0  0
    7.9950  -12.9689   17.3696 C   0  0  0  0  0  0  0  0  0  0  0  0
    8.7586  -13.4505   16.1452 C   0  0  0  0  0  0  0  0  0  0  0  0
    7.8991  -14.0372   15.1574 N   0  0  0  0  0  0  0  0  0  0  0  0
    8.0507  -15.2236   21.6480 C   0  0  0  0  0  0  0  0  0  0  0  0
    7.4740  -14.4171   22.4180 O   0  0  0  0  0  0  0  0  0  0  0  0
    8.2227  -16.5532   22.0894 N   0  0  0  0  0  0  0  0  0  0  0  0
    7.8426  -17.0569   23.3701 C   0  0  1  0  0  0  0  0  0  0  0  0
    7.8162  -18.5608   23.4438 C   0  0  0  0  0  0  0  0  0  0  0  0
    9.5203  -19.1683   23.5623 S   0  0  0  0  0  0  0  0  0  0  0  0
    8.6861  -16.5306   24.4750 C   0  0  0  0  0  0  0  0  0  0  0  0
    9.8914  -16.2705   24.2248 O   0  0  0  0  0  0  0  0  0  0  0  0
    8.2133  -16.3077   25.7813 N   0  0  0  0  0  0  0  0  0  0  0  0
    9.0687  -15.7825   26.8607 C   0  0  1  0  0  0  0  0  0  0  0  0
    8.2849  -14.8926   27.7677 C   0  0  0  0  0  0  0  0  0  0  0  0
    7.6490  -13.7861   27.0335 C   0  0  0  0  0  0  0  0  0  0  0  0
    8.3958  -12.7942   26.4465 C   0  0  0  0  0  0  0  0  0  0  0  0
    7.8304  -11.7476   25.7447 C   0  0  0  0  0  0  0  0  0  0  0  0
    6.4677  -11.7079   25.6368 C   0  0  0  0  0  0  0  0  0  0  0  0
    5.6732  -12.6781   26.2074 C   0  0  0  0  0  0  0  0  0  0  0  0
    6.2782  -13.7048   26.8987 C   0  0  0  0  0  0  0  0  0  0  0  0
    9.6589  -16.9098   27.6059 C   0  0  0  0  0  0  0  0  0  0  0  0
    9.3133  -18.1059   27.5009 O   0  0  0  0  0  0  0  0  0  0  0  0
   10.6898  -16.6328   28.5065 O   0  0  0  0  0  0  0  0  0  0  0  0
  2  8  1  0
  2  1  1  6
  3  2  1  0
  4  3  1  0
  5  6  1  0
  5  4  1  0
  7  6  1  0
  8  9  2  0
 10 11  1  0
 10  8  1  0
 12 13  1  0
 11 12  1  6
 14 15  2  0
 14 11  1  0
 16 14  1  0
 17 25  1  0
 17 16  1  0
 17 18  1  1
 19 18  1  0
 20 19  2  0
 21 20  1  0
 22 23  1  0
 22 21  2  0
 23 24  2  0
 24 19  1  0
 25 27  1  0
 26 25  2  0
M  END
$$$$
