FED.pdb
     RDKit          3D

 29 29  0  0  1  0  0  0  0  0999 V2000
    7.3567  -17.0233   21.3725 N   0  0  0  0  0  0  0  0  0  0  0  0
    8.6282  -16.7294   20.7926 C   0  0  1  0  0  0  0  0  0  0  0  0
    9.2623  -15.4822   21.4243 C   0  0  0  0  0  0  0  0  0  0  0  0
    8.4287  -14.2861   21.2907 C   0  0  0  0  0  0  0  0  0  0  0  0
    8.1583  -13.7875   20.0348 C   0  0  0  0  0  0  0  0  0  0  0  0
    7.3672  -12.6476   19.8913 C   0  0  0  0  0  0  0  0  0  0  0  0
    6.8609  -12.0281   21.0183 C   0  0  0  0  0  0  0  0  0  0  0  0
    7.1225  -12.5145   22.2769 C   0  0  0  0  0  0  0  0  0  0  0  0
    7.9110  -13.6489   22.4011 C   0  0  0  0  0  0  0  0  0  0  0  0
    9.5950  -17.8271   21.0523 C   0  0  0  0  0  0  0  0  0  0  0  0
    9.4006  -18.5467   22.0474 O   0  0  0  0  0  0  0  0  0  0  0  0
   10.7090  -18.0859   20.2315 N   0  0  0  0  0  0  0  0  0  0  0  0
   11.6446  -19.1378   20.3476 C   0  0  1  0  0  0  0  0  0  0  0  0
   12.2948  -19.6653   19.1056 C   0  0  0  0  0  0  0  0  0  0  0  0
   12.1646  -18.8139   17.8817 C   0  0  0  0  0  0  0  0  0  0  0  0
   12.9159  -19.4760   16.7557 C   0  0  0  0  0  0  0  0  0  0  0  0
   12.4029  -20.3634   16.0434 O   0  0  0  0  0  0  0  0  0  0  0  0
   12.5058  -19.1301   21.5443 C   0  0  0  0  0  0  0  0  0  0  0  0
   13.2788  -20.0804   21.8484 O   0  0  0  0  0  0  0  0  0  0  0  0
   14.2185  -19.0467   16.5472 O   0  0  0  0  0  0  0  0  0  0  0  0
   12.5034  -18.0213   22.4329 N   0  0  0  0  0  0  0  0  0  0  0  0
   13.2472  -18.0619   23.7249 C   0  0  1  0  0  0  0  0  0  0  0  0
   14.6948  -17.9871   23.3630 C   0  0  0  0  0  0  0  0  0  0  0  0
   15.0606  -16.6896   22.8013 C   0  0  0  0  0  0  0  0  0  0  0  0
   15.8887  -15.9493   23.3548 O   0  0  0  0  0  0  0  0  0  0  0  0
   12.7595  -16.9335   24.5524 C   0  0  0  0  0  0  0  0  0  0  0  0
   11.9827  -16.0789   24.0875 O   0  0  0  0  0  0  0  0  0  0  0  0
   14.5030  -16.2030   21.6101 O   0  0  0  0  0  0  0  0  0  0  0  0
   13.2053  -16.8644   25.8772 O   0  0  0  0  0  0  0  0  0  0  0  0
  2  1  1  1
  2 10  1  0
  2  3  1  0
  3  4  1  0
  4  9  2  0
  4  5  1  0
  5  6  2  0
  6  7  1  0
  8  7  2  0
  9  8  1  0
 10 11  2  0
 10 12  1  0
 12 13  1  0
 13 14  1  6
 14 15  1  0
 16 20  1  0
 16 15  1  0
 17 16  2  0
 18 21  1  0
 18 13  1  0
 19 18  2  0
 22 26  1  0
 22 21  1  0
 22 23  1  6
 23 24  1  0
 24 25  2  0
 26 29  1  0
 27 26  2  0
 28 24  1  0
M  END
$$$$
