FED.pdb
     RDKit          3D

 29 29  0  0  1  0  0  0  0  0999 V2000
    6.9444  -16.1422   25.4939 N   0  0  0  0  0  0  0  0  0  0  0  0
    6.8931  -15.1930   24.4282 C   0  0  1  0  0  0  0  0  0  0  0  0
    7.7789  -13.9726   24.7157 C   0  0  0  0  0  0  0  0  0  0  0  0
    7.3496  -13.2190   25.8952 C   0  0  0  0  0  0  0  0  0  0  0  0
    8.1911  -13.1285   26.9827 C   0  0  0  0  0  0  0  0  0  0  0  0
    7.7955  -12.4156   28.1145 C   0  0  0  0  0  0  0  0  0  0  0  0
    6.5560  -11.8046   28.1313 C   0  0  0  0  0  0  0  0  0  0  0  0
    5.7066  -11.8866   27.0539 C   0  0  0  0  0  0  0  0  0  0  0  0
    6.1161  -12.5996   25.9367 C   0  0  0  0  0  0  0  0  0  0  0  0
    7.4349  -15.7758   23.1736 C   0  0  0  0  0  0  0  0  0  0  0  0
    8.2920  -16.6708   23.2737 O   0  0  0  0  0  0  0  0  0  0  0  0
    7.0261  -15.3643   21.8910 N   0  0  0  0  0  0  0  0  0  0  0  0
    7.8357  -14.8925   20.8338 C   0  0  1  0  0  0  0  0  0  0  0  0
    7.4646  -13.6079   20.1590 C   0  0  0  0  0  0  0  0  0  0  0  0
    8.3025  -13.2159   18.9825 C   0  0  0  0  0  0  0  0  0  0  0  0
    8.0115  -14.1658   17.8495 C   0  0  0  0  0  0  0  0  0  0  0  0
    6.9457  -14.8115   17.7783 O   0  0  0  0  0  0  0  0  0  0  0  0
    9.2850  -15.1382   20.9480 C   0  0  0  0  0  0  0  0  0  0  0  0
   10.1594  -14.2766   20.6546 O   0  0  0  0  0  0  0  0  0  0  0  0
    8.9959  -14.2888   16.8797 O   0  0  0  0  0  0  0  0  0  0  0  0
    9.7747  -16.3908   21.4061 N   0  0  0  0  0  0  0  0  0  0  0  0
   11.2267  -16.7256   21.3423 C   0  0  1  0  0  0  0  0  0  0  0  0
   11.4940  -17.6016   22.5227 C   0  0  0  0  0  0  0  0  0  0  0  0
   11.6985  -16.8345   23.7486 C   0  0  0  0  0  0  0  0  0  0  0  0
   12.2314  -15.7139   23.7354 O   0  0  0  0  0  0  0  0  0  0  0  0
   11.4762  -17.3666   20.0297 C   0  0  0  0  0  0  0  0  0  0  0  0
   10.5387  -17.6638   19.2664 O   0  0  0  0  0  0  0  0  0  0  0  0
   11.3081  -17.3131   25.0076 O   0  0  0  0  0  0  0  0  0  0  0  0
   12.8063  -17.6257   19.6802 O   0  0  0  0  0  0  0  0  0  0  0  0
  2  1  1  1
  2 10  1  0
  2  3  1  0
  3  4  1  0
  4  9  2  0
  4  5  1  0
  5  6  2  0
  6  7  1  0
  8  7  2  0
  9  8  1  0
 10 11  2  0
 10 12  1  0
 12 13  1  0
 13 14  1  1
 14 15  1  0
 16 20  1  0
 16 15  1  0
 17 16  2  0
 18 21  1  0
 18 13  1  0
 19 18  2  0
 22 26  1  0
 22 21  1  0
 22 23  1  1
 23 24  1  0
 24 25  2  0
 26 29  1  0
 27 26  2  0
 28 24  1  0
M  END
$$$$
