FED.pdb
     RDKit          3D

 29 29  0  0  1  0  0  0  0  0999 V2000
    5.8243  -16.6028   25.0916 N   0  0  0  0  0  0  0  0  0  0  0  0
    6.9627  -15.8538   24.6643 C   0  0  1  0  0  0  0  0  0  0  0  0
    7.5789  -15.0540   25.8207 C   0  0  0  0  0  0  0  0  0  0  0  0
    7.1160  -13.6658   25.8670 C   0  0  0  0  0  0  0  0  0  0  0  0
    6.1513  -13.3051   26.7825 C   0  0  0  0  0  0  0  0  0  0  0  0
    5.6986  -11.9868   26.8375 C   0  0  0  0  0  0  0  0  0  0  0  0
    6.2270  -11.0523   25.9672 C   0  0  0  0  0  0  0  0  0  0  0  0
    7.1897  -11.3980   25.0490 C   0  0  0  0  0  0  0  0  0  0  0  0
    7.6282  -12.7133   25.0082 C   0  0  0  0  0  0  0  0  0  0  0  0
    8.0467  -16.7572   24.1995 C   0  0  0  0  0  0  0  0  0  0  0  0
    8.2759  -17.7792   24.8694 O   0  0  0  0  0  0  0  0  0  0  0  0
    8.8175  -16.5103   23.0478 N   0  0  0  0  0  0  0  0  0  0  0  0
   10.1477  -16.9120   22.7934 C   0  0  1  0  0  0  0  0  0  0  0  0
   10.8248  -16.4199   21.5513 C   0  0  0  0  0  0  0  0  0  0  0  0
   12.1863  -16.9780   21.2782 C   0  0  0  0  0  0  0  0  0  0  0  0
   12.1806  -17.6060   19.9084 C   0  0  0  0  0  0  0  0  0  0  0  0
   11.9138  -18.8122   19.7294 O   0  0  0  0  0  0  0  0  0  0  0  0
   11.0308  -17.0616   23.9646 C   0  0  0  0  0  0  0  0  0  0  0  0
   11.3800  -16.0951   24.6975 O   0  0  0  0  0  0  0  0  0  0  0  0
   12.4892  -16.7697   18.8454 O   0  0  0  0  0  0  0  0  0  0  0  0
   11.5417  -18.3360   24.3300 N   0  0  0  0  0  0  0  0  0  0  0  0
   12.4655  -18.4972   25.4897 C   0  0  1  0  0  0  0  0  0  0  0  0
   12.0194  -19.7362   26.1955 C   0  0  0  0  0  0  0  0  0  0  0  0
   12.9100  -20.1008   27.2941 C   0  0  0  0  0  0  0  0  0  0  0  0
   13.9716  -20.7126   27.0975 O   0  0  0  0  0  0  0  0  0  0  0  0
   13.8451  -18.5567   24.9521 C   0  0  0  0  0  0  0  0  0  0  0  0
   14.8176  -18.1609   25.6210 O   0  0  0  0  0  0  0  0  0  0  0  0
   12.6230  -19.7844   28.6298 O   0  0  0  0  0  0  0  0  0  0  0  0
   14.0140  -19.0746   23.6631 O   0  0  0  0  0  0  0  0  0  0  0  0
  2  1  1  1
  2 10  1  0
  2  3  1  0
  3  4  1  0
  4  9  2  0
  4  5  1  0
  5  6  2  0
  6  7  1  0
  8  7  2  0
  9  8  1  0
 10 11  2  0
 10 12  1  0
 12 13  1  0
 13 14  1  6
 14 15  1  0
 16 20  1  0
 16 15  1  0
 17 16  2  0
 18 21  1  0
 18 13  1  0
 19 18  2  0
 22 26  1  0
 22 21  1  0
 22 23  1  6
 23 24  1  0
 24 25  2  0
 26 29  1  0
 27 26  2  0
 28 24  1  0
M  END
$$$$
