FED.pdb
     RDKit          3D

 29 29  0  0  1  0  0  0  0  0999 V2000
    8.4393  -16.2452   26.3389 N   0  0  0  0  0  0  0  0  0  0  0  0
    7.2210  -16.5093   25.6422 C   0  0  1  0  0  0  0  0  0  0  0  0
    6.0912  -15.5803   26.1081 C   0  0  0  0  0  0  0  0  0  0  0  0
    6.5340  -14.2005   26.3168 C   0  0  0  0  0  0  0  0  0  0  0  0
    6.2079  -13.2379   25.3863 C   0  0  0  0  0  0  0  0  0  0  0  0
    6.6243  -11.9193   25.5701 C   0  0  0  0  0  0  0  0  0  0  0  0
    7.3638  -11.5925   26.6910 C   0  0  0  0  0  0  0  0  0  0  0  0
    7.6962  -12.5423   27.6272 C   0  0  0  0  0  0  0  0  0  0  0  0
    7.2739  -13.8486   27.4284 C   0  0  0  0  0  0  0  0  0  0  0  0
    7.3716  -16.2351   24.1898 C   0  0  0  0  0  0  0  0  0  0  0  0
    6.5050  -16.6881   23.4220 O   0  0  0  0  0  0  0  0  0  0  0  0
    8.4397  -15.4938   23.6502 N   0  0  0  0  0  0  0  0  0  0  0  0
    9.3701  -15.9038   22.6695 C   0  0  1  0  0  0  0  0  0  0  0  0
    9.1945  -15.4215   21.2623 C   0  0  0  0  0  0  0  0  0  0  0  0
    8.9543  -16.4774   20.2293 C   0  0  0  0  0  0  0  0  0  0  0  0
    8.7352  -15.8048   18.8989 C   0  0  0  0  0  0  0  0  0  0  0  0
    8.2593  -14.6548   18.8039 O   0  0  0  0  0  0  0  0  0  0  0  0
   10.7709  -16.0520   23.1052 C   0  0  0  0  0  0  0  0  0  0  0  0
   11.4773  -15.0869   23.5084 O   0  0  0  0  0  0  0  0  0  0  0  0
    9.0919  -16.5334   17.7734 O   0  0  0  0  0  0  0  0  0  0  0  0
   11.4048  -17.3235   23.0898 N   0  0  0  0  0  0  0  0  0  0  0  0
   12.3343  -17.7394   24.1795 C   0  0  1  0  0  0  0  0  0  0  0  0
   11.6120  -18.7977   24.9479 C   0  0  0  0  0  0  0  0  0  0  0  0
   12.4770  -19.4717   25.9125 C   0  0  0  0  0  0  0  0  0  0  0  0
   13.1983  -18.8361   26.6972 O   0  0  0  0  0  0  0  0  0  0  0  0
   13.5922  -18.1916   23.5401 C   0  0  0  0  0  0  0  0  0  0  0  0
   14.5637  -18.5705   24.2203 O   0  0  0  0  0  0  0  0  0  0  0  0
   12.5456  -20.8689   26.0115 O   0  0  0  0  0  0  0  0  0  0  0  0
   13.6475  -18.1766   22.1419 O   0  0  0  0  0  0  0  0  0  0  0  0
  2  1  1  1
  2 10  1  0
  2  3  1  0
  3  4  1  0
  4  9  2  0
  4  5  1  0
  5  6  2  0
  6  7  1  0
  8  7  2  0
  9  8  1  0
 10 11  2  0
 10 12  1  0
 12 13  1  0
 13 14  1  6
 14 15  1  0
 16 20  1  0
 16 15  1  0
 17 16  2  0
 18 21  1  0
 18 13  1  0
 19 18  2  0
 22 26  1  0
 22 21  1  0
 22 23  1  6
 23 24  1  0
 24 25  2  0
 26 29  1  0
 27 26  2  0
 28 24  1  0
M  END
$$$$
