FED.pdb
     RDKit          3D

 29 29  0  0  1  0  0  0  0  0999 V2000
    6.1591  -16.2612   25.4108 N   0  0  0  0  0  0  0  0  0  0  0  0
    7.2481  -15.6392   24.7278 C   0  0  1  0  0  0  0  0  0  0  0  0
    7.9855  -14.6412   25.6317 C   0  0  0  0  0  0  0  0  0  0  0  0
    7.1940  -13.4462   25.9301 C   0  0  0  0  0  0  0  0  0  0  0  0
    7.0790  -12.4565   24.9782 C   0  0  0  0  0  0  0  0  0  0  0  0
    6.3299  -11.3112   25.2484 C   0  0  0  0  0  0  0  0  0  0  0  0
    5.7080  -11.1825   26.4759 C   0  0  0  0  0  0  0  0  0  0  0  0
    5.8141  -12.1617   27.4345 C   0  0  0  0  0  0  0  0  0  0  0  0
    6.5630  -13.2938   27.1489 C   0  0  0  0  0  0  0  0  0  0  0  0
    8.2743  -16.6424   24.3435 C   0  0  0  0  0  0  0  0  0  0  0  0
    8.5315  -17.5481   25.1554 O   0  0  0  0  0  0  0  0  0  0  0  0
    8.9611  -16.6134   23.1150 N   0  0  0  0  0  0  0  0  0  0  0  0
   10.2300  -17.1591   22.8191 C   0  0  1  0  0  0  0  0  0  0  0  0
   10.7723  -17.0122   21.4306 C   0  0  0  0  0  0  0  0  0  0  0  0
   11.3127  -15.6630   21.0739 C   0  0  0  0  0  0  0  0  0  0  0  0
   11.9816  -15.7558   19.7269 C   0  0  0  0  0  0  0  0  0  0  0  0
   13.1709  -15.4210   19.5489 O   0  0  0  0  0  0  0  0  0  0  0  0
   11.2417  -17.1040   23.8902 C   0  0  0  0  0  0  0  0  0  0  0  0
   11.5089  -16.0544   24.5381 O   0  0  0  0  0  0  0  0  0  0  0  0
   11.2034  -16.2364   18.6838 O   0  0  0  0  0  0  0  0  0  0  0  0
   11.9809  -18.2628   24.2502 N   0  0  0  0  0  0  0  0  0  0  0  0
   13.0312  -18.2145   25.3081 C   0  0  1  0  0  0  0  0  0  0  0  0
   12.9653  -19.5334   26.0067 C   0  0  0  0  0  0  0  0  0  0  0  0
   12.2717  -19.4486   27.2892 C   0  0  0  0  0  0  0  0  0  0  0  0
   11.8308  -20.4584   27.8602 O   0  0  0  0  0  0  0  0  0  0  0  0
   14.3228  -17.9358   24.6374 C   0  0  0  0  0  0  0  0  0  0  0  0
   14.4567  -18.0762   23.4076 O   0  0  0  0  0  0  0  0  0  0  0  0
   12.0625  -18.2298   27.9505 O   0  0  0  0  0  0  0  0  0  0  0  0
   15.3875  -17.5087   25.4389 O   0  0  0  0  0  0  0  0  0  0  0  0
  2  1  1  1
  2 10  1  0
  2  3  1  0
  3  4  1  0
  4  9  2  0
  4  5  1  0
  5  6  2  0
  6  7  1  0
  8  7  2  0
  9  8  1  0
 10 11  2  0
 10 12  1  0
 12 13  1  0
 13 14  1  6
 14 15  1  0
 16 20  1  0
 16 15  1  0
 17 16  2  0
 18 21  1  0
 18 13  1  0
 19 18  2  0
 22 26  1  0
 22 21  1  0
 22 23  1  6
 23 24  1  0
 24 25  2  0
 26 29  1  0
 27 26  2  0
 28 24  1  0
M  END
$$$$
