FED.pdb
     RDKit          3D

 29 29  0  0  1  0  0  0  0  0999 V2000
    7.9314  -16.6444   22.2993 N   0  0  0  0  0  0  0  0  0  0  0  0
    9.1705  -16.4657   21.6122 C   0  0  1  0  0  0  0  0  0  0  0  0
    9.6559  -15.0114   21.6919 C   0  0  0  0  0  0  0  0  0  0  0  0
    8.7417  -14.0668   21.0473 C   0  0  0  0  0  0  0  0  0  0  0  0
    8.9400  -13.7287   19.7263 C   0  0  0  0  0  0  0  0  0  0  0  0
    8.0787  -12.8286   19.0987 C   0  0  0  0  0  0  0  0  0  0  0  0
    7.0298  -12.2833   19.8148 C   0  0  0  0  0  0  0  0  0  0  0  0
    6.8202  -12.6116   21.1329 C   0  0  0  0  0  0  0  0  0  0  0  0
    7.6864  -13.5082   21.7410 C   0  0  0  0  0  0  0  0  0  0  0  0
   10.2483  -17.2672   22.2471 C   0  0  0  0  0  0  0  0  0  0  0  0
   10.5389  -17.0138   23.4291 O   0  0  0  0  0  0  0  0  0  0  0  0
   10.9477  -18.2891   21.5776 N   0  0  0  0  0  0  0  0  0  0  0  0
   12.0730  -19.0109   22.0339 C   0  0  1  0  0  0  0  0  0  0  0  0
   12.0546  -20.5061   21.9470 C   0  0  0  0  0  0  0  0  0  0  0  0
   10.7419  -21.1662   22.2313 C   0  0  0  0  0  0  0  0  0  0  0  0
   10.9121  -22.6557   22.0793 C   0  0  0  0  0  0  0  0  0  0  0  0
   11.1609  -23.4005   23.0496 O   0  0  0  0  0  0  0  0  0  0  0  0
   13.3926  -18.3919   21.8118 C   0  0  0  0  0  0  0  0  0  0  0  0
   13.8206  -18.0623   20.6710 O   0  0  0  0  0  0  0  0  0  0  0  0
   10.7773  -23.1639   20.7954 O   0  0  0  0  0  0  0  0  0  0  0  0
   14.2649  -18.1319   22.9027 N   0  0  0  0  0  0  0  0  0  0  0  0
   15.6499  -17.6237   22.6836 C   0  0  1  0  0  0  0  0  0  0  0  0
   15.4955  -16.2182   22.2012 C   0  0  0  0  0  0  0  0  0  0  0  0
   16.7815  -15.5587   21.9909 C   0  0  0  0  0  0  0  0  0  0  0  0
   17.8553  -16.1286   22.2406 O   0  0  0  0  0  0  0  0  0  0  0  0
   16.3794  -17.7588   23.9663 C   0  0  0  0  0  0  0  0  0  0  0  0
   17.6005  -17.5288   24.0433 O   0  0  0  0  0  0  0  0  0  0  0  0
   16.8823  -14.2500   21.4971 O   0  0  0  0  0  0  0  0  0  0  0  0
   15.6438  -18.1553   25.0888 O   0  0  0  0  0  0  0  0  0  0  0  0
  2  1  1  1
  2 10  1  0
  2  3  1  0
  3  4  1  0
  4  9  2  0
  4  5  1  0
  5  6  2  0
  6  7  1  0
  8  7  2  0
  9  8  1  0
 10 11  2  0
 10 12  1  0
 12 13  1  0
 13 14  1  6
 14 15  1  0
 16 20  1  0
 16 15  1  0
 17 16  2  0
 18 21  1  0
 18 13  1  0
 19 18  2  0
 22 26  1  0
 22 21  1  0
 22 23  1  1
 23 24  1  0
 24 25  2  0
 26 29  1  0
 27 26  2  0
 28 24  1  0
M  END
$$$$
