FED.pdb
     RDKit          3D

 29 29  0  0  1  0  0  0  0  0999 V2000
    6.2802  -16.3568   26.1765 N   0  0  0  0  0  0  0  0  0  0  0  0
    6.1515  -16.1308   24.7723 C   0  0  1  0  0  0  0  0  0  0  0  0
    5.9270  -14.6452   24.4576 C   0  0  0  0  0  0  0  0  0  0  0  0
    6.5713  -13.7520   25.4224 C   0  0  0  0  0  0  0  0  0  0  0  0
    7.8958  -13.4131   25.2498 C   0  0  0  0  0  0  0  0  0  0  0  0
    8.5241  -12.5648   26.1616 C   0  0  0  0  0  0  0  0  0  0  0  0
    7.8055  -12.0713   27.2341 C   0  0  0  0  0  0  0  0  0  0  0  0
    6.4840  -12.4010   27.4185 C   0  0  0  0  0  0  0  0  0  0  0  0
    5.8751  -13.2458   26.5022 C   0  0  0  0  0  0  0  0  0  0  0  0
    7.4053  -16.4905   24.0611 C   0  0  0  0  0  0  0  0  0  0  0  0
    8.2226  -17.2130   24.6575 O   0  0  0  0  0  0  0  0  0  0  0  0
    7.7060  -16.0544   22.7569 N   0  0  0  0  0  0  0  0  0  0  0  0
    8.8690  -16.3216   22.0009 C   0  0  1  0  0  0  0  0  0  0  0  0
    8.8635  -16.0128   20.5353 C   0  0  0  0  0  0  0  0  0  0  0  0
   10.0902  -16.4077   19.7744 C   0  0  0  0  0  0  0  0  0  0  0  0
    9.7252  -17.5134   18.8180 C   0  0  0  0  0  0  0  0  0  0  0  0
    9.8136  -18.7192   19.1283 O   0  0  0  0  0  0  0  0  0  0  0  0
   10.1623  -16.1077   22.6759 C   0  0  0  0  0  0  0  0  0  0  0  0
   10.6416  -14.9637   22.9095 O   0  0  0  0  0  0  0  0  0  0  0  0
    9.2818  -17.1219   17.5631 O   0  0  0  0  0  0  0  0  0  0  0  0
   10.9478  -17.2111   23.1052 N   0  0  0  0  0  0  0  0  0  0  0  0
   12.2957  -17.0133   23.7124 C   0  0  1  0  0  0  0  0  0  0  0  0
   12.6092  -18.2861   24.4291 C   0  0  0  0  0  0  0  0  0  0  0  0
   12.0813  -18.3014   25.7908 C   0  0  0  0  0  0  0  0  0  0  0  0
   12.2411  -17.3432   26.5630 O   0  0  0  0  0  0  0  0  0  0  0  0
   13.2315  -16.6778   22.6136 C   0  0  0  0  0  0  0  0  0  0  0  0
   12.8922  -16.7825   21.4203 O   0  0  0  0  0  0  0  0  0  0  0  0
   11.3660  -19.3918   26.3065 O   0  0  0  0  0  0  0  0  0  0  0  0
   14.5122  -16.2387   22.9677 O   0  0  0  0  0  0  0  0  0  0  0  0
  2  1  1  1
  2 10  1  0
  2  3  1  0
  3  4  1  0
  4  9  2  0
  4  5  1  0
  5  6  2  0
  6  7  1  0
  8  7  2  0
  9  8  1  0
 10 11  2  0
 10 12  1  0
 12 13  1  0
 13 14  1  6
 14 15  1  0
 16 20  1  0
 16 15  1  0
 17 16  2  0
 18 21  1  0
 18 13  1  0
 19 18  2  0
 22 26  1  0
 22 21  1  0
 22 23  1  6
 23 24  1  0
 24 25  2  0
 26 29  1  0
 27 26  2  0
 28 24  1  0
M  END
$$$$
