FED.pdb
     RDKit          3D

 29 29  0  0  1  0  0  0  0  0999 V2000
    6.3617  -16.1962   25.8027 N   0  0  0  0  0  0  0  0  0  0  0  0
    7.0248  -15.4902   24.7532 C   0  0  1  0  0  0  0  0  0  0  0  0
    7.9372  -14.3855   25.3045 C   0  0  0  0  0  0  0  0  0  0  0  0
    7.2005  -13.3286   25.9999 C   0  0  0  0  0  0  0  0  0  0  0  0
    6.1339  -12.7227   25.3721 C   0  0  0  0  0  0  0  0  0  0  0  0
    5.4233  -11.7127   26.0210 C   0  0  0  0  0  0  0  0  0  0  0  0
    5.8005  -11.3298   27.2942 C   0  0  0  0  0  0  0  0  0  0  0  0
    6.8622  -11.9254   27.9323 C   0  0  0  0  0  0  0  0  0  0  0  0
    7.5575  -12.9279   27.2723 C   0  0  0  0  0  0  0  0  0  0  0  0
    7.9281  -16.3940   23.9954 C   0  0  0  0  0  0  0  0  0  0  0  0
    8.3383  -17.4176   24.5697 O   0  0  0  0  0  0  0  0  0  0  0  0
    8.3360  -16.1460   22.6712 N   0  0  0  0  0  0  0  0  0  0  0  0
    9.3851  -16.7668   21.9574 C   0  0  1  0  0  0  0  0  0  0  0  0
    9.2957  -16.8424   20.4642 C   0  0  0  0  0  0  0  0  0  0  0  0
    7.9150  -16.8965   19.8890 C   0  0  0  0  0  0  0  0  0  0  0  0
    8.0136  -16.7503   18.3925 C   0  0  0  0  0  0  0  0  0  0  0  0
    7.7754  -15.6718   17.8111 O   0  0  0  0  0  0  0  0  0  0  0  0
   10.7479  -16.5844   22.4897 C   0  0  0  0  0  0  0  0  0  0  0  0
   11.1142  -15.5536   23.1192 O   0  0  0  0  0  0  0  0  0  0  0  0
    8.3859  -17.8844   17.6854 O   0  0  0  0  0  0  0  0  0  0  0  0
   11.7366  -17.5893   22.3123 N   0  0  0  0  0  0  0  0  0  0  0  0
   13.0146  -17.5635   23.0807 C   0  0  1  0  0  0  0  0  0  0  0  0
   12.8244  -18.5139   24.2177 C   0  0  0  0  0  0  0  0  0  0  0  0
   13.8764  -18.3942   25.2236 C   0  0  0  0  0  0  0  0  0  0  0  0
   14.8176  -17.5963   25.0912 O   0  0  0  0  0  0  0  0  0  0  0  0
   14.1021  -17.9322   22.1442 C   0  0  0  0  0  0  0  0  0  0  0  0
   15.2450  -17.4522   22.2588 O   0  0  0  0  0  0  0  0  0  0  0  0
   13.8882  -19.1675   26.3934 O   0  0  0  0  0  0  0  0  0  0  0  0
   13.7959  -18.8409   21.1249 O   0  0  0  0  0  0  0  0  0  0  0  0
  2  1  1  1
  2 10  1  0
  2  3  1  0
  3  4  1  0
  4  9  2  0
  4  5  1  0
  5  6  2  0
  6  7  1  0
  8  7  2  0
  9  8  1  0
 10 11  2  0
 10 12  1  0
 12 13  1  0
 13 14  1  6
 14 15  1  0
 16 20  1  0
 16 15  1  0
 17 16  2  0
 18 21  1  0
 18 13  1  0
 19 18  2  0
 22 26  1  0
 22 21  1  0
 22 23  1  1
 23 24  1  0
 24 25  2  0
 26 29  1  0
 27 26  2  0
 28 24  1  0
M  END
$$$$
