FED.pdb
     RDKit          3D

 29 29  0  0  1  0  0  0  0  0999 V2000
    6.2411  -16.2337   25.4719 N   0  0  0  0  0  0  0  0  0  0  0  0
    7.2196  -15.5448   24.6926 C   0  0  1  0  0  0  0  0  0  0  0  0
    7.9946  -14.5220   25.5351 C   0  0  0  0  0  0  0  0  0  0  0  0
    7.2397  -13.2914   25.7785 C   0  0  0  0  0  0  0  0  0  0  0  0
    7.2413  -12.2974   24.8242 C   0  0  0  0  0  0  0  0  0  0  0  0
    6.5284  -11.1184   25.0424 C   0  0  0  0  0  0  0  0  0  0  0  0
    5.8244  -10.9609   26.2212 C   0  0  0  0  0  0  0  0  0  0  0  0
    5.8140  -11.9439   27.1818 C   0  0  0  0  0  0  0  0  0  0  0  0
    6.5284  -13.1098   26.9482 C   0  0  0  0  0  0  0  0  0  0  0  0
    8.2505  -16.4863   24.1846 C   0  0  0  0  0  0  0  0  0  0  0  0
    8.4946  -17.4991   24.8631 O   0  0  0  0  0  0  0  0  0  0  0  0
    8.9557  -16.2850   22.9830 N   0  0  0  0  0  0  0  0  0  0  0  0
   10.0637  -17.0138   22.4965 C   0  0  1  0  0  0  0  0  0  0  0  0
   10.3172  -17.0413   21.0205 C   0  0  0  0  0  0  0  0  0  0  0  0
   11.4178  -17.9437   20.5580 C   0  0  0  0  0  0  0  0  0  0  0  0
   11.5521  -17.8081   19.0633 C   0  0  0  0  0  0  0  0  0  0  0  0
   11.7467  -16.7069   18.5088 O   0  0  0  0  0  0  0  0  0  0  0  0
   11.2763  -17.0155   23.3352 C   0  0  0  0  0  0  0  0  0  0  0  0
   11.8534  -15.9616   23.7216 O   0  0  0  0  0  0  0  0  0  0  0  0
   11.4479  -18.9788   18.3262 O   0  0  0  0  0  0  0  0  0  0  0  0
   11.8648  -18.2379   23.7572 N   0  0  0  0  0  0  0  0  0  0  0  0
   13.0440  -18.2557   24.6703 C   0  0  1  0  0  0  0  0  0  0  0  0
   13.0673  -19.6207   25.2773 C   0  0  0  0  0  0  0  0  0  0  0  0
   13.3629  -19.5878   26.7072 C   0  0  0  0  0  0  0  0  0  0  0  0
   13.5998  -20.6237   27.3482 O   0  0  0  0  0  0  0  0  0  0  0  0
   14.2378  -17.9213   23.8587 C   0  0  0  0  0  0  0  0  0  0  0  0
   14.3055  -18.2234   22.6528 O   0  0  0  0  0  0  0  0  0  0  0  0
   13.3974  -18.3923   27.4394 O   0  0  0  0  0  0  0  0  0  0  0  0
   15.2873  -17.2528   24.4990 O   0  0  0  0  0  0  0  0  0  0  0  0
  2  1  1  1
  2 10  1  0
  2  3  1  0
  3  4  1  0
  4  9  2  0
  4  5  1  0
  5  6  2  0
  6  7  1  0
  8  7  2  0
  9  8  1  0
 10 11  2  0
 10 12  1  0
 12 13  1  0
 13 14  1  6
 14 15  1  0
 16 20  1  0
 16 15  1  0
 17 16  2  0
 18 21  1  0
 18 13  1  0
 19 18  2  0
 22 26  1  0
 22 21  1  0
 22 23  1  6
 23 24  1  0
 24 25  2  0
 26 29  1  0
 27 26  2  0
 28 24  1  0
M  END
$$$$
