FED.pdb
     RDKit          3D

 29 29  0  0  1  0  0  0  0  0999 V2000
    7.4368  -15.2106   23.0701 N   0  0  0  0  0  0  0  0  0  0  0  0
    8.4504  -15.1332   24.0731 C   0  0  1  0  0  0  0  0  0  0  0  0
    7.8560  -14.8217   25.4538 C   0  0  0  0  0  0  0  0  0  0  0  0
    7.2898  -13.4744   25.5425 C   0  0  0  0  0  0  0  0  0  0  0  0
    6.2417  -13.2371   26.4050 C   0  0  0  0  0  0  0  0  0  0  0  0
    5.6903  -11.9593   26.4993 C   0  0  0  0  0  0  0  0  0  0  0  0
    6.2056  -10.9400   25.7210 C   0  0  0  0  0  0  0  0  0  0  0  0
    7.2507  -11.1624   24.8565 C   0  0  0  0  0  0  0  0  0  0  0  0
    7.7869  -12.4392   24.7755 C   0  0  0  0  0  0  0  0  0  0  0  0
    9.1363  -16.4411   24.2347 C   0  0  0  0  0  0  0  0  0  0  0  0
    8.9083  -17.0906   25.2700 O   0  0  0  0  0  0  0  0  0  0  0  0
   10.0232  -16.9717   23.2790 N   0  0  0  0  0  0  0  0  0  0  0  0
   11.0769  -17.8885   23.4902 C   0  0  1  0  0  0  0  0  0  0  0  0
   11.9284  -18.2896   22.3251 C   0  0  0  0  0  0  0  0  0  0  0  0
   12.7663  -17.2080   21.7185 C   0  0  0  0  0  0  0  0  0  0  0  0
   13.6295  -17.8168   20.6437 C   0  0  0  0  0  0  0  0  0  0  0  0
   14.8677  -17.6614   20.6158 O   0  0  0  0  0  0  0  0  0  0  0  0
   11.7897  -17.7944   24.7774 C   0  0  0  0  0  0  0  0  0  0  0  0
   12.2250  -16.7085   25.2511 O   0  0  0  0  0  0  0  0  0  0  0  0
   12.9742  -18.5659   19.6773 O   0  0  0  0  0  0  0  0  0  0  0  0
   12.0246  -18.9547   25.5631 N   0  0  0  0  0  0  0  0  0  0  0  0
   12.8014  -18.8855   26.8344 C   0  0  1  0  0  0  0  0  0  0  0  0
   12.1779  -19.8909   27.7469 C   0  0  0  0  0  0  0  0  0  0  0  0
   10.9266  -19.4124   28.3285 C   0  0  0  0  0  0  0  0  0  0  0  0
   10.7858  -18.2350   28.6944 O   0  0  0  0  0  0  0  0  0  0  0  0
   14.2206  -19.1517   26.5013 C   0  0  0  0  0  0  0  0  0  0  0  0
   14.5533  -19.5739   25.3784 O   0  0  0  0  0  0  0  0  0  0  0  0
    9.8145  -20.2475   28.5082 O   0  0  0  0  0  0  0  0  0  0  0  0
   15.1737  -18.9107   27.4973 O   0  0  0  0  0  0  0  0  0  0  0  0
  2  1  1  6
  2 10  1  0
  2  3  1  0
  3  4  1  0
  4  9  2  0
  4  5  1  0
  5  6  2  0
  6  7  1  0
  8  7  2  0
  9  8  1  0
 10 11  2  0
 10 12  1  0
 12 13  1  0
 13 14  1  6
 14 15  1  0
 16 20  1  0
 16 15  1  0
 17 16  2  0
 18 21  1  0
 18 13  1  0
 19 18  2  0
 22 26  1  0
 22 21  1  0
 22 23  1  1
 23 24  1  0
 24 25  2  0
 26 29  1  0
 27 26  2  0
 28 24  1  0
M  END
$$$$
