FED.pdb
     RDKit          3D

 29 29  0  0  1  0  0  0  0  0999 V2000
    6.4379  -16.4885   25.3023 N   0  0  0  0  0  0  0  0  0  0  0  0
    7.6010  -15.9072   24.7118 C   0  0  1  0  0  0  0  0  0  0  0  0
    8.2499  -14.8729   25.6423 C   0  0  0  0  0  0  0  0  0  0  0  0
    7.4742  -13.6361   25.7527 C   0  0  0  0  0  0  0  0  0  0  0  0
    7.3907  -12.7915   24.6671 C   0  0  0  0  0  0  0  0  0  0  0  0
    6.6570  -11.6085   24.7573 C   0  0  0  0  0  0  0  0  0  0  0  0
    6.0187  -11.2961   25.9427 C   0  0  0  0  0  0  0  0  0  0  0  0
    6.0935  -12.1292   27.0333 C   0  0  0  0  0  0  0  0  0  0  0  0
    6.8273  -13.3013   26.9259 C   0  0  0  0  0  0  0  0  0  0  0  0
    8.6501  -16.9347   24.4862 C   0  0  0  0  0  0  0  0  0  0  0  0
    8.7781  -17.8290   25.3405 O   0  0  0  0  0  0  0  0  0  0  0  0
    9.4964  -16.9409   23.3614 N   0  0  0  0  0  0  0  0  0  0  0  0
   10.7020  -17.6566   23.1885 C   0  0  1  0  0  0  0  0  0  0  0  0
   11.2730  -17.7853   21.8098 C   0  0  0  0  0  0  0  0  0  0  0  0
   10.2821  -17.9211   20.6966 C   0  0  0  0  0  0  0  0  0  0  0  0
   10.9416  -17.4879   19.4128 C   0  0  0  0  0  0  0  0  0  0  0  0
   12.1539  -17.6822   19.1878 O   0  0  0  0  0  0  0  0  0  0  0  0
   11.7012  -17.5427   24.2667 C   0  0  0  0  0  0  0  0  0  0  0  0
   12.1508  -16.4387   24.6815 O   0  0  0  0  0  0  0  0  0  0  0  0
   10.1274  -16.8563   18.4839 O   0  0  0  0  0  0  0  0  0  0  0  0
   12.2164  -18.7035   24.9039 N   0  0  0  0  0  0  0  0  0  0  0  0
   13.2896  -18.6095   25.9354 C   0  0  1  0  0  0  0  0  0  0  0  0
   12.6293  -18.9229   27.2385 C   0  0  0  0  0  0  0  0  0  0  0  0
   12.5008  -20.3601   27.4646 C   0  0  0  0  0  0  0  0  0  0  0  0
   13.4731  -21.1250   27.3675 O   0  0  0  0  0  0  0  0  0  0  0  0
   14.3628  -19.5538   25.5452 C   0  0  0  0  0  0  0  0  0  0  0  0
   14.2366  -20.3056   24.5609 O   0  0  0  0  0  0  0  0  0  0  0  0
   11.2797  -20.9606   27.8032 O   0  0  0  0  0  0  0  0  0  0  0  0
   15.5245  -19.5691   26.3253 O   0  0  0  0  0  0  0  0  0  0  0  0
  2  1  1  1
  2 10  1  0
  2  3  1  0
  3  4  1  0
  4  9  2  0
  4  5  1  0
  5  6  2  0
  6  7  1  0
  8  7  2  0
  9  8  1  0
 10 11  2  0
 10 12  1  0
 12 13  1  0
 13 14  1  6
 14 15  1  0
 16 20  1  0
 16 15  1  0
 17 16  2  0
 18 21  1  0
 18 13  1  0
 19 18  2  0
 22 26  1  0
 22 21  1  0
 22 23  1  1
 23 24  1  0
 24 25  2  0
 26 29  1  0
 27 26  2  0
 28 24  1  0
M  END
$$$$
