FED.pdb
     RDKit          3D

 29 29  0  0  1  0  0  0  0  0999 V2000
    5.9962  -17.0186   24.6785 N   0  0  0  0  0  0  0  0  0  0  0  0
    7.0968  -16.1113   24.7467 C   0  0  1  0  0  0  0  0  0  0  0  0
    7.3098  -15.5882   26.1742 C   0  0  0  0  0  0  0  0  0  0  0  0
    6.9324  -14.1823   26.3309 C   0  0  0  0  0  0  0  0  0  0  0  0
    5.6336  -13.8641   26.6637 C   0  0  0  0  0  0  0  0  0  0  0  0
    5.2582  -12.5292   26.8147 C   0  0  0  0  0  0  0  0  0  0  0  0
    6.2002  -11.5353   26.6272 C   0  0  0  0  0  0  0  0  0  0  0  0
    7.4990  -11.8382   26.2951 C   0  0  0  0  0  0  0  0  0  0  0  0
    7.8548  -13.1709   26.1490 C   0  0  0  0  0  0  0  0  0  0  0  0
    8.3682  -16.7934   24.3923 C   0  0  0  0  0  0  0  0  0  0  0  0
    8.5650  -17.9295   24.8575 O   0  0  0  0  0  0  0  0  0  0  0  0
    9.3489  -16.2173   23.5631 N   0  0  0  0  0  0  0  0  0  0  0  0
   10.6370  -16.7173   23.2691 C   0  0  1  0  0  0  0  0  0  0  0  0
   11.3537  -16.1983   22.0605 C   0  0  0  0  0  0  0  0  0  0  0  0
   10.8688  -16.7061   20.7388 C   0  0  0  0  0  0  0  0  0  0  0  0
   11.8735  -17.6960   20.2083 C   0  0  0  0  0  0  0  0  0  0  0  0
   13.0556  -17.3793   19.9630 O   0  0  0  0  0  0  0  0  0  0  0  0
   11.5049  -17.0309   24.4190 C   0  0  0  0  0  0  0  0  0  0  0  0
   12.1211  -16.1517   25.0827 O   0  0  0  0  0  0  0  0  0  0  0  0
   11.4157  -18.9897   20.0040 O   0  0  0  0  0  0  0  0  0  0  0  0
   11.6911  -18.3744   24.8423 N   0  0  0  0  0  0  0  0  0  0  0  0
   12.6197  -18.7135   25.9590 C   0  0  1  0  0  0  0  0  0  0  0  0
   11.9653  -19.8288   26.7073 C   0  0  0  0  0  0  0  0  0  0  0  0
   11.1067  -19.3457   27.7854 C   0  0  0  0  0  0  0  0  0  0  0  0
   11.1710  -18.1765   28.1962 O   0  0  0  0  0  0  0  0  0  0  0  0
   13.9287  -19.0596   25.3568 C   0  0  0  0  0  0  0  0  0  0  0  0
   14.9926  -18.8923   25.9815 O   0  0  0  0  0  0  0  0  0  0  0  0
   10.1628  -20.1670   28.4188 O   0  0  0  0  0  0  0  0  0  0  0  0
   13.9243  -19.5817   24.0585 O   0  0  0  0  0  0  0  0  0  0  0  0
  2  1  1  1
  2 10  1  0
  2  3  1  0
  3  4  1  0
  4  9  2  0
  4  5  1  0
  5  6  2  0
  6  7  1  0
  8  7  2  0
  9  8  1  0
 10 11  2  0
 10 12  1  0
 12 13  1  0
 13 14  1  6
 14 15  1  0
 16 20  1  0
 16 15  1  0
 17 16  2  0
 18 21  1  0
 18 13  1  0
 19 18  2  0
 22 26  1  0
 22 21  1  0
 22 23  1  6
 23 24  1  0
 24 25  2  0
 26 29  1  0
 27 26  2  0
 28 24  1  0
M  END
$$$$
