FED.pdb
     RDKit          3D

 29 29  0  0  1  0  0  0  0  0999 V2000
    6.5694  -16.3087   25.7839 N   0  0  0  0  0  0  0  0  0  0  0  0
    7.4322  -15.6357   24.8663 C   0  0  1  0  0  0  0  0  0  0  0  0
    8.2413  -14.5301   25.5591 C   0  0  0  0  0  0  0  0  0  0  0  0
    7.4262  -13.3724   25.9318 C   0  0  0  0  0  0  0  0  0  0  0  0
    7.1702  -13.1265   27.2633 C   0  0  0  0  0  0  0  0  0  0  0  0
    6.3937  -12.0286   27.6341 C   0  0  0  0  0  0  0  0  0  0  0  0
    5.8873  -11.1953   26.6546 C   0  0  0  0  0  0  0  0  0  0  0  0
    6.1346  -11.4286   25.3229 C   0  0  0  0  0  0  0  0  0  0  0  0
    6.9087  -12.5249   24.9722 C   0  0  0  0  0  0  0  0  0  0  0  0
    8.4482  -16.5682   24.3136 C   0  0  0  0  0  0  0  0  0  0  0  0
    8.9498  -17.4027   25.0868 O   0  0  0  0  0  0  0  0  0  0  0  0
    8.8638  -16.5492   22.9689 N   0  0  0  0  0  0  0  0  0  0  0  0
   10.0714  -17.0446   22.4285 C   0  0  1  0  0  0  0  0  0  0  0  0
   10.2297  -17.0918   20.9399 C   0  0  0  0  0  0  0  0  0  0  0  0
   11.4914  -17.7157   20.4312 C   0  0  0  0  0  0  0  0  0  0  0  0
   11.4310  -17.7596   18.9262 C   0  0  0  0  0  0  0  0  0  0  0  0
   11.1093  -18.7915   18.3020 O   0  0  0  0  0  0  0  0  0  0  0  0
   11.3059  -16.7407   23.1752 C   0  0  0  0  0  0  0  0  0  0  0  0
   11.6128  -15.5799   23.5644 O   0  0  0  0  0  0  0  0  0  0  0  0
   11.7537  -16.5853   18.2616 O   0  0  0  0  0  0  0  0  0  0  0  0
   12.2303  -17.7701   23.4986 N   0  0  0  0  0  0  0  0  0  0  0  0
   13.4709  -17.4821   24.2746 C   0  0  1  0  0  0  0  0  0  0  0  0
   13.8055  -18.7496   24.9911 C   0  0  0  0  0  0  0  0  0  0  0  0
   15.0715  -18.6615   25.7140 C   0  0  0  0  0  0  0  0  0  0  0  0
   15.7211  -17.6053   25.7652 O   0  0  0  0  0  0  0  0  0  0  0  0
   14.5009  -17.0282   23.3108 C   0  0  0  0  0  0  0  0  0  0  0  0
   15.2873  -16.1048   23.5915 O   0  0  0  0  0  0  0  0  0  0  0  0
   15.6278  -19.7568   26.3903 O   0  0  0  0  0  0  0  0  0  0  0  0
   14.5563  -17.6768   22.0720 O   0  0  0  0  0  0  0  0  0  0  0  0
  2  1  1  1
  2 10  1  0
  2  3  1  0
  3  4  1  0
  4  9  2  0
  4  5  1  0
  5  6  2  0
  6  7  1  0
  8  7  2  0
  9  8  1  0
 10 11  2  0
 10 12  1  0
 12 13  1  0
 13 14  1  6
 14 15  1  0
 16 20  1  0
 16 15  1  0
 17 16  2  0
 18 21  1  0
 18 13  1  0
 19 18  2  0
 22 26  1  0
 22 21  1  0
 22 23  1  6
 23 24  1  0
 24 25  2  0
 26 29  1  0
 27 26  2  0
 28 24  1  0
M  END
$$$$
