FED.pdb
     RDKit          3D

 29 29  0  0  1  0  0  0  0  0999 V2000
    6.3044  -16.1147   26.0417 N   0  0  0  0  0  0  0  0  0  0  0  0
    6.7556  -15.5548   24.8080 C   0  0  1  0  0  0  0  0  0  0  0  0
    7.6469  -14.3262   25.0379 C   0  0  0  0  0  0  0  0  0  0  0  0
    6.9157  -13.1835   25.5883 C   0  0  0  0  0  0  0  0  0  0  0  0
    7.3957  -12.5535   26.7159 C   0  0  0  0  0  0  0  0  0  0  0  0
    6.7092  -11.4646   27.2533 C   0  0  0  0  0  0  0  0  0  0  0  0
    5.5481  -11.0281   26.6439 C   0  0  0  0  0  0  0  0  0  0  0  0
    5.0578  -11.6470   25.5189 C   0  0  0  0  0  0  0  0  0  0  0  0
    5.7533  -12.7283   24.9980 C   0  0  0  0  0  0  0  0  0  0  0  0
    7.6114  -16.5195   24.0703 C   0  0  0  0  0  0  0  0  0  0  0  0
    8.1298  -17.4461   24.7171 O   0  0  0  0  0  0  0  0  0  0  0  0
    7.8590  -16.4321   22.6873 N   0  0  0  0  0  0  0  0  0  0  0  0
    8.8764  -17.0747   21.9473 C   0  0  1  0  0  0  0  0  0  0  0  0
    8.8495  -16.9817   20.4527 C   0  0  0  0  0  0  0  0  0  0  0  0
    9.8650  -17.8042   19.7232 C   0  0  0  0  0  0  0  0  0  0  0  0
    9.7358  -17.5266   18.2478 C   0  0  0  0  0  0  0  0  0  0  0  0
    9.9259  -16.3918   17.7641 O   0  0  0  0  0  0  0  0  0  0  0  0
   10.2242  -17.0867   22.5449 C   0  0  0  0  0  0  0  0  0  0  0  0
   10.8338  -16.0405   22.9013 O   0  0  0  0  0  0  0  0  0  0  0  0
    9.3920  -18.6048   17.4453 O   0  0  0  0  0  0  0  0  0  0  0  0
   10.9154  -18.3107   22.7515 N   0  0  0  0  0  0  0  0  0  0  0  0
   12.2042  -18.3562   23.5008 C   0  0  1  0  0  0  0  0  0  0  0  0
   12.1332  -19.5779   24.3577 C   0  0  0  0  0  0  0  0  0  0  0  0
   13.3909  -19.8441   25.0507 C   0  0  0  0  0  0  0  0  0  0  0  0
   13.6598  -19.3148   26.1405 O   0  0  0  0  0  0  0  0  0  0  0  0
   13.2977  -18.3671   22.5008 C   0  0  0  0  0  0  0  0  0  0  0  0
   13.2712  -19.1356   21.5217 O   0  0  0  0  0  0  0  0  0  0  0  0
   14.3658  -20.7083   24.5317 O   0  0  0  0  0  0  0  0  0  0  0  0
   14.3623  -17.4806   22.6986 O   0  0  0  0  0  0  0  0  0  0  0  0
  2  1  1  1
  2 10  1  0
  2  3  1  0
  3  4  1  0
  4  9  2  0
  4  5  1  0
  5  6  2  0
  6  7  1  0
  8  7  2  0
  9  8  1  0
 10 11  2  0
 10 12  1  0
 12 13  1  0
 13 14  1  6
 14 15  1  0
 16 20  1  0
 16 15  1  0
 17 16  2  0
 18 21  1  0
 18 13  1  0
 19 18  2  0
 22 26  1  0
 22 21  1  0
 22 23  1  6
 23 24  1  0
 24 25  2  0
 26 29  1  0
 27 26  2  0
 28 24  1  0
M  END
$$$$
