FED.pdb
     RDKit          3D

 29 29  0  0  1  0  0  0  0  0999 V2000
    6.4533  -16.9446   26.3065 N   0  0  0  0  0  0  0  0  0  0  0  0
    6.8822  -15.9596   25.3658 C   0  0  1  0  0  0  0  0  0  0  0  0
    7.8146  -14.9271   26.0147 C   0  0  0  0  0  0  0  0  0  0  0  0
    7.1330  -13.6787   26.3619 C   0  0  0  0  0  0  0  0  0  0  0  0
    6.0907  -13.2367   25.5764 C   0  0  0  0  0  0  0  0  0  0  0  0
    5.4326  -12.0482   25.8932 C   0  0  0  0  0  0  0  0  0  0  0  0
    5.8370  -11.3238   26.9986 C   0  0  0  0  0  0  0  0  0  0  0  0
    6.8750  -11.7528   27.7908 C   0  0  0  0  0  0  0  0  0  0  0  0
    7.5181  -12.9368   27.4611 C   0  0  0  0  0  0  0  0  0  0  0  0
    7.6874  -16.5784   24.2813 C   0  0  0  0  0  0  0  0  0  0  0  0
    8.4151  -17.5418   24.5779 O   0  0  0  0  0  0  0  0  0  0  0  0
    7.6636  -16.1276   22.9480 N   0  0  0  0  0  0  0  0  0  0  0  0
    8.6129  -16.3776   21.9322 C   0  0  1  0  0  0  0  0  0  0  0  0
    8.2784  -15.9969   20.5227 C   0  0  0  0  0  0  0  0  0  0  0  0
    9.2708  -16.4012   19.4781 C   0  0  0  0  0  0  0  0  0  0  0  0
    8.7581  -15.9565   18.1327 C   0  0  0  0  0  0  0  0  0  0  0  0
    7.7226  -15.2707   18.0076 O   0  0  0  0  0  0  0  0  0  0  0  0
   10.0325  -16.2200   22.2979 C   0  0  0  0  0  0  0  0  0  0  0  0
   10.5080  -15.1595   22.7902 O   0  0  0  0  0  0  0  0  0  0  0  0
    9.5005  -16.3504   17.0289 O   0  0  0  0  0  0  0  0  0  0  0  0
   10.9535  -17.2850   22.1069 N   0  0  0  0  0  0  0  0  0  0  0  0
   12.3813  -17.1581   22.5189 C   0  0  1  0  0  0  0  0  0  0  0  0
   12.6218  -18.2622   23.4963 C   0  0  0  0  0  0  0  0  0  0  0  0
   13.7210  -17.9648   24.4108 C   0  0  0  0  0  0  0  0  0  0  0  0
   14.4256  -16.9521   24.2760 O   0  0  0  0  0  0  0  0  0  0  0  0
   13.2053  -17.2326   21.2895 C   0  0  0  0  0  0  0  0  0  0  0  0
   12.7793  -17.7839   20.2577 O   0  0  0  0  0  0  0  0  0  0  0  0
   14.0462  -18.7987   25.4902 O   0  0  0  0  0  0  0  0  0  0  0  0
   14.4814  -16.6599   21.3320 O   0  0  0  0  0  0  0  0  0  0  0  0
  2  1  1  1
  2 10  1  0
  2  3  1  0
  3  4  1  0
  4  9  2  0
  4  5  1  0
  5  6  2  0
  6  7  1  0
  8  7  2  0
  9  8  1  0
 10 11  2  0
 10 12  1  0
 12 13  1  0
 13 14  1  6
 14 15  1  0
 16 20  1  0
 16 15  1  0
 17 16  2  0
 18 21  1  0
 18 13  1  0
 19 18  2  0
 22 26  1  0
 22 21  1  0
 22 23  1  1
 23 24  1  0
 24 25  2  0
 26 29  1  0
 27 26  2  0
 28 24  1  0
M  END
$$$$
