FED.pdb
     RDKit          3D

 29 29  0  0  1  0  0  0  0  0999 V2000
    6.2971  -16.9526   25.8467 N   0  0  0  0  0  0  0  0  0  0  0  0
    7.0757  -16.0290   25.0849 C   0  0  1  0  0  0  0  0  0  0  0  0
    7.7462  -14.9801   25.9832 C   0  0  0  0  0  0  0  0  0  0  0  0
    7.0558  -13.6891   25.9692 C   0  0  0  0  0  0  0  0  0  0  0  0
    6.1285  -13.4078   26.9489 C   0  0  0  0  0  0  0  0  0  0  0  0
    5.4611  -12.1829   26.9479 C   0  0  0  0  0  0  0  0  0  0  0  0
    5.7402  -11.2603   25.9574 C   0  0  0  0  0  0  0  0  0  0  0  0
    6.6626  -11.5275   24.9742 C   0  0  0  0  0  0  0  0  0  0  0  0
    7.3169  -12.7505   24.9905 C   0  0  0  0  0  0  0  0  0  0  0  0
    8.1963  -16.7216   24.3981 C   0  0  0  0  0  0  0  0  0  0  0  0
    8.8145  -17.5935   25.0332 O   0  0  0  0  0  0  0  0  0  0  0  0
    8.5854  -16.4377   23.0755 N   0  0  0  0  0  0  0  0  0  0  0  0
    9.8058  -16.7633   22.4428 C   0  0  1  0  0  0  0  0  0  0  0  0
    9.9223  -16.5774   20.9612 C   0  0  0  0  0  0  0  0  0  0  0  0
   11.1904  -17.0653   20.3339 C   0  0  0  0  0  0  0  0  0  0  0  0
   11.0201  -17.0521   18.8367 C   0  0  0  0  0  0  0  0  0  0  0  0
   10.0398  -16.5139   18.2822 O   0  0  0  0  0  0  0  0  0  0  0  0
   11.0398  -16.4903   23.2021 C   0  0  0  0  0  0  0  0  0  0  0  0
   11.2770  -15.3862   23.7658 O   0  0  0  0  0  0  0  0  0  0  0  0
   12.0159  -17.6737   18.0973 O   0  0  0  0  0  0  0  0  0  0  0  0
   12.0444  -17.4861   23.3363 N   0  0  0  0  0  0  0  0  0  0  0  0
   13.3101  -17.2152   24.0772 C   0  0  1  0  0  0  0  0  0  0  0  0
   13.7222  -18.5233   24.6696 C   0  0  0  0  0  0  0  0  0  0  0  0
   13.6332  -18.5256   26.1274 C   0  0  0  0  0  0  0  0  0  0  0  0
   13.4450  -17.4813   26.7709 O   0  0  0  0  0  0  0  0  0  0  0  0
   14.2765  -16.6448   23.1093 C   0  0  0  0  0  0  0  0  0  0  0  0
   14.1834  -16.8764   21.8896 O   0  0  0  0  0  0  0  0  0  0  0  0
   13.7538  -19.6994   26.8851 O   0  0  0  0  0  0  0  0  0  0  0  0
   15.2987  -15.8358   23.6182 O   0  0  0  0  0  0  0  0  0  0  0  0
  2  1  1  1
  2 10  1  0
  2  3  1  0
  3  4  1  0
  4  9  2  0
  4  5  1  0
  5  6  2  0
  6  7  1  0
  8  7  2  0
  9  8  1  0
 10 11  2  0
 10 12  1  0
 12 13  1  0
 13 14  1  6
 14 15  1  0
 16 20  1  0
 16 15  1  0
 17 16  2  0
 18 21  1  0
 18 13  1  0
 19 18  2  0
 22 26  1  0
 22 21  1  0
 22 23  1  6
 23 24  1  0
 24 25  2  0
 26 29  1  0
 27 26  2  0
 28 24  1  0
M  END
$$$$
