CDG.pdb
     RDKit          3D

 19 18  0  0  1  0  0  0  0  0999 V2000
   24.7511  -11.3741  -17.2314 N   0  0  0  0  0  0  0  0  0  0  0  0
   24.7235  -10.6644  -15.9707 C   0  0  1  0  0  0  0  0  0  0  0  0
   26.0836  -10.0159  -15.7664 C   0  0  0  0  0  0  0  0  0  0  0  0
   27.3067  -11.2338  -15.2626 S   0  0  0  0  0  0  0  0  0  0  0  0
   23.7259   -9.5707  -16.1172 C   0  0  0  0  0  0  0  0  0  0  0  0
   23.7239   -8.9167  -17.1898 O   0  0  0  0  0  0  0  0  0  0  0  0
   22.7900   -9.2275  -15.1314 N   0  0  0  0  0  0  0  0  0  0  0  0
   21.7393   -8.1939  -15.4206 C   0  0  1  0  0  0  0  0  0  0  0  0
   20.4258   -8.8830  -15.2449 C   0  0  0  0  0  0  0  0  0  0  0  0
   20.0699   -9.9890  -16.0828 C   0  0  0  0  0  0  0  0  0  0  0  0
   20.1300  -10.0936  -17.3210 O   0  0  0  0  0  0  0  0  0  0  0  0
   22.0239   -7.1133  -14.4521 C   0  0  0  0  0  0  0  0  0  0  0  0
   22.5730   -7.4020  -13.3248 O   0  0  0  0  0  0  0  0  0  0  0  0
   19.5672  -11.1679  -15.4548 O   0  0  0  0  0  0  0  0  0  0  0  0
   21.7592   -5.7414  -14.6234 N   0  0  0  0  0  0  0  0  0  0  0  0
   22.1162   -4.7664  -13.5705 C   0  0  0  0  0  0  0  0  0  0  0  0
   21.6929   -3.3968  -13.9952 C   0  0  0  0  0  0  0  0  0  0  0  0
   21.8789   -2.4027  -13.2532 O   0  0  0  0  0  0  0  0  0  0  0  0
   21.0817   -3.1885  -15.2234 O   0  0  0  0  0  0  0  0  0  0  0  0
  2  1  1  6
  3  2  1  0
  4  3  1  0
  5  2  1  0
  5  6  2  0
  7  5  1  0
  8  7  1  0
  8  9  1  1
 10  9  1  0
 10 14  1  0
 11 10  2  0
 12  8  1  0
 13 12  2  0
 15 12  1  0
 16 15  1  0
 17 16  1  0
 17 19  1  0
 18 17  2  0
M  END
$$$$
