CDG.pdb
     RDKit          3D

 19 18  0  0  1  0  0  0  0  0999 V2000
   23.2049  -11.3344  -15.9049 N   0  0  0  0  0  0  0  0  0  0  0  0
   22.3231  -10.4017  -16.5729 C   0  0  1  0  0  0  0  0  0  0  0  0
   21.0904  -11.1656  -17.0304 C   0  0  0  0  0  0  0  0  0  0  0  0
   21.5118  -12.3598  -18.3068 S   0  0  0  0  0  0  0  0  0  0  0  0
   21.8829   -9.4191  -15.5465 C   0  0  0  0  0  0  0  0  0  0  0  0
   21.6524   -9.8436  -14.3869 O   0  0  0  0  0  0  0  0  0  0  0  0
   21.7106   -8.0503  -15.7962 N   0  0  0  0  0  0  0  0  0  0  0  0
   21.3185   -7.1265  -14.6787 C   0  0  1  0  0  0  0  0  0  0  0  0
   22.2832   -5.9873  -14.7300 C   0  0  0  0  0  0  0  0  0  0  0  0
   22.1768   -4.9051  -13.7974 C   0  0  0  0  0  0  0  0  0  0  0  0
   22.2241   -4.9256  -12.5545 O   0  0  0  0  0  0  0  0  0  0  0  0
   19.9119   -6.7810  -14.9766 C   0  0  0  0  0  0  0  0  0  0  0  0
   19.3202   -5.8771  -14.2776 O   0  0  0  0  0  0  0  0  0  0  0  0
   21.9880   -3.5902  -14.3192 O   0  0  0  0  0  0  0  0  0  0  0  0
   19.1044   -7.3440  -15.9829 N   0  0  0  0  0  0  0  0  0  0  0  0
   17.7273   -6.8543  -16.2080 C   0  0  0  0  0  0  0  0  0  0  0  0
   16.8181   -7.4281  -15.1691 C   0  0  0  0  0  0  0  0  0  0  0  0
   17.2600   -8.1748  -14.2633 O   0  0  0  0  0  0  0  0  0  0  0  0
   15.4587   -7.1497  -15.1793 O   0  0  0  0  0  0  0  0  0  0  0  0
  2  1  1  1
  3  2  1  0
  4  3  1  0
  5  2  1  0
  5  6  2  0
  7  5  1  0
  8  7  1  0
  8  9  1  6
 10  9  1  0
 10 14  1  0
 11 10  2  0
 12  8  1  0
 13 12  2  0
 15 12  1  0
 16 15  1  0
 17 16  1  0
 17 19  1  0
 18 17  2  0
M  END
$$$$
