CDG.pdb
     RDKit          3D

 19 18  0  0  1  0  0  0  0  0999 V2000
   13.7157  -11.8731  -10.3673 N   0  0  0  0  0  0  0  0  0  0  0  0
   13.4833  -10.5870  -10.9882 C   0  0  1  0  0  0  0  0  0  0  0  0
   12.9568   -9.6387   -9.9225 C   0  0  0  0  0  0  0  0  0  0  0  0
   11.2104   -9.9305   -9.6093 S   0  0  0  0  0  0  0  0  0  0  0  0
   14.8110  -10.0757  -11.4229 C   0  0  0  0  0  0  0  0  0  0  0  0
   15.7697  -10.1693  -10.6166 O   0  0  0  0  0  0  0  0  0  0  0  0
   15.0549   -9.4971  -12.6764 N   0  0  0  0  0  0  0  0  0  0  0  0
   16.4315   -9.0052  -13.0215 C   0  0  1  0  0  0  0  0  0  0  0  0
   17.0217  -10.0371  -13.9258 C   0  0  0  0  0  0  0  0  0  0  0  0
   18.3788   -9.9209  -14.3696 C   0  0  0  0  0  0  0  0  0  0  0  0
   19.2456   -9.0873  -14.0513 O   0  0  0  0  0  0  0  0  0  0  0  0
   16.1948   -7.6818  -13.6375 C   0  0  0  0  0  0  0  0  0  0  0  0
   15.2312   -7.5380  -14.4780 O   0  0  0  0  0  0  0  0  0  0  0  0
   18.8561  -10.8770  -15.3157 O   0  0  0  0  0  0  0  0  0  0  0  0
   16.9271   -6.5030  -13.4013 N   0  0  0  0  0  0  0  0  0  0  0  0
   16.7008   -5.2959  -14.2248 C   0  0  0  0  0  0  0  0  0  0  0  0
   17.9946   -4.5702  -14.4119 C   0  0  0  0  0  0  0  0  0  0  0  0
   19.0530   -4.9879  -13.8842 O   0  0  0  0  0  0  0  0  0  0  0  0
   18.0590   -3.4133  -15.1754 O   0  0  0  0  0  0  0  0  0  0  0  0
  2  1  1  1
  3  2  1  0
  4  3  1  0
  5  2  1  0
  5  6  2  0
  7  5  1  0
  8  7  1  0
  8  9  1  6
 10  9  1  0
 10 14  1  0
 11 10  2  0
 12  8  1  0
 13 12  2  0
 15 12  1  0
 16 15  1  0
 17 16  1  0
 17 19  1  0
 18 17  2  0
M  END
$$$$
