CDG.pdb
     RDKit          3D

 19 18  0  0  1  0  0  0  0  0999 V2000
   26.9134  -20.4730  -15.5710 N   0  0  0  0  0  0  0  0  0  0  0  0
   26.2281  -19.4188  -14.8551 C   0  0  1  0  0  0  0  0  0  0  0  0
   27.1796  -18.2390  -14.7315 C   0  0  0  0  0  0  0  0  0  0  0  0
   28.3898  -18.5233  -13.4324 S   0  0  0  0  0  0  0  0  0  0  0  0
   25.0923  -18.9871  -15.7132 C   0  0  0  0  0  0  0  0  0  0  0  0
   25.2576  -19.0016  -16.9585 O   0  0  0  0  0  0  0  0  0  0  0  0
   23.8511  -18.5660  -15.2156 N   0  0  0  0  0  0  0  0  0  0  0  0
   22.7781  -18.1093  -16.1623 C   0  0  1  0  0  0  0  0  0  0  0  0
   21.4847  -18.5564  -15.5637 C   0  0  0  0  0  0  0  0  0  0  0  0
   21.1299  -19.9443  -15.5587 C   0  0  0  0  0  0  0  0  0  0  0  0
   21.2508  -20.7940  -16.4592 O   0  0  0  0  0  0  0  0  0  0  0  0
   22.9690  -16.6451  -16.2403 C   0  0  0  0  0  0  0  0  0  0  0  0
   23.0989  -15.9648  -15.1558 O   0  0  0  0  0  0  0  0  0  0  0  0
   20.5487  -20.4805  -14.3705 O   0  0  0  0  0  0  0  0  0  0  0  0
   23.0340  -15.8683  -17.4125 N   0  0  0  0  0  0  0  0  0  0  0  0
   23.1605  -14.3969  -17.3372 C   0  0  0  0  0  0  0  0  0  0  0  0
   23.2815  -13.8357  -18.7177 C   0  0  0  0  0  0  0  0  0  0  0  0
   23.2632  -14.5837  -19.7243 O   0  0  0  0  0  0  0  0  0  0  0  0
   23.4178  -12.4700  -18.9224 O   0  0  0  0  0  0  0  0  0  0  0  0
  2  1  1  6
  3  2  1  0
  4  3  1  0
  5  2  1  0
  5  6  2  0
  7  5  1  0
  8  7  1  0
  8  9  1  1
 10  9  1  0
 10 14  1  0
 11 10  2  0
 12  8  1  0
 13 12  2  0
 15 12  1  0
 16 15  1  0
 17 16  1  0
 17 19  1  0
 18 17  2  0
M  END
$$$$
