CDG.pdb
     RDKit          3D

 19 18  0  0  1  0  0  0  0  0999 V2000
   27.1138  -11.4654  -18.1952 N   0  0  0  0  0  0  0  0  0  0  0  0
   25.8368  -11.2454  -17.5515 C   0  0  1  0  0  0  0  0  0  0  0  0
   25.9313  -11.7710  -16.1277 C   0  0  0  0  0  0  0  0  0  0  0  0
   25.9229  -13.5689  -16.1049 S   0  0  0  0  0  0  0  0  0  0  0  0
   25.6466   -9.7722  -17.4708 C   0  0  0  0  0  0  0  0  0  0  0  0
   26.6526   -9.0623  -17.2215 O   0  0  0  0  0  0  0  0  0  0  0  0
   24.4139   -9.1307  -17.6562 N   0  0  0  0  0  0  0  0  0  0  0  0
   24.3481   -7.6311  -17.7098 C   0  0  1  0  0  0  0  0  0  0  0  0
   23.6664   -7.2955  -18.9957 C   0  0  0  0  0  0  0  0  0  0  0  0
   23.4083   -5.9302  -19.3443 C   0  0  0  0  0  0  0  0  0  0  0  0
   23.7632   -4.8868  -18.7674 O   0  0  0  0  0  0  0  0  0  0  0  0
   23.6086   -7.2611  -16.4838 C   0  0  0  0  0  0  0  0  0  0  0  0
   22.5398   -7.9054  -16.1704 O   0  0  0  0  0  0  0  0  0  0  0  0
   22.6350   -5.6752  -20.5164 O   0  0  0  0  0  0  0  0  0  0  0  0
   23.9505   -6.2447  -15.5719 N   0  0  0  0  0  0  0  0  0  0  0  0
   23.1154   -5.9888  -14.3786 C   0  0  0  0  0  0  0  0  0  0  0  0
   22.1454   -4.8903  -14.6753 C   0  0  0  0  0  0  0  0  0  0  0  0
   22.5432   -3.7418  -14.9846 O   0  0  0  0  0  0  0  0  0  0  0  0
   20.7770   -5.1126  -14.6159 O   0  0  0  0  0  0  0  0  0  0  0  0
  2  1  1  6
  3  2  1  0
  4  3  1  0
  5  2  1  0
  5  6  2  0
  7  5  1  0
  8  7  1  0
  8  9  1  6
 10  9  1  0
 10 14  1  0
 11 10  2  0
 12  8  1  0
 13 12  2  0
 15 12  1  0
 16 15  1  0
 17 16  1  0
 17 19  1  0
 18 17  2  0
M  END
$$$$
