CDG.pdb
     RDKit          3D

 19 18  0  0  1  0  0  0  0  0999 V2000
   26.3086  -21.3462  -11.7833 N   0  0  0  0  0  0  0  0  0  0  0  0
   24.9659  -21.1692  -11.2738 C   0  0  1  0  0  0  0  0  0  0  0  0
   25.0053  -20.0802  -10.2131 C   0  0  0  0  0  0  0  0  0  0  0  0
   25.8666  -20.6487   -8.7407 S   0  0  0  0  0  0  0  0  0  0  0  0
   24.1431  -20.6607  -12.4040 C   0  0  0  0  0  0  0  0  0  0  0  0
   24.7097  -19.9484  -13.2698 O   0  0  0  0  0  0  0  0  0  0  0  0
   22.7758  -20.9289  -12.5596 N   0  0  0  0  0  0  0  0  0  0  0  0
   22.0458  -20.4292  -13.7735 C   0  0  1  0  0  0  0  0  0  0  0  0
   21.2545  -21.5890  -14.2833 C   0  0  0  0  0  0  0  0  0  0  0  0
   21.9180  -22.7691  -14.7514 C   0  0  0  0  0  0  0  0  0  0  0  0
   21.6467  -23.9646  -14.5400 O   0  0  0  0  0  0  0  0  0  0  0  0
   21.2493  -19.2901  -13.2686 C   0  0  0  0  0  0  0  0  0  0  0  0
   20.6651  -19.3832  -12.1260 O   0  0  0  0  0  0  0  0  0  0  0  0
   23.0639  -22.6042  -15.5860 O   0  0  0  0  0  0  0  0  0  0  0  0
   21.0470  -18.0558  -13.9144 N   0  0  0  0  0  0  0  0  0  0  0  0
   20.3176  -16.9610  -13.2390 C   0  0  0  0  0  0  0  0  0  0  0  0
   18.8461  -17.1595  -13.4149 C   0  0  0  0  0  0  0  0  0  0  0  0
   18.3983  -18.1185  -14.0879 O   0  0  0  0  0  0  0  0  0  0  0  0
   17.9351  -16.2865  -12.8374 O   0  0  0  0  0  0  0  0  0  0  0  0
  2  1  1  6
  3  2  1  0
  4  3  1  0
  5  2  1  0
  5  6  2  0
  7  5  1  0
  8  7  1  0
  8  9  1  1
 10  9  1  0
 10 14  1  0
 11 10  2  0
 12  8  1  0
 13 12  2  0
 15 12  1  0
 16 15  1  0
 17 16  1  0
 17 19  1  0
 18 17  2  0
M  END
$$$$
