CDG.pdb
     RDKit          3D

 19 18  0  0  1  0  0  0  0  0999 V2000
   25.2240  -11.2039  -17.6827 N   0  0  0  0  0  0  0  0  0  0  0  0
   25.1296  -10.6345  -16.3558 C   0  0  1  0  0  0  0  0  0  0  0  0
   26.3667   -9.7819  -16.1210 C   0  0  0  0  0  0  0  0  0  0  0  0
   27.8108  -10.8123  -15.8280 S   0  0  0  0  0  0  0  0  0  0  0  0
   23.9547   -9.7221  -16.3643 C   0  0  0  0  0  0  0  0  0  0  0  0
   23.7293   -9.0638  -17.4102 O   0  0  0  0  0  0  0  0  0  0  0  0
   23.0862   -9.5540  -15.2768 N   0  0  0  0  0  0  0  0  0  0  0  0
   21.8772   -8.6728  -15.4103 C   0  0  1  0  0  0  0  0  0  0  0  0
   20.7135   -9.5038  -14.9785 C   0  0  0  0  0  0  0  0  0  0  0  0
   20.3535  -10.6821  -15.7093 C   0  0  0  0  0  0  0  0  0  0  0  0
   20.4227  -11.8761  -15.3670 O   0  0  0  0  0  0  0  0  0  0  0  0
   22.1833   -7.5118  -14.5472 C   0  0  0  0  0  0  0  0  0  0  0  0
   22.8404   -7.6903  -13.4554 O   0  0  0  0  0  0  0  0  0  0  0  0
   19.8346  -10.5170  -17.0286 O   0  0  0  0  0  0  0  0  0  0  0  0
   21.8308   -6.1705  -14.7884 N   0  0  0  0  0  0  0  0  0  0  0  0
   22.3159   -5.0912  -13.9016 C   0  0  0  0  0  0  0  0  0  0  0  0
   21.9033   -3.7659  -14.4576 C   0  0  0  0  0  0  0  0  0  0  0  0
   21.3380   -3.6801  -15.5739 O   0  0  0  0  0  0  0  0  0  0  0  0
   22.1353   -2.5937  -13.7522 O   0  0  0  0  0  0  0  0  0  0  0  0
  2  1  1  6
  3  2  1  0
  4  3  1  0
  5  2  1  0
  5  6  2  0
  7  5  1  0
  8  7  1  0
  8  9  1  1
 10  9  1  0
 10 14  1  0
 11 10  2  0
 12  8  1  0
 13 12  2  0
 15 12  1  0
 16 15  1  0
 17 16  1  0
 17 19  1  0
 18 17  2  0
M  END
$$$$
