CDG.pdb
     RDKit          3D

 19 18  0  0  1  0  0  0  0  0999 V2000
   20.2353  -12.9240  -16.2727 N   0  0  0  0  0  0  0  0  0  0  0  0
   20.0530  -11.7204  -17.0548 C   0  0  1  0  0  0  0  0  0  0  0  0
   18.6945  -11.1336  -16.7048 C   0  0  0  0  0  0  0  0  0  0  0  0
   17.3682  -12.1081  -17.4286 S   0  0  0  0  0  0  0  0  0  0  0  0
   21.0870  -10.7531  -16.5986 C   0  0  0  0  0  0  0  0  0  0  0  0
   21.4777  -10.8286  -15.4070 O   0  0  0  0  0  0  0  0  0  0  0  0
   21.6501   -9.7646  -17.4179 N   0  0  0  0  0  0  0  0  0  0  0  0
   22.7741   -8.9121  -16.9022 C   0  0  1  0  0  0  0  0  0  0  0  0
   23.7750   -8.8389  -18.0085 C   0  0  0  0  0  0  0  0  0  0  0  0
   24.9352   -8.0082  -17.8822 C   0  0  0  0  0  0  0  0  0  0  0  0
   25.2772   -7.2659  -16.9443 O   0  0  0  0  0  0  0  0  0  0  0  0
   22.1211   -7.6327  -16.5512 C   0  0  0  0  0  0  0  0  0  0  0  0
   21.3649   -7.0501  -17.4140 O   0  0  0  0  0  0  0  0  0  0  0  0
   25.8670   -7.9938  -18.9632 O   0  0  0  0  0  0  0  0  0  0  0  0
   22.2270   -6.9442  -15.3279 N   0  0  0  0  0  0  0  0  0  0  0  0
   21.5516   -5.6433  -15.1328 C   0  0  0  0  0  0  0  0  0  0  0  0
   21.6869   -5.2205  -13.7051 C   0  0  0  0  0  0  0  0  0  0  0  0
   22.2063   -5.9791  -12.8519 O   0  0  0  0  0  0  0  0  0  0  0  0
   21.2405   -3.9756  -13.2851 O   0  0  0  0  0  0  0  0  0  0  0  0
  2  1  1  1
  3  2  1  0
  4  3  1  0
  5  2  1  0
  5  6  2  0
  7  5  1  0
  8  7  1  0
  8  9  1  6
 10  9  1  0
 10 14  1  0
 11 10  2  0
 12  8  1  0
 13 12  2  0
 15 12  1  0
 16 15  1  0
 17 16  1  0
 17 19  1  0
 18 17  2  0
M  END
$$$$
