LLL.pdb
     RDKit          3D

 25 24  0  0  1  0  0  0  0  0999 V2000
    5.6031  -21.2206   23.3037 C   0  0  0  0  0  0  0  0  0  0  0  0
    7.0750  -20.9567   23.5683 C   0  0  2  0  0  0  0  0  0  0  0  0
    7.5351  -21.9788   24.5862 C   0  0  0  0  0  0  0  0  0  0  0  0
    7.2908  -19.5778   24.1639 C   0  0  0  0  0  0  0  0  0  0  0  0
    6.9793  -18.5580   23.0971 C   0  0  2  0  0  0  0  0  0  0  0  0
    7.4167  -19.0140   21.8192 N   0  0  0  0  0  0  0  0  0  0  0  0
    7.4693  -17.2034   23.4415 C   0  0  0  0  0  0  0  0  0  0  0  0
    8.5787  -16.8421   22.9751 O   0  0  0  0  0  0  0  0  0  0  0  0
    5.8564  -12.1489   26.6617 C   0  0  0  0  0  0  0  0  0  0  0  0
    6.9139  -12.7971   25.7643 C   0  0  2  0  0  0  0  0  0  0  0  0
    7.1633  -11.8646   24.6053 C   0  0  0  0  0  0  0  0  0  0  0  0
    6.3835  -14.1319   25.3702 C   0  0  0  0  0  0  0  0  0  0  0  0
    7.3455  -15.0265   24.6456 C   0  0  2  0  0  0  0  0  0  0  0  0
    6.8043  -16.2809   24.2456 N   0  0  0  0  0  0  0  0  0  0  0  0
    8.6655  -15.0868   25.2875 C   0  0  0  0  0  0  0  0  0  0  0  0
    9.5182  -14.1357   25.1909 O   0  0  0  0  0  0  0  0  0  0  0  0
   10.0440  -14.0525   29.7073 C   0  0  0  0  0  0  0  0  0  0  0  0
   10.0633  -14.4476   28.2714 C   0  0  1  0  0  0  0  0  0  0  0  0
   10.8298  -13.3532   27.5312 C   0  0  0  0  0  0  0  0  0  0  0  0
   10.6164  -15.7867   27.9594 C   0  0  0  0  0  0  0  0  0  0  0  0
   10.4918  -16.2853   26.5625 C   0  0  2  0  0  0  0  0  0  0  0  0
    9.1169  -16.1863   26.0694 N   0  0  0  0  0  0  0  0  0  0  0  0
   10.9428  -17.6664   26.4263 C   0  0  0  0  0  0  0  0  0  0  0  0
   10.1786  -18.7327   25.9445 O   0  0  0  0  0  0  0  0  0  0  0  0
   12.1328  -17.9951   26.7589 O   0  0  0  0  0  0  0  0  0  0  0  0
  2  1  1  1
  3  2  1  0
  4  2  1  0
  4  5  1  0
  5  6  1  6
  7  8  2  0
  7  5  1  0
 10  9  1  1
 10 12  1  0
 11 10  1  0
 13 12  1  1
 13 14  1  0
 14  7  1  0
 15 13  1  0
 16 15  2  0
 18 17  1  1
 19 18  1  0
 20 18  1  0
 21 20  1  1
 21 22  1  0
 22 15  1  0
 23 21  1  0
 24 23  1  0
 25 23  2  0
M  END
$$$$
