LLL.pdb
     RDKit          3D

 25 24  0  0  1  0  0  0  0  0999 V2000
    3.5105  -19.8312   22.8376 C   0  0  0  0  0  0  0  0  0  0  0  0
    3.8084  -18.6842   21.8881 C   0  0  2  0  0  0  0  0  0  0  0  0
    3.0223  -18.9402   20.6196 C   0  0  0  0  0  0  0  0  0  0  0  0
    5.2802  -18.6382   21.5215 C   0  0  0  0  0  0  0  0  0  0  0  0
    6.0545  -18.2589   22.7591 C   0  0  2  0  0  0  0  0  0  0  0  0
    5.2172  -17.5768   23.6897 N   0  0  0  0  0  0  0  0  0  0  0  0
    7.3077  -17.5332   22.4486 C   0  0  0  0  0  0  0  0  0  0  0  0
    8.2804  -18.1976   22.0115 O   0  0  0  0  0  0  0  0  0  0  0  0
    7.4364  -14.3160   19.6806 C   0  0  0  0  0  0  0  0  0  0  0  0
    7.3881  -13.8393   21.1346 C   0  0  2  0  0  0  0  0  0  0  0  0
    7.0839  -12.3620   21.1212 C   0  0  0  0  0  0  0  0  0  0  0  0
    8.7019  -14.1861   21.7445 C   0  0  0  0  0  0  0  0  0  0  0  0
    8.7666  -15.5143   22.4393 C   0  0  2  0  0  0  0  0  0  0  0  0
    7.5097  -16.1633   22.5987 N   0  0  0  0  0  0  0  0  0  0  0  0
    9.6202  -15.4939   23.6347 C   0  0  0  0  0  0  0  0  0  0  0  0
   10.8091  -15.0174   23.6193 O   0  0  0  0  0  0  0  0  0  0  0  0
   11.0061  -13.4411   28.1148 C   0  0  0  0  0  0  0  0  0  0  0  0
   10.2670  -14.7167   28.3270 C   0  0  1  0  0  0  0  0  0  0  0  0
    9.4418  -14.5328   29.5992 C   0  0  0  0  0  0  0  0  0  0  0  0
    9.4176  -15.1852   27.2065 C   0  0  0  0  0  0  0  0  0  0  0  0
   10.0769  -15.9117   26.0871 C   0  0  2  0  0  0  0  0  0  0  0  0
    9.2156  -15.9887   24.9057 N   0  0  0  0  0  0  0  0  0  0  0  0
   10.4792  -17.2624   26.4656 C   0  0  0  0  0  0  0  0  0  0  0  0
   11.7810  -17.6752   26.7620 O   0  0  0  0  0  0  0  0  0  0  0  0
    9.6106  -18.1965   26.5532 O   0  0  0  0  0  0  0  0  0  0  0  0
  2  1  1  1
  3  2  1  0
  4  2  1  0
  4  5  1  0
  5  6  1  1
  7  8  2  0
  7  5  1  0
 10  9  1  6
 10 12  1  0
 11 10  1  0
 13 12  1  1
 13 14  1  0
 14  7  1  0
 15 13  1  0
 16 15  2  0
 18 17  1  6
 19 18  1  0
 20 18  1  0
 21 20  1  1
 21 22  1  0
 22 15  1  0
 23 21  1  0
 24 23  1  0
 25 23  2  0
M  END
$$$$
