LLL.pdb
     RDKit          3D

 25 24  0  0  1  0  0  0  0  0999 V2000
   10.9828  -21.3256   20.6925 C   0  0  0  0  0  0  0  0  0  0  0  0
   10.2960  -20.5101   19.6112 C   0  0  2  0  0  0  0  0  0  0  0  0
   11.0273  -20.7841   18.3141 C   0  0  0  0  0  0  0  0  0  0  0  0
   10.3939  -19.0225   19.8948 C   0  0  0  0  0  0  0  0  0  0  0  0
    9.7602  -18.7641   21.2389 C   0  0  2  0  0  0  0  0  0  0  0  0
    8.4239  -19.2598   21.2712 N   0  0  0  0  0  0  0  0  0  0  0  0
    9.8769  -17.3498   21.6628 C   0  0  0  0  0  0  0  0  0  0  0  0
   11.0257  -16.8977   21.8964 O   0  0  0  0  0  0  0  0  0  0  0  0
    8.8726  -13.2269   19.7202 C   0  0  0  0  0  0  0  0  0  0  0  0
    7.6770  -14.0569   20.1949 C   0  0  2  0  0  0  0  0  0  0  0  0
    6.4224  -13.3339   19.7725 C   0  0  0  0  0  0  0  0  0  0  0  0
    7.8224  -14.2163   21.6686 C   0  0  0  0  0  0  0  0  0  0  0  0
    8.9646  -15.0776   22.1205 C   0  0  2  0  0  0  0  0  0  0  0  0
    8.8158  -16.4630   21.8287 N   0  0  0  0  0  0  0  0  0  0  0  0
    9.4110  -14.7667   23.4851 C   0  0  0  0  0  0  0  0  0  0  0  0
   10.2194  -13.8060   23.7391 O   0  0  0  0  0  0  0  0  0  0  0  0
    6.3558  -13.4358   26.8726 C   0  0  0  0  0  0  0  0  0  0  0  0
    7.4665  -13.4484   25.8804 C   0  0  1  0  0  0  0  0  0  0  0  0
    7.4721  -12.0717   25.2187 C   0  0  0  0  0  0  0  0  0  0  0  0
    8.8121  -13.7951   26.3956 C   0  0  0  0  0  0  0  0  0  0  0  0
    9.3988  -15.1022   25.9920 C   0  0  2  0  0  0  0  0  0  0  0  0
    8.9931  -15.4866   24.6389 N   0  0  0  0  0  0  0  0  0  0  0  0
    9.0427  -16.1761   26.9136 C   0  0  0  0  0  0  0  0  0  0  0  0
    8.4657  -17.3990   26.5606 O   0  0  0  0  0  0  0  0  0  0  0  0
    9.2530  -16.0494   28.1683 O   0  0  0  0  0  0  0  0  0  0  0  0
  2  1  1  1
  3  2  1  0
  4  2  1  0
  4  5  1  0
  5  6  1  6
  7  8  2  0
  7  5  1  0
 10  9  1  1
 10 12  1  0
 11 10  1  0
 13 12  1  1
 13 14  1  0
 14  7  1  0
 15 13  1  0
 16 15  2  0
 18 17  1  1
 19 18  1  0
 20 18  1  0
 21 20  1  1
 21 22  1  0
 22 15  1  0
 23 21  1  0
 24 23  1  0
 25 23  2  0
M  END
$$$$
