LLL.pdb
     RDKit          3D

 25 24  0  0  1  0  0  0  0  0999 V2000
    9.9983  -21.1501   19.7402 C   0  0  0  0  0  0  0  0  0  0  0  0
    9.3532  -20.2090   18.7381 C   0  0  2  0  0  0  0  0  0  0  0  0
    9.9226  -20.5489   17.3770 C   0  0  0  0  0  0  0  0  0  0  0  0
    9.6978  -18.7619   19.0379 C   0  0  0  0  0  0  0  0  0  0  0  0
    9.2323  -18.4553   20.4395 C   0  0  2  0  0  0  0  0  0  0  0  0
    7.8387  -18.7215   20.5786 N   0  0  0  0  0  0  0  0  0  0  0  0
    9.6230  -17.0985   20.8870 C   0  0  0  0  0  0  0  0  0  0  0  0
   10.8475  -16.8543   21.0275 O   0  0  0  0  0  0  0  0  0  0  0  0
    8.9136  -13.3565   18.7622 C   0  0  0  0  0  0  0  0  0  0  0  0
    7.7490  -13.7656   19.6679 C   0  0  2  0  0  0  0  0  0  0  0  0
    6.5800  -12.8701   19.3414 C   0  0  0  0  0  0  0  0  0  0  0  0
    8.2341  -13.6485   21.0711 C   0  0  0  0  0  0  0  0  0  0  0  0
    9.1526  -14.7400   21.5356 C   0  0  2  0  0  0  0  0  0  0  0  0
    8.7458  -16.0543   21.1702 N   0  0  0  0  0  0  0  0  0  0  0  0
    9.5736  -14.5776   22.9336 C   0  0  0  0  0  0  0  0  0  0  0  0
   10.3242  -13.6123   23.3151 O   0  0  0  0  0  0  0  0  0  0  0  0
    8.4564  -12.4373   27.3320 C   0  0  0  0  0  0  0  0  0  0  0  0
    7.5102  -13.4218   26.7371 C   0  0  1  0  0  0  0  0  0  0  0  0
    6.1457  -12.7370   26.6893 C   0  0  0  0  0  0  0  0  0  0  0  0
    7.8741  -13.9732   25.4105 C   0  0  0  0  0  0  0  0  0  0  0  0
    8.9571  -14.9925   25.3513 C   0  0  2  0  0  0  0  0  0  0  0  0
    9.1920  -15.4587   23.9834 N   0  0  0  0  0  0  0  0  0  0  0  0
    8.6779  -16.1458   26.2006 C   0  0  0  0  0  0  0  0  0  0  0  0
    8.5045  -17.4614   25.7623 O   0  0  0  0  0  0  0  0  0  0  0  0
    8.5718  -16.0071   27.4671 O   0  0  0  0  0  0  0  0  0  0  0  0
  2  1  1  1
  3  2  1  0
  4  2  1  0
  4  5  1  0
  5  6  1  6
  7  8  2  0
  7  5  1  0
 10  9  1  6
 10 12  1  0
 11 10  1  0
 13 12  1  1
 13 14  1  0
 14  7  1  0
 15 13  1  0
 16 15  2  0
 18 17  1  6
 19 18  1  0
 20 18  1  0
 21 20  1  6
 21 22  1  0
 22 15  1  0
 23 21  1  0
 24 23  1  0
 25 23  2  0
M  END
$$$$
