LLL.pdb
     RDKit          3D

 25 24  0  0  1  0  0  0  0  0999 V2000
    8.6129  -21.6600   22.1976 C   0  0  0  0  0  0  0  0  0  0  0  0
    9.9974  -21.4477   22.7841 C   0  0  2  0  0  0  0  0  0  0  0  0
    9.9845  -22.0330   24.1804 C   0  0  0  0  0  0  0  0  0  0  0  0
   10.3271  -19.9711   22.9021 C   0  0  0  0  0  0  0  0  0  0  0  0
   10.0549  -19.3271   21.5656 C   0  0  2  0  0  0  0  0  0  0  0  0
   10.9175  -19.8595   20.5631 N   0  0  0  0  0  0  0  0  0  0  0  0
   10.0671  -17.8476   21.6316 C   0  0  0  0  0  0  0  0  0  0  0  0
   11.1602  -17.2777   21.8747 O   0  0  0  0  0  0  0  0  0  0  0  0
    6.5414  -12.8554   20.6436 C   0  0  0  0  0  0  0  0  0  0  0  0
    7.8780  -13.3910   21.1635 C   0  0  2  0  0  0  0  0  0  0  0  0
    8.9719  -12.7866   20.3191 C   0  0  0  0  0  0  0  0  0  0  0  0
    7.8026  -14.8768   21.0922 C   0  0  0  0  0  0  0  0  0  0  0  0
    8.9605  -15.6168   21.6942 C   0  0  2  0  0  0  0  0  0  0  0  0
    8.9632  -17.0186   21.4464 N   0  0  0  0  0  0  0  0  0  0  0  0
    9.2316  -15.2230   23.0833 C   0  0  0  0  0  0  0  0  0  0  0  0
   10.2754  -14.5589   23.4156 O   0  0  0  0  0  0  0  0  0  0  0  0
    5.6094  -12.6708   26.0988 C   0  0  0  0  0  0  0  0  0  0  0  0
    6.9612  -13.1199   25.6635 C   0  0  1  0  0  0  0  0  0  0  0  0
    7.9398  -12.0291   26.0943 C   0  0  0  0  0  0  0  0  0  0  0  0
    7.4043  -14.4503   26.1432 C   0  0  0  0  0  0  0  0  0  0  0  0
    8.6263  -15.0413   25.5323 C   0  0  2  0  0  0  0  0  0  0  0  0
    8.3744  -15.5315   24.1760 N   0  0  0  0  0  0  0  0  0  0  0  0
    9.1728  -16.1316   26.3335 C   0  0  0  0  0  0  0  0  0  0  0  0
    9.8473  -15.9944   27.5497 O   0  0  0  0  0  0  0  0  0  0  0  0
    9.0559  -17.3436   25.9437 O   0  0  0  0  0  0  0  0  0  0  0  0
  2  1  1  1
  3  2  1  0
  4  2  1  0
  4  5  1  0
  5  6  1  6
  7  8  2  0
  7  5  1  0
 10  9  1  6
 10 12  1  0
 11 10  1  0
 13 12  1  1
 13 14  1  0
 14  7  1  0
 15 13  1  0
 16 15  2  0
 18 17  1  1
 19 18  1  0
 20 18  1  0
 21 20  1  1
 21 22  1  0
 22 15  1  0
 23 21  1  0
 24 23  1  0
 25 23  2  0
M  END
$$$$
