LLL.pdb
     RDKit          3D

 25 24  0  0  1  0  0  0  0  0999 V2000
    8.7008  -15.0427   17.3854 C   0  0  0  0  0  0  0  0  0  0  0  0
    7.7941  -14.2059   18.2705 C   0  0  2  0  0  0  0  0  0  0  0  0
    7.4055  -12.9773   17.4754 C   0  0  0  0  0  0  0  0  0  0  0  0
    8.5180  -13.7407   19.5205 C   0  0  0  0  0  0  0  0  0  0  0  0
    8.7301  -14.9421   20.4075 C   0  0  2  0  0  0  0  0  0  0  0  0
    7.7121  -15.9164   20.1905 N   0  0  0  0  0  0  0  0  0  0  0  0
    8.9049  -14.5765   21.8320 C   0  0  0  0  0  0  0  0  0  0  0  0
    9.9497  -13.9592   22.1578 O   0  0  0  0  0  0  0  0  0  0  0  0
    5.4311  -12.8017   26.4621 C   0  0  0  0  0  0  0  0  0  0  0  0
    6.8658  -13.0129   25.9713 C   0  0  2  0  0  0  0  0  0  0  0  0
    7.4938  -11.6527   25.7967 C   0  0  0  0  0  0  0  0  0  0  0  0
    6.7777  -13.8099   24.7162 C   0  0  0  0  0  0  0  0  0  0  0  0
    8.0828  -14.3067   24.1678 C   0  0  2  0  0  0  0  0  0  0  0  0
    8.0054  -14.8578   22.8575 N   0  0  0  0  0  0  0  0  0  0  0  0
    8.8473  -15.0999   25.1397 C   0  0  0  0  0  0  0  0  0  0  0  0
    8.8687  -16.3804   25.1130 O   0  0  0  0  0  0  0  0  0  0  0  0
   12.3851  -15.8208   29.5538 C   0  0  0  0  0  0  0  0  0  0  0  0
   10.9894  -15.3123   29.6623 C   0  0  1  0  0  0  0  0  0  0  0  0
   10.9432  -14.4366   30.9130 C   0  0  0  0  0  0  0  0  0  0  0  0
   10.4547  -14.5864   28.4861 C   0  0  0  0  0  0  0  0  0  0  0  0
   10.2578  -15.3507   27.2241 C   0  0  2  0  0  0  0  0  0  0  0  0
    9.6286  -14.5335   26.1850 N   0  0  0  0  0  0  0  0  0  0  0  0
    9.4576  -16.5542   27.4259 C   0  0  0  0  0  0  0  0  0  0  0  0
    8.0860  -16.5893   27.6920 O   0  0  0  0  0  0  0  0  0  0  0  0
    9.9998  -17.7104   27.3653 O   0  0  0  0  0  0  0  0  0  0  0  0
  2  1  1  6
  3  2  1  0
  4  2  1  0
  4  5  1  0
  5  6  1  1
  7  8  2  0
  7  5  1  0
 10  9  1  6
 10 12  1  0
 11 10  1  0
 13 12  1  1
 13 14  1  0
 14  7  1  0
 15 13  1  0
 16 15  2  0
 18 17  1  6
 19 18  1  0
 20 18  1  0
 21 20  1  1
 21 22  1  0
 22 15  1  0
 23 21  1  0
 24 23  1  0
 25 23  2  0
M  END
$$$$
