LLL.pdb
     RDKit          3D

 25 24  0  0  1  0  0  0  0  0999 V2000
   11.8238  -20.4468   20.1639 C   0  0  0  0  0  0  0  0  0  0  0  0
   11.0878  -19.6123   19.1305 C   0  0  2  0  0  0  0  0  0  0  0  0
   11.8970  -19.6706   17.8521 C   0  0  0  0  0  0  0  0  0  0  0  0
   10.9966  -18.1588   19.5570 C   0  0  0  0  0  0  0  0  0  0  0  0
   10.2289  -18.1036   20.8542 C   0  0  2  0  0  0  0  0  0  0  0  0
    8.9576  -18.7337   20.7161 N   0  0  0  0  0  0  0  0  0  0  0  0
   10.1530  -16.7349   21.4150 C   0  0  0  0  0  0  0  0  0  0  0  0
   11.2228  -16.1897   21.7849 O   0  0  0  0  0  0  0  0  0  0  0  0
    8.8652  -12.7924   19.5076 C   0  0  0  0  0  0  0  0  0  0  0  0
    7.7774  -13.7643   19.9721 C   0  0  2  0  0  0  0  0  0  0  0  0
    6.4600  -13.2687   19.4298 C   0  0  0  0  0  0  0  0  0  0  0  0
    7.8471  -13.8086   21.4592 C   0  0  0  0  0  0  0  0  0  0  0  0
    8.9551  -14.6407   22.0344 C   0  0  2  0  0  0  0  0  0  0  0  0
    8.9888  -15.9866   21.5720 N   0  0  0  0  0  0  0  0  0  0  0  0
    9.1046  -14.4702   23.4858 C   0  0  0  0  0  0  0  0  0  0  0  0
    9.5709  -13.3959   24.0048 O   0  0  0  0  0  0  0  0  0  0  0  0
    5.7709  -12.9236   26.4167 C   0  0  0  0  0  0  0  0  0  0  0  0
    7.1686  -13.3210   26.0899 C   0  0  1  0  0  0  0  0  0  0  0  0
    8.0795  -12.3018   26.7716 C   0  0  0  0  0  0  0  0  0  0  0  0
    7.5640  -14.7053   26.4419 C   0  0  0  0  0  0  0  0  0  0  0  0
    8.8400  -15.2303   25.8836 C   0  0  2  0  0  0  0  0  0  0  0  0
    8.7484  -15.4625   24.4410 N   0  0  0  0  0  0  0  0  0  0  0  0
    9.2606  -16.4669   26.5341 C   0  0  0  0  0  0  0  0  0  0  0  0
    9.5453  -17.6741   25.8900 O   0  0  0  0  0  0  0  0  0  0  0  0
    9.4011  -16.5156   27.8040 O   0  0  0  0  0  0  0  0  0  0  0  0
  2  1  1  1
  3  2  1  0
  4  2  1  0
  4  5  1  0
  5  6  1  6
  7  8  2  0
  7  5  1  0
 10  9  1  1
 10 12  1  0
 11 10  1  0
 13 12  1  1
 13 14  1  0
 14  7  1  0
 15 13  1  0
 16 15  2  0
 18 17  1  1
 19 18  1  0
 20 18  1  0
 21 20  1  1
 21 22  1  0
 22 15  1  0
 23 21  1  0
 24 23  1  0
 25 23  2  0
M  END
$$$$
