LLL.pdb
     RDKit          3D

 25 24  0  0  1  0  0  0  0  0999 V2000
    6.9207  -20.1122   21.3127 C   0  0  0  0  0  0  0  0  0  0  0  0
    8.4194  -19.8810   21.2329 C   0  0  2  0  0  0  0  0  0  0  0  0
    9.0922  -21.1513   21.7085 C   0  0  0  0  0  0  0  0  0  0  0  0
    8.8543  -18.7532   22.1502 C   0  0  0  0  0  0  0  0  0  0  0  0
    8.1697  -17.4906   21.6894 C   0  0  2  0  0  0  0  0  0  0  0  0
    8.3246  -17.3164   20.2829 N   0  0  0  0  0  0  0  0  0  0  0  0
    8.5687  -16.3035   22.4800 C   0  0  0  0  0  0  0  0  0  0  0  0
    9.5916  -15.6705   22.1169 O   0  0  0  0  0  0  0  0  0  0  0  0
    7.1563  -11.9724   24.3687 C   0  0  0  0  0  0  0  0  0  0  0  0
    6.3595  -13.2115   24.7853 C   0  0  2  0  0  0  0  0  0  0  0  0
    5.2964  -12.7654   25.7578 C   0  0  0  0  0  0  0  0  0  0  0  0
    7.3376  -14.1807   25.3529 C   0  0  0  0  0  0  0  0  0  0  0  0
    8.3543  -14.7189   24.3899 C   0  0  2  0  0  0  0  0  0  0  0  0
    7.9052  -15.8177   23.6042 N   0  0  0  0  0  0  0  0  0  0  0  0
    9.6848  -14.8783   24.9920 C   0  0  0  0  0  0  0  0  0  0  0  0
   10.5146  -13.9070   25.0865 O   0  0  0  0  0  0  0  0  0  0  0  0
   11.6267  -14.2332   29.4175 C   0  0  0  0  0  0  0  0  0  0  0  0
   10.8832  -15.5087   29.2207 C   0  0  1  0  0  0  0  0  0  0  0  0
    9.9164  -15.6326   30.3968 C   0  0  0  0  0  0  0  0  0  0  0  0
   10.1726  -15.6698   27.9302 C   0  0  0  0  0  0  0  0  0  0  0  0
   10.9499  -16.1675   26.7625 C   0  0  2  0  0  0  0  0  0  0  0  0
   10.1721  -16.1046   25.5238 N   0  0  0  0  0  0  0  0  0  0  0  0
   11.4205  -17.5354   26.9543 C   0  0  0  0  0  0  0  0  0  0  0  0
   12.7160  -17.9109   27.3201 O   0  0  0  0  0  0  0  0  0  0  0  0
   10.6256  -18.5231   26.7896 O   0  0  0  0  0  0  0  0  0  0  0  0
  2  1  1  1
  3  2  1  0
  4  2  1  0
  4  5  1  0
  5  6  1  6
  7  8  2  0
  7  5  1  0
 10  9  1  1
 10 12  1  0
 11 10  1  0
 13 12  1  1
 13 14  1  0
 14  7  1  0
 15 13  1  0
 16 15  2  0
 18 17  1  6
 19 18  1  0
 20 18  1  0
 21 20  1  1
 21 22  1  0
 22 15  1  0
 23 21  1  0
 24 23  1  0
 25 23  2  0
M  END
$$$$
