LLL.pdb
     RDKit          3D

 25 24  0  0  1  0  0  0  0  0999 V2000
    9.5208  -20.7763   19.9216 C   0  0  0  0  0  0  0  0  0  0  0  0
    8.6023  -19.6701   19.4334 C   0  0  2  0  0  0  0  0  0  0  0  0
    8.7066  -19.6383   17.9232 C   0  0  0  0  0  0  0  0  0  0  0  0
    9.0411  -18.3155   19.9581 C   0  0  0  0  0  0  0  0  0  0  0  0
    8.9751  -18.3583   21.4644 C   0  0  2  0  0  0  0  0  0  0  0  0
    7.6505  -18.6491   21.9041 N   0  0  0  0  0  0  0  0  0  0  0  0
    9.5565  -17.1515   22.0961 C   0  0  0  0  0  0  0  0  0  0  0  0
   10.7610  -16.8842   21.8582 O   0  0  0  0  0  0  0  0  0  0  0  0
    6.8020  -13.9608   22.0031 C   0  0  0  0  0  0  0  0  0  0  0  0
    7.1197  -14.2081   23.4802 C   0  0  2  0  0  0  0  0  0  0  0  0
    6.2212  -13.3130   24.2967 C   0  0  0  0  0  0  0  0  0  0  0  0
    8.5737  -13.9389   23.6581 C   0  0  0  0  0  0  0  0  0  0  0  0
    9.4743  -15.1344   23.5552 C   0  0  2  0  0  0  0  0  0  0  0  0
    8.8816  -16.2736   22.9410 N   0  0  0  0  0  0  0  0  0  0  0  0
   10.2140  -15.4021   24.7958 C   0  0  0  0  0  0  0  0  0  0  0  0
   11.1966  -14.6745   25.1779 O   0  0  0  0  0  0  0  0  0  0  0  0
    8.8262  -14.3818   29.3251 C   0  0  0  0  0  0  0  0  0  0  0  0
    9.7089  -14.8038   28.2021 C   0  0  1  0  0  0  0  0  0  0  0  0
   10.9842  -13.9710   28.3168 C   0  0  0  0  0  0  0  0  0  0  0  0
   10.0249  -16.2490   28.1139 C   0  0  0  0  0  0  0  0  0  0  0  0
   10.7045  -16.7415   26.8846 C   0  0  2  0  0  0  0  0  0  0  0  0
    9.9142  -16.4744   25.6814 N   0  0  0  0  0  0  0  0  0  0  0  0
   10.9966  -18.1697   26.9490 C   0  0  0  0  0  0  0  0  0  0  0  0
   11.8103  -18.7962   27.8968 O   0  0  0  0  0  0  0  0  0  0  0  0
   10.4930  -18.9733   26.0915 O   0  0  0  0  0  0  0  0  0  0  0  0
  2  1  1  1
  3  2  1  0
  4  2  1  0
  4  5  1  0
  5  6  1  6
  7  8  2  0
  7  5  1  0
 10  9  1  6
 10 12  1  0
 11 10  1  0
 13 12  1  1
 13 14  1  0
 14  7  1  0
 15 13  1  0
 16 15  2  0
 18 17  1  1
 19 18  1  0
 20 18  1  0
 21 20  1  1
 21 22  1  0
 22 15  1  0
 23 21  1  0
 24 23  1  0
 25 23  2  0
M  END
$$$$
