LLL.pdb
     RDKit          3D

 25 24  0  0  1  0  0  0  0  0999 V2000
   10.0260  -21.3212   19.9534 C   0  0  0  0  0  0  0  0  0  0  0  0
    9.2888  -20.3395   19.0597 C   0  0  2  0  0  0  0  0  0  0  0  0
    9.6364  -20.6918   17.6288 C   0  0  0  0  0  0  0  0  0  0  0  0
    9.7440  -18.9139   19.3111 C   0  0  0  0  0  0  0  0  0  0  0  0
    9.3848  -18.5563   20.7317 C   0  0  2  0  0  0  0  0  0  0  0  0
    8.0357  -18.9172   21.0179 N   0  0  0  0  0  0  0  0  0  0  0  0
    9.7039  -17.1487   21.0643 C   0  0  0  0  0  0  0  0  0  0  0  0
   10.9121  -16.8038   21.0689 O   0  0  0  0  0  0  0  0  0  0  0  0
    8.8696  -13.2032   19.1086 C   0  0  0  0  0  0  0  0  0  0  0  0
    7.6846  -13.7849   19.8839 C   0  0  2  0  0  0  0  0  0  0  0  0
    6.4777  -12.9324   19.5810 C   0  0  0  0  0  0  0  0  0  0  0  0
    8.0764  -13.7991   21.3207 C   0  0  0  0  0  0  0  0  0  0  0  0
    9.1122  -14.8149   21.7029 C   0  0  2  0  0  0  0  0  0  0  0  0
    8.7751  -16.1589   21.3767 N   0  0  0  0  0  0  0  0  0  0  0  0
    9.6419  -14.6104   23.0577 C   0  0  0  0  0  0  0  0  0  0  0  0
   10.3962  -13.6188   23.3558 O   0  0  0  0  0  0  0  0  0  0  0  0
    8.6240  -12.4017   27.3719 C   0  0  0  0  0  0  0  0  0  0  0  0
    7.6369  -13.3732   26.8239 C   0  0  1  0  0  0  0  0  0  0  0  0
    6.3042  -12.6323   26.7332 C   0  0  0  0  0  0  0  0  0  0  0  0
    7.9801  -14.0087   25.5298 C   0  0  0  0  0  0  0  0  0  0  0  0
    9.1134  -14.9732   25.5045 C   0  0  2  0  0  0  0  0  0  0  0  0
    9.3705  -15.4760   24.1537 N   0  0  0  0  0  0  0  0  0  0  0  0
    8.8938  -16.1077   26.3955 C   0  0  0  0  0  0  0  0  0  0  0  0
    8.2946  -17.3202   26.0436 O   0  0  0  0  0  0  0  0  0  0  0  0
    9.2608  -16.0511   27.6189 O   0  0  0  0  0  0  0  0  0  0  0  0
  2  1  1  1
  3  2  1  0
  4  2  1  0
  4  5  1  0
  5  6  1  6
  7  8  2  0
  7  5  1  0
 10  9  1  6
 10 12  1  0
 11 10  1  0
 13 12  1  1
 13 14  1  0
 14  7  1  0
 15 13  1  0
 16 15  2  0
 18 17  1  6
 19 18  1  0
 20 18  1  0
 21 20  1  6
 21 22  1  0
 22 15  1  0
 23 21  1  0
 24 23  1  0
 25 23  2  0
M  END
$$$$
