LLL.pdb
     RDKit          3D

 25 24  0  0  1  0  0  0  0  0999 V2000
   11.6794  -20.7961   18.7898 C   0  0  0  0  0  0  0  0  0  0  0  0
   10.4953  -20.2462   19.5652 C   0  0  2  0  0  0  0  0  0  0  0  0
    9.2721  -20.4133   18.6886 C   0  0  0  0  0  0  0  0  0  0  0  0
   10.6624  -18.7655   19.8526 C   0  0  0  0  0  0  0  0  0  0  0  0
    9.7258  -18.4032   20.9780 C   0  0  2  0  0  0  0  0  0  0  0  0
    8.3791  -18.7239   20.6378 N   0  0  0  0  0  0  0  0  0  0  0  0
    9.9027  -17.0075   21.4411 C   0  0  0  0  0  0  0  0  0  0  0  0
   11.0392  -16.6622   21.8509 O   0  0  0  0  0  0  0  0  0  0  0  0
    9.1689  -13.0766   19.3877 C   0  0  0  0  0  0  0  0  0  0  0  0
    7.9171  -13.6999   20.0108 C   0  0  2  0  0  0  0  0  0  0  0  0
    6.7283  -12.8927   19.5521 C   0  0  0  0  0  0  0  0  0  0  0  0
    8.1241  -13.6970   21.4857 C   0  0  0  0  0  0  0  0  0  0  0  0
    9.0816  -14.7258   22.0105 C   0  0  2  0  0  0  0  0  0  0  0  0
    8.9114  -16.0293   21.4644 N   0  0  0  0  0  0  0  0  0  0  0  0
    9.2373  -14.6707   23.4703 C   0  0  0  0  0  0  0  0  0  0  0  0
   10.0847  -13.8972   24.0400 O   0  0  0  0  0  0  0  0  0  0  0  0
    5.4956  -13.1127   26.4472 C   0  0  0  0  0  0  0  0  0  0  0  0
    6.9111  -13.4505   26.1301 C   0  0  1  0  0  0  0  0  0  0  0  0
    7.7746  -12.4107   26.8418 C   0  0  0  0  0  0  0  0  0  0  0  0
    7.3550  -14.8252   26.4608 C   0  0  0  0  0  0  0  0  0  0  0  0
    8.6075  -15.3251   25.8309 C   0  0  2  0  0  0  0  0  0  0  0  0
    8.4727  -15.4543   24.3788 N   0  0  0  0  0  0  0  0  0  0  0  0
    9.0285  -16.6093   26.3810 C   0  0  0  0  0  0  0  0  0  0  0  0
    9.2230  -17.7866   25.6535 O   0  0  0  0  0  0  0  0  0  0  0  0
    9.2574  -16.7342   27.6327 O   0  0  0  0  0  0  0  0  0  0  0  0
  2  1  1  6
  3  2  1  0
  4  2  1  0
  4  5  1  0
  5  6  1  6
  7  8  2  0
  7  5  1  0
 10  9  1  6
 10 12  1  0
 11 10  1  0
 13 12  1  1
 13 14  1  0
 14  7  1  0
 15 13  1  0
 16 15  2  0
 18 17  1  1
 19 18  1  0
 20 18  1  0
 21 20  1  1
 21 22  1  0
 22 15  1  0
 23 21  1  0
 24 23  1  0
 25 23  2  0
M  END
$$$$
