LLL.pdb
     RDKit          3D

 25 24  0  0  1  0  0  0  0  0999 V2000
    7.8845  -21.1434   21.5725 C   0  0  0  0  0  0  0  0  0  0  0  0
    9.3767  -21.1433   21.8541 C   0  0  2  0  0  0  0  0  0  0  0  0
    9.6010  -22.0184   23.0691 C   0  0  0  0  0  0  0  0  0  0  0  0
    9.8763  -19.7495   22.1866 C   0  0  0  0  0  0  0  0  0  0  0  0
    9.5200  -18.8424   21.0354 C   0  0  2  0  0  0  0  0  0  0  0  0
   10.1004  -19.3144   19.8218 N   0  0  0  0  0  0  0  0  0  0  0  0
    9.8149  -17.4187   21.3177 C   0  0  0  0  0  0  0  0  0  0  0  0
   11.0188  -17.0593   21.3378 O   0  0  0  0  0  0  0  0  0  0  0  0
    8.7612  -13.1937   19.5165 C   0  0  0  0  0  0  0  0  0  0  0  0
    7.6483  -13.9554   20.2411 C   0  0  2  0  0  0  0  0  0  0  0  0
    6.3688  -13.1776   20.0589 C   0  0  0  0  0  0  0  0  0  0  0  0
    8.0786  -14.0984   21.6597 C   0  0  0  0  0  0  0  0  0  0  0  0
    9.1828  -15.0831   21.9089 C   0  0  2  0  0  0  0  0  0  0  0  0
    8.8677  -16.4283   21.5662 N   0  0  0  0  0  0  0  0  0  0  0  0
    9.8273  -14.9014   23.2164 C   0  0  0  0  0  0  0  0  0  0  0  0
   10.4306  -13.8182   23.5381 O   0  0  0  0  0  0  0  0  0  0  0  0
   10.2980  -13.4780   28.0592 C   0  0  0  0  0  0  0  0  0  0  0  0
    9.1103  -14.2528   27.6036 C   0  0  1  0  0  0  0  0  0  0  0  0
    7.8816  -13.4421   28.0114 C   0  0  0  0  0  0  0  0  0  0  0  0
    9.0603  -14.6050   26.1650 C   0  0  0  0  0  0  0  0  0  0  0  0
   10.0737  -15.5634   25.6451 C   0  0  2  0  0  0  0  0  0  0  0  0
    9.8408  -15.8920   24.2376 N   0  0  0  0  0  0  0  0  0  0  0  0
   10.1118  -16.8007   26.4177 C   0  0  0  0  0  0  0  0  0  0  0  0
   11.0211  -17.1019   27.4353 O   0  0  0  0  0  0  0  0  0  0  0  0
    9.2641  -17.7311   26.1931 O   0  0  0  0  0  0  0  0  0  0  0  0
  2  1  1  1
  3  2  1  0
  4  2  1  0
  4  5  1  0
  5  6  1  6
  7  8  2  0
  7  5  1  0
 10  9  1  6
 10 12  1  0
 11 10  1  0
 13 12  1  1
 13 14  1  0
 14  7  1  0
 15 13  1  0
 16 15  2  0
 18 17  1  6
 19 18  1  0
 20 18  1  0
 21 20  1  1
 21 22  1  0
 22 15  1  0
 23 21  1  0
 24 23  1  0
 25 23  2  0
M  END
$$$$
