EML.pdb
     RDKit          3D

 26 25  0  0  1  0  0  0  0  0999 V2000
   25.0314  -20.7022   -9.3320 N   0  0  0  0  0  0  0  0  0  0  0  0
   25.3309  -21.3530  -10.5080 C   0  0  1  0  0  0  0  0  0  0  0  0
   24.1573  -21.6794  -11.3800 C   0  0  0  0  0  0  0  0  0  0  0  0
   23.2005  -20.5595  -11.6121 C   0  0  0  0  0  0  0  0  0  0  0  0
   22.0160  -20.9681  -12.3498 C   0  0  0  0  0  0  0  0  0  0  0  0
   21.0858  -20.1931  -12.6450 O   0  0  0  0  0  0  0  0  0  0  0  0
   26.3210  -20.5378  -11.3252 C   0  0  0  0  0  0  0  0  0  0  0  0
   26.1898  -19.3012  -11.2839 O   0  0  0  0  0  0  0  0  0  0  0  0
   21.9038  -22.3183  -12.7598 O   0  0  0  0  0  0  0  0  0  0  0  0
   31.8413  -22.8524  -11.1465 C   0  0  0  0  0  0  0  0  0  0  0  0
   31.8326  -21.0465  -11.0263 S   0  0  0  0  0  0  0  0  0  0  0  0
   30.0975  -20.4721  -11.3082 C   0  0  0  0  0  0  0  0  0  0  0  0
   29.6946  -21.0944  -12.6218 C   0  0  0  0  0  0  0  0  0  0  0  0
   28.2757  -20.6547  -12.9264 C   0  0  2  0  0  0  0  0  0  0  0  0
   27.3099  -21.2177  -12.0667 N   0  0  0  0  0  0  0  0  0  0  0  0
   27.9035  -20.7014  -14.3306 C   0  0  0  0  0  0  0  0  0  0  0  0
   27.5120  -21.7565  -14.9160 O   0  0  0  0  0  0  0  0  0  0  0  0
   24.4738  -17.4517  -17.8143 C   0  0  0  0  0  0  0  0  0  0  0  0
   25.4387  -18.5629  -17.6250 C   0  0  2  0  0  0  0  0  0  0  0  0
   24.7158  -19.9097  -17.4132 C   0  0  0  0  0  0  0  0  0  0  0  0
   26.5358  -18.3891  -16.6561 C   0  0  0  0  0  0  0  0  0  0  0  0
   27.5663  -19.4264  -16.5074 C   0  0  2  0  0  0  0  0  0  0  0  0
   27.9821  -19.5083  -15.0840 N   0  0  0  0  0  0  0  0  0  0  0  0
   28.7434  -19.4305  -17.3589 C   0  0  0  0  0  0  0  0  0  0  0  0
   30.0144  -19.0516  -17.0150 O   0  0  0  0  0  0  0  0  0  0  0  0
   28.6072  -19.8207  -18.5738 O   0  0  0  0  0  0  0  0  0  0  0  0
  2  1  1  1
  3  2  1  0
  4  3  1  0
  5  4  1  0
  6  5  2  0
  7  2  1  0
  7  8  2  0
  9  5  1  0
 11 12  1  0
 11 10  1  0
 12 13  1  0
 14 13  1  6
 14 15  1  0
 15  7  1  0
 16 14  1  0
 17 16  2  0
 19 18  1  1
 19 21  1  0
 20 19  1  0
 22 21  1  1
 22 23  1  0
 22 24  1  0
 23 16  1  0
 24 25  1  0
 26 24  2  0
M  END
$$$$
