EML.pdb
     RDKit          3D

 26 25  0  0  1  0  0  0  0  0999 V2000
   26.3795  -19.5283  -16.7655 N   0  0  0  0  0  0  0  0  0  0  0  0
   25.8621  -18.9126  -15.6477 C   0  0  1  0  0  0  0  0  0  0  0  0
   24.9148  -17.7832  -15.9153 C   0  0  0  0  0  0  0  0  0  0  0  0
   25.4387  -16.7039  -16.8007 C   0  0  0  0  0  0  0  0  0  0  0  0
   24.9433  -16.7976  -18.1646 C   0  0  0  0  0  0  0  0  0  0  0  0
   24.8758  -17.8662  -18.8021 O   0  0  0  0  0  0  0  0  0  0  0  0
   25.1558  -19.9291  -14.7642 C   0  0  0  0  0  0  0  0  0  0  0  0
   24.5335  -20.8347  -15.3479 O   0  0  0  0  0  0  0  0  0  0  0  0
   24.5116  -15.6155  -18.8125 O   0  0  0  0  0  0  0  0  0  0  0  0
   25.6415  -19.5004   -8.1938 C   0  0  0  0  0  0  0  0  0  0  0  0
   25.2164  -21.2402   -8.4545 S   0  0  0  0  0  0  0  0  0  0  0  0
   24.3842  -21.3756  -10.1005 C   0  0  0  0  0  0  0  0  0  0  0  0
   25.2106  -20.5132  -11.0217 C   0  0  0  0  0  0  0  0  0  0  0  0
   24.5392  -20.5128  -12.3814 C   0  0  2  0  0  0  0  0  0  0  0  0
   25.2462  -19.7884  -13.3635 N   0  0  0  0  0  0  0  0  0  0  0  0
   23.1131  -20.2330  -12.3651 C   0  0  0  0  0  0  0  0  0  0  0  0
   22.6305  -19.0651  -12.2541 O   0  0  0  0  0  0  0  0  0  0  0  0
   20.8416  -20.3474  -16.2279 C   0  0  0  0  0  0  0  0  0  0  0  0
   20.6977  -21.2018  -15.0234 C   0  0  2  0  0  0  0  0  0  0  0  0
   19.8336  -22.4470  -15.3133 C   0  0  0  0  0  0  0  0  0  0  0  0
   20.3097  -20.5689  -13.7501 C   0  0  0  0  0  0  0  0  0  0  0  0
   20.7411  -21.1494  -12.4706 C   0  0  2  0  0  0  0  0  0  0  0  0
   22.2164  -21.3194  -12.4785 N   0  0  0  0  0  0  0  0  0  0  0  0
   20.1154  -22.3544  -11.9540 C   0  0  0  0  0  0  0  0  0  0  0  0
   18.8248  -22.4935  -11.5155 O   0  0  0  0  0  0  0  0  0  0  0  0
   20.8269  -23.4199  -11.8825 O   0  0  0  0  0  0  0  0  0  0  0  0
  2  1  1  6
  3  2  1  0
  4  3  1  0
  5  4  1  0
  6  5  2  0
  7  2  1  0
  7  8  2  0
  9  5  1  0
 11 12  1  0
 11 10  1  0
 12 13  1  0
 14 13  1  1
 14 15  1  0
 15  7  1  0
 16 14  1  0
 17 16  2  0
 19 18  1  6
 19 21  1  0
 20 19  1  0
 22 21  1  6
 22 23  1  0
 22 24  1  0
 23 16  1  0
 24 25  1  0
 26 24  2  0
M  END
$$$$
