EML.pdb
     RDKit          3D

 26 25  0  0  1  0  0  0  0  0999 V2000
   27.5781  -22.1347  -15.7909 N   0  0  0  0  0  0  0  0  0  0  0  0
   27.4617  -21.1035  -14.8858 C   0  0  1  0  0  0  0  0  0  0  0  0
   27.0589  -19.7816  -15.4643 C   0  0  0  0  0  0  0  0  0  0  0  0
   26.9567  -19.7375  -16.9512 C   0  0  0  0  0  0  0  0  0  0  0  0
   28.2231  -19.4363  -17.5990 C   0  0  0  0  0  0  0  0  0  0  0  0
   28.6823  -18.2834  -17.7137 O   0  0  0  0  0  0  0  0  0  0  0  0
   26.4689  -21.4692  -13.7935 C   0  0  0  0  0  0  0  0  0  0  0  0
   25.4802  -22.1388  -14.1433 O   0  0  0  0  0  0  0  0  0  0  0  0
   28.9839  -20.5045  -18.1317 O   0  0  0  0  0  0  0  0  0  0  0  0
   27.8516  -20.6830   -7.5209 C   0  0  0  0  0  0  0  0  0  0  0  0
   26.1779  -19.9949   -7.4932 S   0  0  0  0  0  0  0  0  0  0  0  0
   25.3324  -20.5083   -9.0558 C   0  0  0  0  0  0  0  0  0  0  0  0
   26.4190  -20.5000  -10.1020 C   0  0  0  0  0  0  0  0  0  0  0  0
   25.7922  -20.9001  -11.4235 C   0  0  2  0  0  0  0  0  0  0  0  0
   26.7222  -21.0368  -12.4748 N   0  0  0  0  0  0  0  0  0  0  0  0
   24.6014  -20.1531  -11.7927 C   0  0  0  0  0  0  0  0  0  0  0  0
   24.6334  -18.9860  -12.2888 O   0  0  0  0  0  0  0  0  0  0  0  0
   20.0648  -20.7544  -14.6730 C   0  0  0  0  0  0  0  0  0  0  0  0
   21.3599  -20.0350  -14.7545 C   0  0  2  0  0  0  0  0  0  0  0  0
   21.9135  -20.0282  -16.1949 C   0  0  0  0  0  0  0  0  0  0  0  0
   22.4150  -20.3662  -13.7800 C   0  0  0  0  0  0  0  0  0  0  0  0
   22.1241  -20.3579  -12.3393 C   0  0  2  0  0  0  0  0  0  0  0  0
   23.3409  -20.7585  -11.5880 N   0  0  0  0  0  0  0  0  0  0  0  0
   20.9711  -21.0664  -11.8110 C   0  0  0  0  0  0  0  0  0  0  0  0
   19.7333  -20.5455  -11.5394 O   0  0  0  0  0  0  0  0  0  0  0  0
   21.0978  -22.3175  -11.5546 O   0  0  0  0  0  0  0  0  0  0  0  0
  2  1  1  6
  3  2  1  0
  4  3  1  0
  5  4  1  0
  6  5  2  0
  7  2  1  0
  7  8  2  0
  9  5  1  0
 11 12  1  0
 11 10  1  0
 12 13  1  0
 14 13  1  1
 14 15  1  0
 15  7  1  0
 16 14  1  0
 17 16  2  0
 19 18  1  6
 19 21  1  0
 20 19  1  0
 22 21  1  6
 22 23  1  0
 22 24  1  0
 23 16  1  0
 24 25  1  0
 26 24  2  0
M  END
$$$$
