EML.pdb
     RDKit          3D

 26 25  0  0  1  0  0  0  0  0999 V2000
   28.1115  -21.4987  -12.6790 N   0  0  0  0  0  0  0  0  0  0  0  0
   28.0640  -20.1240  -12.7436 C   0  0  1  0  0  0  0  0  0  0  0  0
   27.8525  -19.5508  -14.1115 C   0  0  0  0  0  0  0  0  0  0  0  0
   27.3261  -20.5032  -15.1308 C   0  0  0  0  0  0  0  0  0  0  0  0
   27.2041  -19.9102  -16.4528 C   0  0  0  0  0  0  0  0  0  0  0  0
   27.4515  -18.7136  -16.6976 O   0  0  0  0  0  0  0  0  0  0  0  0
   26.9738  -19.5897  -11.8280 C   0  0  0  0  0  0  0  0  0  0  0  0
   26.2703  -18.6687  -12.2808 O   0  0  0  0  0  0  0  0  0  0  0  0
   26.7820  -20.7290  -17.5276 O   0  0  0  0  0  0  0  0  0  0  0  0
   21.4786  -21.7577  -10.9009 C   0  0  0  0  0  0  0  0  0  0  0  0
   22.3550  -20.7877  -12.1525 S   0  0  0  0  0  0  0  0  0  0  0  0
   23.7458  -19.9070  -11.3098 C   0  0  0  0  0  0  0  0  0  0  0  0
   24.5234  -20.9947  -10.6116 C   0  0  0  0  0  0  0  0  0  0  0  0
   25.6324  -20.3333   -9.8164 C   0  0  2  0  0  0  0  0  0  0  0  0
   26.8269  -20.1582  -10.5453 N   0  0  0  0  0  0  0  0  0  0  0  0
   25.8380  -20.8692   -8.4811 C   0  0  0  0  0  0  0  0  0  0  0  0
   25.7806  -22.1065   -8.2073 O   0  0  0  0  0  0  0  0  0  0  0  0
   30.8503  -21.3258   -7.0427 C   0  0  0  0  0  0  0  0  0  0  0  0
   29.6169  -20.9414   -6.3128 C   0  0  2  0  0  0  0  0  0  0  0  0
   29.3611  -21.8693   -5.1067 C   0  0  0  0  0  0  0  0  0  0  0  0
   28.3807  -20.7163   -7.0834 C   0  0  0  0  0  0  0  0  0  0  0  0
   27.1730  -20.2080   -6.4176 C   0  0  2  0  0  0  0  0  0  0  0  0
   26.1161  -19.9641   -7.4320 N   0  0  0  0  0  0  0  0  0  0  0  0
   27.2466  -19.0760   -5.5101 C   0  0  0  0  0  0  0  0  0  0  0  0
   27.6128  -19.0967   -4.1899 O   0  0  0  0  0  0  0  0  0  0  0  0
   26.9339  -17.9175   -5.9648 O   0  0  0  0  0  0  0  0  0  0  0  0
  2  1  1  6
  3  2  1  0
  4  3  1  0
  5  4  1  0
  6  5  2  0
  7  2  1  0
  7  8  2  0
  9  5  1  0
 11 12  1  0
 11 10  1  0
 12 13  1  0
 14 13  1  6
 14 15  1  0
 15  7  1  0
 16 14  1  0
 17 16  2  0
 19 18  1  6
 19 21  1  0
 20 19  1  0
 22 21  1  6
 22 23  1  0
 22 24  1  0
 23 16  1  0
 24 25  1  0
 26 24  2  0
M  END
$$$$
