EML.pdb
     RDKit          3D

 26 25  0  0  1  0  0  0  0  0999 V2000
   37.8333  -28.5536    3.4591 N   0  0  0  0  0  0  0  0  0  0  0  0
   36.4879  -28.2791    3.5623 C   0  0  1  0  0  0  0  0  0  0  0  0
   35.5723  -29.4290    3.2728 C   0  0  0  0  0  0  0  0  0  0  0  0
   35.5998  -29.9322    1.8694 C   0  0  0  0  0  0  0  0  0  0  0  0
   34.7730  -31.1120    1.6727 C   0  0  0  0  0  0  0  0  0  0  0  0
   34.1803  -31.7010    2.5972 O   0  0  0  0  0  0  0  0  0  0  0  0
   36.1624  -27.7470    4.9492 C   0  0  0  0  0  0  0  0  0  0  0  0
   36.8073  -28.2330    5.8959 O   0  0  0  0  0  0  0  0  0  0  0  0
   34.6270  -31.6276    0.3625 O   0  0  0  0  0  0  0  0  0  0  0  0
   33.5921  -21.8598    7.0079 C   0  0  0  0  0  0  0  0  0  0  0  0
   34.5192  -22.2025    5.4918 S   0  0  0  0  0  0  0  0  0  0  0  0
   35.2724  -23.8830    5.6604 C   0  0  0  0  0  0  0  0  0  0  0  0
   34.1330  -24.7745    6.0876 C   0  0  0  0  0  0  0  0  0  0  0  0
   34.6843  -26.1753    6.2696 C   0  0  2  0  0  0  0  0  0  0  0  0
   35.1689  -26.7539    5.0783 N   0  0  0  0  0  0  0  0  0  0  0  0
   33.8494  -27.0697    7.0540 C   0  0  0  0  0  0  0  0  0  0  0  0
   33.0002  -27.8618    6.5433 O   0  0  0  0  0  0  0  0  0  0  0  0
   34.5800  -30.6094    9.4527 C   0  0  0  0  0  0  0  0  0  0  0  0
   34.9497  -29.4020   10.2319 C   0  0  2  0  0  0  0  0  0  0  0  0
   35.6877  -29.7739   11.5351 C   0  0  0  0  0  0  0  0  0  0  0  0
   33.9199  -28.3764   10.4771 C   0  0  0  0  0  0  0  0  0  0  0  0
   33.1182  -27.8483    9.3641 C   0  0  2  0  0  0  0  0  0  0  0  0
   33.9906  -27.0562    8.4601 N   0  0  0  0  0  0  0  0  0  0  0  0
   31.8885  -27.1173    9.6168 C   0  0  0  0  0  0  0  0  0  0  0  0
   30.6780  -27.6390    9.9908 O   0  0  0  0  0  0  0  0  0  0  0  0
   31.9055  -25.8418    9.4759 O   0  0  0  0  0  0  0  0  0  0  0  0
  2  1  1  1
  3  2  1  0
  4  3  1  0
  5  4  1  0
  6  5  2  0
  7  2  1  0
  7  8  2  0
  9  5  1  0
 11 12  1  0
 11 10  1  0
 12 13  1  0
 14 13  1  6
 14 15  1  0
 15  7  1  0
 16 14  1  0
 17 16  2  0
 19 18  1  1
 19 21  1  0
 20 19  1  0
 22 21  1  1
 22 23  1  0
 22 24  1  0
 23 16  1  0
 24 25  1  0
 26 24  2  0
M  END
$$$$
