EML.pdb
     RDKit          3D

 26 25  0  0  1  0  0  0  0  0999 V2000
   25.4071  -20.7009  -13.7875 N   0  0  0  0  0  0  0  0  0  0  0  0
   25.1053  -19.8889  -12.7171 C   0  0  1  0  0  0  0  0  0  0  0  0
   23.6465  -19.6257  -12.5001 C   0  0  0  0  0  0  0  0  0  0  0  0
   22.7572  -20.8174  -12.6100 C   0  0  0  0  0  0  0  0  0  0  0  0
   21.3470  -20.4880  -12.4788 C   0  0  0  0  0  0  0  0  0  0  0  0
   20.4412  -21.3422  -12.4247 O   0  0  0  0  0  0  0  0  0  0  0  0
   25.6817  -20.4691  -11.4351 C   0  0  0  0  0  0  0  0  0  0  0  0
   25.8214  -21.7049  -11.3985 O   0  0  0  0  0  0  0  0  0  0  0  0
   20.9722  -19.1248  -12.4078 O   0  0  0  0  0  0  0  0  0  0  0  0
   29.6914  -18.4008   -5.0028 C   0  0  0  0  0  0  0  0  0  0  0  0
   28.8332  -17.8441   -6.4958 S   0  0  0  0  0  0  0  0  0  0  0  0
   27.9680  -19.3065   -7.2259 C   0  0  0  0  0  0  0  0  0  0  0  0
   27.2282  -18.7590   -8.4210 C   0  0  0  0  0  0  0  0  0  0  0  0
   26.5634  -19.9244   -9.1276 C   0  0  2  0  0  0  0  0  0  0  0  0
   26.0176  -19.5899  -10.3842 N   0  0  0  0  0  0  0  0  0  0  0  0
   25.6737  -20.7214   -8.2996 C   0  0  0  0  0  0  0  0  0  0  0  0
   24.4425  -20.4596   -8.1423 O   0  0  0  0  0  0  0  0  0  0  0  0
   26.9987  -19.7929   -3.3501 C   0  0  0  0  0  0  0  0  0  0  0  0
   26.9418  -21.1380   -3.9737 C   0  0  2  0  0  0  0  0  0  0  0  0
   27.9277  -22.1157   -3.3003 C   0  0  0  0  0  0  0  0  0  0  0  0
   27.0105  -21.2396   -5.4425 C   0  0  0  0  0  0  0  0  0  0  0  0
   26.0461  -22.0724   -6.1751 C   0  0  2  0  0  0  0  0  0  0  0  0
   26.2084  -21.8477   -7.6341 N   0  0  0  0  0  0  0  0  0  0  0  0
   24.6344  -22.0479   -5.8332 C   0  0  0  0  0  0  0  0  0  0  0  0
   23.6059  -21.5670   -6.6002 O   0  0  0  0  0  0  0  0  0  0  0  0
   24.2825  -22.5153   -4.6911 O   0  0  0  0  0  0  0  0  0  0  0  0
  2  1  1  6
  3  2  1  0
  4  3  1  0
  5  4  1  0
  6  5  2  0
  7  2  1  0
  7  8  2  0
  9  5  1  0
 11 12  1  0
 11 10  1  0
 12 13  1  0
 14 13  1  1
 14 15  1  0
 15  7  1  0
 16 14  1  0
 17 16  2  0
 19 18  1  6
 19 21  1  0
 20 19  1  0
 22 21  1  1
 22 23  1  0
 22 24  1  0
 23 16  1  0
 24 25  1  0
 26 24  2  0
M  END
$$$$
