EML.pdb
     RDKit          3D

 26 25  0  0  1  0  0  0  0  0999 V2000
   28.3309  -19.6330  -15.9903 N   0  0  0  0  0  0  0  0  0  0  0  0
   27.9380  -19.3427  -14.7029 C   0  0  1  0  0  0  0  0  0  0  0  0
   26.6082  -18.6650  -14.5730 C   0  0  0  0  0  0  0  0  0  0  0  0
   25.4238  -19.5104  -14.8984 C   0  0  0  0  0  0  0  0  0  0  0  0
   24.1682  -18.7807  -14.8273 C   0  0  0  0  0  0  0  0  0  0  0  0
   24.0957  -17.5452  -14.6809 O   0  0  0  0  0  0  0  0  0  0  0  0
   27.9132  -20.6084  -13.8603 C   0  0  0  0  0  0  0  0  0  0  0  0
   27.3972  -21.6131  -14.3824 O   0  0  0  0  0  0  0  0  0  0  0  0
   22.9559  -19.5043  -14.9290 O   0  0  0  0  0  0  0  0  0  0  0  0
   32.3099  -22.1425   -9.5084 C   0  0  0  0  0  0  0  0  0  0  0  0
   32.5963  -22.2081  -11.2943 S   0  0  0  0  0  0  0  0  0  0  0  0
   30.9500  -22.1164  -12.1320 C   0  0  0  0  0  0  0  0  0  0  0  0
   29.9809  -21.7468  -11.0367 C   0  0  0  0  0  0  0  0  0  0  0  0
   28.6008  -21.6415  -11.6560 C   0  0  2  0  0  0  0  0  0  0  0  0
   28.4656  -20.5698  -12.5628 N   0  0  0  0  0  0  0  0  0  0  0  0
   27.4944  -21.7559  -10.7204 C   0  0  0  0  0  0  0  0  0  0  0  0
   27.2928  -22.7782   -9.9969 O   0  0  0  0  0  0  0  0  0  0  0  0
   26.7640  -18.8715   -6.2893 C   0  0  0  0  0  0  0  0  0  0  0  0
   26.3852  -19.9452   -7.2408 C   0  0  2  0  0  0  0  0  0  0  0  0
   27.4738  -21.0355   -7.3259 C   0  0  0  0  0  0  0  0  0  0  0  0
   25.9064  -19.5645   -8.5819 C   0  0  0  0  0  0  0  0  0  0  0  0
   25.5459  -20.5982   -9.5626 C   0  0  2  0  0  0  0  0  0  0  0  0
   26.5953  -20.6710  -10.6109 N   0  0  0  0  0  0  0  0  0  0  0  0
   24.2340  -20.6038  -10.1865 C   0  0  0  0  0  0  0  0  0  0  0  0
   23.0455  -20.9678   -9.6102 O   0  0  0  0  0  0  0  0  0  0  0  0
   24.1486  -20.2388  -11.4139 O   0  0  0  0  0  0  0  0  0  0  0  0
  2  1  1  6
  3  2  1  0
  4  3  1  0
  5  4  1  0
  6  5  2  0
  7  2  1  0
  7  8  2  0
  9  5  1  0
 11 12  1  0
 11 10  1  0
 12 13  1  0
 14 13  1  1
 14 15  1  0
 15  7  1  0
 16 14  1  0
 17 16  2  0
 19 18  1  6
 19 21  1  0
 20 19  1  0
 22 21  1  6
 22 23  1  0
 22 24  1  0
 23 16  1  0
 24 25  1  0
 26 24  2  0
M  END
$$$$
