EML.pdb
     RDKit          3D

 26 25  0  0  1  0  0  0  0  0999 V2000
   19.6006  -23.9203   -9.1064 N   0  0  0  0  0  0  0  0  0  0  0  0
   18.5519  -24.7344   -8.7408 C   0  0  1  0  0  0  0  0  0  0  0  0
   18.6159  -26.1385   -9.2592 C   0  0  0  0  0  0  0  0  0  0  0  0
   18.4725  -26.2832  -10.7363 C   0  0  0  0  0  0  0  0  0  0  0  0
   17.1273  -25.9955  -11.2073 C   0  0  0  0  0  0  0  0  0  0  0  0
   16.8491  -25.0418  -11.9598 O   0  0  0  0  0  0  0  0  0  0  0  0
   18.4295  -24.7897   -7.2261 C   0  0  0  0  0  0  0  0  0  0  0  0
   19.4870  -24.6826   -6.5792 O   0  0  0  0  0  0  0  0  0  0  0  0
   16.0685  -26.8393  -10.7941 O   0  0  0  0  0  0  0  0  0  0  0  0
   13.4037  -23.4801   -1.3852 C   0  0  0  0  0  0  0  0  0  0  0  0
   13.6963  -23.4948   -3.1712 S   0  0  0  0  0  0  0  0  0  0  0  0
   15.3480  -24.2733   -3.4645 C   0  0  0  0  0  0  0  0  0  0  0  0
   15.4963  -24.3080   -4.9652 C   0  0  0  0  0  0  0  0  0  0  0  0
   16.8191  -24.9770   -5.2843 C   0  0  2  0  0  0  0  0  0  0  0  0
   17.1502  -24.9555   -6.6550 N   0  0  0  0  0  0  0  0  0  0  0  0
   17.0230  -26.2717   -4.6561 C   0  0  0  0  0  0  0  0  0  0  0  0
   16.6146  -27.3639   -5.1557 O   0  0  0  0  0  0  0  0  0  0  0  0
   18.8413  -29.1877   -0.1444 C   0  0  0  0  0  0  0  0  0  0  0  0
   19.7399  -28.6313   -1.1858 C   0  0  2  0  0  0  0  0  0  0  0  0
   21.1505  -28.3526   -0.6256 C   0  0  0  0  0  0  0  0  0  0  0  0
   19.2597  -27.5039   -2.0049 C   0  0  0  0  0  0  0  0  0  0  0  0
   17.9587  -27.5810   -2.6843 C   0  0  2  0  0  0  0  0  0  0  0  0
   17.7123  -26.3165   -3.4232 N   0  0  0  0  0  0  0  0  0  0  0  0
   16.7612  -27.9586   -1.9537 C   0  0  0  0  0  0  0  0  0  0  0  0
   15.9901  -27.1537   -1.1569 O   0  0  0  0  0  0  0  0  0  0  0  0
   16.3610  -29.1749   -2.0396 O   0  0  0  0  0  0  0  0  0  0  0  0
  2  1  1  1
  3  2  1  0
  4  3  1  0
  5  4  1  0
  6  5  2  0
  7  2  1  0
  7  8  2  0
  9  5  1  0
 11 12  1  0
 11 10  1  0
 12 13  1  0
 14 13  1  6
 14 15  1  0
 15  7  1  0
 16 14  1  0
 17 16  2  0
 19 18  1  1
 19 21  1  0
 20 19  1  0
 22 21  1  1
 22 23  1  0
 22 24  1  0
 23 16  1  0
 24 25  1  0
 26 24  2  0
M  END
$$$$
