EML.pdb
     RDKit          3D

 26 25  0  0  1  0  0  0  0  0999 V2000
   19.2294  -12.7587  -18.2177 N   0  0  0  0  0  0  0  0  0  0  0  0
   18.9962  -12.1610  -16.9992 C   0  0  1  0  0  0  0  0  0  0  0  0
   18.0754  -12.9066  -16.0823 C   0  0  0  0  0  0  0  0  0  0  0  0
   18.0631  -14.3879  -16.2523 C   0  0  0  0  0  0  0  0  0  0  0  0
   17.2030  -15.0626  -15.2936 C   0  0  0  0  0  0  0  0  0  0  0  0
   17.0588  -16.2996  -15.2473 O   0  0  0  0  0  0  0  0  0  0  0  0
   20.3082  -11.9228  -16.2682 C   0  0  0  0  0  0  0  0  0  0  0  0
   21.0780  -12.8961  -16.1773 O   0  0  0  0  0  0  0  0  0  0  0  0
   16.4857  -14.2802  -14.3571 O   0  0  0  0  0  0  0  0  0  0  0  0
   26.5105  -10.5508  -15.2442 C   0  0  0  0  0  0  0  0  0  0  0  0
   24.8578  -11.0626  -15.7756 S   0  0  0  0  0  0  0  0  0  0  0  0
   24.0468   -9.6049  -16.5740 C   0  0  0  0  0  0  0  0  0  0  0  0
   22.6536  -10.0755  -16.9099 C   0  0  0  0  0  0  0  0  0  0  0  0
   21.8196   -9.9920  -15.6463 C   0  0  2  0  0  0  0  0  0  0  0  0
   20.5701  -10.6383  -15.7469 N   0  0  0  0  0  0  0  0  0  0  0  0
   21.7457   -8.6722  -15.0421 C   0  0  0  0  0  0  0  0  0  0  0  0
   22.2299   -8.3964  -13.9025 O   0  0  0  0  0  0  0  0  0  0  0  0
   21.4766   -3.9547  -13.2477 C   0  0  0  0  0  0  0  0  0  0  0  0
   22.4824   -4.4500  -14.2198 C   0  0  2  0  0  0  0  0  0  0  0  0
   22.7568   -3.4119  -15.3281 C   0  0  0  0  0  0  0  0  0  0  0  0
   22.3136   -5.8008  -14.7850 C   0  0  0  0  0  0  0  0  0  0  0  0
   20.9953   -6.2496  -15.2549 C   0  0  2  0  0  0  0  0  0  0  0  0
   21.0999   -7.6416  -15.7618 N   0  0  0  0  0  0  0  0  0  0  0  0
   20.2289   -5.4469  -16.1925 C   0  0  0  0  0  0  0  0  0  0  0  0
   20.1684   -5.5967  -17.5530 O   0  0  0  0  0  0  0  0  0  0  0  0
   19.5268   -4.4799  -15.7247 O   0  0  0  0  0  0  0  0  0  0  0  0
  2  1  1  6
  3  2  1  0
  4  3  1  0
  5  4  1  0
  6  5  2  0
  7  2  1  0
  7  8  2  0
  9  5  1  0
 11 12  1  0
 11 10  1  0
 12 13  1  0
 14 13  1  6
 14 15  1  0
 15  7  1  0
 16 14  1  0
 17 16  2  0
 19 18  1  6
 19 21  1  0
 20 19  1  0
 22 21  1  6
 22 23  1  0
 22 24  1  0
 23 16  1  0
 24 25  1  0
 26 24  2  0
M  END
$$$$
