EML.pdb
     RDKit          3D

 26 25  0  0  1  0  0  0  0  0999 V2000
   29.5467  -20.5432  -17.1904 N   0  0  0  0  0  0  0  0  0  0  0  0
   28.1972  -20.5732  -16.9179 C   0  0  1  0  0  0  0  0  0  0  0  0
   27.3352  -21.1523  -17.9977 C   0  0  0  0  0  0  0  0  0  0  0  0
   26.1899  -20.3006  -18.4291 C   0  0  0  0  0  0  0  0  0  0  0  0
   24.9370  -20.6661  -17.7882 C   0  0  0  0  0  0  0  0  0  0  0  0
   24.5206  -21.8378  -17.7056 O   0  0  0  0  0  0  0  0  0  0  0  0
   27.9349  -21.3431  -15.6330 C   0  0  0  0  0  0  0  0  0  0  0  0
   28.1957  -22.5596  -15.6515 O   0  0  0  0  0  0  0  0  0  0  0  0
   24.1392  -19.6421  -17.2240 O   0  0  0  0  0  0  0  0  0  0  0  0
   31.7582  -22.1226   -9.7558 C   0  0  0  0  0  0  0  0  0  0  0  0
   31.3700  -21.3831  -11.3614 S   0  0  0  0  0  0  0  0  0  0  0  0
   29.5321  -21.4122  -11.5648 C   0  0  0  0  0  0  0  0  0  0  0  0
   29.2880  -20.8436  -12.9405 C   0  0  0  0  0  0  0  0  0  0  0  0
   27.7890  -20.8044  -13.1658 C   0  0  2  0  0  0  0  0  0  0  0  0
   27.4221  -20.6470  -14.5184 N   0  0  0  0  0  0  0  0  0  0  0  0
   27.0510  -19.9422  -12.2579 C   0  0  0  0  0  0  0  0  0  0  0  0
   26.8093  -18.7197  -12.4953 O   0  0  0  0  0  0  0  0  0  0  0  0
   22.8408  -19.1343  -12.0303 C   0  0  0  0  0  0  0  0  0  0  0  0
   23.5585  -20.2473  -12.6994 C   0  0  2  0  0  0  0  0  0  0  0  0
   22.6155  -21.0625  -13.6089 C   0  0  0  0  0  0  0  0  0  0  0  0
   24.4080  -21.1327  -11.8827 C   0  0  0  0  0  0  0  0  0  0  0  0
   25.1329  -20.6008  -10.7201 C   0  0  2  0  0  0  0  0  0  0  0  0
   26.5779  -20.4945  -11.0461 N   0  0  0  0  0  0  0  0  0  0  0  0
   24.9735  -21.2024   -9.4074 C   0  0  0  0  0  0  0  0  0  0  0  0
   25.8177  -22.0927   -8.7975 O   0  0  0  0  0  0  0  0  0  0  0  0
   23.9340  -20.8895   -8.7231 O   0  0  0  0  0  0  0  0  0  0  0  0
  2  1  1  6
  3  2  1  0
  4  3  1  0
  5  4  1  0
  6  5  2  0
  7  2  1  0
  7  8  2  0
  9  5  1  0
 11 12  1  0
 11 10  1  0
 12 13  1  0
 14 13  1  6
 14 15  1  0
 15  7  1  0
 16 14  1  0
 17 16  2  0
 19 18  1  1
 19 21  1  0
 20 19  1  0
 22 21  1  6
 22 23  1  0
 22 24  1  0
 23 16  1  0
 24 25  1  0
 26 24  2  0
M  END
$$$$
