EML.pdb
     RDKit          3D

 26 25  0  0  1  0  0  0  0  0999 V2000
   20.9217  -23.7778  -14.2663 N   0  0  0  0  0  0  0  0  0  0  0  0
   20.1340  -22.7770  -13.7426 C   0  0  1  0  0  0  0  0  0  0  0  0
   19.3856  -23.1335  -12.4946 C   0  0  0  0  0  0  0  0  0  0  0  0
   18.5390  -24.3576  -12.5829 C   0  0  0  0  0  0  0  0  0  0  0  0
   17.3301  -24.1570  -13.3656 C   0  0  0  0  0  0  0  0  0  0  0  0
   17.0263  -24.8501  -14.3557 O   0  0  0  0  0  0  0  0  0  0  0  0
   20.9711  -21.5392  -13.4604 C   0  0  0  0  0  0  0  0  0  0  0  0
   20.3788  -20.5741  -12.9447 O   0  0  0  0  0  0  0  0  0  0  0  0
   16.4428  -23.1199  -12.9902 O   0  0  0  0  0  0  0  0  0  0  0  0
   26.8579  -20.5330  -10.3898 C   0  0  0  0  0  0  0  0  0  0  0  0
   26.1538  -21.9815  -11.2157 S   0  0  0  0  0  0  0  0  0  0  0  0
   24.4474  -21.5373  -11.7732 C   0  0  0  0  0  0  0  0  0  0  0  0
   24.6319  -20.9593  -13.1542 C   0  0  0  0  0  0  0  0  0  0  0  0
   23.2727  -20.5077  -13.6524 C   0  0  2  0  0  0  0  0  0  0  0  0
   22.3419  -21.5577  -13.7930 N   0  0  0  0  0  0  0  0  0  0  0  0
   23.3020  -19.5995  -14.7867 C   0  0  0  0  0  0  0  0  0  0  0  0
   24.0606  -18.5848  -14.8512 O   0  0  0  0  0  0  0  0  0  0  0  0
   24.9052  -19.4591  -18.7173 C   0  0  0  0  0  0  0  0  0  0  0  0
   23.7030  -20.3288  -18.7150 C   0  0  2  0  0  0  0  0  0  0  0  0
   23.5551  -21.0928  -20.0475 C   0  0  0  0  0  0  0  0  0  0  0  0
   22.4157  -19.7541  -18.2847 C   0  0  0  0  0  0  0  0  0  0  0  0
   22.3327  -18.9592  -17.0513 C   0  0  2  0  0  0  0  0  0  0  0  0
   22.4396  -19.8601  -15.8755 N   0  0  0  0  0  0  0  0  0  0  0  0
   21.2444  -18.0189  -16.8462 C   0  0  0  0  0  0  0  0  0  0  0  0
   21.1588  -16.7365  -17.3207 O   0  0  0  0  0  0  0  0  0  0  0  0
   20.2422  -18.4012  -16.1417 O   0  0  0  0  0  0  0  0  0  0  0  0
  2  1  1  1
  3  2  1  0
  4  3  1  0
  5  4  1  0
  6  5  2  0
  7  2  1  0
  7  8  2  0
  9  5  1  0
 11 12  1  0
 11 10  1  0
 12 13  1  0
 14 13  1  6
 14 15  1  0
 15  7  1  0
 16 14  1  0
 17 16  2  0
 19 18  1  6
 19 21  1  0
 20 19  1  0
 22 21  1  6
 22 23  1  0
 22 24  1  0
 23 16  1  0
 24 25  1  0
 26 24  2  0
M  END
$$$$
