EML.pdb
     RDKit          3D

 26 25  0  0  1  0  0  0  0  0999 V2000
   27.6335  -21.6460  -14.6094 N   0  0  0  0  0  0  0  0  0  0  0  0
   27.9154  -20.9022  -13.4853 C   0  0  1  0  0  0  0  0  0  0  0  0
   28.0179  -19.4232  -13.7011 C   0  0  0  0  0  0  0  0  0  0  0  0
   26.8899  -18.8063  -14.4563 C   0  0  0  0  0  0  0  0  0  0  0  0
   27.2250  -18.5155  -15.8410 C   0  0  0  0  0  0  0  0  0  0  0  0
   28.3153  -18.8160  -16.3646 O   0  0  0  0  0  0  0  0  0  0  0  0
   26.8721  -21.1565  -12.4086 C   0  0  0  0  0  0  0  0  0  0  0  0
   25.7431  -21.5034  -12.8002 O   0  0  0  0  0  0  0  0  0  0  0  0
   26.2669  -17.8550  -16.6469 O   0  0  0  0  0  0  0  0  0  0  0  0
   27.0759  -18.8831   -5.0496 C   0  0  0  0  0  0  0  0  0  0  0  0
   27.7230  -20.0956   -6.2273 S   0  0  0  0  0  0  0  0  0  0  0  0
   26.6511  -20.0449   -7.7334 C   0  0  0  0  0  0  0  0  0  0  0  0
   27.1687  -21.1565   -8.6119 C   0  0  0  0  0  0  0  0  0  0  0  0
   26.4079  -21.1030   -9.9226 C   0  0  2  0  0  0  0  0  0  0  0  0
   27.2382  -20.9878  -11.0567 N   0  0  0  0  0  0  0  0  0  0  0  0
   25.2704  -20.1984   -9.9391 C   0  0  0  0  0  0  0  0  0  0  0  0
   25.3707  -18.9520  -10.1526 O   0  0  0  0  0  0  0  0  0  0  0  0
   22.4626  -20.5143  -14.4035 C   0  0  0  0  0  0  0  0  0  0  0  0
   22.1494  -20.1838  -12.9913 C   0  0  2  0  0  0  0  0  0  0  0  0
   21.6327  -18.7366  -12.8503 C   0  0  0  0  0  0  0  0  0  0  0  0
   23.1489  -20.4959  -11.9539 C   0  0  0  0  0  0  0  0  0  0  0  0
   22.8018  -20.3824  -10.5303 C   0  0  2  0  0  0  0  0  0  0  0  0
   23.9845  -20.7356   -9.7044 N   0  0  0  0  0  0  0  0  0  0  0  0
   21.6225  -21.0440   -9.9990 C   0  0  0  0  0  0  0  0  0  0  0  0
   21.5825  -22.2029   -9.2693 O   0  0  0  0  0  0  0  0  0  0  0  0
   20.4778  -20.5110  -10.2279 O   0  0  0  0  0  0  0  0  0  0  0  0
  2  1  1  6
  3  2  1  0
  4  3  1  0
  5  4  1  0
  6  5  2  0
  7  2  1  0
  7  8  2  0
  9  5  1  0
 11 12  1  0
 11 10  1  0
 12 13  1  0
 14 13  1  1
 14 15  1  0
 15  7  1  0
 16 14  1  0
 17 16  2  0
 19 18  1  6
 19 21  1  0
 20 19  1  0
 22 21  1  6
 22 23  1  0
 22 24  1  0
 23 16  1  0
 24 25  1  0
 26 24  2  0
M  END
$$$$
