EML.pdb
     RDKit          3D

 26 25  0  0  1  0  0  0  0  0999 V2000
   26.5567  -23.3301  -16.4512 N   0  0  0  0  0  0  0  0  0  0  0  0
   26.7089  -22.1512  -15.7559 C   0  0  1  0  0  0  0  0  0  0  0  0
   26.5263  -20.9010  -16.5609 C   0  0  0  0  0  0  0  0  0  0  0  0
   27.4417  -20.7513  -17.7283 C   0  0  0  0  0  0  0  0  0  0  0  0
   27.1667  -19.5610  -18.5168 C   0  0  0  0  0  0  0  0  0  0  0  0
   26.1490  -19.4207  -19.2222 O   0  0  0  0  0  0  0  0  0  0  0  0
   25.7484  -22.1053  -14.5778 C   0  0  0  0  0  0  0  0  0  0  0  0
   24.6498  -22.6681  -14.7348 O   0  0  0  0  0  0  0  0  0  0  0  0
   28.1002  -18.4973  -18.4882 O   0  0  0  0  0  0  0  0  0  0  0  0
   25.2249  -20.2735   -6.9460 C   0  0  0  0  0  0  0  0  0  0  0  0
   26.2476  -20.1900   -8.4369 S   0  0  0  0  0  0  0  0  0  0  0  0
   25.2134  -20.7573   -9.8612 C   0  0  0  0  0  0  0  0  0  0  0  0
   26.1713  -20.8409  -11.0235 C   0  0  0  0  0  0  0  0  0  0  0  0
   25.3624  -21.1467  -12.2690 C   0  0  2  0  0  0  0  0  0  0  0  0
   26.1513  -21.4410  -13.4003 N   0  0  0  0  0  0  0  0  0  0  0  0
   24.2757  -20.2207  -12.5416 C   0  0  0  0  0  0  0  0  0  0  0  0
   24.4372  -19.1031  -13.1196 O   0  0  0  0  0  0  0  0  0  0  0  0
   19.6626  -19.8739  -14.9591 C   0  0  0  0  0  0  0  0  0  0  0  0
   20.9932  -20.3745  -15.3840 C   0  0  2  0  0  0  0  0  0  0  0  0
   20.8652  -21.5498  -16.3756 C   0  0  0  0  0  0  0  0  0  0  0  0
   22.0049  -20.6576  -14.3501 C   0  0  0  0  0  0  0  0  0  0  0  0
   21.7645  -20.2752  -12.9515 C   0  0  2  0  0  0  0  0  0  0  0  0
   22.9701  -20.5843  -12.1412 N   0  0  0  0  0  0  0  0  0  0  0  0
   20.5770  -20.7329  -12.2507 C   0  0  0  0  0  0  0  0  0  0  0  0
   20.3734  -21.9640  -11.6849 O   0  0  0  0  0  0  0  0  0  0  0  0
   19.5914  -19.9186  -12.1392 O   0  0  0  0  0  0  0  0  0  0  0  0
  2  1  1  6
  3  2  1  0
  4  3  1  0
  5  4  1  0
  6  5  2  0
  7  2  1  0
  7  8  2  0
  9  5  1  0
 11 12  1  0
 11 10  1  0
 12 13  1  0
 14 13  1  1
 14 15  1  0
 15  7  1  0
 16 14  1  0
 17 16  2  0
 19 18  1  1
 19 21  1  0
 20 19  1  0
 22 21  1  6
 22 23  1  0
 22 24  1  0
 23 16  1  0
 24 25  1  0
 26 24  2  0
M  END
$$$$
