QMC.pdb
     RDKit          3D

 24 23  0  0  1  0  0  0  0  0999 V2000
   17.1250  -11.9368  -16.9097 N   0  0  0  0  0  0  0  0  0  0  0  0
   17.4727  -13.2942  -17.0849 C   0  0  0  0  0  0  0  0  0  0  0  0
   16.6858  -14.0293  -17.7052 O   0  0  0  0  0  0  0  0  0  0  0  0
   18.7309  -13.8154  -16.5421 C   0  0  0  0  0  0  0  0  0  0  0  0
   19.5941  -12.8197  -15.8773 C   0  0  0  0  0  0  0  0  0  0  0  0
   20.4421  -11.9537  -16.7612 C   0  0  2  0  0  0  0  0  0  0  0  0
   21.3162  -12.6804  -17.5997 N   0  0  0  0  0  0  0  0  0  0  0  0
   21.2425  -10.9828  -15.9239 C   0  0  0  0  0  0  0  0  0  0  0  0
   20.8542  -10.5811  -14.8157 O   0  0  0  0  0  0  0  0  0  0  0  0
   27.6519   -9.1399  -16.2195 C   0  0  0  0  0  0  0  0  0  0  0  0
   27.1127  -10.8152  -15.8304 S   0  0  0  0  0  0  0  0  0  0  0  0
   25.3682  -10.7699  -15.2674 C   0  0  0  0  0  0  0  0  0  0  0  0
   24.7272   -9.5539  -15.9145 C   0  0  0  0  0  0  0  0  0  0  0  0
   23.2487   -9.5038  -15.7067 C   0  0  2  0  0  0  0  0  0  0  0  0
   22.4879  -10.4861  -16.3796 N   0  0  0  0  0  0  0  0  0  0  0  0
   22.8074   -8.1181  -15.9860 C   0  0  0  0  0  0  0  0  0  0  0  0
   22.8223   -7.7109  -17.1779 O   0  0  0  0  0  0  0  0  0  0  0  0
   22.3645   -7.2082  -14.9988 N   0  0  0  0  0  0  0  0  0  0  0  0
   21.7232   -5.9368  -15.3270 C   0  0  1  0  0  0  0  0  0  0  0  0
   20.3954   -5.7915  -14.6235 C   0  0  0  0  0  0  0  0  0  0  0  0
   19.3224   -7.2229  -15.0241 S   0  0  0  0  0  0  0  0  0  0  0  0
   22.6361   -4.8385  -14.9295 C   0  0  0  0  0  0  0  0  0  0  0  0
   22.2861   -3.5244  -15.1750 O   0  0  0  0  0  0  0  0  0  0  0  0
   23.7318   -5.0727  -14.3689 O   0  0  0  0  0  0  0  0  0  0  0  0
  2  3  2  0
  2  1  1  0
  4  2  1  0
  5  4  1  0
  6  5  1  0
  6  7  1  1
  8  6  1  0
  9  8  2  0
 11 12  1  0
 11 10  1  0
 14 13  1  6
 13 12  1  0
 14 15  1  0
 15  8  1  0
 16 18  1  0
 16 14  1  0
 17 16  2  0
 19 22  1  0
 19 20  1  1
 19 18  1  0
 20 21  1  0
 22 23  1  0
 24 22  2  0
M  END
$$$$
