QMC.pdb
     RDKit          3D

 24 23  0  0  1  0  0  0  0  0999 V2000
   19.0172  -15.3953  -15.9757 N   0  0  0  0  0  0  0  0  0  0  0  0
   19.7647  -15.8672  -17.0769 C   0  0  0  0  0  0  0  0  0  0  0  0
   19.4245  -16.9397  -17.6046 O   0  0  0  0  0  0  0  0  0  0  0  0
   20.9141  -15.1063  -17.5762 C   0  0  0  0  0  0  0  0  0  0  0  0
   21.2111  -13.8574  -16.8477 C   0  0  0  0  0  0  0  0  0  0  0  0
   21.5060  -12.6401  -17.6731 C   0  0  2  0  0  0  0  0  0  0  0  0
   22.4702  -12.8572  -18.6822 N   0  0  0  0  0  0  0  0  0  0  0  0
   21.9589  -11.5059  -16.7828 C   0  0  0  0  0  0  0  0  0  0  0  0
   21.2910  -11.1119  -15.8137 O   0  0  0  0  0  0  0  0  0  0  0  0
   28.0777  -11.1701  -16.9275 C   0  0  0  0  0  0  0  0  0  0  0  0
   27.5208  -10.6043  -15.3093 S   0  0  0  0  0  0  0  0  0  0  0  0
   25.6939  -10.7348  -15.2225 C   0  0  0  0  0  0  0  0  0  0  0  0
   25.1305   -9.6305  -16.1007 C   0  0  0  0  0  0  0  0  0  0  0  0
   23.6506   -9.7336  -16.2765 C   0  0  2  0  0  0  0  0  0  0  0  0
   23.1840  -10.8380  -17.0242 N   0  0  0  0  0  0  0  0  0  0  0  0
   23.1715   -8.4281  -16.7856 C   0  0  0  0  0  0  0  0  0  0  0  0
   23.1867   -8.2252  -18.0286 O   0  0  0  0  0  0  0  0  0  0  0  0
   22.6919   -7.3804  -15.9665 N   0  0  0  0  0  0  0  0  0  0  0  0
   22.1447   -6.1395  -16.5107 C   0  0  1  0  0  0  0  0  0  0  0  0
   20.9138   -6.3991  -17.3452 C   0  0  0  0  0  0  0  0  0  0  0  0
   20.1114   -4.8084  -17.7769 S   0  0  0  0  0  0  0  0  0  0  0  0
   21.8158   -5.2399  -15.3792 C   0  0  0  0  0  0  0  0  0  0  0  0
   21.6360   -3.8876  -15.5996 O   0  0  0  0  0  0  0  0  0  0  0  0
   21.6945   -5.6787  -14.2120 O   0  0  0  0  0  0  0  0  0  0  0  0
  2  3  2  0
  2  1  1  0
  4  2  1  0
  5  4  1  0
  6  5  1  0
  6  7  1  6
  8  6  1  0
  9  8  2  0
 11 12  1  0
 11 10  1  0
 14 13  1  6
 13 12  1  0
 14 15  1  0
 15  8  1  0
 16 18  1  0
 16 14  1  0
 17 16  2  0
 19 22  1  0
 19 20  1  1
 19 18  1  0
 20 21  1  0
 22 23  1  0
 24 22  2  0
M  END
$$$$
