QMC.pdb
     RDKit          3D

 24 23  0  0  1  0  0  0  0  0999 V2000
   28.5342  -11.1221  -16.7329 N   0  0  0  0  0  0  0  0  0  0  0  0
   28.1803  -12.3416  -16.1151 C   0  0  0  0  0  0  0  0  0  0  0  0
   29.0913  -13.0973  -15.7367 O   0  0  0  0  0  0  0  0  0  0  0  0
   26.7707  -12.7007  -15.9321 C   0  0  0  0  0  0  0  0  0  0  0  0
   25.8001  -11.6325  -16.2413 C   0  0  0  0  0  0  0  0  0  0  0  0
   24.3484  -11.9499  -16.0364 C   0  0  2  0  0  0  0  0  0  0  0  0
   23.9696  -13.2201  -16.5244 N   0  0  0  0  0  0  0  0  0  0  0  0
   23.4883  -10.8880  -16.6820 C   0  0  0  0  0  0  0  0  0  0  0  0
   23.0986  -10.9697  -17.8575 O   0  0  0  0  0  0  0  0  0  0  0  0
   19.0283  -11.6223  -19.9213 C   0  0  0  0  0  0  0  0  0  0  0  0
   19.1177  -10.8108  -18.3144 S   0  0  0  0  0  0  0  0  0  0  0  0
   20.7665  -10.0309  -18.1255 C   0  0  0  0  0  0  0  0  0  0  0  0
   20.7831   -9.3589  -16.7630 C   0  0  0  0  0  0  0  0  0  0  0  0
   22.1258   -8.8074  -16.4098 C   0  0  2  0  0  0  0  0  0  0  0  0
   23.0867   -9.7394  -15.9575 N   0  0  0  0  0  0  0  0  0  0  0  0
   21.9107   -7.6777  -15.4767 C   0  0  0  0  0  0  0  0  0  0  0  0
   21.5698   -7.9334  -14.2914 O   0  0  0  0  0  0  0  0  0  0  0  0
   22.0629   -6.3160  -15.8250 N   0  0  0  0  0  0  0  0  0  0  0  0
   21.9353   -5.2328  -14.8524 C   0  0  1  0  0  0  0  0  0  0  0  0
   22.6976   -4.0058  -15.2908 C   0  0  0  0  0  0  0  0  0  0  0  0
   24.4570   -4.4375  -15.5721 S   0  0  0  0  0  0  0  0  0  0  0  0
   20.4960   -4.9132  -14.6976 C   0  0  0  0  0  0  0  0  0  0  0  0
   20.0423   -4.3050  -13.5427 O   0  0  0  0  0  0  0  0  0  0  0  0
   19.6681   -5.1832  -15.5984 O   0  0  0  0  0  0  0  0  0  0  0  0
  2  3  2  0
  2  1  1  0
  4  2  1  0
  5  4  1  0
  6  5  1  0
  6  7  1  6
  8  6  1  0
  9  8  2  0
 11 12  1  0
 11 10  1  0
 14 13  1  1
 13 12  1  0
 14 15  1  0
 15  8  1  0
 16 18  1  0
 16 14  1  0
 17 16  2  0
 19 22  1  0
 19 20  1  6
 19 18  1  0
 20 21  1  0
 22 23  1  0
 24 22  2  0
M  END
$$$$
