QMC.pdb
     RDKit          3D

 24 23  0  0  1  0  0  0  0  0999 V2000
   16.1517   -7.8422  -19.2184 N   0  0  0  0  0  0  0  0  0  0  0  0
   15.2507   -8.7704  -18.6521 C   0  0  0  0  0  0  0  0  0  0  0  0
   14.0434   -8.6628  -18.9259 O   0  0  0  0  0  0  0  0  0  0  0  0
   15.7359   -9.8291  -17.7615 C   0  0  0  0  0  0  0  0  0  0  0  0
   17.1824   -9.7972  -17.4697 C   0  0  0  0  0  0  0  0  0  0  0  0
   17.7098  -10.8330  -16.5213 C   0  0  2  0  0  0  0  0  0  0  0  0
   16.7382  -11.3304  -15.6248 N   0  0  0  0  0  0  0  0  0  0  0  0
   18.8755  -10.2747  -15.7380 C   0  0  0  0  0  0  0  0  0  0  0  0
   18.8074  -10.0337  -14.5224 O   0  0  0  0  0  0  0  0  0  0  0  0
   26.5151   -9.9691  -14.4146 C   0  0  0  0  0  0  0  0  0  0  0  0
   25.1333  -10.6368  -15.3599 S   0  0  0  0  0  0  0  0  0  0  0  0
   23.6898   -9.5196  -15.1854 C   0  0  0  0  0  0  0  0  0  0  0  0
   22.5352  -10.1715  -15.9273 C   0  0  0  0  0  0  0  0  0  0  0  0
   21.2400   -9.4572  -15.7177 C   0  0  2  0  0  0  0  0  0  0  0  0
   20.1118  -10.0008  -16.3721 N   0  0  0  0  0  0  0  0  0  0  0  0
   21.4680   -8.0256  -16.0201 C   0  0  0  0  0  0  0  0  0  0  0  0
   21.7574   -7.6993  -17.2018 O   0  0  0  0  0  0  0  0  0  0  0  0
   21.3826   -6.9858  -15.0661 N   0  0  0  0  0  0  0  0  0  0  0  0
   21.5933   -5.5808  -15.4079 C   0  0  1  0  0  0  0  0  0  0  0  0
   20.2887   -4.8869  -15.7166 C   0  0  0  0  0  0  0  0  0  0  0  0
   19.1114   -5.1381  -14.3339 S   0  0  0  0  0  0  0  0  0  0  0  0
   22.2670   -4.9195  -14.2648 C   0  0  0  0  0  0  0  0  0  0  0  0
   22.5083   -5.6247  -13.1012 O   0  0  0  0  0  0  0  0  0  0  0  0
   22.6289   -3.7216  -14.3261 O   0  0  0  0  0  0  0  0  0  0  0  0
  2  3  2  0
  2  1  1  0
  4  2  1  0
  5  4  1  0
  6  5  1  0
  6  7  1  1
  8  6  1  0
  9  8  2  0
 11 12  1  0
 11 10  1  0
 14 13  1  6
 13 12  1  0
 14 15  1  0
 15  8  1  0
 16 18  1  0
 16 14  1  0
 17 16  2  0
 19 22  1  0
 19 20  1  1
 19 18  1  0
 20 21  1  0
 22 23  1  0
 24 22  2  0
M  END
$$$$
