QMC.pdb
     RDKit          3D

 24 23  0  0  1  0  0  0  0  0999 V2000
   22.9738  -12.7568  -20.0808 N   0  0  0  0  0  0  0  0  0  0  0  0
   21.6957  -13.3560  -20.1171 C   0  0  0  0  0  0  0  0  0  0  0  0
   21.4558  -14.1797  -21.0162 O   0  0  0  0  0  0  0  0  0  0  0  0
   20.6820  -13.0065  -19.1173 C   0  0  0  0  0  0  0  0  0  0  0  0
   21.1075  -12.0239  -18.1013 C   0  0  0  0  0  0  0  0  0  0  0  0
   22.0135  -12.5177  -17.0124 C   0  0  2  0  0  0  0  0  0  0  0  0
   21.4280  -13.5054  -16.1897 N   0  0  0  0  0  0  0  0  0  0  0  0
   22.4748  -11.3610  -16.1560 C   0  0  0  0  0  0  0  0  0  0  0  0
   21.9093  -11.0494  -15.0960 O   0  0  0  0  0  0  0  0  0  0  0  0
   27.5051  -12.8159  -15.4024 C   0  0  0  0  0  0  0  0  0  0  0  0
   26.3332  -11.6691  -16.1510 S   0  0  0  0  0  0  0  0  0  0  0  0
   26.4676  -10.0418  -15.3167 C   0  0  0  0  0  0  0  0  0  0  0  0
   25.5051   -9.1027  -16.0238 C   0  0  0  0  0  0  0  0  0  0  0  0
   24.0744   -9.4703  -15.8011 C   0  0  2  0  0  0  0  0  0  0  0  0
   23.5896  -10.5750  -16.5366 N   0  0  0  0  0  0  0  0  0  0  0  0
   23.2673   -8.2411  -15.9765 C   0  0  0  0  0  0  0  0  0  0  0  0
   23.0325   -7.8378  -17.1465 O   0  0  0  0  0  0  0  0  0  0  0  0
   22.7343   -7.4786  -14.9120 N   0  0  0  0  0  0  0  0  0  0  0  0
   21.8284   -6.3517  -15.1236 C   0  0  1  0  0  0  0  0  0  0  0  0
   20.6522   -6.4052  -14.1789 C   0  0  0  0  0  0  0  0  0  0  0  0
   19.7658   -7.9969  -14.3830 S   0  0  0  0  0  0  0  0  0  0  0  0
   22.5912   -5.0967  -14.9211 C   0  0  0  0  0  0  0  0  0  0  0  0
   21.9838   -3.8747  -15.1390 O   0  0  0  0  0  0  0  0  0  0  0  0
   23.7884   -5.1142  -14.5523 O   0  0  0  0  0  0  0  0  0  0  0  0
  2  3  2  0
  2  1  1  0
  4  2  1  0
  5  4  1  0
  6  5  1  0
  6  7  1  1
  8  6  1  0
  9  8  2  0
 11 12  1  0
 11 10  1  0
 14 13  1  6
 13 12  1  0
 14 15  1  0
 15  8  1  0
 16 18  1  0
 16 14  1  0
 17 16  2  0
 19 22  1  0
 19 20  1  1
 19 18  1  0
 20 21  1  0
 22 23  1  0
 24 22  2  0
M  END
$$$$
