QMC.pdb
     RDKit          3D

 24 23  0  0  1  0  0  0  0  0999 V2000
   29.1308  -18.3543  -16.7630 N   0  0  0  0  0  0  0  0  0  0  0  0
   28.5654  -19.2908  -17.6559 C   0  0  0  0  0  0  0  0  0  0  0  0
   29.2636  -19.7044  -18.5971 O   0  0  0  0  0  0  0  0  0  0  0  0
   27.1871  -19.7553  -17.4717 C   0  0  0  0  0  0  0  0  0  0  0  0
   26.7552  -19.9154  -16.0694 C   0  0  0  0  0  0  0  0  0  0  0  0
   27.2551  -21.1246  -15.3358 C   0  0  2  0  0  0  0  0  0  0  0  0
   27.4559  -22.2502  -16.1650 N   0  0  0  0  0  0  0  0  0  0  0  0
   26.3012  -21.4871  -14.2209 C   0  0  0  0  0  0  0  0  0  0  0  0
   25.3076  -22.2084  -14.4022 O   0  0  0  0  0  0  0  0  0  0  0  0
   27.4018  -19.9657   -8.0765 C   0  0  0  0  0  0  0  0  0  0  0  0
   25.6227  -20.1804   -7.8822 S   0  0  0  0  0  0  0  0  0  0  0  0
   24.9135  -20.7823   -9.4624 C   0  0  0  0  0  0  0  0  0  0  0  0
   25.9967  -20.6332  -10.5172 C   0  0  0  0  0  0  0  0  0  0  0  0
   25.5477  -21.0798  -11.8702 C   0  0  2  0  0  0  0  0  0  0  0  0
   26.5084  -21.0097  -12.9039 N   0  0  0  0  0  0  0  0  0  0  0  0
   24.2899  -20.3622  -12.1803 C   0  0  0  0  0  0  0  0  0  0  0  0
   24.3625  -19.2354  -12.7384 O   0  0  0  0  0  0  0  0  0  0  0  0
   22.9976  -20.8574  -11.8918 N   0  0  0  0  0  0  0  0  0  0  0  0
   21.8180  -20.4889  -12.6717 C   0  0  1  0  0  0  0  0  0  0  0  0
   21.9240  -20.9783  -14.0959 C   0  0  0  0  0  0  0  0  0  0  0  0
   21.2946  -19.6924  -15.2410 S   0  0  0  0  0  0  0  0  0  0  0  0
   20.6246  -21.0753  -12.0163 C   0  0  0  0  0  0  0  0  0  0  0  0
   19.3599  -20.6403  -12.3642 O   0  0  0  0  0  0  0  0  0  0  0  0
   20.7330  -21.9675  -11.1434 O   0  0  0  0  0  0  0  0  0  0  0  0
  2  3  2  0
  2  1  1  0
  4  2  1  0
  5  4  1  0
  6  5  1  0
  6  7  1  6
  8  6  1  0
  9  8  2  0
 11 12  1  0
 11 10  1  0
 14 13  1  1
 13 12  1  0
 14 15  1  0
 15  8  1  0
 16 18  1  0
 16 14  1  0
 17 16  2  0
 19 22  1  0
 19 20  1  6
 19 18  1  0
 20 21  1  0
 22 23  1  0
 24 22  2  0
M  END
$$$$
