QMC.pdb
     RDKit          3D

 24 23  0  0  1  0  0  0  0  0999 V2000
   18.4895  -13.4046  -14.3147 N   0  0  0  0  0  0  0  0  0  0  0  0
   18.8799  -13.6859  -15.6423 C   0  0  0  0  0  0  0  0  0  0  0  0
   18.9942  -14.8752  -15.9840 O   0  0  0  0  0  0  0  0  0  0  0  0
   19.1452  -12.5958  -16.5860 C   0  0  0  0  0  0  0  0  0  0  0  0
   18.9397  -11.2343  -16.0544 C   0  0  0  0  0  0  0  0  0  0  0  0
   17.5270  -10.8212  -15.7652 C   0  0  2  0  0  0  0  0  0  0  0  0
   16.7212  -10.7037  -16.9193 N   0  0  0  0  0  0  0  0  0  0  0  0
   17.5128   -9.5128  -15.0088 C   0  0  0  0  0  0  0  0  0  0  0  0
   17.4036   -8.4152  -15.5777 O   0  0  0  0  0  0  0  0  0  0  0  0
   15.5332   -6.0047   -8.2857 C   0  0  0  0  0  0  0  0  0  0  0  0
   15.9269   -7.5440   -9.1369 S   0  0  0  0  0  0  0  0  0  0  0  0
   16.6907   -7.1564  -10.7582 C   0  0  0  0  0  0  0  0  0  0  0  0
   16.9966   -8.4841  -11.4304 C   0  0  0  0  0  0  0  0  0  0  0  0
   17.5427   -8.3177  -12.8109 C   0  0  2  0  0  0  0  0  0  0  0  0
   17.6252   -9.4888  -13.5973 N   0  0  0  0  0  0  0  0  0  0  0  0
   18.8269   -7.5892  -12.6961 C   0  0  0  0  0  0  0  0  0  0  0  0
   19.8719   -8.2478  -12.4497 O   0  0  0  0  0  0  0  0  0  0  0  0
   18.9660   -6.1903  -12.8453 N   0  0  0  0  0  0  0  0  0  0  0  0
   20.2592   -5.5428  -13.0540 C   0  0  1  0  0  0  0  0  0  0  0  0
   20.9878   -6.1350  -14.2361 C   0  0  0  0  0  0  0  0  0  0  0  0
   22.5475   -5.2164  -14.5260 S   0  0  0  0  0  0  0  0  0  0  0  0
   20.0256   -4.0948  -13.2696 C   0  0  0  0  0  0  0  0  0  0  0  0
   20.9659   -3.1722  -12.8519 O   0  0  0  0  0  0  0  0  0  0  0  0
   18.9843   -3.6789  -13.8284 O   0  0  0  0  0  0  0  0  0  0  0  0
  2  3  2  0
  2  1  1  0
  4  2  1  0
  5  4  1  0
  6  5  1  0
  6  7  1  6
  8  6  1  0
  9  8  2  0
 11 12  1  0
 11 10  1  0
 14 13  1  1
 13 12  1  0
 14 15  1  0
 15  8  1  0
 16 18  1  0
 16 14  1  0
 17 16  2  0
 19 22  1  0
 19 20  1  6
 19 18  1  0
 20 21  1  0
 22 23  1  0
 24 22  2  0
M  END
$$$$
