QMC.pdb
     RDKit          3D

 24 23  0  0  1  0  0  0  0  0999 V2000
   19.5775  -15.2975  -20.2427 N   0  0  0  0  0  0  0  0  0  0  0  0
   20.7019  -15.0770  -21.0680 C   0  0  0  0  0  0  0  0  0  0  0  0
   20.5653  -14.3555  -22.0705 O   0  0  0  0  0  0  0  0  0  0  0  0
   21.9933  -15.6910  -20.7446 C   0  0  0  0  0  0  0  0  0  0  0  0
   22.7009  -15.1055  -19.5892 C   0  0  0  0  0  0  0  0  0  0  0  0
   24.1951  -15.0096  -19.6816 C   0  0  2  0  0  0  0  0  0  0  0  0
   24.8615  -16.2213  -19.3940 N   0  0  0  0  0  0  0  0  0  0  0  0
   24.7043  -13.9263  -18.7590 C   0  0  0  0  0  0  0  0  0  0  0  0
   24.4632  -13.9200  -17.5415 O   0  0  0  0  0  0  0  0  0  0  0  0
   29.9648   -8.1458  -17.6215 C   0  0  0  0  0  0  0  0  0  0  0  0
   29.2481   -9.3490  -18.7562 S   0  0  0  0  0  0  0  0  0  0  0  0
   27.7504  -10.0795  -17.9910 C   0  0  0  0  0  0  0  0  0  0  0  0
   27.2462  -11.1505  -18.9433 C   0  0  0  0  0  0  0  0  0  0  0  0
   25.9878  -11.7988  -18.4660 C   0  0  2  0  0  0  0  0  0  0  0  0
   25.4900  -12.8585  -19.2570 N   0  0  0  0  0  0  0  0  0  0  0  0
   24.9982  -10.7239  -18.2242 C   0  0  0  0  0  0  0  0  0  0  0  0
   24.3501  -10.2716  -19.2050 O   0  0  0  0  0  0  0  0  0  0  0  0
   24.7248  -10.1625  -16.9559 N   0  0  0  0  0  0  0  0  0  0  0  0
   23.7517   -9.0901  -16.7598 C   0  0  1  0  0  0  0  0  0  0  0  0
   23.0964   -9.1818  -15.4029 C   0  0  0  0  0  0  0  0  0  0  0  0
   21.9418   -7.7759  -15.1765 S   0  0  0  0  0  0  0  0  0  0  0  0
   24.4539   -7.7923  -16.9026 C   0  0  0  0  0  0  0  0  0  0  0  0
   23.7974   -6.7066  -17.4502 O   0  0  0  0  0  0  0  0  0  0  0  0
   25.6432   -7.6511  -16.5349 O   0  0  0  0  0  0  0  0  0  0  0  0
  2  3  2  0
  2  1  1  0
  4  2  1  0
  5  4  1  0
  6  5  1  0
  6  7  1  1
  8  6  1  0
  9  8  2  0
 11 12  1  0
 11 10  1  0
 14 13  1  6
 13 12  1  0
 14 15  1  0
 15  8  1  0
 16 18  1  0
 16 14  1  0
 17 16  2  0
 19 22  1  0
 19 20  1  1
 19 18  1  0
 20 21  1  0
 22 23  1  0
 24 22  2  0
M  END
$$$$
