QMC.pdb
     RDKit          3D

 24 23  0  0  1  0  0  0  0  0999 V2000
-228006.4688-189309.2656-151207.2969 N   0  0  0  0  0  0  0  0  0  0  0  0
-228007.0938-189308.0156-151207.4844 C   0  0  0  0  0  0  0  0  0  0  0  0
-228007.8594-189307.6406-151206.7656 O   0  0  0  0  0  0  0  0  0  0  0  0
-228006.5781-189307.1875-151208.5312 C   0  0  0  0  0  0  0  0  0  0  0  0
-228005.8906-189305.8438-151208.1094 C   0  0  0  0  0  0  0  0  0  0  0  0
-228006.1250-189304.7344-151209.1094 C   0  0  2  0  0  0  0  0  0  0  0  0
-228007.2812-189304.6406-151209.7812 N   0  0  0  0  0  0  0  0  0  0  0  0
-228004.9688-189304.9062-151210.1406 C   0  0  0  0  0  0  0  0  0  0  0  0
-228004.0000-189305.6719-151209.9688 O   0  0  0  0  0  0  0  0  0  0  0  0
-228000.6562-189303.5781-151214.0000 C   0  0  0  0  0  0  0  0  0  0  0  0
-228002.0469-189303.9688-151212.8750 S   0  0  0  0  0  0  0  0  0  0  0  0
-228003.2031-189305.1875-151213.7031 C   0  0  0  0  0  0  0  0  0  0  0  0
-228004.5469-189304.4531-151213.7969 C   0  0  0  0  0  0  0  0  0  0  0  0
-228005.3906-189304.7500-151212.5938 C   0  0  2  0  0  0  0  0  0  0  0  0
-228004.9531-189304.1875-151211.3438 N   0  0  0  0  0  0  0  0  0  0  0  0
-228005.6875-189306.1719-151212.5469 C   0  0  0  0  0  0  0  0  0  0  0  0
-228006.7656-189306.6406-151212.9531 O   0  0  0  0  0  0  0  0  0  0  0  0
-228004.7188-189307.1250-151211.9062 N   0  0  0  0  0  0  0  0  0  0  0  0
-228005.3594-189308.3906-151211.2500 C   0  0  1  0  0  0  0  0  0  0  0  0
-228004.3281-189309.4219-151211.2812 C   0  0  0  0  0  0  0  0  0  0  0  0
-228004.3438-189310.3281-151209.6406 S   0  0  0  0  0  0  0  0  0  0  0  0
-228005.7188-189308.0000-151209.8594 C   0  0  0  0  0  0  0  0  0  0  0  0
-228006.8125-189308.5000-151209.1719 O   0  0  0  0  0  0  0  0  0  0  0  0
-228004.9062-189307.1719-151209.1719 O   0  0  0  0  0  0  0  0  0  0  0  0
  2  3  2  0
  2  1  1  0
  4  2  1  0
  5  4  1  0
  6  5  1  0
  6  7  1  6
  8  6  1  0
  9  8  2  0
 11 12  1  0
 11 10  1  0
 14 13  1  6
 13 12  1  0
 14 15  1  0
 15  8  1  0
 16 18  1  0
 16 14  1  0
 17 16  2  0
 19 22  1  0
 19 20  1  1
 19 18  1  0
 20 21  1  0
 22 23  1  0
 24 22  2  0
M  END
$$$$
