QMC.pdb
     RDKit          3D

 24 23  0  0  1  0  0  0  0  0999 V2000
   24.8815  -20.9767   -9.0458 N   0  0  0  0  0  0  0  0  0  0  0  0
   26.0450  -20.5051   -9.6924 C   0  0  0  0  0  0  0  0  0  0  0  0
   27.1149  -20.5117   -9.0603 O   0  0  0  0  0  0  0  0  0  0  0  0
   25.9822  -20.0182  -11.0739 C   0  0  0  0  0  0  0  0  0  0  0  0
   24.6460  -20.0599  -11.6996 C   0  0  0  0  0  0  0  0  0  0  0  0
   24.4222  -21.0958  -12.7612 C   0  0  2  0  0  0  0  0  0  0  0  0
   25.3508  -22.1594  -12.7227 N   0  0  0  0  0  0  0  0  0  0  0  0
   24.4526  -20.4532  -14.1288 C   0  0  0  0  0  0  0  0  0  0  0  0
   25.4463  -20.5105  -14.8702 O   0  0  0  0  0  0  0  0  0  0  0  0
   19.7673  -18.8642  -18.7373 C   0  0  0  0  0  0  0  0  0  0  0  0
   19.5327  -20.1015  -17.4478 S   0  0  0  0  0  0  0  0  0  0  0  0
   21.1413  -20.4331  -16.6326 C   0  0  0  0  0  0  0  0  0  0  0  0
   21.8481  -19.0956  -16.4911 C   0  0  0  0  0  0  0  0  0  0  0  0
   23.2284  -19.2302  -15.9358 C   0  0  2  0  0  0  0  0  0  0  0  0
   23.3287  -19.7491  -14.6254 N   0  0  0  0  0  0  0  0  0  0  0  0
   23.9068  -17.9254  -16.1102 C   0  0  0  0  0  0  0  0  0  0  0  0
   23.3994  -16.9070  -15.5697 O   0  0  0  0  0  0  0  0  0  0  0  0
   25.0978  -17.7384  -16.8484 N   0  0  0  0  0  0  0  0  0  0  0  0
   25.8009  -16.4585  -16.9028 C   0  0  1  0  0  0  0  0  0  0  0  0
   27.2376  -16.5997  -16.4613 C   0  0  0  0  0  0  0  0  0  0  0  0
   27.3113  -16.7670  -14.6372 S   0  0  0  0  0  0  0  0  0  0  0  0
   25.7404  -15.9527  -18.2949 C   0  0  0  0  0  0  0  0  0  0  0  0
   25.1029  -16.6922  -19.2730 O   0  0  0  0  0  0  0  0  0  0  0  0
   26.2585  -14.8574  -18.6133 O   0  0  0  0  0  0  0  0  0  0  0  0
  2  3  2  0
  2  1  1  0
  4  2  1  0
  5  4  1  0
  6  5  1  0
  6  7  1  6
  8  6  1  0
  9  8  2  0
 11 12  1  0
 11 10  1  0
 14 13  1  1
 13 12  1  0
 14 15  1  0
 15  8  1  0
 16 18  1  0
 16 14  1  0
 17 16  2  0
 19 22  1  0
 19 20  1  6
 19 18  1  0
 20 21  1  0
 22 23  1  0
 24 22  2  0
M  END
$$$$
