QMC.pdb
     RDKit          3D

 24 23  0  0  1  0  0  0  0  0999 V2000
   27.0872  -17.5167  -18.0613 N   0  0  0  0  0  0  0  0  0  0  0  0
   28.2820  -17.2251  -17.3676 C   0  0  0  0  0  0  0  0  0  0  0  0
   29.0972  -16.4505  -17.8965 O   0  0  0  0  0  0  0  0  0  0  0  0
   28.5476  -17.8286  -16.0581 C   0  0  0  0  0  0  0  0  0  0  0  0
   27.5072  -18.7515  -15.5637 C   0  0  0  0  0  0  0  0  0  0  0  0
   27.9548  -20.1182  -15.1373 C   0  0  2  0  0  0  0  0  0  0  0  0
   28.3112  -20.9614  -16.2130 N   0  0  0  0  0  0  0  0  0  0  0  0
   26.8766  -20.7847  -14.3141 C   0  0  0  0  0  0  0  0  0  0  0  0
   26.1127  -21.6420  -14.7850 O   0  0  0  0  0  0  0  0  0  0  0  0
   25.6799  -19.6839   -7.7897 C   0  0  0  0  0  0  0  0  0  0  0  0
   25.2083  -21.3964   -8.0957 S   0  0  0  0  0  0  0  0  0  0  0  0
   24.7930  -21.5979   -9.8702 C   0  0  0  0  0  0  0  0  0  0  0  0
   25.8708  -20.8752  -10.6604 C   0  0  0  0  0  0  0  0  0  0  0  0
   25.6574  -20.9612  -12.1365 C   0  0  2  0  0  0  0  0  0  0  0  0
   26.6938  -20.4509  -12.9500 N   0  0  0  0  0  0  0  0  0  0  0  0
   24.3302  -20.3729  -12.4287 C   0  0  0  0  0  0  0  0  0  0  0  0
   24.1875  -19.1263  -12.3180 O   0  0  0  0  0  0  0  0  0  0  0  0
   23.1978  -21.1190  -12.8283 N   0  0  0  0  0  0  0  0  0  0  0  0
   21.9210  -20.4955  -13.1694 C   0  0  1  0  0  0  0  0  0  0  0  0
   21.6051  -20.6535  -14.6371 C   0  0  0  0  0  0  0  0  0  0  0  0
   23.0318  -20.0911  -15.6416 S   0  0  0  0  0  0  0  0  0  0  0  0
   20.8607  -21.1253  -12.3467 C   0  0  0  0  0  0  0  0  0  0  0  0
   19.5756  -20.6177  -12.3670 O   0  0  0  0  0  0  0  0  0  0  0  0
   21.1015  -22.1196  -11.6235 O   0  0  0  0  0  0  0  0  0  0  0  0
  2  3  2  0
  2  1  1  0
  4  2  1  0
  5  4  1  0
  6  5  1  0
  6  7  1  6
  8  6  1  0
  9  8  2  0
 11 12  1  0
 11 10  1  0
 14 13  1  1
 13 12  1  0
 14 15  1  0
 15  8  1  0
 16 18  1  0
 16 14  1  0
 17 16  2  0
 19 22  1  0
 19 20  1  6
 19 18  1  0
 20 21  1  0
 22 23  1  0
 24 22  2  0
M  END
$$$$
