QMC.pdb
     RDKit          3D

 24 23  0  0  1  0  0  0  0  0999 V2000
   19.8822  -33.6742   -2.6597 N   0  0  0  0  0  0  0  0  0  0  0  0
   20.0857  -32.9148   -3.8327 C   0  0  0  0  0  0  0  0  0  0  0  0
   20.8202  -33.3834   -4.7188 O   0  0  0  0  0  0  0  0  0  0  0  0
   19.4453  -31.6055   -3.9910 C   0  0  0  0  0  0  0  0  0  0  0  0
   18.6125  -31.1666   -2.8543 C   0  0  0  0  0  0  0  0  0  0  0  0
   17.9188  -29.8432   -2.9879 C   0  0  2  0  0  0  0  0  0  0  0  0
   18.5703  -28.9455   -3.8624 N   0  0  0  0  0  0  0  0  0  0  0  0
   17.7652  -29.1977   -1.6300 C   0  0  0  0  0  0  0  0  0  0  0  0
   16.9215  -29.5778   -0.8030 O   0  0  0  0  0  0  0  0  0  0  0  0
   21.5486  -24.2089    0.4551 C   0  0  0  0  0  0  0  0  0  0  0  0
   21.1776  -25.0447    2.0084 S   0  0  0  0  0  0  0  0  0  0  0  0
   19.6952  -26.1003    1.7842 C   0  0  0  0  0  0  0  0  0  0  0  0
   19.7407  -26.6281    0.3602 C   0  0  0  0  0  0  0  0  0  0  0  0
   18.5988  -27.5390    0.0474 C   0  0  2  0  0  0  0  0  0  0  0  0
   18.5927  -28.1157   -1.2426 N   0  0  0  0  0  0  0  0  0  0  0  0
   17.3497  -26.8160    0.3793 C   0  0  0  0  0  0  0  0  0  0  0  0
   16.8779  -26.0111   -0.4668 O   0  0  0  0  0  0  0  0  0  0  0  0
   16.6398  -26.9666    1.5926 N   0  0  0  0  0  0  0  0  0  0  0  0
   15.4163  -26.2247    1.8892 C   0  0  1  0  0  0  0  0  0  0  0  0
   14.2869  -27.1526    2.2665 C   0  0  0  0  0  0  0  0  0  0  0  0
   13.8842  -28.2456    0.8509 S   0  0  0  0  0  0  0  0  0  0  0  0
   15.6995  -25.2848    3.0001 C   0  0  0  0  0  0  0  0  0  0  0  0
   15.0149  -24.0873    3.0852 O   0  0  0  0  0  0  0  0  0  0  0  0
   16.5546  -25.5504    3.8764 O   0  0  0  0  0  0  0  0  0  0  0  0
  2  3  2  0
  2  1  1  0
  4  2  1  0
  5  4  1  0
  6  5  1  0
  6  7  1  6
  8  6  1  0
  9  8  2  0
 11 12  1  0
 11 10  1  0
 14 13  1  6
 13 12  1  0
 14 15  1  0
 15  8  1  0
 16 18  1  0
 16 14  1  0
 17 16  2  0
 19 22  1  0
 19 20  1  1
 19 18  1  0
 20 21  1  0
 22 23  1  0
 24 22  2  0
M  END
$$$$
