QMC.pdb
     RDKit          3D

 24 23  0  0  1  0  0  0  0  0999 V2000
   18.1346  -17.8011  -15.8182 N   0  0  0  0  0  0  0  0  0  0  0  0
   17.7838  -19.0509  -15.2625 C   0  0  0  0  0  0  0  0  0  0  0  0
   16.6744  -19.5327  -15.5475 O   0  0  0  0  0  0  0  0  0  0  0  0
   18.7102  -19.7538  -14.3695 C   0  0  0  0  0  0  0  0  0  0  0  0
   20.0371  -19.1266  -14.2132 C   0  0  0  0  0  0  0  0  0  0  0  0
   21.1317  -19.6123  -15.1166 C   0  0  2  0  0  0  0  0  0  0  0  0
   21.3438  -21.0074  -15.0537 N   0  0  0  0  0  0  0  0  0  0  0  0
   22.4234  -18.8942  -14.8003 C   0  0  0  0  0  0  0  0  0  0  0  0
   22.4851  -17.6620  -14.6654 O   0  0  0  0  0  0  0  0  0  0  0  0
   26.1210  -21.3288   -9.5409 C   0  0  0  0  0  0  0  0  0  0  0  0
   26.6334  -21.0382  -11.2444 S   0  0  0  0  0  0  0  0  0  0  0  0
   25.3420  -20.0589  -12.1020 C   0  0  0  0  0  0  0  0  0  0  0  0
   25.8247  -19.8440  -13.5265 C   0  0  0  0  0  0  0  0  0  0  0  0
   24.8787  -19.0186  -14.3362 C   0  0  2  0  0  0  0  0  0  0  0  0
   23.6337  -19.6124  -14.6426 N   0  0  0  0  0  0  0  0  0  0  0  0
   25.6156  -18.5385  -15.5276 C   0  0  0  0  0  0  0  0  0  0  0  0
   25.6098  -19.2515  -16.5659 O   0  0  0  0  0  0  0  0  0  0  0  0
   26.3337  -17.3220  -15.5841 N   0  0  0  0  0  0  0  0  0  0  0  0
   26.9667  -16.8344  -16.8076 C   0  0  1  0  0  0  0  0  0  0  0  0
   27.0892  -15.3298  -16.8029 C   0  0  0  0  0  0  0  0  0  0  0  0
   27.9999  -14.7779  -18.2951 S   0  0  0  0  0  0  0  0  0  0  0  0
   28.3075  -17.4569  -16.9182 C   0  0  0  0  0  0  0  0  0  0  0  0
   28.8537  -17.7080  -18.1625 O   0  0  0  0  0  0  0  0  0  0  0  0
   28.9685  -17.7658  -15.8997 O   0  0  0  0  0  0  0  0  0  0  0  0
  2  3  2  0
  2  1  1  0
  4  2  1  0
  5  4  1  0
  6  5  1  0
  6  7  1  1
  8  6  1  0
  9  8  2  0
 11 12  1  0
 11 10  1  0
 14 13  1  6
 13 12  1  0
 14 15  1  0
 15  8  1  0
 16 18  1  0
 16 14  1  0
 17 16  2  0
 19 22  1  0
 19 20  1  1
 19 18  1  0
 20 21  1  0
 22 23  1  0
 24 22  2  0
M  END
$$$$
