QMC.pdb
     RDKit          3D

 24 23  0  0  1  0  0  0  0  0999 V2000
   20.3000  -16.3998  -16.3180 N   0  0  0  0  0  0  0  0  0  0  0  0
   20.1336  -16.3790  -17.7201 C   0  0  0  0  0  0  0  0  0  0  0  0
   19.9601  -17.4592  -18.3096 O   0  0  0  0  0  0  0  0  0  0  0  0
   20.1695  -15.1105  -18.4542 C   0  0  0  0  0  0  0  0  0  0  0  0
   20.3776  -13.9060  -17.6269 C   0  0  0  0  0  0  0  0  0  0  0  0
   20.5469  -12.6028  -18.3502 C   0  0  2  0  0  0  0  0  0  0  0  0
   21.4904  -12.6535  -19.4001 N   0  0  0  0  0  0  0  0  0  0  0  0
   20.9386  -11.5152  -17.3765 C   0  0  0  0  0  0  0  0  0  0  0  0
   20.2853  -11.2735  -16.3493 O   0  0  0  0  0  0  0  0  0  0  0  0
   27.2957  -11.6477  -15.0157 C   0  0  0  0  0  0  0  0  0  0  0  0
   26.4470  -10.3062  -15.8695 S   0  0  0  0  0  0  0  0  0  0  0  0
   24.6472  -10.6557  -15.8993 C   0  0  0  0  0  0  0  0  0  0  0  0
   23.9826   -9.4871  -16.6071 C   0  0  0  0  0  0  0  0  0  0  0  0
   22.5070   -9.6678  -16.7549 C   0  0  2  0  0  0  0  0  0  0  0  0
   22.0861  -10.7169  -17.6027 N   0  0  0  0  0  0  0  0  0  0  0  0
   21.9315   -8.3506  -17.1111 C   0  0  0  0  0  0  0  0  0  0  0  0
   21.9941   -7.9717  -18.3107 O   0  0  0  0  0  0  0  0  0  0  0  0
   21.3087   -7.4773  -16.1902 N   0  0  0  0  0  0  0  0  0  0  0  0
   20.8118   -6.1557  -16.5668 C   0  0  1  0  0  0  0  0  0  0  0  0
   19.3030   -6.1258  -16.6093 C   0  0  0  0  0  0  0  0  0  0  0  0
   18.7190   -4.3885  -16.6491 S   0  0  0  0  0  0  0  0  0  0  0  0
   21.3159   -5.1703  -15.5807 C   0  0  0  0  0  0  0  0  0  0  0  0
   21.6367   -3.8884  -15.9851 O   0  0  0  0  0  0  0  0  0  0  0  0
   21.4608   -5.4723  -14.3735 O   0  0  0  0  0  0  0  0  0  0  0  0
  2  3  2  0
  2  1  1  0
  4  2  1  0
  5  4  1  0
  6  5  1  0
  6  7  1  6
  8  6  1  0
  9  8  2  0
 11 12  1  0
 11 10  1  0
 14 13  1  6
 13 12  1  0
 14 15  1  0
 15  8  1  0
 16 18  1  0
 16 14  1  0
 17 16  2  0
 19 22  1  0
 19 20  1  1
 19 18  1  0
 20 21  1  0
 22 23  1  0
 24 22  2  0
M  END
$$$$
