QMC.pdb
     RDKit          3D

 24 23  0  0  1  0  0  0  0  0999 V2000
   28.3958  -17.1145  -15.8576 N   0  0  0  0  0  0  0  0  0  0  0  0
   28.0837  -17.0028  -17.2303 C   0  0  0  0  0  0  0  0  0  0  0  0
   28.8383  -16.3313  -17.9540 O   0  0  0  0  0  0  0  0  0  0  0  0
   26.8949  -17.6631  -17.7784 C   0  0  0  0  0  0  0  0  0  0  0  0
   26.1803  -18.5564  -16.8458 C   0  0  0  0  0  0  0  0  0  0  0  0
   26.9251  -19.7598  -16.3485 C   0  0  2  0  0  0  0  0  0  0  0  0
   27.3163  -20.6499  -17.3731 N   0  0  0  0  0  0  0  0  0  0  0  0
   26.0912  -20.5029  -15.3304 C   0  0  0  0  0  0  0  0  0  0  0  0
   25.4283  -21.5114  -15.6201 O   0  0  0  0  0  0  0  0  0  0  0  0
   24.1297  -21.3119   -7.6769 C   0  0  0  0  0  0  0  0  0  0  0  0
   25.1901  -20.5305   -8.9073 S   0  0  0  0  0  0  0  0  0  0  0  0
   24.6439  -21.0393  -10.5821 C   0  0  0  0  0  0  0  0  0  0  0  0
   25.5617  -20.3462  -11.5750 C   0  0  0  0  0  0  0  0  0  0  0  0
   25.2075  -20.6491  -12.9943 C   0  0  2  0  0  0  0  0  0  0  0  0
   26.0335  -20.0695  -13.9834 N   0  0  0  0  0  0  0  0  0  0  0  0
   23.7693  -20.3421  -13.1687 C   0  0  0  0  0  0  0  0  0  0  0  0
   23.4132  -19.1347  -13.2126 O   0  0  0  0  0  0  0  0  0  0  0  0
   22.7548  -21.3189  -13.2916 N   0  0  0  0  0  0  0  0  0  0  0  0
   21.3701  -20.9833  -13.6162 C   0  0  1  0  0  0  0  0  0  0  0  0
   20.9375  -21.6230  -14.9134 C   0  0  0  0  0  0  0  0  0  0  0  0
   22.0338  -21.0676  -16.2737 S   0  0  0  0  0  0  0  0  0  0  0  0
   20.5059  -21.4456  -12.5041 C   0  0  0  0  0  0  0  0  0  0  0  0
   19.3506  -20.7546  -12.1918 O   0  0  0  0  0  0  0  0  0  0  0  0
   20.7984  -22.4605  -11.8302 O   0  0  0  0  0  0  0  0  0  0  0  0
  2  3  2  0
  2  1  1  0
  4  2  1  0
  5  4  1  0
  6  5  1  0
  6  7  1  6
  8  6  1  0
  9  8  2  0
 11 12  1  0
 11 10  1  0
 14 13  1  1
 13 12  1  0
 14 15  1  0
 15  8  1  0
 16 18  1  0
 16 14  1  0
 17 16  2  0
 19 22  1  0
 19 20  1  6
 19 18  1  0
 20 21  1  0
 22 23  1  0
 24 22  2  0
M  END
$$$$
