ETS.pdb
     RDKit          3D

 23 22  0  0  1  0  0  0  0  0999 V2000
   16.4781  -12.0568  -15.4654 N   0  0  0  0  0  0  0  0  0  0  0  0
   16.6238  -10.6149  -15.4580 C   0  0  1  0  0  0  0  0  0  0  0  0
   15.2804  -10.0241  -15.0343 C   0  0  0  0  0  0  0  0  0  0  0  0
   14.2402  -10.2354  -16.1120 C   0  0  0  0  0  0  0  0  0  0  0  0
   12.9436   -9.7445  -15.5992 C   0  0  0  0  0  0  0  0  0  0  0  0
   12.6342   -8.5370  -15.6266 O   0  0  0  0  0  0  0  0  0  0  0  0
   17.6553  -10.2541  -14.4547 C   0  0  0  0  0  0  0  0  0  0  0  0
   17.7900  -10.9234  -13.4018 O   0  0  0  0  0  0  0  0  0  0  0  0
   12.0443  -10.6579  -15.0717 O   0  0  0  0  0  0  0  0  0  0  0  0
   21.2808  -10.4362  -14.5282 C   0  0  0  0  0  0  0  0  0  0  0  0
   20.9389   -8.9971  -14.3294 C   0  0  1  0  0  0  0  0  0  0  0  0
   21.0686   -8.2470  -15.4970 O   0  0  0  0  0  0  0  0  0  0  0  0
   19.5832   -8.7968  -13.6865 C   0  0  2  0  0  0  0  0  0  0  0  0
   18.5371   -9.1499  -14.6206 N   0  0  0  0  0  0  0  0  0  0  0  0
   19.4709   -7.3648  -13.2635 C   0  0  0  0  0  0  0  0  0  0  0  0
   19.0166   -6.5072  -14.0639 O   0  0  0  0  0  0  0  0  0  0  0  0
   18.4832   -5.9023   -9.7611 O   0  0  0  0  0  0  0  0  0  0  0  0
   19.7286   -5.3768  -10.0703 C   0  0  0  0  0  0  0  0  0  0  0  0
   19.9248   -5.5247  -11.5838 C   0  0  2  0  0  0  0  0  0  0  0  0
   19.8603   -6.9109  -11.9737 N   0  0  0  0  0  0  0  0  0  0  0  0
   21.2081   -4.8894  -11.9453 C   0  0  0  0  0  0  0  0  0  0  0  0
   22.1792   -5.5408  -12.3993 O   0  0  0  0  0  0  0  0  0  0  0  0
   21.3534   -3.5327  -11.7813 O   0  0  0  0  0  0  0  0  0  0  0  0
  2  1  1  1
  2  3  1  0
  3  4  1  0
  4  5  1  0
  5  9  1  0
  6  5  2  0
  7 14  1  0
  7  2  1  0
  8  7  2  0
 11 10  1  6
 11 13  1  0
 12 11  1  0
 13 15  1  0
 13 14  1  6
 15 20  1  0
 16 15  2  0
 18 17  1  0
 19 21  1  0
 19 18  1  1
 20 19  1  0
 21 22  2  0
 21 23  1  0
M  END
$$$$
