ETS.pdb
     RDKit          3D

 23 22  0  0  1  0  0  0  0  0999 V2000
   23.1622  -13.8864  -17.8366 N   0  0  0  0  0  0  0  0  0  0  0  0
   23.0434  -12.5287  -18.3295 C   0  0  1  0  0  0  0  0  0  0  0  0
   21.6595  -12.3940  -18.9621 C   0  0  0  0  0  0  0  0  0  0  0  0
   21.5107  -13.3451  -20.1289 C   0  0  0  0  0  0  0  0  0  0  0  0
   20.2210  -13.0580  -20.7919 C   0  0  0  0  0  0  0  0  0  0  0  0
   19.2416  -13.8235  -20.6959 O   0  0  0  0  0  0  0  0  0  0  0  0
   23.1464  -11.6015  -17.1761 C   0  0  0  0  0  0  0  0  0  0  0  0
   22.5687  -11.8575  -16.0918 O   0  0  0  0  0  0  0  0  0  0  0  0
   20.0991  -11.8998  -21.5435 O   0  0  0  0  0  0  0  0  0  0  0  0
   26.3392  -10.3497  -15.5620 C   0  0  0  0  0  0  0  0  0  0  0  0
   25.5163   -9.1566  -15.9178 C   0  0  1  0  0  0  0  0  0  0  0  0
   26.0298   -8.4541  -17.0067 O   0  0  0  0  0  0  0  0  0  0  0  0
   24.0514   -9.4867  -16.1088 C   0  0  2  0  0  0  0  0  0  0  0  0
   23.8908  -10.3901  -17.2267 N   0  0  0  0  0  0  0  0  0  0  0  0
   23.3072   -8.2072  -16.3353 C   0  0  0  0  0  0  0  0  0  0  0  0
   22.9121   -7.9064  -17.4911 O   0  0  0  0  0  0  0  0  0  0  0  0
   20.1625   -5.1293  -15.8863 O   0  0  0  0  0  0  0  0  0  0  0  0
   20.8101   -6.3510  -15.7817 C   0  0  0  0  0  0  0  0  0  0  0  0
   22.2818   -6.0628  -15.4616 C   0  0  2  0  0  0  0  0  0  0  0  0
   23.0162   -7.2909  -15.2880 N   0  0  0  0  0  0  0  0  0  0  0  0
   22.3310   -5.1947  -14.2678 C   0  0  0  0  0  0  0  0  0  0  0  0
   22.7363   -5.6029  -13.1530 O   0  0  0  0  0  0  0  0  0  0  0  0
   21.9190   -3.8879  -14.3726 O   0  0  0  0  0  0  0  0  0  0  0  0
  2  1  1  1
  2  3  1  0
  3  4  1  0
  4  5  1  0
  5  9  1  0
  6  5  2  0
  7 14  1  0
  7  2  1  0
  8  7  2  0
 11 10  1  6
 11 13  1  0
 12 11  1  0
 13 15  1  0
 13 14  1  6
 15 20  1  0
 16 15  2  0
 18 17  1  0
 19 21  1  0
 19 18  1  1
 20 19  1  0
 21 22  2  0
 21 23  1  0
M  END
$$$$
