ETS.pdb
     RDKit          3D

 23 22  0  0  1  0  0  0  0  0999 V2000
   18.9741  -12.9377  -16.2218 N   0  0  0  0  0  0  0  0  0  0  0  0
   18.8912  -11.5431  -16.6074 C   0  0  1  0  0  0  0  0  0  0  0  0
   17.4608  -11.0806  -16.3367 C   0  0  0  0  0  0  0  0  0  0  0  0
   16.5115  -11.6486  -17.3684 C   0  0  0  0  0  0  0  0  0  0  0  0
   16.6702  -10.8696  -18.6146 C   0  0  0  0  0  0  0  0  0  0  0  0
   17.1158  -11.3783  -19.6621 O   0  0  0  0  0  0  0  0  0  0  0  0
   19.8259  -10.7662  -15.7567 C   0  0  0  0  0  0  0  0  0  0  0  0
   19.8881  -10.9679  -14.5196 O   0  0  0  0  0  0  0  0  0  0  0  0
   16.3110   -9.5309  -18.6163 O   0  0  0  0  0  0  0  0  0  0  0  0
   23.4463  -10.7661  -15.4567 C   0  0  0  0  0  0  0  0  0  0  0  0
   23.0564   -9.3947  -15.8978 C   0  0  1  0  0  0  0  0  0  0  0  0
   23.2666   -9.1875  -17.2601 O   0  0  0  0  0  0  0  0  0  0  0  0
   21.6473   -9.0224  -15.4887 C   0  0  2  0  0  0  0  0  0  0  0  0
   20.6913   -9.7653  -16.2796 N   0  0  0  0  0  0  0  0  0  0  0  0
   21.4773   -7.5469  -15.6789 C   0  0  0  0  0  0  0  0  0  0  0  0
   20.8795   -7.1093  -16.6956 O   0  0  0  0  0  0  0  0  0  0  0  0
   21.5937   -5.0682  -12.5381 O   0  0  0  0  0  0  0  0  0  0  0  0
   22.2320   -4.4445  -13.5995 C   0  0  0  0  0  0  0  0  0  0  0  0
   21.7978   -5.1647  -14.8816 C   0  0  2  0  0  0  0  0  0  0  0  0
   21.9679   -6.5899  -14.7491 N   0  0  0  0  0  0  0  0  0  0  0  0
   22.5673   -4.6005  -16.0088 C   0  0  0  0  0  0  0  0  0  0  0  0
   23.5227   -5.2107  -16.5460 O   0  0  0  0  0  0  0  0  0  0  0  0
   22.2313   -3.3597  -16.4947 O   0  0  0  0  0  0  0  0  0  0  0  0
  2  1  1  1
  2  3  1  0
  3  4  1  0
  4  5  1  0
  5  9  1  0
  6  5  2  0
  7 14  1  0
  7  2  1  0
  8  7  2  0
 11 10  1  6
 11 13  1  0
 12 11  1  0
 13 15  1  0
 13 14  1  6
 15 20  1  0
 16 15  2  0
 18 17  1  0
 19 21  1  0
 19 18  1  1
 20 19  1  0
 21 22  2  0
 21 23  1  0
M  END
$$$$
