ETS.pdb
     RDKit          3D

 23 22  0  0  1  0  0  0  0  0999 V2000
   23.2282  -36.6256  -10.9659 N   0  0  0  0  0  0  0  0  0  0  0  0
   22.9432  -35.8117   -9.8011 C   0  0  1  0  0  0  0  0  0  0  0  0
   22.0235  -36.6247   -8.8920 C   0  0  0  0  0  0  0  0  0  0  0  0
   22.7540  -37.8226   -8.3267 C   0  0  0  0  0  0  0  0  0  0  0  0
   21.7670  -38.6730   -7.6283 C   0  0  0  0  0  0  0  0  0  0  0  0
   20.5480  -38.4113   -7.6295 O   0  0  0  0  0  0  0  0  0  0  0  0
   24.2194  -35.5447   -9.0934 C   0  0  0  0  0  0  0  0  0  0  0  0
   25.2429  -36.2304   -9.3326 O   0  0  0  0  0  0  0  0  0  0  0  0
   22.2135  -39.7970   -6.9512 O   0  0  0  0  0  0  0  0  0  0  0  0
   25.6823  -31.8550   -8.5004 C   0  0  0  0  0  0  0  0  0  0  0  0
   25.6454  -32.6583   -7.2432 C   0  0  1  0  0  0  0  0  0  0  0  0
   24.6241  -32.2620   -6.3812 O   0  0  0  0  0  0  0  0  0  0  0  0
   25.6120  -34.1501   -7.4977 C   0  0  2  0  0  0  0  0  0  0  0  0
   24.3590  -34.5165   -8.1199 N   0  0  0  0  0  0  0  0  0  0  0  0
   25.7928  -34.8541   -6.1885 C   0  0  0  0  0  0  0  0  0  0  0  0
   24.8263  -35.4663   -5.6657 O   0  0  0  0  0  0  0  0  0  0  0  0
   28.8228  -36.3284   -2.6923 O   0  0  0  0  0  0  0  0  0  0  0  0
   28.7176  -35.6354   -3.8887 C   0  0  0  0  0  0  0  0  0  0  0  0
   27.2236  -35.4701   -4.1919 C   0  0  2  0  0  0  0  0  0  0  0  0
   27.0293  -34.8679   -5.4870 N   0  0  0  0  0  0  0  0  0  0  0  0
   26.6173  -34.6826   -3.0995 C   0  0  0  0  0  0  0  0  0  0  0  0
   26.1725  -33.5222   -3.2708 O   0  0  0  0  0  0  0  0  0  0  0  0
   26.5328  -35.2338   -1.8435 O   0  0  0  0  0  0  0  0  0  0  0  0
  2  1  1  6
  2  3  1  0
  3  4  1  0
  4  5  1  0
  5  9  1  0
  6  5  2  0
  7 14  1  0
  7  2  1  0
  8  7  2  0
 11 10  1  6
 11 13  1  0
 12 11  1  0
 13 15  1  0
 13 14  1  1
 15 20  1  0
 16 15  2  0
 18 17  1  0
 19 21  1  0
 19 18  1  1
 20 19  1  0
 21 22  2  0
 21 23  1  0
M  END
$$$$
