ETS.pdb
     RDKit          3D

 23 22  0  0  1  0  0  0  0  0999 V2000
   23.1384  -17.2590  -18.5810 N   0  0  0  0  0  0  0  0  0  0  0  0
   23.4622  -18.5887  -18.1042 C   0  0  1  0  0  0  0  0  0  0  0  0
   24.9043  -18.8805  -18.5149 C   0  0  0  0  0  0  0  0  0  0  0  0
   24.9460  -19.5960  -19.8470 C   0  0  0  0  0  0  0  0  0  0  0  0
   26.3592  -19.8932  -20.1629 C   0  0  0  0  0  0  0  0  0  0  0  0
   26.9443  -20.8945  -19.7052 O   0  0  0  0  0  0  0  0  0  0  0  0
   23.3650  -18.5915  -16.6239 C   0  0  0  0  0  0  0  0  0  0  0  0
   23.7159  -17.5895  -15.9547 O   0  0  0  0  0  0  0  0  0  0  0  0
   27.0539  -19.0296  -20.9952 O   0  0  0  0  0  0  0  0  0  0  0  0
   20.4579  -18.6679  -14.5401 C   0  0  0  0  0  0  0  0  0  0  0  0
   21.2612  -19.8407  -14.0857 C   0  0  1  0  0  0  0  0  0  0  0  0
   20.7217  -21.0565  -14.5026 O   0  0  0  0  0  0  0  0  0  0  0  0
   22.7264  -19.7278  -14.4487 C   0  0  2  0  0  0  0  0  0  0  0  0
   22.8782  -19.7068  -15.8867 N   0  0  0  0  0  0  0  0  0  0  0  0
   23.4510  -20.8907  -13.8446 C   0  0  0  0  0  0  0  0  0  0  0  0
   23.7674  -21.8748  -14.5614 O   0  0  0  0  0  0  0  0  0  0  0  0
   27.4171  -21.1592  -12.1583 O   0  0  0  0  0  0  0  0  0  0  0  0
   26.2281  -20.5808  -12.5761 C   0  0  0  0  0  0  0  0  0  0  0  0
   25.0827  -21.4062  -11.9778 C   0  0  2  0  0  0  0  0  0  0  0  0
   23.8092  -20.9437  -12.4698 N   0  0  0  0  0  0  0  0  0  0  0  0
   25.1856  -21.3361  -10.5062 C   0  0  0  0  0  0  0  0  0  0  0  0
   24.5450  -20.5005   -9.8241 O   0  0  0  0  0  0  0  0  0  0  0  0
   26.0124  -22.2159   -9.8499 O   0  0  0  0  0  0  0  0  0  0  0  0
  2  1  1  1
  2  3  1  0
  3  4  1  0
  4  5  1  0
  5  9  1  0
  6  5  2  0
  7 14  1  0
  7  2  1  0
  8  7  2  0
 11 10  1  6
 11 13  1  0
 12 11  1  0
 13 15  1  0
 13 14  1  6
 15 20  1  0
 16 15  2  0
 18 17  1  0
 19 21  1  0
 19 18  1  6
 20 19  1  0
 21 22  2  0
 21 23  1  0
M  END
$$$$
