ETS.pdb
     RDKit          3D

 23 22  0  0  1  0  0  0  0  0999 V2000
   15.5959  -11.6346  -14.8079 N   0  0  0  0  0  0  0  0  0  0  0  0
   17.0287  -11.4231  -14.7548 C   0  0  1  0  0  0  0  0  0  0  0  0
   17.6255  -12.0308  -16.0228 C   0  0  0  0  0  0  0  0  0  0  0  0
   18.9117  -12.7629  -15.7101 C   0  0  0  0  0  0  0  0  0  0  0  0
   19.4622  -13.2836  -16.9793 C   0  0  0  0  0  0  0  0  0  0  0  0
   20.0997  -12.5615  -17.7710 O   0  0  0  0  0  0  0  0  0  0  0  0
   17.2859   -9.9621  -14.7444 C   0  0  0  0  0  0  0  0  0  0  0  0
   16.8002   -9.2175  -15.6302 O   0  0  0  0  0  0  0  0  0  0  0  0
   19.2623  -14.6178  -17.2971 O   0  0  0  0  0  0  0  0  0  0  0  0
   16.0909   -7.4200  -12.5425 C   0  0  0  0  0  0  0  0  0  0  0  0
   17.5779   -7.3566  -12.4332 C   0  0  1  0  0  0  0  0  0  0  0  0
   18.0572   -7.9446  -11.2638 O   0  0  0  0  0  0  0  0  0  0  0  0
   18.2825   -7.8987  -13.6584 C   0  0  2  0  0  0  0  0  0  0  0  0
   18.0825   -9.3280  -13.7507 N   0  0  0  0  0  0  0  0  0  0  0  0
   19.7375   -7.5613  -13.5513 C   0  0  0  0  0  0  0  0  0  0  0  0
   20.5846   -8.4772  -13.3906 O   0  0  0  0  0  0  0  0  0  0  0  0
   21.7072   -6.0747  -15.9786 O   0  0  0  0  0  0  0  0  0  0  0  0
   22.3373   -6.5190  -14.8262 C   0  0  0  0  0  0  0  0  0  0  0  0
   21.6218   -5.8714  -13.6346 C   0  0  2  0  0  0  0  0  0  0  0  0
   20.2252   -6.2277  -13.6229 N   0  0  0  0  0  0  0  0  0  0  0  0
   21.8378   -4.4121  -13.7066 C   0  0  0  0  0  0  0  0  0  0  0  0
   20.9109   -3.6043  -13.9556 O   0  0  0  0  0  0  0  0  0  0  0  0
   23.0995   -3.9106  -13.4941 O   0  0  0  0  0  0  0  0  0  0  0  0
  2  1  1  6
  2  3  1  0
  3  4  1  0
  4  5  1  0
  5  9  1  0
  6  5  2  0
  7 14  1  0
  7  2  1  0
  8  7  2  0
 11 10  1  6
 11 13  1  0
 12 11  1  0
 13 15  1  0
 13 14  1  1
 15 20  1  0
 16 15  2  0
 18 17  1  0
 19 21  1  0
 19 18  1  6
 20 19  1  0
 21 22  2  0
 21 23  1  0
M  END
$$$$
