ETS.pdb
     RDKit          3D

 23 22  0  0  1  0  0  0  0  0999 V2000
   18.8262  -12.8961  -15.9838 N   0  0  0  0  0  0  0  0  0  0  0  0
   18.8474  -11.5704  -16.5689 C   0  0  1  0  0  0  0  0  0  0  0  0
   17.3972  -11.1107  -16.7065 C   0  0  0  0  0  0  0  0  0  0  0  0
   16.6617  -11.9593  -17.7199 C   0  0  0  0  0  0  0  0  0  0  0  0
   15.2466  -11.5321  -17.7338 C   0  0  0  0  0  0  0  0  0  0  0  0
   14.8076  -10.7198  -18.5716 O   0  0  0  0  0  0  0  0  0  0  0  0
   19.5630  -10.6608  -15.6408 C   0  0  0  0  0  0  0  0  0  0  0  0
   19.2159  -10.5658  -14.4386 O   0  0  0  0  0  0  0  0  0  0  0  0
   14.3818  -12.0531  -16.7841 O   0  0  0  0  0  0  0  0  0  0  0  0
   23.1602  -10.7067  -14.5590 C   0  0  0  0  0  0  0  0  0  0  0  0
   22.8859   -9.3870  -15.1997 C   0  0  1  0  0  0  0  0  0  0  0  0
   23.4028   -9.2980  -16.4911 O   0  0  0  0  0  0  0  0  0  0  0  0
   21.4218   -9.0047  -15.1583 C   0  0  2  0  0  0  0  0  0  0  0  0
   20.6640   -9.8567  -16.0478 N   0  0  0  0  0  0  0  0  0  0  0  0
   21.3008   -7.5654  -15.5533 C   0  0  0  0  0  0  0  0  0  0  0  0
   21.1186   -7.2582  -16.7594 O   0  0  0  0  0  0  0  0  0  0  0  0
   19.8776   -3.2122  -14.9092 O   0  0  0  0  0  0  0  0  0  0  0  0
   19.9463   -4.5242  -14.4654 C   0  0  0  0  0  0  0  0  0  0  0  0
   21.2779   -5.1044  -14.9567 C   0  0  2  0  0  0  0  0  0  0  0  0
   21.3833   -6.5007  -14.6148 N   0  0  0  0  0  0  0  0  0  0  0  0
   22.3716   -4.2928  -14.3855 C   0  0  0  0  0  0  0  0  0  0  0  0
   22.8818   -4.5402  -13.2664 O   0  0  0  0  0  0  0  0  0  0  0  0
   22.8555   -3.2233  -15.0999 O   0  0  0  0  0  0  0  0  0  0  0  0
  2  1  1  1
  2  3  1  0
  3  4  1  0
  4  5  1  0
  5  9  1  0
  6  5  2  0
  7 14  1  0
  7  2  1  0
  8  7  2  0
 11 10  1  6
 11 13  1  0
 12 11  1  0
 13 15  1  0
 13 14  1  6
 15 20  1  0
 16 15  2  0
 18 17  1  0
 19 21  1  0
 19 18  1  1
 20 19  1  0
 21 22  2  0
 21 23  1  0
M  END
$$$$
