ETS.pdb
     RDKit          3D

 23 22  0  0  1  0  0  0  0  0999 V2000
   18.9375  -12.8981  -16.3958 N   0  0  0  0  0  0  0  0  0  0  0  0
   19.0843  -11.5281  -16.8450 C   0  0  1  0  0  0  0  0  0  0  0  0
   17.6804  -10.9437  -16.9889 C   0  0  0  0  0  0  0  0  0  0  0  0
   16.9599  -11.5676  -18.1636 C   0  0  0  0  0  0  0  0  0  0  0  0
   17.3200  -10.8061  -19.3783 C   0  0  0  0  0  0  0  0  0  0  0  0
   18.1090   -9.8412  -19.3462 O   0  0  0  0  0  0  0  0  0  0  0  0
   19.8249  -10.7718  -15.8057 C   0  0  0  0  0  0  0  0  0  0  0  0
   19.5355  -10.8966  -14.5910 O   0  0  0  0  0  0  0  0  0  0  0  0
   16.7615  -11.1788  -20.5909 O   0  0  0  0  0  0  0  0  0  0  0  0
   23.3186  -10.8073  -14.5602 C   0  0  0  0  0  0  0  0  0  0  0  0
   23.0615   -9.4528  -15.1317 C   0  0  1  0  0  0  0  0  0  0  0  0
   23.6357   -9.2820  -16.3903 O   0  0  0  0  0  0  0  0  0  0  0  0
   21.5936   -9.0831  -15.1344 C   0  0  2  0  0  0  0  0  0  0  0  0
   20.8867   -9.8767  -16.1151 N   0  0  0  0  0  0  0  0  0  0  0  0
   21.4781   -7.6209  -15.4357 C   0  0  0  0  0  0  0  0  0  0  0  0
   21.5279   -7.2191  -16.6267 O   0  0  0  0  0  0  0  0  0  0  0  0
   19.0363   -5.1790  -15.3853 O   0  0  0  0  0  0  0  0  0  0  0  0
   19.8730   -4.6563  -14.4108 C   0  0  0  0  0  0  0  0  0  0  0  0
   21.2774   -5.2171  -14.6647 C   0  0  2  0  0  0  0  0  0  0  0  0
   21.3111   -6.6376  -14.4226 N   0  0  0  0  0  0  0  0  0  0  0  0
   22.2301   -4.4711  -13.8181 C   0  0  0  0  0  0  0  0  0  0  0  0
   22.6791   -4.9312  -12.7408 O   0  0  0  0  0  0  0  0  0  0  0  0
   22.6467   -3.2239  -14.2175 O   0  0  0  0  0  0  0  0  0  0  0  0
  2  1  1  1
  2  3  1  0
  3  4  1  0
  4  5  1  0
  5  9  1  0
  6  5  2  0
  7 14  1  0
  7  2  1  0
  8  7  2  0
 11 10  1  6
 11 13  1  0
 12 11  1  0
 13 15  1  0
 13 14  1  6
 15 20  1  0
 16 15  2  0
 18 17  1  0
 19 21  1  0
 19 18  1  1
 20 19  1  0
 21 22  2  0
 21 23  1  0
M  END
$$$$
