ETS.pdb
     RDKit          3D

 23 22  0  0  1  0  0  0  0  0999 V2000
   18.5336  -20.4382  -15.8174 N   0  0  0  0  0  0  0  0  0  0  0  0
   19.8005  -20.2383  -16.4922 C   0  0  1  0  0  0  0  0  0  0  0  0
   19.5698  -19.2090  -17.5970 C   0  0  0  0  0  0  0  0  0  0  0  0
   19.0436  -19.8771  -18.8480 C   0  0  0  0  0  0  0  0  0  0  0  0
   17.6034  -20.1464  -18.6519 C   0  0  0  0  0  0  0  0  0  0  0  0
   17.1303  -21.2984  -18.7124 O   0  0  0  0  0  0  0  0  0  0  0  0
   20.7719  -19.6943  -15.5118 C   0  0  0  0  0  0  0  0  0  0  0  0
   21.2036  -18.5207  -15.6179 O   0  0  0  0  0  0  0  0  0  0  0  0
   16.7537  -19.0825  -18.3923 O   0  0  0  0  0  0  0  0  0  0  0  0
   20.3705  -18.8880  -11.9843 C   0  0  0  0  0  0  0  0  0  0  0  0
   21.4527  -19.9130  -12.0582 C   0  0  1  0  0  0  0  0  0  0  0  0
   21.0162  -21.1840  -11.6881 O   0  0  0  0  0  0  0  0  0  0  0  0
   22.1543  -19.9338  -13.3994 C   0  0  2  0  0  0  0  0  0  0  0  0
   21.2642  -20.4535  -14.4139 N   0  0  0  0  0  0  0  0  0  0  0  0
   23.3839  -20.7789  -13.2733 C   0  0  0  0  0  0  0  0  0  0  0  0
   23.3223  -22.0151  -13.4980 O   0  0  0  0  0  0  0  0  0  0  0  0
   28.1672  -21.0728  -12.5774 O   0  0  0  0  0  0  0  0  0  0  0  0
   27.0945  -20.2206  -12.7915 C   0  0  0  0  0  0  0  0  0  0  0  0
   25.8133  -21.0428  -12.6087 C   0  0  2  0  0  0  0  0  0  0  0  0
   24.6490  -20.2459  -12.9036 N   0  0  0  0  0  0  0  0  0  0  0  0
   25.8039  -21.5796  -11.2329 C   0  0  0  0  0  0  0  0  0  0  0  0
   25.0780  -21.1029  -10.3276 O   0  0  0  0  0  0  0  0  0  0  0  0
   26.6186  -22.6420  -10.9228 O   0  0  0  0  0  0  0  0  0  0  0  0
  2  1  1  1
  2  3  1  0
  3  4  1  0
  4  5  1  0
  5  9  1  0
  6  5  2  0
  7 14  1  0
  7  2  1  0
  8  7  2  0
 11 10  1  6
 11 13  1  0
 12 11  1  0
 13 15  1  0
 13 14  1  6
 15 20  1  0
 16 15  2  0
 18 17  1  0
 19 21  1  0
 19 18  1  1
 20 19  1  0
 21 22  2  0
 21 23  1  0
M  END
$$$$
