ETS.pdb
     RDKit          3D

 23 22  0  0  1  0  0  0  0  0999 V2000
   18.7810  -12.3696  -16.3169 N   0  0  0  0  0  0  0  0  0  0  0  0
   19.2143  -11.1139  -16.8964 C   0  0  1  0  0  0  0  0  0  0  0  0
   17.9606  -10.3558  -17.3286 C   0  0  0  0  0  0  0  0  0  0  0  0
   17.2546  -11.0860  -18.4495 C   0  0  0  0  0  0  0  0  0  0  0  0
   16.0287  -10.3319  -18.7864 C   0  0  0  0  0  0  0  0  0  0  0  0
   15.9785   -9.5459  -19.7529 O   0  0  0  0  0  0  0  0  0  0  0  0
   19.9208  -10.3349  -15.8500 C   0  0  0  0  0  0  0  0  0  0  0  0
   19.4653  -10.2653  -14.6828 O   0  0  0  0  0  0  0  0  0  0  0  0
   14.8998  -10.5061  -18.0012 O   0  0  0  0  0  0  0  0  0  0  0  0
   23.5147  -10.6420  -14.6095 C   0  0  0  0  0  0  0  0  0  0  0  0
   23.2989   -9.2433  -15.0834 C   0  0  1  0  0  0  0  0  0  0  0  0
   23.9219   -8.9865  -16.3036 O   0  0  0  0  0  0  0  0  0  0  0  0
   21.8377   -8.8489  -15.1102 C   0  0  2  0  0  0  0  0  0  0  0  0
   21.1329   -9.6331  -16.0999 N   0  0  0  0  0  0  0  0  0  0  0  0
   21.7517   -7.3857  -15.4169 C   0  0  0  0  0  0  0  0  0  0  0  0
   21.3714   -7.0035  -16.5534 O   0  0  0  0  0  0  0  0  0  0  0  0
   20.2085   -4.5393  -16.2997 O   0  0  0  0  0  0  0  0  0  0  0  0
   20.3480   -4.7185  -14.9318 C   0  0  0  0  0  0  0  0  0  0  0  0
   21.8342   -4.9727  -14.6528 C   0  0  2  0  0  0  0  0  0  0  0  0
   22.0855   -6.3801  -14.4690 N   0  0  0  0  0  0  0  0  0  0  0  0
   22.2265   -4.1650  -13.4803 C   0  0  0  0  0  0  0  0  0  0  0  0
   22.4563   -4.6738  -12.3569 O   0  0  0  0  0  0  0  0  0  0  0  0
   22.3469   -2.8028  -13.6153 O   0  0  0  0  0  0  0  0  0  0  0  0
  2  1  1  1
  2  3  1  0
  3  4  1  0
  4  5  1  0
  5  9  1  0
  6  5  2  0
  7 14  1  0
  7  2  1  0
  8  7  2  0
 11 10  1  6
 11 13  1  0
 12 11  1  0
 13 15  1  0
 13 14  1  6
 15 20  1  0
 16 15  2  0
 18 17  1  0
 19 21  1  0
 19 18  1  1
 20 19  1  0
 21 22  2  0
 21 23  1  0
M  END
$$$$
