ETS.pdb
     RDKit          3D

 23 22  0  0  1  0  0  0  0  0999 V2000
   13.2874   -9.1337   -9.4917 N   0  0  0  0  0  0  0  0  0  0  0  0
   14.6909   -9.3787   -9.7569 C   0  0  1  0  0  0  0  0  0  0  0  0
   14.7688  -10.4800  -10.8126 C   0  0  0  0  0  0  0  0  0  0  0  0
   14.3300  -11.8068  -10.2337 C   0  0  0  0  0  0  0  0  0  0  0  0
   14.2638  -12.7882  -11.3372 C   0  0  0  0  0  0  0  0  0  0  0  0
   13.4716  -12.6602  -12.2914 O   0  0  0  0  0  0  0  0  0  0  0  0
   15.2881   -8.1351  -10.3023 C   0  0  0  0  0  0  0  0  0  0  0  0
   14.6578   -7.4257  -11.1235 O   0  0  0  0  0  0  0  0  0  0  0  0
   15.1109  -13.8849  -11.3080 O   0  0  0  0  0  0  0  0  0  0  0  0
   15.9138   -4.8812   -9.1115 C   0  0  0  0  0  0  0  0  0  0  0  0
   17.2676   -5.4016   -9.4631 C   0  0  1  0  0  0  0  0  0  0  0  0
   18.0087   -5.7740   -8.3428 O   0  0  0  0  0  0  0  0  0  0  0  0
   17.2238   -6.5084  -10.4949 C   0  0  2  0  0  0  0  0  0  0  0  0
   16.5851   -7.6792   -9.9359 N   0  0  0  0  0  0  0  0  0  0  0  0
   18.6275   -6.8088  -10.9213 C   0  0  0  0  0  0  0  0  0  0  0  0
   19.1072   -7.9573  -10.7390 O   0  0  0  0  0  0  0  0  0  0  0  0
   21.2972   -7.2350  -14.3440 O   0  0  0  0  0  0  0  0  0  0  0  0
   20.1760   -7.0361  -13.5527 C   0  0  0  0  0  0  0  0  0  0  0  0
   20.6013   -6.1592  -12.3688 C   0  0  2  0  0  0  0  0  0  0  0  0
   19.4683   -5.8414  -11.5363 N   0  0  0  0  0  0  0  0  0  0  0  0
   21.2710   -4.9569  -12.9046 C   0  0  0  0  0  0  0  0  0  0  0  0
   22.5168   -4.8770  -13.0279 O   0  0  0  0  0  0  0  0  0  0  0  0
   20.5082   -3.8790  -13.2852 O   0  0  0  0  0  0  0  0  0  0  0  0
  2  1  1  6
  2  3  1  0
  3  4  1  0
  4  5  1  0
  5  9  1  0
  6  5  2  0
  7 14  1  0
  7  2  1  0
  8  7  2  0
 11 10  1  1
 11 13  1  0
 12 11  1  0
 13 15  1  0
 13 14  1  1
 15 20  1  0
 16 15  2  0
 18 17  1  0
 19 21  1  0
 19 18  1  6
 20 19  1  0
 21 22  2  0
 21 23  1  0
M  END
$$$$
