ETS.pdb
     RDKit          3D

 23 22  0  0  1  0  0  0  0  0999 V2000
   18.7578  -27.1969   -3.3765 N   0  0  0  0  0  0  0  0  0  0  0  0
   17.6245  -27.1616   -4.2792 C   0  0  1  0  0  0  0  0  0  0  0  0
   16.3605  -27.2473   -3.4258 C   0  0  0  0  0  0  0  0  0  0  0  0
   16.6324  -28.0005   -2.1425 C   0  0  0  0  0  0  0  0  0  0  0  0
   16.1731  -27.1631   -1.0142 C   0  0  0  0  0  0  0  0  0  0  0  0
   15.0423  -27.2974   -0.5065 O   0  0  0  0  0  0  0  0  0  0  0  0
   17.6410  -25.8652   -5.0002 C   0  0  0  0  0  0  0  0  0  0  0  0
   17.8743  -24.7934   -4.3907 O   0  0  0  0  0  0  0  0  0  0  0  0
   17.0290  -26.1987   -0.5058 O   0  0  0  0  0  0  0  0  0  0  0  0
   19.6206  -23.4420   -7.9458 C   0  0  0  0  0  0  0  0  0  0  0  0
   18.6934  -24.6026   -8.0898 C   0  0  1  0  0  0  0  0  0  0  0  0
   19.3481  -25.8294   -7.9944 O   0  0  0  0  0  0  0  0  0  0  0  0
   17.5077  -24.5296   -7.1517 C   0  0  2  0  0  0  0  0  0  0  0  0
   17.3983  -25.7591   -6.3981 N   0  0  0  0  0  0  0  0  0  0  0  0
   16.2769  -24.2838   -7.9685 C   0  0  0  0  0  0  0  0  0  0  0  0
   15.6256  -25.2555   -8.4312 O   0  0  0  0  0  0  0  0  0  0  0  0
   13.2730  -21.0433   -9.9963 O   0  0  0  0  0  0  0  0  0  0  0  0
   14.3913  -21.2024   -9.1920 C   0  0  0  0  0  0  0  0  0  0  0  0
   14.7851  -22.6835   -9.2439 C   0  0  2  0  0  0  0  0  0  0  0  0
   15.7930  -22.9784   -8.2565 N   0  0  0  0  0  0  0  0  0  0  0  0
   15.2251  -22.9942  -10.6190 C   0  0  0  0  0  0  0  0  0  0  0  0
   16.3634  -22.6884  -11.0485 O   0  0  0  0  0  0  0  0  0  0  0  0
   14.3612  -23.6432  -11.4681 O   0  0  0  0  0  0  0  0  0  0  0  0
  2  1  1  1
  2  3  1  0
  3  4  1  0
  4  5  1  0
  5  9  1  0
  6  5  2  0
  7 14  1  0
  7  2  1  0
  8  7  2  0
 11 10  1  1
 11 13  1  0
 12 11  1  0
 13 15  1  0
 13 14  1  6
 15 20  1  0
 16 15  2  0
 18 17  1  0
 19 21  1  0
 19 18  1  6
 20 19  1  0
 21 22  2  0
 21 23  1  0
M  END
$$$$
