KKM.pdb
     RDKit          3D

 27 26  0  0  1  0  0  0  0  0999 V2000
   22.1608  -18.5797  -16.9349 N   0  0  0  0  0  0  0  0  0  0  0  0
   21.9467  -17.4656  -16.0541 C   0  0  1  0  0  0  0  0  0  0  0  0
   21.4759  -17.7990  -14.6935 C   0  0  0  0  0  0  0  0  0  0  0  0
   20.1788  -18.5269  -14.6471 C   0  0  0  0  0  0  0  0  0  0  0  0
   20.3358  -19.9870  -14.3381 C   0  0  0  0  0  0  0  0  0  0  0  0
   18.9191  -20.5902  -14.4504 C   0  0  0  0  0  0  0  0  0  0  0  0
   18.9838  -22.0194  -14.2374 N   0  0  0  0  0  0  0  0  0  0  0  0
   23.1767  -16.5857  -15.9970 C   0  0  0  0  0  0  0  0  0  0  0  0
   23.1715  -15.7242  -15.1110 O   0  0  0  0  0  0  0  0  0  0  0  0
   24.1916  -16.7955  -16.9081 N   0  0  0  0  0  0  0  0  0  0  0  0
   25.4314  -16.1133  -16.9538 C   0  0  1  0  0  0  0  0  0  0  0  0
   26.5146  -16.7732  -17.7737 C   0  0  0  0  0  0  0  0  0  0  0  0
   27.3159  -17.6828  -16.8799 C   0  0  0  0  0  0  0  0  0  0  0  0
   27.1346  -19.1483  -17.2940 C   0  0  0  0  0  0  0  0  0  0  0  0
   27.9374  -20.0251  -16.3442 C   0  0  0  0  0  0  0  0  0  0  0  0
   27.5341  -21.3916  -16.5386 N   0  0  0  0  0  0  0  0  0  0  0  0
   25.2752  -14.6849  -17.1439 C   0  0  0  0  0  0  0  0  0  0  0  0
   24.3927  -14.3100  -17.9937 O   0  0  0  0  0  0  0  0  0  0  0  0
   22.9264  -10.3654  -13.4678 C   0  0  0  0  0  0  0  0  0  0  0  0
   24.4015   -9.4462  -13.9925 S   0  0  0  0  0  0  0  0  0  0  0  0
   25.0212  -10.1625  -15.5624 C   0  0  0  0  0  0  0  0  0  0  0  0
   25.3596  -11.6124  -15.3808 C   0  0  0  0  0  0  0  0  0  0  0  0
   25.6285  -12.2795  -16.6858 C   0  0  2  0  0  0  0  0  0  0  0  0
   25.9901  -13.6779  -16.4937 N   0  0  0  0  0  0  0  0  0  0  0  0
   26.7832  -11.6444  -17.3545 C   0  0  0  0  0  0  0  0  0  0  0  0
   27.8681  -12.3166  -17.4261 O   0  0  0  0  0  0  0  0  0  0  0  0
   26.7991  -10.3960  -17.9110 O   0  0  0  0  0  0  0  0  0  0  0  0
  2  1  1  1
  2  8  1  0
  2  3  1  0
  4  5  1  0
  4  3  1  0
  6  5  1  0
  7  6  1  0
  8  9  2  0
 10 11  1  0
 10  8  1  0
 12 13  1  0
 11 12  1  6
 14 13  1  0
 15 14  1  0
 16 15  1  0
 17 18  2  0
 17 11  1  0
 19 20  1  0
 21 20  1  0
 21 22  1  0
 23 22  1  1
 23 24  1  0
 23 25  1  0
 24 17  1  0
 25 27  1  0
 26 25  2  0
M  END
$$$$
