KKM.pdb
     RDKit          3D

 27 26  0  0  1  0  0  0  0  0999 V2000
   22.8204  -16.3623  -17.9126 N   0  0  0  0  0  0  0  0  0  0  0  0
   21.6421  -17.1040  -17.5599 C   0  0  1  0  0  0  0  0  0  0  0  0
   20.5717  -17.1387  -18.5783 C   0  0  0  0  0  0  0  0  0  0  0  0
   20.9427  -16.5385  -19.8886 C   0  0  0  0  0  0  0  0  0  0  0  0
   20.4759  -17.3522  -21.0600 C   0  0  0  0  0  0  0  0  0  0  0  0
   21.0060  -16.6204  -22.3119 C   0  0  0  0  0  0  0  0  0  0  0  0
   20.3032  -15.3665  -22.4727 N   0  0  0  0  0  0  0  0  0  0  0  0
   22.0055  -18.5037  -17.1138 C   0  0  0  0  0  0  0  0  0  0  0  0
   21.0540  -19.2159  -16.7752 O   0  0  0  0  0  0  0  0  0  0  0  0
   23.3325  -18.8820  -17.1140 N   0  0  0  0  0  0  0  0  0  0  0  0
   23.8600  -20.0896  -16.5964 C   0  0  1  0  0  0  0  0  0  0  0  0
   25.1362  -20.5782  -17.2394 C   0  0  0  0  0  0  0  0  0  0  0  0
   25.4479  -21.9563  -16.7178 C   0  0  0  0  0  0  0  0  0  0  0  0
   26.7580  -22.4806  -17.3182 C   0  0  0  0  0  0  0  0  0  0  0  0
   26.9981  -23.8924  -16.8039 C   0  0  0  0  0  0  0  0  0  0  0  0
   28.2130  -24.3885  -17.3918 N   0  0  0  0  0  0  0  0  0  0  0  0
   23.8218  -20.1393  -15.1483 C   0  0  0  0  0  0  0  0  0  0  0  0
   24.2089  -19.0887  -14.5254 O   0  0  0  0  0  0  0  0  0  0  0  0
   24.9988  -20.8295   -8.3206 C   0  0  0  0  0  0  0  0  0  0  0  0
   25.0757  -21.0851  -10.1164 S   0  0  0  0  0  0  0  0  0  0  0  0
   24.0685  -19.7958  -10.9440 C   0  0  0  0  0  0  0  0  0  0  0  0
   24.1481  -19.9433  -12.4345 C   0  0  0  0  0  0  0  0  0  0  0  0
   23.3167  -21.0817  -12.9173 C   0  0  2  0  0  0  0  0  0  0  0  0
   23.4053  -21.2170  -14.3654 N   0  0  0  0  0  0  0  0  0  0  0  0
   21.8913  -20.8366  -12.6137 C   0  0  0  0  0  0  0  0  0  0  0  0
   21.2947  -19.9206  -13.2762 O   0  0  0  0  0  0  0  0  0  0  0  0
   21.1439  -21.5054  -11.6849 O   0  0  0  0  0  0  0  0  0  0  0  0
  2  1  1  6
  2  8  1  0
  2  3  1  0
  4  5  1  0
  4  3  1  0
  6  5  1  0
  7  6  1  0
  8  9  2  0
 10 11  1  0
 10  8  1  0
 12 13  1  0
 11 12  1  1
 14 13  1  0
 15 14  1  0
 16 15  1  0
 17 18  2  0
 17 11  1  0
 19 20  1  0
 21 20  1  0
 21 22  1  0
 23 22  1  6
 23 24  1  0
 23 25  1  0
 24 17  1  0
 25 27  1  0
 26 25  2  0
M  END
$$$$
