KKM.pdb
     RDKit          3D

 27 26  0  0  1  0  0  0  0  0999 V2000
   26.0212  -31.8696  -16.4362 N   0  0  0  0  0  0  0  0  0  0  0  0
   26.7087  -33.0603  -16.0207 C   0  0  1  0  0  0  0  0  0  0  0  0
   28.1260  -32.8880  -15.6389 C   0  0  0  0  0  0  0  0  0  0  0  0
   29.0397  -32.5755  -16.7713 C   0  0  0  0  0  0  0  0  0  0  0  0
   30.4687  -32.4100  -16.3439 C   0  0  0  0  0  0  0  0  0  0  0  0
   31.2483  -32.0561  -17.6286 C   0  0  0  0  0  0  0  0  0  0  0  0
   32.6516  -31.8993  -17.3148 N   0  0  0  0  0  0  0  0  0  0  0  0
   25.9390  -33.7670  -14.9260 C   0  0  0  0  0  0  0  0  0  0  0  0
   26.3517  -34.8938  -14.6305 O   0  0  0  0  0  0  0  0  0  0  0  0
   24.8611  -33.1286  -14.3475 N   0  0  0  0  0  0  0  0  0  0  0  0
   24.1412  -33.5640  -13.2087 C   0  0  1  0  0  0  0  0  0  0  0  0
   24.0943  -32.5953  -12.0511 C   0  0  0  0  0  0  0  0  0  0  0  0
   23.5222  -33.3000  -10.8492 C   0  0  0  0  0  0  0  0  0  0  0  0
   23.2946  -32.3126   -9.6982 C   0  0  0  0  0  0  0  0  0  0  0  0
   22.5428  -33.0278   -8.5851 C   0  0  0  0  0  0  0  0  0  0  0  0
   22.2452  -32.0724   -7.5525 N   0  0  0  0  0  0  0  0  0  0  0  0
   22.8852  -34.2002  -13.5530 C   0  0  0  0  0  0  0  0  0  0  0  0
   22.2262  -33.6863  -14.5241 O   0  0  0  0  0  0  0  0  0  0  0  0
   20.0185  -39.1134  -17.9148 C   0  0  0  0  0  0  0  0  0  0  0  0
   21.1500  -37.8391  -17.2889 S   0  0  0  0  0  0  0  0  0  0  0  0
   20.8059  -37.5605  -15.5097 C   0  0  0  0  0  0  0  0  0  0  0  0
   21.6612  -36.4496  -14.9768 C   0  0  0  0  0  0  0  0  0  0  0  0
   21.2632  -36.0679  -13.5925 C   0  0  2  0  0  0  0  0  0  0  0  0
   22.3225  -35.3164  -12.9321 N   0  0  0  0  0  0  0  0  0  0  0  0
   21.0451  -37.2780  -12.7729 C   0  0  0  0  0  0  0  0  0  0  0  0
   21.8073  -38.2818  -12.9861 O   0  0  0  0  0  0  0  0  0  0  0  0
   20.0986  -37.4248  -11.7977 O   0  0  0  0  0  0  0  0  0  0  0  0
  2  1  1  1
  2  8  1  0
  2  3  1  0
  4  5  1  0
  4  3  1  0
  6  5  1  0
  7  6  1  0
  8  9  2  0
 10 11  1  0
 10  8  1  0
 12 13  1  0
 11 12  1  1
 14 13  1  0
 15 14  1  0
 16 15  1  0
 17 18  2  0
 17 11  1  0
 19 20  1  0
 21 20  1  0
 21 22  1  0
 23 22  1  6
 23 24  1  0
 23 25  1  0
 24 17  1  0
 25 27  1  0
 26 25  2  0
M  END
$$$$
