KKM.pdb
     RDKit          3D

 27 26  0  0  1  0  0  0  0  0999 V2000
   23.4755  -11.0337  -19.2724 N   0  0  0  0  0  0  0  0  0  0  0  0
   23.2512   -9.7016  -19.7605 C   0  0  1  0  0  0  0  0  0  0  0  0
   22.7801   -9.5962  -21.1573 C   0  0  0  0  0  0  0  0  0  0  0  0
   22.3090  -10.8769  -21.7512 C   0  0  0  0  0  0  0  0  0  0  0  0
   20.8424  -10.8720  -22.0690 C   0  0  0  0  0  0  0  0  0  0  0  0
   20.5620  -12.2250  -22.7578 C   0  0  0  0  0  0  0  0  0  0  0  0
   20.6012  -13.2853  -21.7747 N   0  0  0  0  0  0  0  0  0  0  0  0
   22.3387   -8.9369  -18.8261 C   0  0  0  0  0  0  0  0  0  0  0  0
   22.1300   -7.7588  -19.1355 O   0  0  0  0  0  0  0  0  0  0  0  0
   21.8158   -9.5835  -17.7249 N   0  0  0  0  0  0  0  0  0  0  0  0
   20.9296   -9.0292  -16.7698 C   0  0  1  0  0  0  0  0  0  0  0  0
   20.1077  -10.0218  -15.9824 C   0  0  0  0  0  0  0  0  0  0  0  0
   18.8369   -9.3517  -15.5303 C   0  0  0  0  0  0  0  0  0  0  0  0
   17.9272  -10.3484  -14.8016 C   0  0  0  0  0  0  0  0  0  0  0  0
   16.6197   -9.6509  -14.4560 C   0  0  0  0  0  0  0  0  0  0  0  0
   15.8044  -10.5640  -13.7015 N   0  0  0  0  0  0  0  0  0  0  0  0
   21.5352   -7.9590  -16.0025 C   0  0  0  0  0  0  0  0  0  0  0  0
   22.7028   -8.1822  -15.5244 O   0  0  0  0  0  0  0  0  0  0  0  0
   22.9493   -0.4086  -14.6569 C   0  0  0  0  0  0  0  0  0  0  0  0
   22.0368   -1.6509  -15.6161 S   0  0  0  0  0  0  0  0  0  0  0  0
   22.3058   -3.3000  -14.8612 C   0  0  0  0  0  0  0  0  0  0  0  0
   21.5423   -4.3515  -15.6103 C   0  0  0  0  0  0  0  0  0  0  0  0
   21.7378   -5.7016  -15.0107 C   0  0  2  0  0  0  0  0  0  0  0  0
   20.9734   -6.7102  -15.7328 N   0  0  0  0  0  0  0  0  0  0  0  0
   21.2339   -5.7202  -13.6216 C   0  0  0  0  0  0  0  0  0  0  0  0
   19.9894   -5.9543  -13.4472 O   0  0  0  0  0  0  0  0  0  0  0  0
   21.9809   -5.5117  -12.4960 O   0  0  0  0  0  0  0  0  0  0  0  0
  2  1  1  1
  2  8  1  0
  2  3  1  0
  4  5  1  0
  4  3  1  0
  6  5  1  0
  7  6  1  0
  8  9  2  0
 10 11  1  0
 10  8  1  0
 12 13  1  0
 11 12  1  1
 14 13  1  0
 15 14  1  0
 16 15  1  0
 17 18  2  0
 17 11  1  0
 19 20  1  0
 21 20  1  0
 21 22  1  0
 23 22  1  6
 23 24  1  0
 23 25  1  0
 24 17  1  0
 25 27  1  0
 26 25  2  0
M  END
$$$$
