KKM.pdb
     RDKit          3D

 27 26  0  0  1  0  0  0  0  0999 V2000
   18.2562   -9.7601  -20.8884 N   0  0  0  0  0  0  0  0  0  0  0  0
   19.0895   -8.6140  -20.6535 C   0  0  1  0  0  0  0  0  0  0  0  0
   18.8163   -7.4327  -21.4984 C   0  0  0  0  0  0  0  0  0  0  0  0
   18.2367   -7.7453  -22.8330 C   0  0  0  0  0  0  0  0  0  0  0  0
   19.2613   -8.2208  -23.8211 C   0  0  0  0  0  0  0  0  0  0  0  0
   18.5035   -9.1559  -24.7879 C   0  0  0  0  0  0  0  0  0  0  0  0
   19.4252   -9.6887  -25.7671 N   0  0  0  0  0  0  0  0  0  0  0  0
   19.0820   -8.2397  -19.1872 C   0  0  0  0  0  0  0  0  0  0  0  0
   18.2629   -7.3720  -18.8657 O   0  0  0  0  0  0  0  0  0  0  0  0
   19.9617   -8.8709  -18.3317 N   0  0  0  0  0  0  0  0  0  0  0  0
   20.0210   -8.7152  -16.9256 C   0  0  1  0  0  0  0  0  0  0  0  0
   20.0607   -9.9946  -16.1241 C   0  0  0  0  0  0  0  0  0  0  0  0
   18.7458  -10.7112  -16.2852 C   0  0  0  0  0  0  0  0  0  0  0  0
   18.7323  -12.0106  -15.4708 C   0  0  0  0  0  0  0  0  0  0  0  0
   17.3987  -12.7093  -15.6915 C   0  0  0  0  0  0  0  0  0  0  0  0
   17.4255  -13.9676  -14.9960 N   0  0  0  0  0  0  0  0  0  0  0  0
   20.9539   -7.6836  -16.5178 C   0  0  0  0  0  0  0  0  0  0  0  0
   22.0991   -7.6826  -17.0923 O   0  0  0  0  0  0  0  0  0  0  0  0
   23.5830   -0.7545  -16.6021 C   0  0  0  0  0  0  0  0  0  0  0  0
   22.1165   -1.8241  -16.5617 S   0  0  0  0  0  0  0  0  0  0  0  0
   22.5878   -3.4531  -15.8644 C   0  0  0  0  0  0  0  0  0  0  0  0
   21.4045   -4.3742  -15.8349 C   0  0  0  0  0  0  0  0  0  0  0  0
   21.7612   -5.7059  -15.2697 C   0  0  2  0  0  0  0  0  0  0  0  0
   20.7288   -6.6918  -15.5620 N   0  0  0  0  0  0  0  0  0  0  0  0
   21.8494   -5.6274  -13.7966 C   0  0  0  0  0  0  0  0  0  0  0  0
   20.9698   -6.2586  -13.1171 O   0  0  0  0  0  0  0  0  0  0  0  0
   22.7934   -4.9395  -13.0865 O   0  0  0  0  0  0  0  0  0  0  0  0
  2  1  1  1
  2  8  1  0
  2  3  1  0
  4  5  1  0
  4  3  1  0
  6  5  1  0
  7  6  1  0
  8  9  2  0
 10 11  1  0
 10  8  1  0
 12 13  1  0
 11 12  1  1
 14 13  1  0
 15 14  1  0
 16 15  1  0
 17 18  2  0
 17 11  1  0
 19 20  1  0
 21 20  1  0
 21 22  1  0
 23 22  1  1
 23 24  1  0
 23 25  1  0
 24 17  1  0
 25 27  1  0
 26 25  2  0
M  END
$$$$
