KKM.pdb
     RDKit          3D

 27 26  0  0  1  0  0  0  0  0999 V2000
   26.4154  -21.7072  -16.1897 N   0  0  0  0  0  0  0  0  0  0  0  0
   27.4312  -21.1668  -15.3301 C   0  0  1  0  0  0  0  0  0  0  0  0
   28.3014  -20.1332  -15.9287 C   0  0  0  0  0  0  0  0  0  0  0  0
   28.7779  -20.4441  -17.3039 C   0  0  0  0  0  0  0  0  0  0  0  0
   29.6364  -21.6735  -17.3635 C   0  0  0  0  0  0  0  0  0  0  0  0
   30.1620  -21.7433  -18.8135 C   0  0  0  0  0  0  0  0  0  0  0  0
   31.0838  -22.8507  -18.9409 N   0  0  0  0  0  0  0  0  0  0  0  0
   26.8270  -20.6755  -14.0325 C   0  0  0  0  0  0  0  0  0  0  0  0
   27.5669  -19.9720  -13.3361 O   0  0  0  0  0  0  0  0  0  0  0  0
   25.5311  -21.0330  -13.7208 N   0  0  0  0  0  0  0  0  0  0  0  0
   24.7819  -20.5823  -12.6072 C   0  0  1  0  0  0  0  0  0  0  0  0
   23.2805  -20.6271  -12.7639 C   0  0  0  0  0  0  0  0  0  0  0  0
   22.8624  -19.5712  -13.7532 C   0  0  0  0  0  0  0  0  0  0  0  0
   21.3351  -19.5229  -13.8827 C   0  0  0  0  0  0  0  0  0  0  0  0
   20.9666  -18.4520  -14.8989 C   0  0  0  0  0  0  0  0  0  0  0  0
   19.5377  -18.4526  -15.0604 N   0  0  0  0  0  0  0  0  0  0  0  0
   25.3019  -21.0774  -11.3482 C   0  0  0  0  0  0  0  0  0  0  0  0
   25.5467  -22.3332  -11.2799 O   0  0  0  0  0  0  0  0  0  0  0  0
   27.8580  -17.8706   -6.3337 C   0  0  0  0  0  0  0  0  0  0  0  0
   28.1702  -19.5781   -5.8015 S   0  0  0  0  0  0  0  0  0  0  0  0
   27.1433  -20.7127   -6.8114 C   0  0  0  0  0  0  0  0  0  0  0  0
   26.8034  -20.0814   -8.1288 C   0  0  0  0  0  0  0  0  0  0  0  0
   25.9588  -20.9802   -8.9649 C   0  0  2  0  0  0  0  0  0  0  0  0
   25.5624  -20.3228  -10.2034 N   0  0  0  0  0  0  0  0  0  0  0  0
   24.7054  -21.3085   -8.2543 C   0  0  0  0  0  0  0  0  0  0  0  0
   23.6220  -20.7959   -8.6987 O   0  0  0  0  0  0  0  0  0  0  0  0
   24.5946  -22.1182   -7.1586 O   0  0  0  0  0  0  0  0  0  0  0  0
  2  1  1  6
  2  8  1  0
  2  3  1  0
  4  5  1  0
  4  3  1  0
  6  5  1  0
  7  6  1  0
  8  9  2  0
 10 11  1  0
 10  8  1  0
 12 13  1  0
 11 12  1  6
 14 13  1  0
 15 14  1  0
 16 15  1  0
 17 18  2  0
 17 11  1  0
 19 20  1  0
 21 20  1  0
 21 22  1  0
 23 22  1  1
 23 24  1  0
 23 25  1  0
 24 17  1  0
 25 27  1  0
 26 25  2  0
M  END
$$$$
