KKM.pdb
     RDKit          3D

 27 26  0  0  1  0  0  0  0  0999 V2000
   22.4905  -16.5598  -18.4240 N   0  0  0  0  0  0  0  0  0  0  0  0
   21.7007  -16.5386  -17.2246 C   0  0  1  0  0  0  0  0  0  0  0  0
   20.4865  -15.6970  -17.2655 C   0  0  0  0  0  0  0  0  0  0  0  0
   20.7187  -14.2583  -16.9643 C   0  0  0  0  0  0  0  0  0  0  0  0
   21.3540  -13.5153  -18.1029 C   0  0  0  0  0  0  0  0  0  0  0  0
   21.5872  -12.0801  -17.5840 C   0  0  0  0  0  0  0  0  0  0  0  0
   22.2435  -11.2965  -18.6074 N   0  0  0  0  0  0  0  0  0  0  0  0
   21.3648  -17.9460  -16.7812 C   0  0  0  0  0  0  0  0  0  0  0  0
   20.3834  -18.4556  -17.3329 O   0  0  0  0  0  0  0  0  0  0  0  0
   22.1504  -18.5497  -15.8207 N   0  0  0  0  0  0  0  0  0  0  0  0
   22.0210  -19.8768  -15.3445 C   0  0  1  0  0  0  0  0  0  0  0  0
   23.2780  -20.4998  -14.7856 C   0  0  0  0  0  0  0  0  0  0  0  0
   23.7742  -21.5446  -15.7503 C   0  0  0  0  0  0  0  0  0  0  0  0
   25.0090  -22.2596  -15.1884 C   0  0  0  0  0  0  0  0  0  0  0  0
   25.4566  -23.3157  -16.1882 C   0  0  0  0  0  0  0  0  0  0  0  0
   26.6527  -23.9368  -15.6868 N   0  0  0  0  0  0  0  0  0  0  0  0
   20.8157  -20.0738  -14.5638 C   0  0  0  0  0  0  0  0  0  0  0  0
   20.4666  -19.1136  -13.7908 O   0  0  0  0  0  0  0  0  0  0  0  0
   15.7194  -18.0170  -14.8339 C   0  0  0  0  0  0  0  0  0  0  0  0
   15.0715  -19.6552  -14.3952 S   0  0  0  0  0  0  0  0  0  0  0  0
   16.4090  -20.6326  -13.6093 C   0  0  0  0  0  0  0  0  0  0  0  0
   17.6986  -20.4518  -14.3535 C   0  0  0  0  0  0  0  0  0  0  0  0
   18.7994  -21.2493  -13.7433 C   0  0  2  0  0  0  0  0  0  0  0  0
   19.9981  -21.2049  -14.5705 N   0  0  0  0  0  0  0  0  0  0  0  0
   18.4110  -22.6726  -13.6582 C   0  0  0  0  0  0  0  0  0  0  0  0
   18.9357  -23.4799  -14.4990 O   0  0  0  0  0  0  0  0  0  0  0  0
   17.5380  -23.2119  -12.7552 O   0  0  0  0  0  0  0  0  0  0  0  0
  2  1  1  6
  2  8  1  0
  2  3  1  0
  4  5  1  0
  4  3  1  0
  6  5  1  0
  7  6  1  0
  8  9  2  0
 10 11  1  0
 10  8  1  0
 12 13  1  0
 11 12  1  1
 14 13  1  0
 15 14  1  0
 16 15  1  0
 17 18  2  0
 17 11  1  0
 19 20  1  0
 21 20  1  0
 21 22  1  0
 23 22  1  6
 23 24  1  0
 23 25  1  0
 24 17  1  0
 25 27  1  0
 26 25  2  0
M  END
$$$$
