KKM.pdb
     RDKit          3D

 27 26  0  0  1  0  0  0  0  0999 V2000
   20.6057  -14.5452  -19.7628 N   0  0  0  0  0  0  0  0  0  0  0  0
   21.4005  -13.6789  -18.9376 C   0  0  1  0  0  0  0  0  0  0  0  0
   22.6558  -13.1849  -19.5411 C   0  0  0  0  0  0  0  0  0  0  0  0
   23.5641  -14.2513  -20.0435 C   0  0  0  0  0  0  0  0  0  0  0  0
   24.8637  -13.7158  -20.5693 C   0  0  0  0  0  0  0  0  0  0  0  0
   25.6728  -14.9527  -21.0152 C   0  0  0  0  0  0  0  0  0  0  0  0
   26.9619  -14.5316  -21.5184 N   0  0  0  0  0  0  0  0  0  0  0  0
   20.5677  -12.5297  -18.4122 C   0  0  0  0  0  0  0  0  0  0  0  0
   19.9935  -11.8541  -19.2730 O   0  0  0  0  0  0  0  0  0  0  0  0
   20.5054  -12.3174  -17.0501 N   0  0  0  0  0  0  0  0  0  0  0  0
   19.7989  -11.2800  -16.3949 C   0  0  1  0  0  0  0  0  0  0  0  0
   18.7694  -11.7236  -15.3829 C   0  0  0  0  0  0  0  0  0  0  0  0
   17.3946  -11.4837  -15.9494 C   0  0  0  0  0  0  0  0  0  0  0  0
   16.3151  -12.0105  -14.9961 C   0  0  0  0  0  0  0  0  0  0  0  0
   14.9519  -11.7893  -15.6350 C   0  0  0  0  0  0  0  0  0  0  0  0
   13.9400  -12.1792  -14.6906 N   0  0  0  0  0  0  0  0  0  0  0  0
   20.6623  -10.1908  -15.9837 C   0  0  0  0  0  0  0  0  0  0  0  0
   21.6868  -10.5019  -15.2800 O   0  0  0  0  0  0  0  0  0  0  0  0
   21.0678   -7.1725  -20.5103 C   0  0  0  0  0  0  0  0  0  0  0  0
   22.3916   -6.4381  -19.5082 S   0  0  0  0  0  0  0  0  0  0  0  0
   22.5868   -7.4181  -17.9708 C   0  0  0  0  0  0  0  0  0  0  0  0
   21.7438   -6.8438  -16.8712 C   0  0  0  0  0  0  0  0  0  0  0  0
   21.4596   -7.8549  -15.8142 C   0  0  2  0  0  0  0  0  0  0  0  0
   20.4887   -8.8376  -16.2779 N   0  0  0  0  0  0  0  0  0  0  0  0
   20.8533   -7.2028  -14.6348 C   0  0  0  0  0  0  0  0  0  0  0  0
   21.5432   -6.3111  -14.0324 O   0  0  0  0  0  0  0  0  0  0  0  0
   19.6122   -7.4639  -14.1251 O   0  0  0  0  0  0  0  0  0  0  0  0
  2  1  1  6
  2  8  1  0
  2  3  1  0
  4  5  1  0
  4  3  1  0
  6  5  1  0
  7  6  1  0
  8  9  2  0
 10 11  1  0
 10  8  1  0
 12 13  1  0
 11 12  1  1
 14 13  1  0
 15 14  1  0
 16 15  1  0
 17 18  2  0
 17 11  1  0
 19 20  1  0
 21 20  1  0
 21 22  1  0
 23 22  1  6
 23 24  1  0
 23 25  1  0
 24 17  1  0
 25 27  1  0
 26 25  2  0
M  END
$$$$
