KKM.pdb
     RDKit          3D

 27 26  0  0  1  0  0  0  0  0999 V2000
   27.4625  -18.6201  -15.6130 N   0  0  0  0  0  0  0  0  0  0  0  0
   27.3656  -19.7949  -14.7923 C   0  0  1  0  0  0  0  0  0  0  0  0
   28.6479  -20.3791  -14.3466 C   0  0  0  0  0  0  0  0  0  0  0  0
   29.4058  -21.0947  -15.4087 C   0  0  0  0  0  0  0  0  0  0  0  0
   28.5911  -22.1457  -16.1044 C   0  0  0  0  0  0  0  0  0  0  0  0
   29.5111  -22.7274  -17.1993 C   0  0  0  0  0  0  0  0  0  0  0  0
   28.7879  -23.7226  -17.9600 N   0  0  0  0  0  0  0  0  0  0  0  0
   26.4482  -19.5492  -13.6141 C   0  0  0  0  0  0  0  0  0  0  0  0
   26.7339  -18.5712  -12.9147 O   0  0  0  0  0  0  0  0  0  0  0  0
   25.3865  -20.4052  -13.4036 N   0  0  0  0  0  0  0  0  0  0  0  0
   24.4303  -20.3147  -12.3634 C   0  0  1  0  0  0  0  0  0  0  0  0
   23.0241  -20.7297  -12.7257 C   0  0  0  0  0  0  0  0  0  0  0  0
   22.1134  -20.4305  -11.5640 C   0  0  0  0  0  0  0  0  0  0  0  0
   20.6774  -20.8718  -11.8722 C   0  0  0  0  0  0  0  0  0  0  0  0
   19.7940  -20.5168  -10.6852 C   0  0  0  0  0  0  0  0  0  0  0  0
   19.6399  -21.6898   -9.8679 N   0  0  0  0  0  0  0  0  0  0  0  0
   24.9323  -20.8159  -11.0994 C   0  0  0  0  0  0  0  0  0  0  0  0
   25.1934  -22.0688  -11.0393 O   0  0  0  0  0  0  0  0  0  0  0  0
   28.8887  -18.6020   -6.2670 C   0  0  0  0  0  0  0  0  0  0  0  0
   27.4472  -19.2549   -5.3771 S   0  0  0  0  0  0  0  0  0  0  0  0
   26.5570  -20.4294   -6.4678 C   0  0  0  0  0  0  0  0  0  0  0  0
   26.2509  -19.7900   -7.7896 C   0  0  0  0  0  0  0  0  0  0  0  0
   25.5502  -20.7339   -8.7052 C   0  0  2  0  0  0  0  0  0  0  0  0
   25.1594  -20.0699   -9.9419 N   0  0  0  0  0  0  0  0  0  0  0  0
   24.2986  -21.2133   -8.0827 C   0  0  0  0  0  0  0  0  0  0  0  0
   24.3982  -22.0661   -7.1357 O   0  0  0  0  0  0  0  0  0  0  0  0
   23.0337  -20.8247   -8.4255 O   0  0  0  0  0  0  0  0  0  0  0  0
  2  1  1  1
  2  8  1  0
  2  3  1  0
  4  5  1  0
  4  3  1  0
  6  5  1  0
  7  6  1  0
  8  9  2  0
 10 11  1  0
 10  8  1  0
 12 13  1  0
 11 12  1  6
 14 13  1  0
 15 14  1  0
 16 15  1  0
 17 18  2  0
 17 11  1  0
 19 20  1  0
 21 20  1  0
 21 22  1  0
 23 22  1  1
 23 24  1  0
 23 25  1  0
 24 17  1  0
 25 27  1  0
 26 25  2  0
M  END
$$$$
