KKM.pdb
     RDKit          3D

 27 26  0  0  1  0  0  0  0  0999 V2000
   19.8043  -20.7657  -16.6692 N   0  0  0  0  0  0  0  0  0  0  0  0
   20.2592  -20.0678  -15.4992 C   0  0  1  0  0  0  0  0  0  0  0  0
   19.8065  -20.6157  -14.2034 C   0  0  0  0  0  0  0  0  0  0  0  0
   18.3464  -20.8920  -14.1230 C   0  0  0  0  0  0  0  0  0  0  0  0
   17.9740  -22.2423  -14.6615 C   0  0  0  0  0  0  0  0  0  0  0  0
   17.5926  -23.0904  -13.4291 C   0  0  0  0  0  0  0  0  0  0  0  0
   16.4034  -23.8603  -13.7212 N   0  0  0  0  0  0  0  0  0  0  0  0
   21.7644  -19.9128  -15.5212 C   0  0  0  0  0  0  0  0  0  0  0  0
   22.2467  -19.2859  -14.5716 O   0  0  0  0  0  0  0  0  0  0  0  0
   22.4780  -20.4635  -16.5660 N   0  0  0  0  0  0  0  0  0  0  0  0
   23.8796  -20.3924  -16.7535 C   0  0  1  0  0  0  0  0  0  0  0  0
   24.5233  -21.6133  -17.3665 C   0  0  0  0  0  0  0  0  0  0  0  0
   24.5890  -22.7024  -16.3283 C   0  0  0  0  0  0  0  0  0  0  0  0
   25.0724  -24.0178  -16.9511 C   0  0  0  0  0  0  0  0  0  0  0  0
   25.1804  -25.0653  -15.8528 C   0  0  0  0  0  0  0  0  0  0  0  0
   25.5670  -26.3135  -16.4532 N   0  0  0  0  0  0  0  0  0  0  0  0
   24.3061  -19.1152  -17.2899 C   0  0  0  0  0  0  0  0  0  0  0  0
   23.5921  -18.6178  -18.2303 O   0  0  0  0  0  0  0  0  0  0  0  0
   26.5768  -13.5515  -14.6406 C   0  0  0  0  0  0  0  0  0  0  0  0
   27.6828  -13.7994  -16.0589 S   0  0  0  0  0  0  0  0  0  0  0  0
   26.8690  -14.9225  -17.2581 C   0  0  0  0  0  0  0  0  0  0  0  0
   26.4915  -16.2141  -16.5956 C   0  0  0  0  0  0  0  0  0  0  0  0
   25.7154  -17.0942  -17.5140 C   0  0  2  0  0  0  0  0  0  0  0  0
   25.4168  -18.3737  -16.8842 N   0  0  0  0  0  0  0  0  0  0  0  0
   26.5139  -17.4050  -18.7180 C   0  0  0  0  0  0  0  0  0  0  0  0
   26.3835  -16.6341  -19.7292 O   0  0  0  0  0  0  0  0  0  0  0  0
   27.3887  -18.4468  -18.8517 O   0  0  0  0  0  0  0  0  0  0  0  0
  2  1  1  6
  2  8  1  0
  2  3  1  0
  4  5  1  0
  4  3  1  0
  6  5  1  0
  7  6  1  0
  8  9  2  0
 10 11  1  0
 10  8  1  0
 12 13  1  0
 11 12  1  6
 14 13  1  0
 15 14  1  0
 16 15  1  0
 17 18  2  0
 17 11  1  0
 19 20  1  0
 21 20  1  0
 21 22  1  0
 23 22  1  1
 23 24  1  0
 23 25  1  0
 24 17  1  0
 25 27  1  0
 26 25  2  0
M  END
$$$$
