KKM.pdb
     RDKit          3D

 27 26  0  0  1  0  0  0  0  0999 V2000
   28.3648  -21.1259  -16.1618 N   0  0  0  0  0  0  0  0  0  0  0  0
   28.5057  -19.7851  -15.6663 C   0  0  1  0  0  0  0  0  0  0  0  0
   28.5494  -18.7196  -16.6893 C   0  0  0  0  0  0  0  0  0  0  0  0
   27.6226  -18.9224  -17.8359 C   0  0  0  0  0  0  0  0  0  0  0  0
   28.1395  -19.9099  -18.8409 C   0  0  0  0  0  0  0  0  0  0  0  0
   27.1921  -19.8016  -20.0551 C   0  0  0  0  0  0  0  0  0  0  0  0
   27.5168  -20.8334  -21.0153 N   0  0  0  0  0  0  0  0  0  0  0  0
   27.4497  -19.4871  -14.6240 C   0  0  0  0  0  0  0  0  0  0  0  0
   27.4781  -18.3452  -14.1522 O   0  0  0  0  0  0  0  0  0  0  0  0
   26.5527  -20.4772  -14.2790 N   0  0  0  0  0  0  0  0  0  0  0  0
   25.4700  -20.3499  -13.3756 C   0  0  1  0  0  0  0  0  0  0  0  0
   24.1003  -20.6266  -13.9483 C   0  0  0  0  0  0  0  0  0  0  0  0
   23.0662  -20.3688  -12.8840 C   0  0  0  0  0  0  0  0  0  0  0  0
   21.6645  -20.7310  -13.3899 C   0  0  0  0  0  0  0  0  0  0  0  0
   20.6445  -20.3029  -12.3451 C   0  0  0  0  0  0  0  0  0  0  0  0
   19.3353  -20.6711  -12.8120 N   0  0  0  0  0  0  0  0  0  0  0  0
   25.7484  -20.9464  -12.0842 C   0  0  0  0  0  0  0  0  0  0  0  0
   26.1739  -22.1549  -12.0875 O   0  0  0  0  0  0  0  0  0  0  0  0
   27.7598  -18.6322   -6.0394 C   0  0  0  0  0  0  0  0  0  0  0  0
   28.3666  -20.2876   -6.4725 S   0  0  0  0  0  0  0  0  0  0  0  0
   27.0962  -21.1411   -7.4821 C   0  0  0  0  0  0  0  0  0  0  0  0
   26.9034  -20.4345   -8.7909 C   0  0  0  0  0  0  0  0  0  0  0  0
   25.8495  -21.0890   -9.6164 C   0  0  2  0  0  0  0  0  0  0  0  0
   25.5991  -20.3356  -10.8382 N   0  0  0  0  0  0  0  0  0  0  0  0
   24.5686  -21.1157   -8.8800 C   0  0  0  0  0  0  0  0  0  0  0  0
   23.6384  -20.3371   -9.2833 O   0  0  0  0  0  0  0  0  0  0  0  0
   24.2817  -21.9037   -7.8006 O   0  0  0  0  0  0  0  0  0  0  0  0
  2  1  1  6
  2  8  1  0
  2  3  1  0
  4  5  1  0
  4  3  1  0
  6  5  1  0
  7  6  1  0
  8  9  2  0
 10 11  1  0
 10  8  1  0
 12 13  1  0
 11 12  1  6
 14 13  1  0
 15 14  1  0
 16 15  1  0
 17 18  2  0
 17 11  1  0
 19 20  1  0
 21 20  1  0
 21 22  1  0
 23 22  1  1
 23 24  1  0
 23 25  1  0
 24 17  1  0
 25 27  1  0
 26 25  2  0
M  END
$$$$
