KKM.pdb
     RDKit          3D

 27 26  0  0  1  0  0  0  0  0999 V2000
   31.5069  -24.5009  -17.9301 N   0  0  0  0  0  0  0  0  0  0  0  0
   30.1981  -24.4913  -18.5216 C   0  0  1  0  0  0  0  0  0  0  0  0
   30.1000  -25.0598  -19.8822 C   0  0  0  0  0  0  0  0  0  0  0  0
   30.0681  -24.0505  -20.9753 C   0  0  0  0  0  0  0  0  0  0  0  0
   29.5557  -24.6055  -22.2720 C   0  0  0  0  0  0  0  0  0  0  0  0
   29.5991  -23.4309  -23.2729 C   0  0  0  0  0  0  0  0  0  0  0  0
   29.0958  -23.8700  -24.5559 N   0  0  0  0  0  0  0  0  0  0  0  0
   29.1887  -25.1349  -17.5957 C   0  0  0  0  0  0  0  0  0  0  0  0
   29.6346  -26.0222  -16.8600 O   0  0  0  0  0  0  0  0  0  0  0  0
   27.8785  -24.7035  -17.6316 N   0  0  0  0  0  0  0  0  0  0  0  0
   26.8227  -25.1602  -16.8061 C   0  0  1  0  0  0  0  0  0  0  0  0
   25.7806  -24.1295  -16.4418 C   0  0  0  0  0  0  0  0  0  0  0  0
   24.7030  -24.7939  -15.6259 C   0  0  0  0  0  0  0  0  0  0  0  0
   23.6078  -23.7879  -15.2511 C   0  0  0  0  0  0  0  0  0  0  0  0
   22.5913  -24.4853  -14.3591 C   0  0  0  0  0  0  0  0  0  0  0  0
   21.5331  -23.5568  -14.0657 N   0  0  0  0  0  0  0  0  0  0  0  0
   26.3162  -26.4554  -17.2143 C   0  0  0  0  0  0  0  0  0  0  0  0
   25.9410  -26.5690  -18.4341 O   0  0  0  0  0  0  0  0  0  0  0  0
   29.0697  -32.2418  -15.8760 C   0  0  0  0  0  0  0  0  0  0  0  0
   27.2909  -32.6048  -15.8599 S   0  0  0  0  0  0  0  0  0  0  0  0
   26.4136  -31.3222  -16.8331 C   0  0  0  0  0  0  0  0  0  0  0  0
   26.5304  -29.9844  -16.1650 C   0  0  0  0  0  0  0  0  0  0  0  0
   25.9694  -28.8969  -17.0154 C   0  0  2  0  0  0  0  0  0  0  0  0
   26.1965  -27.5906  -16.4112 N   0  0  0  0  0  0  0  0  0  0  0  0
   24.5039  -29.0464  -17.1328 C   0  0  0  0  0  0  0  0  0  0  0  0
   24.0624  -30.0649  -17.7665 O   0  0  0  0  0  0  0  0  0  0  0  0
   23.5682  -28.1919  -16.6203 O   0  0  0  0  0  0  0  0  0  0  0  0
  2  1  1  1
  2  8  1  0
  2  3  1  0
  4  5  1  0
  4  3  1  0
  6  5  1  0
  7  6  1  0
  8  9  2  0
 10 11  1  0
 10  8  1  0
 12 13  1  0
 11 12  1  6
 14 13  1  0
 15 14  1  0
 16 15  1  0
 17 18  2  0
 17 11  1  0
 19 20  1  0
 21 20  1  0
 21 22  1  0
 23 22  1  1
 23 24  1  0
 23 25  1  0
 24 17  1  0
 25 27  1  0
 26 25  2  0
M  END
$$$$
