EEN.pdb
     RDKit          3D

 27 26  0  0  1  0  0  0  0  0999 V2000
   10.3752  -17.7301   12.4397 N   0  0  0  0  0  0  0  0  0  0  0  0
   11.3531  -18.4934   13.1439 C   0  0  1  0  0  0  0  0  0  0  0  0
   12.7285  -18.0646   12.7565 C   0  0  0  0  0  0  0  0  0  0  0  0
   13.8323  -18.8530   13.3941 C   0  0  0  0  0  0  0  0  0  0  0  0
   15.1393  -18.3539   12.9793 C   0  0  0  0  0  0  0  0  0  0  0  0
   16.0603  -19.0534   12.4693 O   0  0  0  0  0  0  0  0  0  0  0  0
   11.2288  -18.2622   14.6213 C   0  0  0  0  0  0  0  0  0  0  0  0
   11.3831  -17.0825   15.0275 O   0  0  0  0  0  0  0  0  0  0  0  0
   15.4343  -16.9857   13.1456 O   0  0  0  0  0  0  0  0  0  0  0  0
   10.9500  -19.3429   15.4878 N   0  0  0  0  0  0  0  0  0  0  0  0
   10.7593  -19.1044   16.9355 C   0  0  1  0  0  0  0  0  0  0  0  0
    9.3999  -19.5377   17.3339 C   0  0  0  0  0  0  0  0  0  0  0  0
    8.2724  -18.6103   17.0905 C   0  0  0  0  0  0  0  0  0  0  0  0
    6.9701  -19.2242   17.5693 C   0  0  0  0  0  0  0  0  0  0  0  0
    6.4301  -20.1647   16.9146 O   0  0  0  0  0  0  0  0  0  0  0  0
   11.8828  -19.7770   17.6093 C   0  0  0  0  0  0  0  0  0  0  0  0
   12.7118  -20.4898   16.9409 O   0  0  0  0  0  0  0  0  0  0  0  0
    6.3361  -18.7948   18.7081 O   0  0  0  0  0  0  0  0  0  0  0  0
   15.8346  -20.0234   18.1107 N   0  0  0  0  0  0  0  0  0  0  0  0
   15.4076  -18.6854   18.2384 C   0  0  0  0  0  0  0  0  0  0  0  0
   16.0861  -17.7883   17.7065 O   0  0  0  0  0  0  0  0  0  0  0  0
   14.1963  -18.3714   18.9790 C   0  0  0  0  0  0  0  0  0  0  0  0
   13.4493  -19.5757   19.4896 C   0  0  2  0  0  0  0  0  0  0  0  0
   12.1174  -19.6797   18.9973 N   0  0  0  0  0  0  0  0  0  0  0  0
   13.4179  -19.4509   20.9688 C   0  0  0  0  0  0  0  0  0  0  0  0
   14.5394  -19.7566   21.7369 O   0  0  0  0  0  0  0  0  0  0  0  0
   12.3789  -19.0690   21.5325 O   0  0  0  0  0  0  0  0  0  0  0  0
  2  1  1  6
  2  7  1  0
  3  4  1  0
  3  2  1  0
  4  5  1  0
  5  6  2  0
  7  8  2  0
  7 10  1  0
  9  5  1  0
 10 11  1  0
 11 16  1  0
 11 12  1  1
 12 13  1  0
 13 14  1  0
 14 18  1  0
 15 14  2  0
 16 17  2  0
 19 20  1  0
 20 21  2  0
 23 22  1  6
 22 20  1  0
 24 23  1  0
 24 16  1  0
 25 23  1  0
 26 25  1  0
 27 25  2  0
M  END
$$$$
