EEN.pdb
     RDKit          3D

 27 26  0  0  1  0  0  0  0  0999 V2000
   10.2191  -15.5849   18.8633 N   0  0  0  0  0  0  0  0  0  0  0  0
   10.9421  -16.5794   19.5866 C   0  0  1  0  0  0  0  0  0  0  0  0
   12.3831  -16.2069   19.6880 C   0  0  0  0  0  0  0  0  0  0  0  0
   12.6468  -14.7318   19.7227 C   0  0  0  0  0  0  0  0  0  0  0  0
   14.0775  -14.4575   19.8081 C   0  0  0  0  0  0  0  0  0  0  0  0
   14.9751  -15.3204   20.0260 O   0  0  0  0  0  0  0  0  0  0  0  0
   10.4228  -16.6823   20.9906 C   0  0  0  0  0  0  0  0  0  0  0  0
    9.6157  -15.7941   21.3652 O   0  0  0  0  0  0  0  0  0  0  0  0
   14.5325  -13.1342   19.6391 O   0  0  0  0  0  0  0  0  0  0  0  0
   10.8419  -17.7416   21.8265 N   0  0  0  0  0  0  0  0  0  0  0  0
   10.2243  -17.9260   23.1582 C   0  0  1  0  0  0  0  0  0  0  0  0
   10.4079  -19.3282   23.5994 C   0  0  0  0  0  0  0  0  0  0  0  0
    9.7183  -20.3949   22.8396 C   0  0  0  0  0  0  0  0  0  0  0  0
   10.1066  -21.7606   23.3748 C   0  0  0  0  0  0  0  0  0  0  0  0
    9.3516  -22.3619   24.1952 O   0  0  0  0  0  0  0  0  0  0  0  0
   10.8079  -16.8874   24.0238 C   0  0  0  0  0  0  0  0  0  0  0  0
   11.4370  -15.8931   23.5162 O   0  0  0  0  0  0  0  0  0  0  0  0
   11.2681  -22.3879   23.0000 O   0  0  0  0  0  0  0  0  0  0  0  0
    7.9995  -12.8922   26.3355 N   0  0  0  0  0  0  0  0  0  0  0  0
    9.1000  -13.7336   26.5993 C   0  0  0  0  0  0  0  0  0  0  0  0
    9.8583  -13.4473   27.5433 O   0  0  0  0  0  0  0  0  0  0  0  0
    9.3348  -14.9104   25.7782 C   0  0  0  0  0  0  0  0  0  0  0  0
   10.5591  -15.7010   26.1594 C   0  0  2  0  0  0  0  0  0  0  0  0
   10.7115  -16.9150   25.4313 N   0  0  0  0  0  0  0  0  0  0  0  0
   10.4232  -16.0092   27.6055 C   0  0  0  0  0  0  0  0  0  0  0  0
   11.3193  -15.4872   28.5359 O   0  0  0  0  0  0  0  0  0  0  0  0
    9.4989  -16.7423   27.9944 O   0  0  0  0  0  0  0  0  0  0  0  0
  2  1  1  6
  2  7  1  0
  3  4  1  0
  3  2  1  0
  4  5  1  0
  5  6  2  0
  7  8  2  0
  7 10  1  0
  9  5  1  0
 10 11  1  0
 11 16  1  0
 11 12  1  1
 12 13  1  0
 13 14  1  0
 14 18  1  0
 15 14  2  0
 16 17  2  0
 19 20  1  0
 20 21  2  0
 23 22  1  6
 22 20  1  0
 24 23  1  0
 24 16  1  0
 25 23  1  0
 26 25  1  0
 27 25  2  0
M  END
$$$$
