EEN.pdb
     RDKit          3D

 27 26  0  0  1  0  0  0  0  0999 V2000
    9.0368  -12.7710   18.1286 N   0  0  0  0  0  0  0  0  0  0  0  0
    7.9288  -13.6694   18.1161 C   0  0  1  0  0  0  0  0  0  0  0  0
    7.5538  -14.0165   16.7145 C   0  0  0  0  0  0  0  0  0  0  0  0
    8.7061  -14.3982   15.8351 C   0  0  0  0  0  0  0  0  0  0  0  0
    8.2420  -14.8178   14.5168 C   0  0  0  0  0  0  0  0  0  0  0  0
    8.7827  -15.7085   13.8012 O   0  0  0  0  0  0  0  0  0  0  0  0
    8.2942  -14.9559   18.7966 C   0  0  0  0  0  0  0  0  0  0  0  0
    7.3859  -15.8180   18.9090 O   0  0  0  0  0  0  0  0  0  0  0  0
    7.1010  -14.2018   13.9643 O   0  0  0  0  0  0  0  0  0  0  0  0
    9.6077  -15.1566   19.2768 N   0  0  0  0  0  0  0  0  0  0  0  0
    9.9547  -16.4043   19.9923 C   0  0  1  0  0  0  0  0  0  0  0  0
   11.2804  -16.8838   19.5373 C   0  0  0  0  0  0  0  0  0  0  0  0
   11.8157  -18.1273   20.1355 C   0  0  0  0  0  0  0  0  0  0  0  0
   13.2563  -17.9281   20.5683 C   0  0  0  0  0  0  0  0  0  0  0  0
   13.5400  -17.7904   21.7952 O   0  0  0  0  0  0  0  0  0  0  0  0
    9.8283  -16.0981   21.4272 C   0  0  0  0  0  0  0  0  0  0  0  0
    9.9663  -17.0208   22.3056 O   0  0  0  0  0  0  0  0  0  0  0  0
   14.2903  -17.8895   19.6670 O   0  0  0  0  0  0  0  0  0  0  0  0
    7.1591  -13.0592   25.4285 N   0  0  0  0  0  0  0  0  0  0  0  0
    7.2487  -14.3375   24.8397 C   0  0  0  0  0  0  0  0  0  0  0  0
    6.9592  -15.3335   25.5268 O   0  0  0  0  0  0  0  0  0  0  0  0
    7.6721  -14.4775   23.4556 C   0  0  0  0  0  0  0  0  0  0  0  0
    9.1602  -14.6208   23.2716 C   0  0  2  0  0  0  0  0  0  0  0  0
    9.5589  -14.8024   21.9168 N   0  0  0  0  0  0  0  0  0  0  0  0
    9.5667  -15.8071   24.0664 C   0  0  0  0  0  0  0  0  0  0  0  0
   10.0810  -15.6644   25.3534 O   0  0  0  0  0  0  0  0  0  0  0  0
    9.4480  -16.9440   23.5803 O   0  0  0  0  0  0  0  0  0  0  0  0
  2  1  1  6
  2  7  1  0
  3  4  1  0
  3  2  1  0
  4  5  1  0
  5  6  2  0
  7  8  2  0
  7 10  1  0
  9  5  1  0
 10 11  1  0
 11 16  1  0
 11 12  1  1
 12 13  1  0
 13 14  1  0
 14 18  1  0
 15 14  2  0
 16 17  2  0
 19 20  1  0
 20 21  2  0
 23 22  1  6
 22 20  1  0
 24 23  1  0
 24 16  1  0
 25 23  1  0
 26 25  1  0
 27 25  2  0
M  END
$$$$
