EEN.pdb
     RDKit          3D

 27 26  0  0  1  0  0  0  0  0999 V2000
   13.3049  -17.6870   20.9046 N   0  0  0  0  0  0  0  0  0  0  0  0
   12.5118  -16.5329   20.6326 C   0  0  1  0  0  0  0  0  0  0  0  0
   11.7575  -16.7065   19.3573 C   0  0  0  0  0  0  0  0  0  0  0  0
   11.1362  -18.0587   19.1773 C   0  0  0  0  0  0  0  0  0  0  0  0
   10.3795  -18.1254   17.9314 C   0  0  0  0  0  0  0  0  0  0  0  0
   10.8820  -18.2241   16.7757 O   0  0  0  0  0  0  0  0  0  0  0  0
   11.4912  -16.3360   21.7147 C   0  0  0  0  0  0  0  0  0  0  0  0
   10.8019  -15.2858   21.6625 O   0  0  0  0  0  0  0  0  0  0  0  0
    8.9716  -18.0789   17.9817 O   0  0  0  0  0  0  0  0  0  0  0  0
   11.3376  -17.3061   22.7305 N   0  0  0  0  0  0  0  0  0  0  0  0
   10.3803  -17.0795   23.8356 C   0  0  1  0  0  0  0  0  0  0  0  0
    9.2848  -18.0732   23.7535 C   0  0  0  0  0  0  0  0  0  0  0  0
    9.6471  -19.5022   23.6228 C   0  0  0  0  0  0  0  0  0  0  0  0
    8.3975  -20.3596   23.5459 C   0  0  0  0  0  0  0  0  0  0  0  0
    7.9292  -20.8989   24.5920 O   0  0  0  0  0  0  0  0  0  0  0  0
   11.1789  -17.0888   25.0728 C   0  0  0  0  0  0  0  0  0  0  0  0
   12.4198  -16.7696   25.0506 O   0  0  0  0  0  0  0  0  0  0  0  0
    7.7366  -20.5818   22.3639 O   0  0  0  0  0  0  0  0  0  0  0  0
    9.6809  -13.4898   28.9532 N   0  0  0  0  0  0  0  0  0  0  0  0
   10.6892  -14.3473   28.4665 C   0  0  0  0  0  0  0  0  0  0  0  0
   11.7906  -14.3632   29.0450 O   0  0  0  0  0  0  0  0  0  0  0  0
   10.4360  -15.1926   27.3108 C   0  0  0  0  0  0  0  0  0  0  0  0
   10.9030  -16.6162   27.4668 C   0  0  2  0  0  0  0  0  0  0  0  0
   10.6439  -17.4358   26.3316 N   0  0  0  0  0  0  0  0  0  0  0  0
   10.1828  -17.1650   28.6435 C   0  0  0  0  0  0  0  0  0  0  0  0
    9.1232  -18.0553   28.4829 O   0  0  0  0  0  0  0  0  0  0  0  0
   10.5272  -16.8277   29.7883 O   0  0  0  0  0  0  0  0  0  0  0  0
  2  1  1  1
  2  7  1  0
  3  4  1  0
  3  2  1  0
  4  5  1  0
  5  6  2  0
  7  8  2  0
  7 10  1  0
  9  5  1  0
 10 11  1  0
 11 16  1  0
 11 12  1  1
 12 13  1  0
 13 14  1  0
 14 18  1  0
 15 14  2  0
 16 17  2  0
 19 20  1  0
 20 21  2  0
 23 22  1  6
 22 20  1  0
 24 23  1  0
 24 16  1  0
 25 23  1  0
 26 25  1  0
 27 25  2  0
M  END
$$$$
