EEN.pdb
     RDKit          3D

 27 26  0  0  1  0  0  0  0  0999 V2000
   10.4252  -18.5555   15.1190 N   0  0  0  0  0  0  0  0  0  0  0  0
   10.5065  -19.3598   16.2943 C   0  0  1  0  0  0  0  0  0  0  0  0
   11.9314  -19.6177   16.6530 C   0  0  0  0  0  0  0  0  0  0  0  0
   12.9185  -18.7071   15.9873 C   0  0  0  0  0  0  0  0  0  0  0  0
   14.1457  -18.6035   16.7698 C   0  0  0  0  0  0  0  0  0  0  0  0
   14.2491  -18.8575   18.0037 O   0  0  0  0  0  0  0  0  0  0  0  0
    9.8908  -18.6425   17.4596 C   0  0  0  0  0  0  0  0  0  0  0  0
    9.9844  -17.3887   17.4698 O   0  0  0  0  0  0  0  0  0  0  0  0
   15.3322  -18.1896   16.1315 O   0  0  0  0  0  0  0  0  0  0  0  0
    9.2429  -19.3729   18.4809 N   0  0  0  0  0  0  0  0  0  0  0  0
    8.4793  -18.6640   19.5313 C   0  0  1  0  0  0  0  0  0  0  0  0
    7.2168  -19.3905   19.8014 C   0  0  0  0  0  0  0  0  0  0  0  0
    6.1019  -19.2333   18.8408 C   0  0  0  0  0  0  0  0  0  0  0  0
    4.9106  -20.0681   19.2723 C   0  0  0  0  0  0  0  0  0  0  0  0
    4.9934  -20.8192   20.2890 O   0  0  0  0  0  0  0  0  0  0  0  0
    9.4008  -18.5107   20.6696 C   0  0  0  0  0  0  0  0  0  0  0  0
   10.3725  -19.3293   20.8370 O   0  0  0  0  0  0  0  0  0  0  0  0
    3.7187  -20.0447   18.5928 O   0  0  0  0  0  0  0  0  0  0  0  0
   12.6396  -15.7021   24.1736 N   0  0  0  0  0  0  0  0  0  0  0  0
   11.2532  -15.8609   24.3774 C   0  0  0  0  0  0  0  0  0  0  0  0
   10.8218  -15.9036   25.5436 O   0  0  0  0  0  0  0  0  0  0  0  0
   10.3542  -15.9713   23.2399 C   0  0  0  0  0  0  0  0  0  0  0  0
   10.2360  -17.3619   22.6729 C   0  0  2  0  0  0  0  0  0  0  0  0
    9.2812  -17.4774   21.6230 N   0  0  0  0  0  0  0  0  0  0  0  0
    9.8344  -18.2397   23.8009 C   0  0  0  0  0  0  0  0  0  0  0  0
   10.7846  -18.7571   24.6788 O   0  0  0  0  0  0  0  0  0  0  0  0
    8.6354  -18.5188   23.9671 O   0  0  0  0  0  0  0  0  0  0  0  0
  2  1  1  6
  2  7  1  0
  3  4  1  0
  3  2  1  0
  4  5  1  0
  5  6  2  0
  7  8  2  0
  7 10  1  0
  9  5  1  0
 10 11  1  0
 11 16  1  0
 11 12  1  1
 12 13  1  0
 13 14  1  0
 14 18  1  0
 15 14  2  0
 16 17  2  0
 19 20  1  0
 20 21  2  0
 23 22  1  1
 22 20  1  0
 24 23  1  0
 24 16  1  0
 25 23  1  0
 26 25  1  0
 27 25  2  0
M  END
$$$$
