EEN.pdb
     RDKit          3D

 27 26  0  0  1  0  0  0  0  0999 V2000
    9.8085  -13.7858   19.6933 N   0  0  0  0  0  0  0  0  0  0  0  0
    8.4220  -14.0997   19.8119 C   0  0  1  0  0  0  0  0  0  0  0  0
    7.7581  -14.0440   18.4771 C   0  0  0  0  0  0  0  0  0  0  0  0
    8.6401  -13.5767   17.3589 C   0  0  0  0  0  0  0  0  0  0  0  0
    7.9033  -13.5172   16.1008 C   0  0  0  0  0  0  0  0  0  0  0  0
    7.2166  -12.5337   15.7021 O   0  0  0  0  0  0  0  0  0  0  0  0
    8.2472  -15.4996   20.3231 C   0  0  0  0  0  0  0  0  0  0  0  0
    7.0686  -15.8901   20.5208 O   0  0  0  0  0  0  0  0  0  0  0  0
    7.9370  -14.6282   15.2341 O   0  0  0  0  0  0  0  0  0  0  0  0
    9.3767  -16.3147   20.5604 N   0  0  0  0  0  0  0  0  0  0  0  0
    9.2169  -17.6359   21.2068 C   0  0  1  0  0  0  0  0  0  0  0  0
    9.8394  -18.6800   20.3603 C   0  0  0  0  0  0  0  0  0  0  0  0
   11.1841  -18.4152   19.8014 C   0  0  0  0  0  0  0  0  0  0  0  0
   11.6701  -19.6113   19.0042 C   0  0  0  0  0  0  0  0  0  0  0  0
   10.9394  -20.6395   18.8883 O   0  0  0  0  0  0  0  0  0  0  0  0
    9.7589  -17.4900   22.5683 C   0  0  0  0  0  0  0  0  0  0  0  0
    9.8384  -18.5019   23.3505 O   0  0  0  0  0  0  0  0  0  0  0  0
   12.8964  -19.6283   18.3885 O   0  0  0  0  0  0  0  0  0  0  0  0
   13.4814  -15.3053   22.4622 N   0  0  0  0  0  0  0  0  0  0  0  0
   13.0765  -16.0689   23.5765 C   0  0  0  0  0  0  0  0  0  0  0  0
   13.5794  -17.1945   23.7441 O   0  0  0  0  0  0  0  0  0  0  0  0
   12.0900  -15.5415   24.5055 C   0  0  0  0  0  0  0  0  0  0  0  0
   10.7353  -16.1934   24.4111 C   0  0  2  0  0  0  0  0  0  0  0  0
   10.2187  -16.2605   23.0859 N   0  0  0  0  0  0  0  0  0  0  0  0
    9.8218  -15.3813   25.2539 C   0  0  0  0  0  0  0  0  0  0  0  0
   10.0374  -15.2523   26.6243 O   0  0  0  0  0  0  0  0  0  0  0  0
    8.8508  -14.8077   24.7332 O   0  0  0  0  0  0  0  0  0  0  0  0
  2  1  1  6
  2  7  1  0
  3  4  1  0
  3  2  1  0
  4  5  1  0
  5  6  2  0
  7  8  2  0
  7 10  1  0
  9  5  1  0
 10 11  1  0
 11 16  1  0
 11 12  1  6
 12 13  1  0
 13 14  1  0
 14 18  1  0
 15 14  2  0
 16 17  2  0
 19 20  1  0
 20 21  2  0
 23 22  1  6
 22 20  1  0
 24 23  1  0
 24 16  1  0
 25 23  1  0
 26 25  1  0
 27 25  2  0
M  END
$$$$
