EEN.pdb
     RDKit          3D

 27 26  0  0  1  0  0  0  0  0999 V2000
    8.9564  -12.7380   19.8271 N   0  0  0  0  0  0  0  0  0  0  0  0
    7.9736  -13.7696   19.8971 C   0  0  1  0  0  0  0  0  0  0  0  0
    7.6026  -14.2309   18.5277 C   0  0  0  0  0  0  0  0  0  0  0  0
    8.7648  -14.4673   17.6111 C   0  0  0  0  0  0  0  0  0  0  0  0
    8.3130  -14.9137   16.2974 C   0  0  0  0  0  0  0  0  0  0  0  0
    9.0676  -15.2412   15.3376 O   0  0  0  0  0  0  0  0  0  0  0  0
    8.5229  -14.9635   20.6210 C   0  0  0  0  0  0  0  0  0  0  0  0
    7.7571  -15.9522   20.7508 O   0  0  0  0  0  0  0  0  0  0  0  0
    6.9296  -14.9991   16.0413 O   0  0  0  0  0  0  0  0  0  0  0  0
    9.8443  -14.9444   21.1209 N   0  0  0  0  0  0  0  0  0  0  0  0
   10.3579  -16.0877   21.9071 C   0  0  1  0  0  0  0  0  0  0  0  0
   11.5455  -16.6598   21.2313 C   0  0  0  0  0  0  0  0  0  0  0  0
   11.3435  -17.8054   20.3162 C   0  0  0  0  0  0  0  0  0  0  0  0
   12.6723  -18.2710   19.7507 C   0  0  0  0  0  0  0  0  0  0  0  0
   13.5387  -18.7977   20.5101 O   0  0  0  0  0  0  0  0  0  0  0  0
   10.5657  -15.5801   23.2737 C   0  0  0  0  0  0  0  0  0  0  0  0
   11.2102  -14.4907   23.4740 O   0  0  0  0  0  0  0  0  0  0  0  0
   12.9842  -18.1433   18.4205 O   0  0  0  0  0  0  0  0  0  0  0  0
    9.2241  -12.8664   27.8113 N   0  0  0  0  0  0  0  0  0  0  0  0
    9.4987  -14.2218   27.5353 C   0  0  0  0  0  0  0  0  0  0  0  0
    9.9444  -14.9392   28.4490 O   0  0  0  0  0  0  0  0  0  0  0  0
    9.2618  -14.7604   26.2057 C   0  0  0  0  0  0  0  0  0  0  0  0
   10.3318  -15.7005   25.7153 C   0  0  2  0  0  0  0  0  0  0  0  0
   10.0777  -16.2392   24.4220 N   0  0  0  0  0  0  0  0  0  0  0  0
   10.4003  -16.8066   26.7034 C   0  0  0  0  0  0  0  0  0  0  0  0
   11.1631  -16.6844   27.8629 O   0  0  0  0  0  0  0  0  0  0  0  0
    9.7701  -17.8568   26.4965 O   0  0  0  0  0  0  0  0  0  0  0  0
  2  1  1  6
  2  7  1  0
  3  4  1  0
  3  2  1  0
  4  5  1  0
  5  6  2  0
  7  8  2  0
  7 10  1  0
  9  5  1  0
 10 11  1  0
 11 16  1  0
 11 12  1  6
 12 13  1  0
 13 14  1  0
 14 18  1  0
 15 14  2  0
 16 17  2  0
 19 20  1  0
 20 21  2  0
 23 22  1  1
 22 20  1  0
 24 23  1  0
 24 16  1  0
 25 23  1  0
 26 25  1  0
 27 25  2  0
M  END
$$$$
