EEN.pdb
     RDKit          3D

 27 26  0  0  1  0  0  0  0  0999 V2000
   10.9335  -18.1536   14.9259 N   0  0  0  0  0  0  0  0  0  0  0  0
   10.9131  -19.3387   15.7197 C   0  0  1  0  0  0  0  0  0  0  0  0
   12.2807  -19.9273   15.8142 C   0  0  0  0  0  0  0  0  0  0  0  0
   13.2657  -19.1002   16.5837 C   0  0  0  0  0  0  0  0  0  0  0  0
   14.5826  -19.7288   16.5935 C   0  0  0  0  0  0  0  0  0  0  0  0
   14.9924  -20.5528   17.4600 O   0  0  0  0  0  0  0  0  0  0  0  0
   10.4826  -19.0191   17.1211 C   0  0  0  0  0  0  0  0  0  0  0  0
   10.6035  -17.8248   17.4949 O   0  0  0  0  0  0  0  0  0  0  0  0
   15.4986  -19.4158   15.5691 O   0  0  0  0  0  0  0  0  0  0  0  0
    9.9692  -20.0372   17.9555 N   0  0  0  0  0  0  0  0  0  0  0  0
    9.3476  -19.6915   19.2529 C   0  0  1  0  0  0  0  0  0  0  0  0
    8.2391  -20.6322   19.5373 C   0  0  0  0  0  0  0  0  0  0  0  0
    6.9700  -20.4598   18.7956 C   0  0  0  0  0  0  0  0  0  0  0  0
    5.9512  -21.4909   19.2443 C   0  0  0  0  0  0  0  0  0  0  0  0
    5.3840  -21.3779   20.3713 O   0  0  0  0  0  0  0  0  0  0  0  0
   10.4457  -19.6606   20.2337 C   0  0  0  0  0  0  0  0  0  0  0  0
   11.4840  -20.3943   20.0736 O   0  0  0  0  0  0  0  0  0  0  0  0
    5.6094  -22.5666   18.4638 O   0  0  0  0  0  0  0  0  0  0  0  0
   13.6142  -18.4490   24.1078 N   0  0  0  0  0  0  0  0  0  0  0  0
   13.4535  -17.4541   23.1214 C   0  0  0  0  0  0  0  0  0  0  0  0
   14.2699  -16.5161   23.0802 O   0  0  0  0  0  0  0  0  0  0  0  0
   12.3518  -17.5325   22.1756 C   0  0  0  0  0  0  0  0  0  0  0  0
   11.5560  -18.8093   22.2518 C   0  0  2  0  0  0  0  0  0  0  0  0
   10.4297  -18.8396   21.3812 N   0  0  0  0  0  0  0  0  0  0  0  0
   11.0936  -18.9295   23.6576 C   0  0  0  0  0  0  0  0  0  0  0  0
   11.9004  -19.5192   24.6285 O   0  0  0  0  0  0  0  0  0  0  0  0
    9.9726  -18.4994   23.9758 O   0  0  0  0  0  0  0  0  0  0  0  0
  2  1  1  6
  2  7  1  0
  3  4  1  0
  3  2  1  0
  4  5  1  0
  5  6  2  0
  7  8  2  0
  7 10  1  0
  9  5  1  0
 10 11  1  0
 11 16  1  0
 11 12  1  1
 12 13  1  0
 13 14  1  0
 14 18  1  0
 15 14  2  0
 16 17  2  0
 19 20  1  0
 20 21  2  0
 23 22  1  1
 22 20  1  0
 24 23  1  0
 24 16  1  0
 25 23  1  0
 26 25  1  0
 27 25  2  0
M  END
$$$$
