EEN.pdb
     RDKit          3D

 27 26  0  0  1  0  0  0  0  0999 V2000
   12.9910  -16.6723   17.6764 N   0  0  0  0  0  0  0  0  0  0  0  0
   13.4324  -15.3576   17.3424 C   0  0  1  0  0  0  0  0  0  0  0  0
   13.2514  -15.1009   15.8840 C   0  0  0  0  0  0  0  0  0  0  0  0
   11.9251  -15.5301   15.3333 C   0  0  0  0  0  0  0  0  0  0  0  0
   11.8991  -15.4120   13.8791 C   0  0  0  0  0  0  0  0  0  0  0  0
   12.1192  -16.3540   13.0654 O   0  0  0  0  0  0  0  0  0  0  0  0
   12.6098  -14.3327   18.0666 C   0  0  0  0  0  0  0  0  0  0  0  0
   13.0253  -13.1464   18.0385 O   0  0  0  0  0  0  0  0  0  0  0  0
   11.6084  -14.1609   13.2986 O   0  0  0  0  0  0  0  0  0  0  0  0
   11.4279  -14.7171   18.7387 N   0  0  0  0  0  0  0  0  0  0  0  0
   10.6376  -13.7134   19.4850 C   0  0  1  0  0  0  0  0  0  0  0  0
    9.2119  -13.8168   19.0962 C   0  0  0  0  0  0  0  0  0  0  0  0
    8.7940  -13.2156   17.8100 C   0  0  0  0  0  0  0  0  0  0  0  0
    7.8266  -14.1341   17.0868 C   0  0  0  0  0  0  0  0  0  0  0  0
    7.3377  -13.7922   15.9693 O   0  0  0  0  0  0  0  0  0  0  0  0
   10.9437  -13.9325   20.9087 C   0  0  0  0  0  0  0  0  0  0  0  0
   10.1010  -13.6013   21.8155 O   0  0  0  0  0  0  0  0  0  0  0  0
    7.4489  -15.3482   17.6028 O   0  0  0  0  0  0  0  0  0  0  0  0
   10.4471  -17.0744   24.8106 N   0  0  0  0  0  0  0  0  0  0  0  0
   11.2894  -17.3094   23.7043 C   0  0  0  0  0  0  0  0  0  0  0  0
   12.0918  -18.2589   23.7553 O   0  0  0  0  0  0  0  0  0  0  0  0
   11.2134  -16.4530   22.5317 C   0  0  0  0  0  0  0  0  0  0  0  0
   12.1694  -15.2890   22.5483 C   0  0  2  0  0  0  0  0  0  0  0  0
   12.1507  -14.5103   21.3563 N   0  0  0  0  0  0  0  0  0  0  0  0
   13.5247  -15.8648   22.7377 C   0  0  0  0  0  0  0  0  0  0  0  0
   13.9277  -16.3537   23.9786 O   0  0  0  0  0  0  0  0  0  0  0  0
   14.3128  -15.9128   21.7787 O   0  0  0  0  0  0  0  0  0  0  0  0
  2  1  1  6
  2  7  1  0
  3  4  1  0
  3  2  1  0
  4  5  1  0
  5  6  2  0
  7  8  2  0
  7 10  1  0
  9  5  1  0
 10 11  1  0
 11 16  1  0
 11 12  1  1
 12 13  1  0
 13 14  1  0
 14 18  1  0
 15 14  2  0
 16 17  2  0
 19 20  1  0
 20 21  2  0
 23 22  1  6
 22 20  1  0
 24 23  1  0
 24 16  1  0
 25 23  1  0
 26 25  1  0
 27 25  2  0
M  END
$$$$
