EEN.pdb
     RDKit          3D

 27 26  0  0  1  0  0  0  0  0999 V2000
    9.3786  -19.0936   17.9784 N   0  0  0  0  0  0  0  0  0  0  0  0
   10.7772  -18.8231   18.0535 C   0  0  1  0  0  0  0  0  0  0  0  0
   11.3223  -18.5126   16.6999 C   0  0  0  0  0  0  0  0  0  0  0  0
   10.2905  -18.4187   15.6167 C   0  0  0  0  0  0  0  0  0  0  0  0
   10.8350  -17.7667   14.4302 C   0  0  0  0  0  0  0  0  0  0  0  0
   10.3097  -16.7867   13.8290 O   0  0  0  0  0  0  0  0  0  0  0  0
   11.0285  -17.6153   18.9077 C   0  0  0  0  0  0  0  0  0  0  0  0
   12.2247  -17.2521   19.0415 O   0  0  0  0  0  0  0  0  0  0  0  0
   12.0437  -18.2412   13.8818 O   0  0  0  0  0  0  0  0  0  0  0  0
    9.9478  -16.9408   19.5186 N   0  0  0  0  0  0  0  0  0  0  0  0
   10.1911  -15.7227   20.3225 C   0  0  1  0  0  0  0  0  0  0  0  0
    8.9892  -14.8575   20.2869 C   0  0  0  0  0  0  0  0  0  0  0  0
    8.6345  -14.2080   19.0052 C   0  0  0  0  0  0  0  0  0  0  0  0
    7.3812  -13.3682   19.1671 C   0  0  0  0  0  0  0  0  0  0  0  0
    6.7991  -12.8891   18.1491 O   0  0  0  0  0  0  0  0  0  0  0  0
   10.6188  -16.1920   21.6512 C   0  0  0  0  0  0  0  0  0  0  0  0
    9.7612  -16.6368   22.4931 O   0  0  0  0  0  0  0  0  0  0  0  0
    6.8377  -13.0982   20.3979 O   0  0  0  0  0  0  0  0  0  0  0  0
   11.0834  -20.0420   24.2215 N   0  0  0  0  0  0  0  0  0  0  0  0
   11.6944  -18.7977   24.4805 C   0  0  0  0  0  0  0  0  0  0  0  0
   11.5341  -18.2744   25.5979 O   0  0  0  0  0  0  0  0  0  0  0  0
   12.4944  -18.1477   23.4549 C   0  0  0  0  0  0  0  0  0  0  0  0
   12.3076  -16.6552   23.3729 C   0  0  2  0  0  0  0  0  0  0  0  0
   11.9656  -16.1875   22.0722 N   0  0  0  0  0  0  0  0  0  0  0  0
   13.5976  -16.0497   23.7892 C   0  0  0  0  0  0  0  0  0  0  0  0
   14.2934  -15.1926   22.9393 O   0  0  0  0  0  0  0  0  0  0  0  0
   14.0660  -16.3088   24.9102 O   0  0  0  0  0  0  0  0  0  0  0  0
  2  1  1  6
  2  7  1  0
  3  4  1  0
  3  2  1  0
  4  5  1  0
  5  6  2  0
  7  8  2  0
  7 10  1  0
  9  5  1  0
 10 11  1  0
 11 16  1  0
 11 12  1  1
 12 13  1  0
 13 14  1  0
 14 18  1  0
 15 14  2  0
 16 17  2  0
 19 20  1  0
 20 21  2  0
 23 22  1  6
 22 20  1  0
 24 23  1  0
 24 16  1  0
 25 23  1  0
 26 25  1  0
 27 25  2  0
M  END
$$$$
