EEN.pdb
     RDKit          3D

 27 26  0  0  1  0  0  0  0  0999 V2000
   13.7346  -15.0975   16.2814 N   0  0  0  0  0  0  0  0  0  0  0  0
   13.6553  -16.3229   17.0073 C   0  0  1  0  0  0  0  0  0  0  0  0
   15.0206  -16.8661   17.2653 C   0  0  0  0  0  0  0  0  0  0  0  0
   15.9811  -15.8844   17.8656 C   0  0  0  0  0  0  0  0  0  0  0  0
   17.2951  -16.4889   18.0588 C   0  0  0  0  0  0  0  0  0  0  0  0
   18.3079  -16.2840   17.3307 O   0  0  0  0  0  0  0  0  0  0  0  0
   13.0214  -16.0936   18.3478 C   0  0  0  0  0  0  0  0  0  0  0  0
   13.1701  -14.9552   18.8603 O   0  0  0  0  0  0  0  0  0  0  0  0
   17.4881  -17.3789   19.1347 O   0  0  0  0  0  0  0  0  0  0  0  0
   12.2972  -17.1308   18.9772 N   0  0  0  0  0  0  0  0  0  0  0  0
   11.6189  -16.8855   20.2690 C   0  0  1  0  0  0  0  0  0  0  0  0
   10.3142  -17.5869   20.2844 C   0  0  0  0  0  0  0  0  0  0  0  0
   10.3131  -19.0616   20.1597 C   0  0  0  0  0  0  0  0  0  0  0  0
    8.8975  -19.5994   20.2564 C   0  0  0  0  0  0  0  0  0  0  0  0
    8.4427  -20.0004   21.3686 O   0  0  0  0  0  0  0  0  0  0  0  0
   12.5816  -17.2743   21.3134 C   0  0  0  0  0  0  0  0  0  0  0  0
   13.2138  -18.3863   21.2363 O   0  0  0  0  0  0  0  0  0  0  0  0
    8.0685  -19.6722   19.1653 O   0  0  0  0  0  0  0  0  0  0  0  0
   15.7652  -14.2825   22.1341 N   0  0  0  0  0  0  0  0  0  0  0  0
   15.7428  -15.5925   22.6559 C   0  0  0  0  0  0  0  0  0  0  0  0
   16.4892  -16.4499   22.1502 O   0  0  0  0  0  0  0  0  0  0  0  0
   14.8610  -15.9240   23.7635 C   0  0  0  0  0  0  0  0  0  0  0  0
   13.7848  -16.9221   23.4249 C   0  0  2  0  0  0  0  0  0  0  0  0
   12.8675  -16.4676   22.4353 N   0  0  0  0  0  0  0  0  0  0  0  0
   13.0519  -17.1900   24.6880 C   0  0  0  0  0  0  0  0  0  0  0  0
   13.7059  -17.7264   25.7951 O   0  0  0  0  0  0  0  0  0  0  0  0
   11.8386  -16.9337   24.7621 O   0  0  0  0  0  0  0  0  0  0  0  0
  2  1  1  1
  2  7  1  0
  3  4  1  0
  3  2  1  0
  4  5  1  0
  5  6  2  0
  7  8  2  0
  7 10  1  0
  9  5  1  0
 10 11  1  0
 11 16  1  0
 11 12  1  6
 12 13  1  0
 13 14  1  0
 14 18  1  0
 15 14  2  0
 16 17  2  0
 19 20  1  0
 20 21  2  0
 23 22  1  1
 22 20  1  0
 24 23  1  0
 24 16  1  0
 25 23  1  0
 26 25  1  0
 27 25  2  0
M  END
$$$$
