EEN.pdb
     RDKit          3D

 27 26  0  0  1  0  0  0  0  0999 V2000
   15.0340  -18.4344   16.7292 N   0  0  0  0  0  0  0  0  0  0  0  0
   15.2232  -19.2059   17.9140 C   0  0  1  0  0  0  0  0  0  0  0  0
   16.5346  -18.8794   18.5458 C   0  0  0  0  0  0  0  0  0  0  0  0
   16.9297  -17.4363   18.4566 C   0  0  0  0  0  0  0  0  0  0  0  0
   18.2411  -17.2144   19.0571 C   0  0  0  0  0  0  0  0  0  0  0  0
   18.4617  -17.0529   20.2912 O   0  0  0  0  0  0  0  0  0  0  0  0
   14.1634  -18.8770   18.9240 C   0  0  0  0  0  0  0  0  0  0  0  0
   13.5717  -17.7759   18.7897 O   0  0  0  0  0  0  0  0  0  0  0  0
   19.3772  -17.1706   18.2241 O   0  0  0  0  0  0  0  0  0  0  0  0
   13.8688  -19.7856   19.9652 N   0  0  0  0  0  0  0  0  0  0  0  0
   12.6830  -19.5724   20.8240 C   0  0  1  0  0  0  0  0  0  0  0  0
   12.1825  -20.8790   21.3105 C   0  0  0  0  0  0  0  0  0  0  0  0
   10.9760  -20.8889   22.1678 C   0  0  0  0  0  0  0  0  0  0  0  0
   10.5975  -22.3126   22.5315 C   0  0  0  0  0  0  0  0  0  0  0  0
   10.1652  -23.1041   21.6420 O   0  0  0  0  0  0  0  0  0  0  0  0
   13.0972  -18.6066   21.8556 C   0  0  0  0  0  0  0  0  0  0  0  0
   14.3262  -18.5138   22.2063 O   0  0  0  0  0  0  0  0  0  0  0  0
   10.7054  -22.7917   23.8128 O   0  0  0  0  0  0  0  0  0  0  0  0
    9.9048  -17.2171   23.2218 N   0  0  0  0  0  0  0  0  0  0  0  0
   10.3558  -15.9078   23.4883 C   0  0  0  0  0  0  0  0  0  0  0  0
    9.5248  -14.9820   23.5083 O   0  0  0  0  0  0  0  0  0  0  0  0
   11.7666  -15.6556   23.7339 C   0  0  0  0  0  0  0  0  0  0  0  0
   12.6596  -16.8485   23.5134 C   0  0  2  0  0  0  0  0  0  0  0  0
   12.1933  -17.7394   22.5053 N   0  0  0  0  0  0  0  0  0  0  0  0
   12.7251  -17.5664   24.8113 C   0  0  0  0  0  0  0  0  0  0  0  0
   13.3122  -16.9747   25.9277 O   0  0  0  0  0  0  0  0  0  0  0  0
   12.2509  -18.7105   24.9067 O   0  0  0  0  0  0  0  0  0  0  0  0
  2  1  1  6
  2  7  1  0
  3  4  1  0
  3  2  1  0
  4  5  1  0
  5  6  2  0
  7  8  2  0
  7 10  1  0
  9  5  1  0
 10 11  1  0
 11 16  1  0
 11 12  1  1
 12 13  1  0
 13 14  1  0
 14 18  1  0
 15 14  2  0
 16 17  2  0
 19 20  1  0
 20 21  2  0
 23 22  1  1
 22 20  1  0
 24 23  1  0
 24 16  1  0
 25 23  1  0
 26 25  1  0
 27 25  2  0
M  END
$$$$
