EEN.pdb
     RDKit          3D

 27 26  0  0  1  0  0  0  0  0999 V2000
    5.2579  -20.0649   19.7636 N   0  0  0  0  0  0  0  0  0  0  0  0
    5.3152  -19.0999   20.8127 C   0  0  1  0  0  0  0  0  0  0  0  0
    4.1727  -19.2839   21.7542 C   0  0  0  0  0  0  0  0  0  0  0  0
    2.9020  -19.7523   21.1117 C   0  0  0  0  0  0  0  0  0  0  0  0
    1.7758  -19.6349   22.0322 C   0  0  0  0  0  0  0  0  0  0  0  0
    1.8429  -19.1998   23.2171 O   0  0  0  0  0  0  0  0  0  0  0  0
    6.5699  -19.2783   21.6160 C   0  0  0  0  0  0  0  0  0  0  0  0
    6.9505  -20.4587   21.8221 O   0  0  0  0  0  0  0  0  0  0  0  0
    0.4936  -20.0292   21.5995 O   0  0  0  0  0  0  0  0  0  0  0  0
    7.2672  -18.1501   22.1030 N   0  0  0  0  0  0  0  0  0  0  0  0
    8.5413  -18.3231   22.8352 C   0  0  1  0  0  0  0  0  0  0  0  0
    9.5933  -17.4952   22.2010 C   0  0  0  0  0  0  0  0  0  0  0  0
   10.3928  -16.5994   23.0665 C   0  0  0  0  0  0  0  0  0  0  0  0
   11.3979  -15.8219   22.2373 C   0  0  0  0  0  0  0  0  0  0  0  0
   11.0203  -14.8350   21.5387 O   0  0  0  0  0  0  0  0  0  0  0  0
    8.2415  -18.0293   24.2467 C   0  0  0  0  0  0  0  0  0  0  0  0
    7.4611  -17.0624   24.5602 O   0  0  0  0  0  0  0  0  0  0  0  0
   12.7303  -16.1491   22.2103 O   0  0  0  0  0  0  0  0  0  0  0  0
    6.0569  -19.8236   26.5605 N   0  0  0  0  0  0  0  0  0  0  0  0
    7.0368  -20.2921   27.4600 C   0  0  0  0  0  0  0  0  0  0  0  0
    6.7903  -21.3066   28.1369 O   0  0  0  0  0  0  0  0  0  0  0  0
    8.3072  -19.5961   27.5860 C   0  0  0  0  0  0  0  0  0  0  0  0
    8.4655  -18.4177   26.6611 C   0  0  2  0  0  0  0  0  0  0  0  0
    8.7754  -18.7760   25.3184 N   0  0  0  0  0  0  0  0  0  0  0  0
    9.5696  -17.5958   27.2176 C   0  0  0  0  0  0  0  0  0  0  0  0
    9.4624  -17.0120   28.4781 O   0  0  0  0  0  0  0  0  0  0  0  0
   10.6048  -17.4242   26.5527 O   0  0  0  0  0  0  0  0  0  0  0  0
  2  1  1  6
  2  7  1  0
  3  4  1  0
  3  2  1  0
  4  5  1  0
  5  6  2  0
  7  8  2  0
  7 10  1  0
  9  5  1  0
 10 11  1  0
 11 16  1  0
 11 12  1  6
 12 13  1  0
 13 14  1  0
 14 18  1  0
 15 14  2  0
 16 17  2  0
 19 20  1  0
 20 21  2  0
 23 22  1  1
 22 20  1  0
 24 23  1  0
 24 16  1  0
 25 23  1  0
 26 25  1  0
 27 25  2  0
M  END
$$$$
