DRW.pdb
     RDKit          3D

 34 35  0  0  1  0  0  0  0  0999 V2000
   12.4169  -16.6602   19.2349 N   0  0  0  0  0  0  0  0  0  0  0  0
   12.9343  -15.5341   20.0224 C   0  0  1  0  0  0  0  0  0  0  0  0
   13.1202  -14.3890   19.0894 C   0  0  0  0  0  0  0  0  0  0  0  0
   14.4339  -14.3409   18.4504 C   0  0  0  0  0  0  0  0  0  0  0  0
   15.4173  -15.0605   18.6730 O   0  0  0  0  0  0  0  0  0  0  0  0
   11.9633  -15.2356   21.1267 C   0  0  0  0  0  0  0  0  0  0  0  0
   12.2256  -14.4837   22.0660 O   0  0  0  0  0  0  0  0  0  0  0  0
   14.6138  -13.3582   17.4573 O   0  0  0  0  0  0  0  0  0  0  0  0
   10.2308  -14.0827   18.4658 N   0  0  0  0  0  0  0  0  0  0  0  0
    8.9876  -13.6365   17.9403 C   0  0  0  0  0  0  0  0  0  0  0  0
    8.9003  -13.1992   16.7340 N   0  0  0  0  0  0  0  0  0  0  0  0
    7.8342  -13.6875   18.7934 N   0  0  0  0  0  0  0  0  0  0  0  0
    8.0551  -14.1643   20.1473 C   0  0  0  0  0  0  0  0  0  0  0  0
    7.9907  -15.6782   20.1493 C   0  0  0  0  0  0  0  0  0  0  0  0
    8.3526  -16.1685   21.5362 C   0  0  0  0  0  0  0  0  0  0  0  0
    9.6272  -15.5186   22.0260 C   0  0  2  0  0  0  0  0  0  0  0  0
   10.6804  -15.8383   21.1048 N   0  0  0  0  0  0  0  0  0  0  0  0
    9.9495  -16.1440   23.3575 C   0  0  0  0  0  0  0  0  0  0  0  0
   10.7402  -17.1184   23.3873 O   0  0  0  0  0  0  0  0  0  0  0  0
    8.0027  -12.7976   16.4152 N   0  0  0  0  0  0  0  0  0  0  0  0
    9.3956  -15.6735   24.5600 C   0  0  1  0  0  0  0  0  0  0  0  0
    9.7545  -16.1941   25.8918 C   0  0  0  0  0  0  0  0  0  0  0  0
    9.3498  -15.2483   26.9563 C   0  0  0  0  0  0  0  0  0  0  0  0
    8.0292  -14.6627   26.7029 C   0  0  0  0  0  0  0  0  0  0  0  0
    6.8566  -15.3822   26.4591 N   0  0  0  0  0  0  0  0  0  0  0  0
    5.8321  -14.5343   26.2212 C   0  0  0  0  0  0  0  0  0  0  0  0
    6.2967  -13.2673   26.3021 C   0  0  0  0  0  0  0  0  0  0  0  0
    5.6919  -12.0409   26.1674 C   0  0  0  0  0  0  0  0  0  0  0  0
    6.3969  -10.8555   26.3218 C   0  0  0  0  0  0  0  0  0  0  0  0
    7.7444  -10.9195   26.6191 C   0  0  0  0  0  0  0  0  0  0  0  0
    8.3409  -12.1493   26.7512 C   0  0  0  0  0  0  0  0  0  0  0  0
    7.6387  -13.3433   26.5966 C   0  0  0  0  0  0  0  0  0  0  0  0
    9.2758  -17.5645   25.9856 O   0  0  0  0  0  0  0  0  0  0  0  0
    8.4411  -18.0144   25.1518 O   0  0  0  0  0  0  0  0  0  0  0  0
  2  1  1  6
  3  2  1  0
  4  3  1  0
  5  4  2  0
  6 17  1  0
  6  2  1  0
  7  6  2  0
  8  4  1  0
  9 10  1  0
 10 12  1  0
 10 11  2  0
 12 13  1  0
 13 14  1  0
 14 15  1  0
 16 17  1  0
 16 15  1  6
 18 16  1  0
 19 18  2  0
 20 18  1  0
 21 20  1  0
 22 23  1  0
 21 22  1  1
 23 24  2  0
 25 24  1  0
 26 25  1  0
 27 26  2  0
 28 27  1  0
 29 30  1  0
 29 28  2  0
 30 31  2  0
 31 26  1  0
 31 23  1  0
 32 21  1  0
 32 34  1  0
 33 32  2  0
M  END
$$$$
