DRW.pdb
     RDKit          3D

 34 35  0  0  1  0  0  0  0  0999 V2000
    9.7788  -14.4482   18.6083 N   0  0  0  0  0  0  0  0  0  0  0  0
    8.5842  -14.0679   19.3727 C   0  0  1  0  0  0  0  0  0  0  0  0
    7.4345  -14.0662   18.4269 C   0  0  0  0  0  0  0  0  0  0  0  0
    7.7456  -13.5305   17.1029 C   0  0  0  0  0  0  0  0  0  0  0  0
    8.8501  -13.1877   16.6589 O   0  0  0  0  0  0  0  0  0  0  0  0
    8.4091  -15.0395   20.5026 C   0  0  0  0  0  0  0  0  0  0  0  0
    7.4111  -15.0574   21.2238 O   0  0  0  0  0  0  0  0  0  0  0  0
    6.6623  -13.3820   16.2149 O   0  0  0  0  0  0  0  0  0  0  0  0
   13.6677  -18.1745   19.3683 N   0  0  0  0  0  0  0  0  0  0  0  0
   13.3048  -19.5375   19.5451 C   0  0  0  0  0  0  0  0  0  0  0  0
   14.1955  -20.4293   19.8005 N   0  0  0  0  0  0  0  0  0  0  0  0
   11.9178  -19.8895   19.4303 N   0  0  0  0  0  0  0  0  0  0  0  0
   10.9945  -18.7966   19.1806 C   0  0  0  0  0  0  0  0  0  0  0  0
    9.8766  -18.8579   20.2017 C   0  0  0  0  0  0  0  0  0  0  0  0
   10.3189  -18.1023   21.4380 C   0  0  0  0  0  0  0  0  0  0  0  0
    9.3405  -17.0011   21.7797 C   0  0  2  0  0  0  0  0  0  0  0  0
    9.4293  -15.9874   20.7674 N   0  0  0  0  0  0  0  0  0  0  0  0
    9.7917  -16.4105   23.0895 C   0  0  0  0  0  0  0  0  0  0  0  0
   10.8035  -15.6675   23.0961 O   0  0  0  0  0  0  0  0  0  0  0  0
   13.8933  -21.4088   19.9345 N   0  0  0  0  0  0  0  0  0  0  0  0
    9.1194  -16.6642   24.2970 C   0  0  1  0  0  0  0  0  0  0  0  0
    9.6012  -16.2193   25.6173 C   0  0  0  0  0  0  0  0  0  0  0  0
    8.4729  -16.0377   26.5585 C   0  0  0  0  0  0  0  0  0  0  0  0
    7.5194  -15.0265   26.0902 C   0  0  0  0  0  0  0  0  0  0  0  0
    6.3587  -15.2850   25.3567 N   0  0  0  0  0  0  0  0  0  0  0  0
    5.7349  -14.1264   25.0504 C   0  0  0  0  0  0  0  0  0  0  0  0
    6.4541  -13.1035   25.5643 C   0  0  0  0  0  0  0  0  0  0  0  0
    6.2716  -11.7417   25.5645 C   0  0  0  0  0  0  0  0  0  0  0  0
    7.1615  -10.8834   26.1951 C   0  0  0  0  0  0  0  0  0  0  0  0
    8.2591  -11.4220   26.8382 C   0  0  0  0  0  0  0  0  0  0  0  0
    8.4341  -12.7839   26.8322 C   0  0  0  0  0  0  0  0  0  0  0  0
    7.5446  -13.6510   26.2002 C   0  0  0  0  0  0  0  0  0  0  0  0
   10.6863  -17.0991   26.0228 O   0  0  0  0  0  0  0  0  0  0  0  0
   10.8906  -18.1903   25.4212 O   0  0  0  0  0  0  0  0  0  0  0  0
  2  1  1  6
  3  2  1  0
  4  3  1  0
  5  4  2  0
  6 17  1  0
  6  2  1  0
  7  6  2  0
  8  4  1  0
  9 10  1  0
 10 12  1  0
 10 11  2  0
 12 13  1  0
 13 14  1  0
 14 15  1  0
 16 17  1  0
 16 15  1  6
 18 16  1  0
 19 18  2  0
 20 18  1  0
 21 20  1  0
 22 23  1  0
 21 22  1  1
 23 24  2  0
 25 24  1  0
 26 25  1  0
 27 26  2  0
 28 27  1  0
 29 30  1  0
 29 28  2  0
 30 31  2  0
 31 26  1  0
 31 23  1  0
 32 21  1  0
 32 34  1  0
 33 32  2  0
M  END
$$$$
