DRW.pdb
     RDKit          3D

 34 35  0  0  1  0  0  0  0  0999 V2000
    8.3037  -16.2392   17.9745 N   0  0  0  0  0  0  0  0  0  0  0  0
    8.8653  -15.3598   19.0076 C   0  0  1  0  0  0  0  0  0  0  0  0
    8.3583  -13.9852   18.7433 C   0  0  0  0  0  0  0  0  0  0  0  0
    8.6034  -13.5046   17.3848 C   0  0  0  0  0  0  0  0  0  0  0  0
    7.9599  -12.6600   16.7467 O   0  0  0  0  0  0  0  0  0  0  0  0
    8.4595  -15.8828   20.3541 C   0  0  0  0  0  0  0  0  0  0  0  0
    7.7624  -15.2415   21.1410 O   0  0  0  0  0  0  0  0  0  0  0  0
    9.7051  -14.0652   16.7092 O   0  0  0  0  0  0  0  0  0  0  0  0
    6.7847  -24.4594   23.4484 N   0  0  0  0  0  0  0  0  0  0  0  0
    7.0674  -23.1737   22.9118 C   0  0  0  0  0  0  0  0  0  0  0  0
    6.6696  -22.8492   21.7326 N   0  0  0  0  0  0  0  0  0  0  0  0
    7.8088  -22.2495   23.7223 N   0  0  0  0  0  0  0  0  0  0  0  0
    8.8019  -21.4430   23.0349 C   0  0  0  0  0  0  0  0  0  0  0  0
    8.4333  -19.9809   23.1846 C   0  0  0  0  0  0  0  0  0  0  0  0
    8.7299  -19.2784   21.8755 C   0  0  0  0  0  0  0  0  0  0  0  0
    8.5326  -17.7848   22.0045 C   0  0  2  0  0  0  0  0  0  0  0  0
    8.8895  -17.1723   20.7564 N   0  0  0  0  0  0  0  0  0  0  0  0
    9.4929  -17.3097   23.0628 C   0  0  0  0  0  0  0  0  0  0  0  0
   10.7132  -17.5708   22.9269 O   0  0  0  0  0  0  0  0  0  0  0  0
    6.9375  -21.9249   21.3550 N   0  0  0  0  0  0  0  0  0  0  0  0
    9.0676  -16.5880   24.1909 C   0  0  2  0  0  0  0  0  0  0  0  0
    9.9823  -16.0124   25.1937 C   0  0  0  0  0  0  0  0  0  0  0  0
    9.7216  -14.5670   25.3796 C   0  0  0  0  0  0  0  0  0  0  0  0
    8.3086  -14.2915   25.6600 C   0  0  0  0  0  0  0  0  0  0  0  0
    7.2799  -15.2369   25.6451 N   0  0  0  0  0  0  0  0  0  0  0  0
    6.0959  -14.6394   25.9024 C   0  0  0  0  0  0  0  0  0  0  0  0
    6.3140  -13.3183   26.0887 C   0  0  0  0  0  0  0  0  0  0  0  0
    5.4809  -12.2681   26.3902 C   0  0  0  0  0  0  0  0  0  0  0  0
    5.9609  -10.9764   26.5559 C   0  0  0  0  0  0  0  0  0  0  0  0
    7.3158  -10.7492   26.4120 C   0  0  0  0  0  0  0  0  0  0  0  0
    8.1410  -11.8044   26.1099 C   0  0  0  0  0  0  0  0  0  0  0  0
    7.6652  -13.1035   25.9414 C   0  0  0  0  0  0  0  0  0  0  0  0
    9.9531  -16.8629   26.3733 O   0  0  0  0  0  0  0  0  0  0  0  0
    9.0931  -17.7807   26.4854 O   0  0  0  0  0  0  0  0  0  0  0  0
  2  1  1  6
  3  2  1  0
  4  3  1  0
  5  4  2  0
  6 17  1  0
  6  2  1  0
  7  6  2  0
  8  4  1  0
  9 10  1  0
 10 12  1  0
 10 11  2  0
 12 13  1  0
 13 14  1  0
 14 15  1  0
 16 17  1  0
 16 15  1  6
 18 16  1  0
 19 18  2  0
 20 18  1  0
 21 20  1  0
 22 23  1  0
 21 22  1  6
 23 24  2  0
 25 24  1  0
 26 25  1  0
 27 26  2  0
 28 27  1  0
 29 30  1  0
 29 28  2  0
 30 31  2  0
 31 26  1  0
 31 23  1  0
 32 21  1  0
 32 34  1  0
 33 32  2  0
M  END
$$$$
