DRW.pdb
     RDKit          3D

 34 35  0  0  1  0  0  0  0  0999 V2000
   11.2690  -18.2893   19.2959 N   0  0  0  0  0  0  0  0  0  0  0  0
   12.0843  -18.1068   20.5034 C   0  0  1  0  0  0  0  0  0  0  0  0
   13.4886  -17.8865   20.0612 C   0  0  0  0  0  0  0  0  0  0  0  0
   14.2028  -19.1083   19.6955 C   0  0  0  0  0  0  0  0  0  0  0  0
   13.7657  -20.2670   19.6639 O   0  0  0  0  0  0  0  0  0  0  0  0
   11.5305  -16.9522   21.2853 C   0  0  0  0  0  0  0  0  0  0  0  0
   12.0796  -15.8511   21.3362 O   0  0  0  0  0  0  0  0  0  0  0  0
   15.5558  -18.9604   19.3327 O   0  0  0  0  0  0  0  0  0  0  0  0
    6.5811  -13.1757   19.0153 N   0  0  0  0  0  0  0  0  0  0  0  0
    7.9281  -13.4163   18.6300 C   0  0  0  0  0  0  0  0  0  0  0  0
    8.5794  -12.5527   17.9344 N   0  0  0  0  0  0  0  0  0  0  0  0
    8.5395  -14.6492   19.0386 N   0  0  0  0  0  0  0  0  0  0  0  0
    7.7979  -15.4491   19.9975 C   0  0  0  0  0  0  0  0  0  0  0  0
    7.9984  -14.8645   21.3810 C   0  0  0  0  0  0  0  0  0  0  0  0
    8.2338  -16.0046   22.3503 C   0  0  0  0  0  0  0  0  0  0  0  0
    9.6871  -16.0755   22.7618 C   0  0  2  0  0  0  0  0  0  0  0  0
   10.3207  -17.1179   22.0054 N   0  0  0  0  0  0  0  0  0  0  0  0
    9.7079  -16.4601   24.2177 C   0  0  0  0  0  0  0  0  0  0  0  0
    9.2895  -17.5977   24.5440 O   0  0  0  0  0  0  0  0  0  0  0  0
    9.5557  -12.7641   17.6681 N   0  0  0  0  0  0  0  0  0  0  0  0
   10.1780  -15.5901   25.2159 C   0  0  1  0  0  0  0  0  0  0  0  0
   10.1013  -15.8752   26.6603 C   0  0  0  0  0  0  0  0  0  0  0  0
    8.7635  -16.3923   27.0272 C   0  0  0  0  0  0  0  0  0  0  0  0
    7.6850  -15.5104   26.5686 C   0  0  0  0  0  0  0  0  0  0  0  0
    6.5850  -15.9056   25.8029 N   0  0  0  0  0  0  0  0  0  0  0  0
    5.8094  -14.8369   25.5177 C   0  0  0  0  0  0  0  0  0  0  0  0
    6.3681  -13.7402   26.0771 C   0  0  0  0  0  0  0  0  0  0  0  0
    5.9953  -12.4182   26.1138 C   0  0  0  0  0  0  0  0  0  0  0  0
    6.7442  -11.4643   26.7885 C   0  0  0  0  0  0  0  0  0  0  0  0
    7.8956  -11.8638   27.4388 C   0  0  0  0  0  0  0  0  0  0  0  0
    8.2612  -13.1868   27.3963 C   0  0  0  0  0  0  0  0  0  0  0  0
    7.5139  -14.1493   26.7199 C   0  0  0  0  0  0  0  0  0  0  0  0
   11.2599  -16.6752   27.0255 O   0  0  0  0  0  0  0  0  0  0  0  0
   11.4054  -17.0976   28.2065 O   0  0  0  0  0  0  0  0  0  0  0  0
  2  1  1  6
  3  2  1  0
  4  3  1  0
  5  4  2  0
  6 17  1  0
  6  2  1  0
  7  6  2  0
  8  4  1  0
  9 10  1  0
 10 12  1  0
 10 11  2  0
 12 13  1  0
 13 14  1  0
 14 15  1  0
 16 17  1  0
 16 15  1  6
 18 16  1  0
 19 18  2  0
 20 18  1  0
 21 20  1  0
 22 23  1  0
 21 22  1  1
 23 24  2  0
 25 24  1  0
 26 25  1  0
 27 26  2  0
 28 27  1  0
 29 30  1  0
 29 28  2  0
 30 31  2  0
 31 26  1  0
 31 23  1  0
 32 21  1  0
 32 34  1  0
 33 32  2  0
M  END
$$$$
