DRW.pdb
     RDKit          3D

 34 35  0  0  1  0  0  0  0  0999 V2000
   10.8202  -18.5879   20.4355 N   0  0  0  0  0  0  0  0  0  0  0  0
   11.7954  -18.2090   21.4657 C   0  0  1  0  0  0  0  0  0  0  0  0
   13.1351  -18.1752   20.8172 C   0  0  0  0  0  0  0  0  0  0  0  0
   13.4985  -19.4090   20.1228 C   0  0  0  0  0  0  0  0  0  0  0  0
   14.5991  -19.7212   19.6476 O   0  0  0  0  0  0  0  0  0  0  0  0
   11.3925  -16.8837   22.0424 C   0  0  0  0  0  0  0  0  0  0  0  0
   12.2064  -16.0258   22.3860 O   0  0  0  0  0  0  0  0  0  0  0  0
   12.4779  -20.3679   19.9700 O   0  0  0  0  0  0  0  0  0  0  0  0
    8.2875  -12.6251   18.2864 N   0  0  0  0  0  0  0  0  0  0  0  0
    8.0728  -13.8368   17.5747 C   0  0  0  0  0  0  0  0  0  0  0  0
    8.5237  -13.9886   16.3798 N   0  0  0  0  0  0  0  0  0  0  0  0
    7.3391  -14.8844   18.2265 N   0  0  0  0  0  0  0  0  0  0  0  0
    7.1202  -14.7257   19.6535 C   0  0  0  0  0  0  0  0  0  0  0  0
    8.4583  -14.7806   20.3625 C   0  0  0  0  0  0  0  0  0  0  0  0
    8.2090  -15.0697   21.8286 C   0  0  0  0  0  0  0  0  0  0  0  0
    9.5099  -15.2937   22.5662 C   0  0  2  0  0  0  0  0  0  0  0  0
   10.0159  -16.5881   22.2072 N   0  0  0  0  0  0  0  0  0  0  0  0
    9.1804  -15.2992   24.0357 C   0  0  0  0  0  0  0  0  0  0  0  0
    8.6855  -14.2636   24.5438 O   0  0  0  0  0  0  0  0  0  0  0  0
    8.4239  -14.9115   15.9250 N   0  0  0  0  0  0  0  0  0  0  0  0
    9.4089  -16.4208   24.8506 C   0  0  1  0  0  0  0  0  0  0  0  0
    9.7327  -16.3435   26.2868 C   0  0  0  0  0  0  0  0  0  0  0  0
    8.5005  -16.3358   27.1073 C   0  0  0  0  0  0  0  0  0  0  0  0
    7.5262  -15.3477   26.6324 C   0  0  0  0  0  0  0  0  0  0  0  0
    6.2956  -15.6424   26.0400 N   0  0  0  0  0  0  0  0  0  0  0  0
    5.6679  -14.5015   25.6803 C   0  0  0  0  0  0  0  0  0  0  0  0
    6.4528  -13.4548   26.0208 C   0  0  0  0  0  0  0  0  0  0  0  0
    6.2975  -12.0946   25.9034 C   0  0  0  0  0  0  0  0  0  0  0  0
    7.2603  -11.2053   26.3599 C   0  0  0  0  0  0  0  0  0  0  0  0
    8.4039  -11.7104   26.9476 C   0  0  0  0  0  0  0  0  0  0  0  0
    8.5511  -13.0710   27.0600 C   0  0  0  0  0  0  0  0  0  0  0  0
    7.5885  -13.9693   26.6030 C   0  0  0  0  0  0  0  0  0  0  0  0
   10.7348  -17.3564   26.5796 O   0  0  0  0  0  0  0  0  0  0  0  0
   11.0854  -18.1902   25.6985 O   0  0  0  0  0  0  0  0  0  0  0  0
  2  1  1  6
  3  2  1  0
  4  3  1  0
  5  4  2  0
  6 17  1  0
  6  2  1  0
  7  6  2  0
  8  4  1  0
  9 10  1  0
 10 12  1  0
 10 11  2  0
 12 13  1  0
 13 14  1  0
 14 15  1  0
 16 17  1  0
 16 15  1  6
 18 16  1  0
 19 18  2  0
 20 18  1  0
 21 20  1  0
 22 23  1  0
 21 22  1  1
 23 24  2  0
 25 24  1  0
 26 25  1  0
 27 26  2  0
 28 27  1  0
 29 30  1  0
 29 28  2  0
 30 31  2  0
 31 26  1  0
 31 23  1  0
 32 21  1  0
 32 34  1  0
 33 32  2  0
M  END
$$$$
