DRW.pdb
     RDKit          3D

 34 35  0  0  1  0  0  0  0  0999 V2000
    7.3413  -15.3275   17.5659 N   0  0  0  0  0  0  0  0  0  0  0  0
    8.2775  -16.0390   18.4452 C   0  0  1  0  0  0  0  0  0  0  0  0
    9.6484  -15.5659   18.1088 C   0  0  0  0  0  0  0  0  0  0  0  0
   10.1666  -16.0763   16.8409 C   0  0  0  0  0  0  0  0  0  0  0  0
    9.5961  -16.8134   16.0249 O   0  0  0  0  0  0  0  0  0  0  0  0
    7.8986  -15.7644   19.8708 C   0  0  0  0  0  0  0  0  0  0  0  0
    7.7120  -14.6287   20.3088 O   0  0  0  0  0  0  0  0  0  0  0  0
   11.4758  -15.6878   16.4954 O   0  0  0  0  0  0  0  0  0  0  0  0
    3.7377  -22.1823   22.1483 N   0  0  0  0  0  0  0  0  0  0  0  0
    5.0801  -22.5154   21.8200 C   0  0  0  0  0  0  0  0  0  0  0  0
    5.4160  -23.7319   21.5724 N   0  0  0  0  0  0  0  0  0  0  0  0
    6.0486  -21.4569   21.7732 N   0  0  0  0  0  0  0  0  0  0  0  0
    5.5747  -20.1336   22.1391 C   0  0  0  0  0  0  0  0  0  0  0  0
    6.7143  -19.1467   21.9869 C   0  0  0  0  0  0  0  0  0  0  0  0
    6.2015  -17.7676   22.3476 C   0  0  0  0  0  0  0  0  0  0  0  0
    7.2629  -16.7161   22.1150 C   0  0  2  0  0  0  0  0  0  0  0  0
    7.7445  -16.8498   20.7695 N   0  0  0  0  0  0  0  0  0  0  0  0
    8.3936  -17.0238   23.0609 C   0  0  0  0  0  0  0  0  0  0  0  0
    9.3860  -17.6566   22.6245 O   0  0  0  0  0  0  0  0  0  0  0  0
    6.4020  -23.9370   21.3389 N   0  0  0  0  0  0  0  0  0  0  0  0
    8.3719  -16.6273   24.4088 C   0  0  2  0  0  0  0  0  0  0  0  0
    9.5564  -16.6267   25.2866 C   0  0  0  0  0  0  0  0  0  0  0  0
    9.9642  -15.2442   25.6239 C   0  0  0  0  0  0  0  0  0  0  0  0
    8.8738  -14.4807   26.2397 C   0  0  0  0  0  0  0  0  0  0  0  0
    8.2716  -14.7727   27.4662 N   0  0  0  0  0  0  0  0  0  0  0  0
    7.2724  -13.8977   27.7133 C   0  0  0  0  0  0  0  0  0  0  0  0
    7.1970  -13.0299   26.6793 C   0  0  0  0  0  0  0  0  0  0  0  0
    6.3887  -11.9482   26.4256 C   0  0  0  0  0  0  0  0  0  0  0  0
    6.5256  -11.1855   25.2743 C   0  0  0  0  0  0  0  0  0  0  0  0
    7.5048  -11.5306   24.3630 C   0  0  0  0  0  0  0  0  0  0  0  0
    8.3076  -12.6136   24.6242 C   0  0  0  0  0  0  0  0  0  0  0  0
    8.1747  -13.3840   25.7780 C   0  0  0  0  0  0  0  0  0  0  0  0
    9.3052  -17.5458   26.3857 O   0  0  0  0  0  0  0  0  0  0  0  0
   10.2323  -17.8711   27.1788 O   0  0  0  0  0  0  0  0  0  0  0  0
  2  1  1  6
  3  2  1  0
  4  3  1  0
  5  4  2  0
  6 17  1  0
  6  2  1  0
  7  6  2  0
  8  4  1  0
  9 10  1  0
 10 12  1  0
 10 11  2  0
 12 13  1  0
 13 14  1  0
 14 15  1  0
 16 17  1  0
 16 15  1  1
 18 16  1  0
 19 18  2  0
 20 18  1  0
 21 20  1  0
 22 23  1  0
 21 22  1  6
 23 24  2  0
 25 24  1  0
 26 25  1  0
 27 26  2  0
 28 27  1  0
 29 30  1  0
 29 28  2  0
 30 31  2  0
 31 26  1  0
 31 23  1  0
 32 21  1  0
 32 34  1  0
 33 32  2  0
M  END
$$$$
