DRW.pdb
     RDKit          3D

 34 35  0  0  1  0  0  0  0  0999 V2000
    6.3672  -20.9664   22.8828 N   0  0  0  0  0  0  0  0  0  0  0  0
    6.7367  -19.8312   23.7376 C   0  0  1  0  0  0  0  0  0  0  0  0
    7.0000  -20.3696   25.1004 C   0  0  0  0  0  0  0  0  0  0  0  0
    5.8219  -20.9210   25.7673 C   0  0  0  0  0  0  0  0  0  0  0  0
    5.6999  -21.2436   26.9570 O   0  0  0  0  0  0  0  0  0  0  0  0
    7.9314  -19.1493   23.1385 C   0  0  0  0  0  0  0  0  0  0  0  0
    8.9813  -19.7388   22.8803 O   0  0  0  0  0  0  0  0  0  0  0  0
    4.6790  -21.1130   24.9665 O   0  0  0  0  0  0  0  0  0  0  0  0
    7.1406  -13.2963   17.5578 N   0  0  0  0  0  0  0  0  0  0  0  0
    8.0237  -13.1336   18.6598 C   0  0  0  0  0  0  0  0  0  0  0  0
    8.4858  -11.9739   18.9689 N   0  0  0  0  0  0  0  0  0  0  0  0
    8.3845  -14.2989   19.4165 N   0  0  0  0  0  0  0  0  0  0  0  0
    7.6126  -15.5010   19.1551 C   0  0  0  0  0  0  0  0  0  0  0  0
    8.0738  -16.5932   20.0988 C   0  0  0  0  0  0  0  0  0  0  0  0
    8.4710  -15.9512   21.4123 C   0  0  0  0  0  0  0  0  0  0  0  0
    8.9826  -16.9860   22.3890 C   0  0  2  0  0  0  0  0  0  0  0  0
    7.8672  -17.7628   22.8501 N   0  0  0  0  0  0  0  0  0  0  0  0
    9.5572  -16.2320   23.5592 C   0  0  0  0  0  0  0  0  0  0  0  0
    9.9615  -15.0577   23.3765 O   0  0  0  0  0  0  0  0  0  0  0  0
    9.1705  -11.9016   19.7400 N   0  0  0  0  0  0  0  0  0  0  0  0
    9.6544  -16.7989   24.8411 C   0  0  1  0  0  0  0  0  0  0  0  0
   10.4362  -16.2118   25.9445 C   0  0  0  0  0  0  0  0  0  0  0  0
   10.0598  -14.7972   26.1654 C   0  0  0  0  0  0  0  0  0  0  0  0
    8.6055  -14.6107   26.1988 C   0  0  0  0  0  0  0  0  0  0  0  0
    7.6554  -15.6335   26.1405 N   0  0  0  0  0  0  0  0  0  0  0  0
    6.4095  -15.1114   26.1480 C   0  0  0  0  0  0  0  0  0  0  0  0
    6.5094  -13.7646   26.2107 C   0  0  0  0  0  0  0  0  0  0  0  0
    5.5729  -12.7605   26.2614 C   0  0  0  0  0  0  0  0  0  0  0  0
    5.9360  -11.4237   26.3463 C   0  0  0  0  0  0  0  0  0  0  0  0
    7.2792  -11.1025   26.3802 C   0  0  0  0  0  0  0  0  0  0  0  0
    8.2082  -12.1123   26.3282 C   0  0  0  0  0  0  0  0  0  0  0  0
    7.8501  -13.4564   26.2422 C   0  0  0  0  0  0  0  0  0  0  0  0
   10.3646  -17.1169   27.0810 O   0  0  0  0  0  0  0  0  0  0  0  0
    9.6258  -18.1402   27.0447 O   0  0  0  0  0  0  0  0  0  0  0  0
  2  1  1  6
  3  2  1  0
  4  3  1  0
  5  4  2  0
  6 17  1  0
  6  2  1  0
  7  6  2  0
  8  4  1  0
  9 10  1  0
 10 12  1  0
 10 11  2  0
 12 13  1  0
 13 14  1  0
 14 15  1  0
 16 17  1  0
 16 15  1  6
 18 16  1  0
 19 18  2  0
 20 18  1  0
 21 20  1  0
 22 23  1  0
 21 22  1  1
 23 24  2  0
 25 24  1  0
 26 25  1  0
 27 26  2  0
 28 27  1  0
 29 30  1  0
 29 28  2  0
 30 31  2  0
 31 26  1  0
 31 23  1  0
 32 21  1  0
 32 34  1  0
 33 32  2  0
M  END
$$$$
