DRW.pdb
     RDKit          3D

 34 35  0  0  1  0  0  0  0  0999 V2000
   10.0031  -18.7644   20.0112 N   0  0  0  0  0  0  0  0  0  0  0  0
   11.2572  -18.0446   20.2665 C   0  0  1  0  0  0  0  0  0  0  0  0
   11.9772  -17.9338   18.9682 C   0  0  0  0  0  0  0  0  0  0  0  0
   12.4835  -19.2037   18.4509 C   0  0  0  0  0  0  0  0  0  0  0  0
   12.3206  -20.3382   18.9209 O   0  0  0  0  0  0  0  0  0  0  0  0
   10.9294  -16.7097   20.8681 C   0  0  0  0  0  0  0  0  0  0  0  0
   11.7700  -15.8263   21.0398 O   0  0  0  0  0  0  0  0  0  0  0  0
   13.2529  -19.1401   17.2727 O   0  0  0  0  0  0  0  0  0  0  0  0
    7.6140  -12.9832   16.5284 N   0  0  0  0  0  0  0  0  0  0  0  0
    8.3691  -14.0075   17.1620 C   0  0  0  0  0  0  0  0  0  0  0  0
    8.8410  -14.9938   16.4849 N   0  0  0  0  0  0  0  0  0  0  0  0
    8.5891  -13.9100   18.5772 N   0  0  0  0  0  0  0  0  0  0  0  0
    7.5765  -13.2004   19.3391 C   0  0  0  0  0  0  0  0  0  0  0  0
    7.9054  -13.3136   20.8139 C   0  0  0  0  0  0  0  0  0  0  0  0
    7.8739  -14.7787   21.1979 C   0  0  0  0  0  0  0  0  0  0  0  0
    9.1719  -15.1963   21.8515 C   0  0  2  0  0  0  0  0  0  0  0  0
    9.5961  -16.4350   21.2634 N   0  0  0  0  0  0  0  0  0  0  0  0
    8.8676  -15.4366   23.3067 C   0  0  0  0  0  0  0  0  0  0  0  0
    7.8669  -14.8718   23.8120 O   0  0  0  0  0  0  0  0  0  0  0  0
    9.3862  -15.7198   16.9792 N   0  0  0  0  0  0  0  0  0  0  0  0
    9.6647  -16.2681   24.1115 C   0  0  1  0  0  0  0  0  0  0  0  0
    9.9361  -16.0187   25.5389 C   0  0  0  0  0  0  0  0  0  0  0  0
    8.7407  -16.3074   26.3631 C   0  0  0  0  0  0  0  0  0  0  0  0
    7.6508  -15.3599   26.1073 C   0  0  0  0  0  0  0  0  0  0  0  0
    6.4327  -15.6708   25.4975 N   0  0  0  0  0  0  0  0  0  0  0  0
    5.6765  -14.5580   25.3760 C   0  0  0  0  0  0  0  0  0  0  0  0
    6.3637  -13.5143   25.8919 C   0  0  0  0  0  0  0  0  0  0  0  0
    6.0648  -12.1813   26.0393 C   0  0  0  0  0  0  0  0  0  0  0  0
    6.9499  -11.2936   26.6350 C   0  0  0  0  0  0  0  0  0  0  0  0
    8.1633  -11.7722   27.0897 C   0  0  0  0  0  0  0  0  0  0  0  0
    8.4541  -13.1056   26.9376 C   0  0  0  0  0  0  0  0  0  0  0  0
    7.5700  -14.0019   26.3396 C   0  0  0  0  0  0  0  0  0  0  0  0
   11.1776  -16.6918   25.8875 O   0  0  0  0  0  0  0  0  0  0  0  0
   11.8339  -17.3263   25.0152 O   0  0  0  0  0  0  0  0  0  0  0  0
  2  1  1  6
  3  2  1  0
  4  3  1  0
  5  4  2  0
  6 17  1  0
  6  2  1  0
  7  6  2  0
  8  4  1  0
  9 10  1  0
 10 12  1  0
 10 11  2  0
 12 13  1  0
 13 14  1  0
 14 15  1  0
 16 17  1  0
 16 15  1  6
 18 16  1  0
 19 18  2  0
 20 18  1  0
 21 20  1  0
 22 23  1  0
 21 22  1  1
 23 24  2  0
 25 24  1  0
 26 25  1  0
 27 26  2  0
 28 27  1  0
 29 30  1  0
 29 28  2  0
 30 31  2  0
 31 26  1  0
 31 23  1  0
 32 21  1  0
 32 34  1  0
 33 32  2  0
M  END
$$$$
