DRW.pdb
     RDKit          3D

 34 35  0  0  1  0  0  0  0  0999 V2000
    7.9295  -16.4053   18.8754 N   0  0  0  0  0  0  0  0  0  0  0  0
    8.7947  -15.4942   19.6352 C   0  0  1  0  0  0  0  0  0  0  0  0
    8.3488  -14.1059   19.3351 C   0  0  0  0  0  0  0  0  0  0  0  0
    8.6310  -13.6653   17.9703 C   0  0  0  0  0  0  0  0  0  0  0  0
    9.1386  -14.3177   17.0476 O   0  0  0  0  0  0  0  0  0  0  0  0
    8.6912  -15.8386   21.0919 C   0  0  0  0  0  0  0  0  0  0  0  0
    7.6297  -15.8059   21.7155 O   0  0  0  0  0  0  0  0  0  0  0  0
    8.2868  -12.3362   17.6554 O   0  0  0  0  0  0  0  0  0  0  0  0
   14.9124  -14.7650   21.3772 N   0  0  0  0  0  0  0  0  0  0  0  0
   14.3701  -14.9607   20.0778 C   0  0  0  0  0  0  0  0  0  0  0  0
   14.4254  -14.0292   19.1929 N   0  0  0  0  0  0  0  0  0  0  0  0
   13.7595  -16.2259   19.7823 N   0  0  0  0  0  0  0  0  0  0  0  0
   13.2232  -16.9622   20.9135 C   0  0  0  0  0  0  0  0  0  0  0  0
   11.7821  -17.3273   20.6204 C   0  0  0  0  0  0  0  0  0  0  0  0
   11.2576  -18.1588   21.7730 C   0  0  0  0  0  0  0  0  0  0  0  0
   10.0458  -17.5098   22.4029 C   0  0  2  0  0  0  0  0  0  0  0  0
    9.8585  -16.2209   21.7996 N   0  0  0  0  0  0  0  0  0  0  0  0
   10.3670  -17.3136   23.8611 C   0  0  0  0  0  0  0  0  0  0  0  0
   10.7820  -18.2968   24.5219 O   0  0  0  0  0  0  0  0  0  0  0  0
   13.9081  -14.1549   18.3067 N   0  0  0  0  0  0  0  0  0  0  0  0
   10.2171  -16.0716   24.5009 C   0  0  1  0  0  0  0  0  0  0  0  0
    9.8287  -15.9145   25.9143 C   0  0  0  0  0  0  0  0  0  0  0  0
    8.4469  -16.3955   26.1399 C   0  0  0  0  0  0  0  0  0  0  0  0
    7.4443  -15.3929   25.7648 C   0  0  0  0  0  0  0  0  0  0  0  0
    6.3519  -15.6147   24.9223 N   0  0  0  0  0  0  0  0  0  0  0  0
    5.6564  -14.4691   24.7519 C   0  0  0  0  0  0  0  0  0  0  0  0
    6.2610  -13.4908   25.4627 C   0  0  0  0  0  0  0  0  0  0  0  0
    5.9708  -12.1618   25.6557 C   0  0  0  0  0  0  0  0  0  0  0  0
    6.7517  -11.3519   26.4685 C   0  0  0  0  0  0  0  0  0  0  0  0
    7.8499  -11.9059   27.0972 C   0  0  0  0  0  0  0  0  0  0  0  0
    8.1330  -13.2347   26.8980 C   0  0  0  0  0  0  0  0  0  0  0  0
    7.3533  -14.0530   26.0825 C   0  0  0  0  0  0  0  0  0  0  0  0
   10.8854  -16.4793   26.7391 O   0  0  0  0  0  0  0  0  0  0  0  0
   10.8035  -16.4532   27.9989 O   0  0  0  0  0  0  0  0  0  0  0  0
  2  1  1  6
  3  2  1  0
  4  3  1  0
  5  4  2  0
  6 17  1  0
  6  2  1  0
  7  6  2  0
  8  4  1  0
  9 10  1  0
 10 12  1  0
 10 11  2  0
 12 13  1  0
 13 14  1  0
 14 15  1  0
 16 17  1  0
 16 15  1  6
 18 16  1  0
 19 18  2  0
 20 18  1  0
 21 20  1  0
 22 23  1  0
 21 22  1  1
 23 24  2  0
 25 24  1  0
 26 25  1  0
 27 26  2  0
 28 27  1  0
 29 30  1  0
 29 28  2  0
 30 31  2  0
 31 26  1  0
 31 23  1  0
 32 21  1  0
 32 34  1  0
 33 32  2  0
M  END
$$$$
