DRW.pdb
     RDKit          3D

 34 35  0  0  1  0  0  0  0  0999 V2000
   10.6483  -18.1945   19.8685 N   0  0  0  0  0  0  0  0  0  0  0  0
   11.7627  -17.6015   20.6184 C   0  0  1  0  0  0  0  0  0  0  0  0
   12.9069  -17.4620   19.6761 C   0  0  0  0  0  0  0  0  0  0  0  0
   13.0995  -18.6084   18.7900 C   0  0  0  0  0  0  0  0  0  0  0  0
   13.7492  -18.6576   17.7365 O   0  0  0  0  0  0  0  0  0  0  0  0
   11.3121  -16.2885   21.1878 C   0  0  0  0  0  0  0  0  0  0  0  0
   12.0943  -15.4350   21.6075 O   0  0  0  0  0  0  0  0  0  0  0  0
   12.4726  -19.8105   19.1726 O   0  0  0  0  0  0  0  0  0  0  0  0
    7.1729  -14.6952   15.7499 N   0  0  0  0  0  0  0  0  0  0  0  0
    8.0895  -13.9806   16.5683 C   0  0  0  0  0  0  0  0  0  0  0  0
    8.2036  -12.7033   16.4708 N   0  0  0  0  0  0  0  0  0  0  0  0
    8.8833  -14.7243   17.5051 N   0  0  0  0  0  0  0  0  0  0  0  0
    8.9000  -14.2296   18.8706 C   0  0  0  0  0  0  0  0  0  0  0  0
    7.9721  -15.0831   19.7112 C   0  0  0  0  0  0  0  0  0  0  0  0
    8.0136  -14.5703   21.1361 C   0  0  0  0  0  0  0  0  0  0  0  0
    9.3855  -14.7628   21.7422 C   0  0  2  0  0  0  0  0  0  0  0  0
    9.9258  -15.9999   21.2543 N   0  0  0  0  0  0  0  0  0  0  0  0
    9.1900  -14.8799   23.2309 C   0  0  0  0  0  0  0  0  0  0  0  0
    8.6392  -13.9309   23.8404 O   0  0  0  0  0  0  0  0  0  0  0  0
    8.8451  -12.2115   17.1151 N   0  0  0  0  0  0  0  0  0  0  0  0
    9.6030  -16.0116   23.9541 C   0  0  1  0  0  0  0  0  0  0  0  0
    9.3914  -16.1861   25.4026 C   0  0  0  0  0  0  0  0  0  0  0  0
    7.9879  -16.5583   25.6912 C   0  0  0  0  0  0  0  0  0  0  0  0
    7.1535  -15.3873   25.9799 C   0  0  0  0  0  0  0  0  0  0  0  0
    5.7607  -15.3917   26.0905 N   0  0  0  0  0  0  0  0  0  0  0  0
    5.3085  -14.1390   26.3168 C   0  0  0  0  0  0  0  0  0  0  0  0
    6.3691  -13.3017   26.3600 C   0  0  0  0  0  0  0  0  0  0  0  0
    6.4825  -11.9492   26.5740 C   0  0  0  0  0  0  0  0  0  0  0  0
    7.7148  -11.3113   26.5927 C   0  0  0  0  0  0  0  0  0  0  0  0
    8.8546  -12.0649   26.3894 C   0  0  0  0  0  0  0  0  0  0  0  0
    8.7319  -13.4158   26.1755 C   0  0  0  0  0  0  0  0  0  0  0  0
    7.4973  -14.0622   26.1548 C   0  0  0  0  0  0  0  0  0  0  0  0
   10.4409  -17.0554   25.9114 O   0  0  0  0  0  0  0  0  0  0  0  0
   11.0161  -17.8842   25.1521 O   0  0  0  0  0  0  0  0  0  0  0  0
  2  1  1  6
  3  2  1  0
  4  3  1  0
  5  4  2  0
  6 17  1  0
  6  2  1  0
  7  6  2  0
  8  4  1  0
  9 10  1  0
 10 12  1  0
 10 11  2  0
 12 13  1  0
 13 14  1  0
 14 15  1  0
 16 17  1  0
 16 15  1  6
 18 16  1  0
 19 18  2  0
 20 18  1  0
 21 20  1  0
 22 23  1  0
 21 22  1  1
 23 24  2  0
 25 24  1  0
 26 25  1  0
 27 26  2  0
 28 27  1  0
 29 30  1  0
 29 28  2  0
 30 31  2  0
 31 26  1  0
 31 23  1  0
 32 21  1  0
 32 34  1  0
 33 32  2  0
M  END
$$$$
