DRW.pdb
     RDKit          3D

 34 35  0  0  1  0  0  0  0  0999 V2000
    7.9033  -20.9374   20.9663 N   0  0  0  0  0  0  0  0  0  0  0  0
    7.6544  -19.9690   22.0416 C   0  0  1  0  0  0  0  0  0  0  0  0
    8.0201  -20.6281   23.3254 C   0  0  0  0  0  0  0  0  0  0  0  0
    7.1010  -21.6857   23.7418 C   0  0  0  0  0  0  0  0  0  0  0  0
    6.8985  -22.7790   23.1958 O   0  0  0  0  0  0  0  0  0  0  0  0
    8.4608  -18.7332   21.7695 C   0  0  0  0  0  0  0  0  0  0  0  0
    9.6380  -18.7657   21.4094 O   0  0  0  0  0  0  0  0  0  0  0  0
    6.3478  -21.4407   24.9067 O   0  0  0  0  0  0  0  0  0  0  0  0
    7.4614  -12.5026   16.6017 N   0  0  0  0  0  0  0  0  0  0  0  0
    7.9851  -13.8127   16.7751 C   0  0  0  0  0  0  0  0  0  0  0  0
    8.1081  -14.6116   15.7748 N   0  0  0  0  0  0  0  0  0  0  0  0
    8.3717  -14.2181   18.0968 N   0  0  0  0  0  0  0  0  0  0  0  0
    7.7903  -13.4683   19.1964 C   0  0  0  0  0  0  0  0  0  0  0  0
    8.3076  -14.0358   20.5027 C   0  0  0  0  0  0  0  0  0  0  0  0
    7.7399  -15.4298   20.6745 C   0  0  0  0  0  0  0  0  0  0  0  0
    8.5316  -16.2161   21.6950 C   0  0  2  0  0  0  0  0  0  0  0  0
    7.8565  -17.4609   21.9294 N   0  0  0  0  0  0  0  0  0  0  0  0
    8.5139  -15.4145   22.9697 C   0  0  0  0  0  0  0  0  0  0  0  0
    7.4057  -15.1448   23.4939 O   0  0  0  0  0  0  0  0  0  0  0  0
    8.5809  -15.5194   15.9195 N   0  0  0  0  0  0  0  0  0  0  0  0
    9.6924  -14.9615   23.5864 C   0  0  2  0  0  0  0  0  0  0  0  0
   10.0484  -15.2419   24.9893 C   0  0  0  0  0  0  0  0  0  0  0  0
    8.9682  -15.9917   25.6695 C   0  0  0  0  0  0  0  0  0  0  0  0
    7.7645  -15.1758   25.8607 C   0  0  0  0  0  0  0  0  0  0  0  0
    6.4500  -15.6184   25.6921 N   0  0  0  0  0  0  0  0  0  0  0  0
    5.5865  -14.6012   25.9033 C   0  0  0  0  0  0  0  0  0  0  0  0
    6.2969  -13.4924   26.2094 C   0  0  0  0  0  0  0  0  0  0  0  0
    5.9301  -12.2070   26.5274 C   0  0  0  0  0  0  0  0  0  0  0  0
    6.8690  -11.2311   26.8309 C   0  0  0  0  0  0  0  0  0  0  0  0
    8.2080  -11.5702   26.8104 C   0  0  0  0  0  0  0  0  0  0  0  0
    8.5657  -12.8569   26.4908 C   0  0  0  0  0  0  0  0  0  0  0  0
    7.6278  -13.8412   26.1843 C   0  0  0  0  0  0  0  0  0  0  0  0
   11.3862  -15.8127   25.0110 O   0  0  0  0  0  0  0  0  0  0  0  0
   11.9521  -16.0877   26.1057 O   0  0  0  0  0  0  0  0  0  0  0  0
  2  1  1  6
  3  2  1  0
  4  3  1  0
  5  4  2  0
  6 17  1  0
  6  2  1  0
  7  6  2  0
  8  4  1  0
  9 10  1  0
 10 12  1  0
 10 11  2  0
 12 13  1  0
 13 14  1  0
 14 15  1  0
 16 17  1  0
 16 15  1  6
 18 16  1  0
 19 18  2  0
 20 18  1  0
 21 20  1  0
 22 23  1  0
 21 22  1  6
 23 24  2  0
 25 24  1  0
 26 25  1  0
 27 26  2  0
 28 27  1  0
 29 30  1  0
 29 28  2  0
 30 31  2  0
 31 26  1  0
 31 23  1  0
 32 21  1  0
 32 34  1  0
 33 32  2  0
M  END
$$$$
