DRW.pdb
     RDKit          3D

 34 35  0  0  1  0  0  0  0  0999 V2000
   11.5049  -19.5891   20.4240 N   0  0  0  0  0  0  0  0  0  0  0  0
   10.5139  -19.4117   21.4929 C   0  0  1  0  0  0  0  0  0  0  0  0
   10.9707  -20.2166   22.6590 C   0  0  0  0  0  0  0  0  0  0  0  0
   12.2624  -19.8047   23.2052 C   0  0  0  0  0  0  0  0  0  0  0  0
   12.9823  -18.8664   22.8366 O   0  0  0  0  0  0  0  0  0  0  0  0
   10.4001  -17.9480   21.8025 C   0  0  0  0  0  0  0  0  0  0  0  0
   11.3535  -17.1714   21.7344 O   0  0  0  0  0  0  0  0  0  0  0  0
   12.7585  -20.5621   24.2844 O   0  0  0  0  0  0  0  0  0  0  0  0
    7.8764  -14.2586   17.3737 N   0  0  0  0  0  0  0  0  0  0  0  0
    7.7771  -13.0644   18.1385 C   0  0  0  0  0  0  0  0  0  0  0  0
    8.0025  -11.9173   17.6025 N   0  0  0  0  0  0  0  0  0  0  0  0
    7.4190  -13.1754   19.5242 N   0  0  0  0  0  0  0  0  0  0  0  0
    7.6530  -14.4656   20.1486 C   0  0  0  0  0  0  0  0  0  0  0  0
    7.1963  -14.4004   21.5919 C   0  0  0  0  0  0  0  0  0  0  0  0
    7.4253  -15.7573   22.2256 C   0  0  0  0  0  0  0  0  0  0  0  0
    8.9009  -16.0213   22.4242 C   0  0  2  0  0  0  0  0  0  0  0  0
    9.1454  -17.4167   22.1936 N   0  0  0  0  0  0  0  0  0  0  0  0
    9.2069  -15.7136   23.8663 C   0  0  0  0  0  0  0  0  0  0  0  0
    8.7828  -14.6372   24.3534 O   0  0  0  0  0  0  0  0  0  0  0  0
    7.9239  -11.0706   18.1903 N   0  0  0  0  0  0  0  0  0  0  0  0
    9.9482  -16.5886   24.6782 C   0  0  1  0  0  0  0  0  0  0  0  0
   10.2341  -16.3464   26.1040 C   0  0  0  0  0  0  0  0  0  0  0  0
    9.0313  -16.5863   26.9330 C   0  0  0  0  0  0  0  0  0  0  0  0
    7.9548  -15.6363   26.6335 C   0  0  0  0  0  0  0  0  0  0  0  0
    6.7025  -15.9686   26.1108 N   0  0  0  0  0  0  0  0  0  0  0  0
    5.9696  -14.8510   25.9141 C   0  0  0  0  0  0  0  0  0  0  0  0
    6.7059  -13.7830   26.2949 C   0  0  0  0  0  0  0  0  0  0  0  0
    6.4477  -12.4338   26.3240 C   0  0  0  0  0  0  0  0  0  0  0  0
    7.3814  -11.5191   26.7907 C   0  0  0  0  0  0  0  0  0  0  0  0
    8.6022  -11.9871   27.2367 C   0  0  0  0  0  0  0  0  0  0  0  0
    8.8520  -13.3369   27.2033 C   0  0  0  0  0  0  0  0  0  0  0  0
    7.9190  -14.2604   26.7351 C   0  0  0  0  0  0  0  0  0  0  0  0
   11.4497  -17.0664   26.4501 O   0  0  0  0  0  0  0  0  0  0  0  0
   11.8878  -17.0600   27.6343 O   0  0  0  0  0  0  0  0  0  0  0  0
  2  1  1  6
  3  2  1  0
  4  3  1  0
  5  4  2  0
  6 17  1  0
  6  2  1  0
  7  6  2  0
  8  4  1  0
  9 10  1  0
 10 12  1  0
 10 11  2  0
 12 13  1  0
 13 14  1  0
 14 15  1  0
 16 17  1  0
 16 15  1  1
 18 16  1  0
 19 18  2  0
 20 18  1  0
 21 20  1  0
 22 23  1  0
 21 22  1  1
 23 24  2  0
 25 24  1  0
 26 25  1  0
 27 26  2  0
 28 27  1  0
 29 30  1  0
 29 28  2  0
 30 31  2  0
 31 26  1  0
 31 23  1  0
 32 21  1  0
 32 34  1  0
 33 32  2  0
M  END
$$$$
