DRW.pdb
     RDKit          3D

 34 35  0  0  1  0  0  0  0  0999 V2000
    8.8717  -18.9686   20.1465 N   0  0  0  0  0  0  0  0  0  0  0  0
    9.8280  -18.5401   19.1180 C   0  0  1  0  0  0  0  0  0  0  0  0
    9.1942  -18.7854   17.7934 C   0  0  0  0  0  0  0  0  0  0  0  0
   10.0011  -18.3578   16.6521 C   0  0  0  0  0  0  0  0  0  0  0  0
   11.1409  -18.7304   16.3414 O   0  0  0  0  0  0  0  0  0  0  0  0
   10.1621  -17.0954   19.3467 C   0  0  0  0  0  0  0  0  0  0  0  0
   11.3092  -16.6527   19.2779 O   0  0  0  0  0  0  0  0  0  0  0  0
    9.4195  -17.4045   15.7935 O   0  0  0  0  0  0  0  0  0  0  0  0
    9.7101  -14.0748   15.4356 N   0  0  0  0  0  0  0  0  0  0  0  0
    8.3413  -14.2103   15.0772 C   0  0  0  0  0  0  0  0  0  0  0  0
    7.9950  -14.8870   14.0398 N   0  0  0  0  0  0  0  0  0  0  0  0
    7.3579  -13.5709   15.9048 N   0  0  0  0  0  0  0  0  0  0  0  0
    7.8436  -12.9691   17.1341 C   0  0  0  0  0  0  0  0  0  0  0  0
    8.7426  -13.9620   17.8427 C   0  0  0  0  0  0  0  0  0  0  0  0
    8.4225  -13.9224   19.3228 C   0  0  0  0  0  0  0  0  0  0  0  0
    9.3422  -14.8360   20.1014 C   0  0  2  0  0  0  0  0  0  0  0  0
    9.1224  -16.1833   19.6578 N   0  0  0  0  0  0  0  0  0  0  0  0
    8.9325  -14.7352   21.5471 C   0  0  0  0  0  0  0  0  0  0  0  0
    7.9113  -14.0649   21.8362 O   0  0  0  0  0  0  0  0  0  0  0  0
    6.9881  -15.0101   13.8406 N   0  0  0  0  0  0  0  0  0  0  0  0
    9.6538  -15.3640   22.5759 C   0  0  2  0  0  0  0  0  0  0  0  0
    9.3013  -15.2722   24.0044 C   0  0  0  0  0  0  0  0  0  0  0  0
    7.8446  -15.4474   24.2022 C   0  0  0  0  0  0  0  0  0  0  0  0
    7.3941  -14.9161   25.4929 C   0  0  0  0  0  0  0  0  0  0  0  0
    6.8675  -15.6737   26.5421 N   0  0  0  0  0  0  0  0  0  0  0  0
    6.5120  -14.8665   27.5654 C   0  0  0  0  0  0  0  0  0  0  0  0
    6.7909  -13.5893   27.2207 C   0  0  0  0  0  0  0  0  0  0  0  0
    6.6499  -12.3924   27.8805 C   0  0  0  0  0  0  0  0  0  0  0  0
    7.0398  -11.1898   27.3078 C   0  0  0  0  0  0  0  0  0  0  0  0
    7.5840  -11.2058   26.0382 C   0  0  0  0  0  0  0  0  0  0  0  0
    7.7204  -12.4064   25.3858 C   0  0  0  0  0  0  0  0  0  0  0  0
    7.3302  -13.6172   25.9551 C   0  0  0  0  0  0  0  0  0  0  0  0
   10.1955  -16.1459   24.7480 O   0  0  0  0  0  0  0  0  0  0  0  0
   10.8037  -17.0892   24.1694 O   0  0  0  0  0  0  0  0  0  0  0  0
  2  1  1  1
  3  2  1  0
  4  3  1  0
  5  4  2  0
  6 17  1  0
  6  2  1  0
  7  6  2  0
  8  4  1  0
  9 10  1  0
 10 12  1  0
 10 11  2  0
 12 13  1  0
 13 14  1  0
 14 15  1  0
 16 17  1  0
 16 15  1  6
 18 16  1  0
 19 18  2  0
 20 18  1  0
 21 20  1  0
 22 23  1  0
 21 22  1  6
 23 24  2  0
 25 24  1  0
 26 25  1  0
 27 26  2  0
 28 27  1  0
 29 30  1  0
 29 28  2  0
 30 31  2  0
 31 26  1  0
 31 23  1  0
 32 21  1  0
 32 34  1  0
 33 32  2  0
M  END
$$$$
