DRW.pdb
     RDKit          3D

 34 35  0  0  1  0  0  0  0  0999 V2000
   10.5500  -19.5841   20.5193 N   0  0  0  0  0  0  0  0  0  0  0  0
   11.7728  -18.8710   20.9097 C   0  0  1  0  0  0  0  0  0  0  0  0
   12.7186  -18.9520   19.7630 C   0  0  0  0  0  0  0  0  0  0  0  0
   12.6645  -20.2135   19.0265 C   0  0  0  0  0  0  0  0  0  0  0  0
   12.0052  -20.4764   18.0112 O   0  0  0  0  0  0  0  0  0  0  0  0
   11.4104  -17.4600   21.2691 C   0  0  0  0  0  0  0  0  0  0  0  0
   12.2502  -16.5907   21.5048 O   0  0  0  0  0  0  0  0  0  0  0  0
   13.4564  -21.2664   19.5250 O   0  0  0  0  0  0  0  0  0  0  0  0
    8.1603  -12.1116   17.6136 N   0  0  0  0  0  0  0  0  0  0  0  0
    8.0895  -13.5135   17.3889 C   0  0  0  0  0  0  0  0  0  0  0  0
    8.5046  -14.0263   16.2850 N   0  0  0  0  0  0  0  0  0  0  0  0
    7.5419  -14.3392   18.4277 N   0  0  0  0  0  0  0  0  0  0  0  0
    7.0975  -13.6536   19.6284 C   0  0  0  0  0  0  0  0  0  0  0  0
    8.0502  -13.9819   20.7601 C   0  0  0  0  0  0  0  0  0  0  0  0
    8.5365  -15.4047   20.5756 C   0  0  0  0  0  0  0  0  0  0  0  0
    9.5843  -15.7579   21.6071 C   0  0  2  0  0  0  0  0  0  0  0  0
   10.0435  -17.0925   21.3462 N   0  0  0  0  0  0  0  0  0  0  0  0
    8.8973  -15.7413   22.9472 C   0  0  0  0  0  0  0  0  0  0  0  0
    7.9870  -14.9000   23.1447 O   0  0  0  0  0  0  0  0  0  0  0  0
    8.4787  -15.0537   16.1740 N   0  0  0  0  0  0  0  0  0  0  0  0
    9.2422  -16.6329   23.9770 C   0  0  1  0  0  0  0  0  0  0  0  0
   10.0446  -16.2592   25.1559 C   0  0  0  0  0  0  0  0  0  0  0  0
    9.7794  -14.8582   25.5540 C   0  0  0  0  0  0  0  0  0  0  0  0
    8.3471  -14.5939   25.7258 C   0  0  0  0  0  0  0  0  0  0  0  0
    7.3267  -15.5392   25.5941 N   0  0  0  0  0  0  0  0  0  0  0  0
    6.1233  -14.9520   25.7727 C   0  0  0  0  0  0  0  0  0  0  0  0
    6.3203  -13.6377   26.0211 C   0  0  0  0  0  0  0  0  0  0  0  0
    5.4611  -12.5992   26.2881 C   0  0  0  0  0  0  0  0  0  0  0  0
    5.9208  -11.3135   26.5366 C   0  0  0  0  0  0  0  0  0  0  0  0
    7.2822  -11.0802   26.5129 C   0  0  0  0  0  0  0  0  0  0  0  0
    8.1335  -12.1236   26.2444 C   0  0  0  0  0  0  0  0  0  0  0  0
    7.6781  -13.4167   25.9933 C   0  0  0  0  0  0  0  0  0  0  0  0
    9.8750  -17.2934   26.1647 O   0  0  0  0  0  0  0  0  0  0  0  0
   10.4815  -17.2217   27.2698 O   0  0  0  0  0  0  0  0  0  0  0  0
  2  1  1  6
  3  2  1  0
  4  3  1  0
  5  4  2  0
  6 17  1  0
  6  2  1  0
  7  6  2  0
  8  4  1  0
  9 10  1  0
 10 12  1  0
 10 11  2  0
 12 13  1  0
 13 14  1  0
 14 15  1  0
 16 17  1  0
 16 15  1  6
 18 16  1  0
 19 18  2  0
 20 18  1  0
 21 20  1  0
 22 23  1  0
 21 22  1  1
 23 24  2  0
 25 24  1  0
 26 25  1  0
 27 26  2  0
 28 27  1  0
 29 30  1  0
 29 28  2  0
 30 31  2  0
 31 26  1  0
 31 23  1  0
 32 21  1  0
 32 34  1  0
 33 32  2  0
M  END
$$$$
