DRW.pdb
     RDKit          3D

 34 35  0  0  1  0  0  0  0  0999 V2000
    9.8056  -13.6061   18.3987 N   0  0  0  0  0  0  0  0  0  0  0  0
    8.5607  -14.1559   18.9499 C   0  0  1  0  0  0  0  0  0  0  0  0
    7.7384  -14.6287   17.8025 C   0  0  0  0  0  0  0  0  0  0  0  0
    8.1103  -14.0449   16.5150 C   0  0  0  0  0  0  0  0  0  0  0  0
    7.5410  -13.1345   15.8973 O   0  0  0  0  0  0  0  0  0  0  0  0
    8.9067  -15.2542   19.9119 C   0  0  0  0  0  0  0  0  0  0  0  0
    8.0596  -15.9753   20.4401 O   0  0  0  0  0  0  0  0  0  0  0  0
    9.2563  -14.5764   15.8918 O   0  0  0  0  0  0  0  0  0  0  0  0
   15.7146  -14.9972   19.6309 N   0  0  0  0  0  0  0  0  0  0  0  0
   15.0819  -14.5515   18.4385 C   0  0  0  0  0  0  0  0  0  0  0  0
   15.6996  -13.7849   17.6110 N   0  0  0  0  0  0  0  0  0  0  0  0
   13.7356  -14.9805   18.1850 N   0  0  0  0  0  0  0  0  0  0  0  0
   13.3433  -16.2503   18.7706 C   0  0  0  0  0  0  0  0  0  0  0  0
   12.9703  -16.0251   20.2219 C   0  0  0  0  0  0  0  0  0  0  0  0
   11.9854  -17.1002   20.6329 C   0  0  0  0  0  0  0  0  0  0  0  0
   10.7081  -16.4909   21.1657 C   0  0  2  0  0  0  0  0  0  0  0  0
   10.2660  -15.4868   20.2402 N   0  0  0  0  0  0  0  0  0  0  0  0
   11.0571  -15.8207   22.4684 C   0  0  0  0  0  0  0  0  0  0  0  0
   11.6221  -14.7003   22.4346 O   0  0  0  0  0  0  0  0  0  0  0  0
   16.6559  -13.4697   17.8451 N   0  0  0  0  0  0  0  0  0  0  0  0
   10.7720  -16.4076   23.7129 C   0  0  1  0  0  0  0  0  0  0  0  0
    9.8099  -15.8546   24.6835 C   0  0  0  0  0  0  0  0  0  0  0  0
    8.5720  -15.4080   24.0056 C   0  0  0  0  0  0  0  0  0  0  0  0
    7.5931  -14.8570   24.9487 C   0  0  0  0  0  0  0  0  0  0  0  0
    6.5352  -15.5648   25.5249 N   0  0  0  0  0  0  0  0  0  0  0  0
    5.8010  -14.7460   26.3095 C   0  0  0  0  0  0  0  0  0  0  0  0
    6.3472  -13.5100   26.2687 C   0  0  0  0  0  0  0  0  0  0  0  0
    6.0204  -12.3244   26.8816 C   0  0  0  0  0  0  0  0  0  0  0  0
    6.7684  -11.1710   26.6915 C   0  0  0  0  0  0  0  0  0  0  0  0
    7.8710  -11.2252   25.8610 C   0  0  0  0  0  0  0  0  0  0  0  0
    8.1898  -12.4140   25.2521 C   0  0  0  0  0  0  0  0  0  0  0  0
    7.4423  -13.5755   25.4382 C   0  0  0  0  0  0  0  0  0  0  0  0
    9.6778  -16.8021   25.7792 O   0  0  0  0  0  0  0  0  0  0  0  0
    9.6245  -18.0436   25.5551 O   0  0  0  0  0  0  0  0  0  0  0  0
  2  1  1  6
  3  2  1  0
  4  3  1  0
  5  4  2  0
  6 17  1  0
  6  2  1  0
  7  6  2  0
  8  4  1  0
  9 10  1  0
 10 12  1  0
 10 11  2  0
 12 13  1  0
 13 14  1  0
 14 15  1  0
 16 17  1  0
 16 15  1  6
 18 16  1  0
 19 18  2  0
 20 18  1  0
 21 20  1  0
 22 23  1  0
 21 22  1  1
 23 24  2  0
 25 24  1  0
 26 25  1  0
 27 26  2  0
 28 27  1  0
 29 30  1  0
 29 28  2  0
 30 31  2  0
 31 26  1  0
 31 23  1  0
 32 21  1  0
 32 34  1  0
 33 32  2  0
M  END
$$$$
