SMQ.pdb
     RDKit          3D

 24 23  0  0  1  0  0  0  0  0999 V2000
    7.7429  -17.9906   20.5190 O   0  0  0  0  0  0  0  0  0  0  0  0
    6.7619  -17.0523   20.1737 C   0  0  0  0  0  0  0  0  0  0  0  0
    7.3446  -15.6820   19.9772 C   0  0  2  0  0  0  0  0  0  0  0  0
    8.2024  -15.7050   18.8182 N   0  0  0  0  0  0  0  0  0  0  0  0
    8.0865  -15.2171   21.1856 C   0  0  0  0  0  0  0  0  0  0  0  0
    9.3492  -15.2352   21.1554 O   0  0  0  0  0  0  0  0  0  0  0  0
    7.1198  -11.4129   28.0547 C   0  0  0  0  0  0  0  0  0  0  0  0
    6.4643  -12.1722   26.5656 S   0  0  0  0  0  0  0  0  0  0  0  0
    7.7525  -13.1125   25.6645 C   0  0  0  0  0  0  0  0  0  0  0  0
    7.1334  -13.5924   24.3928 C   0  0  0  0  0  0  0  0  0  0  0  0
    8.0912  -14.3751   23.5230 C   0  0  2  0  0  0  0  0  0  0  0  0
    7.3610  -14.7713   22.3259 N   0  0  0  0  0  0  0  0  0  0  0  0
    8.5149  -15.5791   24.3037 C   0  0  0  0  0  0  0  0  0  0  0  0
    7.7760  -16.6218   24.3432 O   0  0  0  0  0  0  0  0  0  0  0  0
   14.2684  -17.6014   24.0341 N   0  0  0  0  0  0  0  0  0  0  0  0
   13.6659  -18.5138   24.9237 C   0  0  0  0  0  0  0  0  0  0  0  0
   14.2938  -19.5148   25.3225 O   0  0  0  0  0  0  0  0  0  0  0  0
   12.2587  -18.3373   25.4336 C   0  0  0  0  0  0  0  0  0  0  0  0
   11.6557  -17.0743   24.8873 C   0  0  0  0  0  0  0  0  0  0  0  0
   10.2992  -16.8442   25.4370 C   0  0  2  0  0  0  0  0  0  0  0  0
    9.7451  -15.5670   25.0064 N   0  0  0  0  0  0  0  0  0  0  0  0
   10.2944  -16.9068   26.9083 C   0  0  0  0  0  0  0  0  0  0  0  0
   10.0875  -15.9710   27.6957 O   0  0  0  0  0  0  0  0  0  0  0  0
   10.5511  -18.1587   27.5087 O   0  0  0  0  0  0  0  0  0  0  0  0
  2  1  1  0
  3  2  1  0
  3  4  1  6
  5  6  2  0
  5  3  1  0
  7  8  1  0
  8  9  1  0
  9 10  1  0
 11 10  1  1
 11 13  1  0
 11 12  1  0
 12  5  1  0
 13 21  1  0
 14 13  2  0
 16 15  1  0
 16 18  1  0
 17 16  2  0
 18 19  1  0
 20 19  1  1
 20 22  1  0
 21 20  1  0
 22 23  2  0
 22 24  1  0
M  END
$$$$
