SMQ.pdb
     RDKit          3D

 24 23  0  0  1  0  0  0  0  0999 V2000
    7.3690  -18.3744   20.5261 O   0  0  0  0  0  0  0  0  0  0  0  0
    6.5565  -17.2966   20.1518 C   0  0  0  0  0  0  0  0  0  0  0  0
    7.3573  -16.0466   19.9239 C   0  0  2  0  0  0  0  0  0  0  0  0
    8.2710  -16.2741   18.8317 N   0  0  0  0  0  0  0  0  0  0  0  0
    8.0864  -15.6237   21.1553 C   0  0  0  0  0  0  0  0  0  0  0  0
    9.3475  -15.6966   21.1578 O   0  0  0  0  0  0  0  0  0  0  0  0
    7.0205  -11.3589   27.7036 C   0  0  0  0  0  0  0  0  0  0  0  0
    6.3621  -12.3726   26.3759 S   0  0  0  0  0  0  0  0  0  0  0  0
    7.6837  -13.3176   25.5297 C   0  0  0  0  0  0  0  0  0  0  0  0
    7.0695  -13.9368   24.3171 C   0  0  0  0  0  0  0  0  0  0  0  0
    8.0726  -14.6559   23.4434 C   0  0  2  0  0  0  0  0  0  0  0  0
    7.3511  -15.1553   22.2801 N   0  0  0  0  0  0  0  0  0  0  0  0
    8.6261  -15.7904   24.2466 C   0  0  0  0  0  0  0  0  0  0  0  0
    7.9230  -16.8353   24.4668 O   0  0  0  0  0  0  0  0  0  0  0  0
   13.2276  -18.7796   23.1421 N   0  0  0  0  0  0  0  0  0  0  0  0
   13.2393  -19.1225   24.5093 C   0  0  0  0  0  0  0  0  0  0  0  0
   13.7982  -20.1693   24.8927 O   0  0  0  0  0  0  0  0  0  0  0  0
   12.5914  -18.2633   25.5646 C   0  0  0  0  0  0  0  0  0  0  0  0
   11.9712  -17.0444   24.9427 C   0  0  0  0  0  0  0  0  0  0  0  0
   10.5396  -16.9248   25.3049 C   0  0  2  0  0  0  0  0  0  0  0  0
    9.9405  -15.7092   24.7692 N   0  0  0  0  0  0  0  0  0  0  0  0
   10.3464  -16.9617   26.7644 C   0  0  0  0  0  0  0  0  0  0  0  0
   10.1445  -15.9960   27.5163 O   0  0  0  0  0  0  0  0  0  0  0  0
   10.3922  -18.2232   27.3967 O   0  0  0  0  0  0  0  0  0  0  0  0
  2  1  1  0
  3  2  1  0
  3  4  1  6
  5  6  2  0
  5  3  1  0
  7  8  1  0
  8  9  1  0
  9 10  1  0
 11 10  1  1
 11 13  1  0
 11 12  1  0
 12  5  1  0
 13 21  1  0
 14 13  2  0
 16 15  1  0
 16 18  1  0
 17 16  2  0
 18 19  1  0
 20 19  1  1
 20 22  1  0
 21 20  1  0
 22 23  2  0
 22 24  1  0
M  END
$$$$
