SMQ.pdb
     RDKit          3D

 24 23  0  0  1  0  0  0  0  0999 V2000
    8.1377  -14.8066   19.1300 O   0  0  0  0  0  0  0  0  0  0  0  0
    8.8290  -16.0221   19.2117 C   0  0  0  0  0  0  0  0  0  0  0  0
    8.5213  -16.7548   20.4862 C   0  0  2  0  0  0  0  0  0  0  0  0
    7.1091  -17.0440   20.5253 N   0  0  0  0  0  0  0  0  0  0  0  0
    8.9440  -15.9774   21.6878 C   0  0  0  0  0  0  0  0  0  0  0  0
   10.1539  -15.6254   21.7766 O   0  0  0  0  0  0  0  0  0  0  0  0
    6.1415  -11.3586   27.4046 C   0  0  0  0  0  0  0  0  0  0  0  0
    5.9011  -12.5327   26.0675 S   0  0  0  0  0  0  0  0  0  0  0  0
    7.4696  -13.3580   25.6043 C   0  0  0  0  0  0  0  0  0  0  0  0
    7.1788  -14.2108   24.4131 C   0  0  0  0  0  0  0  0  0  0  0  0
    8.4063  -14.8999   23.8609 C   0  0  2  0  0  0  0  0  0  0  0  0
    7.9851  -15.6572   22.6894 N   0  0  0  0  0  0  0  0  0  0  0  0
    8.9151  -15.8186   24.9265 C   0  0  0  0  0  0  0  0  0  0  0  0
    8.2101  -16.8090   25.3226 O   0  0  0  0  0  0  0  0  0  0  0  0
   14.3154  -15.4761   24.5869 N   0  0  0  0  0  0  0  0  0  0  0  0
   13.5983  -16.4545   23.8688 C   0  0  0  0  0  0  0  0  0  0  0  0
   13.9036  -16.7224   22.6898 O   0  0  0  0  0  0  0  0  0  0  0  0
   12.4460  -17.2173   24.4705 C   0  0  0  0  0  0  0  0  0  0  0  0
   12.2502  -16.8269   25.9081 C   0  0  0  0  0  0  0  0  0  0  0  0
   10.8122  -16.6868   26.2364 C   0  0  2  0  0  0  0  0  0  0  0  0
   10.1890  -15.5921   25.5038 N   0  0  0  0  0  0  0  0  0  0  0  0
   10.6044  -16.4879   27.6807 C   0  0  0  0  0  0  0  0  0  0  0  0
   10.9420  -17.2530   28.5968 O   0  0  0  0  0  0  0  0  0  0  0  0
    9.9516  -15.3043   28.0888 O   0  0  0  0  0  0  0  0  0  0  0  0
  2  1  1  0
  3  2  1  0
  3  4  1  1
  5  6  2  0
  5  3  1  0
  7  8  1  0
  8  9  1  0
  9 10  1  0
 11 10  1  1
 11 13  1  0
 11 12  1  0
 12  5  1  0
 13 21  1  0
 14 13  2  0
 16 15  1  0
 16 18  1  0
 17 16  2  0
 18 19  1  0
 20 19  1  1
 20 22  1  0
 21 20  1  0
 22 23  2  0
 22 24  1  0
M  END
$$$$
