SMQ.pdb
     RDKit          3D

 24 23  0  0  1  0  0  0  0  0999 V2000
    6.1899  -17.7100   18.9015 O   0  0  0  0  0  0  0  0  0  0  0  0
    6.7484  -17.1989   20.0800 C   0  0  0  0  0  0  0  0  0  0  0  0
    7.0094  -15.7232   19.9797 C   0  0  2  0  0  0  0  0  0  0  0  0
    7.6440  -15.4497   18.7140 N   0  0  0  0  0  0  0  0  0  0  0  0
    7.8416  -15.2296   21.1157 C   0  0  0  0  0  0  0  0  0  0  0  0
    9.0984  -15.3003   21.0109 O   0  0  0  0  0  0  0  0  0  0  0  0
    7.3850  -11.3211   27.9805 C   0  0  0  0  0  0  0  0  0  0  0  0
    6.6057  -12.1935   26.6183 S   0  0  0  0  0  0  0  0  0  0  0  0
    7.8369  -13.0843   25.5953 C   0  0  0  0  0  0  0  0  0  0  0  0
    7.1153  -13.5981   24.3927 C   0  0  0  0  0  0  0  0  0  0  0  0
    8.0178  -14.3297   23.4248 C   0  0  2  0  0  0  0  0  0  0  0  0
    7.2054  -14.6987   22.2728 N   0  0  0  0  0  0  0  0  0  0  0  0
    8.5216  -15.5513   24.1266 C   0  0  0  0  0  0  0  0  0  0  0  0
    7.7917  -16.5972   24.2168 O   0  0  0  0  0  0  0  0  0  0  0  0
   14.7741  -19.2865   24.2656 N   0  0  0  0  0  0  0  0  0  0  0  0
   13.7895  -18.3333   23.9352 C   0  0  0  0  0  0  0  0  0  0  0  0
   13.9483  -17.5745   22.9584 O   0  0  0  0  0  0  0  0  0  0  0  0
   12.5156  -18.1787   24.7255 C   0  0  0  0  0  0  0  0  0  0  0  0
   11.8226  -16.8965   24.3608 C   0  0  0  0  0  0  0  0  0  0  0  0
   10.4588  -16.8393   24.9369 C   0  0  2  0  0  0  0  0  0  0  0  0
    9.8184  -15.5524   24.6972 N   0  0  0  0  0  0  0  0  0  0  0  0
   10.4709  -17.1163   26.3832 C   0  0  0  0  0  0  0  0  0  0  0  0
   10.6332  -18.2167   26.9322 O   0  0  0  0  0  0  0  0  0  0  0  0
   10.2784  -16.0249   27.2580 O   0  0  0  0  0  0  0  0  0  0  0  0
  2  1  1  0
  3  2  1  0
  3  4  1  6
  5  6  2  0
  5  3  1  0
  7  8  1  0
  8  9  1  0
  9 10  1  0
 11 10  1  1
 11 13  1  0
 11 12  1  0
 12  5  1  0
 13 21  1  0
 14 13  2  0
 16 15  1  0
 16 18  1  0
 17 16  2  0
 18 19  1  0
 20 19  1  1
 20 22  1  0
 21 20  1  0
 22 23  2  0
 22 24  1  0
M  END
$$$$
