SMQ.pdb
     RDKit          3D

 24 23  0  0  1  0  0  0  0  0999 V2000
    7.9569  -18.1220   20.8855 O   0  0  0  0  0  0  0  0  0  0  0  0
    6.9904  -17.1811   20.5079 C   0  0  0  0  0  0  0  0  0  0  0  0
    7.5762  -15.8055   20.3654 C   0  0  2  0  0  0  0  0  0  0  0  0
    8.5034  -15.8087   19.2610 N   0  0  0  0  0  0  0  0  0  0  0  0
    8.2399  -15.3531   21.6230 C   0  0  0  0  0  0  0  0  0  0  0  0
    9.5000  -15.4140   21.6890 O   0  0  0  0  0  0  0  0  0  0  0  0
    6.7891  -11.4486   28.3605 C   0  0  0  0  0  0  0  0  0  0  0  0
    6.2465  -12.2200   26.8326 S   0  0  0  0  0  0  0  0  0  0  0  0
    7.6036  -13.1506   26.0277 C   0  0  0  0  0  0  0  0  0  0  0  0
    7.0740  -13.6559   24.7257 C   0  0  0  0  0  0  0  0  0  0  0  0
    8.1026  -14.4177   23.9205 C   0  0  2  0  0  0  0  0  0  0  0  0
    7.4460  -14.8712   22.7013 N   0  0  0  0  0  0  0  0  0  0  0  0
    8.5377  -15.5848   24.7494 C   0  0  0  0  0  0  0  0  0  0  0  0
    7.8075  -16.6310   24.8336 O   0  0  0  0  0  0  0  0  0  0  0  0
   13.5739  -17.3876   23.6025 N   0  0  0  0  0  0  0  0  0  0  0  0
   12.5493  -18.3557   23.6117 C   0  0  0  0  0  0  0  0  0  0  0  0
   12.5207  -19.2528   22.7460 O   0  0  0  0  0  0  0  0  0  0  0  0
   11.4525  -18.3631   24.6454 C   0  0  0  0  0  0  0  0  0  0  0  0
   11.5728  -17.1686   25.5486 C   0  0  0  0  0  0  0  0  0  0  0  0
   10.2506  -16.7574   26.0759 C   0  0  2  0  0  0  0  0  0  0  0  0
    9.7691  -15.5335   25.4483 N   0  0  0  0  0  0  0  0  0  0  0  0
   10.2838  -16.5760   27.5369 C   0  0  0  0  0  0  0  0  0  0  0  0
    9.9978  -15.5478   28.1691 O   0  0  0  0  0  0  0  0  0  0  0  0
   10.6819  -17.6796   28.3224 O   0  0  0  0  0  0  0  0  0  0  0  0
  2  1  1  0
  3  2  1  0
  3  4  1  6
  5  6  2  0
  5  3  1  0
  7  8  1  0
  8  9  1  0
  9 10  1  0
 11 10  1  1
 11 13  1  0
 11 12  1  0
 12  5  1  0
 13 21  1  0
 14 13  2  0
 16 15  1  0
 16 18  1  0
 17 16  2  0
 18 19  1  0
 20 19  1  6
 20 22  1  0
 21 20  1  0
 22 23  2  0
 22 24  1  0
M  END
$$$$
