SMQ.pdb
     RDKit          3D

 24 23  0  0  1  0  0  0  0  0999 V2000
    7.9091  -17.2625   20.2791 O   0  0  0  0  0  0  0  0  0  0  0  0
    6.8016  -16.4050   20.2777 C   0  0  0  0  0  0  0  0  0  0  0  0
    7.2019  -14.9758   20.5078 C   0  0  2  0  0  0  0  0  0  0  0  0
    8.0351  -14.5457   19.4123 N   0  0  0  0  0  0  0  0  0  0  0  0
    7.8996  -14.7997   21.8150 C   0  0  0  0  0  0  0  0  0  0  0  0
    9.1373  -14.5474   21.8027 O   0  0  0  0  0  0  0  0  0  0  0  0
    6.7692  -10.5673   26.7347 C   0  0  0  0  0  0  0  0  0  0  0  0
    7.3683  -12.2427   26.4940 S   0  0  0  0  0  0  0  0  0  0  0  0
    6.2258  -13.2244   25.4515 C   0  0  0  0  0  0  0  0  0  0  0  0
    6.7899  -14.6047   25.3662 C   0  0  0  0  0  0  0  0  0  0  0  0
    7.8510  -14.7489   24.2985 C   0  0  2  0  0  0  0  0  0  0  0  0
    7.1617  -14.9191   23.0261 N   0  0  0  0  0  0  0  0  0  0  0  0
    8.6508  -15.9688   24.6312 C   0  0  0  0  0  0  0  0  0  0  0  0
    8.1321  -17.1333   24.5334 O   0  0  0  0  0  0  0  0  0  0  0  0
   14.8588  -18.8820   23.8257 N   0  0  0  0  0  0  0  0  0  0  0  0
   13.4776  -18.7667   24.0829 C   0  0  0  0  0  0  0  0  0  0  0  0
   12.6442  -19.1666   23.2459 O   0  0  0  0  0  0  0  0  0  0  0  0
   12.9391  -18.1665   25.3562 C   0  0  0  0  0  0  0  0  0  0  0  0
   12.1872  -16.8992   25.0635 C   0  0  0  0  0  0  0  0  0  0  0  0
   10.7423  -17.0517   25.3533 C   0  0  2  0  0  0  0  0  0  0  0  0
    9.9950  -15.8358   25.0588 N   0  0  0  0  0  0  0  0  0  0  0  0
   10.5100  -17.4397   26.7549 C   0  0  0  0  0  0  0  0  0  0  0  0
    9.8915  -16.7958   27.6160 O   0  0  0  0  0  0  0  0  0  0  0  0
   11.0405  -18.6750   27.1862 O   0  0  0  0  0  0  0  0  0  0  0  0
  2  1  1  0
  3  2  1  0
  3  4  1  6
  5  6  2  0
  5  3  1  0
  7  8  1  0
  8  9  1  0
  9 10  1  0
 11 10  1  1
 11 13  1  0
 11 12  1  0
 12  5  1  0
 13 21  1  0
 14 13  2  0
 16 15  1  0
 16 18  1  0
 17 16  2  0
 18 19  1  0
 20 19  1  1
 20 22  1  0
 21 20  1  0
 22 23  2  0
 22 24  1  0
M  END
$$$$
