SMQ.pdb
     RDKit          3D

 24 23  0  0  1  0  0  0  0  0999 V2000
    7.8955  -17.5144   20.8529 O   0  0  0  0  0  0  0  0  0  0  0  0
    6.7449  -16.7232   20.7430 C   0  0  0  0  0  0  0  0  0  0  0  0
    7.0747  -15.2581   20.7228 C   0  0  2  0  0  0  0  0  0  0  0  0
    7.7363  -14.9489   19.4793 N   0  0  0  0  0  0  0  0  0  0  0  0
    7.9151  -14.8634   21.8911 C   0  0  0  0  0  0  0  0  0  0  0  0
    9.1540  -14.6989   21.7078 O   0  0  0  0  0  0  0  0  0  0  0  0
    7.1341  -11.6471   27.8657 C   0  0  0  0  0  0  0  0  0  0  0  0
    5.8976  -11.8098   26.5740 S   0  0  0  0  0  0  0  0  0  0  0  0
    6.6157  -12.4971   25.0353 C   0  0  0  0  0  0  0  0  0  0  0  0
    7.2277  -13.8129   25.3891 C   0  0  0  0  0  0  0  0  0  0  0  0
    8.1414  -14.3529   24.3120 C   0  0  2  0  0  0  0  0  0  0  0  0
    7.3063  -14.6851   23.1650 N   0  0  0  0  0  0  0  0  0  0  0  0
    8.7947  -15.5818   24.8610 C   0  0  0  0  0  0  0  0  0  0  0  0
    8.1574  -16.6890   24.9135 O   0  0  0  0  0  0  0  0  0  0  0  0
   14.2588  -15.5163   23.9058 N   0  0  0  0  0  0  0  0  0  0  0  0
   13.6527  -16.6737   23.3769 C   0  0  0  0  0  0  0  0  0  0  0  0
   14.0220  -17.1336   22.2781 O   0  0  0  0  0  0  0  0  0  0  0  0
   12.5472  -17.4071   24.0921 C   0  0  0  0  0  0  0  0  0  0  0  0
   12.2381  -16.7429   25.4038 C   0  0  0  0  0  0  0  0  0  0  0  0
   10.7851  -16.7718   25.6922 C   0  0  2  0  0  0  0  0  0  0  0  0
   10.1311  -15.5216   25.3276 N   0  0  0  0  0  0  0  0  0  0  0  0
   10.5213  -17.0645   27.1111 C   0  0  0  0  0  0  0  0  0  0  0  0
    9.8818  -16.3660   27.9121 O   0  0  0  0  0  0  0  0  0  0  0  0
   11.0441  -18.2658   27.6374 O   0  0  0  0  0  0  0  0  0  0  0  0
  2  1  1  0
  3  2  1  0
  3  4  1  6
  5  6  2  0
  5  3  1  0
  7  8  1  0
  8  9  1  0
  9 10  1  0
 11 10  1  1
 11 13  1  0
 11 12  1  0
 12  5  1  0
 13 21  1  0
 14 13  2  0
 16 15  1  0
 16 18  1  0
 17 16  2  0
 18 19  1  0
 20 19  1  1
 20 22  1  0
 21 20  1  0
 22 23  2  0
 22 24  1  0
M  END
$$$$
