SMQ.pdb
     RDKit          3D

 24 23  0  0  1  0  0  0  0  0999 V2000
    7.1265  -18.2220   21.5017 O   0  0  0  0  0  0  0  0  0  0  0  0
    7.7844  -17.6792   20.3906 C   0  0  0  0  0  0  0  0  0  0  0  0
    7.8150  -16.1783   20.4382 C   0  0  2  0  0  0  0  0  0  0  0  0
    8.5307  -15.6926   19.2844 N   0  0  0  0  0  0  0  0  0  0  0  0
    8.4294  -15.6767   21.7021 C   0  0  0  0  0  0  0  0  0  0  0  0
    9.6861  -15.7311   21.8184 O   0  0  0  0  0  0  0  0  0  0  0  0
    6.2028  -10.7043   25.9518 C   0  0  0  0  0  0  0  0  0  0  0  0
    6.2875  -12.3301   26.7092 S   0  0  0  0  0  0  0  0  0  0  0  0
    7.6491  -13.3326   26.0044 C   0  0  0  0  0  0  0  0  0  0  0  0
    7.1578  -13.8848   24.7064 C   0  0  0  0  0  0  0  0  0  0  0  0
    8.1983  -14.7041   23.9766 C   0  0  2  0  0  0  0  0  0  0  0  0
    7.5940  -15.1567   22.7303 N   0  0  0  0  0  0  0  0  0  0  0  0
    8.5370  -15.8698   24.8512 C   0  0  0  0  0  0  0  0  0  0  0  0
    7.7749  -16.8957   24.8917 O   0  0  0  0  0  0  0  0  0  0  0  0
   12.0687  -19.5049   23.5350 N   0  0  0  0  0  0  0  0  0  0  0  0
   12.3537  -19.7684   24.8901 C   0  0  0  0  0  0  0  0  0  0  0  0
   12.9004  -20.8384   25.2236 O   0  0  0  0  0  0  0  0  0  0  0  0
   12.0219  -18.7940   25.9909 C   0  0  0  0  0  0  0  0  0  0  0  0
   11.4571  -17.5251   25.4178 C   0  0  0  0  0  0  0  0  0  0  0  0
   10.2333  -17.1064   26.1403 C   0  0  2  0  0  0  0  0  0  0  0  0
    9.7117  -15.8400   25.6426 N   0  0  0  0  0  0  0  0  0  0  0  0
   10.4709  -17.0002   27.5898 C   0  0  0  0  0  0  0  0  0  0  0  0
   10.5208  -15.9607   28.2649 O   0  0  0  0  0  0  0  0  0  0  0  0
   10.6659  -18.1997   28.3084 O   0  0  0  0  0  0  0  0  0  0  0  0
  2  1  1  0
  3  2  1  0
  3  4  1  6
  5  6  2  0
  5  3  1  0
  7  8  1  0
  8  9  1  0
  9 10  1  0
 11 10  1  1
 11 13  1  0
 11 12  1  0
 12  5  1  0
 13 21  1  0
 14 13  2  0
 16 15  1  0
 16 18  1  0
 17 16  2  0
 18 19  1  0
 20 19  1  6
 20 22  1  0
 21 20  1  0
 22 23  2  0
 22 24  1  0
M  END
$$$$
