SMQ.pdb
     RDKit          3D

 24 23  0  0  1  0  0  0  0  0999 V2000
    8.0132  -18.4890   20.5048 O   0  0  0  0  0  0  0  0  0  0  0  0
    6.8874  -17.6619   20.4026 C   0  0  0  0  0  0  0  0  0  0  0  0
    7.2679  -16.2262   20.1793 C   0  0  2  0  0  0  0  0  0  0  0  0
    8.0723  -16.1401   18.9856 N   0  0  0  0  0  0  0  0  0  0  0  0
    7.9879  -15.6548   21.3548 C   0  0  0  0  0  0  0  0  0  0  0  0
    9.2438  -15.5370   21.2870 O   0  0  0  0  0  0  0  0  0  0  0  0
    6.6063  -11.2087   27.7219 C   0  0  0  0  0  0  0  0  0  0  0  0
    6.0491  -12.3286   26.4339 S   0  0  0  0  0  0  0  0  0  0  0  0
    7.4582  -13.1271   25.5780 C   0  0  0  0  0  0  0  0  0  0  0  0
    6.8861  -13.9558   24.4749 C   0  0  0  0  0  0  0  0  0  0  0  0
    7.9423  -14.5938   23.6009 C   0  0  2  0  0  0  0  0  0  0  0  0
    7.2502  -15.2625   22.5069 N   0  0  0  0  0  0  0  0  0  0  0  0
    8.6749  -15.5877   24.4460 C   0  0  0  0  0  0  0  0  0  0  0  0
    8.1556  -16.7261   24.7088 O   0  0  0  0  0  0  0  0  0  0  0  0
   15.6751  -17.7165   24.6418 N   0  0  0  0  0  0  0  0  0  0  0  0
   14.6084  -16.7953   24.6206 C   0  0  0  0  0  0  0  0  0  0  0  0
   14.8038  -15.6109   24.2829 O   0  0  0  0  0  0  0  0  0  0  0  0
   13.2003  -17.1792   24.9966 C   0  0  0  0  0  0  0  0  0  0  0  0
   12.2668  -16.0196   24.7934 C   0  0  0  0  0  0  0  0  0  0  0  0
   10.8861  -16.3615   25.2079 C   0  0  2  0  0  0  0  0  0  0  0  0
    9.9553  -15.2676   24.9611 N   0  0  0  0  0  0  0  0  0  0  0  0
   10.8267  -16.7411   26.6295 C   0  0  0  0  0  0  0  0  0  0  0  0
   11.3557  -17.7285   27.1622 O   0  0  0  0  0  0  0  0  0  0  0  0
   10.0928  -15.9042   27.4980 O   0  0  0  0  0  0  0  0  0  0  0  0
  2  1  1  0
  3  2  1  0
  3  4  1  6
  5  6  2  0
  5  3  1  0
  7  8  1  0
  8  9  1  0
  9 10  1  0
 11 10  1  1
 11 13  1  0
 11 12  1  0
 12  5  1  0
 13 21  1  0
 14 13  2  0
 16 15  1  0
 16 18  1  0
 17 16  2  0
 18 19  1  0
 20 19  1  1
 20 22  1  0
 21 20  1  0
 22 23  2  0
 22 24  1  0
M  END
$$$$
