SMQ.pdb
     RDKit          3D

 24 23  0  0  1  0  0  0  0  0999 V2000
    9.0432  -17.9003   20.9066 O   0  0  0  0  0  0  0  0  0  0  0  0
    8.0713  -17.0956   20.2984 C   0  0  0  0  0  0  0  0  0  0  0  0
    8.4503  -15.6426   20.3294 C   0  0  2  0  0  0  0  0  0  0  0  0
    9.5842  -15.4407   19.4617 N   0  0  0  0  0  0  0  0  0  0  0  0
    8.7451  -15.1766   21.7160 C   0  0  0  0  0  0  0  0  0  0  0  0
    9.9470  -14.9391   22.0239 O   0  0  0  0  0  0  0  0  0  0  0  0
    5.9152  -10.9736   25.8752 C   0  0  0  0  0  0  0  0  0  0  0  0
    7.3173  -12.0757   26.0837 S   0  0  0  0  0  0  0  0  0  0  0  0
    6.7992  -13.8328   26.0900 C   0  0  0  0  0  0  0  0  0  0  0  0
    6.6533  -14.2499   24.6632 C   0  0  0  0  0  0  0  0  0  0  0  0
    7.9743  -14.5608   23.9962 C   0  0  2  0  0  0  0  0  0  0  0  0
    7.6779  -15.0141   22.6434 N   0  0  0  0  0  0  0  0  0  0  0  0
    8.6231  -15.6528   24.7870 C   0  0  0  0  0  0  0  0  0  0  0  0
    8.2886  -16.8735   24.6064 O   0  0  0  0  0  0  0  0  0  0  0  0
   12.3634  -17.2787   30.9398 N   0  0  0  0  0  0  0  0  0  0  0  0
   11.6192  -16.5544   29.9866 C   0  0  0  0  0  0  0  0  0  0  0  0
   11.0932  -15.4655   30.2913 O   0  0  0  0  0  0  0  0  0  0  0  0
   11.4198  -17.0426   28.5747 C   0  0  0  0  0  0  0  0  0  0  0  0
   10.9668  -15.9174   27.6881 C   0  0  0  0  0  0  0  0  0  0  0  0
   10.1653  -16.4202   26.5480 C   0  0  2  0  0  0  0  0  0  0  0  0
    9.6172  -15.3346   25.7450 N   0  0  0  0  0  0  0  0  0  0  0  0
    9.0692  -17.2933   27.0010 C   0  0  0  0  0  0  0  0  0  0  0  0
    7.8741  -16.9871   27.1296 O   0  0  0  0  0  0  0  0  0  0  0  0
    9.3919  -18.6278   27.3301 O   0  0  0  0  0  0  0  0  0  0  0  0
  2  1  1  0
  3  2  1  0
  3  4  1  6
  5  6  2  0
  5  3  1  0
  7  8  1  0
  8  9  1  0
  9 10  1  0
 11 10  1  1
 11 13  1  0
 11 12  1  0
 12  5  1  0
 13 21  1  0
 14 13  2  0
 16 15  1  0
 16 18  1  0
 17 16  2  0
 18 19  1  0
 20 19  1  1
 20 22  1  0
 21 20  1  0
 22 23  2  0
 22 24  1  0
M  END
$$$$
