SMQ.pdb
     RDKit          3D

 24 23  0  0  1  0  0  0  0  0999 V2000
    8.2416  -14.7832   17.9273 O   0  0  0  0  0  0  0  0  0  0  0  0
    8.6384  -14.4121   19.2184 C   0  0  0  0  0  0  0  0  0  0  0  0
    8.4229  -15.5203   20.2089 C   0  0  2  0  0  0  0  0  0  0  0  0
    7.0336  -15.9056   20.1783 N   0  0  0  0  0  0  0  0  0  0  0  0
    8.8399  -15.1219   21.5851 C   0  0  0  0  0  0  0  0  0  0  0  0
   10.0705  -14.9453   21.8092 O   0  0  0  0  0  0  0  0  0  0  0  0
    6.6099  -10.6884   25.9474 C   0  0  0  0  0  0  0  0  0  0  0  0
    6.1764  -12.3188   26.5622 S   0  0  0  0  0  0  0  0  0  0  0  0
    7.4039  -13.5799   26.0537 C   0  0  0  0  0  0  0  0  0  0  0  0
    7.1484  -13.8818   24.6134 C   0  0  0  0  0  0  0  0  0  0  0  0
    8.2739  -14.6498   23.9578 C   0  0  2  0  0  0  0  0  0  0  0  0
    7.8527  -14.9536   22.5963 N   0  0  0  0  0  0  0  0  0  0  0  0
    8.4663  -15.9091   24.7425 C   0  0  0  0  0  0  0  0  0  0  0  0
    7.4881  -16.7085   24.9398 O   0  0  0  0  0  0  0  0  0  0  0  0
   12.7657  -18.8743   22.4174 N   0  0  0  0  0  0  0  0  0  0  0  0
   12.7474  -18.6400   23.8073 C   0  0  0  0  0  0  0  0  0  0  0  0
   13.5426  -19.2385   24.5588 O   0  0  0  0  0  0  0  0  0  0  0  0
   11.7870  -17.6742   24.4525 C   0  0  0  0  0  0  0  0  0  0  0  0
   10.8168  -18.4074   25.3348 C   0  0  0  0  0  0  0  0  0  0  0  0
    9.8895  -17.4699   26.0102 C   0  0  2  0  0  0  0  0  0  0  0  0
    9.7424  -16.2214   25.2731 N   0  0  0  0  0  0  0  0  0  0  0  0
   10.3252  -17.1756   27.3859 C   0  0  0  0  0  0  0  0  0  0  0  0
   10.6030  -16.0637   27.8603 O   0  0  0  0  0  0  0  0  0  0  0  0
   10.4466  -18.2630   28.2782 O   0  0  0  0  0  0  0  0  0  0  0  0
  2  1  1  0
  3  2  1  0
  3  4  1  1
  5  6  2  0
  5  3  1  0
  7  8  1  0
  8  9  1  0
  9 10  1  0
 11 10  1  1
 11 13  1  0
 11 12  1  0
 12  5  1  0
 13 21  1  0
 14 13  2  0
 16 15  1  0
 16 18  1  0
 17 16  2  0
 18 19  1  0
 20 19  1  6
 20 22  1  0
 21 20  1  0
 22 23  2  0
 22 24  1  0
M  END
$$$$
