SMQ.pdb
     RDKit          3D

 24 23  0  0  1  0  0  0  0  0999 V2000
    6.6161  -18.2671   19.3082 O   0  0  0  0  0  0  0  0  0  0  0  0
    6.8293  -17.5670   20.5025 C   0  0  0  0  0  0  0  0  0  0  0  0
    7.3018  -16.1638   20.2504 C   0  0  2  0  0  0  0  0  0  0  0  0
    8.1121  -16.1548   19.0575 N   0  0  0  0  0  0  0  0  0  0  0  0
    8.0552  -15.6153   21.4158 C   0  0  0  0  0  0  0  0  0  0  0  0
    9.3120  -15.5254   21.3264 O   0  0  0  0  0  0  0  0  0  0  0  0
    7.0603  -11.5381   28.1097 C   0  0  0  0  0  0  0  0  0  0  0  0
    6.4077  -12.4412   26.7017 S   0  0  0  0  0  0  0  0  0  0  0  0
    7.7263  -13.3522   25.8146 C   0  0  0  0  0  0  0  0  0  0  0  0
    7.1007  -13.9495   24.5969 C   0  0  0  0  0  0  0  0  0  0  0  0
    8.0900  -14.6808   23.7176 C   0  0  2  0  0  0  0  0  0  0  0  0
    7.3468  -15.2129   22.5828 N   0  0  0  0  0  0  0  0  0  0  0  0
    8.6709  -15.7918   24.5341 C   0  0  0  0  0  0  0  0  0  0  0  0
    7.9378  -16.7637   24.9250 O   0  0  0  0  0  0  0  0  0  0  0  0
   14.1581  -17.8389   22.7923 N   0  0  0  0  0  0  0  0  0  0  0  0
   12.7860  -17.8771   23.1127 C   0  0  0  0  0  0  0  0  0  0  0  0
   11.9306  -17.5542   22.2646 O   0  0  0  0  0  0  0  0  0  0  0  0
   12.2832  -18.3008   24.4688 C   0  0  0  0  0  0  0  0  0  0  0  0
   12.0345  -17.0997   25.3365 C   0  0  0  0  0  0  0  0  0  0  0  0
   10.5879  -16.9152   25.5979 C   0  0  2  0  0  0  0  0  0  0  0  0
   10.0449  -15.7698   24.8789 N   0  0  0  0  0  0  0  0  0  0  0  0
   10.3137  -16.7626   27.0367 C   0  0  0  0  0  0  0  0  0  0  0  0
    9.7613  -15.8023   27.5946 O   0  0  0  0  0  0  0  0  0  0  0  0
   10.7150  -17.8117   27.8921 O   0  0  0  0  0  0  0  0  0  0  0  0
  2  1  1  0
  3  2  1  0
  3  4  1  6
  5  6  2  0
  5  3  1  0
  7  8  1  0
  8  9  1  0
  9 10  1  0
 11 10  1  1
 11 13  1  0
 11 12  1  0
 12  5  1  0
 13 21  1  0
 14 13  2  0
 16 15  1  0
 16 18  1  0
 17 16  2  0
 18 19  1  0
 20 19  1  1
 20 22  1  0
 21 20  1  0
 22 23  2  0
 22 24  1  0
M  END
$$$$
