SMQ.pdb
     RDKit          3D

 24 23  0  0  1  0  0  0  0  0999 V2000
    7.0427  -17.1361   20.7565 O   0  0  0  0  0  0  0  0  0  0  0  0
    6.4369  -16.0065   20.1918 C   0  0  0  0  0  0  0  0  0  0  0  0
    7.3239  -14.7972   20.2747 C   0  0  2  0  0  0  0  0  0  0  0  0
    8.2654  -14.8373   19.1831 N   0  0  0  0  0  0  0  0  0  0  0  0
    8.0272  -14.7152   21.5882 C   0  0  0  0  0  0  0  0  0  0  0  0
    9.2376  -15.0727   21.6413 O   0  0  0  0  0  0  0  0  0  0  0  0
    6.5092  -10.5479   26.6772 C   0  0  0  0  0  0  0  0  0  0  0  0
    6.5456  -12.2311   27.3014 S   0  0  0  0  0  0  0  0  0  0  0  0
    7.6933  -13.2837   26.3368 C   0  0  0  0  0  0  0  0  0  0  0  0
    7.1229  -13.4051   24.9617 C   0  0  0  0  0  0  0  0  0  0  0  0
    8.0172  -14.1699   24.0120 C   0  0  2  0  0  0  0  0  0  0  0  0
    7.3248  -14.2424   22.7320 N   0  0  0  0  0  0  0  0  0  0  0  0
    8.2057  -15.5383   24.5868 C   0  0  0  0  0  0  0  0  0  0  0  0
    7.2493  -16.3869   24.5734 O   0  0  0  0  0  0  0  0  0  0  0  0
   12.1760  -18.5410   22.4875 N   0  0  0  0  0  0  0  0  0  0  0  0
   12.7463  -18.0732   23.6887 C   0  0  0  0  0  0  0  0  0  0  0  0
   13.9661  -17.8218   23.7524 O   0  0  0  0  0  0  0  0  0  0  0  0
   11.9335  -17.8542   24.9388 C   0  0  0  0  0  0  0  0  0  0  0  0
   10.4716  -18.0583   24.6583 C   0  0  0  0  0  0  0  0  0  0  0  0
    9.6300  -17.2774   25.5947 C   0  0  2  0  0  0  0  0  0  0  0  0
    9.4536  -15.9003   25.1516 N   0  0  0  0  0  0  0  0  0  0  0  0
   10.1885  -17.2837   26.9573 C   0  0  0  0  0  0  0  0  0  0  0  0
   10.5318  -16.2990   27.6289 O   0  0  0  0  0  0  0  0  0  0  0  0
   10.3604  -18.5361   27.5860 O   0  0  0  0  0  0  0  0  0  0  0  0
  2  1  1  0
  3  2  1  0
  3  4  1  6
  5  6  2  0
  5  3  1  0
  7  8  1  0
  8  9  1  0
  9 10  1  0
 11 10  1  1
 11 13  1  0
 11 12  1  0
 12  5  1  0
 13 21  1  0
 14 13  2  0
 16 15  1  0
 16 18  1  0
 17 16  2  0
 18 19  1  0
 20 19  1  6
 20 22  1  0
 21 20  1  0
 22 23  2  0
 22 24  1  0
M  END
$$$$
