TEL.pdb
     RDKit          3D

 25 24  0  0  1  0  0  0  0  0999 V2000
    8.5572  -12.2794   18.7911 C   0  0  0  0  0  0  0  0  0  0  0  0
    8.6957  -13.1131   20.0689 C   0  0  1  0  0  0  0  0  0  0  0  0
    8.1813  -12.3224   21.0947 O   0  0  0  0  0  0  0  0  0  0  0  0
    7.8567  -14.3446   19.8797 C   0  0  2  0  0  0  0  0  0  0  0  0
    6.5073  -14.0586   19.4425 N   0  0  0  0  0  0  0  0  0  0  0  0
    7.8660  -15.2205   21.0794 C   0  0  0  0  0  0  0  0  0  0  0  0
    6.8552  -15.3680   21.7813 O   0  0  0  0  0  0  0  0  0  0  0  0
    9.0324  -15.9230   21.4698 N   0  0  0  0  0  0  0  0  0  0  0  0
    9.1429  -16.8595   22.5109 C   0  0  1  0  0  0  0  0  0  0  0  0
   10.0893  -17.9757   22.3857 C   0  0  0  0  0  0  0  0  0  0  0  0
    9.8521  -18.9127   21.2238 C   0  0  0  0  0  0  0  0  0  0  0  0
   10.9004  -19.9343   21.1502 C   0  0  0  0  0  0  0  0  0  0  0  0
   11.5064  -20.2391   20.0946 O   0  0  0  0  0  0  0  0  0  0  0  0
    9.4708  -16.0798   23.7635 C   0  0  0  0  0  0  0  0  0  0  0  0
   10.6104  -15.5741   23.9276 O   0  0  0  0  0  0  0  0  0  0  0  0
   11.2525  -20.6113   22.3096 O   0  0  0  0  0  0  0  0  0  0  0  0
    8.7033  -12.1041   25.6081 C   0  0  0  0  0  0  0  0  0  0  0  0
    7.5879  -13.1201   25.6691 C   0  0  2  0  0  0  0  0  0  0  0  0
    6.3842  -12.3747   26.2661 C   0  0  0  0  0  0  0  0  0  0  0  0
    7.8506  -14.2868   26.5393 C   0  0  0  0  0  0  0  0  0  0  0  0
    8.8401  -15.2921   26.0764 C   0  0  2  0  0  0  0  0  0  0  0  0
    8.5222  -15.8814   24.8038 N   0  0  0  0  0  0  0  0  0  0  0  0
    9.2208  -16.2768   27.1085 C   0  0  0  0  0  0  0  0  0  0  0  0
    9.5748  -15.9066   28.2542 O   0  0  0  0  0  0  0  0  0  0  0  0
    9.2009  -17.6386   26.8502 O   0  0  0  0  0  0  0  0  0  0  0  0
  2  1  1  6
  2  3  1  0
  4  5  1  1
  4  2  1  0
  6  4  1  0
  7  6  2  0
  8  6  1  0
  9 14  1  0
  9  8  1  0
  9 10  1  6
 11 10  1  0
 12 11  1  0
 13 12  2  0
 14 22  1  0
 15 14  2  0
 16 12  1  0
 18 17  1  1
 19 18  1  0
 20 18  1  0
 21 20  1  1
 21 23  1  0
 22 21  1  0
 23 24  2  0
 23 25  1  0
M  END
$$$$
