TEL.pdb
     RDKit          3D

 25 24  0  0  1  0  0  0  0  0999 V2000
    9.0785  -12.1573   18.2924 C   0  0  0  0  0  0  0  0  0  0  0  0
    8.9448  -12.9848   19.5747 C   0  0  1  0  0  0  0  0  0  0  0  0
    7.8967  -12.4086   20.2899 O   0  0  0  0  0  0  0  0  0  0  0  0
    8.5927  -14.3839   19.1566 C   0  0  2  0  0  0  0  0  0  0  0  0
    7.4217  -14.4526   18.3093 N   0  0  0  0  0  0  0  0  0  0  0  0
    8.4803  -15.3053   20.3164 C   0  0  0  0  0  0  0  0  0  0  0  0
    7.3799  -15.7138   20.7145 O   0  0  0  0  0  0  0  0  0  0  0  0
    9.6279  -15.7543   21.0147 N   0  0  0  0  0  0  0  0  0  0  0  0
    9.6541  -16.5929   22.1413 C   0  0  1  0  0  0  0  0  0  0  0  0
   10.7482  -17.5595   22.3015 C   0  0  0  0  0  0  0  0  0  0  0  0
   10.6117  -18.8443   21.5174 C   0  0  0  0  0  0  0  0  0  0  0  0
   11.4548  -19.8994   22.0865 C   0  0  0  0  0  0  0  0  0  0  0  0
   11.0131  -20.9947   22.5103 O   0  0  0  0  0  0  0  0  0  0  0  0
    9.6172  -15.6920   23.3543 C   0  0  0  0  0  0  0  0  0  0  0  0
   10.4942  -14.8073   23.5265 O   0  0  0  0  0  0  0  0  0  0  0  0
   12.8241  -19.6864   22.1667 O   0  0  0  0  0  0  0  0  0  0  0  0
    6.0214  -12.2998   26.7479 C   0  0  0  0  0  0  0  0  0  0  0  0
    7.2912  -13.1161   26.7099 C   0  0  2  0  0  0  0  0  0  0  0  0
    8.4359  -12.0939   26.6349 C   0  0  0  0  0  0  0  0  0  0  0  0
    7.4279  -14.0071   25.5373 C   0  0  0  0  0  0  0  0  0  0  0  0
    8.5516  -14.9774   25.5272 C   0  0  2  0  0  0  0  0  0  0  0  0
    8.6048  -15.7971   24.3470 N   0  0  0  0  0  0  0  0  0  0  0  0
    8.6981  -15.7367   26.7850 C   0  0  0  0  0  0  0  0  0  0  0  0
    7.8760  -16.6318   27.0978 O   0  0  0  0  0  0  0  0  0  0  0  0
    9.7438  -15.4892   27.6608 O   0  0  0  0  0  0  0  0  0  0  0  0
  2  1  1  6
  2  3  1  0
  4  5  1  1
  4  2  1  0
  6  4  1  0
  7  6  2  0
  8  6  1  0
  9 14  1  0
  9  8  1  0
  9 10  1  1
 11 10  1  0
 12 11  1  0
 13 12  2  0
 14 22  1  0
 15 14  2  0
 16 12  1  0
 18 17  1  6
 19 18  1  0
 20 18  1  0
 21 20  1  1
 21 23  1  0
 22 21  1  0
 23 24  2  0
 23 25  1  0
M  END
$$$$
