TEL.pdb
     RDKit          3D

 25 24  0  0  1  0  0  0  0  0999 V2000
    8.9110  -12.5794   20.1600 C   0  0  0  0  0  0  0  0  0  0  0  0
    8.0556  -13.2007   19.0512 C   0  0  1  0  0  0  0  0  0  0  0  0
    8.2653  -12.4100   17.9230 O   0  0  0  0  0  0  0  0  0  0  0  0
    8.5763  -14.5915   18.8258 C   0  0  2  0  0  0  0  0  0  0  0  0
    7.9578  -15.2613   17.7022 N   0  0  0  0  0  0  0  0  0  0  0  0
    8.5128  -15.4213   20.0563 C   0  0  0  0  0  0  0  0  0  0  0  0
    7.4438  -15.9028   20.4582 O   0  0  0  0  0  0  0  0  0  0  0  0
    9.6734  -15.6957   20.8208 N   0  0  0  0  0  0  0  0  0  0  0  0
    9.7360  -16.4026   22.0330 C   0  0  1  0  0  0  0  0  0  0  0  0
   10.8997  -17.2519   22.3187 C   0  0  0  0  0  0  0  0  0  0  0  0
   11.1811  -18.3435   21.3118 C   0  0  0  0  0  0  0  0  0  0  0  0
   12.2773  -19.2050   21.7635 C   0  0  0  0  0  0  0  0  0  0  0  0
   13.4117  -19.2316   21.2278 O   0  0  0  0  0  0  0  0  0  0  0  0
    9.5933  -15.3821   23.1387 C   0  0  0  0  0  0  0  0  0  0  0  0
   10.1072  -14.2394   23.0309 O   0  0  0  0  0  0  0  0  0  0  0  0
   12.0603  -20.0454   22.8467 O   0  0  0  0  0  0  0  0  0  0  0  0
    7.6753  -13.0184   27.4939 C   0  0  0  0  0  0  0  0  0  0  0  0
    7.2186  -12.7131   26.0874 C   0  0  2  0  0  0  0  0  0  0  0  0
    5.6883  -12.5996   26.1667 C   0  0  0  0  0  0  0  0  0  0  0  0
    7.5245  -13.7601   25.0885 C   0  0  0  0  0  0  0  0  0  0  0  0
    8.6491  -14.6867   25.3731 C   0  0  2  0  0  0  0  0  0  0  0  0
    8.8819  -15.6577   24.3384 N   0  0  0  0  0  0  0  0  0  0  0  0
    8.6212  -15.2623   26.7325 C   0  0  0  0  0  0  0  0  0  0  0  0
    7.8444  -16.2057   27.0179 O   0  0  0  0  0  0  0  0  0  0  0  0
    9.4479  -14.7835   27.7370 O   0  0  0  0  0  0  0  0  0  0  0  0
  2  1  1  1
  2  3  1  0
  4  5  1  6
  4  2  1  0
  6  4  1  0
  7  6  2  0
  8  6  1  0
  9 14  1  0
  9  8  1  0
  9 10  1  1
 11 10  1  0
 12 11  1  0
 13 12  2  0
 14 22  1  0
 15 14  2  0
 16 12  1  0
 18 17  1  1
 19 18  1  0
 20 18  1  0
 21 20  1  6
 21 23  1  0
 22 21  1  0
 23 24  2  0
 23 25  1  0
M  END
$$$$
