TEL.pdb
     RDKit          3D

 25 24  0  0  1  0  0  0  0  0999 V2000
    9.1799  -12.7247   19.9287 C   0  0  0  0  0  0  0  0  0  0  0  0
    8.0584  -13.3564   19.0977 C   0  0  1  0  0  0  0  0  0  0  0  0
    8.1602  -12.7875   17.8296 O   0  0  0  0  0  0  0  0  0  0  0  0
    8.3365  -14.8313   19.0390 C   0  0  2  0  0  0  0  0  0  0  0  0
    7.5247  -15.5306   18.0665 N   0  0  0  0  0  0  0  0  0  0  0  0
    8.2556  -15.4718   20.3769 C   0  0  0  0  0  0  0  0  0  0  0  0
    7.1658  -15.7585   20.8927 O   0  0  0  0  0  0  0  0  0  0  0  0
    9.4228  -15.7808   21.1177 N   0  0  0  0  0  0  0  0  0  0  0  0
    9.4877  -16.4766   22.3362 C   0  0  1  0  0  0  0  0  0  0  0  0
   10.6004  -17.4023   22.5852 C   0  0  0  0  0  0  0  0  0  0  0  0
   10.9745  -18.3068   21.4336 C   0  0  0  0  0  0  0  0  0  0  0  0
   12.1008  -19.1739   21.7909 C   0  0  0  0  0  0  0  0  0  0  0  0
   13.1722  -19.2317   21.1403 O   0  0  0  0  0  0  0  0  0  0  0  0
    9.4637  -15.4362   23.4323 C   0  0  0  0  0  0  0  0  0  0  0  0
   10.3700  -14.5684   23.5165 O   0  0  0  0  0  0  0  0  0  0  0  0
   11.9879  -19.9832   22.9129 O   0  0  0  0  0  0  0  0  0  0  0  0
    5.9667  -11.7611   26.7426 C   0  0  0  0  0  0  0  0  0  0  0  0
    7.1874  -12.6499   26.7433 C   0  0  2  0  0  0  0  0  0  0  0  0
    8.3916  -11.6957   26.7292 C   0  0  0  0  0  0  0  0  0  0  0  0
    7.3199  -13.5327   25.5640 C   0  0  0  0  0  0  0  0  0  0  0  0
    8.4435  -14.5028   25.5432 C   0  0  2  0  0  0  0  0  0  0  0  0
    8.4314  -15.3862   24.4086 N   0  0  0  0  0  0  0  0  0  0  0  0
    8.6634  -15.1920   26.8303 C   0  0  0  0  0  0  0  0  0  0  0  0
    9.0789  -14.5653   27.8350 O   0  0  0  0  0  0  0  0  0  0  0  0
    8.4201  -16.5492   26.9740 O   0  0  0  0  0  0  0  0  0  0  0  0
  2  1  1  1
  2  3  1  0
  4  5  1  6
  4  2  1  0
  6  4  1  0
  7  6  2  0
  8  6  1  0
  9 14  1  0
  9  8  1  0
  9 10  1  6
 11 10  1  0
 12 11  1  0
 13 12  2  0
 14 22  1  0
 15 14  2  0
 16 12  1  0
 18 17  1  6
 19 18  1  0
 20 18  1  0
 21 20  1  1
 21 23  1  0
 22 21  1  0
 23 24  2  0
 23 25  1  0
M  END
$$$$
