TEL.pdb
     RDKit          3D

 25 24  0  0  1  0  0  0  0  0999 V2000
    9.0718  -12.6044   19.9054 C   0  0  0  0  0  0  0  0  0  0  0  0
    8.0125  -13.2569   19.0113 C   0  0  1  0  0  0  0  0  0  0  0  0
    8.1367  -12.6426   17.7666 O   0  0  0  0  0  0  0  0  0  0  0  0
    8.3590  -14.7155   18.9176 C   0  0  2  0  0  0  0  0  0  0  0  0
    7.6084  -15.4199   17.9006 N   0  0  0  0  0  0  0  0  0  0  0  0
    8.2685  -15.4000   20.2329 C   0  0  0  0  0  0  0  0  0  0  0  0
    7.1742  -15.6771   20.7447 O   0  0  0  0  0  0  0  0  0  0  0  0
    9.4310  -15.7638   20.9558 N   0  0  0  0  0  0  0  0  0  0  0  0
    9.4832  -16.4876   22.1584 C   0  0  1  0  0  0  0  0  0  0  0  0
   10.5903  -17.4232   22.3952 C   0  0  0  0  0  0  0  0  0  0  0  0
   10.7555  -18.5208   21.3694 C   0  0  0  0  0  0  0  0  0  0  0  0
   12.1604  -18.9204   21.2491 C   0  0  0  0  0  0  0  0  0  0  0  0
   12.7845  -18.9624   20.1613 O   0  0  0  0  0  0  0  0  0  0  0  0
    9.4540  -15.4726   23.2779 C   0  0  0  0  0  0  0  0  0  0  0  0
   10.2265  -14.4803   23.2679 O   0  0  0  0  0  0  0  0  0  0  0  0
   12.8522  -19.2755   22.3989 O   0  0  0  0  0  0  0  0  0  0  0  0
    5.8932  -12.2975   26.9333 C   0  0  0  0  0  0  0  0  0  0  0  0
    7.2703  -12.8817   26.7267 C   0  0  2  0  0  0  0  0  0  0  0  0
    8.1946  -11.6796   26.4788 C   0  0  0  0  0  0  0  0  0  0  0  0
    7.4014  -13.7778   25.5575 C   0  0  0  0  0  0  0  0  0  0  0  0
    8.5696  -14.6928   25.5089 C   0  0  2  0  0  0  0  0  0  0  0  0
    8.5654  -15.5859   24.3820 N   0  0  0  0  0  0  0  0  0  0  0  0
    8.8621  -15.3589   26.7937 C   0  0  0  0  0  0  0  0  0  0  0  0
    9.0229  -14.6918   27.8445 O   0  0  0  0  0  0  0  0  0  0  0  0
    8.9693  -16.7380   26.8847 O   0  0  0  0  0  0  0  0  0  0  0  0
  2  1  1  1
  2  3  1  0
  4  5  1  6
  4  2  1  0
  6  4  1  0
  7  6  2  0
  8  6  1  0
  9 14  1  0
  9  8  1  0
  9 10  1  6
 11 10  1  0
 12 11  1  0
 13 12  2  0
 14 22  1  0
 15 14  2  0
 16 12  1  0
 18 17  1  6
 19 18  1  0
 20 18  1  0
 21 20  1  1
 21 23  1  0
 22 21  1  0
 23 24  2  0
 23 25  1  0
M  END
$$$$
