TEL.pdb
     RDKit          3D

 25 24  0  0  1  0  0  0  0  0999 V2000
    8.9017  -12.3457   20.5552 C   0  0  0  0  0  0  0  0  0  0  0  0
    8.1165  -12.8871   19.3562 C   0  0  1  0  0  0  0  0  0  0  0  0
    8.4191  -12.0402   18.2916 O   0  0  0  0  0  0  0  0  0  0  0  0
    8.6280  -14.2741   19.0899 C   0  0  2  0  0  0  0  0  0  0  0  0
    8.1762  -14.8205   17.8285 N   0  0  0  0  0  0  0  0  0  0  0  0
    8.3488  -15.2016   20.2161 C   0  0  0  0  0  0  0  0  0  0  0  0
    7.2624  -15.7899   20.3164 O   0  0  0  0  0  0  0  0  0  0  0  0
    9.3143  -15.4511   21.2221 N   0  0  0  0  0  0  0  0  0  0  0  0
    9.2450  -16.4229   22.2339 C   0  0  1  0  0  0  0  0  0  0  0  0
   10.1405  -17.5861   22.1857 C   0  0  0  0  0  0  0  0  0  0  0  0
   11.5792  -17.2950   21.8256 C   0  0  0  0  0  0  0  0  0  0  0  0
   12.3564  -18.5333   21.7242 C   0  0  0  0  0  0  0  0  0  0  0  0
   12.6121  -19.1112   20.6401 O   0  0  0  0  0  0  0  0  0  0  0  0
    9.4534  -15.7005   23.5450 C   0  0  0  0  0  0  0  0  0  0  0  0
   10.4482  -14.9504   23.7161 O   0  0  0  0  0  0  0  0  0  0  0  0
   12.8439  -19.1104   22.8886 O   0  0  0  0  0  0  0  0  0  0  0  0
    8.3482  -12.0865   25.9814 C   0  0  0  0  0  0  0  0  0  0  0  0
    7.3194  -13.1727   25.7762 C   0  0  2  0  0  0  0  0  0  0  0  0
    6.0235  -12.6363   26.4038 C   0  0  0  0  0  0  0  0  0  0  0  0
    7.6242  -14.4577   26.4421 C   0  0  0  0  0  0  0  0  0  0  0  0
    8.7707  -15.2514   25.9325 C   0  0  2  0  0  0  0  0  0  0  0  0
    8.5495  -15.8300   24.6348 N   0  0  0  0  0  0  0  0  0  0  0  0
    9.3282  -16.1989   26.9181 C   0  0  0  0  0  0  0  0  0  0  0  0
    9.3889  -17.4274   26.6693 O   0  0  0  0  0  0  0  0  0  0  0  0
    9.8019  -15.7674   28.1473 O   0  0  0  0  0  0  0  0  0  0  0  0
  2  1  1  1
  2  3  1  0
  4  5  1  6
  4  2  1  0
  6  4  1  0
  7  6  2  0
  8  6  1  0
  9 14  1  0
  9  8  1  0
  9 10  1  6
 11 10  1  0
 12 11  1  0
 13 12  2  0
 14 22  1  0
 15 14  2  0
 16 12  1  0
 18 17  1  1
 19 18  1  0
 20 18  1  0
 21 20  1  1
 21 23  1  0
 22 21  1  0
 23 24  2  0
 23 25  1  0
M  END
$$$$
