TEL.pdb
     RDKit          3D

 25 24  0  0  1  0  0  0  0  0999 V2000
    8.6540  -12.5068   18.0744 C   0  0  0  0  0  0  0  0  0  0  0  0
    8.8032  -13.1388   19.4620 C   0  0  1  0  0  0  0  0  0  0  0  0
    7.9963  -12.3836   20.3110 O   0  0  0  0  0  0  0  0  0  0  0  0
    8.2891  -14.5463   19.3581 C   0  0  2  0  0  0  0  0  0  0  0  0
    6.9520  -14.6305   18.8111 N   0  0  0  0  0  0  0  0  0  0  0  0
    8.3980  -15.2806   20.6448 C   0  0  0  0  0  0  0  0  0  0  0  0
    7.4498  -15.3357   21.4412 O   0  0  0  0  0  0  0  0  0  0  0  0
    9.5917  -15.9480   21.0136 N   0  0  0  0  0  0  0  0  0  0  0  0
    9.7982  -16.7334   22.1597 C   0  0  1  0  0  0  0  0  0  0  0  0
   11.0232  -17.5347   22.2796 C   0  0  0  0  0  0  0  0  0  0  0  0
   11.1424  -18.3718   23.5324 C   0  0  0  0  0  0  0  0  0  0  0  0
   12.4156  -19.0970   23.5606 C   0  0  0  0  0  0  0  0  0  0  0  0
   12.5558  -20.2443   24.0491 O   0  0  0  0  0  0  0  0  0  0  0  0
    9.7059  -15.8023   23.3468 C   0  0  0  0  0  0  0  0  0  0  0  0
   10.4692  -14.8078   23.4461 O   0  0  0  0  0  0  0  0  0  0  0  0
   13.5396  -18.4899   23.0178 O   0  0  0  0  0  0  0  0  0  0  0  0
    5.9988  -12.6309   26.7509 C   0  0  0  0  0  0  0  0  0  0  0  0
    7.3302  -13.3422   26.7112 C   0  0  2  0  0  0  0  0  0  0  0  0
    8.3897  -12.2305   26.6616 C   0  0  0  0  0  0  0  0  0  0  0  0
    7.5465  -14.2005   25.5263 C   0  0  0  0  0  0  0  0  0  0  0  0
    8.6770  -15.1622   25.5602 C   0  0  2  0  0  0  0  0  0  0  0  0
    8.7661  -16.0002   24.3951 N   0  0  0  0  0  0  0  0  0  0  0  0
    8.7972  -15.9004   26.8333 C   0  0  0  0  0  0  0  0  0  0  0  0
    8.1683  -16.9701   27.0207 O   0  0  0  0  0  0  0  0  0  0  0  0
    9.6047  -15.4403   27.8619 O   0  0  0  0  0  0  0  0  0  0  0  0
  2  1  1  6
  2  3  1  0
  4  5  1  1
  4  2  1  0
  6  4  1  0
  7  6  2  0
  8  6  1  0
  9 14  1  0
  9  8  1  0
  9 10  1  6
 11 10  1  0
 12 11  1  0
 13 12  2  0
 14 22  1  0
 15 14  2  0
 16 12  1  0
 18 17  1  6
 19 18  1  0
 20 18  1  0
 21 20  1  1
 21 23  1  0
 22 21  1  0
 23 24  2  0
 23 25  1  0
M  END
$$$$
