TEL.pdb
     RDKit          3D

 25 24  0  0  1  0  0  0  0  0999 V2000
    8.8620  -12.4468   20.5326 C   0  0  0  0  0  0  0  0  0  0  0  0
    7.9211  -13.1270   19.5329 C   0  0  1  0  0  0  0  0  0  0  0  0
    8.0970  -12.4511   18.3269 O   0  0  0  0  0  0  0  0  0  0  0  0
    8.3731  -14.5541   19.4096 C   0  0  2  0  0  0  0  0  0  0  0  0
    7.7410  -15.2646   18.3189 N   0  0  0  0  0  0  0  0  0  0  0  0
    8.2445  -15.2966   20.6898 C   0  0  0  0  0  0  0  0  0  0  0  0
    7.1527  -15.7391   21.0749 O   0  0  0  0  0  0  0  0  0  0  0  0
    9.3663  -15.5288   21.5229 N   0  0  0  0  0  0  0  0  0  0  0  0
    9.4298  -16.3918   22.6293 C   0  0  1  0  0  0  0  0  0  0  0  0
   10.4624  -17.4351   22.6778 C   0  0  0  0  0  0  0  0  0  0  0  0
   10.4583  -18.4192   21.5307 C   0  0  0  0  0  0  0  0  0  0  0  0
   11.5376  -19.4000   21.6759 C   0  0  0  0  0  0  0  0  0  0  0  0
   12.1681  -19.8937   20.7099 O   0  0  0  0  0  0  0  0  0  0  0  0
    9.5615  -15.5175   23.8552 C   0  0  0  0  0  0  0  0  0  0  0  0
   10.6305  -14.8996   24.0938 O   0  0  0  0  0  0  0  0  0  0  0  0
   11.8926  -19.8150   22.9520 O   0  0  0  0  0  0  0  0  0  0  0  0
    7.8188  -11.7346   25.7976 C   0  0  0  0  0  0  0  0  0  0  0  0
    6.9497  -12.9691   25.8235 C   0  0  2  0  0  0  0  0  0  0  0  0
    5.6315  -12.5311   26.4801 C   0  0  0  0  0  0  0  0  0  0  0  0
    7.4814  -14.0924   26.6256 C   0  0  0  0  0  0  0  0  0  0  0  0
    8.6712  -14.8147   26.1093 C   0  0  2  0  0  0  0  0  0  0  0  0
    8.5000  -15.3516   24.7864 N   0  0  0  0  0  0  0  0  0  0  0  0
    9.2520  -15.7746   27.0693 C   0  0  0  0  0  0  0  0  0  0  0  0
    9.2915  -17.0019   26.8106 O   0  0  0  0  0  0  0  0  0  0  0  0
    9.7716  -15.3563   28.2845 O   0  0  0  0  0  0  0  0  0  0  0  0
  2  1  1  1
  2  3  1  0
  4  5  1  6
  4  2  1  0
  6  4  1  0
  7  6  2  0
  8  6  1  0
  9 14  1  0
  9  8  1  0
  9 10  1  6
 11 10  1  0
 12 11  1  0
 13 12  2  0
 14 22  1  0
 15 14  2  0
 16 12  1  0
 18 17  1  1
 19 18  1  0
 20 18  1  0
 21 20  1  1
 21 23  1  0
 22 21  1  0
 23 24  2  0
 23 25  1  0
M  END
$$$$
