TEL.pdb
     RDKit          3D

 25 24  0  0  1  0  0  0  0  0999 V2000
    8.0606  -13.0091   18.4661 C   0  0  0  0  0  0  0  0  0  0  0  0
    8.3759  -13.6229   19.8339 C   0  0  1  0  0  0  0  0  0  0  0  0
    7.5117  -13.0041   20.7351 O   0  0  0  0  0  0  0  0  0  0  0  0
    8.0728  -15.0907   19.7339 C   0  0  2  0  0  0  0  0  0  0  0  0
    6.7527  -15.3702   19.2113 N   0  0  0  0  0  0  0  0  0  0  0  0
    8.3126  -15.8024   21.0156 C   0  0  0  0  0  0  0  0  0  0  0  0
    7.3745  -16.1748   21.7349 O   0  0  0  0  0  0  0  0  0  0  0  0
    9.6252  -16.0841   21.4675 N   0  0  0  0  0  0  0  0  0  0  0  0
    9.9835  -16.8339   22.6000 C   0  0  1  0  0  0  0  0  0  0  0  0
   11.2226  -17.6224   22.5863 C   0  0  0  0  0  0  0  0  0  0  0  0
   12.2789  -17.1717   21.6037 C   0  0  0  0  0  0  0  0  0  0  0  0
   13.4550  -18.0444   21.6595 C   0  0  0  0  0  0  0  0  0  0  0  0
   14.4698  -17.8968   20.9364 O   0  0  0  0  0  0  0  0  0  0  0  0
   10.0318  -15.8690   23.7623 C   0  0  0  0  0  0  0  0  0  0  0  0
   10.3516  -14.6654   23.5874 O   0  0  0  0  0  0  0  0  0  0  0  0
   13.4586  -19.0996   22.5612 O   0  0  0  0  0  0  0  0  0  0  0  0
    6.3532  -12.8926   26.4610 C   0  0  0  0  0  0  0  0  0  0  0  0
    7.7058  -13.4973   26.7525 C   0  0  2  0  0  0  0  0  0  0  0  0
    8.6962  -12.3229   26.7265 C   0  0  0  0  0  0  0  0  0  0  0  0
    8.1778  -14.4847   25.7577 C   0  0  0  0  0  0  0  0  0  0  0  0
    9.3226  -15.3542   26.1287 C   0  0  2  0  0  0  0  0  0  0  0  0
    9.7229  -16.2667   25.0919 N   0  0  0  0  0  0  0  0  0  0  0  0
    9.1892  -15.9856   27.4567 C   0  0  0  0  0  0  0  0  0  0  0  0
    8.4619  -16.9950   27.6211 O   0  0  0  0  0  0  0  0  0  0  0  0
    9.8591  -15.4883   28.5638 O   0  0  0  0  0  0  0  0  0  0  0  0
  2  1  1  6
  2  3  1  0
  4  5  1  1
  4  2  1  0
  6  4  1  0
  7  6  2  0
  8  6  1  0
  9 14  1  0
  9  8  1  0
  9 10  1  6
 11 10  1  0
 12 11  1  0
 13 12  2  0
 14 22  1  0
 15 14  2  0
 16 12  1  0
 18 17  1  6
 19 18  1  0
 20 18  1  0
 21 20  1  6
 21 23  1  0
 22 21  1  0
 23 24  2  0
 23 25  1  0
M  END
$$$$
