TEL.pdb
     RDKit          3D

 25 24  0  0  1  0  0  0  0  0999 V2000
    8.7621  -12.2144   18.8282 C   0  0  0  0  0  0  0  0  0  0  0  0
    8.5782  -13.0682   20.0870 C   0  0  1  0  0  0  0  0  0  0  0  0
    7.3727  -12.6557   20.6516 O   0  0  0  0  0  0  0  0  0  0  0  0
    8.4883  -14.4979   19.6354 C   0  0  2  0  0  0  0  0  0  0  0  0
    7.4999  -14.7122   18.6004 N   0  0  0  0  0  0  0  0  0  0  0  0
    8.2980  -15.4351   20.7721 C   0  0  0  0  0  0  0  0  0  0  0  0
    7.2051  -15.9784   20.9874 O   0  0  0  0  0  0  0  0  0  0  0  0
    9.3598  -15.7456   21.6568 N   0  0  0  0  0  0  0  0  0  0  0  0
    9.3178  -16.6332   22.7446 C   0  0  1  0  0  0  0  0  0  0  0  0
   10.2009  -17.8067   22.7585 C   0  0  0  0  0  0  0  0  0  0  0  0
   11.2228  -17.8748   21.6471 C   0  0  0  0  0  0  0  0  0  0  0  0
   12.0208  -19.1005   21.7414 C   0  0  0  0  0  0  0  0  0  0  0  0
   12.1982  -19.8943   20.7859 O   0  0  0  0  0  0  0  0  0  0  0  0
    9.5785  -15.8114   23.9860 C   0  0  0  0  0  0  0  0  0  0  0  0
   10.6726  -15.2115   24.1433 O   0  0  0  0  0  0  0  0  0  0  0  0
   12.6207  -19.4125   22.9535 O   0  0  0  0  0  0  0  0  0  0  0  0
    8.4319  -11.8667   25.7916 C   0  0  0  0  0  0  0  0  0  0  0  0
    7.3839  -12.9523   25.8492 C   0  0  2  0  0  0  0  0  0  0  0  0
    6.1448  -12.2956   26.4772 C   0  0  0  0  0  0  0  0  0  0  0  0
    7.7329  -14.1155   26.6934 C   0  0  0  0  0  0  0  0  0  0  0  0
    8.8585  -14.9798   26.2571 C   0  0  2  0  0  0  0  0  0  0  0  0
    8.6153  -15.6767   25.0230 N   0  0  0  0  0  0  0  0  0  0  0  0
    9.4032  -15.8390   27.3271 C   0  0  0  0  0  0  0  0  0  0  0  0
    9.7769  -15.3492   28.4204 O   0  0  0  0  0  0  0  0  0  0  0  0
    9.5207  -17.2105   27.1631 O   0  0  0  0  0  0  0  0  0  0  0  0
  2  1  1  6
  2  3  1  0
  4  5  1  6
  4  2  1  0
  6  4  1  0
  7  6  2  0
  8  6  1  0
  9 14  1  0
  9  8  1  0
  9 10  1  6
 11 10  1  0
 12 11  1  0
 13 12  2  0
 14 22  1  0
 15 14  2  0
 16 12  1  0
 18 17  1  1
 19 18  1  0
 20 18  1  0
 21 20  1  1
 21 23  1  0
 22 21  1  0
 23 24  2  0
 23 25  1  0
M  END
$$$$
