TEL.pdb
     RDKit          3D

 25 24  0  0  1  0  0  0  0  0999 V2000
    9.2482  -12.4692   20.4842 C   0  0  0  0  0  0  0  0  0  0  0  0
    8.0556  -12.8616   19.6061 C   0  0  1  0  0  0  0  0  0  0  0  0
    8.2267  -12.1745   18.4058 O   0  0  0  0  0  0  0  0  0  0  0  0
    8.1464  -14.3443   19.3838 C   0  0  2  0  0  0  0  0  0  0  0  0
    7.2056  -14.8364   18.4006 N   0  0  0  0  0  0  0  0  0  0  0  0
    8.0562  -15.1093   20.6540 C   0  0  0  0  0  0  0  0  0  0  0  0
    6.9630  -15.4488   21.1292 O   0  0  0  0  0  0  0  0  0  0  0  0
    9.2179  -15.4818   21.3739 N   0  0  0  0  0  0  0  0  0  0  0  0
    9.2919  -16.3920   22.4412 C   0  0  1  0  0  0  0  0  0  0  0  0
   10.3201  -17.4407   22.4308 C   0  0  0  0  0  0  0  0  0  0  0  0
   10.3344  -18.3605   23.6301 C   0  0  0  0  0  0  0  0  0  0  0  0
   11.3288  -19.4243   23.4645 C   0  0  0  0  0  0  0  0  0  0  0  0
   12.0009  -19.9060   24.4084 O   0  0  0  0  0  0  0  0  0  0  0  0
    9.4437  -15.5720   23.7017 C   0  0  0  0  0  0  0  0  0  0  0  0
   10.4965  -14.9210   23.9237 O   0  0  0  0  0  0  0  0  0  0  0  0
   11.5490  -19.9377   22.1938 O   0  0  0  0  0  0  0  0  0  0  0  0
    7.9586  -11.7540   25.7004 C   0  0  0  0  0  0  0  0  0  0  0  0
    7.0108  -12.9278   25.6369 C   0  0  2  0  0  0  0  0  0  0  0  0
    5.6857  -12.4194   26.2255 C   0  0  0  0  0  0  0  0  0  0  0  0
    7.4169  -14.1045   26.4357 C   0  0  0  0  0  0  0  0  0  0  0  0
    8.5926  -14.8860   25.9761 C   0  0  2  0  0  0  0  0  0  0  0  0
    8.4200  -15.4960   24.6854 N   0  0  0  0  0  0  0  0  0  0  0  0
    9.1394  -15.8014   26.9974 C   0  0  0  0  0  0  0  0  0  0  0  0
    9.0990  -17.0453   26.8368 O   0  0  0  0  0  0  0  0  0  0  0  0
    9.7139  -15.3218   28.1642 O   0  0  0  0  0  0  0  0  0  0  0  0
  2  1  1  1
  2  3  1  0
  4  5  1  6
  4  2  1  0
  6  4  1  0
  7  6  2  0
  8  6  1  0
  9 14  1  0
  9  8  1  0
  9 10  1  6
 11 10  1  0
 12 11  1  0
 13 12  2  0
 14 22  1  0
 15 14  2  0
 16 12  1  0
 18 17  1  1
 19 18  1  0
 20 18  1  0
 21 20  1  1
 21 23  1  0
 22 21  1  0
 23 24  2  0
 23 25  1  0
M  END
$$$$
