TEL.pdb
     RDKit          3D

 25 24  0  0  1  0  0  0  0  0999 V2000
    9.1742  -12.6563   20.1757 C   0  0  0  0  0  0  0  0  0  0  0  0
    8.0129  -13.2676   19.3851 C   0  0  1  0  0  0  0  0  0  0  0  0
    8.0087  -12.6159   18.1533 O   0  0  0  0  0  0  0  0  0  0  0  0
    8.3244  -14.7265   19.2099 C   0  0  2  0  0  0  0  0  0  0  0  0
    7.4092  -15.4062   18.3187 N   0  0  0  0  0  0  0  0  0  0  0  0
    8.4453  -15.4351   20.5099 C   0  0  0  0  0  0  0  0  0  0  0  0
    7.4449  -15.8055   21.1410 O   0  0  0  0  0  0  0  0  0  0  0  0
    9.7107  -15.7161   21.0811 N   0  0  0  0  0  0  0  0  0  0  0  0
    9.9646  -16.4810   22.2315 C   0  0  1  0  0  0  0  0  0  0  0  0
   11.2317  -17.2141   22.3507 C   0  0  0  0  0  0  0  0  0  0  0  0
   11.3949  -18.0477   23.6009 C   0  0  0  0  0  0  0  0  0  0  0  0
   12.6785  -18.7550   23.5969 C   0  0  0  0  0  0  0  0  0  0  0  0
   13.1161  -19.4037   22.6160 O   0  0  0  0  0  0  0  0  0  0  0  0
    9.8275  -15.5480   23.4126 C   0  0  0  0  0  0  0  0  0  0  0  0
   10.6249  -14.5885   23.5713 O   0  0  0  0  0  0  0  0  0  0  0  0
   13.4656  -18.7120   24.7394 O   0  0  0  0  0  0  0  0  0  0  0  0
    8.3390  -12.5192   27.2252 C   0  0  0  0  0  0  0  0  0  0  0  0
    7.1298  -12.9713   26.4418 C   0  0  2  0  0  0  0  0  0  0  0  0
    6.2233  -13.6830   27.4580 C   0  0  0  0  0  0  0  0  0  0  0  0
    7.4109  -13.9390   25.3593 C   0  0  0  0  0  0  0  0  0  0  0  0
    8.6087  -14.8058   25.4938 C   0  0  2  0  0  0  0  0  0  0  0  0
    8.8061  -15.7048   24.3890 N   0  0  0  0  0  0  0  0  0  0  0  0
    8.7347  -15.4521   26.8153 C   0  0  0  0  0  0  0  0  0  0  0  0
    9.2439  -14.8415   27.7863 O   0  0  0  0  0  0  0  0  0  0  0  0
    8.2972  -16.7499   27.0296 O   0  0  0  0  0  0  0  0  0  0  0  0
  2  1  1  1
  2  3  1  0
  4  5  1  6
  4  2  1  0
  6  4  1  0
  7  6  2  0
  8  6  1  0
  9 14  1  0
  9  8  1  0
  9 10  1  6
 11 10  1  0
 12 11  1  0
 13 12  2  0
 14 22  1  0
 15 14  2  0
 16 12  1  0
 18 17  1  1
 19 18  1  0
 20 18  1  0
 21 20  1  6
 21 23  1  0
 22 21  1  0
 23 24  2  0
 23 25  1  0
M  END
$$$$
