FDL.pdb
     RDKit          3D

 28 28  0  0  1  0  0  0  0  0999 V2000
   28.7398  -20.8372   -8.6026 N   0  0  0  0  0  0  0  0  0  0  0  0
   27.3048  -20.8642   -8.4641 C   0  0  1  0  0  0  0  0  0  0  0  0
   26.9058  -19.7223   -7.5316 C   0  0  0  0  0  0  0  0  0  0  0  0
   27.6566  -19.7938   -6.2497 C   0  0  0  0  0  0  0  0  0  0  0  0
   27.4724  -20.9135   -5.4598 C   0  0  0  0  0  0  0  0  0  0  0  0
   28.1530  -21.0093   -4.2678 C   0  0  0  0  0  0  0  0  0  0  0  0
   28.9953  -19.9741   -3.9133 C   0  0  0  0  0  0  0  0  0  0  0  0
   29.1777  -18.8579   -4.7028 C   0  0  0  0  0  0  0  0  0  0  0  0
   28.4955  -18.7641   -5.8953 C   0  0  0  0  0  0  0  0  0  0  0  0
   26.6723  -20.5498   -9.7839 C   0  0  0  0  0  0  0  0  0  0  0  0
   27.0065  -19.5276  -10.4069 O   0  0  0  0  0  0  0  0  0  0  0  0
   25.6866  -21.4104  -10.3400 N   0  0  0  0  0  0  0  0  0  0  0  0
   25.1709  -21.1207  -11.6480 C   0  0  1  0  0  0  0  0  0  0  0  0
   25.6214  -22.1721  -12.6163 C   0  0  0  0  0  0  0  0  0  0  0  0
   25.8123  -21.6967  -13.9921 C   0  0  0  0  0  0  0  0  0  0  0  0
   24.9045  -21.2930  -14.7615 O   0  0  0  0  0  0  0  0  0  0  0  0
   23.6756  -21.0920  -11.6394 C   0  0  0  0  0  0  0  0  0  0  0  0
   23.0345  -21.3234  -10.5834 O   0  0  0  0  0  0  0  0  0  0  0  0
   27.1232  -21.6971  -14.4801 O   0  0  0  0  0  0  0  0  0  0  0  0
   19.9055  -16.9007  -12.9233 C   0  0  0  0  0  0  0  0  0  0  0  0
   20.1056  -18.2936  -12.4812 C   0  0  2  0  0  0  0  0  0  0  0  0
   19.6524  -18.3651  -10.9936 C   0  0  0  0  0  0  0  0  0  0  0  0
   21.3950  -18.9559  -12.5937 C   0  0  0  0  0  0  0  0  0  0  0  0
   21.5013  -20.4189  -12.7157 C   0  0  2  0  0  0  0  0  0  0  0  0
   22.9220  -20.8085  -12.7974 N   0  0  0  0  0  0  0  0  0  0  0  0
   20.8874  -20.9602  -13.9244 C   0  0  0  0  0  0  0  0  0  0  0  0
   21.4015  -21.0368  -15.0581 O   0  0  0  0  0  0  0  0  0  0  0  0
   19.5715  -21.4639  -13.8536 O   0  0  0  0  0  0  0  0  0  0  0  0
  2  1  1  6
  3  2  1  0
  4  3  1  0
  4  9  2  0
  5  4  1  0
  6  5  2  0
  6  7  1  0
  7  8  2  0
  8  9  1  0
 10 11  2  0
 10  2  1  0
 12 10  1  0
 13 17  1  0
 13 12  1  0
 13 14  1  6
 15 14  1  0
 15 16  2  0
 17 18  2  0
 19 15  1  0
 21 20  1  1
 22 21  1  0
 23 21  1  0
 24 23  1  6
 25 24  1  0
 25 17  1  0
 26 28  1  0
 26 24  1  0
 27 26  2  0
M  END
$$$$
