FDL.pdb
     RDKit          3D

 28 28  0  0  1  0  0  0  0  0999 V2000
   30.5765  -26.1131  -16.2647 N   0  0  0  0  0  0  0  0  0  0  0  0
   29.6215  -26.2653  -17.3344 C   0  0  1  0  0  0  0  0  0  0  0  0
   29.8301  -27.6470  -17.9511 C   0  0  0  0  0  0  0  0  0  0  0  0
   30.9464  -27.6291  -18.9339 C   0  0  0  0  0  0  0  0  0  0  0  0
   32.1632  -28.1483  -18.5321 C   0  0  0  0  0  0  0  0  0  0  0  0
   33.2156  -28.1462  -19.4184 C   0  0  0  0  0  0  0  0  0  0  0  0
   33.0056  -27.6214  -20.6782 C   0  0  0  0  0  0  0  0  0  0  0  0
   31.7908  -27.1038  -21.0771 C   0  0  0  0  0  0  0  0  0  0  0  0
   30.7389  -27.1069  -20.1884 C   0  0  0  0  0  0  0  0  0  0  0  0
   28.2368  -26.2799  -16.7660 C   0  0  0  0  0  0  0  0  0  0  0  0
   28.0681  -26.3925  -15.5398 O   0  0  0  0  0  0  0  0  0  0  0  0
   27.1022  -26.1658  -17.6151 N   0  0  0  0  0  0  0  0  0  0  0  0
   25.8047  -26.0078  -17.0218 C   0  0  1  0  0  0  0  0  0  0  0  0
   25.2297  -24.6776  -17.4037 C   0  0  0  0  0  0  0  0  0  0  0  0
   23.9039  -24.3980  -16.8385 C   0  0  0  0  0  0  0  0  0  0  0  0
   22.8128  -24.4669  -17.4579 O   0  0  0  0  0  0  0  0  0  0  0  0
   24.8704  -27.0799  -17.4850 C   0  0  0  0  0  0  0  0  0  0  0  0
   24.8649  -27.4532  -18.6850 O   0  0  0  0  0  0  0  0  0  0  0  0
   23.8622  -24.0228  -15.4915 O   0  0  0  0  0  0  0  0  0  0  0  0
   20.9024  -31.2519  -14.9720 C   0  0  0  0  0  0  0  0  0  0  0  0
   21.6430  -30.6684  -16.1063 C   0  0  2  0  0  0  0  0  0  0  0  0
   22.4327  -31.8306  -16.7764 C   0  0  0  0  0  0  0  0  0  0  0  0
   22.5503  -29.5456  -15.9331 C   0  0  0  0  0  0  0  0  0  0  0  0
   23.0581  -28.7811  -17.0840 C   0  0  2  0  0  0  0  0  0  0  0  0
   23.9630  -27.7157  -16.6121 N   0  0  0  0  0  0  0  0  0  0  0  0
   22.0198  -28.0910  -17.8432 C   0  0  0  0  0  0  0  0  0  0  0  0
   21.5227  -28.4464  -18.9304 O   0  0  0  0  0  0  0  0  0  0  0  0
   21.4884  -26.8878  -17.3330 O   0  0  0  0  0  0  0  0  0  0  0  0
  2  1  1  1
  3  2  1  0
  4  3  1  0
  4  9  2  0
  5  4  1  0
  6  5  2  0
  6  7  1  0
  7  8  2  0
  8  9  1  0
 10 11  2  0
 10  2  1  0
 12 10  1  0
 13 17  1  0
 13 12  1  0
 13 14  1  6
 15 14  1  0
 15 16  2  0
 17 18  2  0
 19 15  1  0
 21 20  1  1
 22 21  1  0
 23 21  1  0
 24 23  1  1
 25 24  1  0
 25 17  1  0
 26 28  1  0
 26 24  1  0
 27 26  2  0
M  END
$$$$
