FDL.pdb
     RDKit          3D

 28 28  0  0  1  0  0  0  0  0999 V2000
   28.6990  -21.7411  -11.9834 N   0  0  0  0  0  0  0  0  0  0  0  0
   27.3889  -21.4426  -11.4599 C   0  0  1  0  0  0  0  0  0  0  0  0
   27.4246  -20.0224  -10.8990 C   0  0  0  0  0  0  0  0  0  0  0  0
   27.6502  -20.0354   -9.4289 C   0  0  0  0  0  0  0  0  0  0  0  0
   28.9522  -20.1600   -8.9808 C   0  0  0  0  0  0  0  0  0  0  0  0
   29.1937  -20.1752   -7.6262 C   0  0  0  0  0  0  0  0  0  0  0  0
   28.1155  -20.0644   -6.7707 C   0  0  0  0  0  0  0  0  0  0  0  0
   26.8172  -19.9403   -7.2199 C   0  0  0  0  0  0  0  0  0  0  0  0
   26.5778  -19.9253   -8.5759 C   0  0  0  0  0  0  0  0  0  0  0  0
   26.4005  -21.4099  -12.5837 C   0  0  0  0  0  0  0  0  0  0  0  0
   26.7257  -20.9358  -13.6855 O   0  0  0  0  0  0  0  0  0  0  0  0
   25.0842  -21.9177  -12.4076 N   0  0  0  0  0  0  0  0  0  0  0  0
   24.2077  -21.9816  -13.5427 C   0  0  1  0  0  0  0  0  0  0  0  0
   23.5521  -23.3279  -13.6034 C   0  0  0  0  0  0  0  0  0  0  0  0
   22.6773  -23.5316  -14.7647 C   0  0  0  0  0  0  0  0  0  0  0  0
   22.4687  -22.6978  -15.6815 O   0  0  0  0  0  0  0  0  0  0  0  0
   23.1409  -20.9371  -13.4544 C   0  0  0  0  0  0  0  0  0  0  0  0
   22.6059  -20.6564  -12.3524 O   0  0  0  0  0  0  0  0  0  0  0  0
   22.0231  -24.7652  -14.8491 O   0  0  0  0  0  0  0  0  0  0  0  0
   22.3289  -18.3762  -18.1376 C   0  0  0  0  0  0  0  0  0  0  0  0
   21.4936  -18.7729  -16.9884 C   0  0  2  0  0  0  0  0  0  0  0  0
   20.0217  -18.4273  -17.3589 C   0  0  0  0  0  0  0  0  0  0  0  0
   21.7509  -18.2766  -15.6463 C   0  0  0  0  0  0  0  0  0  0  0  0
   21.6758  -19.1597  -14.4710 C   0  0  2  0  0  0  0  0  0  0  0  0
   22.6890  -20.2260  -14.5856 N   0  0  0  0  0  0  0  0  0  0  0  0
   20.4013  -19.8580  -14.3334 C   0  0  0  0  0  0  0  0  0  0  0  0
   20.1656  -21.0517  -14.6074 O   0  0  0  0  0  0  0  0  0  0  0  0
   19.2855  -19.1490  -13.8408 O   0  0  0  0  0  0  0  0  0  0  0  0
  2  1  1  6
  3  2  1  0
  4  3  1  0
  4  9  2  0
  5  4  1  0
  6  5  2  0
  6  7  1  0
  7  8  2  0
  8  9  1  0
 10 11  2  0
 10  2  1  0
 12 10  1  0
 13 17  1  0
 13 12  1  0
 13 14  1  1
 15 14  1  0
 15 16  2  0
 17 18  2  0
 19 15  1  0
 21 20  1  6
 22 21  1  0
 23 21  1  0
 24 23  1  6
 25 24  1  0
 25 17  1  0
 26 28  1  0
 26 24  1  0
 27 26  2  0
M  END
$$$$
