FDL.pdb
     RDKit          3D

 28 28  0  0  1  0  0  0  0  0999 V2000
   28.3935  -19.3660  -16.2360 N   0  0  0  0  0  0  0  0  0  0  0  0
   27.6465  -19.9789  -15.1656 C   0  0  1  0  0  0  0  0  0  0  0  0
   28.0525  -19.2929  -13.8627 C   0  0  0  0  0  0  0  0  0  0  0  0
   27.2556  -19.8087  -12.7178 C   0  0  0  0  0  0  0  0  0  0  0  0
   26.0973  -19.1309  -12.3854 C   0  0  0  0  0  0  0  0  0  0  0  0
   25.3379  -19.5834  -11.3309 C   0  0  0  0  0  0  0  0  0  0  0  0
   25.7718  -20.7025  -10.6483 C   0  0  0  0  0  0  0  0  0  0  0  0
   26.9278  -21.3773  -10.9816 C   0  0  0  0  0  0  0  0  0  0  0  0
   27.6862  -20.9227  -12.0372 C   0  0  0  0  0  0  0  0  0  0  0  0
   26.1900  -19.6825  -15.3430 C   0  0  0  0  0  0  0  0  0  0  0  0
   25.8311  -18.6136  -15.8659 O   0  0  0  0  0  0  0  0  0  0  0  0
   25.2027  -20.6136  -14.9188 N   0  0  0  0  0  0  0  0  0  0  0  0
   23.8320  -20.3831  -15.2776 C   0  0  1  0  0  0  0  0  0  0  0  0
   23.5975  -20.8161  -16.6931 C   0  0  0  0  0  0  0  0  0  0  0  0
   22.8989  -19.8307  -17.5275 C   0  0  0  0  0  0  0  0  0  0  0  0
   22.4969  -18.7019  -17.1489 O   0  0  0  0  0  0  0  0  0  0  0  0
   22.9092  -21.1519  -14.3865 C   0  0  0  0  0  0  0  0  0  0  0  0
   23.2647  -22.2483  -13.8855 O   0  0  0  0  0  0  0  0  0  0  0  0
   22.6648  -20.1891  -18.8592 O   0  0  0  0  0  0  0  0  0  0  0  0
   19.9332  -22.1254  -10.1059 C   0  0  0  0  0  0  0  0  0  0  0  0
   21.2890  -21.6509  -10.4411 C   0  0  2  0  0  0  0  0  0  0  0  0
   21.7705  -20.7773   -9.2460 C   0  0  0  0  0  0  0  0  0  0  0  0
   21.5653  -20.9267  -11.6712 C   0  0  0  0  0  0  0  0  0  0  0  0
   20.8610  -21.2411  -12.9249 C   0  0  2  0  0  0  0  0  0  0  0  0
   21.6141  -20.6922  -14.0686 N   0  0  0  0  0  0  0  0  0  0  0  0
   19.5311  -20.6475  -13.0238 C   0  0  0  0  0  0  0  0  0  0  0  0
   19.2561  -19.4632  -13.3017 O   0  0  0  0  0  0  0  0  0  0  0  0
   18.4025  -21.4610  -12.7893 O   0  0  0  0  0  0  0  0  0  0  0  0
  2  1  1  6
  3  2  1  0
  4  3  1  0
  4  9  2  0
  5  4  1  0
  6  5  2  0
  6  7  1  0
  7  8  2  0
  8  9  1  0
 10 11  2  0
 10  2  1  0
 12 10  1  0
 13 17  1  0
 13 12  1  0
 13 14  1  6
 15 14  1  0
 15 16  2  0
 17 18  2  0
 19 15  1  0
 21 20  1  1
 22 21  1  0
 23 21  1  0
 24 23  1  1
 25 24  1  0
 25 17  1  0
 26 28  1  0
 26 24  1  0
 27 26  2  0
M  END
$$$$
