FDL.pdb
     RDKit          3D

 28 28  0  0  1  0  0  0  0  0999 V2000
   22.5216   -8.8141  -16.2882 N   0  0  0  0  0  0  0  0  0  0  0  0
   21.7233   -9.3600  -15.2186 C   0  0  1  0  0  0  0  0  0  0  0  0
   22.2816   -8.8248  -13.9015 C   0  0  0  0  0  0  0  0  0  0  0  0
   22.1387   -7.3465  -13.8235 C   0  0  0  0  0  0  0  0  0  0  0  0
   22.9602   -6.5792  -14.6285 C   0  0  0  0  0  0  0  0  0  0  0  0
   22.8520   -5.2084  -14.5792 C   0  0  0  0  0  0  0  0  0  0  0  0
   21.9205   -4.6585  -13.7211 C   0  0  0  0  0  0  0  0  0  0  0  0
   21.1018   -5.4258  -12.9188 C   0  0  0  0  0  0  0  0  0  0  0  0
   21.2117   -6.7975  -12.9697 C   0  0  0  0  0  0  0  0  0  0  0  0
   20.3291   -8.8238  -15.3158 C   0  0  0  0  0  0  0  0  0  0  0  0
   20.0837   -7.8578  -16.0582 O   0  0  0  0  0  0  0  0  0  0  0  0
   19.2725   -9.4082  -14.5650 N   0  0  0  0  0  0  0  0  0  0  0  0
   17.9560   -8.8451  -14.6656 C   0  0  1  0  0  0  0  0  0  0  0  0
   17.0364   -9.8193  -15.3374 C   0  0  0  0  0  0  0  0  0  0  0  0
   15.7203   -9.2745  -15.6929 C   0  0  0  0  0  0  0  0  0  0  0  0
   15.4760   -8.5269  -16.6730 O   0  0  0  0  0  0  0  0  0  0  0  0
   17.4050   -8.5275  -13.3120 C   0  0  0  0  0  0  0  0  0  0  0  0
   17.7739   -9.1748  -12.2998 O   0  0  0  0  0  0  0  0  0  0  0  0
   14.6509   -9.6240  -14.8616 O   0  0  0  0  0  0  0  0  0  0  0  0
   17.3832   -5.3321   -9.3043 C   0  0  0  0  0  0  0  0  0  0  0  0
   18.1911   -5.3205  -10.5383 C   0  0  2  0  0  0  0  0  0  0  0  0
   18.2526   -3.8430  -11.0245 C   0  0  0  0  0  0  0  0  0  0  0  0
   17.8601   -6.1590  -11.6791 C   0  0  0  0  0  0  0  0  0  0  0  0
   16.4915   -6.6539  -11.8998 C   0  0  2  0  0  0  0  0  0  0  0  0
   16.4587   -7.5019  -13.1066 N   0  0  0  0  0  0  0  0  0  0  0  0
   15.5118   -5.6004  -12.1473 C   0  0  0  0  0  0  0  0  0  0  0  0
   14.8924   -4.9352  -11.2933 O   0  0  0  0  0  0  0  0  0  0  0  0
   15.1982   -5.2610  -13.4802 O   0  0  0  0  0  0  0  0  0  0  0  0
  2  1  1  6
  3  2  1  0
  4  3  1  0
  4  9  2  0
  5  4  1  0
  6  5  2  0
  6  7  1  0
  7  8  2  0
  8  9  1  0
 10 11  2  0
 10  2  1  0
 12 10  1  0
 13 17  1  0
 13 12  1  0
 13 14  1  1
 15 14  1  0
 15 16  2  0
 17 18  2  0
 19 15  1  0
 21 20  1  1
 22 21  1  0
 23 21  1  0
 24 23  1  6
 25 24  1  0
 25 17  1  0
 26 28  1  0
 26 24  1  0
 27 26  2  0
M  END
$$$$
