FDL.pdb
     RDKit          3D

 28 28  0  0  1  0  0  0  0  0999 V2000
   19.5848  -13.1524  -19.4513 N   0  0  0  0  0  0  0  0  0  0  0  0
   19.4135  -12.6593  -18.1071 C   0  0  1  0  0  0  0  0  0  0  0  0
   20.2417  -13.5443  -17.1778 C   0  0  0  0  0  0  0  0  0  0  0  0
   19.7305  -14.9410  -17.1761 C   0  0  0  0  0  0  0  0  0  0  0  0
   18.4510  -15.1552  -16.6978 C   0  0  0  0  0  0  0  0  0  0  0  0
   17.9493  -16.4363  -16.6832 C   0  0  0  0  0  0  0  0  0  0  0  0
   18.7536  -17.4566  -17.1508 C   0  0  0  0  0  0  0  0  0  0  0  0
   20.0299  -17.2407  -17.6276 C   0  0  0  0  0  0  0  0  0  0  0  0
   20.5300  -15.9578  -17.6413 C   0  0  0  0  0  0  0  0  0  0  0  0
   20.0091  -11.2901  -18.0005 C   0  0  0  0  0  0  0  0  0  0  0  0
   21.2296  -11.1551  -17.8083 O   0  0  0  0  0  0  0  0  0  0  0  0
   19.1925  -10.1320  -18.1169 N   0  0  0  0  0  0  0  0  0  0  0  0
   19.7999   -8.8384  -17.9822 C   0  0  1  0  0  0  0  0  0  0  0  0
   18.9024   -7.7918  -18.5698 C   0  0  0  0  0  0  0  0  0  0  0  0
   19.4189   -6.4206  -18.4791 C   0  0  0  0  0  0  0  0  0  0  0  0
   18.8147   -5.4407  -17.9752 O   0  0  0  0  0  0  0  0  0  0  0  0
   20.0386   -8.5065  -16.5436 C   0  0  0  0  0  0  0  0  0  0  0  0
   19.1588   -8.7373  -15.6762 O   0  0  0  0  0  0  0  0  0  0  0  0
   20.6965   -6.1952  -19.0022 O   0  0  0  0  0  0  0  0  0  0  0  0
   21.2070  -10.1231  -12.5008 C   0  0  0  0  0  0  0  0  0  0  0  0
   22.0868   -9.9651  -13.6741 C   0  0  2  0  0  0  0  0  0  0  0  0
   23.3768  -10.7874  -13.3859 C   0  0  0  0  0  0  0  0  0  0  0  0
   22.4851   -8.6548  -14.1626 C   0  0  0  0  0  0  0  0  0  0  0  0
   21.4961   -7.6856  -14.6618 C   0  0  2  0  0  0  0  0  0  0  0  0
   21.2439   -7.9270  -16.0952 N   0  0  0  0  0  0  0  0  0  0  0  0
   21.9336   -6.2954  -14.5804 C   0  0  0  0  0  0  0  0  0  0  0  0
   22.2440   -5.5490  -15.5302 O   0  0  0  0  0  0  0  0  0  0  0  0
   22.0313   -5.6848  -13.3124 O   0  0  0  0  0  0  0  0  0  0  0  0
  2  1  1  6
  3  2  1  0
  4  3  1  0
  4  9  2  0
  5  4  1  0
  6  5  2  0
  6  7  1  0
  7  8  2  0
  8  9  1  0
 10 11  2  0
 10  2  1  0
 12 10  1  0
 13 17  1  0
 13 12  1  0
 13 14  1  1
 15 14  1  0
 15 16  2  0
 17 18  2  0
 19 15  1  0
 21 20  1  1
 22 21  1  0
 23 21  1  0
 24 23  1  6
 25 24  1  0
 25 17  1  0
 26 28  1  0
 26 24  1  0
 27 26  2  0
M  END
$$$$
