FDL.pdb
     RDKit          3D

 28 28  0  0  1  0  0  0  0  0999 V2000
   25.6841  -20.9279   -7.3565 N   0  0  0  0  0  0  0  0  0  0  0  0
   26.6606  -20.2159   -8.1431 C   0  0  1  0  0  0  0  0  0  0  0  0
   28.0461  -20.6469   -7.6662 C   0  0  0  0  0  0  0  0  0  0  0  0
   28.3140  -20.1514   -6.2897 C   0  0  0  0  0  0  0  0  0  0  0  0
   29.5306  -20.4739   -5.7173 C   0  0  0  0  0  0  0  0  0  0  0  0
   29.8084  -20.0301   -4.4448 C   0  0  0  0  0  0  0  0  0  0  0  0
   28.8514  -19.2773   -3.7936 C   0  0  0  0  0  0  0  0  0  0  0  0
   27.6383  -18.9567   -4.3665 C   0  0  0  0  0  0  0  0  0  0  0  0
   27.3623  -19.4018   -5.6400 C   0  0  0  0  0  0  0  0  0  0  0  0
   26.5672  -20.6583   -9.5701 C   0  0  0  0  0  0  0  0  0  0  0  0
   27.5387  -21.2080  -10.1166 O   0  0  0  0  0  0  0  0  0  0  0  0
   25.3735  -20.4573  -10.3159 N   0  0  0  0  0  0  0  0  0  0  0  0
   25.3562  -20.8123  -11.7066 C   0  0  1  0  0  0  0  0  0  0  0  0
   24.1705  -21.6825  -11.9944 C   0  0  0  0  0  0  0  0  0  0  0  0
   24.0454  -22.1041  -13.3951 C   0  0  0  0  0  0  0  0  0  0  0  0
   22.9813  -22.1239  -14.0632 O   0  0  0  0  0  0  0  0  0  0  0  0
   25.2714  -19.5933  -12.5690 C   0  0  0  0  0  0  0  0  0  0  0  0
   24.4677  -18.6667  -12.2949 O   0  0  0  0  0  0  0  0  0  0  0  0
   25.2193  -22.5184  -14.0331 O   0  0  0  0  0  0  0  0  0  0  0  0
   26.8123  -16.3875  -17.0446 C   0  0  0  0  0  0  0  0  0  0  0  0
   27.5459  -16.6123  -15.7849 C   0  0  2  0  0  0  0  0  0  0  0  0
   29.0628  -16.5213  -16.1227 C   0  0  0  0  0  0  0  0  0  0  0  0
   27.3331  -17.8012  -14.9755 C   0  0  0  0  0  0  0  0  0  0  0  0
   25.9854  -18.2114  -14.5489 C   0  0  2  0  0  0  0  0  0  0  0  0
   26.0764  -19.4250  -13.7150 N   0  0  0  0  0  0  0  0  0  0  0  0
   25.0977  -18.5714  -15.6504 C   0  0  0  0  0  0  0  0  0  0  0  0
   25.1336  -19.6140  -16.3338 O   0  0  0  0  0  0  0  0  0  0  0  0
   24.0718  -17.6760  -16.0193 O   0  0  0  0  0  0  0  0  0  0  0  0
  2  1  1  1
  3  2  1  0
  4  3  1  0
  4  9  2  0
  5  4  1  0
  6  5  2  0
  6  7  1  0
  7  8  2  0
  8  9  1  0
 10 11  2  0
 10  2  1  0
 12 10  1  0
 13 17  1  0
 13 12  1  0
 13 14  1  1
 15 14  1  0
 15 16  2  0
 17 18  2  0
 19 15  1  0
 21 20  1  6
 22 21  1  0
 23 21  1  0
 24 23  1  6
 25 24  1  0
 25 17  1  0
 26 28  1  0
 26 24  1  0
 27 26  2  0
M  END
$$$$
