FDL.pdb
     RDKit          3D

 28 28  0  0  1  0  0  0  0  0999 V2000
   23.5147  -18.2632  -16.3392 N   0  0  0  0  0  0  0  0  0  0  0  0
   24.6792  -18.0059  -15.5286 C   0  0  1  0  0  0  0  0  0  0  0  0
   24.4794  -16.6561  -14.8425 C   0  0  0  0  0  0  0  0  0  0  0  0
   24.5161  -15.5451  -15.8307 C   0  0  0  0  0  0  0  0  0  0  0  0
   23.3905  -14.7503  -15.9445 C   0  0  0  0  0  0  0  0  0  0  0  0
   23.3934  -13.7142  -16.8499 C   0  0  0  0  0  0  0  0  0  0  0  0
   24.5296  -13.5150  -17.6088 C   0  0  0  0  0  0  0  0  0  0  0  0
   25.6516  -14.3092  -17.4937 C   0  0  0  0  0  0  0  0  0  0  0  0
   25.6465  -15.3455  -16.5870 C   0  0  0  0  0  0  0  0  0  0  0  0
   24.7493  -19.0152  -14.4253 C   0  0  0  0  0  0  0  0  0  0  0  0
   23.7503  -19.2376  -13.7202 O   0  0  0  0  0  0  0  0  0  0  0  0
   25.9520  -19.7291  -14.1699 N   0  0  0  0  0  0  0  0  0  0  0  0
   25.9047  -20.8879  -13.3239 C   0  0  1  0  0  0  0  0  0  0  0  0
   26.7483  -21.9795  -13.9092 C   0  0  0  0  0  0  0  0  0  0  0  0
   26.3262  -22.4333  -15.2401 C   0  0  0  0  0  0  0  0  0  0  0  0
   26.9599  -22.2566  -16.3108 O   0  0  0  0  0  0  0  0  0  0  0  0
   26.4184  -20.5724  -11.9552 C   0  0  0  0  0  0  0  0  0  0  0  0
   27.4132  -19.8203  -11.7996 O   0  0  0  0  0  0  0  0  0  0  0  0
   25.1107  -23.1219  -15.3121 O   0  0  0  0  0  0  0  0  0  0  0  0
   26.7529  -19.6083   -6.6768 C   0  0  0  0  0  0  0  0  0  0  0  0
   27.0636  -18.9234   -7.9457 C   0  0  2  0  0  0  0  0  0  0  0  0
   26.5616  -17.4569   -7.8024 C   0  0  0  0  0  0  0  0  0  0  0  0
   26.6036  -19.4361   -9.2261 C   0  0  0  0  0  0  0  0  0  0  0  0
   26.4159  -20.8778   -9.4559 C   0  0  2  0  0  0  0  0  0  0  0  0
   25.8216  -21.0949  -10.7888 N   0  0  0  0  0  0  0  0  0  0  0  0
   25.4940  -21.5133   -8.5194 C   0  0  0  0  0  0  0  0  0  0  0  0
   25.7915  -22.2181   -7.5344 O   0  0  0  0  0  0  0  0  0  0  0  0
   24.1063  -21.3407   -8.7059 O   0  0  0  0  0  0  0  0  0  0  0  0
  2  1  1  6
  3  2  1  0
  4  3  1  0
  4  9  2  0
  5  4  1  0
  6  5  2  0
  6  7  1  0
  7  8  2  0
  8  9  1  0
 10 11  2  0
 10  2  1  0
 12 10  1  0
 13 17  1  0
 13 12  1  0
 13 14  1  6
 15 14  1  0
 15 16  2  0
 17 18  2  0
 19 15  1  0
 21 20  1  1
 22 21  1  0
 23 21  1  0
 24 23  1  1
 25 24  1  0
 25 17  1  0
 26 28  1  0
 26 24  1  0
 27 26  2  0
M  END
$$$$
