FDL.pdb
     RDKit          3D

 28 28  0  0  1  0  0  0  0  0999 V2000
   24.4149  -12.0994  -18.4898 N   0  0  0  0  0  0  0  0  0  0  0  0
   23.7946  -11.9024  -17.2030 C   0  0  1  0  0  0  0  0  0  0  0  0
   24.8304  -11.2636  -16.2802 C   0  0  0  0  0  0  0  0  0  0  0  0
   25.9001  -12.2345  -15.9263 C   0  0  0  0  0  0  0  0  0  0  0  0
   27.1797  -11.9727  -16.3797 C   0  0  0  0  0  0  0  0  0  0  0  0
   28.1913  -12.8521  -16.0689 C   0  0  0  0  0  0  0  0  0  0  0  0
   27.8787  -13.9642  -15.3125 C   0  0  0  0  0  0  0  0  0  0  0  0
   26.6013  -14.2236  -14.8612 C   0  0  0  0  0  0  0  0  0  0  0  0
   25.5904  -13.3422  -15.1734 C   0  0  0  0  0  0  0  0  0  0  0  0
   22.6919  -10.8983  -17.3316 C   0  0  0  0  0  0  0  0  0  0  0  0
   22.7675   -9.9957  -18.1826 O   0  0  0  0  0  0  0  0  0  0  0  0
   21.5496  -10.9623  -16.4873 N   0  0  0  0  0  0  0  0  0  0  0  0
   20.5134   -9.9818  -16.6466 C   0  0  1  0  0  0  0  0  0  0  0  0
   19.1723  -10.6255  -16.4647 C   0  0  0  0  0  0  0  0  0  0  0  0
   18.0292   -9.7236  -16.6528 C   0  0  0  0  0  0  0  0  0  0  0  0
   17.8718   -8.9290  -17.6135 O   0  0  0  0  0  0  0  0  0  0  0  0
   20.6548   -8.8854  -15.6393 C   0  0  0  0  0  0  0  0  0  0  0  0
   21.0630   -9.1301  -14.4761 O   0  0  0  0  0  0  0  0  0  0  0  0
   17.0332   -9.7594  -15.6712 O   0  0  0  0  0  0  0  0  0  0  0  0
   22.0136   -4.5305  -13.0506 C   0  0  0  0  0  0  0  0  0  0  0  0
   22.2376   -4.5915  -14.5072 C   0  0  2  0  0  0  0  0  0  0  0  0
   21.6348   -3.2899  -15.1121 C   0  0  0  0  0  0  0  0  0  0  0  0
   21.7799   -5.7163  -15.3068 C   0  0  0  0  0  0  0  0  0  0  0  0
   20.5605   -6.4634  -14.9581 C   0  0  2  0  0  0  0  0  0  0  0  0
   20.3421   -7.5432  -15.9394 N   0  0  0  0  0  0  0  0  0  0  0  0
   19.3414   -5.6613  -14.9962 C   0  0  0  0  0  0  0  0  0  0  0  0
   18.5550   -5.5353  -15.9560 O   0  0  0  0  0  0  0  0  0  0  0  0
   18.9694   -4.9319  -13.8473 O   0  0  0  0  0  0  0  0  0  0  0  0
  2  1  1  6
  3  2  1  0
  4  3  1  0
  4  9  2  0
  5  4  1  0
  6  5  2  0
  6  7  1  0
  7  8  2  0
  8  9  1  0
 10 11  2  0
 10  2  1  0
 12 10  1  0
 13 17  1  0
 13 12  1  0
 13 14  1  1
 15 14  1  0
 15 16  2  0
 17 18  2  0
 19 15  1  0
 21 20  1  1
 22 21  1  0
 23 21  1  0
 24 23  1  6
 25 24  1  0
 25 17  1  0
 26 28  1  0
 26 24  1  0
 27 26  2  0
M  END
$$$$
