FDL.pdb
     RDKit          3D

 28 28  0  0  1  0  0  0  0  0999 V2000
   26.8300  -22.3069  -11.8056 N   0  0  0  0  0  0  0  0  0  0  0  0
   25.8087  -21.4974  -11.1882 C   0  0  1  0  0  0  0  0  0  0  0  0
   26.4384  -20.1559  -10.8188 C   0  0  0  0  0  0  0  0  0  0  0  0
   27.1669  -20.2471   -9.5253 C   0  0  0  0  0  0  0  0  0  0  0  0
   28.4788  -20.6822   -9.5573 C   0  0  0  0  0  0  0  0  0  0  0  0
   29.1798  -20.7773   -8.3770 C   0  0  0  0  0  0  0  0  0  0  0  0
   28.5349  -20.4309   -7.2063 C   0  0  0  0  0  0  0  0  0  0  0  0
   27.2259  -19.9970   -7.1766 C   0  0  0  0  0  0  0  0  0  0  0  0
   26.5262  -19.9026   -8.3589 C   0  0  0  0  0  0  0  0  0  0  0  0
   24.7471  -21.1833  -12.1958 C   0  0  0  0  0  0  0  0  0  0  0  0
   24.9774  -21.3274  -13.4086 O   0  0  0  0  0  0  0  0  0  0  0  0
   23.4686  -20.7186  -11.7825 N   0  0  0  0  0  0  0  0  0  0  0  0
   22.4094  -20.6504  -12.7490 C   0  0  1  0  0  0  0  0  0  0  0  0
   21.0828  -20.6943  -12.0532 C   0  0  0  0  0  0  0  0  0  0  0  0
   20.5759  -22.0457  -11.7850 C   0  0  0  0  0  0  0  0  0  0  0  0
   19.9320  -22.3990  -10.7654 O   0  0  0  0  0  0  0  0  0  0  0  0
   22.4887  -19.3845  -13.5413 C   0  0  0  0  0  0  0  0  0  0  0  0
   23.0004  -18.3482  -13.0474 O   0  0  0  0  0  0  0  0  0  0  0  0
   20.8378  -23.0184  -12.7557 O   0  0  0  0  0  0  0  0  0  0  0  0
   24.2690  -16.9525  -17.9151 C   0  0  0  0  0  0  0  0  0  0  0  0
   24.8491  -17.8727  -16.9189 C   0  0  2  0  0  0  0  0  0  0  0  0
   25.7765  -18.8528  -17.6951 C   0  0  0  0  0  0  0  0  0  0  0  0
   24.0152  -18.6545  -16.0205 C   0  0  0  0  0  0  0  0  0  0  0  0
   22.5871  -18.3500  -15.8347 C   0  0  2  0  0  0  0  0  0  0  0  0
   22.0012  -19.2915  -14.8616 N   0  0  0  0  0  0  0  0  0  0  0  0
   21.7849  -18.5037  -17.0445 C   0  0  0  0  0  0  0  0  0  0  0  0
   21.6712  -19.5292  -17.7450 O   0  0  0  0  0  0  0  0  0  0  0  0
   21.0388  -17.4013  -17.5120 O   0  0  0  0  0  0  0  0  0  0  0  0
  2  1  1  6
  3  2  1  0
  4  3  1  0
  4  9  2  0
  5  4  1  0
  6  5  2  0
  6  7  1  0
  7  8  2  0
  8  9  1  0
 10 11  2  0
 10  2  1  0
 12 10  1  0
 13 17  1  0
 13 12  1  0
 13 14  1  1
 15 14  1  0
 15 16  2  0
 17 18  2  0
 19 15  1  0
 21 20  1  6
 22 21  1  0
 23 21  1  0
 24 23  1  6
 25 24  1  0
 25 17  1  0
 26 28  1  0
 26 24  1  0
 27 26  2  0
M  END
$$$$
