FDL.pdb
     RDKit          3D

 28 28  0  0  1  0  0  0  0  0999 V2000
   26.9725  -22.4823  -10.9005 N   0  0  0  0  0  0  0  0  0  0  0  0
   26.1047  -21.3307  -10.8867 C   0  0  1  0  0  0  0  0  0  0  0  0
   26.9848  -20.0860  -10.7931 C   0  0  0  0  0  0  0  0  0  0  0  0
   27.5033  -19.9024   -9.4112 C   0  0  0  0  0  0  0  0  0  0  0  0
   28.8204  -20.2464   -9.1692 C   0  0  0  0  0  0  0  0  0  0  0  0
   29.3297  -20.0881   -7.9009 C   0  0  0  0  0  0  0  0  0  0  0  0
   28.4948  -19.5889   -6.9209 C   0  0  0  0  0  0  0  0  0  0  0  0
   27.1810  -19.2463   -7.1644 C   0  0  0  0  0  0  0  0  0  0  0  0
   26.6734  -19.4055   -8.4345 C   0  0  0  0  0  0  0  0  0  0  0  0
   25.3951  -21.2277  -12.2007 C   0  0  0  0  0  0  0  0  0  0  0  0
   26.0045  -21.4637  -13.2579 O   0  0  0  0  0  0  0  0  0  0  0  0
   24.0226  -20.8608  -12.2579 N   0  0  0  0  0  0  0  0  0  0  0  0
   23.2356  -21.2907  -13.3788 C   0  0  1  0  0  0  0  0  0  0  0  0
   21.7949  -21.3930  -12.9790 C   0  0  0  0  0  0  0  0  0  0  0  0
   21.2709  -20.2192  -12.2698 C   0  0  0  0  0  0  0  0  0  0  0  0
   21.4113  -19.9792  -11.0444 O   0  0  0  0  0  0  0  0  0  0  0  0
   23.3463  -20.3222  -14.5131 C   0  0  0  0  0  0  0  0  0  0  0  0
   23.5549  -19.1016  -14.2980 O   0  0  0  0  0  0  0  0  0  0  0  0
   20.5540  -19.2925  -13.0341 O   0  0  0  0  0  0  0  0  0  0  0  0
   23.8936  -20.3287  -20.7341 C   0  0  0  0  0  0  0  0  0  0  0  0
   24.0960  -19.7184  -19.4066 C   0  0  2  0  0  0  0  0  0  0  0  0
   25.5727  -19.2287  -19.3546 C   0  0  0  0  0  0  0  0  0  0  0  0
   23.8166  -20.4448  -18.1784 C   0  0  0  0  0  0  0  0  0  0  0  0
   23.3451  -19.7555  -16.9663 C   0  0  2  0  0  0  0  0  0  0  0  0
   23.2241  -20.7237  -15.8597 N   0  0  0  0  0  0  0  0  0  0  0  0
   22.0186  -19.1609  -17.0993 C   0  0  0  0  0  0  0  0  0  0  0  0
   20.9206  -19.7418  -16.9881 O   0  0  0  0  0  0  0  0  0  0  0  0
   21.9149  -17.7829  -17.3836 O   0  0  0  0  0  0  0  0  0  0  0  0
  2  1  1  6
  3  2  1  0
  4  3  1  0
  4  9  2  0
  5  4  1  0
  6  5  2  0
  6  7  1  0
  7  8  2  0
  8  9  1  0
 10 11  2  0
 10  2  1  0
 12 10  1  0
 13 17  1  0
 13 12  1  0
 13 14  1  1
 15 14  1  0
 15 16  2  0
 17 18  2  0
 19 15  1  0
 21 20  1  6
 22 21  1  0
 23 21  1  0
 24 23  1  6
 25 24  1  0
 25 17  1  0
 26 28  1  0
 26 24  1  0
 27 26  2  0
M  END
$$$$
