FDL.pdb
     RDKit          3D

 28 28  0  0  1  0  0  0  0  0999 V2000
   27.1034  -22.2386  -11.4371 N   0  0  0  0  0  0  0  0  0  0  0  0
   26.1671  -21.3724  -10.7645 C   0  0  1  0  0  0  0  0  0  0  0  0
   26.8174  -19.9967  -10.6335 C   0  0  0  0  0  0  0  0  0  0  0  0
   27.4690  -19.8393   -9.3058 C   0  0  0  0  0  0  0  0  0  0  0  0
   26.7290  -19.2580   -8.2929 C   0  0  0  0  0  0  0  0  0  0  0  0
   27.3039  -19.0985   -7.0530 C   0  0  0  0  0  0  0  0  0  0  0  0
   28.6036  -19.5300   -6.8768 C   0  0  0  0  0  0  0  0  0  0  0  0
   29.3402  -20.1098   -7.8887 C   0  0  0  0  0  0  0  0  0  0  0  0
   28.7629  -20.2684   -9.1288 C   0  0  0  0  0  0  0  0  0  0  0  0
   24.9643  -21.1714  -11.6327 C   0  0  0  0  0  0  0  0  0  0  0  0
   25.0596  -21.2901  -12.8661 O   0  0  0  0  0  0  0  0  0  0  0  0
   23.7038  -20.8438  -11.0622 N   0  0  0  0  0  0  0  0  0  0  0  0
   22.5354  -20.8774  -11.8955 C   0  0  1  0  0  0  0  0  0  0  0  0
   21.3053  -20.7294  -11.0523 C   0  0  0  0  0  0  0  0  0  0  0  0
   20.2166  -21.6549  -11.3891 C   0  0  0  0  0  0  0  0  0  0  0  0
   19.1454  -21.7925  -10.7467 O   0  0  0  0  0  0  0  0  0  0  0  0
   22.5609  -19.7676  -12.8977 C   0  0  0  0  0  0  0  0  0  0  0  0
   22.8276  -18.5907  -12.5467 O   0  0  0  0  0  0  0  0  0  0  0  0
   20.3969  -22.4488  -12.5266 O   0  0  0  0  0  0  0  0  0  0  0  0
   22.5877  -17.9350  -18.3333 C   0  0  0  0  0  0  0  0  0  0  0  0
   23.6372  -18.2202  -17.3369 C   0  0  2  0  0  0  0  0  0  0  0  0
   24.8801  -18.7308  -18.1230 C   0  0  0  0  0  0  0  0  0  0  0  0
   23.4080  -19.1206  -16.2185 C   0  0  0  0  0  0  0  0  0  0  0  0
   22.3336  -18.8778  -15.2421 C   0  0  2  0  0  0  0  0  0  0  0  0
   22.2912  -19.9828  -14.2654 N   0  0  0  0  0  0  0  0  0  0  0  0
   20.9972  -18.8353  -15.8279 C   0  0  0  0  0  0  0  0  0  0  0  0
   20.3317  -17.8181  -16.1070 O   0  0  0  0  0  0  0  0  0  0  0  0
   20.3464  -20.0500  -16.1296 O   0  0  0  0  0  0  0  0  0  0  0  0
  2  1  1  6
  3  2  1  0
  4  3  1  0
  4  9  2  0
  5  4  1  0
  6  5  2  0
  6  7  1  0
  7  8  2  0
  8  9  1  0
 10 11  2  0
 10  2  1  0
 12 10  1  0
 13 17  1  0
 13 12  1  0
 13 14  1  1
 15 14  1  0
 15 16  2  0
 17 18  2  0
 19 15  1  0
 21 20  1  6
 22 21  1  0
 23 21  1  0
 24 23  1  6
 25 24  1  0
 25 17  1  0
 26 28  1  0
 26 24  1  0
 27 26  2  0
M  END
$$$$
