FDL.pdb
     RDKit          3D

 28 28  0  0  1  0  0  0  0  0999 V2000
   19.0371  -22.1483  -12.7202 N   0  0  0  0  0  0  0  0  0  0  0  0
   19.5117  -20.8713  -13.1929 C   0  0  1  0  0  0  0  0  0  0  0  0
   19.8183  -20.0077  -11.9710 C   0  0  0  0  0  0  0  0  0  0  0  0
   18.5683  -19.4681  -11.3723 C   0  0  0  0  0  0  0  0  0  0  0  0
   18.0290  -20.1454  -10.2943 C   0  0  0  0  0  0  0  0  0  0  0  0
   16.8729  -19.6712   -9.7182 C   0  0  0  0  0  0  0  0  0  0  0  0
   16.3007  -18.5317  -10.2478 C   0  0  0  0  0  0  0  0  0  0  0  0
   16.8404  -17.8574  -11.3234 C   0  0  0  0  0  0  0  0  0  0  0  0
   17.9973  -18.3337  -11.8985 C   0  0  0  0  0  0  0  0  0  0  0  0
   20.8196  -21.0569  -13.8968 C   0  0  0  0  0  0  0  0  0  0  0  0
   21.5854  -21.9747  -13.5564 O   0  0  0  0  0  0  0  0  0  0  0  0
   21.2021  -20.1914  -14.9581 N   0  0  0  0  0  0  0  0  0  0  0  0
   22.4170  -20.4644  -15.6723 C   0  0  1  0  0  0  0  0  0  0  0  0
   22.3482  -19.8599  -17.0419 C   0  0  0  0  0  0  0  0  0  0  0  0
   23.5304  -20.1011  -17.8783 C   0  0  0  0  0  0  0  0  0  0  0  0
   24.2944  -21.0957  -17.7994 O   0  0  0  0  0  0  0  0  0  0  0  0
   23.5984  -19.8893  -14.9579 C   0  0  0  0  0  0  0  0  0  0  0  0
   23.6305  -18.6725  -14.6451 O   0  0  0  0  0  0  0  0  0  0  0  0
   23.8237  -19.1333  -18.8447 O   0  0  0  0  0  0  0  0  0  0  0  0
   24.7082  -19.6013  -10.9856 C   0  0  0  0  0  0  0  0  0  0  0  0
   25.2269  -20.8100  -11.6533 C   0  0  2  0  0  0  0  0  0  0  0  0
   25.7891  -21.7373  -10.5364 C   0  0  0  0  0  0  0  0  0  0  0  0
   26.2144  -20.7337  -12.7177 C   0  0  0  0  0  0  0  0  0  0  0  0
   25.9185  -20.0673  -13.9964 C   0  0  2  0  0  0  0  0  0  0  0  0
   24.7180  -20.6713  -14.6050 N   0  0  0  0  0  0  0  0  0  0  0  0
   26.9691  -20.2136  -14.9993 C   0  0  0  0  0  0  0  0  0  0  0  0
   26.9715  -20.9882  -15.9768 O   0  0  0  0  0  0  0  0  0  0  0  0
   28.1266  -19.4138  -14.8954 O   0  0  0  0  0  0  0  0  0  0  0  0
  2  1  1  1
  3  2  1  0
  4  3  1  0
  4  9  2  0
  5  4  1  0
  6  5  2  0
  6  7  1  0
  7  8  2  0
  8  9  1  0
 10 11  2  0
 10  2  1  0
 12 10  1  0
 13 17  1  0
 13 12  1  0
 13 14  1  6
 15 14  1  0
 15 16  2  0
 17 18  2  0
 19 15  1  0
 21 20  1  1
 22 21  1  0
 23 21  1  0
 24 23  1  1
 25 24  1  0
 25 17  1  0
 26 28  1  0
 26 24  1  0
 27 26  2  0
M  END
$$$$
