FDL.pdb
     RDKit          3D

 28 28  0  0  1  0  0  0  0  0999 V2000
   15.8878  -14.2557  -14.1611 N   0  0  0  0  0  0  0  0  0  0  0  0
   15.1080  -13.0602  -14.3665 C   0  0  1  0  0  0  0  0  0  0  0  0
   13.8657  -13.1577  -13.4834 C   0  0  0  0  0  0  0  0  0  0  0  0
   12.8799  -14.1144  -14.0536 C   0  0  0  0  0  0  0  0  0  0  0  0
   12.0232  -13.6455  -15.0323 C   0  0  0  0  0  0  0  0  0  0  0  0
   11.0998  -14.5063  -15.5797 C   0  0  0  0  0  0  0  0  0  0  0  0
   11.0717  -15.8088  -15.1224 C   0  0  0  0  0  0  0  0  0  0  0  0
   11.9274  -16.2746  -14.1459 C   0  0  0  0  0  0  0  0  0  0  0  0
   12.8507  -15.4115  -13.5994 C   0  0  0  0  0  0  0  0  0  0  0  0
   15.8721  -11.8759  -13.8623 C   0  0  0  0  0  0  0  0  0  0  0  0
   16.6247  -11.9924  -12.8801 O   0  0  0  0  0  0  0  0  0  0  0  0
   15.7485  -10.6090  -14.4956 N   0  0  0  0  0  0  0  0  0  0  0  0
   16.5447   -9.5141  -14.0182 C   0  0  1  0  0  0  0  0  0  0  0  0
   17.0699   -8.7238  -15.1782 C   0  0  0  0  0  0  0  0  0  0  0  0
   17.9232   -7.5875  -14.8094 C   0  0  0  0  0  0  0  0  0  0  0  0
   18.9560   -7.6465  -14.0961 O   0  0  0  0  0  0  0  0  0  0  0  0
   15.7363   -8.6034  -13.1499 C   0  0  0  0  0  0  0  0  0  0  0  0
   14.5421   -8.3355  -13.4357 O   0  0  0  0  0  0  0  0  0  0  0  0
   17.5448   -6.3332  -15.2998 O   0  0  0  0  0  0  0  0  0  0  0  0
   15.6715   -6.4919   -7.3769 C   0  0  0  0  0  0  0  0  0  0  0  0
   14.9816   -6.7329   -8.6581 C   0  0  2  0  0  0  0  0  0  0  0  0
   13.6096   -7.3846   -8.3172 C   0  0  0  0  0  0  0  0  0  0  0  0
   15.5961   -7.5046   -9.7263 C   0  0  0  0  0  0  0  0  0  0  0  0
   15.4514   -7.1158  -11.1386 C   0  0  2  0  0  0  0  0  0  0  0  0
   16.2652   -8.0088  -11.9853 N   0  0  0  0  0  0  0  0  0  0  0  0
   15.9292   -5.7688  -11.4357 C   0  0  0  0  0  0  0  0  0  0  0  0
   17.0683   -5.4454  -11.8272 O   0  0  0  0  0  0  0  0  0  0  0  0
   15.0439   -4.6817  -11.2790 O   0  0  0  0  0  0  0  0  0  0  0  0
  2  1  1  1
  3  2  1  0
  4  3  1  0
  4  9  2  0
  5  4  1  0
  6  5  2  0
  6  7  1  0
  7  8  2  0
  8  9  1  0
 10 11  2  0
 10  2  1  0
 12 10  1  0
 13 17  1  0
 13 12  1  0
 13 14  1  6
 15 14  1  0
 15 16  2  0
 17 18  2  0
 19 15  1  0
 21 20  1  1
 22 21  1  0
 23 21  1  0
 24 23  1  1
 25 24  1  0
 25 17  1  0
 26 28  1  0
 26 24  1  0
 27 26  2  0
M  END
$$$$
