YFC.pdb
     RDKit          3D

 30 31  0  0  1  0  0  0  0  0999 V2000
   18.6192  -15.6793  -23.4651 O   0  0  0  0  0  0  0  0  0  0  0  0
   18.6225  -14.6876  -22.4786 C   0  0  0  0  0  0  0  0  0  0  0  0
   19.7096  -13.8404  -22.3244 C   0  0  0  0  0  0  0  0  0  0  0  0
   19.7550  -12.8499  -21.3659 C   0  0  0  0  0  0  0  0  0  0  0  0
   18.6879  -12.6718  -20.5107 C   0  0  0  0  0  0  0  0  0  0  0  0
   18.6862  -11.6340  -19.4750 C   0  0  0  0  0  0  0  0  0  0  0  0
   19.3259  -12.0686  -18.1845 C   0  0  2  0  0  0  0  0  0  0  0  0
   18.6015  -13.1325  -17.5348 N   0  0  0  0  0  0  0  0  0  0  0  0
   19.3189  -10.8982  -17.2689 C   0  0  0  0  0  0  0  0  0  0  0  0
   18.3686  -10.8058  -16.4482 O   0  0  0  0  0  0  0  0  0  0  0  0
   17.6064  -13.5148  -20.6643 C   0  0  0  0  0  0  0  0  0  0  0  0
   17.5587  -14.5044  -21.6205 C   0  0  0  0  0  0  0  0  0  0  0  0
   20.3299   -9.9080  -17.2958 N   0  0  0  0  0  0  0  0  0  0  0  0
   20.2968   -8.7274  -16.3824 C   0  0  1  0  0  0  0  0  0  0  0  0
   21.4845   -8.7833  -15.4905 C   0  0  0  0  0  0  0  0  0  0  0  0
   21.7790   -7.6322  -14.6537 C   0  0  0  0  0  0  0  0  0  0  0  0
   22.6127   -6.6159  -15.0649 C   0  0  0  0  0  0  0  0  0  0  0  0
   22.8935   -5.5290  -14.2611 C   0  0  0  0  0  0  0  0  0  0  0  0
   22.3422   -5.4249  -13.0072 C   0  0  0  0  0  0  0  0  0  0  0  0
   21.5059   -6.4190  -12.5632 C   0  0  0  0  0  0  0  0  0  0  0  0
   21.2345   -7.4940  -13.3710 C   0  0  0  0  0  0  0  0  0  0  0  0
   20.1493   -7.5578  -17.2440 C   0  0  0  0  0  0  0  0  0  0  0  0
   20.8746   -7.3920  -18.2632 O   0  0  0  0  0  0  0  0  0  0  0  0
   19.1851   -6.5549  -16.9893 N   0  0  0  0  0  0  0  0  0  0  0  0
   19.1739   -5.3396  -17.8262 C   0  0  1  0  0  0  0  0  0  0  0  0
   17.7066   -5.0160  -18.0865 C   0  0  0  0  0  0  0  0  0  0  0  0
   16.9343   -6.2564  -19.1252 S   0  0  0  0  0  0  0  0  0  0  0  0
   19.8353   -4.2211  -17.1749 C   0  0  0  0  0  0  0  0  0  0  0  0
   20.0096   -4.1958  -15.9428 O   0  0  0  0  0  0  0  0  0  0  0  0
   20.2772   -3.1656  -17.9522 O   0  0  0  0  0  0  0  0  0  0  0  0
  2  1  1  0
  3  2  2  0
  4  3  1  0
  5  4  2  0
  5 11  1  0
  6  5  1  0
  7  8  1  1
  7  6  1  0
  9  7  1  0
  9 10  2  0
 11 12  2  0
 12  2  1  0
 13  9  1  0
 14 13  1  0
 14 22  1  0
 14 15  1  6
 16 15  1  0
 16 17  2  0
 18 17  1  0
 19 18  2  0
 20 21  2  0
 20 19  1  0
 21 16  1  0
 22 23  2  0
 22 24  1  0
 24 25  1  0
 25 28  1  0
 26 27  1  0
 25 26  1  1
 28 29  2  0
 28 30  1  0
M  END
$$$$
