YFC.pdb
     RDKit          3D

 30 31  0  0  1  0  0  0  0  0999 V2000
   22.0174  -18.8256  -16.8979 O   0  0  0  0  0  0  0  0  0  0  0  0
   22.5666  -19.2670  -15.6895 C   0  0  0  0  0  0  0  0  0  0  0  0
   22.6999  -20.6210  -15.4206 C   0  0  0  0  0  0  0  0  0  0  0  0
   23.2354  -21.0998  -14.2434 C   0  0  0  0  0  0  0  0  0  0  0  0
   23.6648  -20.2172  -13.2747 C   0  0  0  0  0  0  0  0  0  0  0  0
   24.2411  -20.6745  -12.0064 C   0  0  0  0  0  0  0  0  0  0  0  0
   25.7415  -20.5752  -11.9551 C   0  0  2  0  0  0  0  0  0  0  0  0
   26.3912  -21.4879  -12.8627 N   0  0  0  0  0  0  0  0  0  0  0  0
   26.1638  -20.9376  -10.5773 C   0  0  0  0  0  0  0  0  0  0  0  0
   26.4960  -22.1332  -10.3648 O   0  0  0  0  0  0  0  0  0  0  0  0
   23.5320  -18.8702  -13.5424 C   0  0  0  0  0  0  0  0  0  0  0  0
   22.9977  -18.3896  -14.7170 C   0  0  0  0  0  0  0  0  0  0  0  0
   26.2011  -19.9944   -9.5225 N   0  0  0  0  0  0  0  0  0  0  0  0
   26.6726  -20.3644   -8.1550 C   0  0  1  0  0  0  0  0  0  0  0  0
   27.6155  -19.3188   -7.6786 C   0  0  0  0  0  0  0  0  0  0  0  0
   28.2259  -19.4789   -6.3695 C   0  0  0  0  0  0  0  0  0  0  0  0
   28.9405  -20.6039   -6.0218 C   0  0  0  0  0  0  0  0  0  0  0  0
   29.5112  -20.7517   -4.7734 C   0  0  0  0  0  0  0  0  0  0  0  0
   29.3830  -19.7671   -3.8242 C   0  0  0  0  0  0  0  0  0  0  0  0
   28.6776  -18.6310   -4.1349 C   0  0  0  0  0  0  0  0  0  0  0  0
   28.1150  -18.4956   -5.3786 C   0  0  0  0  0  0  0  0  0  0  0  0
   25.4673  -20.6020   -7.3659 C   0  0  0  0  0  0  0  0  0  0  0  0
   25.4550  -20.4435   -6.1141 O   0  0  0  0  0  0  0  0  0  0  0  0
   24.2511  -21.0137   -7.9589 N   0  0  0  0  0  0  0  0  0  0  0  0
   23.0796  -21.2633   -7.0971 C   0  0  1  0  0  0  0  0  0  0  0  0
   21.8516  -21.0224   -7.9684 C   0  0  0  0  0  0  0  0  0  0  0  0
   21.7570  -19.3172   -8.5137 S   0  0  0  0  0  0  0  0  0  0  0  0
   23.0704  -22.6160   -6.5653 C   0  0  0  0  0  0  0  0  0  0  0  0
   23.9458  -23.4440   -6.8771 O   0  0  0  0  0  0  0  0  0  0  0  0
   22.0605  -22.9808   -5.6931 O   0  0  0  0  0  0  0  0  0  0  0  0
  2  1  1  0
  3  2  2  0
  4  3  1  0
  5  4  2  0
  5 11  1  0
  6  5  1  0
  7  8  1  6
  7  6  1  0
  9  7  1  0
  9 10  2  0
 11 12  2  0
 12  2  1  0
 13  9  1  0
 14 13  1  0
 14 22  1  0
 14 15  1  1
 16 15  1  0
 16 17  2  0
 18 17  1  0
 19 18  2  0
 20 21  2  0
 20 19  1  0
 21 16  1  0
 22 23  2  0
 22 24  1  0
 24 25  1  0
 25 28  1  0
 26 27  1  0
 25 26  1  6
 28 29  2  0
 28 30  1  0
M  END
$$$$
