YFC.pdb
     RDKit          3D

 30 31  0  0  1  0  0  0  0  0999 V2000
   28.4970  -41.2288   -2.2233 O   0  0  0  0  0  0  0  0  0  0  0  0
   29.3577  -40.6770   -3.1781 C   0  0  0  0  0  0  0  0  0  0  0  0
   30.5087  -40.0049   -2.7951 C   0  0  0  0  0  0  0  0  0  0  0  0
   31.3845  -39.4461   -3.7020 C   0  0  0  0  0  0  0  0  0  0  0  0
   31.1296  -39.5446   -5.0537 C   0  0  0  0  0  0  0  0  0  0  0  0
   32.0283  -38.9681   -6.0586 C   0  0  0  0  0  0  0  0  0  0  0  0
   31.6482  -37.5746   -6.4793 C   0  0  2  0  0  0  0  0  0  0  0  0
   32.5226  -37.0413   -7.4940 N   0  0  0  0  0  0  0  0  0  0  0  0
   31.7663  -36.7015   -5.2827 C   0  0  0  0  0  0  0  0  0  0  0  0
   32.9186  -36.5084   -4.8135 O   0  0  0  0  0  0  0  0  0  0  0  0
   29.9844  -40.2133   -5.4346 C   0  0  0  0  0  0  0  0  0  0  0  0
   29.1084  -40.7722   -4.5309 C   0  0  0  0  0  0  0  0  0  0  0  0
   30.6425  -36.0958   -4.6715 N   0  0  0  0  0  0  0  0  0  0  0  0
   30.7787  -35.2236   -3.4674 C   0  0  1  0  0  0  0  0  0  0  0  0
   30.7642  -33.8034   -3.9054 C   0  0  0  0  0  0  0  0  0  0  0  0
   31.9051  -33.2941   -4.6477 C   0  0  0  0  0  0  0  0  0  0  0  0
   33.1261  -33.0611   -4.0544 C   0  0  0  0  0  0  0  0  0  0  0  0
   34.2033  -32.5702   -4.7649 C   0  0  0  0  0  0  0  0  0  0  0  0
   34.0902  -32.2945   -6.1058 C   0  0  0  0  0  0  0  0  0  0  0  0
   32.8882  -32.5146   -6.7314 C   0  0  0  0  0  0  0  0  0  0  0  0
   31.8251  -33.0025   -6.0150 C   0  0  0  0  0  0  0  0  0  0  0  0
   29.7398  -35.6581   -2.5380 C   0  0  0  0  0  0  0  0  0  0  0  0
   28.6701  -36.1903   -2.9441 O   0  0  0  0  0  0  0  0  0  0  0  0
   29.8774  -35.5139   -1.1377 N   0  0  0  0  0  0  0  0  0  0  0  0
   28.7998  -36.0019   -0.2556 C   0  0  1  0  0  0  0  0  0  0  0  0
   28.7027  -37.5048   -0.4943 C   0  0  0  0  0  0  0  0  0  0  0  0
   27.5772  -38.2829    0.6640 S   0  0  0  0  0  0  0  0  0  0  0  0
   29.0719  -35.7243    1.1450 C   0  0  0  0  0  0  0  0  0  0  0  0
   28.2287  -35.9568    2.0304 O   0  0  0  0  0  0  0  0  0  0  0  0
   30.2999  -35.1893    1.4904 O   0  0  0  0  0  0  0  0  0  0  0  0
  2  1  1  0
  3  2  2  0
  4  3  1  0
  5  4  2  0
  5 11  1  0
  6  5  1  0
  7  8  1  6
  7  6  1  0
  9  7  1  0
  9 10  2  0
 11 12  2  0
 12  2  1  0
 13  9  1  0
 14 13  1  0
 14 22  1  0
 14 15  1  6
 16 15  1  0
 16 17  2  0
 18 17  1  0
 19 18  2  0
 20 21  2  0
 20 19  1  0
 21 16  1  0
 22 23  2  0
 22 24  1  0
 24 25  1  0
 25 28  1  0
 26 27  1  0
 25 26  1  1
 28 29  2  0
 28 30  1  0
M  END
$$$$
