YFC.pdb
     RDKit          3D

 30 31  0  0  1  0  0  0  0  0999 V2000
   19.9185  -13.9696  -23.0646 O   0  0  0  0  0  0  0  0  0  0  0  0
   20.0431  -13.2020  -21.9018 C   0  0  0  0  0  0  0  0  0  0  0  0
   20.9660  -12.1697  -21.8257 C   0  0  0  0  0  0  0  0  0  0  0  0
   21.1222  -11.3885  -20.7000 C   0  0  0  0  0  0  0  0  0  0  0  0
   20.3405  -11.6215  -19.5881 C   0  0  0  0  0  0  0  0  0  0  0  0
   20.4670  -10.8200  -18.3668 C   0  0  0  0  0  0  0  0  0  0  0  0
   21.7073  -11.1241  -17.5715 C   0  0  2  0  0  0  0  0  0  0  0  0
   21.6717  -12.4303  -16.9623 N   0  0  0  0  0  0  0  0  0  0  0  0
   21.7903  -10.1220  -16.4774 C   0  0  0  0  0  0  0  0  0  0  0  0
   21.2281  -10.4023  -15.3863 O   0  0  0  0  0  0  0  0  0  0  0  0
   19.4223  -12.6486  -19.6640 C   0  0  0  0  0  0  0  0  0  0  0  0
   19.2645  -13.4300  -20.7868 C   0  0  0  0  0  0  0  0  0  0  0  0
   22.4695   -8.8893  -16.6275 N   0  0  0  0  0  0  0  0  0  0  0  0
   22.4825   -7.8631  -15.5432 C   0  0  1  0  0  0  0  0  0  0  0  0
   23.6630   -8.1060  -14.6733 C   0  0  0  0  0  0  0  0  0  0  0  0
   24.9017   -8.5480  -15.2916 C   0  0  0  0  0  0  0  0  0  0  0  0
   25.5472   -9.7021  -14.9060 C   0  0  0  0  0  0  0  0  0  0  0  0
   26.7277  -10.1116  -15.4933 C   0  0  0  0  0  0  0  0  0  0  0  0
   27.3046   -9.3704  -16.4956 C   0  0  0  0  0  0  0  0  0  0  0  0
   26.6895   -8.2139  -16.9066 C   0  0  0  0  0  0  0  0  0  0  0  0
   25.5170   -7.8173  -16.3154 C   0  0  0  0  0  0  0  0  0  0  0  0
   22.3883   -6.5696  -16.2140 C   0  0  0  0  0  0  0  0  0  0  0  0
   22.9851   -6.3448  -17.3029 O   0  0  0  0  0  0  0  0  0  0  0  0
   21.6207   -5.5050  -15.6870 N   0  0  0  0  0  0  0  0  0  0  0  0
   21.5200   -4.2455  -16.4492 C   0  0  1  0  0  0  0  0  0  0  0  0
   20.7818   -4.5869  -17.7390 C   0  0  0  0  0  0  0  0  0  0  0  0
   20.2771   -3.1084  -18.6185 S   0  0  0  0  0  0  0  0  0  0  0  0
   20.8080   -3.2153  -15.7113 C   0  0  0  0  0  0  0  0  0  0  0  0
   20.1648   -3.4806  -14.6793 O   0  0  0  0  0  0  0  0  0  0  0  0
   20.8533   -1.9131  -16.1758 O   0  0  0  0  0  0  0  0  0  0  0  0
  2  1  1  0
  3  2  2  0
  4  3  1  0
  5  4  2  0
  5 11  1  0
  6  5  1  0
  7  8  1  1
  7  6  1  0
  9  7  1  0
  9 10  2  0
 11 12  2  0
 12  2  1  0
 13  9  1  0
 14 13  1  0
 14 22  1  0
 14 15  1  6
 16 15  1  0
 16 17  2  0
 18 17  1  0
 19 18  2  0
 20 21  2  0
 20 19  1  0
 21 16  1  0
 22 23  2  0
 22 24  1  0
 24 25  1  0
 25 28  1  0
 26 27  1  0
 25 26  1  6
 28 29  2  0
 28 30  1  0
M  END
$$$$
