YFC.pdb
     RDKit          3D

 30 31  0  0  1  0  0  0  0  0999 V2000
    3.8610  -18.6151   -8.7236 O   0  0  0  0  0  0  0  0  0  0  0  0
    5.0715  -18.2947   -9.3472 C   0  0  0  0  0  0  0  0  0  0  0  0
    6.2792  -18.7326   -8.8247 C   0  0  0  0  0  0  0  0  0  0  0  0
    7.4949  -18.4402   -9.4064 C   0  0  0  0  0  0  0  0  0  0  0  0
    7.5413  -17.6820  -10.5574 C   0  0  0  0  0  0  0  0  0  0  0  0
    8.8073  -17.3433  -11.2150 C   0  0  0  0  0  0  0  0  0  0  0  0
    9.7738  -16.6129  -10.3230 C   0  0  2  0  0  0  0  0  0  0  0  0
    9.3307  -15.2808   -9.9947 N   0  0  0  0  0  0  0  0  0  0  0  0
   11.0555  -16.4883  -11.0645 C   0  0  0  0  0  0  0  0  0  0  0  0
   11.2912  -15.3944  -11.6414 O   0  0  0  0  0  0  0  0  0  0  0  0
    6.3396  -17.2465  -11.0771 C   0  0  0  0  0  0  0  0  0  0  0  0
    5.1245  -17.5370  -10.4981 C   0  0  0  0  0  0  0  0  0  0  0  0
   11.9959  -17.5437  -11.1367 N   0  0  0  0  0  0  0  0  0  0  0  0
   13.2956  -17.3892  -11.8550 C   0  0  1  0  0  0  0  0  0  0  0  0
   14.3611  -17.1152  -10.8555 C   0  0  0  0  0  0  0  0  0  0  0  0
   14.6983  -18.1548   -9.8977 C   0  0  0  0  0  0  0  0  0  0  0  0
   14.0926  -18.2450   -8.6640 C   0  0  0  0  0  0  0  0  0  0  0  0
   14.4238  -19.2314   -7.7564 C   0  0  0  0  0  0  0  0  0  0  0  0
   15.3818  -20.1681   -8.0593 C   0  0  0  0  0  0  0  0  0  0  0  0
   16.0070  -20.1098   -9.2801 C   0  0  0  0  0  0  0  0  0  0  0  0
   15.6695  -19.1251  -10.1735 C   0  0  0  0  0  0  0  0  0  0  0  0
   13.4370  -18.5794  -12.6889 C   0  0  0  0  0  0  0  0  0  0  0  0
   12.8225  -19.6491  -12.4236 O   0  0  0  0  0  0  0  0  0  0  0  0
   14.2604  -18.5967  -13.8387 N   0  0  0  0  0  0  0  0  0  0  0  0
   14.4112  -19.8543  -14.5959 C   0  0  1  0  0  0  0  0  0  0  0  0
   14.3410  -19.4736  -16.0708 C   0  0  0  0  0  0  0  0  0  0  0  0
   12.7645  -18.7257  -16.4821 S   0  0  0  0  0  0  0  0  0  0  0  0
   15.6676  -20.5229  -14.3007 C   0  0  0  0  0  0  0  0  0  0  0  0
   16.7013  -19.8805  -14.0401 O   0  0  0  0  0  0  0  0  0  0  0  0
   15.7038  -21.9056  -14.3126 O   0  0  0  0  0  0  0  0  0  0  0  0
  2  1  1  0
  3  2  2  0
  4  3  1  0
  5  4  2  0
  5 11  1  0
  6  5  1  0
  7  8  1  6
  7  6  1  0
  9  7  1  0
  9 10  2  0
 11 12  2  0
 12  2  1  0
 13  9  1  0
 14 13  1  0
 14 22  1  0
 14 15  1  1
 16 15  1  0
 16 17  2  0
 18 17  1  0
 19 18  2  0
 20 21  2  0
 20 19  1  0
 21 16  1  0
 22 23  2  0
 22 24  1  0
 24 25  1  0
 25 28  1  0
 26 27  1  0
 25 26  1  6
 28 29  2  0
 28 30  1  0
M  END
$$$$
