YFC.pdb
     RDKit          3D

 30 31  0  0  1  0  0  0  0  0999 V2000
   20.0004  -19.3586  -15.2102 O   0  0  0  0  0  0  0  0  0  0  0  0
   20.9221  -19.7864  -14.2487 C   0  0  0  0  0  0  0  0  0  0  0  0
   21.3150  -18.9477  -13.2165 C   0  0  0  0  0  0  0  0  0  0  0  0
   22.2202  -19.3280  -12.2480 C   0  0  0  0  0  0  0  0  0  0  0  0
   22.7741  -20.5904  -12.2831 C   0  0  0  0  0  0  0  0  0  0  0  0
   23.7406  -21.0437  -11.2779 C   0  0  0  0  0  0  0  0  0  0  0  0
   25.1397  -20.5459  -11.5188 C   0  0  2  0  0  0  0  0  0  0  0  0
   25.7525  -21.1463  -12.6775 N   0  0  0  0  0  0  0  0  0  0  0  0
   25.9553  -20.9228  -10.3352 C   0  0  0  0  0  0  0  0  0  0  0  0
   26.4258  -22.0901  -10.2993 O   0  0  0  0  0  0  0  0  0  0  0  0
   22.3832  -21.4247  -13.3102 C   0  0  0  0  0  0  0  0  0  0  0  0
   21.4796  -21.0473  -14.2783 C   0  0  0  0  0  0  0  0  0  0  0  0
   26.2105  -20.0237   -9.2723 N   0  0  0  0  0  0  0  0  0  0  0  0
   27.0490  -20.4123   -8.0996 C   0  0  1  0  0  0  0  0  0  0  0  0
   28.0244  -19.3234   -7.8315 C   0  0  0  0  0  0  0  0  0  0  0  0
   28.7237  -19.3159   -6.5575 C   0  0  0  0  0  0  0  0  0  0  0  0
   28.4954  -18.3557   -5.5969 C   0  0  0  0  0  0  0  0  0  0  0  0
   29.1692  -18.3512   -4.3918 C   0  0  0  0  0  0  0  0  0  0  0  0
   30.1023  -19.3184   -4.1081 C   0  0  0  0  0  0  0  0  0  0  0  0
   30.3563  -20.2924   -5.0417 C   0  0  0  0  0  0  0  0  0  0  0  0
   29.6806  -20.2863   -6.2355 C   0  0  0  0  0  0  0  0  0  0  0  0
   26.1125  -20.7621   -7.0353 C   0  0  0  0  0  0  0  0  0  0  0  0
   25.1279  -20.0252   -6.7527 O   0  0  0  0  0  0  0  0  0  0  0  0
   26.2523  -21.9440   -6.2712 N   0  0  0  0  0  0  0  0  0  0  0  0
   25.3708  -22.1556   -5.1069 C   0  0  1  0  0  0  0  0  0  0  0  0
   25.6228  -23.5841   -4.6368 C   0  0  0  0  0  0  0  0  0  0  0  0
   25.9605  -23.6470   -2.8772 S   0  0  0  0  0  0  0  0  0  0  0  0
   25.6428  -21.2107   -4.0364 C   0  0  0  0  0  0  0  0  0  0  0  0
   26.7957  -20.8025   -3.8059 O   0  0  0  0  0  0  0  0  0  0  0  0
   24.5882  -20.7615   -3.2621 O   0  0  0  0  0  0  0  0  0  0  0  0
  2  1  1  0
  3  2  2  0
  4  3  1  0
  5  4  2  0
  5 11  1  0
  6  5  1  0
  7  8  1  6
  7  6  1  0
  9  7  1  0
  9 10  2  0
 11 12  2  0
 12  2  1  0
 13  9  1  0
 14 13  1  0
 14 22  1  0
 14 15  1  1
 16 15  1  0
 16 17  2  0
 18 17  1  0
 19 18  2  0
 20 21  2  0
 20 19  1  0
 21 16  1  0
 22 23  2  0
 22 24  1  0
 24 25  1  0
 25 28  1  0
 26 27  1  0
 25 26  1  1
 28 29  2  0
 28 30  1  0
M  END
$$$$
