YFC.pdb
     RDKit          3D

 30 31  0  0  1  0  0  0  0  0999 V2000
   12.4496  -21.8512   -2.1410 O   0  0  0  0  0  0  0  0  0  0  0  0
   13.1359  -22.1566   -0.9609 C   0  0  0  0  0  0  0  0  0  0  0  0
   14.3953  -21.6312   -0.7135 C   0  0  0  0  0  0  0  0  0  0  0  0
   15.1069  -21.9056    0.4355 C   0  0  0  0  0  0  0  0  0  0  0  0
   14.5674  -22.7347    1.3963 C   0  0  0  0  0  0  0  0  0  0  0  0
   15.2825  -23.0581    2.6349 C   0  0  0  0  0  0  0  0  0  0  0  0
   16.6208  -23.7065    2.4070 C   0  0  2  0  0  0  0  0  0  0  0  0
   16.5190  -24.9610    1.7037 N   0  0  0  0  0  0  0  0  0  0  0  0
   17.2109  -23.9881    3.7414 C   0  0  0  0  0  0  0  0  0  0  0  0
   16.9992  -25.1225    4.2449 O   0  0  0  0  0  0  0  0  0  0  0  0
   13.3145  -23.2574    1.1500 C   0  0  0  0  0  0  0  0  0  0  0  0
   12.6020  -22.9849    0.0036 C   0  0  0  0  0  0  0  0  0  0  0  0
   17.9869  -23.0354    4.4440 N   0  0  0  0  0  0  0  0  0  0  0  0
   18.6988  -23.3825    5.7097 C   0  0  1  0  0  0  0  0  0  0  0  0
   20.1504  -23.5128    5.4179 C   0  0  0  0  0  0  0  0  0  0  0  0
   20.5948  -24.6184    4.5859 C   0  0  0  0  0  0  0  0  0  0  0  0
   20.7077  -25.9040    5.0670 C   0  0  0  0  0  0  0  0  0  0  0  0
   21.1377  -26.9478    4.2721 C   0  0  0  0  0  0  0  0  0  0  0  0
   21.4713  -26.7345    2.9568 C   0  0  0  0  0  0  0  0  0  0  0  0
   21.3709  -25.4657    2.4421 C   0  0  0  0  0  0  0  0  0  0  0  0
   20.9426  -24.4367    3.2417 C   0  0  0  0  0  0  0  0  0  0  0  0
   18.2905  -22.3782    6.6878 C   0  0  0  0  0  0  0  0  0  0  0  0
   18.3124  -21.1457    6.4182 O   0  0  0  0  0  0  0  0  0  0  0  0
   17.8429  -22.7301    7.9825 N   0  0  0  0  0  0  0  0  0  0  0  0
   17.5015  -21.6607    8.9403 C   0  0  1  0  0  0  0  0  0  0  0  0
   16.0011  -21.7743    9.1874 C   0  0  0  0  0  0  0  0  0  0  0  0
   15.3344  -23.2888    8.4977 S   0  0  0  0  0  0  0  0  0  0  0  0
   18.2354  -21.7897   10.1883 C   0  0  0  0  0  0  0  0  0  0  0  0
   19.0308  -22.7272   10.3818 O   0  0  0  0  0  0  0  0  0  0  0  0
   18.0374  -20.8427   11.1770 O   0  0  0  0  0  0  0  0  0  0  0  0
  2  1  1  0
  3  2  2  0
  4  3  1  0
  5  4  2  0
  5 11  1  0
  6  5  1  0
  7  8  1  1
  7  6  1  0
  9  7  1  0
  9 10  2  0
 11 12  2  0
 12  2  1  0
 13  9  1  0
 14 13  1  0
 14 22  1  0
 14 15  1  6
 16 15  1  0
 16 17  2  0
 18 17  1  0
 19 18  2  0
 20 21  2  0
 20 19  1  0
 21 16  1  0
 22 23  2  0
 22 24  1  0
 24 25  1  0
 25 28  1  0
 26 27  1  0
 25 26  1  1
 28 29  2  0
 28 30  1  0
M  END
$$$$
