YFC.pdb
     RDKit          3D

 30 31  0  0  1  0  0  0  0  0999 V2000
   27.9750  -32.1744  -15.7518 O   0  0  0  0  0  0  0  0  0  0  0  0
   27.3472  -30.9256  -15.8091 C   0  0  0  0  0  0  0  0  0  0  0  0
   28.0656  -29.7575  -15.6020 C   0  0  0  0  0  0  0  0  0  0  0  0
   27.4874  -28.5064  -15.6492 C   0  0  0  0  0  0  0  0  0  0  0  0
   26.1393  -28.3819  -15.9116 C   0  0  0  0  0  0  0  0  0  0  0  0
   25.4764  -27.0755  -15.9727 C   0  0  0  0  0  0  0  0  0  0  0  0
   25.4077  -26.4983  -17.3604 C   0  0  2  0  0  0  0  0  0  0  0  0
   26.6845  -26.0184  -17.8276 N   0  0  0  0  0  0  0  0  0  0  0  0
   24.4829  -25.3361  -17.3128 C   0  0  0  0  0  0  0  0  0  0  0  0
   24.9795  -24.2057  -17.0664 O   0  0  0  0  0  0  0  0  0  0  0  0
   25.4248  -29.5441  -16.1176 C   0  0  0  0  0  0  0  0  0  0  0  0
   25.9997  -30.7944  -16.0710 C   0  0  0  0  0  0  0  0  0  0  0  0
   23.0906  -25.4650  -17.5325 N   0  0  0  0  0  0  0  0  0  0  0  0
   22.1817  -24.2805  -17.5248 C   0  0  1  0  0  0  0  0  0  0  0  0
   21.6793  -24.0582  -18.9058 C   0  0  0  0  0  0  0  0  0  0  0  0
   22.5446  -23.3842  -19.8592 C   0  0  0  0  0  0  0  0  0  0  0  0
   22.5647  -22.0137  -19.9958 C   0  0  0  0  0  0  0  0  0  0  0  0
   23.3844  -21.3812  -20.9092 C   0  0  0  0  0  0  0  0  0  0  0  0
   24.2185  -22.1089  -21.7225 C   0  0  0  0  0  0  0  0  0  0  0  0
   24.2259  -23.4774  -21.6145 C   0  0  0  0  0  0  0  0  0  0  0  0
   23.4069  -24.0946  -20.7034 C   0  0  0  0  0  0  0  0  0  0  0  0
   21.1973  -24.5373  -16.4774 C   0  0  0  0  0  0  0  0  0  0  0  0
   20.8422  -25.7105  -16.1773 O   0  0  0  0  0  0  0  0  0  0  0  0
   20.5958  -23.4911  -15.7399 N   0  0  0  0  0  0  0  0  0  0  0  0
   19.5824  -23.8214  -14.7195 C   0  0  1  0  0  0  0  0  0  0  0  0
   20.3361  -23.9617  -13.4014 C   0  0  0  0  0  0  0  0  0  0  0  0
   19.2393  -23.7810  -11.9948 S   0  0  0  0  0  0  0  0  0  0  0  0
   18.5577  -22.7958  -14.6146 C   0  0  0  0  0  0  0  0  0  0  0  0
   17.5242  -22.9744  -13.9445 O   0  0  0  0  0  0  0  0  0  0  0  0
   18.7460  -21.5973  -15.2791 O   0  0  0  0  0  0  0  0  0  0  0  0
  2  1  1  0
  3  2  2  0
  4  3  1  0
  5  4  2  0
  5 11  1  0
  6  5  1  0
  7  8  1  1
  7  6  1  0
  9  7  1  0
  9 10  2  0
 11 12  2  0
 12  2  1  0
 13  9  1  0
 14 13  1  0
 14 22  1  0
 14 15  1  6
 16 15  1  0
 16 17  2  0
 18 17  1  0
 19 18  2  0
 20 21  2  0
 20 19  1  0
 21 16  1  0
 22 23  2  0
 22 24  1  0
 24 25  1  0
 25 28  1  0
 26 27  1  0
 25 26  1  1
 28 29  2  0
 28 30  1  0
M  END
$$$$
