YFC.pdb
     RDKit          3D

 30 31  0  0  1  0  0  0  0  0999 V2000
   19.7852  -19.4846  -15.0066 O   0  0  0  0  0  0  0  0  0  0  0  0
   20.7415  -19.8947  -14.0715 C   0  0  0  0  0  0  0  0  0  0  0  0
   21.2201  -21.1963  -14.0668 C   0  0  0  0  0  0  0  0  0  0  0  0
   22.1620  -21.6428  -13.1638 C   0  0  0  0  0  0  0  0  0  0  0  0
   22.6667  -20.7797  -12.2141 C   0  0  0  0  0  0  0  0  0  0  0  0
   23.6690  -21.2044  -11.2317 C   0  0  0  0  0  0  0  0  0  0  0  0
   24.9928  -20.5050  -11.3798 C   0  0  2  0  0  0  0  0  0  0  0  0
   25.7053  -20.9072  -12.5669 N   0  0  0  0  0  0  0  0  0  0  0  0
   25.8269  -20.8800  -10.2086 C   0  0  0  0  0  0  0  0  0  0  0  0
   26.2859  -22.0517  -10.1710 O   0  0  0  0  0  0  0  0  0  0  0  0
   22.1904  -19.4848  -12.2189 C   0  0  0  0  0  0  0  0  0  0  0  0
   21.2500  -19.0366  -13.1194 C   0  0  0  0  0  0  0  0  0  0  0  0
   26.1115  -19.9742   -9.1588 N   0  0  0  0  0  0  0  0  0  0  0  0
   26.9911  -20.3519   -8.0130 C   0  0  1  0  0  0  0  0  0  0  0  0
   28.0355  -19.3068   -7.8512 C   0  0  0  0  0  0  0  0  0  0  0  0
   28.7844  -19.2606   -6.6066 C   0  0  0  0  0  0  0  0  0  0  0  0
   29.7648  -20.1787   -6.3017 C   0  0  0  0  0  0  0  0  0  0  0  0
   30.4669  -20.1324   -5.1138 C   0  0  0  0  0  0  0  0  0  0  0  0
   30.2065  -19.1549   -4.1845 C   0  0  0  0  0  0  0  0  0  0  0  0
   29.2360  -18.2221   -4.4540 C   0  0  0  0  0  0  0  0  0  0  0  0
   28.5450  -18.2784   -5.6376 C   0  0  0  0  0  0  0  0  0  0  0  0
   26.0970  -20.5984   -6.8853 C   0  0  0  0  0  0  0  0  0  0  0  0
   25.1714  -19.7941   -6.5875 O   0  0  0  0  0  0  0  0  0  0  0  0
   26.2135  -21.7504   -6.0730 N   0  0  0  0  0  0  0  0  0  0  0  0
   25.3369  -21.8903   -4.8943 C   0  0  1  0  0  0  0  0  0  0  0  0
   25.4398  -23.3479   -4.4584 C   0  0  0  0  0  0  0  0  0  0  0  0
   27.0941  -23.7507   -3.8971 S   0  0  0  0  0  0  0  0  0  0  0  0
   25.7315  -21.0049   -3.8112 C   0  0  0  0  0  0  0  0  0  0  0  0
   26.8470  -20.4532   -3.7952 O   0  0  0  0  0  0  0  0  0  0  0  0
   24.8386  -20.7773   -2.7795 O   0  0  0  0  0  0  0  0  0  0  0  0
  2  1  1  0
  3  2  2  0
  4  3  1  0
  5  4  2  0
  5 11  1  0
  6  5  1  0
  7  8  1  6
  7  6  1  0
  9  7  1  0
  9 10  2  0
 11 12  2  0
 12  2  1  0
 13  9  1  0
 14 13  1  0
 14 22  1  0
 14 15  1  1
 16 15  1  0
 16 17  2  0
 18 17  1  0
 19 18  2  0
 20 21  2  0
 20 19  1  0
 21 16  1  0
 22 23  2  0
 22 24  1  0
 24 25  1  0
 25 28  1  0
 26 27  1  0
 25 26  1  1
 28 29  2  0
 28 30  1  0
M  END
$$$$
