YFC.pdb
     RDKit          3D

 30 31  0  0  1  0  0  0  0  0999 V2000
   31.5961  -32.6273  -22.1807 O   0  0  0  0  0  0  0  0  0  0  0  0
   30.4140  -32.1469  -21.6074 C   0  0  0  0  0  0  0  0  0  0  0  0
   30.0109  -30.8342  -21.8015 C   0  0  0  0  0  0  0  0  0  0  0  0
   28.8540  -30.3192  -21.2555 C   0  0  0  0  0  0  0  0  0  0  0  0
   28.0443  -31.1213  -20.4791 C   0  0  0  0  0  0  0  0  0  0  0  0
   26.8044  -30.6228  -19.8759 C   0  0  0  0  0  0  0  0  0  0  0  0
   26.9779  -30.1203  -18.4685 C   0  0  2  0  0  0  0  0  0  0  0  0
   25.7356  -29.6973  -17.8712 N   0  0  0  0  0  0  0  0  0  0  0  0
   27.8726  -28.9353  -18.5270 C   0  0  0  0  0  0  0  0  0  0  0  0
   27.5195  -27.9737  -19.2589 O   0  0  0  0  0  0  0  0  0  0  0  0
   28.4455  -32.4273  -20.2861 C   0  0  0  0  0  0  0  0  0  0  0  0
   29.6002  -32.9438  -20.8302 C   0  0  0  0  0  0  0  0  0  0  0  0
   29.0835  -28.8623  -17.7977 N   0  0  0  0  0  0  0  0  0  0  0  0
   29.9071  -27.6173  -17.7663 C   0  0  1  0  0  0  0  0  0  0  0  0
   29.5909  -26.8699  -16.5212 C   0  0  0  0  0  0  0  0  0  0  0  0
   28.3777  -26.0709  -16.4802 C   0  0  0  0  0  0  0  0  0  0  0  0
   27.1994  -26.5466  -15.9489 C   0  0  0  0  0  0  0  0  0  0  0  0
   26.0488  -25.7839  -15.9203 C   0  0  0  0  0  0  0  0  0  0  0  0
   26.0424  -24.5076  -16.4279 C   0  0  0  0  0  0  0  0  0  0  0  0
   27.1989  -23.9994  -16.9656 C   0  0  0  0  0  0  0  0  0  0  0  0
   28.3357  -24.7667  -16.9885 C   0  0  0  0  0  0  0  0  0  0  0  0
   31.2884  -28.0451  -17.9691 C   0  0  0  0  0  0  0  0  0  0  0  0
   32.2475  -27.2264  -17.9223 O   0  0  0  0  0  0  0  0  0  0  0  0
   31.6268  -29.3951  -18.2206 N   0  0  0  0  0  0  0  0  0  0  0  0
   33.0412  -29.7523  -18.4422 C   0  0  1  0  0  0  0  0  0  0  0  0
   33.2076  -31.1749  -17.9190 C   0  0  0  0  0  0  0  0  0  0  0  0
   34.8390  -31.8227  -18.2838 S   0  0  0  0  0  0  0  0  0  0  0  0
   33.4102  -29.6786  -19.8462 C   0  0  0  0  0  0  0  0  0  0  0  0
   32.6025  -29.9686  -20.7476 O   0  0  0  0  0  0  0  0  0  0  0  0
   34.6916  -29.2757  -20.1767 O   0  0  0  0  0  0  0  0  0  0  0  0
  2  1  1  0
  3  2  2  0
  4  3  1  0
  5  4  2  0
  5 11  1  0
  6  5  1  0
  7  8  1  6
  7  6  1  0
  9  7  1  0
  9 10  2  0
 11 12  2  0
 12  2  1  0
 13  9  1  0
 14 13  1  0
 14 22  1  0
 14 15  1  1
 16 15  1  0
 16 17  2  0
 18 17  1  0
 19 18  2  0
 20 21  2  0
 20 19  1  0
 21 16  1  0
 22 23  2  0
 22 24  1  0
 24 25  1  0
 25 28  1  0
 26 27  1  0
 25 26  1  6
 28 29  2  0
 28 30  1  0
M  END
$$$$
