HEE.pdb
     RDKit          3D

 29 29  0  0  1  0  0  0  0  0999 V2000
   17.7540  -12.9671  -16.1443 N   0  0  0  0  0  0  0  0  0  0  0  0
   19.0417  -12.3362  -16.3120 C   0  0  1  0  0  0  0  0  0  0  0  0
   19.6740  -12.8055  -17.6096 C   0  0  0  0  0  0  0  0  0  0  0  0
   20.1808  -14.1724  -17.4178 C   0  0  0  0  0  0  0  0  0  0  0  0
   21.4840  -14.5691  -17.2993 C   0  0  0  0  0  0  0  0  0  0  0  0
   21.4859  -15.9084  -17.1391 N   0  0  0  0  0  0  0  0  0  0  0  0
   20.2116  -16.3482  -17.1560 C   0  0  0  0  0  0  0  0  0  0  0  0
   19.4082  -15.2704  -17.3286 N   0  0  0  0  0  0  0  0  0  0  0  0
   18.8427  -10.8726  -16.4387 C   0  0  0  0  0  0  0  0  0  0  0  0
   18.5259  -10.4067  -17.5636 O   0  0  0  0  0  0  0  0  0  0  0  0
   19.0081  -10.0068  -15.3006 N   0  0  0  0  0  0  0  0  0  0  0  0
   18.8559   -8.6073  -15.5052 C   0  0  1  0  0  0  0  0  0  0  0  0
   17.7443   -8.1155  -14.5668 C   0  0  0  0  0  0  0  0  0  0  0  0
   16.4031   -8.4757  -15.1543 C   0  0  0  0  0  0  0  0  0  0  0  0
   15.3029   -8.0544  -14.2421 C   0  0  0  0  0  0  0  0  0  0  0  0
   15.4003   -8.1774  -12.9791 O   0  0  0  0  0  0  0  0  0  0  0  0
   20.0726   -7.8362  -15.0983 C   0  0  0  0  0  0  0  0  0  0  0  0
   20.8736   -8.3633  -14.2862 O   0  0  0  0  0  0  0  0  0  0  0  0
   14.1281   -7.5114  -14.7288 O   0  0  0  0  0  0  0  0  0  0  0  0
   20.3587   -6.5482  -15.5847 N   0  0  0  0  0  0  0  0  0  0  0  0
   21.6305   -5.8340  -15.2811 C   0  0  1  0  0  0  0  0  0  0  0  0
   21.6882   -4.5721  -16.0692 C   0  0  0  0  0  0  0  0  0  0  0  0
   22.8950   -3.7600  -15.7444 C   0  0  0  0  0  0  0  0  0  0  0  0
   22.9446   -2.4904  -16.4915 C   0  0  0  0  0  0  0  0  0  0  0  0
   22.0830   -1.6031  -16.3939 O   0  0  0  0  0  0  0  0  0  0  0  0
   21.5743   -5.5517  -13.8379 C   0  0  0  0  0  0  0  0  0  0  0  0
   20.4768   -5.4401  -13.2598 O   0  0  0  0  0  0  0  0  0  0  0  0
   23.9980   -2.2037  -17.3806 O   0  0  0  0  0  0  0  0  0  0  0  0
   22.7297   -5.4064  -13.1036 O   0  0  0  0  0  0  0  0  0  0  0  0
  2  1  1  6
  2  3  1  0
  3  4  1  0
  4  8  1  0
  4  5  2  0
  5  6  1  0
  7  6  1  0
  8  7  2  0
  9  2  1  0
 10  9  2  0
 11  9  1  0
 12 11  1  0
 12 13  1  1
 14 13  1  0
 15 16  2  0
 15 14  1  0
 17 12  1  0
 17 20  1  0
 18 17  2  0
 19 15  1  0
 21 20  1  0
 21 26  1  0
 21 22  1  6
 23 22  1  0
 24 28  1  0
 24 23  1  0
 25 24  2  0
 26 29  1  0
 27 26  2  0
M  END
$$$$
