HEE.pdb
     RDKit          3D

 29 29  0  0  1  0  0  0  0  0999 V2000
   18.2970  -10.1859  -15.0081 N   0  0  0  0  0  0  0  0  0  0  0  0
   18.6489   -9.5909  -13.7406 C   0  0  1  0  0  0  0  0  0  0  0  0
   19.6257   -8.4513  -13.9664 C   0  0  0  0  0  0  0  0  0  0  0  0
   20.9222   -9.0165  -14.3686 C   0  0  0  0  0  0  0  0  0  0  0  0
   21.2407  -10.3358  -14.5348 C   0  0  0  0  0  0  0  0  0  0  0  0
   22.5359  -10.3953  -14.9070 N   0  0  0  0  0  0  0  0  0  0  0  0
   23.0248   -9.1407  -14.9745 C   0  0  0  0  0  0  0  0  0  0  0  0
   22.0227   -8.2916  -14.6406 N   0  0  0  0  0  0  0  0  0  0  0  0
   17.4315   -8.9968  -13.1383 C   0  0  0  0  0  0  0  0  0  0  0  0
   16.6534   -8.3445  -13.8810 O   0  0  0  0  0  0  0  0  0  0  0  0
   17.1480   -9.1639  -11.7369 N   0  0  0  0  0  0  0  0  0  0  0  0
   15.9459   -8.5950  -11.2318 C   0  0  1  0  0  0  0  0  0  0  0  0
   15.2210   -9.6781  -10.4198 C   0  0  0  0  0  0  0  0  0  0  0  0
   14.4210  -10.5484  -11.3560 C   0  0  0  0  0  0  0  0  0  0  0  0
   13.6505  -11.5686  -10.5908 C   0  0  0  0  0  0  0  0  0  0  0  0
   13.9555  -11.8747   -9.3938 O   0  0  0  0  0  0  0  0  0  0  0  0
   16.2047   -7.4902  -10.2554 C   0  0  0  0  0  0  0  0  0  0  0  0
   17.0694   -7.6693   -9.3615 O   0  0  0  0  0  0  0  0  0  0  0  0
   12.5702  -12.2270  -11.1488 O   0  0  0  0  0  0  0  0  0  0  0  0
   15.5228   -6.2611  -10.2946 N   0  0  0  0  0  0  0  0  0  0  0  0
   15.8222   -5.1410   -9.3590 C   0  0  1  0  0  0  0  0  0  0  0  0
   15.7255   -3.8477  -10.0904 C   0  0  0  0  0  0  0  0  0  0  0  0
   15.9233   -2.6758   -9.1909 C   0  0  0  0  0  0  0  0  0  0  0  0
   15.7973   -1.3884   -9.8973 C   0  0  0  0  0  0  0  0  0  0  0  0
   14.7900   -0.6671   -9.8340 O   0  0  0  0  0  0  0  0  0  0  0  0
   14.7919   -5.2325   -8.3122 C   0  0  0  0  0  0  0  0  0  0  0  0
   14.9210   -4.6049   -7.2442 O   0  0  0  0  0  0  0  0  0  0  0  0
   16.8379   -0.8902  -10.7045 O   0  0  0  0  0  0  0  0  0  0  0  0
   13.6709   -6.0107   -8.4941 O   0  0  0  0  0  0  0  0  0  0  0  0
  2  1  1  6
  2  3  1  0
  3  4  1  0
  4  8  1  0
  4  5  2  0
  5  6  1  0
  7  6  1  0
  8  7  2  0
  9  2  1  0
 10  9  2  0
 11  9  1  0
 12 11  1  0
 12 13  1  1
 14 13  1  0
 15 16  2  0
 15 14  1  0
 17 12  1  0
 17 20  1  0
 18 17  2  0
 19 15  1  0
 21 20  1  0
 21 26  1  0
 21 22  1  6
 23 22  1  0
 24 28  1  0
 24 23  1  0
 25 24  2  0
 26 29  1  0
 27 26  2  0
M  END
$$$$
