HEE.pdb
     RDKit          3D

 29 29  0  0  1  0  0  0  0  0999 V2000
   18.1123  -14.8996  -18.1464 N   0  0  0  0  0  0  0  0  0  0  0  0
   18.2159  -14.4040  -16.7944 C   0  0  1  0  0  0  0  0  0  0  0  0
   19.4337  -15.0104  -16.1213 C   0  0  0  0  0  0  0  0  0  0  0  0
   19.1503  -16.4216  -15.8206 C   0  0  0  0  0  0  0  0  0  0  0  0
   18.2227  -16.9175  -14.9471 C   0  0  0  0  0  0  0  0  0  0  0  0
   18.3073  -18.2632  -14.9883 N   0  0  0  0  0  0  0  0  0  0  0  0
   19.2676  -18.6096  -15.8689 C   0  0  0  0  0  0  0  0  0  0  0  0
   19.7859  -17.4668  -16.3810 N   0  0  0  0  0  0  0  0  0  0  0  0
   18.4380  -12.9389  -16.8393 C   0  0  0  0  0  0  0  0  0  0  0  0
   19.3436  -12.4934  -17.5904 O   0  0  0  0  0  0  0  0  0  0  0  0
   17.6353  -12.0488  -16.0420 N   0  0  0  0  0  0  0  0  0  0  0  0
   17.8384  -10.6501  -16.2030 C   0  0  1  0  0  0  0  0  0  0  0  0
   16.4599   -9.9735  -16.1978 C   0  0  0  0  0  0  0  0  0  0  0  0
   16.6202   -8.5173  -16.5547 C   0  0  0  0  0  0  0  0  0  0  0  0
   15.2941   -7.8388  -16.5896 C   0  0  0  0  0  0  0  0  0  0  0  0
   15.1817   -6.6106  -16.9035 O   0  0  0  0  0  0  0  0  0  0  0  0
   18.5695  -10.0435  -15.0461 C   0  0  0  0  0  0  0  0  0  0  0  0
   18.4340  -10.5644  -13.9106 O   0  0  0  0  0  0  0  0  0  0  0  0
   14.1278   -8.5149  -16.2820 O   0  0  0  0  0  0  0  0  0  0  0  0
   19.4010   -8.9168  -15.1740 N   0  0  0  0  0  0  0  0  0  0  0  0
   20.1838   -8.3572  -14.0366 C   0  0  1  0  0  0  0  0  0  0  0  0
   21.0257   -7.2300  -14.5241 C   0  0  0  0  0  0  0  0  0  0  0  0
   21.8145   -6.6008  -13.4271 C   0  0  0  0  0  0  0  0  0  0  0  0
   22.5918   -5.4341  -13.8820 C   0  0  0  0  0  0  0  0  0  0  0  0
   22.7895   -5.1653  -15.0768 O   0  0  0  0  0  0  0  0  0  0  0  0
   19.1750   -7.8839  -13.0754 C   0  0  0  0  0  0  0  0  0  0  0  0
   19.3330   -8.0684  -11.8539 O   0  0  0  0  0  0  0  0  0  0  0  0
   23.1691   -4.5351  -12.9649 O   0  0  0  0  0  0  0  0  0  0  0  0
   18.0426   -7.2309  -13.5077 O   0  0  0  0  0  0  0  0  0  0  0  0
  2  1  1  6
  2  3  1  0
  3  4  1  0
  4  8  1  0
  4  5  2  0
  5  6  1  0
  7  6  1  0
  8  7  2  0
  9  2  1  0
 10  9  2  0
 11  9  1  0
 12 11  1  0
 12 13  1  1
 14 13  1  0
 15 16  2  0
 15 14  1  0
 17 12  1  0
 17 20  1  0
 18 17  2  0
 19 15  1  0
 21 20  1  0
 21 26  1  0
 21 22  1  6
 23 22  1  0
 24 28  1  0
 24 23  1  0
 25 24  2  0
 26 29  1  0
 27 26  2  0
M  END
$$$$
