HEE.pdb
     RDKit          3D

 29 29  0  0  1  0  0  0  0  0999 V2000
   18.2911  -12.2706  -15.6294 N   0  0  0  0  0  0  0  0  0  0  0  0
   18.6988  -11.1586  -16.4549 C   0  0  1  0  0  0  0  0  0  0  0  0
   17.4863  -10.3192  -16.8143 C   0  0  0  0  0  0  0  0  0  0  0  0
   16.6210  -11.1024  -17.7088 C   0  0  0  0  0  0  0  0  0  0  0  0
   15.3774  -11.6021  -17.4383 C   0  0  0  0  0  0  0  0  0  0  0  0
   14.9547  -12.2535  -18.5412 N   0  0  0  0  0  0  0  0  0  0  0  0
   15.9107  -12.1670  -19.4880 C   0  0  0  0  0  0  0  0  0  0  0  0
   16.9393  -11.4539  -18.9680 N   0  0  0  0  0  0  0  0  0  0  0  0
   19.6035  -10.2869  -15.6679 C   0  0  0  0  0  0  0  0  0  0  0  0
   19.3021  -10.0350  -14.4727 O   0  0  0  0  0  0  0  0  0  0  0  0
   20.7982   -9.7431  -16.2588 N   0  0  0  0  0  0  0  0  0  0  0  0
   21.6685   -8.9915  -15.4212 C   0  0  1  0  0  0  0  0  0  0  0  0
   23.1116   -9.3489  -15.8054 C   0  0  0  0  0  0  0  0  0  0  0  0
   23.3918  -10.7766  -15.4093 C   0  0  0  0  0  0  0  0  0  0  0  0
   24.7714  -11.1695  -15.8121 C   0  0  0  0  0  0  0  0  0  0  0  0
   25.1052  -11.2706  -17.0361 O   0  0  0  0  0  0  0  0  0  0  0  0
   21.5595   -7.5181  -15.6621 C   0  0  0  0  0  0  0  0  0  0  0  0
   21.6221   -7.0969  -16.8444 O   0  0  0  0  0  0  0  0  0  0  0  0
   25.7490  -11.4415  -14.8729 O   0  0  0  0  0  0  0  0  0  0  0  0
   21.3900   -6.5849  -14.6240 N   0  0  0  0  0  0  0  0  0  0  0  0
   21.2373   -5.1232  -14.8686 C   0  0  1  0  0  0  0  0  0  0  0  0
   19.8330   -4.7190  -14.5831 C   0  0  0  0  0  0  0  0  0  0  0  0
   19.6451   -3.2425  -14.6604 C   0  0  0  0  0  0  0  0  0  0  0  0
   18.2669   -2.8268  -14.3441 C   0  0  0  0  0  0  0  0  0  0  0  0
   17.9154   -1.6417  -14.2376 O   0  0  0  0  0  0  0  0  0  0  0  0
   22.1716   -4.4799  -13.9312 C   0  0  0  0  0  0  0  0  0  0  0  0
   22.5704   -5.0895  -12.9209 O   0  0  0  0  0  0  0  0  0  0  0  0
   17.2445   -3.7729  -14.1395 O   0  0  0  0  0  0  0  0  0  0  0  0
   22.6201   -3.1974  -14.1533 O   0  0  0  0  0  0  0  0  0  0  0  0
  2  1  1  1
  2  3  1  0
  3  4  1  0
  4  8  1  0
  4  5  2  0
  5  6  1  0
  7  6  1  0
  8  7  2  0
  9  2  1  0
 10  9  2  0
 11  9  1  0
 12 11  1  0
 12 13  1  6
 14 13  1  0
 15 16  2  0
 15 14  1  0
 17 12  1  0
 17 20  1  0
 18 17  2  0
 19 15  1  0
 21 20  1  0
 21 26  1  0
 21 22  1  1
 23 22  1  0
 24 28  1  0
 24 23  1  0
 25 24  2  0
 26 29  1  0
 27 26  2  0
M  END
$$$$
