HEE.pdb
     RDKit          3D

 29 29  0  0  1  0  0  0  0  0999 V2000
   16.7217  -12.1237  -14.9753 N   0  0  0  0  0  0  0  0  0  0  0  0
   17.1202  -11.0498  -15.8542 C   0  0  1  0  0  0  0  0  0  0  0  0
   16.0511   -9.9724  -15.8597 C   0  0  0  0  0  0  0  0  0  0  0  0
   14.8864  -10.4701  -16.6067 C   0  0  0  0  0  0  0  0  0  0  0  0
   14.6932  -10.4485  -17.9601 C   0  0  0  0  0  0  0  0  0  0  0  0
   13.4899  -11.0064  -18.2057 N   0  0  0  0  0  0  0  0  0  0  0  0
   12.9351  -11.3725  -17.0327 C   0  0  0  0  0  0  0  0  0  0  0  0
   13.8031  -11.0386  -16.0468 N   0  0  0  0  0  0  0  0  0  0  0  0
   18.3526  -10.4257  -15.3161 C   0  0  0  0  0  0  0  0  0  0  0  0
   18.3473  -10.0195  -14.1254 O   0  0  0  0  0  0  0  0  0  0  0  0
   19.5266  -10.2891  -16.1379 N   0  0  0  0  0  0  0  0  0  0  0  0
   20.6760   -9.6857  -15.5559 C   0  0  1  0  0  0  0  0  0  0  0  0
   21.9096  -10.2105  -16.3047 C   0  0  0  0  0  0  0  0  0  0  0  0
   23.1561   -9.6914  -15.6333 C   0  0  0  0  0  0  0  0  0  0  0  0
   24.3732  -10.1988  -16.3270 C   0  0  0  0  0  0  0  0  0  0  0  0
   24.2926  -10.9721  -17.3345 O   0  0  0  0  0  0  0  0  0  0  0  0
   20.7050   -8.2028  -15.7578 C   0  0  0  0  0  0  0  0  0  0  0  0
   20.2541   -7.7343  -16.8331 O   0  0  0  0  0  0  0  0  0  0  0  0
   25.6434   -9.8512  -15.9054 O   0  0  0  0  0  0  0  0  0  0  0  0
   21.2145   -7.3110  -14.7973 N   0  0  0  0  0  0  0  0  0  0  0  0
   21.1543   -5.8310  -14.9567 C   0  0  1  0  0  0  0  0  0  0  0  0
   19.7515   -5.3705  -14.7648 C   0  0  0  0  0  0  0  0  0  0  0  0
   19.6426   -3.8840  -14.7575 C   0  0  0  0  0  0  0  0  0  0  0  0
   18.4448   -3.3975  -15.4653 C   0  0  0  0  0  0  0  0  0  0  0  0
   17.7093   -4.1258  -16.1492 O   0  0  0  0  0  0  0  0  0  0  0  0
   22.0325   -5.2978  -13.9031 C   0  0  0  0  0  0  0  0  0  0  0  0
   22.4481   -6.0402  -12.9935 O   0  0  0  0  0  0  0  0  0  0  0  0
   18.0561   -2.0456  -15.4049 O   0  0  0  0  0  0  0  0  0  0  0  0
   22.4093   -3.9736  -13.9040 O   0  0  0  0  0  0  0  0  0  0  0  0
  2  1  1  1
  2  3  1  0
  3  4  1  0
  4  8  1  0
  4  5  2  0
  5  6  1  0
  7  6  1  0
  8  7  2  0
  9  2  1  0
 10  9  2  0
 11  9  1  0
 12 11  1  0
 12 13  1  6
 14 13  1  0
 15 16  2  0
 15 14  1  0
 17 12  1  0
 17 20  1  0
 18 17  2  0
 19 15  1  0
 21 20  1  0
 21 26  1  0
 21 22  1  1
 23 22  1  0
 24 28  1  0
 24 23  1  0
 25 24  2  0
 26 29  1  0
 27 26  2  0
M  END
$$$$
