HEE.pdb
     RDKit          3D

 29 29  0  0  1  0  0  0  0  0999 V2000
   31.7319  -34.4314   -3.0258 N   0  0  0  0  0  0  0  0  0  0  0  0
   30.4216  -34.2831   -2.4381 C   0  0  1  0  0  0  0  0  0  0  0  0
   29.5952  -35.5257   -2.7152 C   0  0  0  0  0  0  0  0  0  0  0  0
   28.8511  -35.3255   -3.9676 C   0  0  0  0  0  0  0  0  0  0  0  0
   28.4210  -34.1424   -4.5013 C   0  0  0  0  0  0  0  0  0  0  0  0
   27.7830  -34.4276   -5.6551 N   0  0  0  0  0  0  0  0  0  0  0  0
   27.8097  -35.7620   -5.8460 C   0  0  0  0  0  0  0  0  0  0  0  0
   28.4716  -36.3127   -4.7993 N   0  0  0  0  0  0  0  0  0  0  0  0
   30.5674  -34.1867   -0.9659 C   0  0  0  0  0  0  0  0  0  0  0  0
   31.7233  -34.2492   -0.4734 O   0  0  0  0  0  0  0  0  0  0  0  0
   29.4125  -34.0251   -0.1218 N   0  0  0  0  0  0  0  0  0  0  0  0
   29.6267  -33.6045    1.2203 C   0  0  1  0  0  0  0  0  0  0  0  0
   28.2886  -33.0866    1.7673 C   0  0  0  0  0  0  0  0  0  0  0  0
   28.4729  -32.6506    3.1990 C   0  0  0  0  0  0  0  0  0  0  0  0
   27.1770  -32.1976    3.7782 C   0  0  0  0  0  0  0  0  0  0  0  0
   27.0755  -31.0930    4.4021 O   0  0  0  0  0  0  0  0  0  0  0  0
   29.9970  -34.7410    2.1214 C   0  0  0  0  0  0  0  0  0  0  0  0
   29.3766  -35.8274    2.0035 O   0  0  0  0  0  0  0  0  0  0  0  0
   26.0282  -32.9583    3.6626 O   0  0  0  0  0  0  0  0  0  0  0  0
   31.0085  -34.6465    3.0936 N   0  0  0  0  0  0  0  0  0  0  0  0
   31.3888  -35.7843    3.9770 C   0  0  1  0  0  0  0  0  0  0  0  0
   32.8078  -35.6281    4.3998 C   0  0  0  0  0  0  0  0  0  0  0  0
   33.7622  -35.9869    3.3126 C   0  0  0  0  0  0  0  0  0  0  0  0
   35.1669  -35.9662    3.7585 C   0  0  0  0  0  0  0  0  0  0  0  0
   35.5124  -35.7262    4.9256 O   0  0  0  0  0  0  0  0  0  0  0  0
   30.4817  -35.6903    5.1319 C   0  0  0  0  0  0  0  0  0  0  0  0
   29.6390  -34.7756    5.1987 O   0  0  0  0  0  0  0  0  0  0  0  0
   36.2237  -36.2237    2.8645 O   0  0  0  0  0  0  0  0  0  0  0  0
   30.5479  -36.6085    6.1556 O   0  0  0  0  0  0  0  0  0  0  0  0
  2  1  1  6
  2  3  1  0
  3  4  1  0
  4  8  1  0
  4  5  2  0
  5  6  1  0
  7  6  1  0
  8  7  2  0
  9  2  1  0
 10  9  2  0
 11  9  1  0
 12 11  1  0
 12 13  1  1
 14 13  1  0
 15 16  2  0
 15 14  1  0
 17 12  1  0
 17 20  1  0
 18 17  2  0
 19 15  1  0
 21 20  1  0
 21 26  1  0
 21 22  1  1
 23 22  1  0
 24 28  1  0
 24 23  1  0
 25 24  2  0
 26 29  1  0
 27 26  2  0
M  END
$$$$
