HEE.pdb
     RDKit          3D

 29 29  0  0  1  0  0  0  0  0999 V2000
   44.3230  -11.9167   -8.1150 N   0  0  0  0  0  0  0  0  0  0  0  0
   44.0328  -10.9186   -9.1169 C   0  0  1  0  0  0  0  0  0  0  0  0
   42.8235  -11.3471   -9.9279 C   0  0  0  0  0  0  0  0  0  0  0  0
   43.2243  -12.4386  -10.8280 C   0  0  0  0  0  0  0  0  0  0  0  0
   44.2968  -12.4685  -11.6755 C   0  0  0  0  0  0  0  0  0  0  0  0
   44.2798  -13.6603  -12.3072 N   0  0  0  0  0  0  0  0  0  0  0  0
   43.2195  -14.3678  -11.8681 C   0  0  0  0  0  0  0  0  0  0  0  0
   42.5699  -13.6076  -10.9532 N   0  0  0  0  0  0  0  0  0  0  0  0
   43.6647   -9.6535   -8.4371 C   0  0  0  0  0  0  0  0  0  0  0  0
   42.6509   -9.6472   -7.6923 O   0  0  0  0  0  0  0  0  0  0  0  0
   44.4501   -8.4620   -8.6259 N   0  0  0  0  0  0  0  0  0  0  0  0
   44.0214   -7.2751   -7.9692 C   0  0  1  0  0  0  0  0  0  0  0  0
   45.2657   -6.4200   -7.6889 C   0  0  0  0  0  0  0  0  0  0  0  0
   44.8428   -5.1252   -7.0419 C   0  0  0  0  0  0  0  0  0  0  0  0
   46.0270   -4.2579   -6.7860 C   0  0  0  0  0  0  0  0  0  0  0  0
   46.1069   -3.0809   -7.2637 O   0  0  0  0  0  0  0  0  0  0  0  0
   43.1561   -6.4213   -8.8427 C   0  0  0  0  0  0  0  0  0  0  0  0
   43.5366   -6.1842  -10.0166 O   0  0  0  0  0  0  0  0  0  0  0  0
   47.0908   -4.6947   -6.0182 O   0  0  0  0  0  0  0  0  0  0  0  0
   41.9365   -5.8731   -8.4077 N   0  0  0  0  0  0  0  0  0  0  0  0
   41.0643   -5.0442   -9.2861 C   0  0  1  0  0  0  0  0  0  0  0  0
   39.7743   -5.7528   -9.5113 C   0  0  0  0  0  0  0  0  0  0  0  0
   39.2504   -6.3787   -8.2643 C   0  0  0  0  0  0  0  0  0  0  0  0
   37.9593   -7.0598   -8.4683 C   0  0  0  0  0  0  0  0  0  0  0  0
   37.3471   -7.0600   -9.5473 O   0  0  0  0  0  0  0  0  0  0  0  0
   40.8544   -3.7916   -8.5428 C   0  0  0  0  0  0  0  0  0  0  0  0
   40.2226   -2.8506   -9.0590 O   0  0  0  0  0  0  0  0  0  0  0  0
   37.3305   -7.7668   -7.4256 O   0  0  0  0  0  0  0  0  0  0  0  0
   41.3509   -3.6380   -7.2678 O   0  0  0  0  0  0  0  0  0  0  0  0
  2  1  1  1
  2  3  1  0
  3  4  1  0
  4  8  1  0
  4  5  2  0
  5  6  1  0
  7  6  1  0
  8  7  2  0
  9  2  1  0
 10  9  2  0
 11  9  1  0
 12 11  1  0
 12 13  1  6
 14 13  1  0
 15 16  2  0
 15 14  1  0
 17 12  1  0
 17 20  1  0
 18 17  2  0
 19 15  1  0
 21 20  1  0
 21 26  1  0
 21 22  1  1
 23 22  1  0
 24 28  1  0
 24 23  1  0
 25 24  2  0
 26 29  1  0
 27 26  2  0
M  END
$$$$
