HEE.pdb
     RDKit          3D

 29 29  0  0  1  0  0  0  0  0999 V2000
   28.4879  -30.0749  -16.5335 N   0  0  0  0  0  0  0  0  0  0  0  0
   28.1830  -29.0873  -17.5415 C   0  0  1  0  0  0  0  0  0  0  0  0
   27.1765  -29.6567  -18.5248 C   0  0  0  0  0  0  0  0  0  0  0  0
   27.8761  -30.5777  -19.4328 C   0  0  0  0  0  0  0  0  0  0  0  0
   28.9972  -30.3261  -20.1739 C   0  0  0  0  0  0  0  0  0  0  0  0
   29.2893  -31.4502  -20.8597 N   0  0  0  0  0  0  0  0  0  0  0  0
   28.3725  -32.3917  -20.5583 C   0  0  0  0  0  0  0  0  0  0  0  0
   27.5006  -31.8469  -19.6752 N   0  0  0  0  0  0  0  0  0  0  0  0
   27.5328  -27.9255  -16.8896 C   0  0  0  0  0  0  0  0  0  0  0  0
   26.8547  -28.1250  -15.8489 O   0  0  0  0  0  0  0  0  0  0  0  0
   27.6754  -26.6012  -17.4356 N   0  0  0  0  0  0  0  0  0  0  0  0
   27.1436  -25.5150  -16.6865 C   0  0  1  0  0  0  0  0  0  0  0  0
   27.8222  -24.2292  -17.1807 C   0  0  0  0  0  0  0  0  0  0  0  0
   27.4350  -23.0850  -16.2781 C   0  0  0  0  0  0  0  0  0  0  0  0
   28.1788  -21.8494  -16.6525 C   0  0  0  0  0  0  0  0  0  0  0  0
   29.2746  -21.9006  -17.2975 O   0  0  0  0  0  0  0  0  0  0  0  0
   25.6844  -25.3044  -16.9458 C   0  0  0  0  0  0  0  0  0  0  0  0
   25.2516  -25.4734  -18.1134 O   0  0  0  0  0  0  0  0  0  0  0  0
   27.7100  -20.5931  -16.3149 O   0  0  0  0  0  0  0  0  0  0  0  0
   24.7769  -24.9259  -15.9406 N   0  0  0  0  0  0  0  0  0  0  0  0
   23.3107  -24.8095  -16.1780 C   0  0  1  0  0  0  0  0  0  0  0  0
   22.5886  -24.9454  -14.8831 C   0  0  0  0  0  0  0  0  0  0  0  0
   21.1244  -24.7070  -15.0270 C   0  0  0  0  0  0  0  0  0  0  0  0
   20.3878  -24.9123  -13.7670 C   0  0  0  0  0  0  0  0  0  0  0  0
   19.1777  -24.6734  -13.6333 O   0  0  0  0  0  0  0  0  0  0  0  0
   23.1221  -23.4658  -16.7479 C   0  0  0  0  0  0  0  0  0  0  0  0
   22.2728  -23.2722  -17.6380 O   0  0  0  0  0  0  0  0  0  0  0  0
   21.0298  -25.4033  -12.6141 O   0  0  0  0  0  0  0  0  0  0  0  0
   23.8784  -22.4025  -16.3088 O   0  0  0  0  0  0  0  0  0  0  0  0
  2  1  1  1
  2  3  1  0
  3  4  1  0
  4  8  1  0
  4  5  2  0
  5  6  1  0
  7  6  1  0
  8  7  2  0
  9  2  1  0
 10  9  2  0
 11  9  1  0
 12 11  1  0
 12 13  1  6
 14 13  1  0
 15 16  2  0
 15 14  1  0
 17 12  1  0
 17 20  1  0
 18 17  2  0
 19 15  1  0
 21 20  1  0
 21 26  1  0
 21 22  1  1
 23 22  1  0
 24 28  1  0
 24 23  1  0
 25 24  2  0
 26 29  1  0
 27 26  2  0
M  END
$$$$
