HEE.pdb
     RDKit          3D

 29 29  0  0  1  0  0  0  0  0999 V2000
   19.2605  -11.2244  -15.2845 N   0  0  0  0  0  0  0  0  0  0  0  0
   18.1158  -10.3674  -15.0859 C   0  0  1  0  0  0  0  0  0  0  0  0
   16.8880  -11.2141  -14.8044 C   0  0  0  0  0  0  0  0  0  0  0  0
   16.3573  -11.7117  -16.0823 C   0  0  0  0  0  0  0  0  0  0  0  0
   15.8947  -10.9739  -17.1364 C   0  0  0  0  0  0  0  0  0  0  0  0
   15.5062  -11.8388  -18.0957 N   0  0  0  0  0  0  0  0  0  0  0  0
   15.7188  -13.0958  -17.6571 C   0  0  0  0  0  0  0  0  0  0  0  0
   16.2454  -13.0116  -16.4111 N   0  0  0  0  0  0  0  0  0  0  0  0
   18.3463   -9.5355  -13.8806 C   0  0  0  0  0  0  0  0  0  0  0  0
   18.4631  -10.1120  -12.7686 O   0  0  0  0  0  0  0  0  0  0  0  0
   18.4346   -8.1022  -13.9825 N   0  0  0  0  0  0  0  0  0  0  0  0
   18.5652   -7.3593  -12.7763 C   0  0  1  0  0  0  0  0  0  0  0  0
   19.5698   -6.2262  -13.0314 C   0  0  0  0  0  0  0  0  0  0  0  0
   20.9715   -6.7676  -12.9050 C   0  0  0  0  0  0  0  0  0  0  0  0
   21.9711   -5.6801  -13.1005 C   0  0  0  0  0  0  0  0  0  0  0  0
   22.4082   -4.9928  -12.1226 O   0  0  0  0  0  0  0  0  0  0  0  0
   17.2942   -6.6680  -12.3924 C   0  0  0  0  0  0  0  0  0  0  0  0
   16.5278   -6.2701  -13.3053 O   0  0  0  0  0  0  0  0  0  0  0  0
   22.4672   -5.3708  -14.3535 O   0  0  0  0  0  0  0  0  0  0  0  0
   16.9202   -6.4443  -11.0555 N   0  0  0  0  0  0  0  0  0  0  0  0
   15.6871   -5.6997  -10.6753 C   0  0  1  0  0  0  0  0  0  0  0  0
   15.4356   -5.8725   -9.2181 C   0  0  0  0  0  0  0  0  0  0  0  0
   14.2347   -5.1177   -8.7604 C   0  0  0  0  0  0  0  0  0  0  0  0
   14.0009   -5.2448   -7.3107 C   0  0  0  0  0  0  0  0  0  0  0  0
   14.6804   -5.9692   -6.5674 O   0  0  0  0  0  0  0  0  0  0  0  0
   15.9765   -4.2931  -10.9968 C   0  0  0  0  0  0  0  0  0  0  0  0
   17.1201   -3.8300  -10.8265 O   0  0  0  0  0  0  0  0  0  0  0  0
   12.9679   -4.5345   -6.6696 O   0  0  0  0  0  0  0  0  0  0  0  0
   14.9919   -3.4667  -11.4899 O   0  0  0  0  0  0  0  0  0  0  0  0
  2  1  1  1
  2  3  1  0
  3  4  1  0
  4  8  1  0
  4  5  2  0
  5  6  1  0
  7  6  1  0
  8  7  2  0
  9  2  1  0
 10  9  2  0
 11  9  1  0
 12 11  1  0
 12 13  1  6
 14 13  1  0
 15 16  2  0
 15 14  1  0
 17 12  1  0
 17 20  1  0
 18 17  2  0
 19 15  1  0
 21 20  1  0
 21 26  1  0
 21 22  1  1
 23 22  1  0
 24 28  1  0
 24 23  1  0
 25 24  2  0
 26 29  1  0
 27 26  2  0
M  END
$$$$
