HEE.pdb
     RDKit          3D

 29 29  0  0  1  0  0  0  0  0999 V2000
   26.8513  -18.1051  -19.2274 N   0  0  0  0  0  0  0  0  0  0  0  0
   26.0544  -17.5603  -18.1538 C   0  0  1  0  0  0  0  0  0  0  0  0
   25.4332  -16.2478  -18.5956 C   0  0  0  0  0  0  0  0  0  0  0  0
   26.4965  -15.2382  -18.7056 C   0  0  0  0  0  0  0  0  0  0  0  0
   27.8248  -15.3923  -18.4201 C   0  0  0  0  0  0  0  0  0  0  0  0
   28.4302  -14.2116  -18.6629 N   0  0  0  0  0  0  0  0  0  0  0  0
   27.5043  -13.3308  -19.0925 C   0  0  0  0  0  0  0  0  0  0  0  0
   26.3099  -13.9708  -19.1171 N   0  0  0  0  0  0  0  0  0  0  0  0
   24.9342  -18.4897  -17.8725 C   0  0  0  0  0  0  0  0  0  0  0  0
   24.2533  -18.9168  -18.8403 O   0  0  0  0  0  0  0  0  0  0  0  0
   24.6345  -18.8929  -16.5235 N   0  0  0  0  0  0  0  0  0  0  0  0
   23.5642  -19.8095  -16.3284 C   0  0  1  0  0  0  0  0  0  0  0  0
   24.1183  -21.2266  -16.5350 C   0  0  0  0  0  0  0  0  0  0  0  0
   25.6218  -21.1928  -16.4247 C   0  0  0  0  0  0  0  0  0  0  0  0
   26.1837  -22.5695  -16.5191 C   0  0  0  0  0  0  0  0  0  0  0  0
   26.2759  -23.3234  -15.4979 O   0  0  0  0  0  0  0  0  0  0  0  0
   23.0528  -19.7973  -14.9216 C   0  0  0  0  0  0  0  0  0  0  0  0
   23.8166  -19.3945  -14.0086 O   0  0  0  0  0  0  0  0  0  0  0  0
   26.6297  -23.0875  -17.7211 O   0  0  0  0  0  0  0  0  0  0  0  0
   21.7557  -20.2165  -14.5767 N   0  0  0  0  0  0  0  0  0  0  0  0
   21.2172  -20.1204  -13.1909 C   0  0  1  0  0  0  0  0  0  0  0  0
   20.5532  -18.8001  -13.0098 C   0  0  0  0  0  0  0  0  0  0  0  0
   19.4235  -18.6025  -13.9617 C   0  0  0  0  0  0  0  0  0  0  0  0
   18.7359  -17.3132  -13.7692 C   0  0  0  0  0  0  0  0  0  0  0  0
   18.2833  -16.9335  -12.6782 O   0  0  0  0  0  0  0  0  0  0  0  0
   20.2439  -21.2188  -13.0828 C   0  0  0  0  0  0  0  0  0  0  0  0
   19.8972  -21.8557  -14.0955 O   0  0  0  0  0  0  0  0  0  0  0  0
   18.5481  -16.4157  -14.8377 O   0  0  0  0  0  0  0  0  0  0  0  0
   19.7010  -21.5610  -11.8648 O   0  0  0  0  0  0  0  0  0  0  0  0
  2  1  1  6
  2  3  1  0
  3  4  1  0
  4  8  1  0
  4  5  2  0
  5  6  1  0
  7  6  1  0
  8  7  2  0
  9  2  1  0
 10  9  2  0
 11  9  1  0
 12 11  1  0
 12 13  1  1
 14 13  1  0
 15 16  2  0
 15 14  1  0
 17 12  1  0
 17 20  1  0
 18 17  2  0
 19 15  1  0
 21 20  1  0
 21 26  1  0
 21 22  1  6
 23 22  1  0
 24 28  1  0
 24 23  1  0
 25 24  2  0
 26 29  1  0
 27 26  2  0
M  END
$$$$
