HEE.pdb
     RDKit          3D

 29 29  0  0  1  0  0  0  0  0999 V2000
   20.2032  -15.2957  -18.7235 N   0  0  0  0  0  0  0  0  0  0  0  0
   19.9616  -14.7278  -17.4183 C   0  0  1  0  0  0  0  0  0  0  0  0
   20.9489  -15.3054  -16.4206 C   0  0  0  0  0  0  0  0  0  0  0  0
   20.6591  -16.7366  -16.2474 C   0  0  0  0  0  0  0  0  0  0  0  0
   19.4397  -17.3215  -16.0461 C   0  0  0  0  0  0  0  0  0  0  0  0
   19.6415  -18.6510  -15.9403 N   0  0  0  0  0  0  0  0  0  0  0  0
   20.9599  -18.9004  -16.0719 C   0  0  0  0  0  0  0  0  0  0  0  0
   21.5848  -17.7129  -16.2617 N   0  0  0  0  0  0  0  0  0  0  0  0
   20.2187  -13.2690  -17.4779 C   0  0  0  0  0  0  0  0  0  0  0  0
   21.1353  -12.8530  -18.2326 O   0  0  0  0  0  0  0  0  0  0  0  0
   19.4369  -12.3519  -16.6906 N   0  0  0  0  0  0  0  0  0  0  0  0
   19.6728  -10.9601  -16.8664 C   0  0  1  0  0  0  0  0  0  0  0  0
   18.3092  -10.2545  -16.8957 C   0  0  0  0  0  0  0  0  0  0  0  0
   17.5966  -10.6044  -18.1777 C   0  0  0  0  0  0  0  0  0  0  0  0
   16.2696   -9.9296  -18.2388 C   0  0  0  0  0  0  0  0  0  0  0  0
   15.8593   -9.1792  -17.2962 O   0  0  0  0  0  0  0  0  0  0  0  0
   20.3955  -10.3534  -15.7044 C   0  0  0  0  0  0  0  0  0  0  0  0
   19.9941  -10.6177  -14.5433 O   0  0  0  0  0  0  0  0  0  0  0  0
   15.4263  -10.0897  -19.3228 O   0  0  0  0  0  0  0  0  0  0  0  0
   21.5036   -9.5009  -15.8548 N   0  0  0  0  0  0  0  0  0  0  0  0
   22.3254   -9.0334  -14.7034 C   0  0  1  0  0  0  0  0  0  0  0  0
   23.7524   -8.9450  -15.1189 C   0  0  0  0  0  0  0  0  0  0  0  0
   24.3295  -10.2813  -15.4392 C   0  0  0  0  0  0  0  0  0  0  0  0
   25.7031  -10.1965  -15.9669 C   0  0  0  0  0  0  0  0  0  0  0  0
   25.9829   -9.7190  -17.0773 O   0  0  0  0  0  0  0  0  0  0  0  0
   21.7910   -7.7038  -14.3683 C   0  0  0  0  0  0  0  0  0  0  0  0
   21.0873   -7.0827  -15.1870 O   0  0  0  0  0  0  0  0  0  0  0  0
   26.8041  -10.6635  -15.2239 O   0  0  0  0  0  0  0  0  0  0  0  0
   22.0584   -7.1247  -13.1482 O   0  0  0  0  0  0  0  0  0  0  0  0
  2  1  1  6
  2  3  1  0
  3  4  1  0
  4  8  1  0
  4  5  2  0
  5  6  1  0
  7  6  1  0
  8  7  2  0
  9  2  1  0
 10  9  2  0
 11  9  1  0
 12 11  1  0
 12 13  1  1
 14 13  1  0
 15 16  2  0
 15 14  1  0
 17 12  1  0
 17 20  1  0
 18 17  2  0
 19 15  1  0
 21 20  1  0
 21 26  1  0
 21 22  1  6
 23 22  1  0
 24 28  1  0
 24 23  1  0
 25 24  2  0
 26 29  1  0
 27 26  2  0
M  END
$$$$
