KML.pdb
     RDKit          3D

 26 25  0  0  1  0  0  0  0  0999 V2000
   25.4403  -20.8505  -16.3322 N   0  0  0  0  0  0  0  0  0  0  0  0
   26.4401  -20.6072  -15.3711 C   0  0  1  0  0  0  0  0  0  0  0  0
   27.6295  -19.8007  -15.7733 C   0  0  0  0  0  0  0  0  0  0  0  0
   28.6486  -20.4350  -16.6191 C   0  0  0  0  0  0  0  0  0  0  0  0
   28.9477  -21.8740  -16.4478 C   0  0  0  0  0  0  0  0  0  0  0  0
   30.0275  -22.4329  -17.3202 C   0  0  0  0  0  0  0  0  0  0  0  0
   30.2996  -23.7952  -16.9620 N   0  0  0  0  0  0  0  0  0  0  0  0
   25.8526  -20.0955  -14.1027 C   0  0  0  0  0  0  0  0  0  0  0  0
   25.3804  -18.9240  -14.1037 O   0  0  0  0  0  0  0  0  0  0  0  0
   19.8587  -19.8026  -10.1956 C   0  0  0  0  0  0  0  0  0  0  0  0
   20.9491  -20.3553  -11.5096 S   0  0  0  0  0  0  0  0  0  0  0  0
   22.6903  -20.0301  -10.9767 C   0  0  0  0  0  0  0  0  0  0  0  0
   23.5510  -20.5428  -12.0785 C   0  0  0  0  0  0  0  0  0  0  0  0
   25.0135  -20.3150  -11.7819 C   0  0  2  0  0  0  0  0  0  0  0  0
   25.7952  -20.8273  -12.9238 N   0  0  0  0  0  0  0  0  0  0  0  0
   25.4322  -21.0026  -10.5404 C   0  0  0  0  0  0  0  0  0  0  0  0
   25.5519  -22.2818  -10.5168 O   0  0  0  0  0  0  0  0  0  0  0  0
   28.8320  -20.7724   -7.7528 C   0  0  0  0  0  0  0  0  0  0  0  0
   27.8799  -19.5904   -7.6102 C   0  0  2  0  0  0  0  0  0  0  0  0
   28.3937  -18.5820   -6.6332 C   0  0  0  0  0  0  0  0  0  0  0  0
   26.5615  -20.1184   -7.1395 C   0  0  0  0  0  0  0  0  0  0  0  0
   25.9188  -21.0951   -8.0995 C   0  0  2  0  0  0  0  0  0  0  0  0
   25.7249  -20.3052   -9.3394 N   0  0  0  0  0  0  0  0  0  0  0  0
   24.6356  -21.5426   -7.5443 C   0  0  0  0  0  0  0  0  0  0  0  0
   24.6222  -22.5541   -6.6047 O   0  0  0  0  0  0  0  0  0  0  0  0
   23.5527  -21.0362   -7.8963 O   0  0  0  0  0  0  0  0  0  0  0  0
  2  1  1  6
  3  4  1  0
  3  2  1  0
  4  5  1  0
  6  5  1  0
  7  6  1  0
  8  2  1  0
  8  9  2  0
 10 11  1  0
 12 11  1  0
 12 13  1  0
 14 13  1  6
 14 15  1  0
 15  8  1  0
 16 14  1  0
 17 16  2  0
 19 18  1  1
 19 21  1  0
 20 19  1  0
 22 21  1  1
 22 24  1  0
 22 23  1  0
 23 16  1  0
 24 25  1  0
 26 24  2  0
M  END
$$$$
