KML.pdb
     RDKit          3D

 26 25  0  0  1  0  0  0  0  0999 V2000
   28.1439  -18.0815  -13.9039 N   0  0  0  0  0  0  0  0  0  0  0  0
   27.5967  -19.1712  -14.6078 C   0  0  1  0  0  0  0  0  0  0  0  0
   27.9208  -19.3142  -16.0575 C   0  0  0  0  0  0  0  0  0  0  0  0
   27.0814  -18.6069  -17.0328 C   0  0  0  0  0  0  0  0  0  0  0  0
   25.7074  -19.0877  -17.2988 C   0  0  0  0  0  0  0  0  0  0  0  0
   24.9379  -18.3436  -18.3445 C   0  0  0  0  0  0  0  0  0  0  0  0
   23.5931  -18.8382  -18.4169 N   0  0  0  0  0  0  0  0  0  0  0  0
   27.8264  -20.4500  -13.8811 C   0  0  0  0  0  0  0  0  0  0  0  0
   27.2310  -21.4812  -14.3025 O   0  0  0  0  0  0  0  0  0  0  0  0
   32.3326  -21.8726   -9.7473 C   0  0  0  0  0  0  0  0  0  0  0  0
   32.6720  -22.2337  -11.4723 S   0  0  0  0  0  0  0  0  0  0  0  0
   31.0785  -22.1060  -12.4030 C   0  0  0  0  0  0  0  0  0  0  0  0
   30.0154  -21.9884  -11.3668 C   0  0  0  0  0  0  0  0  0  0  0  0
   28.6526  -21.8297  -11.9964 C   0  0  2  0  0  0  0  0  0  0  0  0
   28.6521  -20.5740  -12.7714 N   0  0  0  0  0  0  0  0  0  0  0  0
   27.5816  -21.7882  -10.9762 C   0  0  0  0  0  0  0  0  0  0  0  0
   27.2625  -22.8509  -10.3280 O   0  0  0  0  0  0  0  0  0  0  0  0
   26.4531  -18.6123   -6.3304 C   0  0  0  0  0  0  0  0  0  0  0  0
   25.7554  -19.6340   -7.2210 C   0  0  2  0  0  0  0  0  0  0  0  0
   25.5961  -20.9508   -6.5311 C   0  0  0  0  0  0  0  0  0  0  0  0
   26.5855  -19.8104   -8.4531 C   0  0  0  0  0  0  0  0  0  0  0  0
   25.9143  -20.6385   -9.5265 C   0  0  2  0  0  0  0  0  0  0  0  0
   26.8706  -20.6015  -10.6592 N   0  0  0  0  0  0  0  0  0  0  0  0
   24.6348  -20.0154   -9.8862 C   0  0  0  0  0  0  0  0  0  0  0  0
   23.5346  -20.2160   -9.0765 O   0  0  0  0  0  0  0  0  0  0  0  0
   24.5094  -19.3080  -10.9044 O   0  0  0  0  0  0  0  0  0  0  0  0
  2  1  1  1
  3  4  1  0
  3  2  1  0
  4  5  1  0
  6  5  1  0
  7  6  1  0
  8  2  1  0
  8  9  2  0
 10 11  1  0
 12 11  1  0
 12 13  1  0
 14 13  1  1
 14 15  1  0
 15  8  1  0
 16 14  1  0
 17 16  2  0
 19 18  1  1
 19 21  1  0
 20 19  1  0
 22 21  1  1
 22 24  1  0
 22 23  1  0
 23 16  1  0
 24 25  1  0
 26 24  2  0
M  END
$$$$
