KML.pdb
     RDKit          3D

 26 25  0  0  1  0  0  0  0  0999 V2000
   25.9358  -22.1684  -13.5960 N   0  0  0  0  0  0  0  0  0  0  0  0
   26.1439  -20.7776  -13.5273 C   0  0  1  0  0  0  0  0  0  0  0  0
   25.6162  -19.9258  -14.6332 C   0  0  0  0  0  0  0  0  0  0  0  0
   25.0394  -20.5887  -15.8096 C   0  0  0  0  0  0  0  0  0  0  0  0
   25.5652  -21.9039  -16.2381 C   0  0  0  0  0  0  0  0  0  0  0  0
   25.0450  -22.4317  -17.5383 C   0  0  0  0  0  0  0  0  0  0  0  0
   25.6876  -23.6727  -17.8627 N   0  0  0  0  0  0  0  0  0  0  0  0
   25.7398  -20.2390  -12.1997 C   0  0  0  0  0  0  0  0  0  0  0  0
   25.6879  -18.9842  -12.0650 O   0  0  0  0  0  0  0  0  0  0  0  0
   20.9769  -21.5060   -9.0419 C   0  0  0  0  0  0  0  0  0  0  0  0
   21.8259  -21.0402   -7.5308 S   0  0  0  0  0  0  0  0  0  0  0  0
   23.4508  -20.2913   -8.0006 C   0  0  0  0  0  0  0  0  0  0  0  0
   23.7890  -20.8659   -9.3321 C   0  0  0  0  0  0  0  0  0  0  0  0
   25.1473  -20.4018   -9.7995 C   0  0  2  0  0  0  0  0  0  0  0  0
   25.4196  -21.0322  -11.1057 N   0  0  0  0  0  0  0  0  0  0  0  0
   26.2099  -20.7669   -8.8367 C   0  0  0  0  0  0  0  0  0  0  0  0
   26.6851  -21.9606   -8.8178 O   0  0  0  0  0  0  0  0  0  0  0  0
   29.7717  -18.0455   -4.6697 C   0  0  0  0  0  0  0  0  0  0  0  0
   29.3144  -19.3927   -5.2174 C   0  0  2  0  0  0  0  0  0  0  0  0
   30.4702  -20.2265   -5.6693 C   0  0  0  0  0  0  0  0  0  0  0  0
   28.4021  -19.1311   -6.3739 C   0  0  0  0  0  0  0  0  0  0  0  0
   27.6545  -20.3573   -6.8495 C   0  0  2  0  0  0  0  0  0  0  0  0
   26.7552  -19.8409   -7.9095 N   0  0  0  0  0  0  0  0  0  0  0  0
   26.8919  -20.9213   -5.7292 C   0  0  0  0  0  0  0  0  0  0  0  0
   27.5142  -21.7962   -4.8612 O   0  0  0  0  0  0  0  0  0  0  0  0
   25.6947  -20.6344   -5.5361 O   0  0  0  0  0  0  0  0  0  0  0  0
  2  1  1  6
  3  4  1  0
  3  2  1  0
  4  5  1  0
  6  5  1  0
  7  6  1  0
  8  2  1  0
  8  9  2  0
 10 11  1  0
 12 11  1  0
 12 13  1  0
 14 13  1  1
 14 15  1  0
 15  8  1  0
 16 14  1  0
 17 16  2  0
 19 18  1  6
 19 21  1  0
 20 19  1  0
 22 21  1  1
 22 24  1  0
 22 23  1  0
 23 16  1  0
 24 25  1  0
 26 24  2  0
M  END
$$$$
