KML.pdb
     RDKit          3D

 26 25  0  0  1  0  0  0  0  0999 V2000
   28.4016  -21.4235  -15.8875 N   0  0  0  0  0  0  0  0  0  0  0  0
   28.2402  -20.4953  -14.8411 C   0  0  1  0  0  0  0  0  0  0  0  0
   28.0874  -19.0524  -15.1901 C   0  0  0  0  0  0  0  0  0  0  0  0
   27.9827  -18.6851  -16.6079 C   0  0  0  0  0  0  0  0  0  0  0  0
   26.6774  -18.7942  -17.2963 C   0  0  0  0  0  0  0  0  0  0  0  0
   26.6626  -18.4265  -18.7468 C   0  0  0  0  0  0  0  0  0  0  0  0
   25.3746  -18.7018  -19.3154 N   0  0  0  0  0  0  0  0  0  0  0  0
   27.1760  -20.9312  -13.8959 C   0  0  0  0  0  0  0  0  0  0  0  0
   26.2825  -21.7090  -14.3341 O   0  0  0  0  0  0  0  0  0  0  0  0
   26.2420  -19.2092   -7.3916 C   0  0  0  0  0  0  0  0  0  0  0  0
   26.0158  -20.9710   -7.6484 S   0  0  0  0  0  0  0  0  0  0  0  0
   25.3170  -21.2123   -9.3440 C   0  0  0  0  0  0  0  0  0  0  0  0
   26.3407  -20.6737  -10.2817 C   0  0  0  0  0  0  0  0  0  0  0  0
   26.0072  -21.0187  -11.7131 C   0  0  2  0  0  0  0  0  0  0  0  0
   27.1082  -20.5330  -12.5672 N   0  0  0  0  0  0  0  0  0  0  0  0
   24.7325  -20.4008  -12.1406 C   0  0  0  0  0  0  0  0  0  0  0  0
   24.6518  -19.1289  -12.3046 O   0  0  0  0  0  0  0  0  0  0  0  0
   22.7862  -19.2590  -15.4501 C   0  0  0  0  0  0  0  0  0  0  0  0
   22.8143  -20.7553  -15.1596 C   0  0  2  0  0  0  0  0  0  0  0  0
   22.4105  -21.5577  -16.3547 C   0  0  0  0  0  0  0  0  0  0  0  0
   21.8662  -21.0211  -14.0332 C   0  0  0  0  0  0  0  0  0  0  0  0
   22.3085  -20.4307  -12.7125 C   0  0  2  0  0  0  0  0  0  0  0  0
   23.5602  -21.1595  -12.3945 N   0  0  0  0  0  0  0  0  0  0  0  0
   21.2731  -20.6802  -11.7023 C   0  0  0  0  0  0  0  0  0  0  0  0
   20.1266  -19.9110  -11.7061 O   0  0  0  0  0  0  0  0  0  0  0  0
   21.3970  -21.5683  -10.8369 O   0  0  0  0  0  0  0  0  0  0  0  0
  2  1  1  6
  3  4  1  0
  3  2  1  0
  4  5  1  0
  6  5  1  0
  7  6  1  0
  8  2  1  0
  8  9  2  0
 10 11  1  0
 12 11  1  0
 12 13  1  0
 14 13  1  1
 14 15  1  0
 15  8  1  0
 16 14  1  0
 17 16  2  0
 19 18  1  6
 19 21  1  0
 20 19  1  0
 22 21  1  6
 22 24  1  0
 22 23  1  0
 23 16  1  0
 24 25  1  0
 26 24  2  0
M  END
$$$$
