KML.pdb
     RDKit          3D

 26 25  0  0  1  0  0  0  0  0999 V2000
   27.7617  -21.9539  -15.4390 N   0  0  0  0  0  0  0  0  0  0  0  0
   27.7865  -20.5600  -15.6360 C   0  0  1  0  0  0  0  0  0  0  0  0
   27.2505  -20.0150  -16.9177 C   0  0  0  0  0  0  0  0  0  0  0  0
   27.9080  -20.4062  -18.1710 C   0  0  0  0  0  0  0  0  0  0  0  0
   28.7026  -21.6535  -18.2206 C   0  0  0  0  0  0  0  0  0  0  0  0
   28.3181  -22.6403  -19.2779 C   0  0  0  0  0  0  0  0  0  0  0  0
   28.4212  -22.0407  -20.5772 N   0  0  0  0  0  0  0  0  0  0  0  0
   27.2076  -19.8420  -14.4675 C   0  0  0  0  0  0  0  0  0  0  0  0
   26.9001  -18.6261  -14.6175 O   0  0  0  0  0  0  0  0  0  0  0  0
   22.5041  -21.8584  -14.4841 C   0  0  0  0  0  0  0  0  0  0  0  0
   22.0804  -21.1430  -12.8935 S   0  0  0  0  0  0  0  0  0  0  0  0
   23.3550  -19.8651  -12.4883 C   0  0  0  0  0  0  0  0  0  0  0  0
   24.5791  -20.2666  -13.2352 C   0  0  0  0  0  0  0  0  0  0  0  0
   25.8245  -20.0171  -12.4194 C   0  0  2  0  0  0  0  0  0  0  0  0
   26.9886  -20.4281  -13.2277 N   0  0  0  0  0  0  0  0  0  0  0  0
   25.8054  -20.7746  -11.1485 C   0  0  0  0  0  0  0  0  0  0  0  0
   25.8857  -22.0571  -11.1572 O   0  0  0  0  0  0  0  0  0  0  0  0
   28.5623  -20.5962   -8.0983 C   0  0  0  0  0  0  0  0  0  0  0  0
   27.5260  -19.4897   -7.9382 C   0  0  2  0  0  0  0  0  0  0  0  0
   27.9175  -18.5160   -6.8734 C   0  0  0  0  0  0  0  0  0  0  0  0
   26.2233  -20.1309   -7.5773 C   0  0  0  0  0  0  0  0  0  0  0  0
   25.6484  -21.0010   -8.6731 C   0  0  2  0  0  0  0  0  0  0  0  0
   25.7077  -20.1432   -9.8812 N   0  0  0  0  0  0  0  0  0  0  0  0
   24.2639  -21.3516   -8.3335 C   0  0  0  0  0  0  0  0  0  0  0  0
   23.2362  -20.8986   -9.1365 O   0  0  0  0  0  0  0  0  0  0  0  0
   23.9855  -22.0480   -7.3384 O   0  0  0  0  0  0  0  0  0  0  0  0
  2  1  1  1
  3  4  1  0
  3  2  1  0
  4  5  1  0
  6  5  1  0
  7  6  1  0
  8  2  1  0
  8  9  2  0
 10 11  1  0
 12 11  1  0
 12 13  1  0
 14 13  1  6
 14 15  1  0
 15  8  1  0
 16 14  1  0
 17 16  2  0
 19 18  1  1
 19 21  1  0
 20 19  1  0
 22 21  1  1
 22 24  1  0
 22 23  1  0
 23 16  1  0
 24 25  1  0
 26 24  2  0
M  END
$$$$
