KML.pdb
     RDKit          3D

 26 25  0  0  1  0  0  0  0  0999 V2000
   21.5400  -17.6044  -16.8130 N   0  0  0  0  0  0  0  0  0  0  0  0
   22.8077  -18.0661  -16.4101 C   0  0  1  0  0  0  0  0  0  0  0  0
   24.0107  -17.2839  -16.8199 C   0  0  0  0  0  0  0  0  0  0  0  0
   24.5734  -17.5186  -18.1557 C   0  0  0  0  0  0  0  0  0  0  0  0
   24.5992  -18.8918  -18.7065 C   0  0  0  0  0  0  0  0  0  0  0  0
   25.1815  -19.0432  -20.0767 C   0  0  0  0  0  0  0  0  0  0  0  0
   25.1746  -20.4231  -20.4691 N   0  0  0  0  0  0  0  0  0  0  0  0
   22.8337  -18.3594  -14.9509 C   0  0  0  0  0  0  0  0  0  0  0  0
   22.8800  -17.3800  -14.1547 O   0  0  0  0  0  0  0  0  0  0  0  0
   19.6790  -22.6070  -12.1555 C   0  0  0  0  0  0  0  0  0  0  0  0
   20.8106  -22.5335  -10.7644 S   0  0  0  0  0  0  0  0  0  0  0  0
   22.0154  -21.1668  -11.0844 C   0  0  0  0  0  0  0  0  0  0  0  0
   21.9730  -20.9286  -12.5538 C   0  0  0  0  0  0  0  0  0  0  0  0
   22.9240  -19.8280  -12.9575 C   0  0  2  0  0  0  0  0  0  0  0  0
   22.8115  -19.6412  -14.4170 N   0  0  0  0  0  0  0  0  0  0  0  0
   24.3220  -20.1569  -12.6016 C   0  0  0  0  0  0  0  0  0  0  0  0
   25.0434  -20.8649  -13.3952 O   0  0  0  0  0  0  0  0  0  0  0  0
   27.5342  -19.9353   -7.5404 C   0  0  0  0  0  0  0  0  0  0  0  0
   27.6308  -20.3432   -9.0061 C   0  0  2  0  0  0  0  0  0  0  0  0
   29.0005  -20.1057   -9.5564 C   0  0  0  0  0  0  0  0  0  0  0  0
   26.6344  -19.5331   -9.7736 C   0  0  0  0  0  0  0  0  0  0  0  0
   26.3507  -20.0699  -11.1593 C   0  0  2  0  0  0  0  0  0  0  0  0
   24.9313  -19.7138  -11.3987 N   0  0  0  0  0  0  0  0  0  0  0  0
   26.5448  -21.5250  -11.1614 C   0  0  0  0  0  0  0  0  0  0  0  0
   25.6065  -22.3323  -10.5498 O   0  0  0  0  0  0  0  0  0  0  0  0
   27.5346  -22.0571  -11.6999 O   0  0  0  0  0  0  0  0  0  0  0  0
  2  1  1  1
  3  4  1  0
  3  2  1  0
  4  5  1  0
  6  5  1  0
  7  6  1  0
  8  2  1  0
  8  9  2  0
 10 11  1  0
 12 11  1  0
 12 13  1  0
 14 13  1  6
 14 15  1  0
 15  8  1  0
 16 14  1  0
 17 16  2  0
 19 18  1  1
 19 21  1  0
 20 19  1  0
 22 21  1  1
 22 24  1  0
 22 23  1  0
 23 16  1  0
 24 25  1  0
 26 24  2  0
M  END
$$$$
