KML.pdb
     RDKit          3D

 26 25  0  0  1  0  0  0  0  0999 V2000
   27.3433  -24.1691  -15.0791 N   0  0  0  0  0  0  0  0  0  0  0  0
   26.2419  -23.2936  -15.1325 C   0  0  1  0  0  0  0  0  0  0  0  0
   25.1397  -23.5979  -16.0914 C   0  0  0  0  0  0  0  0  0  0  0  0
   25.4217  -24.5009  -17.2144 C   0  0  0  0  0  0  0  0  0  0  0  0
   25.1269  -25.9450  -17.0824 C   0  0  0  0  0  0  0  0  0  0  0  0
   25.3161  -26.7733  -18.3142 C   0  0  0  0  0  0  0  0  0  0  0  0
   24.9968  -28.1455  -18.0434 N   0  0  0  0  0  0  0  0  0  0  0  0
   25.7048  -23.0225  -13.7709 C   0  0  0  0  0  0  0  0  0  0  0  0
   24.8505  -23.8275  -13.3045 O   0  0  0  0  0  0  0  0  0  0  0  0
   26.6795  -19.6203   -6.8255 C   0  0  0  0  0  0  0  0  0  0  0  0
   27.2535  -19.8820   -8.5057 S   0  0  0  0  0  0  0  0  0  0  0  0
   25.9136  -20.7570   -9.4335 C   0  0  0  0  0  0  0  0  0  0  0  0
   26.4450  -20.9633  -10.8091 C   0  0  0  0  0  0  0  0  0  0  0  0
   25.4748  -21.7480  -11.6588 C   0  0  2  0  0  0  0  0  0  0  0  0
   26.0857  -21.9405  -12.9881 N   0  0  0  0  0  0  0  0  0  0  0  0
   24.1806  -21.0449  -11.8000 C   0  0  0  0  0  0  0  0  0  0  0  0
   23.5219  -20.6841  -10.7573 O   0  0  0  0  0  0  0  0  0  0  0  0
   23.1326  -17.6991  -14.6419 C   0  0  0  0  0  0  0  0  0  0  0  0
   23.0329  -19.0676  -15.3063 C   0  0  2  0  0  0  0  0  0  0  0  0
   22.6349  -18.9564  -16.7432 C   0  0  0  0  0  0  0  0  0  0  0  0
   22.0085  -19.8645  -14.5622 C   0  0  0  0  0  0  0  0  0  0  0  0
   22.3111  -20.0208  -13.0883 C   0  0  2  0  0  0  0  0  0  0  0  0
   23.6127  -20.7308  -13.0622 N   0  0  0  0  0  0  0  0  0  0  0  0
   21.2525  -20.8216  -12.4613 C   0  0  0  0  0  0  0  0  0  0  0  0
   20.2414  -20.1828  -11.7715 O   0  0  0  0  0  0  0  0  0  0  0  0
   21.2377  -22.0656  -12.5320 O   0  0  0  0  0  0  0  0  0  0  0  0
  2  1  1  1
  3  4  1  0
  3  2  1  0
  4  5  1  0
  6  5  1  0
  7  6  1  0
  8  2  1  0
  8  9  2  0
 10 11  1  0
 12 11  1  0
 12 13  1  0
 14 13  1  1
 14 15  1  0
 15  8  1  0
 16 14  1  0
 17 16  2  0
 19 18  1  1
 19 21  1  0
 20 19  1  0
 22 21  1  6
 22 24  1  0
 22 23  1  0
 23 16  1  0
 24 25  1  0
 26 24  2  0
M  END
$$$$
