KML.pdb
     RDKit          3D

 26 25  0  0  1  0  0  0  0  0999 V2000
   28.3685  -21.7744  -15.8108 N   0  0  0  0  0  0  0  0  0  0  0  0
   28.1319  -20.7441  -14.8808 C   0  0  1  0  0  0  0  0  0  0  0  0
   27.9713  -19.3510  -15.3911 C   0  0  0  0  0  0  0  0  0  0  0  0
   27.6291  -19.1617  -16.8064 C   0  0  0  0  0  0  0  0  0  0  0  0
   27.6277  -17.7983  -17.3816 C   0  0  0  0  0  0  0  0  0  0  0  0
   27.2608  -17.6921  -18.8285 C   0  0  0  0  0  0  0  0  0  0  0  0
   27.3122  -16.3230  -19.2542 N   0  0  0  0  0  0  0  0  0  0  0  0
   27.0256  -21.1028  -13.9516 C   0  0  0  0  0  0  0  0  0  0  0  0
   26.0893  -21.8214  -14.4014 O   0  0  0  0  0  0  0  0  0  0  0  0
   26.4336  -19.1904   -7.7579 C   0  0  0  0  0  0  0  0  0  0  0  0
   25.7129  -20.8335   -7.7138 S   0  0  0  0  0  0  0  0  0  0  0  0
   25.1024  -21.2313   -9.4141 C   0  0  0  0  0  0  0  0  0  0  0  0
   26.2011  -20.8371  -10.3387 C   0  0  0  0  0  0  0  0  0  0  0  0
   25.8458  -21.1444  -11.7734 C   0  0  2  0  0  0  0  0  0  0  0  0
   26.9629  -20.6940  -12.6259 N   0  0  0  0  0  0  0  0  0  0  0  0
   24.5975  -20.4646  -12.1841 C   0  0  0  0  0  0  0  0  0  0  0  0
   24.5942  -19.2008  -12.4172 O   0  0  0  0  0  0  0  0  0  0  0  0
   22.5248  -22.3245  -15.8364 C   0  0  0  0  0  0  0  0  0  0  0  0
   21.8680  -22.1144  -14.4768 C   0  0  2  0  0  0  0  0  0  0  0  0
   20.4417  -22.5625  -14.4772 C   0  0  0  0  0  0  0  0  0  0  0  0
   21.9351  -20.6545  -14.1564 C   0  0  0  0  0  0  0  0  0  0  0  0
   22.1607  -20.3626  -12.6893 C   0  0  2  0  0  0  0  0  0  0  0  0
   23.3674  -21.1536  -12.3471 N   0  0  0  0  0  0  0  0  0  0  0  0
   20.9917  -20.8120  -11.9234 C   0  0  0  0  0  0  0  0  0  0  0  0
   19.7852  -20.1614  -12.0886 O   0  0  0  0  0  0  0  0  0  0  0  0
   21.0544  -21.7664  -11.1245 O   0  0  0  0  0  0  0  0  0  0  0  0
  2  1  1  6
  3  4  1  0
  3  2  1  0
  4  5  1  0
  6  5  1  0
  7  6  1  0
  8  2  1  0
  8  9  2  0
 10 11  1  0
 12 11  1  0
 12 13  1  0
 14 13  1  1
 14 15  1  0
 15  8  1  0
 16 14  1  0
 17 16  2  0
 19 18  1  6
 19 21  1  0
 20 19  1  0
 22 21  1  6
 22 24  1  0
 22 23  1  0
 23 16  1  0
 24 25  1  0
 26 24  2  0
M  END
$$$$
