KML.pdb
     RDKit          3D

 26 25  0  0  1  0  0  0  0  0999 V2000
   24.5659  -18.2323  -15.2963 N   0  0  0  0  0  0  0  0  0  0  0  0
   23.8555  -19.4460  -15.3643 C   0  0  1  0  0  0  0  0  0  0  0  0
   23.3505  -19.8990  -16.6935 C   0  0  0  0  0  0  0  0  0  0  0  0
   22.4658  -19.0009  -17.4463 C   0  0  0  0  0  0  0  0  0  0  0  0
   21.0728  -18.7966  -16.9904 C   0  0  0  0  0  0  0  0  0  0  0  0
   20.2341  -17.8765  -17.8207 C   0  0  0  0  0  0  0  0  0  0  0  0
   18.9439  -17.7019  -17.2182 N   0  0  0  0  0  0  0  0  0  0  0  0
   24.5924  -20.5391  -14.6727 C   0  0  0  0  0  0  0  0  0  0  0  0
   24.1759  -21.7210  -14.8310 O   0  0  0  0  0  0  0  0  0  0  0  0
   30.2878  -19.9168  -12.2809 C   0  0  0  0  0  0  0  0  0  0  0  0
   30.2445  -20.6487  -13.9191 S   0  0  0  0  0  0  0  0  0  0  0  0
   28.4834  -21.0549  -14.3129 C   0  0  0  0  0  0  0  0  0  0  0  0
   27.7949  -21.1775  -12.9982 C   0  0  0  0  0  0  0  0  0  0  0  0
   26.3268  -21.4813  -13.1753 C   0  0  2  0  0  0  0  0  0  0  0  0
   25.7046  -20.3356  -13.8665 N   0  0  0  0  0  0  0  0  0  0  0  0
   25.6554  -21.7064  -11.8762 C   0  0  0  0  0  0  0  0  0  0  0  0
   25.5014  -22.8995  -11.4244 O   0  0  0  0  0  0  0  0  0  0  0  0
   26.4715  -21.6011   -7.9075 C   0  0  0  0  0  0  0  0  0  0  0  0
   26.2945  -20.1930   -8.4642 C   0  0  2  0  0  0  0  0  0  0  0  0
   26.6963  -19.1513   -7.4700 C   0  0  0  0  0  0  0  0  0  0  0  0
   24.8514  -20.0185   -8.8183 C   0  0  0  0  0  0  0  0  0  0  0  0
   24.3618  -20.9856   -9.8735 C   0  0  2  0  0  0  0  0  0  0  0  0
   25.1637  -20.6443  -11.0733 N   0  0  0  0  0  0  0  0  0  0  0  0
   22.9299  -20.7610  -10.1058 C   0  0  0  0  0  0  0  0  0  0  0  0
   22.0235  -21.1108   -9.1247 O   0  0  0  0  0  0  0  0  0  0  0  0
   22.5043  -20.2626  -11.1657 O   0  0  0  0  0  0  0  0  0  0  0  0
  2  1  1  6
  3  4  1  0
  3  2  1  0
  4  5  1  0
  6  5  1  0
  7  6  1  0
  8  2  1  0
  8  9  2  0
 10 11  1  0
 12 11  1  0
 12 13  1  0
 14 13  1  1
 14 15  1  0
 15  8  1  0
 16 14  1  0
 17 16  2  0
 19 18  1  1
 19 21  1  0
 20 19  1  0
 22 21  1  1
 22 24  1  0
 22 23  1  0
 23 16  1  0
 24 25  1  0
 26 24  2  0
M  END
$$$$
