KML.pdb
     RDKit          3D

 26 25  0  0  1  0  0  0  0  0999 V2000
   28.1169  -21.7401  -14.8112 N   0  0  0  0  0  0  0  0  0  0  0  0
   27.5640  -20.6686  -14.0842 C   0  0  1  0  0  0  0  0  0  0  0  0
   26.9964  -19.5151  -14.8421 C   0  0  0  0  0  0  0  0  0  0  0  0
   27.7803  -18.9552  -15.9503 C   0  0  0  0  0  0  0  0  0  0  0  0
   28.5368  -19.8626  -16.8415 C   0  0  0  0  0  0  0  0  0  0  0  0
   29.2739  -19.2156  -17.9717 C   0  0  0  0  0  0  0  0  0  0  0  0
   29.9514  -20.2082  -18.7552 N   0  0  0  0  0  0  0  0  0  0  0  0
   26.6040  -21.1557  -13.0561 C   0  0  0  0  0  0  0  0  0  0  0  0
   25.9014  -22.1664  -13.3393 O   0  0  0  0  0  0  0  0  0  0  0  0
   27.1949  -18.5495   -7.3424 C   0  0  0  0  0  0  0  0  0  0  0  0
   27.1983  -20.3426   -7.2633 S   0  0  0  0  0  0  0  0  0  0  0  0
   27.0798  -20.9872   -8.9931 C   0  0  0  0  0  0  0  0  0  0  0  0
   25.7480  -20.5495   -9.4955 C   0  0  0  0  0  0  0  0  0  0  0  0
   25.4595  -21.1299  -10.8589 C   0  0  2  0  0  0  0  0  0  0  0  0
   26.4359  -20.5653  -11.8104 N   0  0  0  0  0  0  0  0  0  0  0  0
   24.0849  -20.8146  -11.3065 C   0  0  0  0  0  0  0  0  0  0  0  0
   23.0785  -21.1036  -10.5617 O   0  0  0  0  0  0  0  0  0  0  0  0
   20.4169  -20.2092  -15.0494 C   0  0  0  0  0  0  0  0  0  0  0  0
   21.1376  -18.8849  -14.8240 C   0  0  2  0  0  0  0  0  0  0  0  0
   21.3253  -18.1334  -16.1028 C   0  0  0  0  0  0  0  0  0  0  0  0
   22.4722  -19.1869  -14.2190 C   0  0  0  0  0  0  0  0  0  0  0  0
   22.3914  -19.9466  -12.9134 C   0  0  2  0  0  0  0  0  0  0  0  0
   23.8087  -20.1847  -12.5480 N   0  0  0  0  0  0  0  0  0  0  0  0
   21.6767  -21.2097  -13.1343 C   0  0  0  0  0  0  0  0  0  0  0  0
   20.3767  -21.3373  -12.6870 O   0  0  0  0  0  0  0  0  0  0  0  0
   22.2088  -22.1752  -13.7152 O   0  0  0  0  0  0  0  0  0  0  0  0
  2  1  1  6
  3  4  1  0
  3  2  1  0
  4  5  1  0
  6  5  1  0
  7  6  1  0
  8  2  1  0
  8  9  2  0
 10 11  1  0
 12 11  1  0
 12 13  1  0
 14 13  1  1
 14 15  1  0
 15  8  1  0
 16 14  1  0
 17 16  2  0
 19 18  1  6
 19 21  1  0
 20 19  1  0
 22 21  1  6
 22 24  1  0
 22 23  1  0
 23 16  1  0
 24 25  1  0
 26 24  2  0
M  END
$$$$
