KML.pdb
     RDKit          3D

 26 25  0  0  1  0  0  0  0  0999 V2000
   27.9790  -21.6933  -16.9755 N   0  0  0  0  0  0  0  0  0  0  0  0
   27.5337  -20.5973  -16.2120 C   0  0  1  0  0  0  0  0  0  0  0  0
   26.8827  -19.4567  -16.9208 C   0  0  0  0  0  0  0  0  0  0  0  0
   27.6185  -18.8005  -18.0089 C   0  0  0  0  0  0  0  0  0  0  0  0
   29.0565  -18.4958  -17.8386 C   0  0  0  0  0  0  0  0  0  0  0  0
   29.7296  -17.8190  -18.9911 C   0  0  0  0  0  0  0  0  0  0  0  0
   31.0818  -17.4835  -18.6487 N   0  0  0  0  0  0  0  0  0  0  0  0
   26.7104  -21.0470  -15.0561 C   0  0  0  0  0  0  0  0  0  0  0  0
   25.8538  -21.9523  -15.2609 O   0  0  0  0  0  0  0  0  0  0  0  0
   25.3550  -20.7420   -7.3292 C   0  0  0  0  0  0  0  0  0  0  0  0
   26.3218  -20.1938   -8.7385 S   0  0  0  0  0  0  0  0  0  0  0  0
   25.5616  -20.9144  -10.2632 C   0  0  0  0  0  0  0  0  0  0  0  0
   26.4296  -20.4768  -11.3912 C   0  0  0  0  0  0  0  0  0  0  0  0
   25.9079  -20.9865  -12.7130 C   0  0  2  0  0  0  0  0  0  0  0  0
   26.8281  -20.5303  -13.7725 N   0  0  0  0  0  0  0  0  0  0  0  0
   24.5418  -20.4895  -12.9887 C   0  0  0  0  0  0  0  0  0  0  0  0
   24.3428  -19.2444  -13.2366 O   0  0  0  0  0  0  0  0  0  0  0  0
   20.1387  -21.7068  -16.4797 C   0  0  0  0  0  0  0  0  0  0  0  0
   20.4079  -20.9190  -15.2027 C   0  0  2  0  0  0  0  0  0  0  0  0
   20.3908  -19.4445  -15.4493 C   0  0  0  0  0  0  0  0  0  0  0  0
   21.7525  -21.3260  -14.6883 C   0  0  0  0  0  0  0  0  0  0  0  0
   22.0881  -20.7436  -13.3330 C   0  0  2  0  0  0  0  0  0  0  0  0
   23.4051  -21.3394  -13.0022 N   0  0  0  0  0  0  0  0  0  0  0  0
   21.0600  -21.1486  -12.3666 C   0  0  0  0  0  0  0  0  0  0  0  0
   19.9935  -20.3066  -12.1224 O   0  0  0  0  0  0  0  0  0  0  0  0
   21.1200  -22.2335  -11.7563 O   0  0  0  0  0  0  0  0  0  0  0  0
  2  1  1  6
  3  4  1  0
  3  2  1  0
  4  5  1  0
  6  5  1  0
  7  6  1  0
  8  2  1  0
  8  9  2  0
 10 11  1  0
 12 11  1  0
 12 13  1  0
 14 13  1  1
 14 15  1  0
 15  8  1  0
 16 14  1  0
 17 16  2  0
 19 18  1  6
 19 21  1  0
 20 19  1  0
 22 21  1  6
 22 24  1  0
 22 23  1  0
 23 16  1  0
 24 25  1  0
 26 24  2  0
M  END
$$$$
