KML.pdb
     RDKit          3D

 26 25  0  0  1  0  0  0  0  0999 V2000
   28.1687  -18.6601  -16.1279 N   0  0  0  0  0  0  0  0  0  0  0  0
   27.6625  -18.5919  -14.8158 C   0  0  1  0  0  0  0  0  0  0  0  0
   26.2543  -18.1377  -14.6214 C   0  0  0  0  0  0  0  0  0  0  0  0
   25.8487  -16.8534  -15.2063 C   0  0  0  0  0  0  0  0  0  0  0  0
   25.2401  -16.8246  -16.5549 C   0  0  0  0  0  0  0  0  0  0  0  0
   24.8253  -15.4800  -17.0640 C   0  0  0  0  0  0  0  0  0  0  0  0
   24.2634  -15.5988  -18.3786 N   0  0  0  0  0  0  0  0  0  0  0  0
   27.9228  -19.8556  -14.0734 C   0  0  0  0  0  0  0  0  0  0  0  0
   27.4931  -20.9320  -14.5755 O   0  0  0  0  0  0  0  0  0  0  0  0
   32.8912  -21.5662  -10.7993 C   0  0  0  0  0  0  0  0  0  0  0  0
   31.7247  -22.2666   -9.6288 S   0  0  0  0  0  0  0  0  0  0  0  0
   30.0836  -22.3973  -10.4723 C   0  0  0  0  0  0  0  0  0  0  0  0
   29.9657  -21.1752  -11.3150 C   0  0  0  0  0  0  0  0  0  0  0  0
   28.7085  -21.2054  -12.1501 C   0  0  2  0  0  0  0  0  0  0  0  0
   28.6060  -19.9192  -12.8660 N   0  0  0  0  0  0  0  0  0  0  0  0
   27.5039  -21.4109  -11.3158 C   0  0  0  0  0  0  0  0  0  0  0  0
   27.2861  -22.5494  -10.7612 O   0  0  0  0  0  0  0  0  0  0  0  0
   25.9345  -21.7452   -7.5075 C   0  0  0  0  0  0  0  0  0  0  0  0
   26.5437  -20.4326   -7.9873 C   0  0  2  0  0  0  0  0  0  0  0  0
   26.7518  -19.4750   -6.8582 C   0  0  0  0  0  0  0  0  0  0  0  0
   25.6079  -19.8322   -8.9883 C   0  0  0  0  0  0  0  0  0  0  0  0
   25.3892  -20.6948  -10.2117 C   0  0  2  0  0  0  0  0  0  0  0  0
   26.5503  -20.3862  -11.0810 N   0  0  0  0  0  0  0  0  0  0  0  0
   24.1250  -20.3115  -10.8518 C   0  0  0  0  0  0  0  0  0  0  0  0
   22.9329  -20.5927  -10.2147 O   0  0  0  0  0  0  0  0  0  0  0  0
   24.0936  -19.7380  -11.9577 O   0  0  0  0  0  0  0  0  0  0  0  0
  2  1  1  6
  3  4  1  0
  3  2  1  0
  4  5  1  0
  6  5  1  0
  7  6  1  0
  8  2  1  0
  8  9  2  0
 10 11  1  0
 12 11  1  0
 12 13  1  0
 14 13  1  1
 14 15  1  0
 15  8  1  0
 16 14  1  0
 17 16  2  0
 19 18  1  1
 19 21  1  0
 20 19  1  0
 22 21  1  1
 22 24  1  0
 22 23  1  0
 23 16  1  0
 24 25  1  0
 26 24  2  0
M  END
$$$$
