KML.pdb
     RDKit          3D

 26 25  0  0  1  0  0  0  0  0999 V2000
   24.8852  -21.4993  -14.5477 N   0  0  0  0  0  0  0  0  0  0  0  0
   26.1138  -22.0505  -14.1362 C   0  0  1  0  0  0  0  0  0  0  0  0
   27.1908  -22.2224  -15.1547 C   0  0  0  0  0  0  0  0  0  0  0  0
   27.0538  -23.3034  -16.1390 C   0  0  0  0  0  0  0  0  0  0  0  0
   25.8019  -23.4276  -16.9181 C   0  0  0  0  0  0  0  0  0  0  0  0
   25.7519  -24.5426  -17.9150 C   0  0  0  0  0  0  0  0  0  0  0  0
   26.9718  -24.5895  -18.6686 N   0  0  0  0  0  0  0  0  0  0  0  0
   26.6320  -21.3613  -12.9228 C   0  0  0  0  0  0  0  0  0  0  0  0
   27.7922  -21.6633  -12.5252 O   0  0  0  0  0  0  0  0  0  0  0  0
   27.8644  -16.0841   -9.1798 C   0  0  0  0  0  0  0  0  0  0  0  0
   26.8638  -15.8264  -10.6473 S   0  0  0  0  0  0  0  0  0  0  0  0
   26.9252  -17.3761  -11.6554 C   0  0  0  0  0  0  0  0  0  0  0  0
   26.0096  -18.3344  -10.9767 C   0  0  0  0  0  0  0  0  0  0  0  0
   26.5431  -19.7449  -11.0473 C   0  0  2  0  0  0  0  0  0  0  0  0
   25.9169  -20.4114  -12.2053 N   0  0  0  0  0  0  0  0  0  0  0  0
   26.2456  -20.5034   -9.8123 C   0  0  0  0  0  0  0  0  0  0  0  0
   25.2252  -21.2827   -9.7603 O   0  0  0  0  0  0  0  0  0  0  0  0
   29.2671  -21.9340   -6.7072 C   0  0  0  0  0  0  0  0  0  0  0  0
   28.8651  -20.4689   -6.5822 C   0  0  2  0  0  0  0  0  0  0  0  0
   29.6016  -19.7865   -5.4744 C   0  0  0  0  0  0  0  0  0  0  0  0
   27.3944  -20.4188   -6.3123 C   0  0  0  0  0  0  0  0  0  0  0  0
   26.5535  -21.0477   -7.4013 C   0  0  2  0  0  0  0  0  0  0  0  0
   27.0540  -20.4210   -8.6486 N   0  0  0  0  0  0  0  0  0  0  0  0
   25.1413  -20.7216   -7.1684 C   0  0  0  0  0  0  0  0  0  0  0  0
   24.4329  -21.4284   -6.2172 O   0  0  0  0  0  0  0  0  0  0  0  0
   24.5586  -19.8230   -7.8056 O   0  0  0  0  0  0  0  0  0  0  0  0
  2  1  1  6
  3  4  1  0
  3  2  1  0
  4  5  1  0
  6  5  1  0
  7  6  1  0
  8  2  1  0
  8  9  2  0
 10 11  1  0
 12 11  1  0
 12 13  1  0
 14 13  1  1
 14 15  1  0
 15  8  1  0
 16 14  1  0
 17 16  2  0
 19 18  1  1
 19 21  1  0
 20 19  1  0
 22 21  1  1
 22 24  1  0
 22 23  1  0
 23 16  1  0
 24 25  1  0
 26 24  2  0
M  END
$$$$
