VGR.pdb
     RDKit          3D

 23 22  0  0  1  0  0  0  0  0999 V2000
    7.8777  -13.4010   21.2735 C   0  0  0  0  0  0  0  0  0  0  0  0
    8.3962  -13.0795   19.8914 C   0  0  2  0  0  0  0  0  0  0  0  0
    7.4806  -12.1096   19.1750 C   0  0  0  0  0  0  0  0  0  0  0  0
    8.5374  -14.3711   19.0898 C   0  0  2  0  0  0  0  0  0  0  0  0
    7.2682  -15.0559   19.0392 N   0  0  0  0  0  0  0  0  0  0  0  0
    9.5395  -15.2632   19.7222 C   0  0  0  0  0  0  0  0  0  0  0  0
   10.7628  -14.9085   19.7752 O   0  0  0  0  0  0  0  0  0  0  0  0
    9.1875  -16.5137   20.2795 N   0  0  0  0  0  0  0  0  0  0  0  0
   10.1568  -17.3528   20.9377 C   0  0  0  0  0  0  0  0  0  0  0  0
   10.3826  -16.8549   22.3281 C   0  0  0  0  0  0  0  0  0  0  0  0
   11.1252  -15.8497   22.5126 O   0  0  0  0  0  0  0  0  0  0  0  0
    5.4165  -12.9956   27.0305 N   0  0  0  0  0  0  0  0  0  0  0  0
    6.3185  -12.3373   26.1448 C   0  0  0  0  0  0  0  0  0  0  0  0
    6.1860  -11.0724   25.9639 N   0  0  0  0  0  0  0  0  0  0  0  0
    7.3292  -13.0927   25.4933 N   0  0  0  0  0  0  0  0  0  0  0  0
    7.5391  -14.4675   25.9163 C   0  0  0  0  0  0  0  0  0  0  0  0
    8.6337  -15.0559   25.0433 C   0  0  0  0  0  0  0  0  0  0  0  0
    8.9614  -16.4447   25.5237 C   0  0  0  0  0  0  0  0  0  0  0  0
   10.1342  -17.0485   24.7845 C   0  0  2  0  0  0  0  0  0  0  0  0
    9.7894  -17.4741   23.4568 N   0  0  0  0  0  0  0  0  0  0  0  0
   10.5875  -18.2011   25.5876 C   0  0  0  0  0  0  0  0  0  0  0  0
   11.2648  -17.9721   26.7634 O   0  0  0  0  0  0  0  0  0  0  0  0
   10.3693  -19.3719   25.2223 O   0  0  0  0  0  0  0  0  0  0  0  0
  2  1  1  1
  3  2  1  0
  4  2  1  0
  4  5  1  1
  6  4  1  0
  7  6  2  0
  8  6  1  0
  9  8  1  0
 10  9  1  0
 10 20  1  0
 11 10  2  0
 13 12  1  0
 14 13  2  0
 15 13  1  0
 16 15  1  0
 17 16  1  0
 18 17  1  0
 19 18  1  1
 19 21  1  0
 20 19  1  0
 21 23  2  0
 21 22  1  0
M  END
$$$$
