VGR.pdb
     RDKit          3D

 23 22  0  0  1  0  0  0  0  0999 V2000
    7.0054  -12.8784   18.8565 C   0  0  0  0  0  0  0  0  0  0  0  0
    8.3383  -12.6210   19.5195 C   0  0  2  0  0  0  0  0  0  0  0  0
    9.3297  -12.0249   18.5427 C   0  0  0  0  0  0  0  0  0  0  0  0
    8.8779  -13.9272   20.0971 C   0  0  2  0  0  0  0  0  0  0  0  0
    8.9634  -14.9231   19.0563 N   0  0  0  0  0  0  0  0  0  0  0  0
    7.9807  -14.4269   21.1673 C   0  0  0  0  0  0  0  0  0  0  0  0
    7.8970  -13.7969   22.2723 O   0  0  0  0  0  0  0  0  0  0  0  0
    7.1996  -15.5944   21.0094 N   0  0  0  0  0  0  0  0  0  0  0  0
    6.2460  -16.0119   22.0061 C   0  0  0  0  0  0  0  0  0  0  0  0
    6.9736  -16.5097   23.2123 C   0  0  0  0  0  0  0  0  0  0  0  0
    6.3152  -16.8508   24.2351 O   0  0  0  0  0  0  0  0  0  0  0  0
   14.7884  -20.2435   25.4028 N   0  0  0  0  0  0  0  0  0  0  0  0
   13.5228  -20.7675   25.7965 C   0  0  0  0  0  0  0  0  0  0  0  0
   13.3745  -22.0427   25.8410 N   0  0  0  0  0  0  0  0  0  0  0  0
   12.4710  -19.8719   26.1256 N   0  0  0  0  0  0  0  0  0  0  0  0
   11.6130  -19.3965   25.0528 C   0  0  0  0  0  0  0  0  0  0  0  0
   11.2034  -17.9729   25.3872 C   0  0  0  0  0  0  0  0  0  0  0  0
   10.5275  -17.3552   24.1921 C   0  0  0  0  0  0  0  0  0  0  0  0
    9.0437  -17.1583   24.4067 C   0  0  2  0  0  0  0  0  0  0  0  0
    8.3866  -16.6143   23.2513 N   0  0  0  0  0  0  0  0  0  0  0  0
    8.9044  -16.2384   25.5527 C   0  0  0  0  0  0  0  0  0  0  0  0
    9.0873  -16.7247   26.8270 O   0  0  0  0  0  0  0  0  0  0  0  0
    8.6254  -15.0354   25.3885 O   0  0  0  0  0  0  0  0  0  0  0  0
  2  1  1  6
  3  2  1  0
  4  2  1  0
  4  5  1  6
  6  4  1  0
  7  6  2  0
  8  6  1  0
  9  8  1  0
 10  9  1  0
 10 20  1  0
 11 10  2  0
 13 12  1  0
 14 13  2  0
 15 13  1  0
 16 15  1  0
 17 16  1  0
 18 17  1  0
 19 18  1  6
 19 21  1  0
 20 19  1  0
 21 23  2  0
 21 22  1  0
M  END
$$$$
