VGR.pdb
     RDKit          3D

 23 22  0  0  1  0  0  0  0  0999 V2000
    8.4187  -13.8430   17.9533 C   0  0  0  0  0  0  0  0  0  0  0  0
    7.8102  -13.5936   19.3135 C   0  0  2  0  0  0  0  0  0  0  0  0
    7.9613  -12.1441   19.7236 C   0  0  0  0  0  0  0  0  0  0  0  0
    8.4709  -14.5103   20.3402 C   0  0  2  0  0  0  0  0  0  0  0  0
    8.1605  -15.8866   20.0375 N   0  0  0  0  0  0  0  0  0  0  0  0
    7.9791  -14.1957   21.7037 C   0  0  0  0  0  0  0  0  0  0  0  0
    8.3793  -13.1403   22.2961 O   0  0  0  0  0  0  0  0  0  0  0  0
    7.0677  -15.0335   22.3861 N   0  0  0  0  0  0  0  0  0  0  0  0
    6.5790  -14.7119   23.7032 C   0  0  0  0  0  0  0  0  0  0  0  0
    7.4790  -15.3196   24.7293 C   0  0  0  0  0  0  0  0  0  0  0  0
    7.7478  -14.6702   25.7791 O   0  0  0  0  0  0  0  0  0  0  0  0
    6.8061  -22.7482   23.3230 N   0  0  0  0  0  0  0  0  0  0  0  0
    5.7638  -22.2446   24.1545 C   0  0  0  0  0  0  0  0  0  0  0  0
    4.5723  -22.6931   23.9830 N   0  0  0  0  0  0  0  0  0  0  0  0
    6.0703  -21.2695   25.1403 N   0  0  0  0  0  0  0  0  0  0  0  0
    7.4346  -20.7734   25.2147 C   0  0  0  0  0  0  0  0  0  0  0  0
    7.3676  -19.2738   25.4450 C   0  0  0  0  0  0  0  0  0  0  0  0
    8.7643  -18.7267   25.5738 C   0  0  0  0  0  0  0  0  0  0  0  0
    8.7881  -17.2160   25.6361 C   0  0  2  0  0  0  0  0  0  0  0  0
    8.0466  -16.6081   24.5668 N   0  0  0  0  0  0  0  0  0  0  0  0
   10.2071  -16.8158   25.5643 C   0  0  0  0  0  0  0  0  0  0  0  0
   10.6475  -16.1062   24.4707 O   0  0  0  0  0  0  0  0  0  0  0  0
   11.0098  -17.1073   26.4713 O   0  0  0  0  0  0  0  0  0  0  0  0
  2  1  1  6
  3  2  1  0
  4  2  1  0
  4  5  1  6
  6  4  1  0
  7  6  2  0
  8  6  1  0
  9  8  1  0
 10  9  1  0
 10 20  1  0
 11 10  2  0
 13 12  1  0
 14 13  2  0
 15 13  1  0
 16 15  1  0
 17 16  1  0
 18 17  1  0
 19 18  1  6
 19 21  1  0
 20 19  1  0
 21 23  2  0
 21 22  1  0
M  END
$$$$
