VGR.pdb
     RDKit          3D

 23 22  0  0  1  0  0  0  0  0999 V2000
    7.7848  -12.2786   20.3440 C   0  0  0  0  0  0  0  0  0  0  0  0
    8.7370  -13.0037   19.4222 C   0  0  2  0  0  0  0  0  0  0  0  0
    8.3606  -12.7938   17.9708 C   0  0  0  0  0  0  0  0  0  0  0  0
    8.7383  -14.4918   19.7632 C   0  0  2  0  0  0  0  0  0  0  0  0
    7.4334  -15.0526   19.5080 N   0  0  0  0  0  0  0  0  0  0  0  0
    9.0758  -14.6924   21.1936 C   0  0  0  0  0  0  0  0  0  0  0  0
   10.2522  -14.4344   21.6114 O   0  0  0  0  0  0  0  0  0  0  0  0
    8.1290  -15.1663   22.1302 N   0  0  0  0  0  0  0  0  0  0  0  0
    8.4244  -15.2407   23.5388 C   0  0  0  0  0  0  0  0  0  0  0  0
    9.2269  -16.4703   23.8141 C   0  0  0  0  0  0  0  0  0  0  0  0
    8.6379  -17.5221   24.1920 O   0  0  0  0  0  0  0  0  0  0  0  0
   13.6714  -13.8812   18.9287 N   0  0  0  0  0  0  0  0  0  0  0  0
   14.3404  -15.0185   19.4676 C   0  0  0  0  0  0  0  0  0  0  0  0
   15.6236  -15.0545   19.4198 N   0  0  0  0  0  0  0  0  0  0  0  0
   13.5750  -16.0704   20.0373 N   0  0  0  0  0  0  0  0  0  0  0  0
   13.6802  -16.2986   21.4690 C   0  0  0  0  0  0  0  0  0  0  0  0
   12.7796  -17.4712   21.8159 C   0  0  0  0  0  0  0  0  0  0  0  0
   12.7659  -17.6642   23.3090 C   0  0  0  0  0  0  0  0  0  0  0  0
   11.3629  -17.7223   23.8699 C   0  0  2  0  0  0  0  0  0  0  0  0
   10.6362  -16.5004   23.6656 N   0  0  0  0  0  0  0  0  0  0  0  0
   11.4996  -17.9988   25.3134 C   0  0  0  0  0  0  0  0  0  0  0  0
   12.0863  -19.1766   25.7163 O   0  0  0  0  0  0  0  0  0  0  0  0
   11.0954  -17.1895   26.1699 O   0  0  0  0  0  0  0  0  0  0  0  0
  2  1  1  1
  3  2  1  0
  4  2  1  0
  4  5  1  1
  6  4  1  0
  7  6  2  0
  8  6  1  0
  9  8  1  0
 10  9  1  0
 10 20  1  0
 11 10  2  0
 13 12  1  0
 14 13  2  0
 15 13  1  0
 16 15  1  0
 17 16  1  0
 18 17  1  0
 19 18  1  1
 19 21  1  0
 20 19  1  0
 21 23  2  0
 21 22  1  0
M  END
$$$$
