VGR.pdb
     RDKit          3D

 23 22  0  0  1  0  0  0  0  0999 V2000
    8.8162  -13.0035   18.4466 C   0  0  0  0  0  0  0  0  0  0  0  0
    7.7774  -13.1379   19.5352 C   0  0  2  0  0  0  0  0  0  0  0  0
    8.3936  -12.9545   20.9059 C   0  0  0  0  0  0  0  0  0  0  0  0
    7.1071  -14.5056   19.4302 C   0  0  2  0  0  0  0  0  0  0  0  0
    6.1400  -14.6584   20.4903 N   0  0  0  0  0  0  0  0  0  0  0  0
    8.1181  -15.5851   19.5431 C   0  0  0  0  0  0  0  0  0  0  0  0
    8.9589  -15.7694   18.6029 O   0  0  0  0  0  0  0  0  0  0  0  0
    8.1893  -16.4334   20.6716 N   0  0  0  0  0  0  0  0  0  0  0  0
    9.1983  -17.4552   20.7922 C   0  0  0  0  0  0  0  0  0  0  0  0
   10.2362  -17.0156   21.7728 C   0  0  0  0  0  0  0  0  0  0  0  0
   10.9954  -16.0496   21.4790 O   0  0  0  0  0  0  0  0  0  0  0  0
   10.2542  -15.0610   29.4413 N   0  0  0  0  0  0  0  0  0  0  0  0
    9.4702  -14.3315   28.5008 C   0  0  0  0  0  0  0  0  0  0  0  0
    8.9511  -13.2160   28.8699 N   0  0  0  0  0  0  0  0  0  0  0  0
    9.2872  -14.8549   27.1934 N   0  0  0  0  0  0  0  0  0  0  0  0
   10.4207  -15.4927   26.5441 C   0  0  0  0  0  0  0  0  0  0  0  0
    9.9281  -16.7901   25.9274 C   0  0  0  0  0  0  0  0  0  0  0  0
   11.1015  -17.5584   25.3800 C   0  0  0  0  0  0  0  0  0  0  0  0
   11.4110  -17.1933   23.9456 C   0  0  2  0  0  0  0  0  0  0  0  0
   10.4016  -17.6478   23.0306 N   0  0  0  0  0  0  0  0  0  0  0  0
   12.7089  -17.8188   23.6245 C   0  0  0  0  0  0  0  0  0  0  0  0
   13.8500  -17.3376   24.2245 O   0  0  0  0  0  0  0  0  0  0  0  0
   12.7901  -18.7699   22.8241 O   0  0  0  0  0  0  0  0  0  0  0  0
  2  1  1  6
  3  2  1  0
  4  2  1  0
  4  5  1  1
  6  4  1  0
  7  6  2  0
  8  6  1  0
  9  8  1  0
 10  9  1  0
 10 20  1  0
 11 10  2  0
 13 12  1  0
 14 13  2  0
 15 13  1  0
 16 15  1  0
 17 16  1  0
 18 17  1  0
 19 18  1  1
 19 21  1  0
 20 19  1  0
 21 23  2  0
 21 22  1  0
M  END
$$$$
