VGR.pdb
     RDKit          3D

 23 22  0  0  1  0  0  0  0  0999 V2000
    7.4538  -12.5499   19.6575 C   0  0  0  0  0  0  0  0  0  0  0  0
    8.4109  -13.2431   18.7162 C   0  0  2  0  0  0  0  0  0  0  0  0
    7.8856  -13.2336   17.2963 C   0  0  0  0  0  0  0  0  0  0  0  0
    8.6401  -14.6760   19.1908 C   0  0  2  0  0  0  0  0  0  0  0  0
    7.4050  -15.4186   19.1166 N   0  0  0  0  0  0  0  0  0  0  0  0
    9.1214  -14.6834   20.5937 C   0  0  0  0  0  0  0  0  0  0  0  0
   10.2740  -14.2159   20.8728 O   0  0  0  0  0  0  0  0  0  0  0  0
    8.3400  -15.1967   21.6539 N   0  0  0  0  0  0  0  0  0  0  0  0
    8.8048  -15.1808   23.0180 C   0  0  0  0  0  0  0  0  0  0  0  0
    9.7708  -16.3012   23.2270 C   0  0  0  0  0  0  0  0  0  0  0  0
    9.3469  -17.4913   23.2305 O   0  0  0  0  0  0  0  0  0  0  0  0
   16.4076  -13.9558   19.6480 N   0  0  0  0  0  0  0  0  0  0  0  0
   15.1301  -14.5421   19.4123 C   0  0  0  0  0  0  0  0  0  0  0  0
   14.2281  -13.8339   18.8335 N   0  0  0  0  0  0  0  0  0  0  0  0
   14.8934  -15.8815   19.8208 N   0  0  0  0  0  0  0  0  0  0  0  0
   14.9015  -16.1769   21.2441 C   0  0  0  0  0  0  0  0  0  0  0  0
   13.4744  -16.4914   21.6573 C   0  0  0  0  0  0  0  0  0  0  0  0
   13.4515  -16.8837   23.1107 C   0  0  0  0  0  0  0  0  0  0  0  0
   12.0541  -17.1822   23.6053 C   0  0  2  0  0  0  0  0  0  0  0  0
   11.1564  -16.0760   23.4231 N   0  0  0  0  0  0  0  0  0  0  0  0
   12.1777  -17.5075   25.0398 C   0  0  0  0  0  0  0  0  0  0  0  0
   11.5627  -16.6957   25.9652 O   0  0  0  0  0  0  0  0  0  0  0  0
   12.8255  -18.4988   25.4265 O   0  0  0  0  0  0  0  0  0  0  0  0
  2  1  1  1
  3  2  1  0
  4  2  1  0
  4  5  1  1
  6  4  1  0
  7  6  2  0
  8  6  1  0
  9  8  1  0
 10  9  1  0
 10 20  1  0
 11 10  2  0
 13 12  1  0
 14 13  2  0
 15 13  1  0
 16 15  1  0
 17 16  1  0
 18 17  1  0
 19 18  1  1
 19 21  1  0
 20 19  1  0
 21 23  2  0
 21 22  1  0
M  END
$$$$
