VGR.pdb
     RDKit          3D

 23 22  0  0  1  0  0  0  0  0999 V2000
    7.6148  -13.8397   21.7872 C   0  0  0  0  0  0  0  0  0  0  0  0
    8.2670  -13.5295   20.4602 C   0  0  2  0  0  0  0  0  0  0  0  0
    7.4249  -12.5691   19.6474 C   0  0  0  0  0  0  0  0  0  0  0  0
    8.4898  -14.8281   19.6889 C   0  0  2  0  0  0  0  0  0  0  0  0
    7.2327  -15.5152   19.5158 N   0  0  0  0  0  0  0  0  0  0  0  0
    9.4229  -15.7129   20.4281 C   0  0  0  0  0  0  0  0  0  0  0  0
   10.6621  -15.4203   20.4895 O   0  0  0  0  0  0  0  0  0  0  0  0
    8.9866  -16.8889   21.0799 N   0  0  0  0  0  0  0  0  0  0  0  0
    9.9131  -17.8060   21.6943 C   0  0  0  0  0  0  0  0  0  0  0  0
   10.1331  -17.4109   23.1182 C   0  0  0  0  0  0  0  0  0  0  0  0
    9.4488  -16.4710   23.6124 O   0  0  0  0  0  0  0  0  0  0  0  0
   14.2213  -20.3570   31.2527 N   0  0  0  0  0  0  0  0  0  0  0  0
   13.2337  -20.6503   30.2678 C   0  0  0  0  0  0  0  0  0  0  0  0
   12.7543  -21.8409   30.2162 N   0  0  0  0  0  0  0  0  0  0  0  0
   12.8118  -19.6259   29.3793 N   0  0  0  0  0  0  0  0  0  0  0  0
   11.7406  -19.9265   28.4439 C   0  0  0  0  0  0  0  0  0  0  0  0
   11.4424  -18.6591   27.6623 C   0  0  0  0  0  0  0  0  0  0  0  0
   11.4717  -18.9643   26.1882 C   0  0  0  0  0  0  0  0  0  0  0  0
   11.1700  -17.7482   25.3417 C   0  0  2  0  0  0  0  0  0  0  0  0
   11.0890  -18.0572   23.9414 N   0  0  0  0  0  0  0  0  0  0  0  0
   12.2604  -16.7844   25.5887 C   0  0  0  0  0  0  0  0  0  0  0  0
   12.2390  -16.0307   26.7398 O   0  0  0  0  0  0  0  0  0  0  0  0
   13.1955  -16.6414   24.7781 O   0  0  0  0  0  0  0  0  0  0  0  0
  2  1  1  1
  3  2  1  0
  4  2  1  0
  4  5  1  1
  6  4  1  0
  7  6  2  0
  8  6  1  0
  9  8  1  0
 10  9  1  0
 10 20  1  0
 11 10  2  0
 13 12  1  0
 14 13  2  0
 15 13  1  0
 16 15  1  0
 17 16  1  0
 18 17  1  0
 19 18  1  1
 19 21  1  0
 20 19  1  0
 21 23  2  0
 21 22  1  0
M  END
$$$$
