VGR.pdb
     RDKit          3D

 23 22  0  0  1  0  0  0  0  0999 V2000
    8.5207  -12.9464   21.4470 C   0  0  0  0  0  0  0  0  0  0  0  0
    8.8664  -13.3564   20.0346 C   0  0  2  0  0  0  0  0  0  0  0  0
    8.3890  -12.3263   19.0330 C   0  0  0  0  0  0  0  0  0  0  0  0
    8.2455  -14.7188   19.7358 C   0  0  2  0  0  0  0  0  0  0  0  0
    6.8265  -14.6763   19.9946 N   0  0  0  0  0  0  0  0  0  0  0  0
    8.8587  -15.7634   20.5919 C   0  0  0  0  0  0  0  0  0  0  0  0
   10.0469  -16.1611   20.3570 O   0  0  0  0  0  0  0  0  0  0  0  0
    8.1672  -16.3468   21.6780 N   0  0  0  0  0  0  0  0  0  0  0  0
    8.7663  -17.3668   22.5011 C   0  0  0  0  0  0  0  0  0  0  0  0
    9.5897  -16.7237   23.5691 C   0  0  0  0  0  0  0  0  0  0  0  0
    9.9707  -15.5283   23.4212 O   0  0  0  0  0  0  0  0  0  0  0  0
   11.6784  -19.6456   31.3036 N   0  0  0  0  0  0  0  0  0  0  0  0
   11.2116  -19.9790   29.9989 C   0  0  0  0  0  0  0  0  0  0  0  0
   10.7791  -21.1701   29.7885 N   0  0  0  0  0  0  0  0  0  0  0  0
   11.2380  -18.9926   28.9776 N   0  0  0  0  0  0  0  0  0  0  0  0
   12.0905  -17.8305   29.1671 C   0  0  0  0  0  0  0  0  0  0  0  0
   11.9272  -16.9362   27.9507 C   0  0  0  0  0  0  0  0  0  0  0  0
   11.0456  -17.6233   26.9419 C   0  0  0  0  0  0  0  0  0  0  0  0
   10.9133  -16.8334   25.6593 C   0  0  2  0  0  0  0  0  0  0  0  0
    9.9621  -17.4111   24.7514 N   0  0  0  0  0  0  0  0  0  0  0  0
   12.2545  -16.8065   25.0433 C   0  0  0  0  0  0  0  0  0  0  0  0
   13.0643  -15.7136   25.2513 O   0  0  0  0  0  0  0  0  0  0  0  0
   12.6650  -17.7506   24.3418 O   0  0  0  0  0  0  0  0  0  0  0  0
  2  1  1  1
  3  2  1  0
  4  2  1  0
  4  5  1  1
  6  4  1  0
  7  6  2  0
  8  6  1  0
  9  8  1  0
 10  9  1  0
 10 20  1  0
 11 10  2  0
 13 12  1  0
 14 13  2  0
 15 13  1  0
 16 15  1  0
 17 16  1  0
 18 17  1  0
 19 18  1  1
 19 21  1  0
 20 19  1  0
 21 23  2  0
 21 22  1  0
M  END
$$$$
