VGR.pdb
     RDKit          3D

 23 22  0  0  1  0  0  0  0  0999 V2000
    8.0100  -13.0905   20.7535 C   0  0  0  0  0  0  0  0  0  0  0  0
    8.0465  -12.9951   19.2462 C   0  0  2  0  0  0  0  0  0  0  0  0
    6.7486  -12.4379   18.7011 C   0  0  0  0  0  0  0  0  0  0  0  0
    8.3233  -14.3763   18.6573 C   0  0  2  0  0  0  0  0  0  0  0  0
    7.2829  -15.2940   19.0545 N   0  0  0  0  0  0  0  0  0  0  0  0
    9.6277  -14.8907   19.1409 C   0  0  0  0  0  0  0  0  0  0  0  0
   10.7009  -14.2597   18.8669 O   0  0  0  0  0  0  0  0  0  0  0  0
    9.7319  -16.0737   19.9076 N   0  0  0  0  0  0  0  0  0  0  0  0
   11.0013  -16.5610   20.3850 C   0  0  0  0  0  0  0  0  0  0  0  0
   10.8731  -16.9602   21.8190 C   0  0  0  0  0  0  0  0  0  0  0  0
    9.7817  -16.7581   22.4224 O   0  0  0  0  0  0  0  0  0  0  0  0
    9.2985  -13.9314   28.7824 N   0  0  0  0  0  0  0  0  0  0  0  0
   10.2236  -14.9379   29.1855 C   0  0  0  0  0  0  0  0  0  0  0  0
   10.7575  -14.8486   30.3504 N   0  0  0  0  0  0  0  0  0  0  0  0
   10.5257  -16.0019   28.2947 N   0  0  0  0  0  0  0  0  0  0  0  0
   10.6888  -15.6911   26.8841 C   0  0  0  0  0  0  0  0  0  0  0  0
   11.0536  -16.9796   26.1678 C   0  0  0  0  0  0  0  0  0  0  0  0
   11.1102  -16.7262   24.6848 C   0  0  0  0  0  0  0  0  0  0  0  0
   11.8106  -17.8380   23.9364 C   0  0  2  0  0  0  0  0  0  0  0  0
   11.9395  -17.5622   22.5328 N   0  0  0  0  0  0  0  0  0  0  0  0
   11.0038  -19.0565   24.1445 C   0  0  0  0  0  0  0  0  0  0  0  0
   10.9890  -19.6446   25.3885 O   0  0  0  0  0  0  0  0  0  0  0  0
   10.3391  -19.5600   23.2190 O   0  0  0  0  0  0  0  0  0  0  0  0
  2  1  1  1
  3  2  1  0
  4  2  1  0
  4  5  1  1
  6  4  1  0
  7  6  2  0
  8  6  1  0
  9  8  1  0
 10  9  1  0
 10 20  1  0
 11 10  2  0
 13 12  1  0
 14 13  2  0
 15 13  1  0
 16 15  1  0
 17 16  1  0
 18 17  1  0
 19 18  1  1
 19 21  1  0
 20 19  1  0
 21 23  2  0
 21 22  1  0
M  END
$$$$
