EVA.pdb
     RDKit          3D

 22 21  0  0  1  0  0  0  0  0999 V2000
    9.2496  -17.6630   16.2062 N   0  0  0  0  0  0  0  0  0  0  0  0
    8.3158  -17.5862   17.3073 C   0  0  1  0  0  0  0  0  0  0  0  0
    8.0702  -18.9192   17.9334 C   0  0  0  0  0  0  0  0  0  0  0  0
    7.6628  -19.9750   16.9755 C   0  0  0  0  0  0  0  0  0  0  0  0
    7.4516  -21.2656   17.6301 C   0  0  0  0  0  0  0  0  0  0  0  0
    6.3705  -21.7210   18.0504 O   0  0  0  0  0  0  0  0  0  0  0  0
    8.7993  -16.6810   18.3810 C   0  0  0  0  0  0  0  0  0  0  0  0
   10.0401  -16.6642   18.5904 O   0  0  0  0  0  0  0  0  0  0  0  0
    8.5814  -22.0791   17.8053 O   0  0  0  0  0  0  0  0  0  0  0  0
    7.2489  -12.9856   19.3706 C   0  0  0  0  0  0  0  0  0  0  0  0
    7.5457  -13.8669   20.5539 C   0  0  2  0  0  0  0  0  0  0  0  0
    8.0891  -13.0197   21.6610 C   0  0  0  0  0  0  0  0  0  0  0  0
    8.4987  -14.9922   20.1843 C   0  0  2  0  0  0  0  0  0  0  0  0
    7.9518  -15.8561   19.1616 N   0  0  0  0  0  0  0  0  0  0  0  0
    8.8609  -15.7396   21.4132 C   0  0  0  0  0  0  0  0  0  0  0  0
    7.9780  -16.5361   21.8657 O   0  0  0  0  0  0  0  0  0  0  0  0
   10.3950  -17.8668   22.8388 C   0  0  0  0  0  0  0  0  0  0  0  0
   10.5034  -16.4037   23.2021 C   0  0  2  0  0  0  0  0  0  0  0  0
   10.1043  -15.6147   22.0887 N   0  0  0  0  0  0  0  0  0  0  0  0
   11.8490  -16.0964   23.7231 C   0  0  0  0  0  0  0  0  0  0  0  0
   12.5937  -15.3780   23.0063 O   0  0  0  0  0  0  0  0  0  0  0  0
   12.3499  -16.5331   24.9271 O   0  0  0  0  0  0  0  0  0  0  0  0
  2  1  1  6
  2  7  1  0
  2  3  1  0
  4  5  1  0
  4  3  1  0
  5  9  1  0
  6  5  2  0
  7 14  1  0
  7  8  2  0
 11 10  1  6
 11 13  1  0
 12 11  1  0
 13 15  1  0
 13 14  1  6
 15 16  2  0
 15 19  1  0
 18 17  1  6
 19 18  1  0
 20 18  1  0
 20 22  1  0
 21 20  2  0
M  END
$$$$
