EVA.pdb
     RDKit          3D

 22 21  0  0  1  0  0  0  0  0999 V2000
    8.7488  -15.0052   20.7343 N   0  0  0  0  0  0  0  0  0  0  0  0
    7.8222  -15.2771   21.8103 C   0  0  1  0  0  0  0  0  0  0  0  0
    7.5754  -16.7390   21.9867 C   0  0  0  0  0  0  0  0  0  0  0  0
    7.6569  -17.5252   20.7324 C   0  0  0  0  0  0  0  0  0  0  0  0
    7.2677  -18.9214   20.9272 C   0  0  0  0  0  0  0  0  0  0  0  0
    8.0232  -19.8769   21.1900 O   0  0  0  0  0  0  0  0  0  0  0  0
    8.3159  -14.7567   23.1108 C   0  0  0  0  0  0  0  0  0  0  0  0
    9.5641  -14.7072   23.2629 O   0  0  0  0  0  0  0  0  0  0  0  0
    5.9021  -19.2208   20.8065 O   0  0  0  0  0  0  0  0  0  0  0  0
    6.6632  -11.7872   25.4928 C   0  0  0  0  0  0  0  0  0  0  0  0
    7.0369  -13.0490   26.2229 C   0  0  2  0  0  0  0  0  0  0  0  0
    7.5799  -12.6839   27.5685 C   0  0  0  0  0  0  0  0  0  0  0  0
    8.0245  -13.8830   25.4229 C   0  0  2  0  0  0  0  0  0  0  0  0
    7.4701  -14.3241   24.1622 N   0  0  0  0  0  0  0  0  0  0  0  0
    8.4849  -15.0180   26.2594 C   0  0  0  0  0  0  0  0  0  0  0  0
    7.5874  -15.8378   26.6352 O   0  0  0  0  0  0  0  0  0  0  0  0
   11.6343  -16.7831   26.9028 C   0  0  0  0  0  0  0  0  0  0  0  0
   10.2901  -16.3303   27.4247 C   0  0  2  0  0  0  0  0  0  0  0  0
    9.8344  -15.2289   26.6497 N   0  0  0  0  0  0  0  0  0  0  0  0
   10.3557  -16.0757   28.8764 C   0  0  0  0  0  0  0  0  0  0  0  0
   10.2994  -14.8762   29.2538 O   0  0  0  0  0  0  0  0  0  0  0  0
   10.4734  -17.0449   29.8451 O   0  0  0  0  0  0  0  0  0  0  0  0
  2  1  1  6
  2  7  1  0
  2  3  1  0
  4  5  1  0
  4  3  1  0
  5  9  1  0
  6  5  2  0
  7 14  1  0
  7  8  2  0
 11 10  1  6
 11 13  1  0
 12 11  1  0
 13 15  1  0
 13 14  1  6
 15 16  2  0
 15 19  1  0
 18 17  1  6
 19 18  1  0
 20 18  1  0
 20 22  1  0
 21 20  2  0
M  END
$$$$
