EVA.pdb
     RDKit          3D

 22 21  0  0  1  0  0  0  0  0999 V2000
    8.9333  -14.8849   20.7894 N   0  0  0  0  0  0  0  0  0  0  0  0
    7.8549  -15.0234   21.7425 C   0  0  1  0  0  0  0  0  0  0  0  0
    7.3490  -16.4259   21.8225 C   0  0  0  0  0  0  0  0  0  0  0  0
    8.4152  -17.4545   21.8806 C   0  0  0  0  0  0  0  0  0  0  0  0
    7.8753  -18.8136   21.8669 C   0  0  0  0  0  0  0  0  0  0  0  0
    8.0992  -19.7138   22.6989 O   0  0  0  0  0  0  0  0  0  0  0  0
    8.2729  -14.6303   23.1124 C   0  0  0  0  0  0  0  0  0  0  0  0
    9.4538  -14.9101   23.4454 O   0  0  0  0  0  0  0  0  0  0  0  0
    7.0151  -19.1425   20.8082 O   0  0  0  0  0  0  0  0  0  0  0  0
    6.4615  -11.5750   25.3674 C   0  0  0  0  0  0  0  0  0  0  0  0
    6.8923  -12.7959   26.1347 C   0  0  2  0  0  0  0  0  0  0  0  0
    7.4275  -12.3651   27.4639 C   0  0  0  0  0  0  0  0  0  0  0  0
    7.9094  -13.6131   25.3545 C   0  0  2  0  0  0  0  0  0  0  0  0
    7.4272  -13.9719   24.0392 N   0  0  0  0  0  0  0  0  0  0  0  0
    8.2876  -14.8028   26.1555 C   0  0  0  0  0  0  0  0  0  0  0  0
    7.7383  -15.9009   25.8223 O   0  0  0  0  0  0  0  0  0  0  0  0
   10.5665  -16.6885   26.7808 C   0  0  0  0  0  0  0  0  0  0  0  0
    9.7886  -15.9313   27.8325 C   0  0  2  0  0  0  0  0  0  0  0  0
    9.2032  -14.7784   27.2414 N   0  0  0  0  0  0  0  0  0  0  0  0
   10.6366  -15.6566   29.0081 C   0  0  0  0  0  0  0  0  0  0  0  0
   11.1343  -16.6478   29.6034 O   0  0  0  0  0  0  0  0  0  0  0  0
   10.9237  -14.4054   29.5014 O   0  0  0  0  0  0  0  0  0  0  0  0
  2  1  1  6
  2  7  1  0
  2  3  1  0
  4  5  1  0
  4  3  1  0
  5  9  1  0
  6  5  2  0
  7 14  1  0
  7  8  2  0
 11 10  1  6
 11 13  1  0
 12 11  1  0
 13 15  1  0
 13 14  1  6
 15 16  2  0
 15 19  1  0
 18 17  1  6
 19 18  1  0
 20 18  1  0
 20 22  1  0
 21 20  2  0
M  END
$$$$
