EVA.pdb
     RDKit          3D

 22 21  0  0  1  0  0  0  0  0999 V2000
    8.9544  -15.2468   20.8581 N   0  0  0  0  0  0  0  0  0  0  0  0
    8.1555  -15.7194   21.9666 C   0  0  1  0  0  0  0  0  0  0  0  0
    8.2626  -17.1973   22.1500 C   0  0  0  0  0  0  0  0  0  0  0  0
    7.7156  -17.9909   21.0235 C   0  0  0  0  0  0  0  0  0  0  0  0
    7.7204  -19.4264   21.3031 C   0  0  0  0  0  0  0  0  0  0  0  0
    8.0857  -19.9798   22.3582 O   0  0  0  0  0  0  0  0  0  0  0  0
    8.5603  -15.0890   23.2491 C   0  0  0  0  0  0  0  0  0  0  0  0
    9.7941  -14.9243   23.4336 O   0  0  0  0  0  0  0  0  0  0  0  0
    7.2672  -20.2724   20.2794 O   0  0  0  0  0  0  0  0  0  0  0  0
    6.5127  -12.2040   25.3610 C   0  0  0  0  0  0  0  0  0  0  0  0
    7.0388  -13.3246   26.2167 C   0  0  2  0  0  0  0  0  0  0  0  0
    7.5352  -12.7528   27.5072 C   0  0  0  0  0  0  0  0  0  0  0  0
    8.1198  -14.1143   25.4963 C   0  0  2  0  0  0  0  0  0  0  0  0
    7.6467  -14.6744   24.2498 N   0  0  0  0  0  0  0  0  0  0  0  0
    8.6477  -15.1544   26.4125 C   0  0  0  0  0  0  0  0  0  0  0  0
    7.7862  -15.9327   26.9330 O   0  0  0  0  0  0  0  0  0  0  0  0
   11.9375  -16.6666   27.2176 C   0  0  0  0  0  0  0  0  0  0  0  0
   10.5345  -16.2890   27.6338 C   0  0  2  0  0  0  0  0  0  0  0  0
   10.0228  -15.3199   26.7280 N   0  0  0  0  0  0  0  0  0  0  0  0
   10.5053  -15.8818   29.0515 C   0  0  0  0  0  0  0  0  0  0  0  0
   10.8305  -16.7470   29.9060 O   0  0  0  0  0  0  0  0  0  0  0  0
   10.1512  -14.6342   29.5091 O   0  0  0  0  0  0  0  0  0  0  0  0
  2  1  1  6
  2  7  1  0
  2  3  1  0
  4  5  1  0
  4  3  1  0
  5  9  1  0
  6  5  2  0
  7 14  1  0
  7  8  2  0
 11 10  1  6
 11 13  1  0
 12 11  1  0
 13 15  1  0
 13 14  1  6
 15 16  2  0
 15 19  1  0
 18 17  1  6
 19 18  1  0
 20 18  1  0
 20 22  1  0
 21 20  2  0
M  END
$$$$
