EVA.pdb
     RDKit          3D

 22 21  0  0  1  0  0  0  0  0999 V2000
    8.4850  -14.9280   20.6229 N   0  0  0  0  0  0  0  0  0  0  0  0
    7.5946  -15.2130   21.7258 C   0  0  1  0  0  0  0  0  0  0  0  0
    7.2956  -16.6708   21.8477 C   0  0  0  0  0  0  0  0  0  0  0  0
    8.4969  -17.5396   21.8518 C   0  0  0  0  0  0  0  0  0  0  0  0
    8.1547  -18.9580   21.9504 C   0  0  0  0  0  0  0  0  0  0  0  0
    7.0103  -19.4510   21.9528 O   0  0  0  0  0  0  0  0  0  0  0  0
    8.1642  -14.7731   23.0250 C   0  0  0  0  0  0  0  0  0  0  0  0
    9.4186  -14.7056   23.0986 O   0  0  0  0  0  0  0  0  0  0  0  0
    9.2234  -19.8615   22.0531 O   0  0  0  0  0  0  0  0  0  0  0  0
    6.5903  -11.9140   25.4162 C   0  0  0  0  0  0  0  0  0  0  0  0
    7.0783  -13.1001   26.2036 C   0  0  2  0  0  0  0  0  0  0  0  0
    7.7407  -12.6094   27.4523 C   0  0  0  0  0  0  0  0  0  0  0  0
    8.0087  -13.9725   25.3763 C   0  0  2  0  0  0  0  0  0  0  0  0
    7.3826  -14.4344   24.1574 N   0  0  0  0  0  0  0  0  0  0  0  0
    8.4911  -15.0947   26.2177 C   0  0  0  0  0  0  0  0  0  0  0  0
    7.5993  -15.8850   26.6634 O   0  0  0  0  0  0  0  0  0  0  0  0
   11.7296  -16.7812   26.8291 C   0  0  0  0  0  0  0  0  0  0  0  0
   10.3340  -16.4317   27.2924 C   0  0  2  0  0  0  0  0  0  0  0  0
    9.8554  -15.3241   26.5404 N   0  0  0  0  0  0  0  0  0  0  0  0
   10.3051  -16.2408   28.7550 C   0  0  0  0  0  0  0  0  0  0  0  0
   10.2246  -15.0587   29.1799 O   0  0  0  0  0  0  0  0  0  0  0  0
   10.3592  -17.2516   29.6860 O   0  0  0  0  0  0  0  0  0  0  0  0
  2  1  1  6
  2  7  1  0
  2  3  1  0
  4  5  1  0
  4  3  1  0
  5  9  1  0
  6  5  2  0
  7 14  1  0
  7  8  2  0
 11 10  1  6
 11 13  1  0
 12 11  1  0
 13 15  1  0
 13 14  1  6
 15 16  2  0
 15 19  1  0
 18 17  1  6
 19 18  1  0
 20 18  1  0
 20 22  1  0
 21 20  2  0
M  END
$$$$
