EVA.pdb
     RDKit          3D

 22 21  0  0  1  0  0  0  0  0999 V2000
    8.0379  -14.9053   20.7311 N   0  0  0  0  0  0  0  0  0  0  0  0
    7.3764  -15.3542   21.9358 C   0  0  1  0  0  0  0  0  0  0  0  0
    7.4151  -16.8397   22.0809 C   0  0  0  0  0  0  0  0  0  0  0  0
    6.7765  -17.5766   20.9641 C   0  0  0  0  0  0  0  0  0  0  0  0
    6.7463  -19.0200   21.1980 C   0  0  0  0  0  0  0  0  0  0  0  0
    7.7276  -19.7840   21.2752 O   0  0  0  0  0  0  0  0  0  0  0  0
    7.9980  -14.7792   23.1559 C   0  0  0  0  0  0  0  0  0  0  0  0
    9.2545  -14.7123   23.1726 O   0  0  0  0  0  0  0  0  0  0  0  0
    5.4825  -19.6100   21.3521 O   0  0  0  0  0  0  0  0  0  0  0  0
    6.5044  -11.7777   25.4898 C   0  0  0  0  0  0  0  0  0  0  0  0
    7.0501  -12.9254   26.2960 C   0  0  2  0  0  0  0  0  0  0  0  0
    7.7772  -12.3771   27.4832 C   0  0  0  0  0  0  0  0  0  0  0  0
    7.9416  -13.8231   25.4531 C   0  0  2  0  0  0  0  0  0  0  0  0
    7.2627  -14.3138   24.2742 N   0  0  0  0  0  0  0  0  0  0  0  0
    8.4556  -14.9253   26.3022 C   0  0  0  0  0  0  0  0  0  0  0  0
    7.6031  -15.7964   26.6671 O   0  0  0  0  0  0  0  0  0  0  0  0
   11.6234  -16.5927   26.9508 C   0  0  0  0  0  0  0  0  0  0  0  0
   10.3118  -16.1082   27.5246 C   0  0  2  0  0  0  0  0  0  0  0  0
    9.8088  -15.0530   26.7152 N   0  0  0  0  0  0  0  0  0  0  0  0
   10.4632  -15.7696   28.9525 C   0  0  0  0  0  0  0  0  0  0  0  0
   10.4275  -14.5501   29.2621 O   0  0  0  0  0  0  0  0  0  0  0  0
   10.6398  -16.6810   29.9672 O   0  0  0  0  0  0  0  0  0  0  0  0
  2  1  1  6
  2  7  1  0
  2  3  1  0
  4  5  1  0
  4  3  1  0
  5  9  1  0
  6  5  2  0
  7 14  1  0
  7  8  2  0
 11 10  1  6
 11 13  1  0
 12 11  1  0
 13 15  1  0
 13 14  1  6
 15 16  2  0
 15 19  1  0
 18 17  1  6
 19 18  1  0
 20 18  1  0
 20 22  1  0
 21 20  2  0
M  END
$$$$
