EVA.pdb
     RDKit          3D

 22 21  0  0  1  0  0  0  0  0999 V2000
    8.3651  -14.8689   20.6627 N   0  0  0  0  0  0  0  0  0  0  0  0
    7.5242  -15.2234   21.7841 C   0  0  1  0  0  0  0  0  0  0  0  0
    7.4044  -16.7019   21.9547 C   0  0  0  0  0  0  0  0  0  0  0  0
    7.5606  -17.4735   20.6984 C   0  0  0  0  0  0  0  0  0  0  0  0
    7.6822  -18.9104   20.9421 C   0  0  0  0  0  0  0  0  0  0  0  0
    8.5967  -19.6594   20.5477 O   0  0  0  0  0  0  0  0  0  0  0  0
    8.0464  -14.6765   23.0624 C   0  0  0  0  0  0  0  0  0  0  0  0
    9.2970  -14.5883   23.1708 O   0  0  0  0  0  0  0  0  0  0  0  0
    6.6652  -19.5125   21.6985 O   0  0  0  0  0  0  0  0  0  0  0  0
    6.3711  -11.7300   25.3264 C   0  0  0  0  0  0  0  0  0  0  0  0
    6.8477  -12.8943   26.1524 C   0  0  2  0  0  0  0  0  0  0  0  0
    7.4708  -12.3708   27.4080 C   0  0  0  0  0  0  0  0  0  0  0  0
    7.8085  -13.7751   25.3700 C   0  0  2  0  0  0  0  0  0  0  0  0
    7.2246  -14.2596   24.1389 N   0  0  0  0  0  0  0  0  0  0  0  0
    8.2682  -14.8813   26.2445 C   0  0  0  0  0  0  0  0  0  0  0  0
    7.4055  -15.7756   26.5180 O   0  0  0  0  0  0  0  0  0  0  0  0
   11.2161  -16.7293   26.9128 C   0  0  0  0  0  0  0  0  0  0  0  0
   10.0405  -16.0614   27.5882 C   0  0  2  0  0  0  0  0  0  0  0  0
    9.5815  -14.9891   26.7752 N   0  0  0  0  0  0  0  0  0  0  0  0
   10.3840  -15.6811   28.9717 C   0  0  0  0  0  0  0  0  0  0  0  0
   10.3951  -14.4525   29.2453 O   0  0  0  0  0  0  0  0  0  0  0  0
   10.6918  -16.5628   29.9812 O   0  0  0  0  0  0  0  0  0  0  0  0
  2  1  1  6
  2  7  1  0
  2  3  1  0
  4  5  1  0
  4  3  1  0
  5  9  1  0
  6  5  2  0
  7 14  1  0
  7  8  2  0
 11 10  1  6
 11 13  1  0
 12 11  1  0
 13 15  1  0
 13 14  1  6
 15 16  2  0
 15 19  1  0
 18 17  1  6
 19 18  1  0
 20 18  1  0
 20 22  1  0
 21 20  2  0
M  END
$$$$
