EVA.pdb
     RDKit          3D

 22 21  0  0  1  0  0  0  0  0999 V2000
    8.0693  -15.3896   21.0299 N   0  0  0  0  0  0  0  0  0  0  0  0
    7.3432  -15.6483   22.2531 C   0  0  1  0  0  0  0  0  0  0  0  0
    7.2935  -17.1036   22.5830 C   0  0  0  0  0  0  0  0  0  0  0  0
    6.6969  -17.9479   21.5203 C   0  0  0  0  0  0  0  0  0  0  0  0
    6.5416  -19.3401   21.9404 C   0  0  0  0  0  0  0  0  0  0  0  0
    5.8642  -19.7592   22.8987 O   0  0  0  0  0  0  0  0  0  0  0  0
    7.9547  -14.9566   23.4166 C   0  0  0  0  0  0  0  0  0  0  0  0
    9.2094  -14.8607   23.4221 O   0  0  0  0  0  0  0  0  0  0  0  0
    7.2250  -20.3082   21.1889 O   0  0  0  0  0  0  0  0  0  0  0  0
    6.2015  -11.8990   25.5676 C   0  0  0  0  0  0  0  0  0  0  0  0
    6.9234  -12.9075   26.4201 C   0  0  2  0  0  0  0  0  0  0  0  0
    7.6313  -12.1865   27.5236 C   0  0  0  0  0  0  0  0  0  0  0  0
    7.8794  -13.7523   25.5933 C   0  0  2  0  0  0  0  0  0  0  0  0
    7.2117  -14.4132   24.4939 N   0  0  0  0  0  0  0  0  0  0  0  0
    8.5694  -14.7133   26.4879 C   0  0  0  0  0  0  0  0  0  0  0  0
    7.8193  -15.4664   27.1872 O   0  0  0  0  0  0  0  0  0  0  0  0
   12.0845  -15.8849   27.0275 C   0  0  0  0  0  0  0  0  0  0  0  0
   10.6511  -15.7248   27.4791 C   0  0  2  0  0  0  0  0  0  0  0  0
    9.9806  -14.8314   26.5994 N   0  0  0  0  0  0  0  0  0  0  0  0
   10.5949  -15.3438   28.9032 C   0  0  0  0  0  0  0  0  0  0  0  0
   11.0823  -16.1527   29.7354 O   0  0  0  0  0  0  0  0  0  0  0  0
   10.0528  -14.1770   29.3892 O   0  0  0  0  0  0  0  0  0  0  0  0
  2  1  1  6
  2  7  1  0
  2  3  1  0
  4  5  1  0
  4  3  1  0
  5  9  1  0
  6  5  2  0
  7 14  1  0
  7  8  2  0
 11 10  1  6
 11 13  1  0
 12 11  1  0
 13 15  1  0
 13 14  1  6
 15 16  2  0
 15 19  1  0
 18 17  1  6
 19 18  1  0
 20 18  1  0
 20 22  1  0
 21 20  2  0
M  END
$$$$
