EVA.pdb
     RDKit          3D

 22 21  0  0  1  0  0  0  0  0999 V2000
   12.1345  -16.9844   20.5879 N   0  0  0  0  0  0  0  0  0  0  0  0
   11.3101  -17.4823   21.6663 C   0  0  1  0  0  0  0  0  0  0  0  0
   12.0153  -18.5108   22.4874 C   0  0  0  0  0  0  0  0  0  0  0  0
   12.9280  -19.3858   21.7131 C   0  0  0  0  0  0  0  0  0  0  0  0
   13.5325  -20.4279   22.5422 C   0  0  0  0  0  0  0  0  0  0  0  0
   12.9327  -21.2612   23.2482 O   0  0  0  0  0  0  0  0  0  0  0  0
   10.8918  -16.3969   22.5898 C   0  0  0  0  0  0  0  0  0  0  0  0
   11.7310  -15.4847   22.8073 O   0  0  0  0  0  0  0  0  0  0  0  0
   14.9339  -20.5004   22.5460 O   0  0  0  0  0  0  0  0  0  0  0  0
    7.4384  -14.3722   22.6437 C   0  0  0  0  0  0  0  0  0  0  0  0
    7.8067  -14.8806   24.0114 C   0  0  2  0  0  0  0  0  0  0  0  0
    7.4280  -13.8488   25.0267 C   0  0  0  0  0  0  0  0  0  0  0  0
    9.2819  -15.2385   24.0933 C   0  0  2  0  0  0  0  0  0  0  0  0
    9.6249  -16.3405   23.2219 N   0  0  0  0  0  0  0  0  0  0  0  0
    9.6328  -15.5135   25.5079 C   0  0  0  0  0  0  0  0  0  0  0  0
    9.3339  -16.6704   25.9451 O   0  0  0  0  0  0  0  0  0  0  0  0
   10.3911  -13.5443   28.5236 C   0  0  0  0  0  0  0  0  0  0  0  0
   10.5752  -14.8223   27.7380 C   0  0  2  0  0  0  0  0  0  0  0  0
   10.2657  -14.5800   26.3716 N   0  0  0  0  0  0  0  0  0  0  0  0
    9.8140  -15.9253   28.3549 C   0  0  0  0  0  0  0  0  0  0  0  0
   10.3834  -16.5774   29.2687 O   0  0  0  0  0  0  0  0  0  0  0  0
    8.5350  -16.2940   28.0093 O   0  0  0  0  0  0  0  0  0  0  0  0
  2  1  1  6
  2  7  1  0
  2  3  1  0
  4  5  1  0
  4  3  1  0
  5  9  1  0
  6  5  2  0
  7 14  1  0
  7  8  2  0
 11 10  1  6
 11 13  1  0
 12 11  1  0
 13 15  1  0
 13 14  1  6
 15 16  2  0
 15 19  1  0
 18 17  1  1
 19 18  1  0
 20 18  1  0
 20 22  1  0
 21 20  2  0
M  END
$$$$
