EVA.pdb
     RDKit          3D

 22 21  0  0  1  0  0  0  0  0999 V2000
    8.9196  -15.1895   20.7507 N   0  0  0  0  0  0  0  0  0  0  0  0
    8.1648  -15.6300   21.9025 C   0  0  1  0  0  0  0  0  0  0  0  0
    8.2842  -17.1013   22.1267 C   0  0  0  0  0  0  0  0  0  0  0  0
    8.4389  -17.8951   20.8842 C   0  0  0  0  0  0  0  0  0  0  0  0
    8.4409  -19.3345   21.1428 C   0  0  0  0  0  0  0  0  0  0  0  0
    9.4356  -20.0512   21.3659 O   0  0  0  0  0  0  0  0  0  0  0  0
    8.6151  -14.9595   23.1490 C   0  0  0  0  0  0  0  0  0  0  0  0
    9.8496  -14.7420   23.2597 O   0  0  0  0  0  0  0  0  0  0  0  0
    7.1949  -19.9799   21.1403 O   0  0  0  0  0  0  0  0  0  0  0  0
    6.8225  -11.9497   25.2196 C   0  0  0  0  0  0  0  0  0  0  0  0
    7.2459  -13.0919   26.1034 C   0  0  2  0  0  0  0  0  0  0  0  0
    7.7755  -12.5362   27.3877 C   0  0  0  0  0  0  0  0  0  0  0  0
    8.2646  -13.9829   25.4111 C   0  0  2  0  0  0  0  0  0  0  0  0
    7.7433  -14.5630   24.1933 N   0  0  0  0  0  0  0  0  0  0  0  0
    8.7300  -15.0159   26.3684 C   0  0  0  0  0  0  0  0  0  0  0  0
    7.8405  -15.8093   26.8136 O   0  0  0  0  0  0  0  0  0  0  0  0
   11.9681  -16.5209   27.3333 C   0  0  0  0  0  0  0  0  0  0  0  0
   10.5395  -16.1725   27.6825 C   0  0  2  0  0  0  0  0  0  0  0  0
   10.0760  -15.1593   26.7993 N   0  0  0  0  0  0  0  0  0  0  0  0
   10.4213  -15.8410   29.1152 C   0  0  0  0  0  0  0  0  0  0  0  0
   10.2584  -14.6292   29.4143 O   0  0  0  0  0  0  0  0  0  0  0  0
   10.4753  -16.7510   30.1449 O   0  0  0  0  0  0  0  0  0  0  0  0
  2  1  1  6
  2  7  1  0
  2  3  1  0
  4  5  1  0
  4  3  1  0
  5  9  1  0
  6  5  2  0
  7 14  1  0
  7  8  2  0
 11 10  1  6
 11 13  1  0
 12 11  1  0
 13 15  1  0
 13 14  1  6
 15 16  2  0
 15 19  1  0
 18 17  1  6
 19 18  1  0
 20 18  1  0
 20 22  1  0
 21 20  2  0
M  END
$$$$
