EVA.pdb
     RDKit          3D

 22 21  0  0  1  0  0  0  0  0999 V2000
    8.8204  -14.7354   20.6235 N   0  0  0  0  0  0  0  0  0  0  0  0
    7.8672  -15.1340   21.6349 C   0  0  1  0  0  0  0  0  0  0  0  0
    7.7338  -16.6179   21.7313 C   0  0  0  0  0  0  0  0  0  0  0  0
    7.3357  -17.2763   20.4640 C   0  0  0  0  0  0  0  0  0  0  0  0
    7.1911  -18.7239   20.6131 C   0  0  0  0  0  0  0  0  0  0  0  0
    6.1707  -19.3380   20.9798 O   0  0  0  0  0  0  0  0  0  0  0  0
    8.2508  -14.6407   22.9823 C   0  0  0  0  0  0  0  0  0  0  0  0
    9.4794  -14.6367   23.2543 O   0  0  0  0  0  0  0  0  0  0  0  0
    8.3162  -19.5069   20.3131 O   0  0  0  0  0  0  0  0  0  0  0  0
    6.3967  -11.6803   25.0956 C   0  0  0  0  0  0  0  0  0  0  0  0
    6.7544  -12.8660   25.9507 C   0  0  2  0  0  0  0  0  0  0  0  0
    7.2553  -12.3733   27.2717 C   0  0  0  0  0  0  0  0  0  0  0  0
    7.7694  -13.7633   25.2610 C   0  0  2  0  0  0  0  0  0  0  0  0
    7.3230  -14.1858   23.9519 N   0  0  0  0  0  0  0  0  0  0  0  0
    8.0751  -14.9135   26.1461 C   0  0  0  0  0  0  0  0  0  0  0  0
    7.2464  -15.8785   26.1180 O   0  0  0  0  0  0  0  0  0  0  0  0
   10.4508  -17.0119   26.6963 C   0  0  0  0  0  0  0  0  0  0  0  0
    9.6476  -16.1686   27.6597 C   0  0  2  0  0  0  0  0  0  0  0  0
    9.2104  -14.9893   26.9965 N   0  0  0  0  0  0  0  0  0  0  0  0
   10.4093  -15.9301   28.9005 C   0  0  0  0  0  0  0  0  0  0  0  0
   10.8687  -14.7721   29.0806 O   0  0  0  0  0  0  0  0  0  0  0  0
   10.6549  -16.8725   29.8715 O   0  0  0  0  0  0  0  0  0  0  0  0
  2  1  1  6
  2  7  1  0
  2  3  1  0
  4  5  1  0
  4  3  1  0
  5  9  1  0
  6  5  2  0
  7 14  1  0
  7  8  2  0
 11 10  1  6
 11 13  1  0
 12 11  1  0
 13 15  1  0
 13 14  1  6
 15 16  2  0
 15 19  1  0
 18 17  1  6
 19 18  1  0
 20 18  1  0
 20 22  1  0
 21 20  2  0
M  END
$$$$
