EVA.pdb
     RDKit          3D

 22 21  0  0  1  0  0  0  0  0999 V2000
    9.0484  -17.2319   16.4138 N   0  0  0  0  0  0  0  0  0  0  0  0
    8.0231  -16.9986   17.4061 C   0  0  1  0  0  0  0  0  0  0  0  0
    7.3709  -18.2653   17.8526 C   0  0  0  0  0  0  0  0  0  0  0  0
    8.0847  -19.4962   17.4361 C   0  0  0  0  0  0  0  0  0  0  0  0
    7.4031  -20.7103   17.8836 C   0  0  0  0  0  0  0  0  0  0  0  0
    7.9233  -21.6954   18.4420 O   0  0  0  0  0  0  0  0  0  0  0  0
    8.5670  -16.3356   18.6188 C   0  0  0  0  0  0  0  0  0  0  0  0
    9.7977  -16.4794   18.8380 O   0  0  0  0  0  0  0  0  0  0  0  0
    6.0189  -20.7772   17.6632 O   0  0  0  0  0  0  0  0  0  0  0  0
    7.4038  -12.6435   20.0598 C   0  0  0  0  0  0  0  0  0  0  0  0
    7.5513  -13.7078   21.1136 C   0  0  2  0  0  0  0  0  0  0  0  0
    8.1197  -13.0858   22.3500 C   0  0  0  0  0  0  0  0  0  0  0  0
    8.4050  -14.8648   20.6200 C   0  0  2  0  0  0  0  0  0  0  0  0
    7.7861  -15.5679   19.5182 N   0  0  0  0  0  0  0  0  0  0  0  0
    8.7030  -15.7643   21.7611 C   0  0  0  0  0  0  0  0  0  0  0  0
    7.7069  -16.3654   22.2763 O   0  0  0  0  0  0  0  0  0  0  0  0
   11.7334  -17.3525   23.2105 C   0  0  0  0  0  0  0  0  0  0  0  0
   10.3053  -16.8781   23.3520 C   0  0  2  0  0  0  0  0  0  0  0  0
   10.0031  -15.9816   22.2906 N   0  0  0  0  0  0  0  0  0  0  0  0
   10.0706  -16.3335   24.7029 C   0  0  0  0  0  0  0  0  0  0  0  0
   10.0466  -15.0807   24.8225 O   0  0  0  0  0  0  0  0  0  0  0  0
    9.8769  -17.0870   25.8370 O   0  0  0  0  0  0  0  0  0  0  0  0
  2  1  1  6
  2  7  1  0
  2  3  1  0
  4  5  1  0
  4  3  1  0
  5  9  1  0
  6  5  2  0
  7 14  1  0
  7  8  2  0
 11 10  1  6
 11 13  1  0
 12 11  1  0
 13 15  1  0
 13 14  1  6
 15 16  2  0
 15 19  1  0
 18 17  1  1
 19 18  1  0
 20 18  1  0
 20 22  1  0
 21 20  2  0
M  END
$$$$
