EVA.pdb
     RDKit          3D

 22 21  0  0  1  0  0  0  0  0999 V2000
    7.2985  -15.6000   21.1711 N   0  0  0  0  0  0  0  0  0  0  0  0
    6.7285  -15.7845   22.4869 C   0  0  1  0  0  0  0  0  0  0  0  0
    6.6362  -17.2260   22.8650 C   0  0  0  0  0  0  0  0  0  0  0  0
    5.4322  -17.9158   22.3427 C   0  0  0  0  0  0  0  0  0  0  0  0
    5.7300  -19.2661   21.8666 C   0  0  0  0  0  0  0  0  0  0  0  0
    5.5463  -20.3325   22.4844 O   0  0  0  0  0  0  0  0  0  0  0  0
    7.5304  -15.1071   23.5376 C   0  0  0  0  0  0  0  0  0  0  0  0
    8.7805  -15.1258   23.3948 O   0  0  0  0  0  0  0  0  0  0  0  0
    6.2799  -19.3770   20.5804 O   0  0  0  0  0  0  0  0  0  0  0  0
    6.2895  -11.8199   25.6914 C   0  0  0  0  0  0  0  0  0  0  0  0
    7.0365  -12.8342   26.5148 C   0  0  2  0  0  0  0  0  0  0  0  0
    7.9291  -12.1122   27.4743 C   0  0  0  0  0  0  0  0  0  0  0  0
    7.8156  -13.7993   25.6358 C   0  0  2  0  0  0  0  0  0  0  0  0
    6.9694  -14.4570   24.6648 N   0  0  0  0  0  0  0  0  0  0  0  0
    8.5316  -14.7679   26.5013 C   0  0  0  0  0  0  0  0  0  0  0  0
    7.8035  -15.5835   27.1519 O   0  0  0  0  0  0  0  0  0  0  0  0
   12.0569  -15.9030   26.9567 C   0  0  0  0  0  0  0  0  0  0  0  0
   10.6398  -15.7549   27.4608 C   0  0  2  0  0  0  0  0  0  0  0  0
    9.9445  -14.8288   26.6360 N   0  0  0  0  0  0  0  0  0  0  0  0
   10.6320  -15.4245   28.8986 C   0  0  0  0  0  0  0  0  0  0  0  0
   10.4498  -14.2189   29.2114 O   0  0  0  0  0  0  0  0  0  0  0  0
   10.8080  -16.3293   29.9193 O   0  0  0  0  0  0  0  0  0  0  0  0
  2  1  1  6
  2  7  1  0
  2  3  1  0
  4  5  1  0
  4  3  1  0
  5  9  1  0
  6  5  2  0
  7 14  1  0
  7  8  2  0
 11 10  1  6
 11 13  1  0
 12 11  1  0
 13 15  1  0
 13 14  1  6
 15 16  2  0
 15 19  1  0
 18 17  1  6
 19 18  1  0
 20 18  1  0
 20 22  1  0
 21 20  2  0
M  END
$$$$
