EVA.pdb
     RDKit          3D

 22 21  0  0  1  0  0  0  0  0999 V2000
    8.1062  -14.5267   20.6986 N   0  0  0  0  0  0  0  0  0  0  0  0
    7.4369  -15.0682   21.8601 C   0  0  1  0  0  0  0  0  0  0  0  0
    7.4251  -16.5612   21.8600 C   0  0  0  0  0  0  0  0  0  0  0  0
    7.5121  -17.1699   20.5109 C   0  0  0  0  0  0  0  0  0  0  0  0
    8.5674  -18.1787   20.4251 C   0  0  0  0  0  0  0  0  0  0  0  0
    8.9934  -18.7267   19.3902 O   0  0  0  0  0  0  0  0  0  0  0  0
    8.0854  -14.6359   23.1244 C   0  0  0  0  0  0  0  0  0  0  0  0
    9.3371  -14.5081   23.1029 O   0  0  0  0  0  0  0  0  0  0  0  0
    9.1654  -18.5736   21.6316 O   0  0  0  0  0  0  0  0  0  0  0  0
    6.5328  -11.8586   25.6270 C   0  0  0  0  0  0  0  0  0  0  0  0
    7.1351  -13.0205   26.3699 C   0  0  2  0  0  0  0  0  0  0  0  0
    7.8408  -12.5025   27.5833 C   0  0  0  0  0  0  0  0  0  0  0  0
    8.0640  -13.8294   25.4788 C   0  0  2  0  0  0  0  0  0  0  0  0
    7.3800  -14.3671   24.3236 N   0  0  0  0  0  0  0  0  0  0  0  0
    8.7083  -14.8897   26.2915 C   0  0  0  0  0  0  0  0  0  0  0  0
    7.9233  -15.6954   26.8860 O   0  0  0  0  0  0  0  0  0  0  0  0
   12.1768  -16.1988   26.7964 C   0  0  0  0  0  0  0  0  0  0  0  0
   10.7392  -16.0403   27.2352 C   0  0  2  0  0  0  0  0  0  0  0  0
   10.1129  -15.0460   26.4348 N   0  0  0  0  0  0  0  0  0  0  0  0
   10.6636  -15.7977   28.6885 C   0  0  0  0  0  0  0  0  0  0  0  0
   11.0546  -16.7224   29.4477 O   0  0  0  0  0  0  0  0  0  0  0  0
   10.2005  -14.6431   29.2748 O   0  0  0  0  0  0  0  0  0  0  0  0
  2  1  1  6
  2  7  1  0
  2  3  1  0
  4  5  1  0
  4  3  1  0
  5  9  1  0
  6  5  2  0
  7 14  1  0
  7  8  2  0
 11 10  1  6
 11 13  1  0
 12 11  1  0
 13 15  1  0
 13 14  1  6
 15 16  2  0
 15 19  1  0
 18 17  1  6
 19 18  1  0
 20 18  1  0
 20 22  1  0
 21 20  2  0
M  END
$$$$
