QFI.pdb
     RDKit          3D

 29 29  0  0  1  0  0  0  0  0999 V2000
   10.6787  -21.4697   20.6441 N   0  0  0  0  0  0  0  0  0  0  0  0
   11.7018  -20.8492   19.8731 C   0  0  0  0  0  0  0  0  0  0  0  0
   12.4327  -21.5324   19.0834 O   0  0  0  0  0  0  0  0  0  0  0  0
   11.9583  -19.3803   19.9582 C   0  0  0  0  0  0  0  0  0  0  0  0
   11.0515  -18.7433   20.9683 C   0  0  0  0  0  0  0  0  0  0  0  0
   10.5848  -17.4012   20.4113 C   0  0  2  0  0  0  0  0  0  0  0  0
   11.6699  -16.8783   19.6238 N   0  0  0  0  0  0  0  0  0  0  0  0
   10.2794  -16.4855   21.5109 C   0  0  0  0  0  0  0  0  0  0  0  0
   11.1505  -15.6648   21.8947 O   0  0  0  0  0  0  0  0  0  0  0  0
    9.0359  -16.4533   22.1975 N   0  0  0  0  0  0  0  0  0  0  0  0
    8.7640  -15.6261   23.3595 C   0  0  1  0  0  0  0  0  0  0  0  0
    7.3708  -15.0745   23.3419 C   0  0  0  0  0  0  0  0  0  0  0  0
    7.0423  -14.1760   24.4507 C   0  0  0  0  0  0  0  0  0  0  0  0
    6.2836  -14.6318   25.5056 C   0  0  0  0  0  0  0  0  0  0  0  0
    5.9585  -13.7846   26.5717 C   0  0  0  0  0  0  0  0  0  0  0  0
    6.3972  -12.4828   26.5735 C   0  0  0  0  0  0  0  0  0  0  0  0
    7.1535  -12.0157   25.5294 C   0  0  0  0  0  0  0  0  0  0  0  0
    7.4605  -12.8730   24.4888 C   0  0  0  0  0  0  0  0  0  0  0  0
    9.2057  -16.2315   24.6107 C   0  0  0  0  0  0  0  0  0  0  0  0
    9.2140  -17.4981   24.7186 O   0  0  0  0  0  0  0  0  0  0  0  0
   10.8481  -13.0322   28.9877 C   0  0  0  0  0  0  0  0  0  0  0  0
   10.9503  -14.0014   27.8128 C   0  0  0  0  0  0  0  0  0  0  0  0
   10.2949  -15.3168   28.1160 C   0  0  2  0  0  0  0  0  0  0  0  0
   11.1685  -15.9799   29.1935 C   0  0  0  0  0  0  0  0  0  0  0  0
   10.2188  -16.1839   26.9316 C   0  0  2  0  0  0  0  0  0  0  0  0
    9.6451  -15.5528   25.7587 N   0  0  0  0  0  0  0  0  0  0  0  0
    9.4175  -17.3912   27.1913 C   0  0  0  0  0  0  0  0  0  0  0  0
    9.9532  -18.6173   27.5900 O   0  0  0  0  0  0  0  0  0  0  0  0
    8.1544  -17.4023   27.0644 O   0  0  0  0  0  0  0  0  0  0  0  0
  2  1  1  0
  3  2  2  0
  4  2  1  0
  5  6  1  0
  5  4  1  0
  6  7  1  6
  8  6  1  0
  8  9  2  0
 10  8  1  0
 11 10  1  0
 11 12  1  1
 13 12  1  0
 13 18  2  0
 14 13  1  0
 15 14  2  0
 15 16  1  0
 16 17  2  0
 17 18  1  0
 19 11  1  0
 20 19  2  0
 21 22  1  0
 22 23  1  0
 23 25  1  0
 23 24  1  1
 25 26  1  6
 26 19  1  0
 27 25  1  0
 28 27  1  0
 29 27  2  0
M  END
$$$$
