QFI.pdb
     RDKit          3D

 29 29  0  0  1  0  0  0  0  0999 V2000
   10.4432  -16.3349   16.9792 N   0  0  0  0  0  0  0  0  0  0  0  0
   11.3675  -17.4057   17.1388 C   0  0  0  0  0  0  0  0  0  0  0  0
   11.6970  -18.1398   16.1504 O   0  0  0  0  0  0  0  0  0  0  0  0
   11.9849  -17.7102   18.4643 C   0  0  0  0  0  0  0  0  0  0  0  0
   11.4903  -16.7554   19.5093 C   0  0  0  0  0  0  0  0  0  0  0  0
   10.9685  -17.5690   20.6904 C   0  0  2  0  0  0  0  0  0  0  0  0
    9.8129  -18.2872   20.2218 N   0  0  0  0  0  0  0  0  0  0  0  0
   10.5899  -16.6726   21.7832 C   0  0  0  0  0  0  0  0  0  0  0  0
   11.4457  -15.8908   22.2690 O   0  0  0  0  0  0  0  0  0  0  0  0
    9.2895  -16.6179   22.3532 N   0  0  0  0  0  0  0  0  0  0  0  0
    8.8988  -15.7063   23.4137 C   0  0  1  0  0  0  0  0  0  0  0  0
    7.4463  -15.3458   23.3366 C   0  0  0  0  0  0  0  0  0  0  0  0
    7.0128  -14.3028   24.2689 C   0  0  0  0  0  0  0  0  0  0  0  0
    6.2784  -14.6377   25.3846 C   0  0  0  0  0  0  0  0  0  0  0  0
    5.8540  -13.6523   26.2839 C   0  0  0  0  0  0  0  0  0  0  0  0
    6.1693  -12.3343   26.0585 C   0  0  0  0  0  0  0  0  0  0  0  0
    6.9000  -11.9868   24.9514 C   0  0  0  0  0  0  0  0  0  0  0  0
    7.3068  -12.9794   24.0789 C   0  0  0  0  0  0  0  0  0  0  0  0
    9.3994  -16.1031   24.7248 C   0  0  0  0  0  0  0  0  0  0  0  0
    9.4522  -17.3381   25.0215 O   0  0  0  0  0  0  0  0  0  0  0  0
   11.4548  -13.9883   30.2597 C   0  0  0  0  0  0  0  0  0  0  0  0
   11.3504  -15.0911   29.2093 C   0  0  0  0  0  0  0  0  0  0  0  0
   10.7600  -14.5851   27.9260 C   0  0  2  0  0  0  0  0  0  0  0  0
    9.4963  -13.8062   28.3262 C   0  0  0  0  0  0  0  0  0  0  0  0
   10.4036  -15.6789   27.0110 C   0  0  2  0  0  0  0  0  0  0  0  0
    9.8528  -15.2468   25.7409 N   0  0  0  0  0  0  0  0  0  0  0  0
    9.4123  -16.5880   27.6093 C   0  0  0  0  0  0  0  0  0  0  0  0
    8.0744  -16.6577   27.2164 O   0  0  0  0  0  0  0  0  0  0  0  0
    9.7115  -17.3879   28.5485 O   0  0  0  0  0  0  0  0  0  0  0  0
  2  1  1  0
  3  2  2  0
  4  2  1  0
  5  6  1  0
  5  4  1  0
  6  7  1  6
  8  6  1  0
  8  9  2  0
 10  8  1  0
 11 10  1  0
 11 12  1  1
 13 12  1  0
 13 18  2  0
 14 13  1  0
 15 14  2  0
 15 16  1  0
 16 17  2  0
 17 18  1  0
 19 11  1  0
 20 19  2  0
 21 22  1  0
 22 23  1  0
 23 25  1  0
 23 24  1  1
 25 26  1  6
 26 19  1  0
 27 25  1  0
 28 27  1  0
 29 27  2  0
M  END
$$$$
