QFI.pdb
     RDKit          3D

 29 29  0  0  1  0  0  0  0  0999 V2000
   13.4958  -17.0685   17.0173 N   0  0  0  0  0  0  0  0  0  0  0  0
   12.1351  -17.4388   16.8230 C   0  0  0  0  0  0  0  0  0  0  0  0
   11.6209  -17.4564   15.6569 O   0  0  0  0  0  0  0  0  0  0  0  0
   11.2601  -17.8197   17.9720 C   0  0  0  0  0  0  0  0  0  0  0  0
   11.5012  -16.9140   19.1425 C   0  0  0  0  0  0  0  0  0  0  0  0
   11.2078  -17.6965   20.4195 C   0  0  2  0  0  0  0  0  0  0  0  0
   10.0859  -18.5514   20.1344 N   0  0  0  0  0  0  0  0  0  0  0  0
   10.8689  -16.7724   21.5022 C   0  0  0  0  0  0  0  0  0  0  0  0
   11.6686  -15.8512   21.8046 O   0  0  0  0  0  0  0  0  0  0  0  0
    9.6685  -16.8400   22.2595 N   0  0  0  0  0  0  0  0  0  0  0  0
    9.2784  -15.8659   23.2631 C   0  0  1  0  0  0  0  0  0  0  0  0
    7.8355  -15.4805   23.1398 C   0  0  0  0  0  0  0  0  0  0  0  0
    7.5143  -14.6270   21.9939 C   0  0  0  0  0  0  0  0  0  0  0  0
    6.8845  -15.1609   20.8918 C   0  0  0  0  0  0  0  0  0  0  0  0
    6.5733  -14.3590   19.7874 C   0  0  0  0  0  0  0  0  0  0  0  0
    6.8960  -13.0237   19.7947 C   0  0  0  0  0  0  0  0  0  0  0  0
    7.5233  -12.4789   20.8856 C   0  0  0  0  0  0  0  0  0  0  0  0
    7.8196  -13.2928   21.9634 C   0  0  0  0  0  0  0  0  0  0  0  0
    9.7469  -16.2032   24.6025 C   0  0  0  0  0  0  0  0  0  0  0  0
   10.4014  -17.2786   24.7788 O   0  0  0  0  0  0  0  0  0  0  0  0
    9.8068  -12.1673   28.2423 C   0  0  0  0  0  0  0  0  0  0  0  0
   10.4637  -13.3295   27.5020 C   0  0  0  0  0  0  0  0  0  0  0  0
   10.0268  -14.6570   28.0481 C   0  0  2  0  0  0  0  0  0  0  0  0
   10.9445  -14.9366   29.2496 C   0  0  0  0  0  0  0  0  0  0  0  0
   10.1595  -15.7345   27.0572 C   0  0  2  0  0  0  0  0  0  0  0  0
    9.5559  -15.4471   25.7701 N   0  0  0  0  0  0  0  0  0  0  0  0
    9.5537  -16.9891   27.5326 C   0  0  0  0  0  0  0  0  0  0  0  0
    8.2302  -17.3619   27.2908 O   0  0  0  0  0  0  0  0  0  0  0  0
   10.2072  -17.8373   28.2146 O   0  0  0  0  0  0  0  0  0  0  0  0
  2  1  1  0
  3  2  2  0
  4  2  1  0
  5  6  1  0
  5  4  1  0
  6  7  1  6
  8  6  1  0
  8  9  2  0
 10  8  1  0
 11 10  1  0
 11 12  1  1
 13 12  1  0
 13 18  2  0
 14 13  1  0
 15 14  2  0
 15 16  1  0
 16 17  2  0
 17 18  1  0
 19 11  1  0
 20 19  2  0
 21 22  1  0
 22 23  1  0
 23 25  1  0
 23 24  1  1
 25 26  1  6
 26 19  1  0
 27 25  1  0
 28 27  1  0
 29 27  2  0
M  END
$$$$
