QFI.pdb
     RDKit          3D

 29 29  0  0  1  0  0  0  0  0999 V2000
   13.5765  -17.6141   17.9136 N   0  0  0  0  0  0  0  0  0  0  0  0
   12.3947  -18.2190   17.4000 C   0  0  0  0  0  0  0  0  0  0  0  0
   12.4366  -18.9679   16.3695 O   0  0  0  0  0  0  0  0  0  0  0  0
   11.0652  -18.0013   18.0448 C   0  0  0  0  0  0  0  0  0  0  0  0
   11.1883  -17.0583   19.2040 C   0  0  0  0  0  0  0  0  0  0  0  0
   10.6734  -17.7679   20.4532 C   0  0  2  0  0  0  0  0  0  0  0  0
    9.4873  -18.4843   20.0649 N   0  0  0  0  0  0  0  0  0  0  0  0
   10.3466  -16.7835   21.4853 C   0  0  0  0  0  0  0  0  0  0  0  0
   11.1863  -15.8979   21.7859 O   0  0  0  0  0  0  0  0  0  0  0  0
    9.1154  -16.7525   22.1939 N   0  0  0  0  0  0  0  0  0  0  0  0
    8.7987  -15.7992   23.2424 C   0  0  1  0  0  0  0  0  0  0  0  0
    7.3827  -15.3172   23.1533 C   0  0  0  0  0  0  0  0  0  0  0  0
    6.9785  -14.3740   24.1983 C   0  0  0  0  0  0  0  0  0  0  0  0
    6.2290  -14.8103   25.2680 C   0  0  0  0  0  0  0  0  0  0  0  0
    5.8323  -13.9208   26.2736 C   0  0  0  0  0  0  0  0  0  0  0  0
    6.1903  -12.5965   26.2004 C   0  0  0  0  0  0  0  0  0  0  0  0
    6.9365  -12.1486   25.1407 C   0  0  0  0  0  0  0  0  0  0  0  0
    7.3153  -13.0477   24.1609 C   0  0  0  0  0  0  0  0  0  0  0  0
    9.2575  -16.2227   24.5605 C   0  0  0  0  0  0  0  0  0  0  0  0
    9.4084  -17.4627   24.7965 O   0  0  0  0  0  0  0  0  0  0  0  0
   11.6153  -14.0179   29.8988 C   0  0  0  0  0  0  0  0  0  0  0  0
   11.5464  -15.1297   28.8550 C   0  0  0  0  0  0  0  0  0  0  0  0
   10.8871  -14.6664   27.5892 C   0  0  2  0  0  0  0  0  0  0  0  0
    9.7497  -13.7303   28.0293 C   0  0  0  0  0  0  0  0  0  0  0  0
   10.3394  -15.7849   26.8084 C   0  0  2  0  0  0  0  0  0  0  0  0
    9.5692  -15.3878   25.6455 N   0  0  0  0  0  0  0  0  0  0  0  0
    9.4581  -16.6375   27.6229 C   0  0  0  0  0  0  0  0  0  0  0  0
    9.9087  -17.6719   28.4452 O   0  0  0  0  0  0  0  0  0  0  0  0
    8.1973  -16.4900   27.6315 O   0  0  0  0  0  0  0  0  0  0  0  0
  2  1  1  0
  3  2  2  0
  4  2  1  0
  5  6  1  0
  5  4  1  0
  6  7  1  6
  8  6  1  0
  8  9  2  0
 10  8  1  0
 11 10  1  0
 11 12  1  1
 13 12  1  0
 13 18  2  0
 14 13  1  0
 15 14  2  0
 15 16  1  0
 16 17  2  0
 17 18  1  0
 19 11  1  0
 20 19  2  0
 21 22  1  0
 22 23  1  0
 23 25  1  0
 23 24  1  1
 25 26  1  6
 26 19  1  0
 27 25  1  0
 28 27  1  0
 29 27  2  0
M  END
$$$$
