QFI.pdb
     RDKit          3D

 29 29  0  0  1  0  0  0  0  0999 V2000
   12.5563  -20.8756   21.9949 N   0  0  0  0  0  0  0  0  0  0  0  0
   12.1567  -20.8914   20.6287 C   0  0  0  0  0  0  0  0  0  0  0  0
   12.1498  -21.9767   19.9605 O   0  0  0  0  0  0  0  0  0  0  0  0
   11.7316  -19.6431   19.9274 C   0  0  0  0  0  0  0  0  0  0  0  0
   11.6799  -18.4905   20.8850 C   0  0  0  0  0  0  0  0  0  0  0  0
   10.6128  -17.5137   20.3989 C   0  0  2  0  0  0  0  0  0  0  0  0
   11.1748  -16.8092   19.2769 N   0  0  0  0  0  0  0  0  0  0  0  0
   10.2801  -16.5692   21.4657 C   0  0  0  0  0  0  0  0  0  0  0  0
   11.0836  -15.6451   21.7489 O   0  0  0  0  0  0  0  0  0  0  0  0
    9.0820  -16.6195   22.2279 N   0  0  0  0  0  0  0  0  0  0  0  0
    8.7910  -15.7490   23.3531 C   0  0  1  0  0  0  0  0  0  0  0  0
    7.3605  -15.3029   23.3620 C   0  0  0  0  0  0  0  0  0  0  0  0
    7.0306  -14.2875   24.3644 C   0  0  0  0  0  0  0  0  0  0  0  0
    7.4960  -12.9996   24.2198 C   0  0  0  0  0  0  0  0  0  0  0  0
    7.1919  -12.0181   25.1706 C   0  0  0  0  0  0  0  0  0  0  0  0
    6.4213  -12.3347   26.2630 C   0  0  0  0  0  0  0  0  0  0  0  0
    5.9513  -13.6134   26.4195 C   0  0  0  0  0  0  0  0  0  0  0  0
    6.2662  -14.5639   25.4659 C   0  0  0  0  0  0  0  0  0  0  0  0
    9.3223  -16.2477   24.6166 C   0  0  0  0  0  0  0  0  0  0  0  0
    9.6097  -17.4811   24.7256 O   0  0  0  0  0  0  0  0  0  0  0  0
    9.9311  -12.8497   29.1083 C   0  0  0  0  0  0  0  0  0  0  0  0
   10.3930  -13.7425   27.9595 C   0  0  0  0  0  0  0  0  0  0  0  0
    9.9994  -15.1747   28.1730 C   0  0  2  0  0  0  0  0  0  0  0  0
   10.8856  -15.6845   29.3213 C   0  0  0  0  0  0  0  0  0  0  0  0
   10.2175  -15.9940   26.9723 C   0  0  2  0  0  0  0  0  0  0  0  0
    9.5681  -15.4944   25.7757 N   0  0  0  0  0  0  0  0  0  0  0  0
    9.7419  -17.3743   27.1613 C   0  0  0  0  0  0  0  0  0  0  0  0
   10.5508  -18.4320   27.5808 O   0  0  0  0  0  0  0  0  0  0  0  0
    8.5356  -17.7070   26.9474 O   0  0  0  0  0  0  0  0  0  0  0  0
  2  1  1  0
  3  2  2  0
  4  2  1  0
  5  6  1  0
  5  4  1  0
  6  7  1  6
  8  6  1  0
  8  9  2  0
 10  8  1  0
 11 10  1  0
 11 12  1  1
 13 12  1  0
 13 18  2  0
 14 13  1  0
 15 14  2  0
 15 16  1  0
 16 17  2  0
 17 18  1  0
 19 11  1  0
 20 19  2  0
 21 22  1  0
 22 23  1  0
 23 25  1  0
 23 24  1  1
 25 26  1  6
 26 19  1  0
 27 25  1  0
 28 27  1  0
 29 27  2  0
M  END
$$$$
