QFI.pdb
     RDKit          3D

 29 29  0  0  1  0  0  0  0  0999 V2000
    8.2031  -12.1539   18.2677 N   0  0  0  0  0  0  0  0  0  0  0  0
    7.7942  -13.3965   17.7065 C   0  0  0  0  0  0  0  0  0  0  0  0
    7.6119  -13.5202   16.4511 O   0  0  0  0  0  0  0  0  0  0  0  0
    7.5638  -14.5990   18.5620 C   0  0  0  0  0  0  0  0  0  0  0  0
    7.8521  -14.2873   20.0000 C   0  0  0  0  0  0  0  0  0  0  0  0
    8.5117  -15.5107   20.6305 C   0  0  2  0  0  0  0  0  0  0  0  0
    7.6184  -16.6191   20.4195 N   0  0  0  0  0  0  0  0  0  0  0  0
    8.7027  -15.2894   22.0641 C   0  0  0  0  0  0  0  0  0  0  0  0
    9.5438  -14.4407   22.4541 O   0  0  0  0  0  0  0  0  0  0  0  0
    7.9881  -15.9818   23.0784 N   0  0  0  0  0  0  0  0  0  0  0  0
    8.2042  -15.7979   24.5024 C   0  0  1  0  0  0  0  0  0  0  0  0
    6.9366  -15.4495   25.2218 C   0  0  0  0  0  0  0  0  0  0  0  0
    6.8847  -14.0930   25.7714 C   0  0  0  0  0  0  0  0  0  0  0  0
    6.9789  -13.8962   27.1310 C   0  0  0  0  0  0  0  0  0  0  0  0
    6.9281  -12.6062   27.6723 C   0  0  0  0  0  0  0  0  0  0  0  0
    6.7828  -11.5190   26.8452 C   0  0  0  0  0  0  0  0  0  0  0  0
    6.6877  -11.7005   25.4893 C   0  0  0  0  0  0  0  0  0  0  0  0
    6.7407  -12.9850   24.9803 C   0  0  0  0  0  0  0  0  0  0  0  0
    9.0202  -16.8491   25.0992 C   0  0  0  0  0  0  0  0  0  0  0  0
    8.7346  -18.0654   24.8647 O   0  0  0  0  0  0  0  0  0  0  0  0
   13.9241  -16.4735   24.5535 C   0  0  0  0  0  0  0  0  0  0  0  0
   12.7287  -17.3980   24.7702 C   0  0  0  0  0  0  0  0  0  0  0  0
   12.4052  -17.5596   26.2264 C   0  0  2  0  0  0  0  0  0  0  0  0
   13.1670  -18.8133   26.6867 C   0  0  0  0  0  0  0  0  0  0  0  0
   10.9646  -17.7379   26.4574 C   0  0  2  0  0  0  0  0  0  0  0  0
   10.1339  -16.6699   25.9353 N   0  0  0  0  0  0  0  0  0  0  0  0
   10.6527  -17.8474   27.8919 C   0  0  0  0  0  0  0  0  0  0  0  0
   10.8286  -19.0089   28.6463 O   0  0  0  0  0  0  0  0  0  0  0  0
   10.1878  -16.8713   28.5573 O   0  0  0  0  0  0  0  0  0  0  0  0
  2  1  1  0
  3  2  2  0
  4  2  1  0
  5  6  1  0
  5  4  1  0
  6  7  1  1
  8  6  1  0
  8  9  2  0
 10  8  1  0
 11 10  1  0
 11 12  1  1
 13 12  1  0
 13 18  2  0
 14 13  1  0
 15 14  2  0
 15 16  1  0
 16 17  2  0
 17 18  1  0
 19 11  1  0
 20 19  2  0
 21 22  1  0
 22 23  1  0
 23 25  1  0
 23 24  1  6
 25 26  1  1
 26 19  1  0
 27 25  1  0
 28 27  1  0
 29 27  2  0
M  END
$$$$
