QFI.pdb
     RDKit          3D

 29 29  0  0  1  0  0  0  0  0999 V2000
    9.1422  -12.9573   17.0399 N   0  0  0  0  0  0  0  0  0  0  0  0
    8.9592  -14.3089   16.6323 C   0  0  0  0  0  0  0  0  0  0  0  0
    8.3980  -14.5883   15.5226 O   0  0  0  0  0  0  0  0  0  0  0  0
    9.4152  -15.4476   17.4844 C   0  0  0  0  0  0  0  0  0  0  0  0
   10.0305  -14.9432   18.7553 C   0  0  0  0  0  0  0  0  0  0  0  0
    9.9547  -16.0562   19.7967 C   0  0  2  0  0  0  0  0  0  0  0  0
    8.8074  -16.8587   19.4643 N   0  0  0  0  0  0  0  0  0  0  0  0
    9.7902  -15.4785   21.1309 C   0  0  0  0  0  0  0  0  0  0  0  0
   10.6374  -14.6547   21.5589 O   0  0  0  0  0  0  0  0  0  0  0  0
    8.7133  -15.7879   22.0047 N   0  0  0  0  0  0  0  0  0  0  0  0
    8.4924  -15.1480   23.2893 C   0  0  1  0  0  0  0  0  0  0  0  0
    7.0978  -14.6150   23.4180 C   0  0  0  0  0  0  0  0  0  0  0  0
    6.8457  -13.8121   24.6166 C   0  0  0  0  0  0  0  0  0  0  0  0
    7.2201  -12.4873   24.6500 C   0  0  0  0  0  0  0  0  0  0  0  0
    6.9887  -11.7071   25.7891 C   0  0  0  0  0  0  0  0  0  0  0  0
    6.3821  -12.2612   26.8902 C   0  0  0  0  0  0  0  0  0  0  0  0
    6.0043  -13.5792   26.8706 C   0  0  0  0  0  0  0  0  0  0  0  0
    6.2443  -14.3278   25.7330 C   0  0  0  0  0  0  0  0  0  0  0  0
    8.9935  -15.9304   24.4136 C   0  0  0  0  0  0  0  0  0  0  0  0
    8.9452  -17.1994   24.3575 O   0  0  0  0  0  0  0  0  0  0  0  0
   10.5736  -13.8326   29.5717 C   0  0  0  0  0  0  0  0  0  0  0  0
    9.8816  -14.6609   28.4923 C   0  0  0  0  0  0  0  0  0  0  0  0
   10.8653  -15.4461   27.6753 C   0  0  2  0  0  0  0  0  0  0  0  0
   11.8111  -14.4080   27.0495 C   0  0  0  0  0  0  0  0  0  0  0  0
   10.2085  -16.2257   26.6163 C   0  0  2  0  0  0  0  0  0  0  0  0
    9.5503  -15.4271   25.6003 N   0  0  0  0  0  0  0  0  0  0  0  0
    9.1862  -17.1331   27.1626 C   0  0  0  0  0  0  0  0  0  0  0  0
    9.4658  -18.2219   27.9906 O   0  0  0  0  0  0  0  0  0  0  0  0
    7.9507  -16.9872   26.9099 O   0  0  0  0  0  0  0  0  0  0  0  0
  2  1  1  0
  3  2  2  0
  4  2  1  0
  5  6  1  0
  5  4  1  0
  6  7  1  6
  8  6  1  0
  8  9  2  0
 10  8  1  0
 11 10  1  0
 11 12  1  1
 13 12  1  0
 13 18  2  0
 14 13  1  0
 15 14  2  0
 15 16  1  0
 16 17  2  0
 17 18  1  0
 19 11  1  0
 20 19  2  0
 21 22  1  0
 22 23  1  0
 23 25  1  0
 23 24  1  6
 25 26  1  6
 26 19  1  0
 27 25  1  0
 28 27  1  0
 29 27  2  0
M  END
$$$$
