QFI.pdb
     RDKit          3D

 29 29  0  0  1  0  0  0  0  0999 V2000
   13.8396  -20.7332   21.6488 N   0  0  0  0  0  0  0  0  0  0  0  0
   12.4976  -20.3520   21.3661 C   0  0  0  0  0  0  0  0  0  0  0  0
   11.5454  -21.1951   21.4500 O   0  0  0  0  0  0  0  0  0  0  0  0
   12.1535  -18.9559   20.9619 C   0  0  0  0  0  0  0  0  0  0  0  0
   10.6760  -18.8172   20.7469 C   0  0  0  0  0  0  0  0  0  0  0  0
   10.3890  -17.3809   20.3179 C   0  0  2  0  0  0  0  0  0  0  0  0
   11.5425  -16.9276   19.5865 N   0  0  0  0  0  0  0  0  0  0  0  0
   10.1844  -16.5408   21.4983 C   0  0  0  0  0  0  0  0  0  0  0  0
   11.1478  -15.8828   21.9658 O   0  0  0  0  0  0  0  0  0  0  0  0
    8.9423  -16.4090   22.1756 N   0  0  0  0  0  0  0  0  0  0  0  0
    8.6886  -15.4559   23.2413 C   0  0  1  0  0  0  0  0  0  0  0  0
    7.2664  -14.9838   23.2447 C   0  0  0  0  0  0  0  0  0  0  0  0
    6.9534  -13.9562   24.2402 C   0  0  0  0  0  0  0  0  0  0  0  0
    6.1635  -14.2654   25.3249 C   0  0  0  0  0  0  0  0  0  0  0  0
    5.8528  -13.2938   26.2837 C   0  0  0  0  0  0  0  0  0  0  0  0
    6.3371  -12.0153   26.1486 C   0  0  0  0  0  0  0  0  0  0  0  0
    7.1248  -11.6937   25.0733 C   0  0  0  0  0  0  0  0  0  0  0  0
    7.4167  -12.6719   24.1406 C   0  0  0  0  0  0  0  0  0  0  0  0
    9.2359  -15.8739   24.5269 C   0  0  0  0  0  0  0  0  0  0  0  0
    9.2163  -17.1060   24.8391 O   0  0  0  0  0  0  0  0  0  0  0  0
   10.7232  -14.0840   30.2593 C   0  0  0  0  0  0  0  0  0  0  0  0
   11.0491  -14.9884   29.0735 C   0  0  0  0  0  0  0  0  0  0  0  0
   10.4765  -14.4567   27.7925 C   0  0  2  0  0  0  0  0  0  0  0  0
    9.0755  -13.9321   28.1474 C   0  0  0  0  0  0  0  0  0  0  0  0
   10.3732  -15.4962   26.7583 C   0  0  2  0  0  0  0  0  0  0  0  0
    9.8099  -15.0419   25.5015 N   0  0  0  0  0  0  0  0  0  0  0  0
    9.5433  -16.6273   27.2043 C   0  0  0  0  0  0  0  0  0  0  0  0
   10.0323  -17.7292   27.9085 O   0  0  0  0  0  0  0  0  0  0  0  0
    8.2966  -16.6822   26.9709 O   0  0  0  0  0  0  0  0  0  0  0  0
  2  1  1  0
  3  2  2  0
  4  2  1  0
  5  6  1  0
  5  4  1  0
  6  7  1  1
  8  6  1  0
  8  9  2  0
 10  8  1  0
 11 10  1  0
 11 12  1  1
 13 12  1  0
 13 18  2  0
 14 13  1  0
 15 14  2  0
 15 16  1  0
 16 17  2  0
 17 18  1  0
 19 11  1  0
 20 19  2  0
 21 22  1  0
 22 23  1  0
 23 25  1  0
 23 24  1  1
 25 26  1  6
 26 19  1  0
 27 25  1  0
 28 27  1  0
 29 27  2  0
M  END
$$$$
