QFI.pdb
     RDKit          3D

 29 29  0  0  1  0  0  0  0  0999 V2000
   10.3788  -17.5037   16.9866 N   0  0  0  0  0  0  0  0  0  0  0  0
   11.7430  -17.8601   17.1822 C   0  0  0  0  0  0  0  0  0  0  0  0
   12.5222  -18.0394   16.1896 O   0  0  0  0  0  0  0  0  0  0  0  0
   12.3129  -18.0373   18.5513 C   0  0  0  0  0  0  0  0  0  0  0  0
   11.7844  -16.9883   19.4834 C   0  0  0  0  0  0  0  0  0  0  0  0
   11.4139  -17.6636   20.8009 C   0  0  2  0  0  0  0  0  0  0  0  0
   10.3588  -18.5970   20.5070 N   0  0  0  0  0  0  0  0  0  0  0  0
   10.9422  -16.6620   21.7577 C   0  0  0  0  0  0  0  0  0  0  0  0
   11.7157  -15.7417   22.1242 O   0  0  0  0  0  0  0  0  0  0  0  0
    9.6374  -16.6513   22.3200 N   0  0  0  0  0  0  0  0  0  0  0  0
    9.2121  -15.7587   23.3834 C   0  0  1  0  0  0  0  0  0  0  0  0
    7.7914  -15.3153   23.2090 C   0  0  0  0  0  0  0  0  0  0  0  0
    7.3244  -14.3235   24.1801 C   0  0  0  0  0  0  0  0  0  0  0  0
    7.6820  -13.0010   24.0407 C   0  0  0  0  0  0  0  0  0  0  0  0
    7.2463  -12.0412   24.9620 C   0  0  0  0  0  0  0  0  0  0  0  0
    6.4530  -12.4141   26.0198 C   0  0  0  0  0  0  0  0  0  0  0  0
    6.0895  -13.7277   26.1707 C   0  0  0  0  0  0  0  0  0  0  0  0
    6.5333  -14.6558   25.2468 C   0  0  0  0  0  0  0  0  0  0  0  0
    9.5854  -16.2305   24.7120 C   0  0  0  0  0  0  0  0  0  0  0  0
    9.6030  -17.4800   24.9449 O   0  0  0  0  0  0  0  0  0  0  0  0
    9.0772  -13.0133   29.2148 C   0  0  0  0  0  0  0  0  0  0  0  0
    9.8599  -13.7442   28.1268 C   0  0  0  0  0  0  0  0  0  0  0  0
    9.7275  -15.2338   28.2496 C   0  0  2  0  0  0  0  0  0  0  0  0
   10.4551  -15.6119   29.5502 C   0  0  0  0  0  0  0  0  0  0  0  0
   10.3368  -15.9396   27.1133 C   0  0  2  0  0  0  0  0  0  0  0  0
    9.9466  -15.4346   25.8110 N   0  0  0  0  0  0  0  0  0  0  0  0
   10.0056  -17.3740   27.1223 C   0  0  0  0  0  0  0  0  0  0  0  0
    8.7483  -17.8906   26.8037 O   0  0  0  0  0  0  0  0  0  0  0  0
   10.8595  -18.2611   27.4311 O   0  0  0  0  0  0  0  0  0  0  0  0
  2  1  1  0
  3  2  2  0
  4  2  1  0
  5  6  1  0
  5  4  1  0
  6  7  1  6
  8  6  1  0
  8  9  2  0
 10  8  1  0
 11 10  1  0
 11 12  1  1
 13 12  1  0
 13 18  2  0
 14 13  1  0
 15 14  2  0
 15 16  1  0
 16 17  2  0
 17 18  1  0
 19 11  1  0
 20 19  2  0
 21 22  1  0
 22 23  1  0
 23 25  1  0
 23 24  1  1
 25 26  1  6
 26 19  1  0
 27 25  1  0
 28 27  1  0
 29 27  2  0
M  END
$$$$
