QFI.pdb
     RDKit          3D

 29 29  0  0  1  0  0  0  0  0999 V2000
   11.1502  -20.2344   21.7195 N   0  0  0  0  0  0  0  0  0  0  0  0
   11.8812  -20.3347   20.5022 C   0  0  0  0  0  0  0  0  0  0  0  0
   11.9313  -21.4324   19.8563 O   0  0  0  0  0  0  0  0  0  0  0  0
   12.6150  -19.1635   19.9359 C   0  0  0  0  0  0  0  0  0  0  0  0
   12.3903  -17.9425   20.7767 C   0  0  0  0  0  0  0  0  0  0  0  0
   10.9076  -17.5864   20.7144 C   0  0  2  0  0  0  0  0  0  0  0  0
   10.7007  -16.8846   19.4753 N   0  0  0  0  0  0  0  0  0  0  0  0
   10.5556  -16.7230   21.8420 C   0  0  0  0  0  0  0  0  0  0  0  0
   11.4442  -16.0197   22.3857 O   0  0  0  0  0  0  0  0  0  0  0  0
    9.2467  -16.6166   22.3845 N   0  0  0  0  0  0  0  0  0  0  0  0
    8.8943  -15.7711   23.5112 C   0  0  1  0  0  0  0  0  0  0  0  0
    7.4538  -15.3595   23.4747 C   0  0  0  0  0  0  0  0  0  0  0  0
    7.0709  -14.3437   24.4577 C   0  0  0  0  0  0  0  0  0  0  0  0
    6.3047  -14.6932   25.5471 C   0  0  0  0  0  0  0  0  0  0  0  0
    5.9279  -13.7335   26.4941 C   0  0  0  0  0  0  0  0  0  0  0  0
    6.3225  -12.4264   26.3427 C   0  0  0  0  0  0  0  0  0  0  0  0
    7.0857  -12.0645   25.2624 C   0  0  0  0  0  0  0  0  0  0  0  0
    7.4443  -13.0317   24.3416 C   0  0  0  0  0  0  0  0  0  0  0  0
    9.3918  -16.2767   24.7856 C   0  0  0  0  0  0  0  0  0  0  0  0
    9.4369  -17.5320   24.9805 O   0  0  0  0  0  0  0  0  0  0  0  0
   10.6315  -12.7426   29.0104 C   0  0  0  0  0  0  0  0  0  0  0  0
   10.8730  -13.7729   27.9101 C   0  0  0  0  0  0  0  0  0  0  0  0
   10.2768  -15.1063   28.2538 C   0  0  2  0  0  0  0  0  0  0  0  0
   11.1110  -15.6468   29.4267 C   0  0  0  0  0  0  0  0  0  0  0  0
   10.3343  -16.0462   27.1252 C   0  0  2  0  0  0  0  0  0  0  0  0
    9.8499  -15.5089   25.8682 N   0  0  0  0  0  0  0  0  0  0  0  0
    9.5499  -17.2635   27.3899 C   0  0  0  0  0  0  0  0  0  0  0  0
   10.1078  -18.4982   27.7268 O   0  0  0  0  0  0  0  0  0  0  0  0
    8.2822  -17.2760   27.3252 O   0  0  0  0  0  0  0  0  0  0  0  0
  2  1  1  0
  3  2  2  0
  4  2  1  0
  5  6  1  0
  5  4  1  0
  6  7  1  6
  8  6  1  0
  8  9  2  0
 10  8  1  0
 11 10  1  0
 11 12  1  1
 13 12  1  0
 13 18  2  0
 14 13  1  0
 15 14  2  0
 15 16  1  0
 16 17  2  0
 17 18  1  0
 19 11  1  0
 20 19  2  0
 21 22  1  0
 22 23  1  0
 23 25  1  0
 23 24  1  1
 25 26  1  6
 26 19  1  0
 27 25  1  0
 28 27  1  0
 29 27  2  0
M  END
$$$$
