QFI.pdb
     RDKit          3D

 29 29  0  0  1  0  0  0  0  0999 V2000
    9.3753  -21.2278   20.8741 N   0  0  0  0  0  0  0  0  0  0  0  0
   10.0125  -20.3532   19.9492 C   0  0  0  0  0  0  0  0  0  0  0  0
    9.4018  -19.9421   18.9087 O   0  0  0  0  0  0  0  0  0  0  0  0
   11.4149  -19.8847   20.1601 C   0  0  0  0  0  0  0  0  0  0  0  0
   11.4664  -18.8366   21.2312 C   0  0  0  0  0  0  0  0  0  0  0  0
   10.8839  -17.5452   20.6637 C   0  0  2  0  0  0  0  0  0  0  0  0
   11.9051  -16.9566   19.8381 N   0  0  0  0  0  0  0  0  0  0  0  0
   10.5374  -16.6341   21.7549 C   0  0  0  0  0  0  0  0  0  0  0  0
   11.4086  -15.8499   22.2084 O   0  0  0  0  0  0  0  0  0  0  0  0
    9.2527  -16.5674   22.3581 N   0  0  0  0  0  0  0  0  0  0  0  0
    8.9184  -15.7054   23.4779 C   0  0  1  0  0  0  0  0  0  0  0  0
    7.5121  -15.1950   23.3925 C   0  0  0  0  0  0  0  0  0  0  0  0
    7.1285  -14.2471   24.4410 C   0  0  0  0  0  0  0  0  0  0  0  0
    7.5179  -12.9291   24.3545 C   0  0  0  0  0  0  0  0  0  0  0  0
    7.1618  -12.0113   25.3498 C   0  0  0  0  0  0  0  0  0  0  0  0
    6.4159  -12.4215   26.4280 C   0  0  0  0  0  0  0  0  0  0  0  0
    6.0214  -13.7311   26.5267 C   0  0  0  0  0  0  0  0  0  0  0  0
    6.3864  -14.6173   25.5301 C   0  0  0  0  0  0  0  0  0  0  0  0
    9.3330  -16.2509   24.7654 C   0  0  0  0  0  0  0  0  0  0  0  0
    9.1586  -17.4878   25.0008 O   0  0  0  0  0  0  0  0  0  0  0  0
   10.3484  -13.3591   29.6520 C   0  0  0  0  0  0  0  0  0  0  0  0
    9.8360  -14.3382   28.5989 C   0  0  0  0  0  0  0  0  0  0  0  0
   10.9441  -15.1731   28.0274 C   0  0  2  0  0  0  0  0  0  0  0  0
   11.9114  -14.1823   27.3592 C   0  0  0  0  0  0  0  0  0  0  0  0
   10.4539  -16.1393   27.0340 C   0  0  2  0  0  0  0  0  0  0  0  0
    9.9308  -15.5425   25.8201 N   0  0  0  0  0  0  0  0  0  0  0  0
    9.3803  -16.9851   27.5808 C   0  0  0  0  0  0  0  0  0  0  0  0
    8.0628  -16.9765   27.1187 O   0  0  0  0  0  0  0  0  0  0  0  0
    9.5819  -17.7976   28.5351 O   0  0  0  0  0  0  0  0  0  0  0  0
  2  1  1  0
  3  2  2  0
  4  2  1  0
  5  6  1  0
  5  4  1  0
  6  7  1  6
  8  6  1  0
  8  9  2  0
 10  8  1  0
 11 10  1  0
 11 12  1  1
 13 12  1  0
 13 18  2  0
 14 13  1  0
 15 14  2  0
 15 16  1  0
 16 17  2  0
 17 18  1  0
 19 11  1  0
 20 19  2  0
 21 22  1  0
 22 23  1  0
 23 25  1  0
 23 24  1  6
 25 26  1  6
 26 19  1  0
 27 25  1  0
 28 27  1  0
 29 27  2  0
M  END
$$$$
