QFI.pdb
     RDKit          3D

 29 29  0  0  1  0  0  0  0  0999 V2000
    6.2291  -19.8126   21.5008 N   0  0  0  0  0  0  0  0  0  0  0  0
    7.0997  -20.4016   20.5408 C   0  0  0  0  0  0  0  0  0  0  0  0
    6.6514  -21.1939   19.6487 O   0  0  0  0  0  0  0  0  0  0  0  0
    8.5657  -20.1161   20.5405 C   0  0  0  0  0  0  0  0  0  0  0  0
    8.9147  -19.1433   21.6269 C   0  0  0  0  0  0  0  0  0  0  0  0
    8.8305  -17.7330   21.0497 C   0  0  2  0  0  0  0  0  0  0  0  0
    9.8980  -17.6115   20.0924 N   0  0  0  0  0  0  0  0  0  0  0  0
    9.0029  -16.7475   22.1175 C   0  0  0  0  0  0  0  0  0  0  0  0
   10.1613  -16.4022   22.4617 O   0  0  0  0  0  0  0  0  0  0  0  0
    7.9279  -16.1336   22.8148 N   0  0  0  0  0  0  0  0  0  0  0  0
    8.0905  -15.2590   23.9625 C   0  0  1  0  0  0  0  0  0  0  0  0
    6.9103  -14.3549   24.1504 C   0  0  0  0  0  0  0  0  0  0  0  0
    6.9584  -13.5073   25.3438 C   0  0  0  0  0  0  0  0  0  0  0  0
    7.6932  -12.3428   25.3328 C   0  0  0  0  0  0  0  0  0  0  0  0
    7.7517  -11.5232   26.4662 C   0  0  0  0  0  0  0  0  0  0  0  0
    7.0716  -11.8770   27.6061 C   0  0  0  0  0  0  0  0  0  0  0  0
    6.3360  -13.0340   27.6309 C   0  0  0  0  0  0  0  0  0  0  0  0
    6.2948  -13.8257   26.4980 C   0  0  0  0  0  0  0  0  0  0  0  0
    8.5692  -15.9555   25.1512 C   0  0  0  0  0  0  0  0  0  0  0  0
    7.8936  -16.9268   25.6160 O   0  0  0  0  0  0  0  0  0  0  0  0
   13.9708  -17.9876   27.0336 C   0  0  0  0  0  0  0  0  0  0  0  0
   12.5126  -17.7335   27.4068 C   0  0  0  0  0  0  0  0  0  0  0  0
   11.8600  -16.7563   26.4737 C   0  0  2  0  0  0  0  0  0  0  0  0
   12.5835  -15.4182   26.6975 C   0  0  0  0  0  0  0  0  0  0  0  0
   10.4248  -16.6002   26.7500 C   0  0  2  0  0  0  0  0  0  0  0  0
    9.7398  -15.6708   25.8724 N   0  0  0  0  0  0  0  0  0  0  0  0
   10.1827  -16.1332   28.1249 C   0  0  0  0  0  0  0  0  0  0  0  0
    9.8399  -14.8217   28.4588 O   0  0  0  0  0  0  0  0  0  0  0  0
   10.2744  -16.9082   29.1262 O   0  0  0  0  0  0  0  0  0  0  0  0
  2  1  1  0
  3  2  2  0
  4  2  1  0
  5  6  1  0
  5  4  1  0
  6  7  1  6
  8  6  1  0
  8  9  2  0
 10  8  1  0
 11 10  1  0
 11 12  1  1
 13 12  1  0
 13 18  2  0
 14 13  1  0
 15 14  2  0
 15 16  1  0
 16 17  2  0
 17 18  1  0
 19 11  1  0
 20 19  2  0
 21 22  1  0
 22 23  1  0
 23 25  1  0
 23 24  1  1
 25 26  1  6
 26 19  1  0
 27 25  1  0
 28 27  1  0
 29 27  2  0
M  END
$$$$
