QFI.pdb
     RDKit          3D

 29 29  0  0  1  0  0  0  0  0999 V2000
   13.8433  -18.0754   19.8700 N   0  0  0  0  0  0  0  0  0  0  0  0
   13.0572  -19.0300   19.1651 C   0  0  0  0  0  0  0  0  0  0  0  0
   13.5954  -20.0508   18.6240 O   0  0  0  0  0  0  0  0  0  0  0  0
   11.5777  -18.8744   19.0321 C   0  0  0  0  0  0  0  0  0  0  0  0
   11.1124  -17.6313   19.7296 C   0  0  0  0  0  0  0  0  0  0  0  0
   10.3691  -18.0449   20.9967 C   0  0  2  0  0  0  0  0  0  0  0  0
    9.0861  -18.5466   20.5806 N   0  0  0  0  0  0  0  0  0  0  0  0
   10.1920  -16.8847   21.8705 C   0  0  0  0  0  0  0  0  0  0  0  0
   11.1234  -16.0491   21.9885 O   0  0  0  0  0  0  0  0  0  0  0  0
    9.0118  -16.6241   22.6176 N   0  0  0  0  0  0  0  0  0  0  0  0
    8.8274  -15.4704   23.4799 C   0  0  1  0  0  0  0  0  0  0  0  0
    7.3793  -15.2029   23.7570 C   0  0  0  0  0  0  0  0  0  0  0  0
    7.1153  -14.0940   24.6765 C   0  0  0  0  0  0  0  0  0  0  0  0
    7.6544  -12.8511   24.4302 C   0  0  0  0  0  0  0  0  0  0  0  0
    7.4139  -11.7817   25.3009 C   0  0  0  0  0  0  0  0  0  0  0  0
    6.6325  -11.9654   26.4158 C   0  0  0  0  0  0  0  0  0  0  0  0
    6.0893  -13.1978   26.6732 C   0  0  0  0  0  0  0  0  0  0  0  0
    6.3424  -14.2374   25.7973 C   0  0  0  0  0  0  0  0  0  0  0  0
    9.7194  -15.4684   24.6339 C   0  0  0  0  0  0  0  0  0  0  0  0
   10.5914  -14.5499   24.7430 O   0  0  0  0  0  0  0  0  0  0  0  0
    9.6137  -12.8942   28.4480 C   0  0  0  0  0  0  0  0  0  0  0  0
   10.1675  -13.8891   27.4312 C   0  0  0  0  0  0  0  0  0  0  0  0
    9.9687  -15.3088   27.8745 C   0  0  2  0  0  0  0  0  0  0  0  0
   10.7206  -15.4385   29.2093 C   0  0  0  0  0  0  0  0  0  0  0  0
   10.5056  -16.2727   26.9033 C   0  0  2  0  0  0  0  0  0  0  0  0
    9.7275  -16.3983   25.6859 N   0  0  0  0  0  0  0  0  0  0  0  0
   10.6064  -17.6247   27.4769 C   0  0  0  0  0  0  0  0  0  0  0  0
   11.7525  -18.1325   28.0915 O   0  0  0  0  0  0  0  0  0  0  0  0
    9.6363  -18.4431   27.4486 O   0  0  0  0  0  0  0  0  0  0  0  0
  2  1  1  0
  3  2  2  0
  4  2  1  0
  5  6  1  0
  5  4  1  0
  6  7  1  6
  8  6  1  0
  8  9  2  0
 10  8  1  0
 11 10  1  0
 11 12  1  1
 13 12  1  0
 13 18  2  0
 14 13  1  0
 15 14  2  0
 15 16  1  0
 16 17  2  0
 17 18  1  0
 19 11  1  0
 20 19  2  0
 21 22  1  0
 22 23  1  0
 23 25  1  0
 23 24  1  1
 25 26  1  6
 26 19  1  0
 27 25  1  0
 28 27  1  0
 29 27  2  0
M  END
$$$$
