QFI.pdb
     RDKit          3D

 29 29  0  0  1  0  0  0  0  0999 V2000
    9.8081  -19.8080   17.8178 N   0  0  0  0  0  0  0  0  0  0  0  0
   10.0400  -20.0088   19.2079 C   0  0  0  0  0  0  0  0  0  0  0  0
    9.1293  -20.4844   19.9622 O   0  0  0  0  0  0  0  0  0  0  0  0
   11.3530  -19.6717   19.8348 C   0  0  0  0  0  0  0  0  0  0  0  0
   11.1547  -18.8092   21.0452 C   0  0  0  0  0  0  0  0  0  0  0  0
   10.8855  -17.3823   20.5755 C   0  0  2  0  0  0  0  0  0  0  0  0
   12.0977  -16.9125   19.9584 N   0  0  0  0  0  0  0  0  0  0  0  0
   10.5483  -16.5369   21.7211 C   0  0  0  0  0  0  0  0  0  0  0  0
   11.4573  -15.9001   22.3110 O   0  0  0  0  0  0  0  0  0  0  0  0
    9.2321  -16.3769   22.2318 N   0  0  0  0  0  0  0  0  0  0  0  0
    8.8911  -15.5363   23.3657 C   0  0  1  0  0  0  0  0  0  0  0  0
    7.5066  -14.9746   23.2513 C   0  0  0  0  0  0  0  0  0  0  0  0
    7.0579  -14.1842   24.3997 C   0  0  0  0  0  0  0  0  0  0  0  0
    6.1823  -14.7296   25.3119 C   0  0  0  0  0  0  0  0  0  0  0  0
    5.7417  -13.9862   26.4133 C   0  0  0  0  0  0  0  0  0  0  0  0
    6.1827  -12.6978   26.5937 C   0  0  0  0  0  0  0  0  0  0  0  0
    7.0547  -12.1422   25.6930 C   0  0  0  0  0  0  0  0  0  0  0  0
    7.4744  -12.8978   24.6137 C   0  0  0  0  0  0  0  0  0  0  0  0
    9.2445  -16.1329   24.6488 C   0  0  0  0  0  0  0  0  0  0  0  0
    9.3063  -17.3986   24.7490 O   0  0  0  0  0  0  0  0  0  0  0  0
   11.2013  -12.7496   28.6880 C   0  0  0  0  0  0  0  0  0  0  0  0
   11.1942  -13.8372   27.6168 C   0  0  0  0  0  0  0  0  0  0  0  0
   10.4738  -15.0700   28.0783 C   0  0  2  0  0  0  0  0  0  0  0  0
   11.3875  -15.7179   29.1315 C   0  0  0  0  0  0  0  0  0  0  0  0
   10.2317  -16.0145   26.9783 C   0  0  2  0  0  0  0  0  0  0  0  0
    9.5407  -15.4460   25.8370 N   0  0  0  0  0  0  0  0  0  0  0  0
    9.4323  -17.1696   27.4186 C   0  0  0  0  0  0  0  0  0  0  0  0
    9.9739  -18.3989   27.7991 O   0  0  0  0  0  0  0  0  0  0  0  0
    8.1650  -17.1281   27.4810 O   0  0  0  0  0  0  0  0  0  0  0  0
  2  1  1  0
  3  2  2  0
  4  2  1  0
  5  6  1  0
  5  4  1  0
  6  7  1  1
  8  6  1  0
  8  9  2  0
 10  8  1  0
 11 10  1  0
 11 12  1  1
 13 12  1  0
 13 18  2  0
 14 13  1  0
 15 14  2  0
 15 16  1  0
 16 17  2  0
 17 18  1  0
 19 11  1  0
 20 19  2  0
 21 22  1  0
 22 23  1  0
 23 25  1  0
 23 24  1  1
 25 26  1  6
 26 19  1  0
 27 25  1  0
 28 27  1  0
 29 27  2  0
M  END
$$$$
