ERK.pdb
     RDKit          3D

 30 29  0  0  1  0  0  0  0  0999 V2000
   20.5054  -21.8702   -6.8529 N   0  0  0  0  0  0  0  0  0  0  0  0
   20.8702  -22.3644   -8.1919 C   0  0  1  0  0  0  0  0  0  0  0  0
   19.7797  -23.2557   -8.6834 C   0  0  0  0  0  0  0  0  0  0  0  0
   19.6107  -24.4964   -7.8741 C   0  0  0  0  0  0  0  0  0  0  0  0
   18.5194  -25.3824   -8.2728 C   0  0  0  0  0  0  0  0  0  0  0  0
   18.0841  -25.3894   -9.4436 O   0  0  0  0  0  0  0  0  0  0  0  0
   21.0939  -21.1965   -9.0942 C   0  0  0  0  0  0  0  0  0  0  0  0
   20.1941  -20.3277   -9.1526 O   0  0  0  0  0  0  0  0  0  0  0  0
   17.8935  -26.2698   -7.3934 O   0  0  0  0  0  0  0  0  0  0  0  0
   27.6447  -20.8174  -14.3366 N   0  0  0  0  0  0  0  0  0  0  0  0
   27.1366  -21.9901  -13.7157 C   0  0  0  0  0  0  0  0  0  0  0  0
   27.0685  -23.0778  -14.3961 N   0  0  0  0  0  0  0  0  0  0  0  0
   26.7037  -21.9861  -12.3632 N   0  0  0  0  0  0  0  0  0  0  0  0
   26.0854  -20.7985  -11.7820 C   0  0  0  0  0  0  0  0  0  0  0  0
   24.5979  -21.0377  -11.7302 C   0  0  0  0  0  0  0  0  0  0  0  0
   23.9043  -19.8303  -11.1246 C   0  0  0  0  0  0  0  0  0  0  0  0
   22.4404  -20.0953  -10.9106 C   0  0  2  0  0  0  0  0  0  0  0  0
   22.2748  -21.0539   -9.8673 N   0  0  0  0  0  0  0  0  0  0  0  0
   21.7629  -20.5151  -12.1725 C   0  0  0  0  0  0  0  0  0  0  0  0
   21.2631  -21.6744  -12.3001 O   0  0  0  0  0  0  0  0  0  0  0  0
   26.7425  -23.9806  -14.0249 N   0  0  0  0  0  0  0  0  0  0  0  0
   21.6486  -19.6529  -13.2671 C   0  0  1  0  0  0  0  0  0  0  0  0
   20.6981  -19.9407  -14.3801 C   0  0  0  0  0  0  0  0  0  0  0  0
   19.6580  -20.8607  -13.8930 C   0  0  0  0  0  0  0  0  0  0  0  0
   18.3929  -21.1019  -14.5372 C   0  0  0  0  0  0  0  0  0  0  0  0
   17.3498  -21.9936  -14.0382 C   0  0  0  0  0  0  0  0  0  0  0  0
   16.1231  -22.0819  -14.9299 N   0  0  0  0  0  0  0  0  0  0  0  0
   15.1531  -22.9110  -14.2440 C   0  0  0  0  0  0  0  0  0  0  0  0
   20.2607  -18.5895  -14.7991 O   0  0  0  0  0  0  0  0  0  0  0  0
   20.1116  -18.3063  -16.0006 O   0  0  0  0  0  0  0  0  0  0  0  0
  2  1  1  1
  2  3  1  0
  3  4  1  0
  4  5  1  0
  5  9  1  0
  6  5  2  0
  7  2  1  0
  7  8  2  0
 11 10  1  0
 11 12  2  0
 13 11  1  0
 14 13  1  0
 15 16  1  0
 15 14  1  0
 17 16  1  6
 17 18  1  0
 18  7  1  0
 19 21  1  0
 19 17  1  0
 20 19  2  0
 22 21  1  0
 22 28  1  0
 23 24  1  0
 22 23  1  6
 25 24  1  0
 26 25  1  0
 26 27  1  0
 28 30  1  0
 29 28  2  0
M  END
$$$$
