ERK.pdb
     RDKit          3D

 30 29  0  0  1  0  0  0  0  0999 V2000
   18.5916  -25.5161   -4.5842 N   0  0  0  0  0  0  0  0  0  0  0  0
   17.5372  -25.5602   -5.6122 C   0  0  1  0  0  0  0  0  0  0  0  0
   16.4734  -24.5812   -5.2449 C   0  0  0  0  0  0  0  0  0  0  0  0
   15.5676  -25.0604   -4.1620 C   0  0  0  0  0  0  0  0  0  0  0  0
   14.4222  -24.2068   -3.8550 C   0  0  0  0  0  0  0  0  0  0  0  0
   13.2510  -24.6242   -3.9758 O   0  0  0  0  0  0  0  0  0  0  0  0
   18.1454  -25.2601   -6.9419 C   0  0  0  0  0  0  0  0  0  0  0  0
   19.1316  -24.4890   -6.9682 O   0  0  0  0  0  0  0  0  0  0  0  0
   14.5474  -22.8872   -3.4126 O   0  0  0  0  0  0  0  0  0  0  0  0
   20.9119  -30.2018  -13.2778 N   0  0  0  0  0  0  0  0  0  0  0  0
   21.5132  -28.9146  -13.2576 C   0  0  0  0  0  0  0  0  0  0  0  0
   22.6706  -28.7572  -13.7926 N   0  0  0  0  0  0  0  0  0  0  0  0
   20.8643  -27.8012  -12.6608 N   0  0  0  0  0  0  0  0  0  0  0  0
   19.5179  -27.9294  -12.1119 C   0  0  0  0  0  0  0  0  0  0  0  0
   19.1569  -26.6108  -11.4766 C   0  0  0  0  0  0  0  0  0  0  0  0
   18.5532  -26.8502  -10.1041 C   0  0  0  0  0  0  0  0  0  0  0  0
   18.1837  -25.5538   -9.4394 C   0  0  2  0  0  0  0  0  0  0  0  0
   17.6420  -25.8161   -8.1461 N   0  0  0  0  0  0  0  0  0  0  0  0
   17.2572  -24.7429  -10.2830 C   0  0  0  0  0  0  0  0  0  0  0  0
   16.0143  -24.9942  -10.3289 O   0  0  0  0  0  0  0  0  0  0  0  0
   23.1592  -27.8552  -13.8751 N   0  0  0  0  0  0  0  0  0  0  0  0
   17.7154  -23.6733  -11.0580 C   0  0  2  0  0  0  0  0  0  0  0  0
   16.7783  -22.8705  -11.8961 C   0  0  0  0  0  0  0  0  0  0  0  0
   17.5574  -22.1017  -12.8796 C   0  0  0  0  0  0  0  0  0  0  0  0
   17.0030  -21.2197  -13.8738 C   0  0  0  0  0  0  0  0  0  0  0  0
   17.7793  -20.3852  -14.7866 C   0  0  0  0  0  0  0  0  0  0  0  0
   16.9411  -19.4745  -15.6674 N   0  0  0  0  0  0  0  0  0  0  0  0
   17.8581  -18.6948  -16.4735 C   0  0  0  0  0  0  0  0  0  0  0  0
   15.8476  -23.8939  -12.4243 O   0  0  0  0  0  0  0  0  0  0  0  0
   14.6270  -23.6716  -12.5055 O   0  0  0  0  0  0  0  0  0  0  0  0
  2  1  1  1
  2  3  1  0
  3  4  1  0
  4  5  1  0
  5  9  1  0
  6  5  2  0
  7  2  1  0
  7  8  2  0
 11 10  1  0
 11 12  2  0
 13 11  1  0
 14 13  1  0
 15 16  1  0
 15 14  1  0
 17 16  1  6
 17 18  1  0
 18  7  1  0
 19 21  1  0
 19 17  1  0
 20 19  2  0
 22 21  1  0
 22 28  1  0
 23 24  1  0
 22 23  1  1
 25 24  1  0
 26 25  1  0
 26 27  1  0
 28 30  1  0
 29 28  2  0
M  END
$$$$
