ERK.pdb
     RDKit          3D

 30 29  0  0  1  0  0  0  0  0999 V2000
   27.3969  -18.0790  -18.2004 N   0  0  0  0  0  0  0  0  0  0  0  0
   26.7453  -19.2777  -18.7561 C   0  0  1  0  0  0  0  0  0  0  0  0
   27.7668  -20.0753  -19.4945 C   0  0  0  0  0  0  0  0  0  0  0  0
   28.6866  -20.8400  -18.6045 C   0  0  0  0  0  0  0  0  0  0  0  0
   29.7244  -21.6237  -19.2706 C   0  0  0  0  0  0  0  0  0  0  0  0
   30.5690  -22.2710  -18.6164 O   0  0  0  0  0  0  0  0  0  0  0  0
   26.1237  -20.0512  -17.6410 C   0  0  0  0  0  0  0  0  0  0  0  0
   25.3436  -20.9823  -17.9450 O   0  0  0  0  0  0  0  0  0  0  0  0
   29.8479  -21.7067  -20.6600 O   0  0  0  0  0  0  0  0  0  0  0  0
   24.1738  -19.8605  -10.4553 N   0  0  0  0  0  0  0  0  0  0  0  0
   24.9045  -20.9281   -9.8678 C   0  0  0  0  0  0  0  0  0  0  0  0
   24.4286  -21.5130   -8.8275 N   0  0  0  0  0  0  0  0  0  0  0  0
   26.1458  -21.3619  -10.4041 N   0  0  0  0  0  0  0  0  0  0  0  0
   26.7751  -20.6395  -11.5054 C   0  0  0  0  0  0  0  0  0  0  0  0
   25.8966  -20.8035  -12.7195 C   0  0  0  0  0  0  0  0  0  0  0  0
   26.6005  -20.2423  -13.9423 C   0  0  0  0  0  0  0  0  0  0  0  0
   25.7652  -20.4196  -15.1791 C   0  0  2  0  0  0  0  0  0  0  0  0
   26.3915  -19.7608  -16.2784 N   0  0  0  0  0  0  0  0  0  0  0  0
   24.3618  -19.9560  -14.9714 C   0  0  0  0  0  0  0  0  0  0  0  0
   24.0933  -18.7327  -14.7677 O   0  0  0  0  0  0  0  0  0  0  0  0
   24.8987  -22.2729   -8.3172 N   0  0  0  0  0  0  0  0  0  0  0  0
   23.2834  -20.8455  -14.9919 C   0  0  1  0  0  0  0  0  0  0  0  0
   21.8762  -20.3515  -15.0206 C   0  0  0  0  0  0  0  0  0  0  0  0
   21.3228  -20.5664  -16.3671 C   0  0  0  0  0  0  0  0  0  0  0  0
   20.4134  -19.6785  -17.0440 C   0  0  0  0  0  0  0  0  0  0  0  0
   20.2681  -18.2517  -16.7694 C   0  0  0  0  0  0  0  0  0  0  0  0
   19.2188  -17.5549  -17.6187 N   0  0  0  0  0  0  0  0  0  0  0  0
   19.1443  -16.1807  -17.1665 C   0  0  0  0  0  0  0  0  0  0  0  0
   21.2431  -21.0918  -13.9054 O   0  0  0  0  0  0  0  0  0  0  0  0
   21.6120  -22.2408  -13.6056 O   0  0  0  0  0  0  0  0  0  0  0  0
  2  1  1  1
  2  3  1  0
  3  4  1  0
  4  5  1  0
  5  9  1  0
  6  5  2  0
  7  2  1  0
  7  8  2  0
 11 10  1  0
 11 12  2  0
 13 11  1  0
 14 13  1  0
 15 16  1  0
 15 14  1  0
 17 16  1  1
 17 18  1  0
 18  7  1  0
 19 21  1  0
 19 17  1  0
 20 19  2  0
 22 21  1  0
 22 28  1  0
 23 24  1  0
 22 23  1  1
 25 24  1  0
 26 25  1  0
 26 27  1  0
 28 30  1  0
 29 28  2  0
M  END
$$$$
