ERK.pdb
     RDKit          3D

 30 29  0  0  1  0  0  0  0  0999 V2000
   20.9798  -28.5639  -11.5984 N   0  0  0  0  0  0  0  0  0  0  0  0
   19.8153  -27.6749  -11.7531 C   0  0  1  0  0  0  0  0  0  0  0  0
   18.5857  -28.5140  -11.8489 C   0  0  0  0  0  0  0  0  0  0  0  0
   18.7367  -29.8679  -11.2429 C   0  0  0  0  0  0  0  0  0  0  0  0
   17.5792  -30.3800  -10.5129 C   0  0  0  0  0  0  0  0  0  0  0  0
   17.6848  -30.7992   -9.3410 O   0  0  0  0  0  0  0  0  0  0  0  0
   19.7675  -26.7344  -10.5949 C   0  0  0  0  0  0  0  0  0  0  0  0
   20.4459  -27.0247   -9.5833 O   0  0  0  0  0  0  0  0  0  0  0  0
   16.2942  -30.4382  -11.0588 O   0  0  0  0  0  0  0  0  0  0  0  0
   21.4722  -20.3836  -12.1582 N   0  0  0  0  0  0  0  0  0  0  0  0
   20.2438  -19.7907  -11.7603 C   0  0  0  0  0  0  0  0  0  0  0  0
   19.7726  -18.8105  -12.4444 N   0  0  0  0  0  0  0  0  0  0  0  0
   19.5273  -20.2567  -10.6262 N   0  0  0  0  0  0  0  0  0  0  0  0
   19.8595  -21.5371  -10.0091 C   0  0  0  0  0  0  0  0  0  0  0  0
   19.1919  -22.6201  -10.8179 C   0  0  0  0  0  0  0  0  0  0  0  0
   18.2140  -23.3850   -9.9438 C   0  0  0  0  0  0  0  0  0  0  0  0
   18.7991  -24.6931   -9.4903 C   0  0  2  0  0  0  0  0  0  0  0  0
   18.9892  -25.5485  -10.6159 N   0  0  0  0  0  0  0  0  0  0  0  0
   17.9666  -25.3350   -8.4308 C   0  0  0  0  0  0  0  0  0  0  0  0
   16.8674  -25.9047   -8.7086 O   0  0  0  0  0  0  0  0  0  0  0  0
   18.9216  -18.2846  -12.2033 N   0  0  0  0  0  0  0  0  0  0  0  0
   18.3591  -25.3376   -7.0889 C   0  0  2  0  0  0  0  0  0  0  0  0
   17.4947  -25.9406   -6.0333 C   0  0  0  0  0  0  0  0  0  0  0  0
   18.3314  -26.2913   -4.8747 C   0  0  0  0  0  0  0  0  0  0  0  0
   17.8593  -26.9174   -3.6669 C   0  0  0  0  0  0  0  0  0  0  0  0
   18.6756  -27.1994   -2.4895 C   0  0  0  0  0  0  0  0  0  0  0  0
   17.8839  -27.6408   -1.2705 N   0  0  0  0  0  0  0  0  0  0  0  0
   18.8391  -27.9334   -0.2215 C   0  0  0  0  0  0  0  0  0  0  0  0
   16.4554  -24.9064   -5.8263 O   0  0  0  0  0  0  0  0  0  0  0  0
   16.6755  -23.7120   -6.0927 O   0  0  0  0  0  0  0  0  0  0  0  0
  2  1  1  1
  2  3  1  0
  3  4  1  0
  4  5  1  0
  5  9  1  0
  6  5  2  0
  7  2  1  0
  7  8  2  0
 11 10  1  0
 11 12  2  0
 13 11  1  0
 14 13  1  0
 15 16  1  0
 15 14  1  0
 17 16  1  6
 17 18  1  0
 18  7  1  0
 19 21  1  0
 19 17  1  0
 20 19  2  0
 22 21  1  0
 22 28  1  0
 23 24  1  0
 22 23  1  6
 25 24  1  0
 26 25  1  0
 26 27  1  0
 28 30  1  0
 29 28  2  0
M  END
$$$$
