ERK.pdb
     RDKit          3D

 30 29  0  0  1  0  0  0  0  0999 V2000
   28.3874  -20.7383  -18.7350 N   0  0  0  0  0  0  0  0  0  0  0  0
   27.7937  -19.6783  -17.9017 C   0  0  1  0  0  0  0  0  0  0  0  0
   27.0579  -18.7317  -18.7890 C   0  0  0  0  0  0  0  0  0  0  0  0
   27.8949  -17.6007  -19.2822 C   0  0  0  0  0  0  0  0  0  0  0  0
   29.0787  -17.9651  -20.0572 C   0  0  0  0  0  0  0  0  0  0  0  0
   30.1354  -18.3256  -19.4969 O   0  0  0  0  0  0  0  0  0  0  0  0
   26.9011  -20.3065  -16.8834 C   0  0  0  0  0  0  0  0  0  0  0  0
   26.0756  -21.1592  -17.2825 O   0  0  0  0  0  0  0  0  0  0  0  0
   29.1176  -17.9386  -21.4537 O   0  0  0  0  0  0  0  0  0  0  0  0
   23.6628  -19.9980  -10.3078 N   0  0  0  0  0  0  0  0  0  0  0  0
   24.3483  -20.9077   -9.4584 C   0  0  0  0  0  0  0  0  0  0  0  0
   23.7205  -21.4309   -8.4670 N   0  0  0  0  0  0  0  0  0  0  0  0
   25.7083  -21.2504   -9.6809 N   0  0  0  0  0  0  0  0  0  0  0  0
   26.4946  -20.5585  -10.6975 C   0  0  0  0  0  0  0  0  0  0  0  0
   25.8970  -20.8912  -12.0410 C   0  0  0  0  0  0  0  0  0  0  0  0
   26.7402  -20.2772  -13.1445 C   0  0  0  0  0  0  0  0  0  0  0  0
   26.1426  -20.5445  -14.4974 C   0  0  2  0  0  0  0  0  0  0  0  0
   26.9670  -19.9663  -15.5077 N   0  0  0  0  0  0  0  0  0  0  0  0
   24.7306  -20.0685  -14.5835 C   0  0  0  0  0  0  0  0  0  0  0  0
   24.4433  -18.8349  -14.5079 O   0  0  0  0  0  0  0  0  0  0  0  0
   24.1405  -22.0746   -7.7827 N   0  0  0  0  0  0  0  0  0  0  0  0
   23.6645  -20.9573  -14.7509 C   0  0  2  0  0  0  0  0  0  0  0  0
   22.2573  -20.4685  -14.8286 C   0  0  0  0  0  0  0  0  0  0  0  0
   21.4981  -21.3432  -15.7363 C   0  0  0  0  0  0  0  0  0  0  0  0
   20.0983  -21.2069  -16.0452 C   0  0  0  0  0  0  0  0  0  0  0  0
   19.3374  -22.0969  -16.9176 C   0  0  0  0  0  0  0  0  0  0  0  0
   17.9176  -21.6349  -17.1978 N   0  0  0  0  0  0  0  0  0  0  0  0
   17.3005  -22.6349  -18.0449 C   0  0  0  0  0  0  0  0  0  0  0  0
   21.8374  -20.4429  -13.4089 O   0  0  0  0  0  0  0  0  0  0  0  0
   22.3612  -21.1968  -12.5702 O   0  0  0  0  0  0  0  0  0  0  0  0
  2  1  1  6
  2  3  1  0
  3  4  1  0
  4  5  1  0
  5  9  1  0
  6  5  2  0
  7  2  1  0
  7  8  2  0
 11 10  1  0
 11 12  2  0
 13 11  1  0
 14 13  1  0
 15 16  1  0
 15 14  1  0
 17 16  1  1
 17 18  1  0
 18  7  1  0
 19 21  1  0
 19 17  1  0
 20 19  2  0
 22 21  1  0
 22 28  1  0
 23 24  1  0
 22 23  1  6
 25 24  1  0
 26 25  1  0
 26 27  1  0
 28 30  1  0
 29 28  2  0
M  END
$$$$
