ERK.pdb
     RDKit          3D

 30 29  0  0  1  0  0  0  0  0999 V2000
   23.6885  -18.5411  -18.0904 N   0  0  0  0  0  0  0  0  0  0  0  0
   23.1431  -17.9170  -16.8724 C   0  0  1  0  0  0  0  0  0  0  0  0
   22.2826  -16.7660  -17.2721 C   0  0  0  0  0  0  0  0  0  0  0  0
   21.1300  -17.1523  -18.1353 C   0  0  0  0  0  0  0  0  0  0  0  0
   19.8441  -16.5426  -17.8043 C   0  0  0  0  0  0  0  0  0  0  0  0
   18.9575  -16.3873  -18.6705 O   0  0  0  0  0  0  0  0  0  0  0  0
   22.3863  -18.9455  -16.0993 C   0  0  0  0  0  0  0  0  0  0  0  0
   21.9320  -19.9273  -16.7298 O   0  0  0  0  0  0  0  0  0  0  0  0
   19.5158  -16.0966  -16.5214 O   0  0  0  0  0  0  0  0  0  0  0  0
   25.2177  -22.5741  -13.1448 N   0  0  0  0  0  0  0  0  0  0  0  0
   25.2527  -21.7847  -11.9639 C   0  0  0  0  0  0  0  0  0  0  0  0
   26.3887  -21.4013  -11.5022 N   0  0  0  0  0  0  0  0  0  0  0  0
   24.0627  -21.4111  -11.2849 N   0  0  0  0  0  0  0  0  0  0  0  0
   22.7840  -22.0249  -11.6294 C   0  0  0  0  0  0  0  0  0  0  0  0
   21.7416  -20.9358  -11.6327 C   0  0  0  0  0  0  0  0  0  0  0  0
   22.2086  -19.7805  -12.5003 C   0  0  0  0  0  0  0  0  0  0  0  0
   21.6358  -19.8758  -13.8865 C   0  0  2  0  0  0  0  0  0  0  0  0
   22.1762  -18.8365  -14.7005 N   0  0  0  0  0  0  0  0  0  0  0  0
   20.1434  -19.8598  -13.8718 C   0  0  0  0  0  0  0  0  0  0  0  0
   19.4968  -18.8135  -13.5598 O   0  0  0  0  0  0  0  0  0  0  0  0
   26.5113  -20.7939  -10.6806 N   0  0  0  0  0  0  0  0  0  0  0  0
   19.3931  -20.9928  -14.2002 C   0  0  2  0  0  0  0  0  0  0  0  0
   17.9039  -20.9396  -14.2665 C   0  0  0  0  0  0  0  0  0  0  0  0
   17.4364  -21.9075  -15.2715 C   0  0  0  0  0  0  0  0  0  0  0  0
   17.9488  -22.0277  -16.6119 C   0  0  0  0  0  0  0  0  0  0  0  0
   17.4779  -22.9824  -17.6114 C   0  0  0  0  0  0  0  0  0  0  0  0
   18.2037  -22.9024  -18.9435 N   0  0  0  0  0  0  0  0  0  0  0  0
   17.6019  -23.8868  -19.8195 C   0  0  0  0  0  0  0  0  0  0  0  0
   17.5016  -21.1787  -12.8616 O   0  0  0  0  0  0  0  0  0  0  0  0
   18.2842  -21.7023  -12.0495 O   0  0  0  0  0  0  0  0  0  0  0  0
  2  1  1  6
  2  3  1  0
  3  4  1  0
  4  5  1  0
  5  9  1  0
  6  5  2  0
  7  2  1  0
  7  8  2  0
 11 10  1  0
 11 12  2  0
 13 11  1  0
 14 13  1  0
 15 16  1  0
 15 14  1  0
 17 16  1  1
 17 18  1  0
 18  7  1  0
 19 21  1  0
 19 17  1  0
 20 19  2  0
 22 21  1  0
 22 28  1  0
 23 24  1  0
 22 23  1  6
 25 24  1  0
 26 25  1  0
 26 27  1  0
 28 30  1  0
 29 28  2  0
M  END
$$$$
