ERK.pdb
     RDKit          3D

 30 29  0  0  1  0  0  0  0  0999 V2000
   19.4247  -19.9419  -12.8508 N   0  0  0  0  0  0  0  0  0  0  0  0
   20.3671  -20.8832  -13.4803 C   0  0  1  0  0  0  0  0  0  0  0  0
   19.9565  -21.0899  -14.8993 C   0  0  0  0  0  0  0  0  0  0  0  0
   18.7819  -21.9947  -15.0564 C   0  0  0  0  0  0  0  0  0  0  0  0
   19.0816  -23.3987  -15.3279 C   0  0  0  0  0  0  0  0  0  0  0  0
   18.1700  -24.2383  -15.4843 O   0  0  0  0  0  0  0  0  0  0  0  0
   21.7495  -20.3314  -13.3678 C   0  0  0  0  0  0  0  0  0  0  0  0
   21.8853  -19.0883  -13.4334 O   0  0  0  0  0  0  0  0  0  0  0  0
   20.3826  -23.8978  -15.4308 O   0  0  0  0  0  0  0  0  0  0  0  0
   29.4418  -22.1846   -9.8865 N   0  0  0  0  0  0  0  0  0  0  0  0
   29.4618  -21.3362  -11.0261 C   0  0  0  0  0  0  0  0  0  0  0  0
   30.4420  -21.4227  -11.8522 N   0  0  0  0  0  0  0  0  0  0  0  0
   28.4248  -20.3976  -11.2715 N   0  0  0  0  0  0  0  0  0  0  0  0
   27.0281  -20.7522  -11.0385 C   0  0  0  0  0  0  0  0  0  0  0  0
   26.4966  -21.3695  -12.3069 C   0  0  0  0  0  0  0  0  0  0  0  0
   25.0038  -21.6132  -12.1731 C   0  0  0  0  0  0  0  0  0  0  0  0
   24.2202  -20.6839  -13.0570 C   0  0  2  0  0  0  0  0  0  0  0  0
   22.8841  -21.1648  -13.1925 N   0  0  0  0  0  0  0  0  0  0  0  0
   24.8833  -20.4862  -14.3795 C   0  0  0  0  0  0  0  0  0  0  0  0
   24.8172  -21.3674  -15.2901 O   0  0  0  0  0  0  0  0  0  0  0  0
   30.5623  -20.8257  -12.6817 N   0  0  0  0  0  0  0  0  0  0  0  0
   25.6045  -19.3253  -14.6737 C   0  0  2  0  0  0  0  0  0  0  0  0
   26.2893  -19.1544  -15.9878 C   0  0  0  0  0  0  0  0  0  0  0  0
   26.6973  -17.7482  -16.1337 C   0  0  0  0  0  0  0  0  0  0  0  0
   27.3604  -17.1895  -17.2834 C   0  0  0  0  0  0  0  0  0  0  0  0
   27.7823  -15.7981  -17.4192 C   0  0  0  0  0  0  0  0  0  0  0  0
   28.4537  -15.4745  -18.7429 N   0  0  0  0  0  0  0  0  0  0  0  0
   28.9575  -14.1196  -18.6482 C   0  0  0  0  0  0  0  0  0  0  0  0
   27.3679  -20.1674  -15.9327 O   0  0  0  0  0  0  0  0  0  0  0  0
   27.9453  -20.4336  -14.8642 O   0  0  0  0  0  0  0  0  0  0  0  0
  2  1  1  6
  2  3  1  0
  3  4  1  0
  4  5  1  0
  5  9  1  0
  6  5  2  0
  7  2  1  0
  7  8  2  0
 11 10  1  0
 11 12  2  0
 13 11  1  0
 14 13  1  0
 15 16  1  0
 15 14  1  0
 17 16  1  1
 17 18  1  0
 18  7  1  0
 19 21  1  0
 19 17  1  0
 20 19  2  0
 22 21  1  0
 22 28  1  0
 23 24  1  0
 22 23  1  1
 25 24  1  0
 26 25  1  0
 26 27  1  0
 28 30  1  0
 29 28  2  0
M  END
$$$$
