ERK.pdb
     RDKit          3D

 30 29  0  0  1  0  0  0  0  0999 V2000
   25.3504  -17.7788  -18.7422 N   0  0  0  0  0  0  0  0  0  0  0  0
   24.9119  -17.5417  -17.3559 C   0  0  1  0  0  0  0  0  0  0  0  0
   24.0945  -16.2944  -17.3223 C   0  0  0  0  0  0  0  0  0  0  0  0
   23.5187  -15.9207  -18.6458 C   0  0  0  0  0  0  0  0  0  0  0  0
   22.0620  -15.8289  -18.7122 C   0  0  0  0  0  0  0  0  0  0  0  0
   21.3803  -16.7184  -19.2640 O   0  0  0  0  0  0  0  0  0  0  0  0
   24.1455  -18.7313  -16.8809 C   0  0  0  0  0  0  0  0  0  0  0  0
   23.5389  -19.4115  -17.7395 O   0  0  0  0  0  0  0  0  0  0  0  0
   21.3367  -14.7622  -18.1751 O   0  0  0  0  0  0  0  0  0  0  0  0
   26.6324  -20.8552   -9.9490 N   0  0  0  0  0  0  0  0  0  0  0  0
   25.2504  -20.8724  -10.2789 C   0  0  0  0  0  0  0  0  0  0  0  0
   24.3996  -20.4191   -9.4296 N   0  0  0  0  0  0  0  0  0  0  0  0
   24.7904  -21.3779  -11.5237 N   0  0  0  0  0  0  0  0  0  0  0  0
   25.7363  -21.7986  -12.5527 C   0  0  0  0  0  0  0  0  0  0  0  0
   25.1595  -21.4082  -13.8897 C   0  0  0  0  0  0  0  0  0  0  0  0
   23.8706  -20.6317  -13.6859 C   0  0  0  0  0  0  0  0  0  0  0  0
   23.3017  -20.1693  -14.9980 C   0  0  2  0  0  0  0  0  0  0  0  0
   24.0915  -19.0982  -15.5115 N   0  0  0  0  0  0  0  0  0  0  0  0
   21.8612  -19.7980  -14.8774 C   0  0  0  0  0  0  0  0  0  0  0  0
   21.5060  -18.6647  -14.4307 O   0  0  0  0  0  0  0  0  0  0  0  0
   23.3808  -20.4037   -9.5735 N   0  0  0  0  0  0  0  0  0  0  0  0
   20.8416  -20.6790  -15.2499 C   0  0  2  0  0  0  0  0  0  0  0  0
   19.4191  -20.2335  -15.3059 C   0  0  0  0  0  0  0  0  0  0  0  0
   18.8057  -20.7506  -16.5396 C   0  0  0  0  0  0  0  0  0  0  0  0
   17.7745  -20.0890  -17.2962 C   0  0  0  0  0  0  0  0  0  0  0  0
   17.1725  -20.5989  -18.5250 C   0  0  0  0  0  0  0  0  0  0  0  0
   16.1409  -19.6733  -19.1470 N   0  0  0  0  0  0  0  0  0  0  0  0
   15.6322  -20.3329  -20.3322 C   0  0  0  0  0  0  0  0  0  0  0  0
   18.8682  -20.7241  -14.0220 O   0  0  0  0  0  0  0  0  0  0  0  0
   19.4447  -21.6151  -13.3741 O   0  0  0  0  0  0  0  0  0  0  0  0
  2  1  1  6
  2  3  1  0
  3  4  1  0
  4  5  1  0
  5  9  1  0
  6  5  2  0
  7  2  1  0
  7  8  2  0
 11 10  1  0
 11 12  2  0
 13 11  1  0
 14 13  1  0
 15 16  1  0
 15 14  1  0
 17 16  1  1
 17 18  1  0
 18  7  1  0
 19 21  1  0
 19 17  1  0
 20 19  2  0
 22 21  1  0
 22 28  1  0
 23 24  1  0
 22 23  1  1
 25 24  1  0
 26 25  1  0
 26 27  1  0
 28 30  1  0
 29 28  2  0
M  END
$$$$
