ERK.pdb
     RDKit          3D

 30 29  0  0  1  0  0  0  0  0999 V2000
   22.9764  -21.5984  -18.2467 N   0  0  0  0  0  0  0  0  0  0  0  0
   22.1848  -20.7042  -17.3840 C   0  0  1  0  0  0  0  0  0  0  0  0
   20.8364  -20.5238  -17.9959 C   0  0  0  0  0  0  0  0  0  0  0  0
   20.8066  -19.5113  -19.0900 C   0  0  0  0  0  0  0  0  0  0  0  0
   21.0239  -18.1231  -18.6896 C   0  0  0  0  0  0  0  0  0  0  0  0
   20.2210  -17.5314  -17.9375 O   0  0  0  0  0  0  0  0  0  0  0  0
   22.1087  -21.2951  -16.0154 C   0  0  0  0  0  0  0  0  0  0  0  0
   22.1011  -22.5437  -15.9220 O   0  0  0  0  0  0  0  0  0  0  0  0
   22.1226  -17.3683  -19.1088 O   0  0  0  0  0  0  0  0  0  0  0  0
   26.8344  -21.3229  -10.5046 N   0  0  0  0  0  0  0  0  0  0  0  0
   26.1927  -20.9637  -11.7204 C   0  0  0  0  0  0  0  0  0  0  0  0
   26.8603  -21.0119  -12.8171 N   0  0  0  0  0  0  0  0  0  0  0  0
   24.8334  -20.5539  -11.7498 N   0  0  0  0  0  0  0  0  0  0  0  0
   23.8903  -21.0271  -10.7412 C   0  0  0  0  0  0  0  0  0  0  0  0
   22.5192  -20.5386  -11.1339 C   0  0  0  0  0  0  0  0  0  0  0  0
   22.5504  -20.0101  -12.5570 C   0  0  0  0  0  0  0  0  0  0  0  0
   21.9736  -21.0092  -13.5204 C   0  0  2  0  0  0  0  0  0  0  0  0
   22.0465  -20.4918  -14.8477 N   0  0  0  0  0  0  0  0  0  0  0  0
   20.5832  -21.4016  -13.1456 C   0  0  0  0  0  0  0  0  0  0  0  0
   19.5886  -20.6694  -13.4368 O   0  0  0  0  0  0  0  0  0  0  0  0
   26.4867  -20.7557  -13.7411 N   0  0  0  0  0  0  0  0  0  0  0  0
   20.3147  -22.5895  -12.4590 C   0  0  1  0  0  0  0  0  0  0  0  0
   18.9144  -23.0122  -12.1666 C   0  0  0  0  0  0  0  0  0  0  0  0
   18.9351  -24.3678  -11.5945 C   0  0  0  0  0  0  0  0  0  0  0  0
   17.7720  -25.1337  -11.2281 C   0  0  0  0  0  0  0  0  0  0  0  0
   17.7807  -26.5362  -10.8214 C   0  0  0  0  0  0  0  0  0  0  0  0
   16.4002  -27.1372  -10.6188 N   0  0  0  0  0  0  0  0  0  0  0  0
   16.5882  -28.4959  -10.1528 C   0  0  0  0  0  0  0  0  0  0  0  0
   18.4143  -21.9216  -11.2988 O   0  0  0  0  0  0  0  0  0  0  0  0
   17.1974  -21.7726  -11.0910 O   0  0  0  0  0  0  0  0  0  0  0  0
  2  1  1  6
  2  3  1  0
  3  4  1  0
  4  5  1  0
  5  9  1  0
  6  5  2  0
  7  2  1  0
  7  8  2  0
 11 10  1  0
 11 12  2  0
 13 11  1  0
 14 13  1  0
 15 16  1  0
 15 14  1  0
 17 16  1  1
 17 18  1  0
 18  7  1  0
 19 21  1  0
 19 17  1  0
 20 19  2  0
 22 21  1  0
 22 28  1  0
 23 24  1  0
 22 23  1  6
 25 24  1  0
 26 25  1  0
 26 27  1  0
 28 30  1  0
 29 28  2  0
M  END
$$$$
