ERK.pdb
     RDKit          3D

 30 29  0  0  1  0  0  0  0  0999 V2000
   27.2397  -23.8087  -16.8862 N   0  0  0  0  0  0  0  0  0  0  0  0
   26.8852  -22.3793  -16.8463 C   0  0  1  0  0  0  0  0  0  0  0  0
   26.6877  -21.8990  -18.2446 C   0  0  0  0  0  0  0  0  0  0  0  0
   27.9544  -21.7861  -19.0229 C   0  0  0  0  0  0  0  0  0  0  0  0
   28.9366  -20.8283  -18.5202 C   0  0  0  0  0  0  0  0  0  0  0  0
   28.5826  -19.7638  -17.9708 O   0  0  0  0  0  0  0  0  0  0  0  0
   25.6590  -22.2082  -16.0126 C   0  0  0  0  0  0  0  0  0  0  0  0
   24.7007  -22.9861  -16.2234 O   0  0  0  0  0  0  0  0  0  0  0  0
   30.3167  -21.0264  -18.6138 O   0  0  0  0  0  0  0  0  0  0  0  0
   26.0505  -20.3436   -8.0096 N   0  0  0  0  0  0  0  0  0  0  0  0
   24.8411  -20.7982   -8.6009 C   0  0  0  0  0  0  0  0  0  0  0  0
   23.7710  -20.8284   -7.8904 N   0  0  0  0  0  0  0  0  0  0  0  0
   24.7894  -21.2185   -9.9564 N   0  0  0  0  0  0  0  0  0  0  0  0
   26.0054  -21.2942  -10.7601 C   0  0  0  0  0  0  0  0  0  0  0  0
   25.6068  -21.7141  -12.1520 C   0  0  0  0  0  0  0  0  0  0  0  0
   24.8162  -20.6016  -12.8175 C   0  0  0  0  0  0  0  0  0  0  0  0
   24.4003  -20.9880  -14.2092 C   0  0  2  0  0  0  0  0  0  0  0  0
   25.5591  -21.2079  -15.0115 N   0  0  0  0  0  0  0  0  0  0  0  0
   23.4814  -19.9790  -14.8134 C   0  0  0  0  0  0  0  0  0  0  0  0
   23.9191  -18.8859  -15.2861 O   0  0  0  0  0  0  0  0  0  0  0  0
   22.8546  -21.1541   -8.2266 N   0  0  0  0  0  0  0  0  0  0  0  0
   22.1015  -20.1920  -14.8856 C   0  0  1  0  0  0  0  0  0  0  0  0
   21.1868  -19.1465  -15.4288 C   0  0  0  0  0  0  0  0  0  0  0  0
   21.2584  -19.1670  -16.8984 C   0  0  0  0  0  0  0  0  0  0  0  0
   20.4707  -18.3459  -17.7810 C   0  0  0  0  0  0  0  0  0  0  0  0
   20.4780  -18.4286  -19.2389 C   0  0  0  0  0  0  0  0  0  0  0  0
   19.6382  -17.3678  -19.9298 N   0  0  0  0  0  0  0  0  0  0  0  0
   19.8891  -17.4812  -21.3520 C   0  0  0  0  0  0  0  0  0  0  0  0
   19.8858  -19.4926  -14.8121 O   0  0  0  0  0  0  0  0  0  0  0  0
   18.8896  -18.7638  -14.9619 O   0  0  0  0  0  0  0  0  0  0  0  0
  2  1  1  6
  2  3  1  0
  3  4  1  0
  4  5  1  0
  5  9  1  0
  6  5  2  0
  7  2  1  0
  7  8  2  0
 11 10  1  0
 11 12  2  0
 13 11  1  0
 14 13  1  0
 15 16  1  0
 15 14  1  0
 17 16  1  1
 17 18  1  0
 18  7  1  0
 19 21  1  0
 19 17  1  0
 20 19  2  0
 22 21  1  0
 22 28  1  0
 23 24  1  0
 22 23  1  6
 25 24  1  0
 26 25  1  0
 26 27  1  0
 28 30  1  0
 29 28  2  0
M  END
$$$$
