ERK.pdb
     RDKit          3D

 30 29  0  0  1  0  0  0  0  0999 V2000
   24.1013  -16.3749  -18.7159 N   0  0  0  0  0  0  0  0  0  0  0  0
   23.4823  -16.4155  -17.3796 C   0  0  1  0  0  0  0  0  0  0  0  0
   22.3838  -15.4075  -17.3334 C   0  0  0  0  0  0  0  0  0  0  0  0
   21.1598  -15.8220  -18.0770 C   0  0  0  0  0  0  0  0  0  0  0  0
   20.1190  -14.8069  -18.2221 C   0  0  0  0  0  0  0  0  0  0  0  0
   20.2567  -13.6629  -17.7397 O   0  0  0  0  0  0  0  0  0  0  0  0
   22.9891  -17.7997  -17.1169 C   0  0  0  0  0  0  0  0  0  0  0  0
   22.5619  -18.4584  -18.0923 O   0  0  0  0  0  0  0  0  0  0  0  0
   18.9167  -15.0340  -18.8970 O   0  0  0  0  0  0  0  0  0  0  0  0
   26.2798  -21.7193  -15.4804 N   0  0  0  0  0  0  0  0  0  0  0  0
   25.9578  -23.0752  -15.2031 C   0  0  0  0  0  0  0  0  0  0  0  0
   26.5446  -24.0052  -15.8677 N   0  0  0  0  0  0  0  0  0  0  0  0
   25.0045  -23.4239  -14.2100 N   0  0  0  0  0  0  0  0  0  0  0  0
   24.3251  -22.3913  -13.4338 C   0  0  0  0  0  0  0  0  0  0  0  0
   23.2614  -21.7852  -14.3135 C   0  0  0  0  0  0  0  0  0  0  0  0
   23.5557  -20.3121  -14.5347 C   0  0  0  0  0  0  0  0  0  0  0  0
   22.6019  -19.7106  -15.5283 C   0  0  2  0  0  0  0  0  0  0  0  0
   22.9943  -18.3701  -15.8180 N   0  0  0  0  0  0  0  0  0  0  0  0
   21.1875  -19.7933  -15.0590 C   0  0  0  0  0  0  0  0  0  0  0  0
   20.7595  -19.0581  -14.1175 O   0  0  0  0  0  0  0  0  0  0  0  0
   26.3793  -25.0122  -15.7354 N   0  0  0  0  0  0  0  0  0  0  0  0
   20.2734  -20.6815  -15.6336 C   0  0  2  0  0  0  0  0  0  0  0  0
   18.8778  -20.7929  -15.1187 C   0  0  0  0  0  0  0  0  0  0  0  0
   18.0412  -21.4362  -16.1442 C   0  0  0  0  0  0  0  0  0  0  0  0
   16.6142  -21.6116  -16.0633 C   0  0  0  0  0  0  0  0  0  0  0  0
   15.7776  -22.2019  -17.1045 C   0  0  0  0  0  0  0  0  0  0  0  0
   14.2927  -22.2106  -16.7837 N   0  0  0  0  0  0  0  0  0  0  0  0
   13.6127  -22.8044  -17.9166 C   0  0  0  0  0  0  0  0  0  0  0  0
   19.0542  -21.5183  -13.8399 O   0  0  0  0  0  0  0  0  0  0  0  0
   19.9042  -22.4184  -13.7238 O   0  0  0  0  0  0  0  0  0  0  0  0
  2  1  1  6
  2  3  1  0
  3  4  1  0
  4  5  1  0
  5  9  1  0
  6  5  2  0
  7  2  1  0
  7  8  2  0
 11 10  1  0
 11 12  2  0
 13 11  1  0
 14 13  1  0
 15 16  1  0
 15 14  1  0
 17 16  1  1
 17 18  1  0
 18  7  1  0
 19 21  1  0
 19 17  1  0
 20 19  2  0
 22 21  1  0
 22 28  1  0
 23 24  1  0
 22 23  1  6
 25 24  1  0
 26 25  1  0
 26 27  1  0
 28 30  1  0
 29 28  2  0
M  END
$$$$
