ERK.pdb
     RDKit          3D

 30 29  0  0  1  0  0  0  0  0999 V2000
   28.5051  -22.3478  -16.8266 N   0  0  0  0  0  0  0  0  0  0  0  0
   28.3216  -21.0886  -16.0842 C   0  0  1  0  0  0  0  0  0  0  0  0
   28.4821  -19.9491  -17.0333 C   0  0  0  0  0  0  0  0  0  0  0  0
   28.7701  -20.3729  -18.4335 C   0  0  0  0  0  0  0  0  0  0  0  0
   28.9652  -19.2989  -19.4047 C   0  0  0  0  0  0  0  0  0  0  0  0
   28.8959  -18.0982  -19.0671 O   0  0  0  0  0  0  0  0  0  0  0  0
   26.9759  -21.0996  -15.4384 C   0  0  0  0  0  0  0  0  0  0  0  0
   26.0433  -21.6687  -16.0501 O   0  0  0  0  0  0  0  0  0  0  0  0
   29.2381  -19.5286  -20.7558 O   0  0  0  0  0  0  0  0  0  0  0  0
   23.9882  -22.3347   -8.0020 N   0  0  0  0  0  0  0  0  0  0  0  0
   23.7107  -21.1583   -8.7489 C   0  0  0  0  0  0  0  0  0  0  0  0
   22.6171  -20.5212   -8.5278 N   0  0  0  0  0  0  0  0  0  0  0  0
   24.6134  -20.6724   -9.7316 N   0  0  0  0  0  0  0  0  0  0  0  0
   25.5489  -21.5749  -10.3956 C   0  0  0  0  0  0  0  0  0  0  0  0
   26.4486  -20.7377  -11.2687 C   0  0  0  0  0  0  0  0  0  0  0  0
   25.6086  -19.8477  -12.1676 C   0  0  0  0  0  0  0  0  0  0  0  0
   25.4628  -20.4440  -13.5395 C   0  0  2  0  0  0  0  0  0  0  0  0
   26.7375  -20.4940  -14.1778 N   0  0  0  0  0  0  0  0  0  0  0  0
   24.4527  -19.7109  -14.3579 C   0  0  0  0  0  0  0  0  0  0  0  0
   24.6364  -18.5059  -14.7106 O   0  0  0  0  0  0  0  0  0  0  0  0
   22.3109  -19.6870   -9.0467 N   0  0  0  0  0  0  0  0  0  0  0  0
   23.2626  -20.3167  -14.7717 C   0  0  2  0  0  0  0  0  0  0  0  0
   22.2593  -19.5707  -15.5854 C   0  0  0  0  0  0  0  0  0  0  0  0
   21.8658  -20.4005  -16.7351 C   0  0  0  0  0  0  0  0  0  0  0  0
   20.8999  -20.0297  -17.7367 C   0  0  0  0  0  0  0  0  0  0  0  0
   20.5180  -20.8493  -18.8832 C   0  0  0  0  0  0  0  0  0  0  0  0
   19.4974  -20.2014  -19.8032 N   0  0  0  0  0  0  0  0  0  0  0  0
   19.1709  -21.1690  -20.8307 C   0  0  0  0  0  0  0  0  0  0  0  0
   21.2064  -19.2466  -14.5959 O   0  0  0  0  0  0  0  0  0  0  0  0
   21.1041  -19.8852  -13.5340 O   0  0  0  0  0  0  0  0  0  0  0  0
  2  1  1  6
  2  3  1  0
  3  4  1  0
  4  5  1  0
  5  9  1  0
  6  5  2  0
  7  2  1  0
  7  8  2  0
 11 10  1  0
 11 12  2  0
 13 11  1  0
 14 13  1  0
 15 16  1  0
 15 14  1  0
 17 16  1  1
 17 18  1  0
 18  7  1  0
 19 21  1  0
 19 17  1  0
 20 19  2  0
 22 21  1  0
 22 28  1  0
 23 24  1  0
 22 23  1  1
 25 24  1  0
 26 25  1  0
 26 27  1  0
 28 30  1  0
 29 28  2  0
M  END
$$$$
