ERK.pdb
     RDKit          3D

 30 29  0  0  1  0  0  0  0  0999 V2000
   21.4347  -19.8665  -10.5273 N   0  0  0  0  0  0  0  0  0  0  0  0
   20.4974  -20.5394  -11.4435 C   0  0  1  0  0  0  0  0  0  0  0  0
   19.1553  -19.9039  -11.3020 C   0  0  0  0  0  0  0  0  0  0  0  0
   18.2466  -20.6270  -10.3668 C   0  0  0  0  0  0  0  0  0  0  0  0
   17.7976  -21.9490  -10.7976 C   0  0  0  0  0  0  0  0  0  0  0  0
   17.2360  -22.1159  -11.9008 O   0  0  0  0  0  0  0  0  0  0  0  0
   21.0255  -20.4381  -12.8360 C   0  0  0  0  0  0  0  0  0  0  0  0
   21.6714  -19.4089  -13.1382 O   0  0  0  0  0  0  0  0  0  0  0  0
   17.9591  -23.1019  -10.0248 O   0  0  0  0  0  0  0  0  0  0  0  0
   24.3172  -25.0001  -14.7897 N   0  0  0  0  0  0  0  0  0  0  0  0
   25.1108  -24.4750  -15.8449 C   0  0  0  0  0  0  0  0  0  0  0  0
   26.3856  -24.4142  -15.6972 N   0  0  0  0  0  0  0  0  0  0  0  0
   24.5272  -24.0174  -17.0560 N   0  0  0  0  0  0  0  0  0  0  0  0
   23.0803  -24.0497  -17.2449 C   0  0  0  0  0  0  0  0  0  0  0  0
   22.5427  -22.6880  -16.8851 C   0  0  0  0  0  0  0  0  0  0  0  0
   21.9412  -22.7252  -15.4914 C   0  0  0  0  0  0  0  0  0  0  0  0
   21.3056  -21.4097  -15.1387 C   0  0  2  0  0  0  0  0  0  0  0  0
   20.8162  -21.4580  -13.7997 N   0  0  0  0  0  0  0  0  0  0  0  0
   20.2407  -21.0298  -16.1130 C   0  0  0  0  0  0  0  0  0  0  0  0
   19.0737  -21.5230  -16.0422 O   0  0  0  0  0  0  0  0  0  0  0  0
   27.0352  -24.0061  -16.3831 N   0  0  0  0  0  0  0  0  0  0  0  0
   20.4799  -20.1164  -17.1441 C   0  0  2  0  0  0  0  0  0  0  0  0
   19.3853  -19.6818  -18.0594 C   0  0  0  0  0  0  0  0  0  0  0  0
   19.7522  -18.3905  -18.6622 C   0  0  0  0  0  0  0  0  0  0  0  0
   18.8851  -17.5743  -19.4719 C   0  0  0  0  0  0  0  0  0  0  0  0
   19.2416  -16.2807  -20.0479 C   0  0  0  0  0  0  0  0  0  0  0  0
   18.1186  -15.6087  -20.8194 N   0  0  0  0  0  0  0  0  0  0  0  0
   18.6244  -14.3360  -21.2916 C   0  0  0  0  0  0  0  0  0  0  0  0
   19.2417  -20.8367  -18.9749 O   0  0  0  0  0  0  0  0  0  0  0  0
   20.1602  -21.6630  -19.1157 O   0  0  0  0  0  0  0  0  0  0  0  0
  2  1  1  1
  2  3  1  0
  3  4  1  0
  4  5  1  0
  5  9  1  0
  6  5  2  0
  7  2  1  0
  7  8  2  0
 11 10  1  0
 11 12  2  0
 13 11  1  0
 14 13  1  0
 15 16  1  0
 15 14  1  0
 17 16  1  6
 17 18  1  0
 18  7  1  0
 19 21  1  0
 19 17  1  0
 20 19  2  0
 22 21  1  0
 22 28  1  0
 23 24  1  0
 22 23  1  1
 25 24  1  0
 26 25  1  0
 26 27  1  0
 28 30  1  0
 29 28  2  0
M  END
$$$$
