ERK.pdb
     RDKit          3D

 30 29  0  0  1  0  0  0  0  0999 V2000
   11.9029  -23.3986   -7.3986 N   0  0  0  0  0  0  0  0  0  0  0  0
   12.8815  -22.7924   -6.4793 C   0  0  1  0  0  0  0  0  0  0  0  0
   12.3701  -21.4577   -6.0527 C   0  0  0  0  0  0  0  0  0  0  0  0
   12.3329  -20.4518   -7.1526 C   0  0  0  0  0  0  0  0  0  0  0  0
   11.6954  -19.1755   -6.8375 C   0  0  0  0  0  0  0  0  0  0  0  0
   11.1821  -18.9654   -5.7182 O   0  0  0  0  0  0  0  0  0  0  0  0
   13.0925  -23.7118   -5.3224 C   0  0  0  0  0  0  0  0  0  0  0  0
   12.0912  -24.3090   -4.8658 O   0  0  0  0  0  0  0  0  0  0  0  0
   11.6133  -18.1160   -7.7448 O   0  0  0  0  0  0  0  0  0  0  0  0
   18.4375  -28.9762   -6.8142 N   0  0  0  0  0  0  0  0  0  0  0  0
   17.5203  -28.0234   -7.3336 C   0  0  0  0  0  0  0  0  0  0  0  0
   17.5770  -27.7165   -8.5799 N   0  0  0  0  0  0  0  0  0  0  0  0
   16.5448  -27.4048   -6.5075 N   0  0  0  0  0  0  0  0  0  0  0  0
   16.3549  -27.8376   -5.1265 C   0  0  0  0  0  0  0  0  0  0  0  0
   15.2179  -27.0337   -4.5488 C   0  0  0  0  0  0  0  0  0  0  0  0
   15.7469  -25.7258   -3.9874 C   0  0  0  0  0  0  0  0  0  0  0  0
   14.6236  -24.7886   -3.6428 C   0  0  2  0  0  0  0  0  0  0  0  0
   14.3714  -23.9179   -4.7441 N   0  0  0  0  0  0  0  0  0  0  0  0
   14.8960  -24.0367   -2.3826 C   0  0  0  0  0  0  0  0  0  0  0  0
   15.7282  -23.0793   -2.3510 O   0  0  0  0  0  0  0  0  0  0  0  0
   16.9498  -27.0473   -9.0467 N   0  0  0  0  0  0  0  0  0  0  0  0
   14.2486  -24.3520   -1.1842 C   0  0  2  0  0  0  0  0  0  0  0  0
   14.4459  -23.5237    0.0405 C   0  0  0  0  0  0  0  0  0  0  0  0
   13.2591  -23.6542    0.9007 C   0  0  0  0  0  0  0  0  0  0  0  0
   13.2017  -24.4000    2.1312 C   0  0  0  0  0  0  0  0  0  0  0  0
   12.0060  -24.5866    2.9483 C   0  0  0  0  0  0  0  0  0  0  0  0
   12.2159  -25.4592    4.1740 N   0  0  0  0  0  0  0  0  0  0  0  0
   10.9596  -25.4961    4.8944 C   0  0  0  0  0  0  0  0  0  0  0  0
   15.7285  -24.0306    0.5795 O   0  0  0  0  0  0  0  0  0  0  0  0
   16.2004  -25.1167    0.2001 O   0  0  0  0  0  0  0  0  0  0  0  0
  2  1  1  6
  2  3  1  0
  3  4  1  0
  4  5  1  0
  5  9  1  0
  6  5  2  0
  7  2  1  0
  7  8  2  0
 11 10  1  0
 11 12  2  0
 13 11  1  0
 14 13  1  0
 15 16  1  0
 15 14  1  0
 17 16  1  6
 17 18  1  0
 18  7  1  0
 19 21  1  0
 19 17  1  0
 20 19  2  0
 22 21  1  0
 22 28  1  0
 23 24  1  0
 22 23  1  6
 25 24  1  0
 26 25  1  0
 26 27  1  0
 28 30  1  0
 29 28  2  0
M  END
$$$$
