ERK.pdb
     RDKit          3D

 30 29  0  0  1  0  0  0  0  0999 V2000
   25.9944  -15.2092  -19.5809 N   0  0  0  0  0  0  0  0  0  0  0  0
   25.4067  -15.0133  -18.2442 C   0  0  1  0  0  0  0  0  0  0  0  0
   24.1183  -14.2769  -18.3943 C   0  0  0  0  0  0  0  0  0  0  0  0
   24.2878  -12.8482  -18.7857 C   0  0  0  0  0  0  0  0  0  0  0  0
   23.0835  -12.0219  -18.7467 C   0  0  0  0  0  0  0  0  0  0  0  0
   21.9850  -12.4928  -18.3835 O   0  0  0  0  0  0  0  0  0  0  0  0
   25.2229  -16.3456  -17.5966 C   0  0  0  0  0  0  0  0  0  0  0  0
   24.5611  -17.2070  -18.2193 O   0  0  0  0  0  0  0  0  0  0  0  0
   23.0696  -10.6714  -19.1049 O   0  0  0  0  0  0  0  0  0  0  0  0
   25.5402  -20.3471  -10.6670 N   0  0  0  0  0  0  0  0  0  0  0  0
   26.2936  -21.2427  -11.4728 C   0  0  0  0  0  0  0  0  0  0  0  0
   25.9307  -22.4730  -11.5464 N   0  0  0  0  0  0  0  0  0  0  0  0
   27.4356  -20.8087  -12.1967 N   0  0  0  0  0  0  0  0  0  0  0  0
   27.5028  -19.4565  -12.7422 C   0  0  0  0  0  0  0  0  0  0  0  0
   26.4513  -19.3453  -13.8167 C   0  0  0  0  0  0  0  0  0  0  0  0
   26.6061  -18.0260  -14.5522 C   0  0  0  0  0  0  0  0  0  0  0  0
   25.5820  -17.8890  -15.6437 C   0  0  2  0  0  0  0  0  0  0  0  0
   25.7687  -16.6485  -16.3226 N   0  0  0  0  0  0  0  0  0  0  0  0
   24.1919  -18.0405  -15.1217 C   0  0  0  0  0  0  0  0  0  0  0  0
   23.5473  -17.0494  -14.6610 O   0  0  0  0  0  0  0  0  0  0  0  0
   26.4126  -23.1927  -12.1020 N   0  0  0  0  0  0  0  0  0  0  0  0
   23.5395  -19.2770  -15.1169 C   0  0  1  0  0  0  0  0  0  0  0  0
   22.0716  -19.3739  -14.8696 C   0  0  0  0  0  0  0  0  0  0  0  0
   21.3609  -18.6269  -15.9195 C   0  0  0  0  0  0  0  0  0  0  0  0
   19.9806  -18.2205  -15.8616 C   0  0  0  0  0  0  0  0  0  0  0  0
   19.0240  -18.6301  -14.8372 C   0  0  0  0  0  0  0  0  0  0  0  0
   17.6148  -18.1046  -15.0514 N   0  0  0  0  0  0  0  0  0  0  0  0
   16.7069  -19.0447  -14.4266 C   0  0  0  0  0  0  0  0  0  0  0  0
   21.8424  -20.8356  -14.8092 O   0  0  0  0  0  0  0  0  0  0  0  0
   22.5249  -21.6216  -15.4892 O   0  0  0  0  0  0  0  0  0  0  0  0
  2  1  1  6
  2  3  1  0
  3  4  1  0
  4  5  1  0
  5  9  1  0
  6  5  2  0
  7  2  1  0
  7  8  2  0
 11 10  1  0
 11 12  2  0
 13 11  1  0
 14 13  1  0
 15 16  1  0
 15 14  1  0
 17 16  1  1
 17 18  1  0
 18  7  1  0
 19 21  1  0
 19 17  1  0
 20 19  2  0
 22 21  1  0
 22 28  1  0
 23 24  1  0
 22 23  1  6
 25 24  1  0
 26 25  1  0
 26 27  1  0
 28 30  1  0
 29 28  2  0
M  END
$$$$
