ERK.pdb
     RDKit          3D

 30 29  0  0  1  0  0  0  0  0999 V2000
   25.8091  -24.7040  -16.6642 N   0  0  0  0  0  0  0  0  0  0  0  0
   26.0147  -23.2924  -16.2961 C   0  0  1  0  0  0  0  0  0  0  0  0
   25.7507  -22.4449  -17.4949 C   0  0  0  0  0  0  0  0  0  0  0  0
   25.8266  -20.9812  -17.2213 C   0  0  0  0  0  0  0  0  0  0  0  0
   27.0729  -20.3187  -17.5991 C   0  0  0  0  0  0  0  0  0  0  0  0
   27.9034  -20.8764  -18.3471 O   0  0  0  0  0  0  0  0  0  0  0  0
   25.1128  -22.9534  -15.1560 C   0  0  0  0  0  0  0  0  0  0  0  0
   23.8926  -23.2013  -15.2880 O   0  0  0  0  0  0  0  0  0  0  0  0
   27.4225  -19.0385  -17.1617 O   0  0  0  0  0  0  0  0  0  0  0  0
   28.3258  -21.8632   -8.8247 N   0  0  0  0  0  0  0  0  0  0  0  0
   28.4633  -20.8951   -9.8556 C   0  0  0  0  0  0  0  0  0  0  0  0
   29.5953  -20.7729  -10.4509 N   0  0  0  0  0  0  0  0  0  0  0  0
   27.3798  -20.0620  -10.2413 N   0  0  0  0  0  0  0  0  0  0  0  0
   26.0428  -20.2787   -9.6974 C   0  0  0  0  0  0  0  0  0  0  0  0
   25.1217  -20.5713  -10.8544 C   0  0  0  0  0  0  0  0  0  0  0  0
   25.6479  -21.7578  -11.6425 C   0  0  0  0  0  0  0  0  0  0  0  0
   24.7786  -22.0473  -12.8339 C   0  0  2  0  0  0  0  0  0  0  0  0
   25.5971  -22.3711  -13.9564 N   0  0  0  0  0  0  0  0  0  0  0  0
   23.8448  -20.9201  -13.1257 C   0  0  0  0  0  0  0  0  0  0  0  0
   24.2753  -19.7526  -13.3741 O   0  0  0  0  0  0  0  0  0  0  0  0
   29.7976  -20.0828  -11.1870 N   0  0  0  0  0  0  0  0  0  0  0  0
   22.4583  -21.0991  -13.1385 C   0  0  1  0  0  0  0  0  0  0  0  0
   21.5353  -19.9578  -13.4040 C   0  0  0  0  0  0  0  0  0  0  0  0
   20.6773  -20.2953  -14.5509 C   0  0  0  0  0  0  0  0  0  0  0  0
   19.6414  -19.4533  -15.0909 C   0  0  0  0  0  0  0  0  0  0  0  0
   18.7717  -19.8009  -16.2112 C   0  0  0  0  0  0  0  0  0  0  0  0
   17.7576  -18.7288  -16.5718 N   0  0  0  0  0  0  0  0  0  0  0  0
   16.9041  -19.2764  -17.6063 C   0  0  0  0  0  0  0  0  0  0  0  0
   20.8676  -19.7615  -12.0970 O   0  0  0  0  0  0  0  0  0  0  0  0
   20.8115  -20.6792  -11.2600 O   0  0  0  0  0  0  0  0  0  0  0  0
  2  1  1  6
  2  3  1  0
  3  4  1  0
  4  5  1  0
  5  9  1  0
  6  5  2  0
  7  2  1  0
  7  8  2  0
 11 10  1  0
 11 12  2  0
 13 11  1  0
 14 13  1  0
 15 16  1  0
 15 14  1  0
 17 16  1  1
 17 18  1  0
 18  7  1  0
 19 21  1  0
 19 17  1  0
 20 19  2  0
 22 21  1  0
 22 28  1  0
 23 24  1  0
 22 23  1  1
 25 24  1  0
 26 25  1  0
 26 27  1  0
 28 30  1  0
 29 28  2  0
M  END
$$$$
