QTH.pdb
     RDKit          3D

 27 27  0  0  1  0  0  0  0  0999 V2000
   26.4819  -21.1888  -20.3375 N   0  0  0  0  0  0  0  0  0  0  0  0
   27.0688  -22.1333  -21.2143 C   0  0  0  0  0  0  0  0  0  0  0  0
   27.3315  -21.7582  -22.3939 O   0  0  0  0  0  0  0  0  0  0  0  0
   27.3559  -23.4935  -20.7641 C   0  0  0  0  0  0  0  0  0  0  0  0
   26.9264  -23.7546  -19.3734 C   0  0  0  0  0  0  0  0  0  0  0  0
   27.6881  -22.9597  -18.3680 C   0  0  2  0  0  0  0  0  0  0  0  0
   29.0500  -23.4993  -18.2359 N   0  0  0  0  0  0  0  0  0  0  0  0
   27.0862  -22.9450  -17.0222 C   0  0  0  0  0  0  0  0  0  0  0  0
   27.3877  -23.8327  -16.1698 O   0  0  0  0  0  0  0  0  0  0  0  0
   27.6451  -20.6702  -14.4421 C   0  0  0  0  0  0  0  0  0  0  0  0
   26.1500  -20.5775  -14.6527 C   0  0  1  0  0  0  0  0  0  0  0  0
   25.8937  -19.5227  -15.5209 O   0  0  0  0  0  0  0  0  0  0  0  0
   25.6470  -21.8602  -15.2771 C   0  0  2  0  0  0  0  0  0  0  0  0
   26.1694  -21.9598  -16.6416 N   0  0  0  0  0  0  0  0  0  0  0  0
   24.1744  -21.8494  -15.3478 C   0  0  0  0  0  0  0  0  0  0  0  0
   23.5596  -21.3494  -16.3424 O   0  0  0  0  0  0  0  0  0  0  0  0
   23.3692  -22.3954  -14.3118 N   0  0  0  0  0  0  0  0  0  0  0  0
   21.9106  -22.3568  -14.3293 C   0  0  1  0  0  0  0  0  0  0  0  0
   21.3309  -23.1723  -13.2065 C   0  0  0  0  0  0  0  0  0  0  0  0
   19.8735  -23.1720  -13.2827 C   0  0  0  0  0  0  0  0  0  0  0  0
   19.0479  -22.5223  -14.1679 C   0  0  0  0  0  0  0  0  0  0  0  0
   17.7821  -22.7881  -13.8658 N   0  0  0  0  0  0  0  0  0  0  0  0
   17.7590  -23.6021  -12.7960 C   0  0  0  0  0  0  0  0  0  0  0  0
   19.0322  -23.8344  -12.4429 N   0  0  0  0  0  0  0  0  0  0  0  0
   21.4005  -20.9865  -14.4338 C   0  0  0  0  0  0  0  0  0  0  0  0
   20.4205  -20.6356  -15.1296 O   0  0  0  0  0  0  0  0  0  0  0  0
   22.0184  -19.9378  -13.7194 O   0  0  0  0  0  0  0  0  0  0  0  0
  2  1  1  0
  2  3  2  0
  4  2  1  0
  5  4  1  0
  5  6  1  0
  6  8  1  0
  6  7  1  1
  8  9  2  0
 11 13  1  0
 11 10  1  6
 12 11  1  0
 13 14  1  6
 14  8  1  0
 15 16  2  0
 15 13  1  0
 17 15  1  0
 18 25  1  0
 18 17  1  0
 18 19  1  1
 20 19  1  0
 20 24  1  0
 21 20  2  0
 22 21  1  0
 22 23  1  0
 23 24  2  0
 25 27  1  0
 26 25  2  0
M  END
$$$$
