QTH.pdb
     RDKit          3D

 27 27  0  0  1  0  0  0  0  0999 V2000
   12.2137  -12.5234  -12.8927 N   0  0  0  0  0  0  0  0  0  0  0  0
   11.7881  -11.9854  -14.1316 C   0  0  0  0  0  0  0  0  0  0  0  0
   10.5466  -11.9794  -14.3759 O   0  0  0  0  0  0  0  0  0  0  0  0
   12.7573  -11.4590  -15.0903 C   0  0  0  0  0  0  0  0  0  0  0  0
   14.1462  -11.4625  -14.5829 C   0  0  0  0  0  0  0  0  0  0  0  0
   15.0725  -12.2754  -15.4221 C   0  0  2  0  0  0  0  0  0  0  0  0
   14.7791  -13.7056  -15.2437 N   0  0  0  0  0  0  0  0  0  0  0  0
   16.5012  -12.0761  -15.1181 C   0  0  0  0  0  0  0  0  0  0  0  0
   17.0027  -12.5269  -14.0453 O   0  0  0  0  0  0  0  0  0  0  0  0
   19.2194  -11.6011  -18.1464 C   0  0  0  0  0  0  0  0  0  0  0  0
   19.5467  -12.0694  -16.7458 C   0  0  1  0  0  0  0  0  0  0  0  0
   20.9089  -11.8943  -16.5316 O   0  0  0  0  0  0  0  0  0  0  0  0
   18.7811  -11.2358  -15.7422 C   0  0  2  0  0  0  0  0  0  0  0  0
   17.3468  -11.3886  -15.9948 N   0  0  0  0  0  0  0  0  0  0  0  0
   19.1259   -9.8105  -15.8950 C   0  0  0  0  0  0  0  0  0  0  0  0
   18.5232   -9.0660  -16.7315 O   0  0  0  0  0  0  0  0  0  0  0  0
   20.1459   -9.1975  -15.1180 N   0  0  0  0  0  0  0  0  0  0  0  0
   20.5718   -7.8147  -15.3069 C   0  0  1  0  0  0  0  0  0  0  0  0
   21.3128   -7.3037  -14.1021 C   0  0  0  0  0  0  0  0  0  0  0  0
   21.6656   -5.8995  -14.2845 C   0  0  0  0  0  0  0  0  0  0  0  0
   20.8634   -4.7856  -14.2286 C   0  0  0  0  0  0  0  0  0  0  0  0
   21.5950   -3.7035  -14.4691 N   0  0  0  0  0  0  0  0  0  0  0  0
   22.8664   -4.0850  -14.6828 C   0  0  0  0  0  0  0  0  0  0  0  0
   22.9072   -5.4211  -14.5701 N   0  0  0  0  0  0  0  0  0  0  0  0
   21.2567   -7.6231  -16.5888 C   0  0  0  0  0  0  0  0  0  0  0  0
   22.0573   -8.4360  -17.1044 O   0  0  0  0  0  0  0  0  0  0  0  0
   21.0385   -6.4531  -17.3474 O   0  0  0  0  0  0  0  0  0  0  0  0
  2  1  1  0
  2  3  2  0
  4  2  1  0
  5  4  1  0
  5  6  1  0
  6  8  1  0
  6  7  1  1
  8  9  2  0
 11 13  1  0
 11 10  1  6
 12 11  1  0
 13 14  1  6
 14  8  1  0
 15 16  2  0
 15 13  1  0
 17 15  1  0
 18 25  1  0
 18 17  1  0
 18 19  1  1
 20 19  1  0
 20 24  1  0
 21 20  2  0
 22 21  1  0
 22 23  1  0
 23 24  2  0
 25 27  1  0
 26 25  2  0
M  END
$$$$
