QTH.pdb
     RDKit          3D

 27 27  0  0  1  0  0  0  0  0999 V2000
   25.8693  -12.1917  -18.8190 N   0  0  0  0  0  0  0  0  0  0  0  0
   26.3253  -11.0564  -19.5322 C   0  0  0  0  0  0  0  0  0  0  0  0
   25.4683  -10.1878  -19.8670 O   0  0  0  0  0  0  0  0  0  0  0  0
   27.7392  -10.9027  -19.8676 C   0  0  0  0  0  0  0  0  0  0  0  0
   28.5971  -10.6455  -18.6910 C   0  0  0  0  0  0  0  0  0  0  0  0
   30.0502  -10.6138  -19.0235 C   0  0  2  0  0  0  0  0  0  0  0  0
   30.4834  -11.9410  -19.4864 N   0  0  0  0  0  0  0  0  0  0  0  0
   30.9230  -10.2317  -17.8984 C   0  0  0  0  0  0  0  0  0  0  0  0
   31.4286  -11.1151  -17.1438 O   0  0  0  0  0  0  0  0  0  0  0  0
   33.3809  -10.6286  -16.9376 C   0  0  0  0  0  0  0  0  0  0  0  0
   33.5210   -9.1229  -16.9005 C   0  0  1  0  0  0  0  0  0  0  0  0
   33.9412   -8.6902  -18.1528 O   0  0  0  0  0  0  0  0  0  0  0  0
   32.1787   -8.4979  -16.5905 C   0  0  2  0  0  0  0  0  0  0  0  0
   31.2215   -8.8927  -17.6261 N   0  0  0  0  0  0  0  0  0  0  0  0
   32.2867   -7.0276  -16.6001 C   0  0  0  0  0  0  0  0  0  0  0  0
   31.4766   -6.3052  -17.2629 O   0  0  0  0  0  0  0  0  0  0  0  0
   33.2980   -6.3444  -15.8719 N   0  0  0  0  0  0  0  0  0  0  0  0
   33.3261   -4.8942  -15.7124 C   0  0  1  0  0  0  0  0  0  0  0  0
   32.3125   -4.2288  -16.6022 C   0  0  0  0  0  0  0  0  0  0  0  0
   32.4700   -2.7789  -16.5506 C   0  0  0  0  0  0  0  0  0  0  0  0
   31.7744   -1.8531  -15.8115 C   0  0  0  0  0  0  0  0  0  0  0  0
   32.2368   -0.6374  -16.0804 N   0  0  0  0  0  0  0  0  0  0  0  0
   33.2259   -0.7459  -16.9847 C   0  0  0  0  0  0  0  0  0  0  0  0
   33.3661   -2.0494  -17.2693 N   0  0  0  0  0  0  0  0  0  0  0  0
   33.2750   -4.4974  -14.3021 C   0  0  0  0  0  0  0  0  0  0  0  0
   33.7749   -3.4504  -13.8316 O   0  0  0  0  0  0  0  0  0  0  0  0
   32.6268   -5.3162  -13.3528 O   0  0  0  0  0  0  0  0  0  0  0  0
  2  1  1  0
  2  3  2  0
  4  2  1  0
  5  4  1  0
  5  6  1  0
  6  8  1  0
  6  7  1  1
  8  9  2  0
 11 13  1  0
 11 10  1  6
 12 11  1  0
 13 14  1  6
 14  8  1  0
 15 16  2  0
 15 13  1  0
 17 15  1  0
 18 25  1  0
 18 17  1  0
 18 19  1  6
 20 19  1  0
 20 24  1  0
 21 20  2  0
 22 21  1  0
 22 23  1  0
 23 24  2  0
 25 27  1  0
 26 25  2  0
M  END
$$$$
