QTH.pdb
     RDKit          3D

 27 27  0  0  1  0  0  0  0  0999 V2000
   18.4245  -13.6721  -20.5303 N   0  0  0  0  0  0  0  0  0  0  0  0
   19.0630  -13.5222  -21.7854 C   0  0  0  0  0  0  0  0  0  0  0  0
   18.4989  -14.0305  -22.7976 O   0  0  0  0  0  0  0  0  0  0  0  0
   20.3312  -12.8051  -21.8979 C   0  0  0  0  0  0  0  0  0  0  0  0
   20.7888  -12.2175  -20.6205 C   0  0  0  0  0  0  0  0  0  0  0  0
   22.0971  -11.5121  -20.7376 C   0  0  2  0  0  0  0  0  0  0  0  0
   23.1764  -12.4939  -20.9233 N   0  0  0  0  0  0  0  0  0  0  0  0
   22.4484  -10.6850  -19.5687 C   0  0  0  0  0  0  0  0  0  0  0  0
   22.9293  -11.2150  -18.5231 O   0  0  0  0  0  0  0  0  0  0  0  0
   23.4938   -6.1868  -17.8650 C   0  0  0  0  0  0  0  0  0  0  0  0
   23.1356   -7.1092  -19.0091 C   0  0  1  0  0  0  0  0  0  0  0  0
   24.2675   -7.2943  -19.7944 O   0  0  0  0  0  0  0  0  0  0  0  0
   22.6952   -8.4482  -18.4600 C   0  0  2  0  0  0  0  0  0  0  0  0
   22.2653   -9.2984  -19.5722 N   0  0  0  0  0  0  0  0  0  0  0  0
   21.5519   -8.2731  -17.5459 C   0  0  0  0  0  0  0  0  0  0  0  0
   20.3895   -7.9944  -17.9801 O   0  0  0  0  0  0  0  0  0  0  0  0
   21.6894   -8.4062  -16.1377 N   0  0  0  0  0  0  0  0  0  0  0  0
   20.5935   -8.1741  -15.2025 C   0  0  1  0  0  0  0  0  0  0  0  0
   20.4453   -9.3217  -14.2419 C   0  0  0  0  0  0  0  0  0  0  0  0
   19.3234   -9.0830  -13.3396 C   0  0  0  0  0  0  0  0  0  0  0  0
   18.2690   -8.2124  -13.4724 C   0  0  0  0  0  0  0  0  0  0  0  0
   17.4814   -8.3090  -12.4074 N   0  0  0  0  0  0  0  0  0  0  0  0
   17.9986   -9.2287  -11.5742 C   0  0  0  0  0  0  0  0  0  0  0  0
   19.1191   -9.6983  -12.1431 N   0  0  0  0  0  0  0  0  0  0  0  0
   20.6739   -6.8479  -14.5833 C   0  0  0  0  0  0  0  0  0  0  0  0
   21.7314   -6.2934  -14.2069 O   0  0  0  0  0  0  0  0  0  0  0  0
   19.5042   -6.0880  -14.3680 O   0  0  0  0  0  0  0  0  0  0  0  0
  2  1  1  0
  2  3  2  0
  4  2  1  0
  5  4  1  0
  5  6  1  0
  6  8  1  0
  6  7  1  1
  8  9  2  0
 11 13  1  0
 11 10  1  1
 12 11  1  0
 13 14  1  6
 14  8  1  0
 15 16  2  0
 15 13  1  0
 17 15  1  0
 18 25  1  0
 18 17  1  0
 18 19  1  1
 20 19  1  0
 20 24  1  0
 21 20  2  0
 22 21  1  0
 22 23  1  0
 23 24  2  0
 25 27  1  0
 26 25  2  0
M  END
$$$$
