QTH.pdb
     RDKit          3D

 27 27  0  0  1  0  0  0  0  0999 V2000
   11.1590  -17.2005    3.9742 N   0  0  0  0  0  0  0  0  0  0  0  0
   11.7753  -16.4589    2.9370 C   0  0  0  0  0  0  0  0  0  0  0  0
   11.0359  -16.0136    2.0118 O   0  0  0  0  0  0  0  0  0  0  0  0
   13.2173  -16.2227    2.9422 C   0  0  0  0  0  0  0  0  0  0  0  0
   13.8838  -16.6872    4.1778 C   0  0  0  0  0  0  0  0  0  0  0  0
   15.0763  -17.5419    3.9122 C   0  0  2  0  0  0  0  0  0  0  0  0
   14.6614  -18.7745    3.2251 N   0  0  0  0  0  0  0  0  0  0  0  0
   15.8208  -17.9392    5.1211 C   0  0  0  0  0  0  0  0  0  0  0  0
   15.3606  -18.8248    5.9016 O   0  0  0  0  0  0  0  0  0  0  0  0
   16.9715  -20.1246    6.1937 C   0  0  0  0  0  0  0  0  0  0  0  0
   18.2390  -19.3023    6.2681 C   0  0  1  0  0  0  0  0  0  0  0  0
   18.8888  -19.3857    5.0421 O   0  0  0  0  0  0  0  0  0  0  0  0
   17.8881  -17.8562    6.5399 C   0  0  2  0  0  0  0  0  0  0  0  0
   17.0507  -17.3580    5.4467 N   0  0  0  0  0  0  0  0  0  0  0  0
   19.1121  -17.0360    6.5925 C   0  0  0  0  0  0  0  0  0  0  0  0
   19.7754  -16.7625    5.5425 O   0  0  0  0  0  0  0  0  0  0  0  0
   19.6117  -16.5107    7.8149 N   0  0  0  0  0  0  0  0  0  0  0  0
   20.8494  -15.7435    7.9081 C   0  0  1  0  0  0  0  0  0  0  0  0
   20.5874  -14.3440    8.3924 C   0  0  0  0  0  0  0  0  0  0  0  0
   19.9611  -13.5538    7.3374 C   0  0  0  0  0  0  0  0  0  0  0  0
   18.6288  -13.3959    7.0420 C   0  0  0  0  0  0  0  0  0  0  0  0
   18.5030  -12.5973    5.9882 N   0  0  0  0  0  0  0  0  0  0  0  0
   19.7301  -12.2258    5.5835 C   0  0  0  0  0  0  0  0  0  0  0  0
   20.6157  -12.8087    6.4055 N   0  0  0  0  0  0  0  0  0  0  0  0
   21.8914  -16.4719    8.6378 C   0  0  0  0  0  0  0  0  0  0  0  0
   21.7094  -17.5252    9.2899 O   0  0  0  0  0  0  0  0  0  0  0  0
   23.2216  -16.0005    8.6441 O   0  0  0  0  0  0  0  0  0  0  0  0
  2  1  1  0
  2  3  2  0
  4  2  1  0
  5  4  1  0
  5  6  1  0
  6  8  1  0
  6  7  1  1
  8  9  2  0
 11 13  1  0
 11 10  1  6
 12 11  1  0
 13 14  1  6
 14  8  1  0
 15 16  2  0
 15 13  1  0
 17 15  1  0
 18 25  1  0
 18 17  1  0
 18 19  1  1
 20 19  1  0
 20 24  1  0
 21 20  2  0
 22 21  1  0
 22 23  1  0
 23 24  2  0
 25 27  1  0
 26 25  2  0
M  END
$$$$
