QTH.pdb
     RDKit          3D

 27 27  0  0  1  0  0  0  0  0999 V2000
   24.1618  -19.0445  -19.4604 N   0  0  0  0  0  0  0  0  0  0  0  0
   25.2639  -18.3814  -18.8678 C   0  0  0  0  0  0  0  0  0  0  0  0
   25.1951  -17.1246  -18.7384 O   0  0  0  0  0  0  0  0  0  0  0  0
   26.4377  -19.1312  -18.4257 C   0  0  0  0  0  0  0  0  0  0  0  0
   27.1051  -18.5361  -17.2480 C   0  0  0  0  0  0  0  0  0  0  0  0
   27.6672  -19.5566  -16.3176 C   0  0  2  0  0  0  0  0  0  0  0  0
   28.5550  -20.4674  -17.0563 N   0  0  0  0  0  0  0  0  0  0  0  0
   26.6533  -20.3830  -15.6374 C   0  0  0  0  0  0  0  0  0  0  0  0
   26.3668  -21.5394  -16.0688 O   0  0  0  0  0  0  0  0  0  0  0  0
   24.5067  -21.7113  -11.5425 C   0  0  0  0  0  0  0  0  0  0  0  0
   25.4760  -20.8484  -12.3198 C   0  0  1  0  0  0  0  0  0  0  0  0
   26.7306  -21.4448  -12.2715 O   0  0  0  0  0  0  0  0  0  0  0  0
   25.0298  -20.7609  -13.7626 C   0  0  2  0  0  0  0  0  0  0  0  0
   25.9775  -19.9244  -14.5020 N   0  0  0  0  0  0  0  0  0  0  0  0
   23.6985  -20.1329  -13.8471 C   0  0  0  0  0  0  0  0  0  0  0  0
   23.5624  -18.8920  -14.0895 O   0  0  0  0  0  0  0  0  0  0  0  0
   22.5034  -20.8795  -13.6627 N   0  0  0  0  0  0  0  0  0  0  0  0
   21.1728  -20.3277  -13.8961 C   0  0  1  0  0  0  0  0  0  0  0  0
   20.8845  -20.2050  -15.3670 C   0  0  0  0  0  0  0  0  0  0  0  0
   21.3296  -18.9062  -15.8619 C   0  0  0  0  0  0  0  0  0  0  0  0
   22.2633  -18.6153  -16.8267 C   0  0  0  0  0  0  0  0  0  0  0  0
   22.3690  -17.2975  -16.9542 N   0  0  0  0  0  0  0  0  0  0  0  0
   21.5204  -16.7142  -16.0896 C   0  0  0  0  0  0  0  0  0  0  0  0
   20.8892  -17.6946  -15.4262 N   0  0  0  0  0  0  0  0  0  0  0  0
   20.1466  -21.0242  -13.1147 C   0  0  0  0  0  0  0  0  0  0  0  0
   19.0865  -20.5056  -12.6964 O   0  0  0  0  0  0  0  0  0  0  0  0
   20.3077  -22.3846  -12.7756 O   0  0  0  0  0  0  0  0  0  0  0  0
  2  1  1  0
  2  3  2  0
  4  2  1  0
  5  4  1  0
  5  6  1  0
  6  8  1  0
  6  7  1  6
  8  9  2  0
 11 13  1  0
 11 10  1  1
 12 11  1  0
 13 14  1  6
 14  8  1  0
 15 16  2  0
 15 13  1  0
 17 15  1  0
 18 25  1  0
 18 17  1  0
 18 19  1  6
 20 19  1  0
 20 24  1  0
 21 20  2  0
 22 21  1  0
 22 23  1  0
 23 24  2  0
 25 27  1  0
 26 25  2  0
M  END
$$$$
