QTH.pdb
     RDKit          3D

 27 27  0  0  1  0  0  0  0  0999 V2000
   17.0663  -14.7305  -13.8739 N   0  0  0  0  0  0  0  0  0  0  0  0
   16.8899  -15.9245  -14.6148 C   0  0  0  0  0  0  0  0  0  0  0  0
   16.1415  -16.8180  -14.1224 O   0  0  0  0  0  0  0  0  0  0  0  0
   17.5553  -16.1104  -15.9024 C   0  0  0  0  0  0  0  0  0  0  0  0
   18.4036  -14.9648  -16.2957 C   0  0  0  0  0  0  0  0  0  0  0  0
   17.8982  -14.2513  -17.5034 C   0  0  2  0  0  0  0  0  0  0  0  0
   18.2830  -14.9911  -18.7151 N   0  0  0  0  0  0  0  0  0  0  0  0
   18.4001  -12.8728  -17.6494 C   0  0  0  0  0  0  0  0  0  0  0  0
   19.1016  -12.5431  -18.6517 O   0  0  0  0  0  0  0  0  0  0  0  0
   16.3450   -9.7769  -17.6123 C   0  0  0  0  0  0  0  0  0  0  0  0
   17.4166   -9.5749  -16.5640 C   0  0  1  0  0  0  0  0  0  0  0  0
   16.8783   -9.8855  -15.3207 O   0  0  0  0  0  0  0  0  0  0  0  0
   18.5774  -10.5042  -16.8421 C   0  0  2  0  0  0  0  0  0  0  0  0
   18.1221  -11.8883  -16.6955 N   0  0  0  0  0  0  0  0  0  0  0  0
   19.6611  -10.2709  -15.8701 C   0  0  0  0  0  0  0  0  0  0  0  0
   19.9541  -11.1315  -14.9808 O   0  0  0  0  0  0  0  0  0  0  0  0
   20.4314   -9.0766  -15.8771 N   0  0  0  0  0  0  0  0  0  0  0  0
   21.8352   -9.0290  -15.4813 C   0  0  1  0  0  0  0  0  0  0  0  0
   22.6362  -10.0878  -16.1878 C   0  0  0  0  0  0  0  0  0  0  0  0
   24.0246  -10.0534  -15.7394 C   0  0  0  0  0  0  0  0  0  0  0  0
   24.5800  -10.5528  -14.5864 C   0  0  0  0  0  0  0  0  0  0  0  0
   25.8816  -10.2890  -14.5744 N   0  0  0  0  0  0  0  0  0  0  0  0
   26.1942   -9.6239  -15.7003 C   0  0  0  0  0  0  0  0  0  0  0  0
   25.0631   -9.4817  -16.4076 N   0  0  0  0  0  0  0  0  0  0  0  0
   22.3822   -7.6717  -15.5660 C   0  0  0  0  0  0  0  0  0  0  0  0
   22.0124   -6.7975  -16.3826 O   0  0  0  0  0  0  0  0  0  0  0  0
   23.4060   -7.2579  -14.6872 O   0  0  0  0  0  0  0  0  0  0  0  0
  2  1  1  0
  2  3  2  0
  4  2  1  0
  5  4  1  0
  5  6  1  0
  6  8  1  0
  6  7  1  6
  8  9  2  0
 11 13  1  0
 11 10  1  6
 12 11  1  0
 13 14  1  1
 14  8  1  0
 15 16  2  0
 15 13  1  0
 17 15  1  0
 18 25  1  0
 18 17  1  0
 18 19  1  6
 20 19  1  0
 20 24  1  0
 21 20  2  0
 22 21  1  0
 22 23  1  0
 23 24  2  0
 25 27  1  0
 26 25  2  0
M  END
$$$$
