QTH.pdb
     RDKit          3D

 27 27  0  0  1  0  0  0  0  0999 V2000
   19.9310  -22.8835  -18.6077 N   0  0  0  0  0  0  0  0  0  0  0  0
   20.4700  -23.9653  -17.8697 C   0  0  0  0  0  0  0  0  0  0  0  0
   21.6643  -24.3062  -18.1115 O   0  0  0  0  0  0  0  0  0  0  0  0
   19.6661  -24.6599  -16.8664 C   0  0  0  0  0  0  0  0  0  0  0  0
   20.1406  -24.4450  -15.4825 C   0  0  0  0  0  0  0  0  0  0  0  0
   20.0464  -23.0221  -15.0471 C   0  0  2  0  0  0  0  0  0  0  0  0
   21.0073  -22.2059  -15.8045 N   0  0  0  0  0  0  0  0  0  0  0  0
   20.3160  -22.8059  -13.6139 C   0  0  0  0  0  0  0  0  0  0  0  0
   21.5056  -22.7564  -13.1804 O   0  0  0  0  0  0  0  0  0  0  0  0
   19.9728  -19.9706  -11.7271 C   0  0  0  0  0  0  0  0  0  0  0  0
   19.0829  -20.9414  -10.9830 C   0  0  1  0  0  0  0  0  0  0  0  0
   17.7783  -20.7739  -11.4324 O   0  0  0  0  0  0  0  0  0  0  0  0
   19.5245  -22.3583  -11.2758 C   0  0  2  0  0  0  0  0  0  0  0  0
   19.2779  -22.6490  -12.6898 N   0  0  0  0  0  0  0  0  0  0  0  0
   18.7444  -23.3127  -10.4670 C   0  0  0  0  0  0  0  0  0  0  0  0
   17.7738  -23.9678  -10.9632 O   0  0  0  0  0  0  0  0  0  0  0  0
   19.0360  -23.5489   -9.0963 N   0  0  0  0  0  0  0  0  0  0  0  0
   18.2145  -24.3978   -8.2396 C   0  0  1  0  0  0  0  0  0  0  0  0
   18.8156  -24.5307   -6.8675 C   0  0  0  0  0  0  0  0  0  0  0  0
   18.0196  -25.4442   -6.0540 C   0  0  0  0  0  0  0  0  0  0  0  0
   17.8024  -26.7909   -6.2165 C   0  0  0  0  0  0  0  0  0  0  0  0
   17.0000  -27.2271   -5.2521 N   0  0  0  0  0  0  0  0  0  0  0  0
   16.6843  -26.1905   -4.4562 C   0  0  0  0  0  0  0  0  0  0  0  0
   17.3056  -25.1069   -4.9457 N   0  0  0  0  0  0  0  0  0  0  0  0
   16.8035  -24.0015   -8.2674 C   0  0  0  0  0  0  0  0  0  0  0  0
   16.3896  -22.8227   -8.3486 O   0  0  0  0  0  0  0  0  0  0  0  0
   15.7860  -24.9773   -8.2007 O   0  0  0  0  0  0  0  0  0  0  0  0
  2  1  1  0
  2  3  2  0
  4  2  1  0
  5  4  1  0
  5  6  1  0
  6  8  1  0
  6  7  1  6
  8  9  2  0
 11 13  1  0
 11 10  1  6
 12 11  1  0
 13 14  1  6
 14  8  1  0
 15 16  2  0
 15 13  1  0
 17 15  1  0
 18 25  1  0
 18 17  1  0
 18 19  1  1
 20 19  1  0
 20 24  1  0
 21 20  2  0
 22 21  1  0
 22 23  1  0
 23 24  2  0
 25 27  1  0
 26 25  2  0
M  END
$$$$
