QTH.pdb
     RDKit          3D

 27 27  0  0  1  0  0  0  0  0999 V2000
   21.7488  -15.6879  -15.1452 N   0  0  0  0  0  0  0  0  0  0  0  0
   20.7841  -16.7246  -15.1467 C   0  0  0  0  0  0  0  0  0  0  0  0
   21.0766  -17.8023  -14.5518 O   0  0  0  0  0  0  0  0  0  0  0  0
   19.4978  -16.5476  -15.8171 C   0  0  0  0  0  0  0  0  0  0  0  0
   19.3069  -15.1904  -16.3722 C   0  0  0  0  0  0  0  0  0  0  0  0
   18.1257  -14.4851  -15.7975 C   0  0  2  0  0  0  0  0  0  0  0  0
   16.8941  -15.2047  -16.1561 N   0  0  0  0  0  0  0  0  0  0  0  0
   17.9706  -13.0908  -16.2506 C   0  0  0  0  0  0  0  0  0  0  0  0
   17.3978  -12.8284  -17.3499 O   0  0  0  0  0  0  0  0  0  0  0  0
   15.8027  -10.8145  -15.9885 C   0  0  0  0  0  0  0  0  0  0  0  0
   16.9647  -10.1076  -15.3265 C   0  0  1  0  0  0  0  0  0  0  0  0
   16.9315  -10.3885  -13.9656 O   0  0  0  0  0  0  0  0  0  0  0  0
   18.2648  -10.6238  -15.9024 C   0  0  2  0  0  0  0  0  0  0  0  0
   18.4457  -12.0173  -15.4902 N   0  0  0  0  0  0  0  0  0  0  0  0
   19.3996   -9.8391  -15.3827 C   0  0  0  0  0  0  0  0  0  0  0  0
   20.0288  -10.1925  -14.3356 O   0  0  0  0  0  0  0  0  0  0  0  0
   19.8470   -8.6518  -16.0229 N   0  0  0  0  0  0  0  0  0  0  0  0
   21.0026   -7.8857  -15.5678 C   0  0  1  0  0  0  0  0  0  0  0  0
   21.7133   -7.2349  -16.7223 C   0  0  0  0  0  0  0  0  0  0  0  0
   22.2045   -8.2494  -17.6493 C   0  0  0  0  0  0  0  0  0  0  0  0
   22.8747   -9.4191  -17.3851 C   0  0  0  0  0  0  0  0  0  0  0  0
   23.1462  -10.0389  -18.5279 N   0  0  0  0  0  0  0  0  0  0  0  0
   22.6664   -9.2975  -19.5417 C   0  0  0  0  0  0  0  0  0  0  0  0
   22.0939   -8.2094  -19.0051 N   0  0  0  0  0  0  0  0  0  0  0  0
   20.6629   -6.9897  -14.4584 C   0  0  0  0  0  0  0  0  0  0  0  0
   19.5014   -6.6445  -14.1432 O   0  0  0  0  0  0  0  0  0  0  0  0
   21.6786   -6.4412  -13.6465 O   0  0  0  0  0  0  0  0  0  0  0  0
  2  1  1  0
  2  3  2  0
  4  2  1  0
  5  4  1  0
  5  6  1  0
  6  8  1  0
  6  7  1  6
  8  9  2  0
 11 13  1  0
 11 10  1  6
 12 11  1  0
 13 14  1  1
 14  8  1  0
 15 16  2  0
 15 13  1  0
 17 15  1  0
 18 25  1  0
 18 17  1  0
 18 19  1  6
 20 19  1  0
 20 24  1  0
 21 20  2  0
 22 21  1  0
 22 23  1  0
 23 24  2  0
 25 27  1  0
 26 25  2  0
M  END
$$$$
