QTH.pdb
     RDKit          3D

 27 27  0  0  1  0  0  0  0  0999 V2000
   23.2123   -9.7886  -20.4170 N   0  0  0  0  0  0  0  0  0  0  0  0
   21.8325   -9.9953  -20.6598 C   0  0  0  0  0  0  0  0  0  0  0  0
   21.3193   -9.4239  -21.6654 O   0  0  0  0  0  0  0  0  0  0  0  0
   21.0357  -10.8396  -19.7724 C   0  0  0  0  0  0  0  0  0  0  0  0
   21.7945  -11.3507  -18.6107 C   0  0  0  0  0  0  0  0  0  0  0  0
   20.9684  -11.4552  -17.3738 C   0  0  2  0  0  0  0  0  0  0  0  0
   19.9400  -12.4920  -17.5489 N   0  0  0  0  0  0  0  0  0  0  0  0
   20.2787  -10.2080  -16.9965 C   0  0  0  0  0  0  0  0  0  0  0  0
   19.1541   -9.9135  -17.5005 O   0  0  0  0  0  0  0  0  0  0  0  0
   19.6888   -9.4409  -13.5693 C   0  0  0  0  0  0  0  0  0  0  0  0
   19.0674   -8.5398  -14.6134 C   0  0  1  0  0  0  0  0  0  0  0  0
   18.5741   -7.4065  -13.9775 O   0  0  0  0  0  0  0  0  0  0  0  0
   20.1231   -8.1212  -15.6127 C   0  0  2  0  0  0  0  0  0  0  0  0
   20.8357   -9.3134  -16.0769 N   0  0  0  0  0  0  0  0  0  0  0  0
   21.1003   -7.2203  -14.9746 C   0  0  0  0  0  0  0  0  0  0  0  0
   21.9607   -7.6529  -14.1441 O   0  0  0  0  0  0  0  0  0  0  0  0
   21.1308   -5.8272  -15.2539 N   0  0  0  0  0  0  0  0  0  0  0  0
   22.1230   -4.9202  -14.6863 C   0  0  1  0  0  0  0  0  0  0  0  0
   22.9784   -4.3075  -15.7609 C   0  0  0  0  0  0  0  0  0  0  0  0
   23.6129   -5.3524  -16.5580 C   0  0  0  0  0  0  0  0  0  0  0  0
   24.7599   -6.0650  -16.3053 C   0  0  0  0  0  0  0  0  0  0  0  0
   24.9822   -6.9107  -17.3050 N   0  0  0  0  0  0  0  0  0  0  0  0
   24.0009   -6.7679  -18.2129 C   0  0  0  0  0  0  0  0  0  0  0  0
   23.1690   -5.8195  -17.7566 N   0  0  0  0  0  0  0  0  0  0  0  0
   21.5211   -3.9678  -13.7485 C   0  0  0  0  0  0  0  0  0  0  0  0
   20.2930   -3.7558  -13.6288 O   0  0  0  0  0  0  0  0  0  0  0  0
   22.3355   -3.2010  -12.8879 O   0  0  0  0  0  0  0  0  0  0  0  0
  2  1  1  0
  2  3  2  0
  4  2  1  0
  5  4  1  0
  5  6  1  0
  6  8  1  0
  6  7  1  6
  8  9  2  0
 11 13  1  0
 11 10  1  1
 12 11  1  0
 13 14  1  1
 14  8  1  0
 15 16  2  0
 15 13  1  0
 17 15  1  0
 18 25  1  0
 18 17  1  0
 18 19  1  6
 20 19  1  0
 20 24  1  0
 21 20  2  0
 22 21  1  0
 22 23  1  0
 23 24  2  0
 25 27  1  0
 26 25  2  0
M  END
$$$$
