QTH.pdb
     RDKit          3D

 27 27  0  0  1  0  0  0  0  0999 V2000
   17.3407  -16.3954  -15.7330 N   0  0  0  0  0  0  0  0  0  0  0  0
   16.5139  -16.3881  -14.5833 C   0  0  0  0  0  0  0  0  0  0  0  0
   16.5519  -17.3996  -13.8240 O   0  0  0  0  0  0  0  0  0  0  0  0
   15.6476  -15.2477  -14.2927 C   0  0  0  0  0  0  0  0  0  0  0  0
   15.7508  -14.1626  -15.2920 C   0  0  0  0  0  0  0  0  0  0  0  0
   14.9202  -12.9726  -14.9497 C   0  0  2  0  0  0  0  0  0  0  0  0
   13.5094  -13.2438  -15.2649 N   0  0  0  0  0  0  0  0  0  0  0  0
   15.3028  -11.7394  -15.6613 C   0  0  0  0  0  0  0  0  0  0  0  0
   14.9398  -11.5457  -16.8597 O   0  0  0  0  0  0  0  0  0  0  0  0
   14.2694   -8.4459  -15.6208 C   0  0  0  0  0  0  0  0  0  0  0  0
   15.7141   -8.3564  -15.1814 C   0  0  1  0  0  0  0  0  0  0  0  0
   15.7548   -8.4131  -13.7931 O   0  0  0  0  0  0  0  0  0  0  0  0
   16.4869   -9.5292  -15.7431 C   0  0  2  0  0  0  0  0  0  0  0  0
   16.0729  -10.7480  -15.0446 N   0  0  0  0  0  0  0  0  0  0  0  0
   17.9322   -9.3403  -15.5216 C   0  0  0  0  0  0  0  0  0  0  0  0
   18.4929   -9.7050  -14.4400 O   0  0  0  0  0  0  0  0  0  0  0  0
   18.7700   -8.7430  -16.5019 N   0  0  0  0  0  0  0  0  0  0  0  0
   20.1636   -8.3888  -16.2532 C   0  0  1  0  0  0  0  0  0  0  0  0
   21.0546   -8.8707  -17.3648 C   0  0  0  0  0  0  0  0  0  0  0  0
   22.4340   -8.4622  -17.1191 C   0  0  0  0  0  0  0  0  0  0  0  0
   23.4379   -9.1342  -16.4650 C   0  0  0  0  0  0  0  0  0  0  0  0
   24.5364   -8.3877  -16.4593 N   0  0  0  0  0  0  0  0  0  0  0  0
   24.2738   -7.2344  -17.0986 C   0  0  0  0  0  0  0  0  0  0  0  0
   22.9944   -7.2818  -17.4992 N   0  0  0  0  0  0  0  0  0  0  0  0
   20.3143   -6.9739  -15.9010 C   0  0  0  0  0  0  0  0  0  0  0  0
   19.6345   -6.0378  -16.3798 O   0  0  0  0  0  0  0  0  0  0  0  0
   21.2826   -6.5721  -14.9561 O   0  0  0  0  0  0  0  0  0  0  0  0
  2  1  1  0
  2  3  2  0
  4  2  1  0
  5  4  1  0
  5  6  1  0
  6  8  1  0
  6  7  1  6
  8  9  2  0
 11 13  1  0
 11 10  1  1
 12 11  1  0
 13 14  1  1
 14  8  1  0
 15 16  2  0
 15 13  1  0
 17 15  1  0
 18 25  1  0
 18 17  1  0
 18 19  1  6
 20 19  1  0
 20 24  1  0
 21 20  2  0
 22 21  1  0
 22 23  1  0
 23 24  2  0
 25 27  1  0
 26 25  2  0
M  END
$$$$
