QTH.pdb
     RDKit          3D

 27 27  0  0  1  0  0  0  0  0999 V2000
   16.8453  -13.8143  -15.5258 N   0  0  0  0  0  0  0  0  0  0  0  0
   15.5216  -13.9123  -16.0192 C   0  0  0  0  0  0  0  0  0  0  0  0
   14.7594  -14.7749  -15.4937 O   0  0  0  0  0  0  0  0  0  0  0  0
   15.0606  -13.0441  -17.1004 C   0  0  0  0  0  0  0  0  0  0  0  0
   16.0852  -12.0805  -17.5568 C   0  0  0  0  0  0  0  0  0  0  0  0
   15.6344  -11.2519  -18.7115 C   0  0  2  0  0  0  0  0  0  0  0  0
   15.5502  -12.0866  -19.9196 N   0  0  0  0  0  0  0  0  0  0  0  0
   16.5161  -10.1119  -19.0225 C   0  0  0  0  0  0  0  0  0  0  0  0
   16.6917   -9.7389  -20.2206 O   0  0  0  0  0  0  0  0  0  0  0  0
   17.9033   -5.8416  -18.9072 C   0  0  0  0  0  0  0  0  0  0  0  0
   17.1389   -7.1468  -18.8833 C   0  0  1  0  0  0  0  0  0  0  0  0
   16.8113   -7.4874  -20.1905 O   0  0  0  0  0  0  0  0  0  0  0  0
   18.0128   -8.2337  -18.2975 C   0  0  2  0  0  0  0  0  0  0  0  0
   17.1841   -9.4078  -18.0155 N   0  0  0  0  0  0  0  0  0  0  0  0
   18.6119   -7.7781  -17.0298 C   0  0  0  0  0  0  0  0  0  0  0  0
   17.8920   -7.4237  -16.0431 O   0  0  0  0  0  0  0  0  0  0  0  0
   20.0196   -7.7118  -16.8459 N   0  0  0  0  0  0  0  0  0  0  0  0
   20.6435   -7.3683  -15.5723 C   0  0  1  0  0  0  0  0  0  0  0  0
   21.6207   -8.4273  -15.1416 C   0  0  0  0  0  0  0  0  0  0  0  0
   20.9808   -9.7389  -15.1519 C   0  0  0  0  0  0  0  0  0  0  0  0
   21.1429  -10.7799  -16.0335 C   0  0  0  0  0  0  0  0  0  0  0  0
   20.3527  -11.7861  -15.6767 N   0  0  0  0  0  0  0  0  0  0  0  0
   19.6722  -11.4262  -14.5745 C   0  0  0  0  0  0  0  0  0  0  0  0
   20.0557  -10.1805  -14.2569 N   0  0  0  0  0  0  0  0  0  0  0  0
   21.1660   -5.9987  -15.5704 C   0  0  0  0  0  0  0  0  0  0  0  0
   21.4176   -5.3241  -16.5948 O   0  0  0  0  0  0  0  0  0  0  0  0
   21.4259   -5.3349  -14.3524 O   0  0  0  0  0  0  0  0  0  0  0  0
  2  1  1  0
  2  3  2  0
  4  2  1  0
  5  4  1  0
  5  6  1  0
  6  8  1  0
  6  7  1  6
  8  9  2  0
 11 13  1  0
 11 10  1  6
 12 11  1  0
 13 14  1  1
 14  8  1  0
 15 16  2  0
 15 13  1  0
 17 15  1  0
 18 25  1  0
 18 17  1  0
 18 19  1  6
 20 19  1  0
 20 24  1  0
 21 20  2  0
 22 21  1  0
 22 23  1  0
 23 24  2  0
 25 27  1  0
 26 25  2  0
M  END
$$$$
