HGE.pdb
     RDKit          3D

 24 24  0  0  1  0  0  0  0  0999 V2000
    9.4158  -15.0719   18.1091 N   0  0  0  0  0  0  0  0  0  0  0  0
   10.2898  -13.9407   17.8600 C   0  0  1  0  0  0  0  0  0  0  0  0
    9.6959  -12.7760   18.6260 C   0  0  0  0  0  0  0  0  0  0  0  0
    8.7060  -13.2646   19.6286 C   0  0  0  0  0  0  0  0  0  0  0  0
    8.8019  -13.2793   21.0073 C   0  0  0  0  0  0  0  0  0  0  0  0
    7.6879  -13.8036   21.5556 N   0  0  0  0  0  0  0  0  0  0  0  0
    6.8852  -14.1221   20.5264 C   0  0  0  0  0  0  0  0  0  0  0  0
    7.4850  -13.8038   19.3686 N   0  0  0  0  0  0  0  0  0  0  0  0
   11.6828  -14.2140   18.2622 C   0  0  0  0  0  0  0  0  0  0  0  0
   12.6041  -13.3803   18.0184 O   0  0  0  0  0  0  0  0  0  0  0  0
   12.1007  -15.4096   18.9437 N   0  0  0  0  0  0  0  0  0  0  0  0
   13.4719  -15.6936   19.2358 C   0  0  0  0  0  0  0  0  0  0  0  0
   13.9132  -15.4045   20.5962 C   0  0  0  0  0  0  0  0  0  0  0  0
   13.9142  -14.2141   20.9935 O   0  0  0  0  0  0  0  0  0  0  0  0
   14.3375  -16.4133   21.4851 N   0  0  0  0  0  0  0  0  0  0  0  0
   14.4508  -16.1802   22.9427 C   0  0  1  0  0  0  0  0  0  0  0  0
   13.5650  -17.1227   23.6795 C   0  0  0  0  0  0  0  0  0  0  0  0
   13.5584  -16.8851   25.1465 C   0  0  0  0  0  0  0  0  0  0  0  0
   12.8362  -17.8883   25.9525 C   0  0  0  0  0  0  0  0  0  0  0  0
   12.8993  -17.8548   27.2217 O   0  0  0  0  0  0  0  0  0  0  0  0
   15.8500  -16.3444   23.3381 C   0  0  0  0  0  0  0  0  0  0  0  0
   16.2808  -15.9782   24.4386 O   0  0  0  0  0  0  0  0  0  0  0  0
   12.0804  -18.8838   25.4042 O   0  0  0  0  0  0  0  0  0  0  0  0
   16.7586  -16.9428   22.4403 O   0  0  0  0  0  0  0  0  0  0  0  0
  2  1  1  1
  3  4  1  0
  3  2  1  0
  4  5  2  0
  6  5  1  0
  7  6  1  0
  8  7  2  0
  8  4  1  0
  9  2  1  0
  9 10  2  0
 11  9  1  0
 12 11  1  0
 12 13  1  0
 13 15  1  0
 14 13  2  0
 15 16  1  0
 16 17  1  1
 16 21  1  0
 18 17  1  0
 19 18  1  0
 20 19  2  0
 21 24  1  0
 22 21  2  0
 23 19  1  0
M  END
$$$$
