HGE.pdb
     RDKit          3D

 24 24  0  0  1  0  0  0  0  0999 V2000
   10.3364  -14.4211   20.0014 N   0  0  0  0  0  0  0  0  0  0  0  0
    8.9884  -14.8483   20.3268 C   0  0  1  0  0  0  0  0  0  0  0  0
    8.4946  -15.6280   19.1250 C   0  0  0  0  0  0  0  0  0  0  0  0
    8.2768  -14.7141   17.9669 C   0  0  0  0  0  0  0  0  0  0  0  0
    9.2125  -14.1324   17.1323 C   0  0  0  0  0  0  0  0  0  0  0  0
    8.6084  -13.3684   16.2007 N   0  0  0  0  0  0  0  0  0  0  0  0
    7.2904  -13.4643   16.4432 C   0  0  0  0  0  0  0  0  0  0  0  0
    7.0810  -14.2671   17.4983 N   0  0  0  0  0  0  0  0  0  0  0  0
    8.9420  -15.6512   21.5637 C   0  0  0  0  0  0  0  0  0  0  0  0
    7.8406  -16.0799   22.0182 O   0  0  0  0  0  0  0  0  0  0  0  0
   10.1039  -16.0055   22.3337 N   0  0  0  0  0  0  0  0  0  0  0  0
   10.0239  -16.7278   23.5658 C   0  0  0  0  0  0  0  0  0  0  0  0
    9.5089  -15.9879   24.7132 C   0  0  0  0  0  0  0  0  0  0  0  0
    8.8164  -14.9609   24.5116 O   0  0  0  0  0  0  0  0  0  0  0  0
    9.7575  -16.3843   26.0432 N   0  0  0  0  0  0  0  0  0  0  0  0
    9.1767  -15.6650   27.1996 C   0  0  1  0  0  0  0  0  0  0  0  0
    9.3971  -16.4457   28.4477 C   0  0  0  0  0  0  0  0  0  0  0  0
   10.8334  -16.5671   28.8095 C   0  0  0  0  0  0  0  0  0  0  0  0
   11.1257  -17.4000   29.9921 C   0  0  0  0  0  0  0  0  0  0  0  0
   11.1641  -16.8762   31.1497 O   0  0  0  0  0  0  0  0  0  0  0  0
    9.7896  -14.3391   27.2851 C   0  0  0  0  0  0  0  0  0  0  0  0
   10.8839  -14.0744   26.7722 O   0  0  0  0  0  0  0  0  0  0  0  0
   11.3667  -18.7416   29.9200 O   0  0  0  0  0  0  0  0  0  0  0  0
    9.1190  -13.3086   27.9767 O   0  0  0  0  0  0  0  0  0  0  0  0
  2  1  1  6
  3  4  1  0
  3  2  1  0
  4  5  2  0
  6  5  1  0
  7  6  1  0
  8  7  2  0
  8  4  1  0
  9  2  1  0
  9 10  2  0
 11  9  1  0
 12 11  1  0
 12 13  1  0
 13 15  1  0
 14 13  2  0
 15 16  1  0
 16 17  1  1
 16 21  1  0
 18 17  1  0
 19 18  1  0
 20 19  2  0
 21 24  1  0
 22 21  2  0
 23 19  1  0
M  END
$$$$
