HGE.pdb
     RDKit          3D

 24 24  0  0  1  0  0  0  0  0999 V2000
    9.7888  -15.5525   17.8080 N   0  0  0  0  0  0  0  0  0  0  0  0
   10.7684  -14.4820   17.8131 C   0  0  1  0  0  0  0  0  0  0  0  0
   10.2607  -13.4545   18.8043 C   0  0  0  0  0  0  0  0  0  0  0  0
    8.7899  -13.2645   18.6477 C   0  0  0  0  0  0  0  0  0  0  0  0
    7.9281  -13.8642   17.7488 C   0  0  0  0  0  0  0  0  0  0  0  0
    6.6677  -13.4231   17.9323 N   0  0  0  0  0  0  0  0  0  0  0  0
    6.7287  -12.5440   18.9464 C   0  0  0  0  0  0  0  0  0  0  0  0
    7.9942  -12.4415   19.3818 N   0  0  0  0  0  0  0  0  0  0  0  0
   12.1189  -14.9645   18.1601 C   0  0  0  0  0  0  0  0  0  0  0  0
   12.2817  -15.8611   19.0392 O   0  0  0  0  0  0  0  0  0  0  0  0
   13.3261  -14.4758   17.5500 N   0  0  0  0  0  0  0  0  0  0  0  0
   14.6291  -14.8507   18.0060 C   0  0  0  0  0  0  0  0  0  0  0  0
   14.9584  -14.4893   19.3808 C   0  0  0  0  0  0  0  0  0  0  0  0
   14.4125  -13.4806   19.8902 O   0  0  0  0  0  0  0  0  0  0  0  0
   15.8665  -15.2325   20.1623 N   0  0  0  0  0  0  0  0  0  0  0  0
   15.8868  -15.1455   21.6400 C   0  0  1  0  0  0  0  0  0  0  0  0
   14.7816  -15.9615   22.2134 C   0  0  0  0  0  0  0  0  0  0  0  0
   14.7035  -15.8722   23.6947 C   0  0  0  0  0  0  0  0  0  0  0  0
   13.5927  -16.6146   24.3214 C   0  0  0  0  0  0  0  0  0  0  0  0
   12.4116  -16.5043   23.8645 O   0  0  0  0  0  0  0  0  0  0  0  0
   17.1912  -15.6025   22.1205 C   0  0  0  0  0  0  0  0  0  0  0  0
   17.9290  -16.3380   21.4531 O   0  0  0  0  0  0  0  0  0  0  0  0
   13.7575  -17.4388   25.3968 O   0  0  0  0  0  0  0  0  0  0  0  0
   17.6418  -15.1973   23.3943 O   0  0  0  0  0  0  0  0  0  0  0  0
  2  1  1  1
  3  4  1  0
  3  2  1  0
  4  5  2  0
  6  5  1  0
  7  6  1  0
  8  7  2  0
  8  4  1  0
  9  2  1  0
  9 10  2  0
 11  9  1  0
 12 11  1  0
 12 13  1  0
 13 15  1  0
 14 13  2  0
 15 16  1  0
 16 17  1  1
 16 21  1  0
 18 17  1  0
 19 18  1  0
 20 19  2  0
 21 24  1  0
 22 21  2  0
 23 19  1  0
M  END
$$$$
