HGE.pdb
     RDKit          3D

 24 24  0  0  1  0  0  0  0  0999 V2000
    9.2593  -16.5189   17.2475 N   0  0  0  0  0  0  0  0  0  0  0  0
    9.5896  -15.4876   16.2817 C   0  0  1  0  0  0  0  0  0  0  0  0
    8.5188  -14.4245   16.4215 C   0  0  0  0  0  0  0  0  0  0  0  0
    8.3694  -14.0228   17.8498 C   0  0  0  0  0  0  0  0  0  0  0  0
    9.0242  -14.5152   18.9630 C   0  0  0  0  0  0  0  0  0  0  0  0
    8.6055  -13.8845   20.0781 N   0  0  0  0  0  0  0  0  0  0  0  0
    7.6855  -12.9926   19.6740 C   0  0  0  0  0  0  0  0  0  0  0  0
    7.5365  -13.0673   18.3422 N   0  0  0  0  0  0  0  0  0  0  0  0
   10.9432  -14.9398   16.4928 C   0  0  0  0  0  0  0  0  0  0  0  0
   11.3997  -14.0298   15.7400 O   0  0  0  0  0  0  0  0  0  0  0  0
   11.8309  -15.3763   17.5368 N   0  0  0  0  0  0  0  0  0  0  0  0
   13.1137  -14.7835   17.7586 C   0  0  0  0  0  0  0  0  0  0  0  0
   13.4842  -14.5536   19.1510 C   0  0  0  0  0  0  0  0  0  0  0  0
   14.0546  -13.4785   19.4574 O   0  0  0  0  0  0  0  0  0  0  0  0
   13.2235  -15.4935   20.1691 N   0  0  0  0  0  0  0  0  0  0  0  0
   13.5905  -15.2448   21.5816 C   0  0  1  0  0  0  0  0  0  0  0  0
   12.6349  -15.9410   22.4861 C   0  0  0  0  0  0  0  0  0  0  0  0
   12.9673  -15.7682   23.9242 C   0  0  0  0  0  0  0  0  0  0  0  0
   12.1038  -16.4995   24.8715 C   0  0  0  0  0  0  0  0  0  0  0  0
   11.8218  -17.7220   24.6669 O   0  0  0  0  0  0  0  0  0  0  0  0
   14.9622  -15.7051   21.7994 C   0  0  0  0  0  0  0  0  0  0  0  0
   15.5856  -15.4775   22.8436 O   0  0  0  0  0  0  0  0  0  0  0  0
   11.5698  -15.9279   25.9900 O   0  0  0  0  0  0  0  0  0  0  0  0
   15.6158  -16.4400   20.7882 O   0  0  0  0  0  0  0  0  0  0  0  0
  2  1  1  1
  3  4  1  0
  3  2  1  0
  4  5  2  0
  6  5  1  0
  7  6  1  0
  8  7  2  0
  8  4  1  0
  9  2  1  0
  9 10  2  0
 11  9  1  0
 12 11  1  0
 12 13  1  0
 13 15  1  0
 14 13  2  0
 15 16  1  0
 16 17  1  1
 16 21  1  0
 18 17  1  0
 19 18  1  0
 20 19  2  0
 21 24  1  0
 22 21  2  0
 23 19  1  0
M  END
$$$$
