HGE.pdb
     RDKit          3D

 24 24  0  0  1  0  0  0  0  0999 V2000
    7.9077  -17.4015   19.5319 N   0  0  0  0  0  0  0  0  0  0  0  0
    9.1251  -17.0397   20.2337 C   0  0  1  0  0  0  0  0  0  0  0  0
    8.7995  -15.7840   21.0170 C   0  0  0  0  0  0  0  0  0  0  0  0
    8.2995  -14.7170   20.1031 C   0  0  0  0  0  0  0  0  0  0  0  0
    8.1227  -14.7603   18.7330 C   0  0  0  0  0  0  0  0  0  0  0  0
    7.6476  -13.5840   18.2778 N   0  0  0  0  0  0  0  0  0  0  0  0
    7.5229  -12.7941   19.3574 C   0  0  0  0  0  0  0  0  0  0  0  0
    7.9105  -13.4624   20.4550 N   0  0  0  0  0  0  0  0  0  0  0  0
    9.6083  -18.1262   21.1072 C   0  0  0  0  0  0  0  0  0  0  0  0
    8.8080  -18.9915   21.5697 O   0  0  0  0  0  0  0  0  0  0  0  0
   10.9834  -18.2917   21.4949 N   0  0  0  0  0  0  0  0  0  0  0  0
   11.4400  -19.4062   22.2666 C   0  0  0  0  0  0  0  0  0  0  0  0
   11.2563  -19.3074   23.7107 C   0  0  0  0  0  0  0  0  0  0  0  0
   10.7116  -18.2805   24.1840 O   0  0  0  0  0  0  0  0  0  0  0  0
   11.6654  -20.3242   24.5975 N   0  0  0  0  0  0  0  0  0  0  0  0
   11.4870  -20.2086   26.0626 C   0  0  1  0  0  0  0  0  0  0  0  0
   11.1290  -21.5339   26.6381 C   0  0  0  0  0  0  0  0  0  0  0  0
    9.7455  -21.9582   26.2995 C   0  0  0  0  0  0  0  0  0  0  0  0
    9.3121  -23.2440   26.8796 C   0  0  0  0  0  0  0  0  0  0  0  0
   10.1107  -23.9227   27.5989 O   0  0  0  0  0  0  0  0  0  0  0  0
   12.7239  -19.6901   26.6477 C   0  0  0  0  0  0  0  0  0  0  0  0
   13.7577  -19.5260   25.9881 O   0  0  0  0  0  0  0  0  0  0  0  0
    8.0673  -23.7693   26.6860 O   0  0  0  0  0  0  0  0  0  0  0  0
   12.7567  -19.3585   28.0184 O   0  0  0  0  0  0  0  0  0  0  0  0
  2  1  1  1
  3  4  1  0
  3  2  1  0
  4  5  2  0
  6  5  1  0
  7  6  1  0
  8  7  2  0
  8  4  1  0
  9  2  1  0
  9 10  2  0
 11  9  1  0
 12 11  1  0
 12 13  1  0
 13 15  1  0
 14 13  2  0
 15 16  1  0
 16 17  1  1
 16 21  1  0
 18 17  1  0
 19 18  1  0
 20 19  2  0
 21 24  1  0
 22 21  2  0
 23 19  1  0
M  END
$$$$
