HGE.pdb
     RDKit          3D

 24 24  0  0  1  0  0  0  0  0999 V2000
    9.2123  -15.6642   21.2403 N   0  0  0  0  0  0  0  0  0  0  0  0
    7.9277  -15.5047   21.8959 C   0  0  1  0  0  0  0  0  0  0  0  0
    6.8936  -15.4731   20.7888 C   0  0  0  0  0  0  0  0  0  0  0  0
    7.2158  -14.3972   19.8078 C   0  0  0  0  0  0  0  0  0  0  0  0
    7.6716  -13.1141   20.0453 C   0  0  0  0  0  0  0  0  0  0  0  0
    7.8439  -12.4489   18.8859 N   0  0  0  0  0  0  0  0  0  0  0  0
    7.4977  -13.3081   17.9128 C   0  0  0  0  0  0  0  0  0  0  0  0
    7.1200  -14.4770   18.4537 N   0  0  0  0  0  0  0  0  0  0  0  0
    7.6621  -16.5807   22.8699 C   0  0  0  0  0  0  0  0  0  0  0  0
    8.0450  -17.7668   22.6469 O   0  0  0  0  0  0  0  0  0  0  0  0
    6.9699  -16.3823   24.1148 N   0  0  0  0  0  0  0  0  0  0  0  0
    6.7529  -17.4381   25.0553 C   0  0  0  0  0  0  0  0  0  0  0  0
    7.9236  -17.8844   25.8031 C   0  0  0  0  0  0  0  0  0  0  0  0
    8.9172  -18.3193   25.1717 O   0  0  0  0  0  0  0  0  0  0  0  0
    7.9834  -17.8438   27.2111 N   0  0  0  0  0  0  0  0  0  0  0  0
    9.2546  -18.0188   27.9495 C   0  0  1  0  0  0  0  0  0  0  0  0
    9.4815  -16.8591   28.8547 C   0  0  0  0  0  0  0  0  0  0  0  0
    9.3861  -15.5510   28.1560 C   0  0  0  0  0  0  0  0  0  0  0  0
   10.2185  -14.4673   28.7131 C   0  0  0  0  0  0  0  0  0  0  0  0
   10.6166  -14.5222   29.9190 O   0  0  0  0  0  0  0  0  0  0  0  0
    9.1952  -19.2750   28.6975 C   0  0  0  0  0  0  0  0  0  0  0  0
    8.1501  -19.9233   28.8329 O   0  0  0  0  0  0  0  0  0  0  0  0
   10.6003  -13.3727   27.9926 O   0  0  0  0  0  0  0  0  0  0  0  0
   10.3680  -19.7824   29.2949 O   0  0  0  0  0  0  0  0  0  0  0  0
  2  1  1  6
  3  4  1  0
  3  2  1  0
  4  5  2  0
  6  5  1  0
  7  6  1  0
  8  7  2  0
  8  4  1  0
  9  2  1  0
  9 10  2  0
 11  9  1  0
 12 11  1  0
 12 13  1  0
 13 15  1  0
 14 13  2  0
 15 16  1  0
 16 17  1  1
 16 21  1  0
 18 17  1  0
 19 18  1  0
 20 19  2  0
 21 24  1  0
 22 21  2  0
 23 19  1  0
M  END
$$$$
