HGE.pdb
     RDKit          3D

 24 24  0  0  1  0  0  0  0  0999 V2000
   11.7116  -19.2581   18.6545 N   0  0  0  0  0  0  0  0  0  0  0  0
   10.9998  -18.0364   18.9807 C   0  0  1  0  0  0  0  0  0  0  0  0
    9.6976  -18.0913   18.2076 C   0  0  0  0  0  0  0  0  0  0  0  0
    9.9665  -18.1931   16.7443 C   0  0  0  0  0  0  0  0  0  0  0  0
    9.4437  -19.0835   15.8255 C   0  0  0  0  0  0  0  0  0  0  0  0
    9.9404  -18.8437   14.5957 N   0  0  0  0  0  0  0  0  0  0  0  0
   10.7781  -17.8024   14.7329 C   0  0  0  0  0  0  0  0  0  0  0  0
   10.8013  -17.4054   16.0149 N   0  0  0  0  0  0  0  0  0  0  0  0
   10.7753  -17.8932   20.4319 C   0  0  0  0  0  0  0  0  0  0  0  0
   10.5857  -18.9097   21.1626 O   0  0  0  0  0  0  0  0  0  0  0  0
   10.7540  -16.6299   21.1190 N   0  0  0  0  0  0  0  0  0  0  0  0
   10.4375  -16.5114   22.5090 C   0  0  0  0  0  0  0  0  0  0  0  0
   11.5517  -16.2010   23.3985 C   0  0  0  0  0  0  0  0  0  0  0  0
   12.6718  -15.9364   22.8981 O   0  0  0  0  0  0  0  0  0  0  0  0
   11.4182  -16.1843   24.8019 N   0  0  0  0  0  0  0  0  0  0  0  0
   12.5417  -15.8193   25.6943 C   0  0  1  0  0  0  0  0  0  0  0  0
   12.0654  -15.7290   27.1018 C   0  0  0  0  0  0  0  0  0  0  0  0
   10.9471  -14.7656   27.2746 C   0  0  0  0  0  0  0  0  0  0  0  0
   10.4402  -14.6162   28.6524 C   0  0  0  0  0  0  0  0  0  0  0  0
   11.2493  -14.5942   29.6326 O   0  0  0  0  0  0  0  0  0  0  0  0
   13.5993  -16.8205   25.5529 C   0  0  0  0  0  0  0  0  0  0  0  0
   14.7878  -16.5757   25.7944 O   0  0  0  0  0  0  0  0  0  0  0  0
    9.1140  -14.4972   28.9519 O   0  0  0  0  0  0  0  0  0  0  0  0
   13.2683  -18.1232   25.1249 O   0  0  0  0  0  0  0  0  0  0  0  0
  2  1  1  1
  3  4  1  0
  3  2  1  0
  4  5  2  0
  6  5  1  0
  7  6  1  0
  8  7  2  0
  8  4  1  0
  9  2  1  0
  9 10  2  0
 11  9  1  0
 12 11  1  0
 12 13  1  0
 13 15  1  0
 14 13  2  0
 15 16  1  0
 16 17  1  1
 16 21  1  0
 18 17  1  0
 19 18  1  0
 20 19  2  0
 21 24  1  0
 22 21  2  0
 23 19  1  0
M  END
$$$$
