HGE.pdb
     RDKit          3D

 24 24  0  0  1  0  0  0  0  0999 V2000
   13.4268  -13.7849   17.9126 N   0  0  0  0  0  0  0  0  0  0  0  0
   14.3271  -14.7624   18.4951 C   0  0  1  0  0  0  0  0  0  0  0  0
   15.5259  -13.9819   18.9951 C   0  0  0  0  0  0  0  0  0  0  0  0
   16.4405  -13.6540   17.8638 C   0  0  0  0  0  0  0  0  0  0  0  0
   16.8447  -12.4142   17.4057 C   0  0  0  0  0  0  0  0  0  0  0  0
   17.6809  -12.5446   16.3568 N   0  0  0  0  0  0  0  0  0  0  0  0
   17.8076  -13.8658   16.1483 C   0  0  0  0  0  0  0  0  0  0  0  0
   17.0692  -14.5388   17.0446 N   0  0  0  0  0  0  0  0  0  0  0  0
   13.6845  -15.5387   19.5728 C   0  0  0  0  0  0  0  0  0  0  0  0
   13.1126  -14.9556   20.5403 O   0  0  0  0  0  0  0  0  0  0  0  0
   13.6523  -16.9760   19.6158 N   0  0  0  0  0  0  0  0  0  0  0  0
   13.0483  -17.7037   20.6891 C   0  0  0  0  0  0  0  0  0  0  0  0
   13.8765  -17.9107   21.8723 C   0  0  0  0  0  0  0  0  0  0  0  0
   15.0291  -17.4150   21.9004 O   0  0  0  0  0  0  0  0  0  0  0  0
   13.4304  -18.6459   22.9896 N   0  0  0  0  0  0  0  0  0  0  0  0
   14.2794  -18.8529   24.1847 C   0  0  1  0  0  0  0  0  0  0  0  0
   13.5069  -19.5614   25.2416 C   0  0  0  0  0  0  0  0  0  0  0  0
   12.2798  -18.8300   25.6513 C   0  0  0  0  0  0  0  0  0  0  0  0
   11.3963  -19.5431   26.5939 C   0  0  0  0  0  0  0  0  0  0  0  0
   11.8567  -19.9824   27.6944 O   0  0  0  0  0  0  0  0  0  0  0  0
   15.4667  -19.6128   23.7925 C   0  0  0  0  0  0  0  0  0  0  0  0
   15.4144  -20.5916   23.0375 O   0  0  0  0  0  0  0  0  0  0  0  0
   10.0724  -19.7698   26.3514 O   0  0  0  0  0  0  0  0  0  0  0  0
   16.7308  -19.2276   24.2860 O   0  0  0  0  0  0  0  0  0  0  0  0
  2  1  1  1
  3  4  1  0
  3  2  1  0
  4  5  2  0
  6  5  1  0
  7  6  1  0
  8  7  2  0
  8  4  1  0
  9  2  1  0
  9 10  2  0
 11  9  1  0
 12 11  1  0
 12 13  1  0
 13 15  1  0
 14 13  2  0
 15 16  1  0
 16 17  1  1
 16 21  1  0
 18 17  1  0
 19 18  1  0
 20 19  2  0
 21 24  1  0
 22 21  2  0
 23 19  1  0
M  END
$$$$
