HGE.pdb
     RDKit          3D

 24 24  0  0  1  0  0  0  0  0999 V2000
    8.1243  -16.2832   20.1151 N   0  0  0  0  0  0  0  0  0  0  0  0
    8.1977  -14.9978   20.7842 C   0  0  1  0  0  0  0  0  0  0  0  0
    7.0986  -14.1476   20.1798 C   0  0  0  0  0  0  0  0  0  0  0  0
    7.3258  -13.9686   18.7168 C   0  0  0  0  0  0  0  0  0  0  0  0
    8.0093  -12.9618   18.0614 C   0  0  0  0  0  0  0  0  0  0  0  0
    7.9889  -13.1631   16.7289 N   0  0  0  0  0  0  0  0  0  0  0  0
    7.2929  -14.2963   16.5378 C   0  0  0  0  0  0  0  0  0  0  0  0
    6.8913  -14.7864   17.7210 N   0  0  0  0  0  0  0  0  0  0  0  0
    8.0581  -15.1229   22.2477 C   0  0  0  0  0  0  0  0  0  0  0  0
    8.1896  -14.1135   23.0008 O   0  0  0  0  0  0  0  0  0  0  0  0
    7.7694  -16.3597   22.9227 N   0  0  0  0  0  0  0  0  0  0  0  0
    7.9718  -16.5391   24.3274 C   0  0  0  0  0  0  0  0  0  0  0  0
    9.0833  -17.4024   24.7122 C   0  0  0  0  0  0  0  0  0  0  0  0
    8.9252  -18.6469   24.6770 O   0  0  0  0  0  0  0  0  0  0  0  0
   10.3324  -16.8918   25.1206 N   0  0  0  0  0  0  0  0  0  0  0  0
   11.4784  -17.7750   25.4342 C   0  0  1  0  0  0  0  0  0  0  0  0
   12.7576  -17.0762   25.1320 C   0  0  0  0  0  0  0  0  0  0  0  0
   12.8855  -16.6943   23.7014 C   0  0  0  0  0  0  0  0  0  0  0  0
   14.1526  -16.0374   23.3268 C   0  0  0  0  0  0  0  0  0  0  0  0
   14.3604  -15.6886   22.1222 O   0  0  0  0  0  0  0  0  0  0  0  0
   11.4026  -18.1619   26.8433 C   0  0  0  0  0  0  0  0  0  0  0  0
   11.8870  -19.2158   27.2739 O   0  0  0  0  0  0  0  0  0  0  0  0
   15.1497  -15.7726   24.2205 O   0  0  0  0  0  0  0  0  0  0  0  0
   10.7546  -17.3102   27.7623 O   0  0  0  0  0  0  0  0  0  0  0  0
  2  1  1  6
  3  4  1  0
  3  2  1  0
  4  5  2  0
  6  5  1  0
  7  6  1  0
  8  7  2  0
  8  4  1  0
  9  2  1  0
  9 10  2  0
 11  9  1  0
 12 11  1  0
 12 13  1  0
 13 15  1  0
 14 13  2  0
 15 16  1  0
 16 17  1  1
 16 21  1  0
 18 17  1  0
 19 18  1  0
 20 19  2  0
 21 24  1  0
 22 21  2  0
 23 19  1  0
M  END
$$$$
