HGE.pdb
     RDKit          3D

 24 24  0  0  1  0  0  0  0  0999 V2000
    8.7348  -16.6908   19.2297 N   0  0  0  0  0  0  0  0  0  0  0  0
    9.8915  -15.9659   18.7376 C   0  0  1  0  0  0  0  0  0  0  0  0
    9.7594  -14.5541   19.2720 C   0  0  0  0  0  0  0  0  0  0  0  0
    8.4658  -13.9532   18.8368 C   0  0  0  0  0  0  0  0  0  0  0  0
    8.2442  -12.9292   17.9352 C   0  0  0  0  0  0  0  0  0  0  0  0
    6.9253  -12.6789   17.8153 N   0  0  0  0  0  0  0  0  0  0  0  0
    6.3096  -13.5425   18.6400 C   0  0  0  0  0  0  0  0  0  0  0  0
    7.2224  -14.3096   19.2563 N   0  0  0  0  0  0  0  0  0  0  0  0
   11.1604  -16.5962   19.1493 C   0  0  0  0  0  0  0  0  0  0  0  0
   12.2728  -16.1158   18.7819 O   0  0  0  0  0  0  0  0  0  0  0  0
   11.2411  -17.7702   19.9762 N   0  0  0  0  0  0  0  0  0  0  0  0
   12.4862  -18.3363   20.3952 C   0  0  0  0  0  0  0  0  0  0  0  0
   13.2736  -17.5389   21.3296 C   0  0  0  0  0  0  0  0  0  0  0  0
   13.9628  -16.5889   20.8852 O   0  0  0  0  0  0  0  0  0  0  0  0
   13.2884  -17.7929   22.7163 N   0  0  0  0  0  0  0  0  0  0  0  0
   14.0382  -16.9381   23.6644 C   0  0  1  0  0  0  0  0  0  0  0  0
   13.4758  -17.0829   25.0350 C   0  0  0  0  0  0  0  0  0  0  0  0
   13.2734  -18.5007   25.4316 C   0  0  0  0  0  0  0  0  0  0  0  0
   12.7838  -18.7152   26.8071 C   0  0  0  0  0  0  0  0  0  0  0  0
   11.6615  -18.2397   27.1679 O   0  0  0  0  0  0  0  0  0  0  0  0
   15.4506  -17.3183   23.6249 C   0  0  0  0  0  0  0  0  0  0  0  0
   15.8587  -18.3101   23.0080 O   0  0  0  0  0  0  0  0  0  0  0  0
   13.4827  -19.4139   27.7485 O   0  0  0  0  0  0  0  0  0  0  0  0
   16.3995  -16.5332   24.3127 O   0  0  0  0  0  0  0  0  0  0  0  0
  2  1  1  1
  3  4  1  0
  3  2  1  0
  4  5  2  0
  6  5  1  0
  7  6  1  0
  8  7  2  0
  8  4  1  0
  9  2  1  0
  9 10  2  0
 11  9  1  0
 12 11  1  0
 12 13  1  0
 13 15  1  0
 14 13  2  0
 15 16  1  0
 16 17  1  1
 16 21  1  0
 18 17  1  0
 19 18  1  0
 20 19  2  0
 21 24  1  0
 22 21  2  0
 23 19  1  0
M  END
$$$$
