HGE.pdb
     RDKit          3D

 24 24  0  0  1  0  0  0  0  0999 V2000
    9.4167  -16.0728   18.5373 N   0  0  0  0  0  0  0  0  0  0  0  0
    9.0335  -15.2544   19.6726 C   0  0  1  0  0  0  0  0  0  0  0  0
    7.5822  -14.8807   19.4485 C   0  0  0  0  0  0  0  0  0  0  0  0
    7.4136  -14.2279   18.1183 C   0  0  0  0  0  0  0  0  0  0  0  0
    7.4938  -12.8869   17.7932 C   0  0  0  0  0  0  0  0  0  0  0  0
    7.2803  -12.7041   16.4750 N   0  0  0  0  0  0  0  0  0  0  0  0
    7.0643  -13.9274   15.9632 C   0  0  0  0  0  0  0  0  0  0  0  0
    7.1418  -14.8466   16.9383 N   0  0  0  0  0  0  0  0  0  0  0  0
    9.2320  -15.9545   20.9561 C   0  0  0  0  0  0  0  0  0  0  0  0
    8.9317  -15.3971   22.0526 O   0  0  0  0  0  0  0  0  0  0  0  0
    9.7647  -17.2857   21.0693 N   0  0  0  0  0  0  0  0  0  0  0  0
    9.8866  -17.9655   22.3219 C   0  0  0  0  0  0  0  0  0  0  0  0
   11.1176  -17.7250   23.0675 C   0  0  0  0  0  0  0  0  0  0  0  0
   12.0276  -17.0459   22.5330 O   0  0  0  0  0  0  0  0  0  0  0  0
   11.3242  -18.2250   24.3694 N   0  0  0  0  0  0  0  0  0  0  0  0
   12.5598  -17.9409   25.1339 C   0  0  1  0  0  0  0  0  0  0  0  0
   12.3679  -18.3034   26.5649 C   0  0  0  0  0  0  0  0  0  0  0  0
   11.7723  -19.6528   26.7462 C   0  0  0  0  0  0  0  0  0  0  0  0
   11.6152  -20.0987   28.1440 C   0  0  0  0  0  0  0  0  0  0  0  0
   12.0905  -19.4017   29.0949 O   0  0  0  0  0  0  0  0  0  0  0  0
   13.6652  -18.6916   24.5376 C   0  0  0  0  0  0  0  0  0  0  0  0
   13.4954  -19.5468   23.6598 O   0  0  0  0  0  0  0  0  0  0  0  0
   10.9718  -21.2507   28.4930 O   0  0  0  0  0  0  0  0  0  0  0  0
   14.9849  -18.4428   24.9693 O   0  0  0  0  0  0  0  0  0  0  0  0
  2  1  1  6
  3  4  1  0
  3  2  1  0
  4  5  2  0
  6  5  1  0
  7  6  1  0
  8  7  2  0
  8  4  1  0
  9  2  1  0
  9 10  2  0
 11  9  1  0
 12 11  1  0
 12 13  1  0
 13 15  1  0
 14 13  2  0
 15 16  1  0
 16 17  1  1
 16 21  1  0
 18 17  1  0
 19 18  1  0
 20 19  2  0
 21 24  1  0
 22 21  2  0
 23 19  1  0
M  END
$$$$
