HGE.pdb
     RDKit          3D

 24 24  0  0  1  0  0  0  0  0999 V2000
    7.8370  -15.7864   17.3398 N   0  0  0  0  0  0  0  0  0  0  0  0
    9.0046  -15.0748   16.8540 C   0  0  1  0  0  0  0  0  0  0  0  0
    8.6913  -13.6005   17.0096 C   0  0  0  0  0  0  0  0  0  0  0  0
    8.5775  -13.2434   18.4530 C   0  0  0  0  0  0  0  0  0  0  0  0
    9.3704  -12.3947   19.2023 C   0  0  0  0  0  0  0  0  0  0  0  0
    8.9348  -12.3390   20.4766 N   0  0  0  0  0  0  0  0  0  0  0  0
    7.8665  -13.1516   20.5370 C   0  0  0  0  0  0  0  0  0  0  0  0
    7.6442  -13.6980   19.3313 N   0  0  0  0  0  0  0  0  0  0  0  0
   10.2317  -15.4585   17.5779 C   0  0  0  0  0  0  0  0  0  0  0  0
   10.1676  -16.0565   18.6922 O   0  0  0  0  0  0  0  0  0  0  0  0
   11.5615  -15.1965   17.0968 N   0  0  0  0  0  0  0  0  0  0  0  0
   12.7321  -15.6947   17.7506 C   0  0  0  0  0  0  0  0  0  0  0  0
   13.1307  -15.0028   18.9718 C   0  0  0  0  0  0  0  0  0  0  0  0
   13.4103  -13.7807   18.9130 O   0  0  0  0  0  0  0  0  0  0  0  0
   13.2119  -15.6546   20.2194 N   0  0  0  0  0  0  0  0  0  0  0  0
   13.6559  -14.9536   21.4454 C   0  0  1  0  0  0  0  0  0  0  0  0
   12.9581  -15.5155   22.6342 C   0  0  0  0  0  0  0  0  0  0  0  0
   13.4091  -16.8898   22.9752 C   0  0  0  0  0  0  0  0  0  0  0  0
   12.8179  -17.4714   24.1958 C   0  0  0  0  0  0  0  0  0  0  0  0
   12.0825  -16.7611   24.9512 O   0  0  0  0  0  0  0  0  0  0  0  0
   15.1077  -15.0900   21.5658 C   0  0  0  0  0  0  0  0  0  0  0  0
   15.7587  -15.9108   20.9076 O   0  0  0  0  0  0  0  0  0  0  0  0
   13.0178  -18.7660   24.5792 O   0  0  0  0  0  0  0  0  0  0  0  0
   15.8101  -14.2597   22.4641 O   0  0  0  0  0  0  0  0  0  0  0  0
  2  1  1  1
  3  4  1  0
  3  2  1  0
  4  5  2  0
  6  5  1  0
  7  6  1  0
  8  7  2  0
  8  4  1  0
  9  2  1  0
  9 10  2  0
 11  9  1  0
 12 11  1  0
 12 13  1  0
 13 15  1  0
 14 13  2  0
 15 16  1  0
 16 17  1  1
 16 21  1  0
 18 17  1  0
 19 18  1  0
 20 19  2  0
 21 24  1  0
 22 21  2  0
 23 19  1  0
M  END
$$$$
