WAF.pdb
     RDKit          3D

 31 33  0  0  1  0  0  0  0  0999 V2000
    6.4728  -18.5775   25.1272 N   0  0  0  0  0  0  0  0  0  0  0  0
    6.7613  -17.2126   24.8719 C   0  0  1  0  0  0  0  0  0  0  0  0
    7.2746  -16.4716   26.0672 C   0  0  0  0  0  0  0  0  0  0  0  0
    6.5104  -15.2132   26.2239 C   0  0  0  0  0  0  0  0  0  0  0  0
    5.2670  -15.0823   26.8548 C   0  0  0  0  0  0  0  0  0  0  0  0
    4.8860  -13.8001   26.8440 N   0  0  0  0  0  0  0  0  0  0  0  0
    5.8356  -13.0623   26.2238 C   0  0  0  0  0  0  0  0  0  0  0  0
    5.9258  -11.7144   25.9470 C   0  0  0  0  0  0  0  0  0  0  0  0
    7.0372  -11.2422   25.2766 C   0  0  0  0  0  0  0  0  0  0  0  0
    8.0468  -12.0870   24.8835 C   0  0  0  0  0  0  0  0  0  0  0  0
    7.9403  -13.4337   25.1690 C   0  0  0  0  0  0  0  0  0  0  0  0
    6.8466  -13.9324   25.8358 C   0  0  0  0  0  0  0  0  0  0  0  0
    7.7937  -17.1498   23.7807 C   0  0  0  0  0  0  0  0  0  0  0  0
    8.7027  -17.9924   23.7007 O   0  0  0  0  0  0  0  0  0  0  0  0
    8.2136  -14.9106   20.7145 C   0  0  0  0  0  0  0  0  0  0  0  0
    8.5551  -16.0030   21.6720 C   0  0  2  0  0  0  0  0  0  0  0  0
    7.7199  -16.1001   22.8248 N   0  0  0  0  0  0  0  0  0  0  0  0
   10.0139  -16.0184   22.0312 C   0  0  0  0  0  0  0  0  0  0  0  0
   10.9200  -15.9685   21.1365 O   0  0  0  0  0  0  0  0  0  0  0  0
   10.4009  -16.0899   23.3955 N   0  0  0  0  0  0  0  0  0  0  0  0
   11.7873  -16.1345   23.7775 C   0  0  1  0  0  0  0  0  0  0  0  0
   12.1204  -15.1615   24.8742 C   0  0  0  0  0  0  0  0  0  0  0  0
   11.3818  -15.3004   26.1126 C   0  0  0  0  0  0  0  0  0  0  0  0
   11.1793  -16.5151   26.7029 C   0  0  0  0  0  0  0  0  0  0  0  0
   10.4641  -16.6463   27.8968 C   0  0  0  0  0  0  0  0  0  0  0  0
    9.9423  -15.5421   28.5111 C   0  0  0  0  0  0  0  0  0  0  0  0
   10.1374  -14.2931   27.9255 C   0  0  0  0  0  0  0  0  0  0  0  0
   10.8557  -14.1883   26.7325 C   0  0  0  0  0  0  0  0  0  0  0  0
   12.1728  -17.4787   24.2957 C   0  0  0  0  0  0  0  0  0  0  0  0
   13.3736  -17.6412   24.6208 O   0  0  0  0  0  0  0  0  0  0  0  0
   11.3009  -18.5415   24.4379 O   0  0  0  0  0  0  0  0  0  0  0  0
  2  1  1  1
  2 13  1  0
  2  3  1  0
  3  4  1  0
  4 12  1  0
  4  5  2  0
  5  6  1  0
  7  6  1  0
  7  8  2  0
  9  8  1  0
 10  9  2  0
 11 12  2  0
 11 10  1  0
 12  7  1  0
 13 14  2  0
 16 15  1  1
 16 18  1  0
 17 13  1  0
 17 16  1  0
 18 20  1  0
 18 19  2  0
 20 21  1  0
 21 29  1  0
 21 22  1  1
 23 24  2  0
 23 22  1  0
 25 24  1  0
 26 25  2  0
 27 28  2  0
 27 26  1  0
 28 23  1  0
 29 30  2  0
 29 31  1  0
M  END
$$$$
