WAF.pdb
     RDKit          3D

 31 33  0  0  1  0  0  0  0  0999 V2000
    9.4059  -16.2616   21.0452 N   0  0  0  0  0  0  0  0  0  0  0  0
    9.3868  -16.1053   22.4547 C   0  0  1  0  0  0  0  0  0  0  0  0
    8.0093  -16.0945   23.0409 C   0  0  0  0  0  0  0  0  0  0  0  0
    7.3837  -14.7768   22.7877 C   0  0  0  0  0  0  0  0  0  0  0  0
    6.7709  -14.3759   21.5939 C   0  0  0  0  0  0  0  0  0  0  0  0
    6.2843  -13.1371   21.7280 N   0  0  0  0  0  0  0  0  0  0  0  0
    6.5513  -12.6903   22.9768 C   0  0  0  0  0  0  0  0  0  0  0  0
    6.2764  -11.4970   23.6110 C   0  0  0  0  0  0  0  0  0  0  0  0
    6.6912  -11.3226   24.9168 C   0  0  0  0  0  0  0  0  0  0  0  0
    7.3684  -12.3108   25.5893 C   0  0  0  0  0  0  0  0  0  0  0  0
    7.6351  -13.4993   24.9392 C   0  0  0  0  0  0  0  0  0  0  0  0
    7.2338  -13.7022   23.6403 C   0  0  0  0  0  0  0  0  0  0  0  0
   10.1642  -17.2405   23.0609 C   0  0  0  0  0  0  0  0  0  0  0  0
    9.5967  -18.2634   23.4782 O   0  0  0  0  0  0  0  0  0  0  0  0
   13.8234  -18.1056   23.5073 C   0  0  0  0  0  0  0  0  0  0  0  0
   12.4004  -17.9919   23.9420 C   0  0  2  0  0  0  0  0  0  0  0  0
   11.5787  -17.1317   23.1541 N   0  0  0  0  0  0  0  0  0  0  0  0
   12.2684  -17.7057   25.4111 C   0  0  0  0  0  0  0  0  0  0  0  0
   12.4849  -16.5424   25.8844 O   0  0  0  0  0  0  0  0  0  0  0  0
   11.8945  -18.7485   26.2993 N   0  0  0  0  0  0  0  0  0  0  0  0
   11.4466  -18.4657   27.6369 C   0  0  1  0  0  0  0  0  0  0  0  0
   10.1112  -17.7757   27.6700 C   0  0  0  0  0  0  0  0  0  0  0  0
   10.1259  -16.3412   27.8717 C   0  0  0  0  0  0  0  0  0  0  0  0
    9.4930  -15.4834   27.0182 C   0  0  0  0  0  0  0  0  0  0  0  0
    9.5107  -14.0994   27.2141 C   0  0  0  0  0  0  0  0  0  0  0  0
   10.1737  -13.5642   28.2832 C   0  0  0  0  0  0  0  0  0  0  0  0
   10.8261  -14.4219   29.1662 C   0  0  0  0  0  0  0  0  0  0  0  0
   10.7936  -15.8010   28.9488 C   0  0  0  0  0  0  0  0  0  0  0  0
   11.2794  -19.7132   28.4369 C   0  0  0  0  0  0  0  0  0  0  0  0
   11.0718  -19.5780   29.6668 O   0  0  0  0  0  0  0  0  0  0  0  0
   11.3382  -20.9911   27.9141 O   0  0  0  0  0  0  0  0  0  0  0  0
  2  1  1  6
  2 13  1  0
  2  3  1  0
  3  4  1  0
  4 12  1  0
  4  5  2  0
  5  6  1  0
  7  6  1  0
  7  8  2  0
  9  8  1  0
 10  9  2  0
 11 12  2  0
 11 10  1  0
 12  7  1  0
 13 14  2  0
 16 15  1  6
 16 18  1  0
 17 13  1  0
 17 16  1  0
 18 20  1  0
 18 19  2  0
 20 21  1  0
 21 29  1  0
 21 22  1  6
 23 24  2  0
 23 22  1  0
 25 24  1  0
 26 25  2  0
 27 28  2  0
 27 26  1  0
 28 23  1  0
 29 30  2  0
 29 31  1  0
M  END
$$$$
