WAF.pdb
     RDKit          3D

 31 33  0  0  1  0  0  0  0  0999 V2000
    6.1242  -18.1247   21.1302 N   0  0  0  0  0  0  0  0  0  0  0  0
    6.8586  -17.1731   21.8829 C   0  0  1  0  0  0  0  0  0  0  0  0
    6.2243  -15.8176   21.9232 C   0  0  0  0  0  0  0  0  0  0  0  0
    6.5932  -15.0719   20.6985 C   0  0  0  0  0  0  0  0  0  0  0  0
    6.0470  -15.2673   19.4238 C   0  0  0  0  0  0  0  0  0  0  0  0
    6.5869  -14.3989   18.5614 N   0  0  0  0  0  0  0  0  0  0  0  0
    7.4815  -13.6239   19.2167 C   0  0  0  0  0  0  0  0  0  0  0  0
    8.3012  -12.5983   18.7947 C   0  0  0  0  0  0  0  0  0  0  0  0
    9.1336  -11.9871   19.7118 C   0  0  0  0  0  0  0  0  0  0  0  0
    9.1586  -12.3811   21.0277 C   0  0  0  0  0  0  0  0  0  0  0  0
    8.3312  -13.4095   21.4330 C   0  0  0  0  0  0  0  0  0  0  0  0
    7.4914  -14.0359   20.5433 C   0  0  0  0  0  0  0  0  0  0  0  0
    6.9898  -17.6903   23.2886 C   0  0  0  0  0  0  0  0  0  0  0  0
    6.0081  -17.7619   24.0460 O   0  0  0  0  0  0  0  0  0  0  0  0
    8.8209  -19.8242   25.4393 C   0  0  0  0  0  0  0  0  0  0  0  0
    8.5759  -18.3882   25.1158 C   0  0  2  0  0  0  0  0  0  0  0  0
    8.2687  -18.1041   23.7517 N   0  0  0  0  0  0  0  0  0  0  0  0
    9.6522  -17.4860   25.6499 C   0  0  0  0  0  0  0  0  0  0  0  0
   10.7848  -17.3882   25.0740 O   0  0  0  0  0  0  0  0  0  0  0  0
    9.4108  -16.7216   26.8218 N   0  0  0  0  0  0  0  0  0  0  0  0
   10.4783  -16.0343   27.4986 C   0  0  1  0  0  0  0  0  0  0  0  0
   10.5349  -14.5705   27.1602 C   0  0  0  0  0  0  0  0  0  0  0  0
    9.3359  -13.9878   26.5933 C   0  0  0  0  0  0  0  0  0  0  0  0
    8.8325  -12.7965   27.0318 C   0  0  0  0  0  0  0  0  0  0  0  0
    7.6740  -12.2376   26.4843 C   0  0  0  0  0  0  0  0  0  0  0  0
    7.0073  -12.8825   25.4800 C   0  0  0  0  0  0  0  0  0  0  0  0
    7.5041  -14.0993   25.0179 C   0  0  0  0  0  0  0  0  0  0  0  0
    8.6635  -14.6367   25.5811 C   0  0  0  0  0  0  0  0  0  0  0  0
   10.3255  -16.1034   28.9804 C   0  0  0  0  0  0  0  0  0  0  0  0
   11.2250  -15.5677   29.6717 O   0  0  0  0  0  0  0  0  0  0  0  0
    9.2686  -16.7125   29.6300 O   0  0  0  0  0  0  0  0  0  0  0  0
  2  1  1  6
  2 13  1  0
  2  3  1  0
  3  4  1  0
  4 12  1  0
  4  5  2  0
  5  6  1  0
  7  6  1  0
  7  8  2  0
  9  8  1  0
 10  9  2  0
 11 12  2  0
 11 10  1  0
 12  7  1  0
 13 14  2  0
 16 15  1  6
 16 18  1  0
 17 13  1  0
 17 16  1  0
 18 20  1  0
 18 19  2  0
 20 21  1  0
 21 29  1  0
 21 22  1  6
 23 24  2  0
 23 22  1  0
 25 24  1  0
 26 25  2  0
 27 28  2  0
 27 26  1  0
 28 23  1  0
 29 30  2  0
 29 31  1  0
M  END
$$$$
