WAF.pdb
     RDKit          3D

 31 33  0  0  1  0  0  0  0  0999 V2000
    6.5914  -17.6576   24.2113 N   0  0  0  0  0  0  0  0  0  0  0  0
    7.6396  -16.7412   23.9406 C   0  0  1  0  0  0  0  0  0  0  0  0
    8.1522  -16.0359   25.1576 C   0  0  0  0  0  0  0  0  0  0  0  0
    7.1539  -15.0338   25.5950 C   0  0  0  0  0  0  0  0  0  0  0  0
    6.0534  -15.2813   26.4252 C   0  0  0  0  0  0  0  0  0  0  0  0
    5.3840  -14.1435   26.6415 N   0  0  0  0  0  0  0  0  0  0  0  0
    6.0002  -13.1361   25.9813 C   0  0  0  0  0  0  0  0  0  0  0  0
    5.7154  -11.7912   25.8718 C   0  0  0  0  0  0  0  0  0  0  0  0
    6.5396  -10.9936   25.1023 C   0  0  0  0  0  0  0  0  0  0  0  0
    7.6302  -11.5140   24.4487 C   0  0  0  0  0  0  0  0  0  0  0  0
    7.9007  -12.8626   24.5695 C   0  0  0  0  0  0  0  0  0  0  0  0
    7.0991  -13.6809   25.3291 C   0  0  0  0  0  0  0  0  0  0  0  0
    8.7714  -17.5007   23.3061 C   0  0  0  0  0  0  0  0  0  0  0  0
    9.0480  -18.6604   23.6542 O   0  0  0  0  0  0  0  0  0  0  0  0
   11.5366  -16.3610   20.9268 C   0  0  0  0  0  0  0  0  0  0  0  0
   10.9421  -17.0389   22.1159 C   0  0  2  0  0  0  0  0  0  0  0  0
    9.5356  -16.8699   22.2866 N   0  0  0  0  0  0  0  0  0  0  0  0
   11.7008  -16.7528   23.3808 C   0  0  0  0  0  0  0  0  0  0  0  0
   11.8563  -15.5625   23.8087 O   0  0  0  0  0  0  0  0  0  0  0  0
   12.2605  -17.8265   24.1225 N   0  0  0  0  0  0  0  0  0  0  0  0
   12.3245  -17.7885   25.5593 C   0  0  1  0  0  0  0  0  0  0  0  0
   10.9759  -17.6024   26.1974 C   0  0  0  0  0  0  0  0  0  0  0  0
   10.7550  -16.3534   26.8973 C   0  0  0  0  0  0  0  0  0  0  0  0
   10.3133  -15.2318   26.2555 C   0  0  0  0  0  0  0  0  0  0  0  0
   10.1031  -14.0273   26.9331 C   0  0  0  0  0  0  0  0  0  0  0  0
   10.3393  -13.9437   28.2771 C   0  0  0  0  0  0  0  0  0  0  0  0
   10.7905  -15.0765   28.9511 C   0  0  0  0  0  0  0  0  0  0  0  0
   10.9926  -16.2681   28.2515 C   0  0  0  0  0  0  0  0  0  0  0  0
   12.8676  -19.0592   26.1201 C   0  0  0  0  0  0  0  0  0  0  0  0
   13.7412  -18.9597   27.0150 O   0  0  0  0  0  0  0  0  0  0  0  0
   12.4730  -20.3219   25.7204 O   0  0  0  0  0  0  0  0  0  0  0  0
  2  1  1  1
  2 13  1  0
  2  3  1  0
  3  4  1  0
  4 12  1  0
  4  5  2  0
  5  6  1  0
  7  6  1  0
  7  8  2  0
  9  8  1  0
 10  9  2  0
 11 12  2  0
 11 10  1  0
 12  7  1  0
 13 14  2  0
 16 15  1  6
 16 18  1  0
 17 13  1  0
 17 16  1  0
 18 20  1  0
 18 19  2  0
 20 21  1  0
 21 29  1  0
 21 22  1  1
 23 24  2  0
 23 22  1  0
 25 24  1  0
 26 25  2  0
 27 28  2  0
 27 26  1  0
 28 23  1  0
 29 30  2  0
 29 31  1  0
M  END
$$$$
