WAF.pdb
     RDKit          3D

 31 33  0  0  1  0  0  0  0  0999 V2000
    6.2358  -17.1215   21.2839 N   0  0  0  0  0  0  0  0  0  0  0  0
    7.3588  -16.4650   21.8490 C   0  0  1  0  0  0  0  0  0  0  0  0
    7.1636  -14.9928   22.0382 C   0  0  0  0  0  0  0  0  0  0  0  0
    7.5397  -14.2886   20.7913 C   0  0  0  0  0  0  0  0  0  0  0  0
    6.6521  -13.8219   19.8137 C   0  0  0  0  0  0  0  0  0  0  0  0
    7.3325  -13.2053   18.8410 N   0  0  0  0  0  0  0  0  0  0  0  0
    8.6530  -13.2429   19.1334 C   0  0  0  0  0  0  0  0  0  0  0  0
    9.7621  -12.7659   18.4669 C   0  0  0  0  0  0  0  0  0  0  0  0
   11.0119  -12.9666   19.0195 C   0  0  0  0  0  0  0  0  0  0  0  0
   11.1674  -13.6289   20.2130 C   0  0  0  0  0  0  0  0  0  0  0  0
   10.0462  -14.0997   20.8669 C   0  0  0  0  0  0  0  0  0  0  0  0
    8.7894  -13.9140   20.3420 C   0  0  0  0  0  0  0  0  0  0  0  0
    7.6435  -17.0932   23.1850 C   0  0  0  0  0  0  0  0  0  0  0  0
    6.7467  -17.2529   24.0293 O   0  0  0  0  0  0  0  0  0  0  0  0
   10.3102  -19.1715   24.7270 C   0  0  0  0  0  0  0  0  0  0  0  0
    9.3978  -17.9909   24.7528 C   0  0  2  0  0  0  0  0  0  0  0  0
    8.9704  -17.5103   23.4791 N   0  0  0  0  0  0  0  0  0  0  0  0
    9.9135  -16.8838   25.6278 C   0  0  0  0  0  0  0  0  0  0  0  0
   10.6900  -15.9821   25.1717 O   0  0  0  0  0  0  0  0  0  0  0  0
    9.5324  -16.8330   26.9947 N   0  0  0  0  0  0  0  0  0  0  0  0
   10.0713  -15.8389   27.8841 C   0  0  1  0  0  0  0  0  0  0  0  0
    9.0424  -14.8372   28.3295 C   0  0  0  0  0  0  0  0  0  0  0  0
    8.4962  -13.9683   27.3071 C   0  0  0  0  0  0  0  0  0  0  0  0
    9.1075  -12.8018   26.9456 C   0  0  0  0  0  0  0  0  0  0  0  0
    8.5769  -11.9642   25.9602 C   0  0  0  0  0  0  0  0  0  0  0  0
    7.4137  -12.2999   25.3252 C   0  0  0  0  0  0  0  0  0  0  0  0
    6.7739  -13.4858   25.6791 C   0  0  0  0  0  0  0  0  0  0  0  0
    7.3242  -14.3057   26.6666 C   0  0  0  0  0  0  0  0  0  0  0  0
   10.6098  -16.4510   29.1328 C   0  0  0  0  0  0  0  0  0  0  0  0
   10.3447  -17.6605   29.3349 O   0  0  0  0  0  0  0  0  0  0  0  0
   11.3724  -15.7774   30.0680 O   0  0  0  0  0  0  0  0  0  0  0  0
  2  1  1  1
  2 13  1  0
  2  3  1  0
  3  4  1  0
  4 12  1  0
  4  5  2  0
  5  6  1  0
  7  6  1  0
  7  8  2  0
  9  8  1  0
 10  9  2  0
 11 12  2  0
 11 10  1  0
 12  7  1  0
 13 14  2  0
 16 15  1  6
 16 18  1  0
 17 13  1  0
 17 16  1  0
 18 20  1  0
 18 19  2  0
 20 21  1  0
 21 29  1  0
 21 22  1  1
 23 24  2  0
 23 22  1  0
 25 24  1  0
 26 25  2  0
 27 28  2  0
 27 26  1  0
 28 23  1  0
 29 30  2  0
 29 31  1  0
M  END
$$$$
