WAF.pdb
     RDKit          3D

 31 33  0  0  1  0  0  0  0  0999 V2000
    9.4024  -18.3393   18.2293 N   0  0  0  0  0  0  0  0  0  0  0  0
    8.6240  -18.5703   19.3921 C   0  0  1  0  0  0  0  0  0  0  0  0
    9.0301  -19.7922   20.1559 C   0  0  0  0  0  0  0  0  0  0  0  0
    8.0979  -19.9890   21.2891 C   0  0  0  0  0  0  0  0  0  0  0  0
    6.7020  -20.0589   21.1998 C   0  0  0  0  0  0  0  0  0  0  0  0
    6.1806  -20.2767   22.4123 N   0  0  0  0  0  0  0  0  0  0  0  0
    7.1836  -20.3551   23.3169 C   0  0  0  0  0  0  0  0  0  0  0  0
    7.1855  -20.5577   24.6810 C   0  0  0  0  0  0  0  0  0  0  0  0
    8.3924  -20.5800   25.3521 C   0  0  0  0  0  0  0  0  0  0  0  0
    9.5824  -20.4047   24.6882 C   0  0  0  0  0  0  0  0  0  0  0  0
    9.5621  -20.2032   23.3224 C   0  0  0  0  0  0  0  0  0  0  0  0
    8.3764  -20.1771   22.6275 C   0  0  0  0  0  0  0  0  0  0  0  0
    8.7562  -17.3704   20.2885 C   0  0  0  0  0  0  0  0  0  0  0  0
    9.8617  -17.0034   20.7196 O   0  0  0  0  0  0  0  0  0  0  0  0
    6.3060  -14.7522   21.5855 C   0  0  0  0  0  0  0  0  0  0  0  0
    7.5645  -15.5536   21.5614 C   0  0  2  0  0  0  0  0  0  0  0  0
    7.5855  -16.6468   20.6447 N   0  0  0  0  0  0  0  0  0  0  0  0
    8.0127  -15.9630   22.9358 C   0  0  0  0  0  0  0  0  0  0  0  0
    8.0730  -17.1890   23.2782 O   0  0  0  0  0  0  0  0  0  0  0  0
    8.3791  -14.9685   23.8807 N   0  0  0  0  0  0  0  0  0  0  0  0
    8.7698  -15.3187   25.2204 C   0  0  1  0  0  0  0  0  0  0  0  0
    8.9945  -14.1161   26.0943 C   0  0  0  0  0  0  0  0  0  0  0  0
    7.9673  -13.0949   26.0711 C   0  0  0  0  0  0  0  0  0  0  0  0
    6.8284  -13.1961   26.8178 C   0  0  0  0  0  0  0  0  0  0  0  0
    5.8378  -12.2101   26.7916 C   0  0  0  0  0  0  0  0  0  0  0  0
    5.9896  -11.1030   26.0040 C   0  0  0  0  0  0  0  0  0  0  0  0
    7.1443  -10.9802   25.2342 C   0  0  0  0  0  0  0  0  0  0  0  0
    8.1194  -11.9789   25.2779 C   0  0  0  0  0  0  0  0  0  0  0  0
    7.7221  -16.1291   25.9056 C   0  0  0  0  0  0  0  0  0  0  0  0
    8.0472  -16.6904   26.9794 O   0  0  0  0  0  0  0  0  0  0  0  0
    6.4329  -16.2974   25.4370 O   0  0  0  0  0  0  0  0  0  0  0  0
  2  1  1  6
  2 13  1  0
  2  3  1  0
  3  4  1  0
  4 12  1  0
  4  5  2  0
  5  6  1  0
  7  6  1  0
  7  8  2  0
  9  8  1  0
 10  9  2  0
 11 12  2  0
 11 10  1  0
 12  7  1  0
 13 14  2  0
 16 15  1  1
 16 18  1  0
 17 13  1  0
 17 16  1  0
 18 20  1  0
 18 19  2  0
 20 21  1  0
 21 29  1  0
 21 22  1  1
 23 24  2  0
 23 22  1  0
 25 24  1  0
 26 25  2  0
 27 28  2  0
 27 26  1  0
 28 23  1  0
 29 30  2  0
 29 31  1  0
M  END
$$$$
