WAF.pdb
     RDKit          3D

 31 33  0  0  1  0  0  0  0  0999 V2000
    6.5748  -17.3974   24.5093 N   0  0  0  0  0  0  0  0  0  0  0  0
    7.6263  -16.5095   24.1661 C   0  0  1  0  0  0  0  0  0  0  0  0
    8.0390  -15.6039   25.2844 C   0  0  0  0  0  0  0  0  0  0  0  0
    6.9346  -14.6633   25.5807 C   0  0  0  0  0  0  0  0  0  0  0  0
    5.8100  -14.9412   26.3678 C   0  0  0  0  0  0  0  0  0  0  0  0
    5.0349  -13.8541   26.4505 N   0  0  0  0  0  0  0  0  0  0  0  0
    5.6033  -12.8513   25.7420 C   0  0  0  0  0  0  0  0  0  0  0  0
    5.2132  -11.5502   25.5040 C   0  0  0  0  0  0  0  0  0  0  0  0
    6.0130  -10.7459   24.7158 C   0  0  0  0  0  0  0  0  0  0  0  0
    7.1818  -11.2172   24.1689 C   0  0  0  0  0  0  0  0  0  0  0  0
    7.5572  -12.5224   24.4176 C   0  0  0  0  0  0  0  0  0  0  0  0
    6.7823  -13.3461   25.1989 C   0  0  0  0  0  0  0  0  0  0  0  0
    8.8121  -17.3314   23.7433 C   0  0  0  0  0  0  0  0  0  0  0  0
    8.9995  -18.4749   24.1906 O   0  0  0  0  0  0  0  0  0  0  0  0
   11.9542  -16.1752   21.9095 C   0  0  0  0  0  0  0  0  0  0  0  0
   11.1404  -17.0132   22.8382 C   0  0  2  0  0  0  0  0  0  0  0  0
    9.7330  -16.7798   22.8112 N   0  0  0  0  0  0  0  0  0  0  0  0
   11.6840  -17.0138   24.2389 C   0  0  0  0  0  0  0  0  0  0  0  0
   11.0567  -16.4535   25.1963 O   0  0  0  0  0  0  0  0  0  0  0  0
   12.9235  -17.6507   24.5113 N   0  0  0  0  0  0  0  0  0  0  0  0
   13.4534  -17.7135   25.8474 C   0  0  1  0  0  0  0  0  0  0  0  0
   13.4761  -16.3731   26.5282 C   0  0  0  0  0  0  0  0  0  0  0  0
   12.3003  -16.0133   27.2941 C   0  0  0  0  0  0  0  0  0  0  0  0
   11.2765  -15.2900   26.7524 C   0  0  0  0  0  0  0  0  0  0  0  0
   10.1440  -14.9423   27.4946 C   0  0  0  0  0  0  0  0  0  0  0  0
   10.0342  -15.3253   28.8024 C   0  0  0  0  0  0  0  0  0  0  0  0
   11.0677  -16.0640   29.3745 C   0  0  0  0  0  0  0  0  0  0  0  0
   12.1886  -16.3989   28.6119 C   0  0  0  0  0  0  0  0  0  0  0  0
   12.6348  -18.6004   26.7234 C   0  0  0  0  0  0  0  0  0  0  0  0
   13.0223  -18.7467   27.9076 O   0  0  0  0  0  0  0  0  0  0  0  0
   11.4916  -19.2618   26.3166 O   0  0  0  0  0  0  0  0  0  0  0  0
  2  1  1  1
  2 13  1  0
  2  3  1  0
  3  4  1  0
  4 12  1  0
  4  5  2  0
  5  6  1  0
  7  6  1  0
  7  8  2  0
  9  8  1  0
 10  9  2  0
 11 12  2  0
 11 10  1  0
 12  7  1  0
 13 14  2  0
 16 15  1  6
 16 18  1  0
 17 13  1  0
 17 16  1  0
 18 20  1  0
 18 19  2  0
 20 21  1  0
 21 29  1  0
 21 22  1  1
 23 24  2  0
 23 22  1  0
 25 24  1  0
 26 25  2  0
 27 28  2  0
 27 26  1  0
 28 23  1  0
 29 30  2  0
 29 31  1  0
M  END
$$$$
