WAF.pdb
     RDKit          3D

 31 33  0  0  1  0  0  0  0  0999 V2000
    6.6167  -18.1853   24.8144 N   0  0  0  0  0  0  0  0  0  0  0  0
    7.5181  -17.1313   24.5175 C   0  0  1  0  0  0  0  0  0  0  0  0
    7.9038  -16.3145   25.7113 C   0  0  0  0  0  0  0  0  0  0  0  0
    7.0114  -15.1367   25.8031 C   0  0  0  0  0  0  0  0  0  0  0  0
    5.8320  -15.0583   26.5542 C   0  0  0  0  0  0  0  0  0  0  0  0
    5.2979  -13.8378   26.4333 N   0  0  0  0  0  0  0  0  0  0  0  0
    6.0820  -13.0909   25.6223 C   0  0  0  0  0  0  0  0  0  0  0  0
    5.9780  -11.7901   25.1764 C   0  0  0  0  0  0  0  0  0  0  0  0
    6.9493  -11.2939   24.3290 C   0  0  0  0  0  0  0  0  0  0  0  0
    8.0094  -12.0692   23.9257 C   0  0  0  0  0  0  0  0  0  0  0  0
    8.0980  -13.3693   24.3819 C   0  0  0  0  0  0  0  0  0  0  0  0
    7.1471  -13.8902   25.2268 C   0  0  0  0  0  0  0  0  0  0  0  0
    8.7590  -17.7330   23.9186 C   0  0  0  0  0  0  0  0  0  0  0  0
    9.1355  -18.8768   24.2231 O   0  0  0  0  0  0  0  0  0  0  0  0
   11.1697  -16.6588   21.1780 C   0  0  0  0  0  0  0  0  0  0  0  0
   10.7412  -17.3969   22.4021 C   0  0  2  0  0  0  0  0  0  0  0  0
    9.5110  -16.9690   22.9847 N   0  0  0  0  0  0  0  0  0  0  0  0
   11.8388  -17.5064   23.4222 C   0  0  0  0  0  0  0  0  0  0  0  0
   12.9692  -18.0176   23.1309 O   0  0  0  0  0  0  0  0  0  0  0  0
   11.6208  -17.0321   24.7426 N   0  0  0  0  0  0  0  0  0  0  0  0
   12.5934  -17.2417   25.7818 C   0  0  1  0  0  0  0  0  0  0  0  0
   12.8312  -16.0117   26.6132 C   0  0  0  0  0  0  0  0  0  0  0  0
   11.6556  -15.2999   27.0714 C   0  0  0  0  0  0  0  0  0  0  0  0
   10.9550  -14.4579   26.2559 C   0  0  0  0  0  0  0  0  0  0  0  0
    9.8223  -13.7706   26.7015 C   0  0  0  0  0  0  0  0  0  0  0  0
    9.3827  -13.9287   27.9863 C   0  0  0  0  0  0  0  0  0  0  0  0
   10.0831  -14.7832   28.8350 C   0  0  0  0  0  0  0  0  0  0  0  0
   11.2118  -15.4587   28.3659 C   0  0  0  0  0  0  0  0  0  0  0  0
   12.1586  -18.3006   26.7377 C   0  0  0  0  0  0  0  0  0  0  0  0
   11.0039  -18.7668   26.5851 O   0  0  0  0  0  0  0  0  0  0  0  0
   12.9385  -18.7931   27.7668 O   0  0  0  0  0  0  0  0  0  0  0  0
  2  1  1  1
  2 13  1  0
  2  3  1  0
  3  4  1  0
  4 12  1  0
  4  5  2  0
  5  6  1  0
  7  6  1  0
  7  8  2  0
  9  8  1  0
 10  9  2  0
 11 12  2  0
 11 10  1  0
 12  7  1  0
 13 14  2  0
 16 15  1  6
 16 18  1  0
 17 13  1  0
 17 16  1  0
 18 20  1  0
 18 19  2  0
 20 21  1  0
 21 29  1  0
 21 22  1  1
 23 24  2  0
 23 22  1  0
 25 24  1  0
 26 25  2  0
 27 28  2  0
 27 26  1  0
 28 23  1  0
 29 30  2  0
 29 31  1  0
M  END
$$$$
