WAF.pdb
     RDKit          3D

 31 33  0  0  1  0  0  0  0  0999 V2000
    7.2820  -18.6700   25.5000 N   0  0  0  0  0  0  0  0  0  0  0  0
    7.3046  -17.6718   24.4927 C   0  0  1  0  0  0  0  0  0  0  0  0
    8.0880  -16.4531   24.8700 C   0  0  0  0  0  0  0  0  0  0  0  0
    7.1695  -15.4432   25.4431 C   0  0  0  0  0  0  0  0  0  0  0  0
    5.8447  -15.6696   25.8368 C   0  0  0  0  0  0  0  0  0  0  0  0
    5.3234  -14.5457   26.3412 N   0  0  0  0  0  0  0  0  0  0  0  0
    6.2574  -13.5677   26.2989 C   0  0  0  0  0  0  0  0  0  0  0  0
    6.2284  -12.2435   26.6828 C   0  0  0  0  0  0  0  0  0  0  0  0
    7.3591  -11.4707   26.5046 C   0  0  0  0  0  0  0  0  0  0  0  0
    8.5037  -11.9953   25.9550 C   0  0  0  0  0  0  0  0  0  0  0  0
    8.5153  -13.3230   25.5763 C   0  0  0  0  0  0  0  0  0  0  0  0
    7.4056  -14.1170   25.7424 C   0  0  0  0  0  0  0  0  0  0  0  0
    7.9074  -18.2728   23.2533 C   0  0  0  0  0  0  0  0  0  0  0  0
    8.8720  -19.0527   23.3156 O   0  0  0  0  0  0  0  0  0  0  0  0
    6.9366  -18.3411   19.5851 C   0  0  0  0  0  0  0  0  0  0  0  0
    7.8845  -18.3731   20.7372 C   0  0  2  0  0  0  0  0  0  0  0  0
    7.3548  -17.9353   21.9877 N   0  0  0  0  0  0  0  0  0  0  0  0
    9.1975  -17.7149   20.4209 C   0  0  0  0  0  0  0  0  0  0  0  0
    9.8956  -18.0716   19.4162 O   0  0  0  0  0  0  0  0  0  0  0  0
    9.6791  -16.6712   21.2545 N   0  0  0  0  0  0  0  0  0  0  0  0
   10.9392  -16.0278   20.9934 C   0  0  1  0  0  0  0  0  0  0  0  0
   10.7877  -14.5765   20.6313 C   0  0  0  0  0  0  0  0  0  0  0  0
    9.4407  -14.1068   20.3793 C   0  0  0  0  0  0  0  0  0  0  0  0
    9.1770  -12.8101   20.0417 C   0  0  0  0  0  0  0  0  0  0  0  0
    7.8758  -12.3592   19.8012 C   0  0  0  0  0  0  0  0  0  0  0  0
    6.8196  -13.2214   19.9003 C   0  0  0  0  0  0  0  0  0  0  0  0
    7.0666  -14.5489   20.2435 C   0  0  0  0  0  0  0  0  0  0  0  0
    8.3756  -14.9749   20.4787 C   0  0  0  0  0  0  0  0  0  0  0  0
   11.8308  -16.0576   22.1884 C   0  0  0  0  0  0  0  0  0  0  0  0
   11.3274  -16.4590   23.2652 O   0  0  0  0  0  0  0  0  0  0  0  0
   13.1590  -15.6758   22.1828 O   0  0  0  0  0  0  0  0  0  0  0  0
  2  1  1  1
  2 13  1  0
  2  3  1  0
  3  4  1  0
  4 12  1  0
  4  5  2  0
  5  6  1  0
  7  6  1  0
  7  8  2  0
  9  8  1  0
 10  9  2  0
 11 12  2  0
 11 10  1  0
 12  7  1  0
 13 14  2  0
 16 15  1  6
 16 18  1  0
 17 13  1  0
 17 16  1  0
 18 20  1  0
 18 19  2  0
 20 21  1  0
 21 29  1  0
 21 22  1  1
 23 24  2  0
 23 22  1  0
 25 24  1  0
 26 25  2  0
 27 28  2  0
 27 26  1  0
 28 23  1  0
 29 30  2  0
 29 31  1  0
M  END
$$$$
