WAF.pdb
     RDKit          3D

 31 33  0  0  1  0  0  0  0  0999 V2000
    6.6288  -17.2554   23.6479 N   0  0  0  0  0  0  0  0  0  0  0  0
    7.7941  -16.4560   23.7690 C   0  0  1  0  0  0  0  0  0  0  0  0
    8.0720  -16.0047   25.1691 C   0  0  0  0  0  0  0  0  0  0  0  0
    7.1363  -14.9131   25.5225 C   0  0  0  0  0  0  0  0  0  0  0  0
    5.8986  -15.0683   26.1593 C   0  0  0  0  0  0  0  0  0  0  0  0
    5.3355  -13.8705   26.3534 N   0  0  0  0  0  0  0  0  0  0  0  0
    6.1565  -12.9121   25.8657 C   0  0  0  0  0  0  0  0  0  0  0  0
    6.0450  -11.5387   25.8105 C   0  0  0  0  0  0  0  0  0  0  0  0
    7.0638  -10.8078   25.2314 C   0  0  0  0  0  0  0  0  0  0  0  0
    8.1781  -11.4218   24.7128 C   0  0  0  0  0  0  0  0  0  0  0  0
    8.2733  -12.7978   24.7766 C   0  0  0  0  0  0  0  0  0  0  0  0
    7.2759  -13.5514   25.3480 C   0  0  0  0  0  0  0  0  0  0  0  0
    8.9651  -17.2600   23.2760 C   0  0  0  0  0  0  0  0  0  0  0  0
    9.0670  -18.4730   23.5227 O   0  0  0  0  0  0  0  0  0  0  0  0
   12.2225  -16.2590   21.5504 C   0  0  0  0  0  0  0  0  0  0  0  0
   11.3557  -16.9565   22.5449 C   0  0  2  0  0  0  0  0  0  0  0  0
    9.9720  -16.6094   22.5118 N   0  0  0  0  0  0  0  0  0  0  0  0
   11.9168  -16.9000   23.9374 C   0  0  0  0  0  0  0  0  0  0  0  0
   12.2430  -15.7935   24.4790 O   0  0  0  0  0  0  0  0  0  0  0  0
   12.0910  -18.1014   24.6740 N   0  0  0  0  0  0  0  0  0  0  0  0
   12.1622  -18.0930   26.1109 C   0  0  1  0  0  0  0  0  0  0  0  0
   10.8325  -17.8223   26.7581 C   0  0  0  0  0  0  0  0  0  0  0  0
   10.5335  -16.4409   27.0756 C   0  0  0  0  0  0  0  0  0  0  0  0
    9.9152  -15.6105   26.1851 C   0  0  0  0  0  0  0  0  0  0  0  0
    9.6300  -14.2772   26.4934 C   0  0  0  0  0  0  0  0  0  0  0  0
    9.9697  -13.7656   27.7149 C   0  0  0  0  0  0  0  0  0  0  0  0
   10.6013  -14.5960   28.6382 C   0  0  0  0  0  0  0  0  0  0  0  0
   10.8752  -15.9245   28.3062 C   0  0  0  0  0  0  0  0  0  0  0  0
   12.6151  -19.4087   26.6475 C   0  0  0  0  0  0  0  0  0  0  0  0
   12.6535  -20.3699   25.8422 O   0  0  0  0  0  0  0  0  0  0  0  0
   12.9898  -19.6312   27.9590 O   0  0  0  0  0  0  0  0  0  0  0  0
  2  1  1  1
  2 13  1  0
  2  3  1  0
  3  4  1  0
  4 12  1  0
  4  5  2  0
  5  6  1  0
  7  6  1  0
  7  8  2  0
  9  8  1  0
 10  9  2  0
 11 12  2  0
 11 10  1  0
 12  7  1  0
 13 14  2  0
 16 15  1  6
 16 18  1  0
 17 13  1  0
 17 16  1  0
 18 20  1  0
 18 19  2  0
 20 21  1  0
 21 29  1  0
 21 22  1  1
 23 24  2  0
 23 22  1  0
 25 24  1  0
 26 25  2  0
 27 28  2  0
 27 26  1  0
 28 23  1  0
 29 30  2  0
 29 31  1  0
M  END
$$$$
