WAF.pdb
     RDKit          3D

 31 33  0  0  1  0  0  0  0  0999 V2000
    7.5167  -19.7234   23.3729 N   0  0  0  0  0  0  0  0  0  0  0  0
    7.8592  -18.3727   23.1088 C   0  0  1  0  0  0  0  0  0  0  0  0
    6.8074  -17.3921   23.5254 C   0  0  0  0  0  0  0  0  0  0  0  0
    6.6312  -16.3846   22.4550 C   0  0  0  0  0  0  0  0  0  0  0  0
    5.8694  -16.5492   21.2914 C   0  0  0  0  0  0  0  0  0  0  0  0
    5.9046  -15.4272   20.5640 N   0  0  0  0  0  0  0  0  0  0  0  0
    6.6683  -14.5107   21.2023 C   0  0  0  0  0  0  0  0  0  0  0  0
    7.0250  -13.2181   20.8806 C   0  0  0  0  0  0  0  0  0  0  0  0
    7.8429  -12.5155   21.7437 C   0  0  0  0  0  0  0  0  0  0  0  0
    8.3039  -13.0791   22.9088 C   0  0  0  0  0  0  0  0  0  0  0  0
    7.9367  -14.3743   23.2154 C   0  0  0  0  0  0  0  0  0  0  0  0
    7.1231  -15.0977   22.3764 C   0  0  0  0  0  0  0  0  0  0  0  0
    9.1328  -18.0614   23.8448 C   0  0  0  0  0  0  0  0  0  0  0  0
    9.4456  -18.6686   24.8822 O   0  0  0  0  0  0  0  0  0  0  0  0
   12.1405  -15.8752   22.9983 C   0  0  0  0  0  0  0  0  0  0  0  0
   11.2969  -16.7737   23.8396 C   0  0  2  0  0  0  0  0  0  0  0  0
    9.9910  -17.0492   23.3349 N   0  0  0  0  0  0  0  0  0  0  0  0
   11.2654  -16.3506   25.2809 C   0  0  0  0  0  0  0  0  0  0  0  0
   12.3378  -16.1318   25.9337 O   0  0  0  0  0  0  0  0  0  0  0  0
   10.0174  -16.1884   25.9385 N   0  0  0  0  0  0  0  0  0  0  0  0
    9.9471  -15.8118   27.3252 C   0  0  1  0  0  0  0  0  0  0  0  0
    8.6686  -15.1003   27.6711 C   0  0  0  0  0  0  0  0  0  0  0  0
    8.3991  -13.8665   26.9614 C   0  0  0  0  0  0  0  0  0  0  0  0
    7.3845  -13.7599   26.0535 C   0  0  0  0  0  0  0  0  0  0  0  0
    7.1282  -12.5686   25.3686 C   0  0  0  0  0  0  0  0  0  0  0  0
    7.9011  -11.4641   25.5962 C   0  0  0  0  0  0  0  0  0  0  0  0
    8.9415  -11.5514   26.5187 C   0  0  0  0  0  0  0  0  0  0  0  0
    9.1771  -12.7530   27.1902 C   0  0  0  0  0  0  0  0  0  0  0  0
   10.0058  -17.0014   28.2226 C   0  0  0  0  0  0  0  0  0  0  0  0
   10.0517  -18.1283   27.6730 O   0  0  0  0  0  0  0  0  0  0  0  0
   10.0127  -16.9398   29.6032 O   0  0  0  0  0  0  0  0  0  0  0  0
  2  1  1  1
  2 13  1  0
  2  3  1  0
  3  4  1  0
  4 12  1  0
  4  5  2  0
  5  6  1  0
  7  6  1  0
  7  8  2  0
  9  8  1  0
 10  9  2  0
 11 12  2  0
 11 10  1  0
 12  7  1  0
 13 14  2  0
 16 15  1  6
 16 18  1  0
 17 13  1  0
 17 16  1  0
 18 20  1  0
 18 19  2  0
 20 21  1  0
 21 29  1  0
 21 22  1  6
 23 24  2  0
 23 22  1  0
 25 24  1  0
 26 25  2  0
 27 28  2  0
 27 26  1  0
 28 23  1  0
 29 30  2  0
 29 31  1  0
M  END
$$$$
