WAF.pdb
     RDKit          3D

 31 33  0  0  1  0  0  0  0  0999 V2000
    7.2635  -16.9160   20.9951 N   0  0  0  0  0  0  0  0  0  0  0  0
    7.5335  -15.8520   21.8933 C   0  0  1  0  0  0  0  0  0  0  0  0
    6.7991  -14.5886   21.5686 C   0  0  0  0  0  0  0  0  0  0  0  0
    7.4755  -13.9097   20.4401 C   0  0  0  0  0  0  0  0  0  0  0  0
    6.8538  -13.1102   19.4727 C   0  0  0  0  0  0  0  0  0  0  0  0
    7.7699  -12.6307   18.6241 N   0  0  0  0  0  0  0  0  0  0  0  0
    8.9911  -13.0836   18.9901 C   0  0  0  0  0  0  0  0  0  0  0  0
   10.2475  -12.8926   18.4545 C   0  0  0  0  0  0  0  0  0  0  0  0
   11.3304  -13.5048   19.0545 C   0  0  0  0  0  0  0  0  0  0  0  0
   11.1778  -14.2954   20.1677 C   0  0  0  0  0  0  0  0  0  0  0  0
    9.9129  -14.4757   20.6909 C   0  0  0  0  0  0  0  0  0  0  0  0
    8.8165  -13.8783   20.1160 C   0  0  0  0  0  0  0  0  0  0  0  0
    7.1456  -16.2982   23.2757 C   0  0  0  0  0  0  0  0  0  0  0  0
    6.3345  -15.6530   23.9602 O   0  0  0  0  0  0  0  0  0  0  0  0
    7.6373  -19.2187   25.5626 C   0  0  0  0  0  0  0  0  0  0  0  0
    7.8189  -17.7840   25.1942 C   0  0  2  0  0  0  0  0  0  0  0  0
    7.7247  -17.4851   23.8022 N   0  0  0  0  0  0  0  0  0  0  0  0
    9.0454  -17.1804   25.8176 C   0  0  0  0  0  0  0  0  0  0  0  0
   10.1710  -17.1945   25.2202 O   0  0  0  0  0  0  0  0  0  0  0  0
    8.9578  -16.5785   27.1006 N   0  0  0  0  0  0  0  0  0  0  0  0
   10.1079  -15.9822   27.7262 C   0  0  1  0  0  0  0  0  0  0  0  0
    9.8644  -14.5635   28.1603 C   0  0  0  0  0  0  0  0  0  0  0  0
    8.6133  -13.9626   27.7452 C   0  0  0  0  0  0  0  0  0  0  0  0
    7.6694  -13.5595   28.6460 C   0  0  0  0  0  0  0  0  0  0  0  0
    6.4620  -12.9820   28.2425 C   0  0  0  0  0  0  0  0  0  0  0  0
    6.1944  -12.8048   26.9136 C   0  0  0  0  0  0  0  0  0  0  0  0
    7.1440  -13.2092   25.9779 C   0  0  0  0  0  0  0  0  0  0  0  0
    8.3427  -13.7834   26.4064 C   0  0  0  0  0  0  0  0  0  0  0  0
   10.5099  -16.7207   28.9579 C   0  0  0  0  0  0  0  0  0  0  0  0
    9.7817  -17.6796   29.3106 O   0  0  0  0  0  0  0  0  0  0  0  0
   11.6197  -16.4182   29.7239 O   0  0  0  0  0  0  0  0  0  0  0  0
  2  1  1  6
  2 13  1  0
  2  3  1  0
  3  4  1  0
  4 12  1  0
  4  5  2  0
  5  6  1  0
  7  6  1  0
  7  8  2  0
  9  8  1  0
 10  9  2  0
 11 12  2  0
 11 10  1  0
 12  7  1  0
 13 14  2  0
 16 15  1  6
 16 18  1  0
 17 13  1  0
 17 16  1  0
 18 20  1  0
 18 19  2  0
 20 21  1  0
 21 29  1  0
 21 22  1  1
 23 24  2  0
 23 22  1  0
 25 24  1  0
 26 25  2  0
 27 28  2  0
 27 26  1  0
 28 23  1  0
 29 30  2  0
 29 31  1  0
M  END
$$$$
