WAF.pdb
     RDKit          3D

 31 33  0  0  1  0  0  0  0  0999 V2000
    6.6784  -18.7663   21.2220 N   0  0  0  0  0  0  0  0  0  0  0  0
    7.2554  -17.5462   21.6580 C   0  0  1  0  0  0  0  0  0  0  0  0
    6.5725  -16.9486   22.8487 C   0  0  0  0  0  0  0  0  0  0  0  0
    6.9482  -15.5207   22.9585 C   0  0  0  0  0  0  0  0  0  0  0  0
    7.6625  -14.7852   22.0044 C   0  0  0  0  0  0  0  0  0  0  0  0
    7.7946  -13.5188   22.4144 N   0  0  0  0  0  0  0  0  0  0  0  0
    7.1910  -13.3785   23.6171 C   0  0  0  0  0  0  0  0  0  0  0  0
    7.0485  -12.2965   24.4601 C   0  0  0  0  0  0  0  0  0  0  0  0
    6.3738  -12.4630   25.6537 C   0  0  0  0  0  0  0  0  0  0  0  0
    5.8465  -13.6798   26.0126 C   0  0  0  0  0  0  0  0  0  0  0  0
    5.9983  -14.7524   25.1565 C   0  0  0  0  0  0  0  0  0  0  0  0
    6.6638  -14.6168   23.9615 C   0  0  0  0  0  0  0  0  0  0  0  0
    8.6950  -17.8079   22.0038 C   0  0  0  0  0  0  0  0  0  0  0  0
    9.0224  -18.7547   22.7380 O   0  0  0  0  0  0  0  0  0  0  0  0
   11.9837  -16.3754   20.7332 C   0  0  0  0  0  0  0  0  0  0  0  0
   11.0977  -17.1354   21.6629 C   0  0  2  0  0  0  0  0  0  0  0  0
    9.6958  -16.9480   21.4745 N   0  0  0  0  0  0  0  0  0  0  0  0
   11.4988  -16.9732   23.1017 C   0  0  0  0  0  0  0  0  0  0  0  0
   12.6804  -17.2402   23.4972 O   0  0  0  0  0  0  0  0  0  0  0  0
   10.5465  -16.5127   24.0489 N   0  0  0  0  0  0  0  0  0  0  0  0
   10.9047  -16.3019   25.4263 C   0  0  1  0  0  0  0  0  0  0  0  0
   10.0391  -15.2751   26.1022 C   0  0  0  0  0  0  0  0  0  0  0  0
   10.3435  -14.9787   27.4872 C   0  0  0  0  0  0  0  0  0  0  0  0
   10.4110  -13.6978   27.9558 C   0  0  0  0  0  0  0  0  0  0  0  0
   10.7071  -13.4148   29.2924 C   0  0  0  0  0  0  0  0  0  0  0  0
   10.9399  -14.4318   30.1758 C   0  0  0  0  0  0  0  0  0  0  0  0
   10.8758  -15.7462   29.7182 C   0  0  0  0  0  0  0  0  0  0  0  0
   10.5779  -16.0028   28.3782 C   0  0  0  0  0  0  0  0  0  0  0  0
   10.7587  -17.5493   26.2304 C   0  0  0  0  0  0  0  0  0  0  0  0
    9.8156  -18.3178   25.9240 O   0  0  0  0  0  0  0  0  0  0  0  0
   11.5869  -17.9060   27.2777 O   0  0  0  0  0  0  0  0  0  0  0  0
  2  1  1  1
  2 13  1  0
  2  3  1  0
  3  4  1  0
  4 12  1  0
  4  5  2  0
  5  6  1  0
  7  6  1  0
  7  8  2  0
  9  8  1  0
 10  9  2  0
 11 12  2  0
 11 10  1  0
 12  7  1  0
 13 14  2  0
 16 15  1  6
 16 18  1  0
 17 13  1  0
 17 16  1  0
 18 20  1  0
 18 19  2  0
 20 21  1  0
 21 29  1  0
 21 22  1  1
 23 24  2  0
 23 22  1  0
 25 24  1  0
 26 25  2  0
 27 28  2  0
 27 26  1  0
 28 23  1  0
 29 30  2  0
 29 31  1  0
M  END
$$$$
