WAF.pdb
     RDKit          3D

 31 33  0  0  1  0  0  0  0  0999 V2000
    6.6537  -18.5389   23.7039 N   0  0  0  0  0  0  0  0  0  0  0  0
    7.4197  -17.3861   24.0135 C   0  0  1  0  0  0  0  0  0  0  0  0
    7.2947  -16.9448   25.4386 C   0  0  0  0  0  0  0  0  0  0  0  0
    6.7226  -15.5798   25.4762 C   0  0  0  0  0  0  0  0  0  0  0  0
    5.6180  -15.1745   26.2358 C   0  0  0  0  0  0  0  0  0  0  0  0
    5.3983  -13.8675   26.0545 N   0  0  0  0  0  0  0  0  0  0  0  0
    6.3217  -13.3794   25.1945 C   0  0  0  0  0  0  0  0  0  0  0  0
    6.5302  -12.1174   24.6791 C   0  0  0  0  0  0  0  0  0  0  0  0
    7.5723  -11.9202   23.7943 C   0  0  0  0  0  0  0  0  0  0  0  0
    8.3982  -12.9528   23.4216 C   0  0  0  0  0  0  0  0  0  0  0  0
    8.1752  -14.2099   23.9474 C   0  0  0  0  0  0  0  0  0  0  0  0
    7.1467  -14.4363   24.8309 C   0  0  0  0  0  0  0  0  0  0  0  0
    8.8629  -17.6930   23.7245 C   0  0  0  0  0  0  0  0  0  0  0  0
    9.3303  -18.8304   23.8996 O   0  0  0  0  0  0  0  0  0  0  0  0
   11.8023  -15.6107   22.4548 C   0  0  0  0  0  0  0  0  0  0  0  0
   11.1233  -16.7468   23.1441 C   0  0  2  0  0  0  0  0  0  0  0  0
    9.7028  -16.6530   23.2407 N   0  0  0  0  0  0  0  0  0  0  0  0
   11.7563  -17.0796   24.4655 C   0  0  0  0  0  0  0  0  0  0  0  0
   13.0208  -17.1754   24.5921 O   0  0  0  0  0  0  0  0  0  0  0  0
   10.9352  -17.2936   25.6039 N   0  0  0  0  0  0  0  0  0  0  0  0
   11.5011  -17.6591   26.8751 C   0  0  1  0  0  0  0  0  0  0  0  0
   10.6469  -17.2331   28.0367 C   0  0  0  0  0  0  0  0  0  0  0  0
   10.0857  -15.8990   27.9757 C   0  0  0  0  0  0  0  0  0  0  0  0
    8.7461  -15.6830   27.8211 C   0  0  0  0  0  0  0  0  0  0  0  0
    8.2077  -14.3944   27.7603 C   0  0  0  0  0  0  0  0  0  0  0  0
    9.0244  -13.3023   27.8561 C   0  0  0  0  0  0  0  0  0  0  0  0
   10.3943  -13.5004   28.0144 C   0  0  0  0  0  0  0  0  0  0  0  0
   10.9078  -14.7978   28.0724 C   0  0  0  0  0  0  0  0  0  0  0  0
   11.6557  -19.1367   27.0047 C   0  0  0  0  0  0  0  0  0  0  0  0
   12.1667  -19.5653   28.0673 O   0  0  0  0  0  0  0  0  0  0  0  0
   11.2760  -20.0502   26.0397 O   0  0  0  0  0  0  0  0  0  0  0  0
  2  1  1  1
  2 13  1  0
  2  3  1  0
  3  4  1  0
  4 12  1  0
  4  5  2  0
  5  6  1  0
  7  6  1  0
  7  8  2  0
  9  8  1  0
 10  9  2  0
 11 12  2  0
 11 10  1  0
 12  7  1  0
 13 14  2  0
 16 15  1  1
 16 18  1  0
 17 13  1  0
 17 16  1  0
 18 20  1  0
 18 19  2  0
 20 21  1  0
 21 29  1  0
 21 22  1  1
 23 24  2  0
 23 22  1  0
 25 24  1  0
 26 25  2  0
 27 28  2  0
 27 26  1  0
 28 23  1  0
 29 30  2  0
 29 31  1  0
M  END
$$$$
