WAF.pdb
     RDKit          3D

 31 33  0  0  1  0  0  0  0  0999 V2000
    6.6208  -17.6271   23.6916 N   0  0  0  0  0  0  0  0  0  0  0  0
    7.8918  -16.9977   23.6873 C   0  0  1  0  0  0  0  0  0  0  0  0
    7.9731  -15.7984   24.5797 C   0  0  0  0  0  0  0  0  0  0  0  0
    7.2287  -14.6794   23.9588 C   0  0  0  0  0  0  0  0  0  0  0  0
    6.0902  -14.0584   24.4878 C   0  0  0  0  0  0  0  0  0  0  0  0
    5.7000  -13.0648   23.6816 N   0  0  0  0  0  0  0  0  0  0  0  0
    6.5413  -12.9977   22.6241 C   0  0  0  0  0  0  0  0  0  0  0  0
    6.5774  -12.1699   21.5218 C   0  0  0  0  0  0  0  0  0  0  0  0
    7.5739  -12.3502   20.5825 C   0  0  0  0  0  0  0  0  0  0  0  0
    8.5225  -13.3334   20.7270 C   0  0  0  0  0  0  0  0  0  0  0  0
    8.4715  -14.1530   21.8369 C   0  0  0  0  0  0  0  0  0  0  0  0
    7.4923  -13.9968   22.7889 C   0  0  0  0  0  0  0  0  0  0  0  0
    8.9137  -18.0061   24.1340 C   0  0  0  0  0  0  0  0  0  0  0  0
    8.6277  -18.9007   24.9468 O   0  0  0  0  0  0  0  0  0  0  0  0
   12.6933  -18.1637   23.5884 C   0  0  0  0  0  0  0  0  0  0  0  0
   11.4120  -18.2376   24.3497 C   0  0  2  0  0  0  0  0  0  0  0  0
   10.2326  -17.9261   23.6094 N   0  0  0  0  0  0  0  0  0  0  0  0
   11.4723  -17.4909   25.6522 C   0  0  0  0  0  0  0  0  0  0  0  0
   10.9491  -16.3362   25.7820 O   0  0  0  0  0  0  0  0  0  0  0  0
   12.1248  -18.0774   26.7686 N   0  0  0  0  0  0  0  0  0  0  0  0
   11.6500  -17.8617   28.1095 C   0  0  1  0  0  0  0  0  0  0  0  0
   10.3159  -17.1695   28.1503 C   0  0  0  0  0  0  0  0  0  0  0  0
   10.3199  -15.7376   27.9310 C   0  0  0  0  0  0  0  0  0  0  0  0
    9.6051  -15.1574   26.9224 C   0  0  0  0  0  0  0  0  0  0  0  0
    9.6126  -13.7755   26.7117 C   0  0  0  0  0  0  0  0  0  0  0  0
   10.3487  -12.9595   27.5251 C   0  0  0  0  0  0  0  0  0  0  0  0
   11.0852  -13.5312   28.5603 C   0  0  0  0  0  0  0  0  0  0  0  0
   11.0611  -14.9145   28.7501 C   0  0  0  0  0  0  0  0  0  0  0  0
   11.4631  -19.1478   28.8410 C   0  0  0  0  0  0  0  0  0  0  0  0
   11.1207  -19.0737   30.0457 O   0  0  0  0  0  0  0  0  0  0  0  0
   11.6413  -20.3988   28.2813 O   0  0  0  0  0  0  0  0  0  0  0  0
  2  1  1  1
  2 13  1  0
  2  3  1  0
  3  4  1  0
  4 12  1  0
  4  5  2  0
  5  6  1  0
  7  6  1  0
  7  8  2  0
  9  8  1  0
 10  9  2  0
 11 12  2  0
 11 10  1  0
 12  7  1  0
 13 14  2  0
 16 15  1  6
 16 18  1  0
 17 13  1  0
 17 16  1  0
 18 20  1  0
 18 19  2  0
 20 21  1  0
 21 29  1  0
 21 22  1  6
 23 24  2  0
 23 22  1  0
 25 24  1  0
 26 25  2  0
 27 28  2  0
 27 26  1  0
 28 23  1  0
 29 30  2  0
 29 31  1  0
M  END
$$$$
