FLG.pdb
     RDKit          3D

 24 24  0  0  1  0  0  0  0  0999 V2000
    7.6636  -19.0329   27.3326 N   0  0  0  0  0  0  0  0  0  0  0  0
    8.0878  -17.6494   27.3034 C   0  0  1  0  0  0  0  0  0  0  0  0
    9.5441  -17.5338   27.6966 C   0  0  0  0  0  0  0  0  0  0  0  0
    9.7384  -16.2094   28.3204 C   0  0  0  0  0  0  0  0  0  0  0  0
   10.0998  -15.1164   27.5528 C   0  0  0  0  0  0  0  0  0  0  0  0
   10.2873  -13.8707   28.1093 C   0  0  0  0  0  0  0  0  0  0  0  0
   10.0981  -13.7645   29.4646 C   0  0  0  0  0  0  0  0  0  0  0  0
    9.7388  -14.8370   30.2472 C   0  0  0  0  0  0  0  0  0  0  0  0
    9.5582  -16.0629   29.6750 C   0  0  0  0  0  0  0  0  0  0  0  0
    7.8279  -17.1119   25.9512 C   0  0  0  0  0  0  0  0  0  0  0  0
    7.4865  -17.8903   25.0275 O   0  0  0  0  0  0  0  0  0  0  0  0
    5.7474  -13.0547   26.3563 C   0  0  0  0  0  0  0  0  0  0  0  0
    7.1597  -12.9247   25.8444 C   0  0  2  0  0  0  0  0  0  0  0  0
    7.5215  -11.4425   25.6441 C   0  0  0  0  0  0  0  0  0  0  0  0
    7.3827  -13.6133   24.5656 C   0  0  0  0  0  0  0  0  0  0  0  0
    7.5664  -15.0833   24.5519 C   0  0  2  0  0  0  0  0  0  0  0  0
    7.9782  -15.7147   25.7517 N   0  0  0  0  0  0  0  0  0  0  0  0
    8.4008  -15.5634   23.4252 C   0  0  0  0  0  0  0  0  0  0  0  0
    8.1318  -15.1653   22.2671 O   0  0  0  0  0  0  0  0  0  0  0  0
    9.4901  -16.4533   23.5990 N   0  0  0  0  0  0  0  0  0  0  0  0
   10.1975  -16.9278   22.4280 C   0  0  0  0  0  0  0  0  0  0  0  0
   11.4058  -16.1159   22.2480 C   0  0  0  0  0  0  0  0  0  0  0  0
   11.6066  -15.3581   21.2511 O   0  0  0  0  0  0  0  0  0  0  0  0
   12.4087  -16.1596   23.2127 O   0  0  0  0  0  0  0  0  0  0  0  0
  2  1  1  6
  2  3  1  0
  4  3  1  0
  5  4  2  0
  6  5  1  0
  7  8  1  0
  7  6  2  0
  8  9  2  0
  9  4  1  0
 10 17  1  0
 10  2  1  0
 11 10  2  0
 13 12  1  6
 13 14  1  0
 16 15  1  1
 15 13  1  0
 16 17  1  0
 18 16  1  0
 19 18  2  0
 20 18  1  0
 21 20  1  0
 22 21  1  0
 23 22  2  0
 24 22  1  0
M  END
$$$$
