FLG.pdb
     RDKit          3D

 24 24  0  0  1  0  0  0  0  0999 V2000
    7.2867  -17.2703   26.1908 N   0  0  0  0  0  0  0  0  0  0  0  0
    6.7415  -16.7614   24.9504 C   0  0  1  0  0  0  0  0  0  0  0  0
    5.9555  -15.4929   25.1987 C   0  0  0  0  0  0  0  0  0  0  0  0
    6.8542  -14.5295   25.8661 C   0  0  0  0  0  0  0  0  0  0  0  0
    7.9178  -14.9736   26.6315 C   0  0  0  0  0  0  0  0  0  0  0  0
    8.7708  -14.0967   27.2642 C   0  0  0  0  0  0  0  0  0  0  0  0
    8.5150  -12.7584   27.0991 C   0  0  0  0  0  0  0  0  0  0  0  0
    7.4640  -12.2942   26.3431 C   0  0  0  0  0  0  0  0  0  0  0  0
    6.6308  -13.1808   25.7246 C   0  0  0  0  0  0  0  0  0  0  0  0
    7.8568  -16.5534   24.0030 C   0  0  0  0  0  0  0  0  0  0  0  0
    8.6402  -17.5001   23.7470 O   0  0  0  0  0  0  0  0  0  0  0  0
    6.8432  -14.4043   19.9345 C   0  0  0  0  0  0  0  0  0  0  0  0
    7.3331  -13.4398   20.9847 C   0  0  2  0  0  0  0  0  0  0  0  0
    7.4311  -12.0190   20.4019 C   0  0  0  0  0  0  0  0  0  0  0  0
    8.6530  -13.7892   21.5280 C   0  0  0  0  0  0  0  0  0  0  0  0
    8.8197  -15.0548   22.2800 C   0  0  2  0  0  0  0  0  0  0  0  0
    7.9965  -15.2700   23.4131 N   0  0  0  0  0  0  0  0  0  0  0  0
   10.2293  -15.3554   22.6244 C   0  0  0  0  0  0  0  0  0  0  0  0
   11.0845  -15.3540   21.7076 O   0  0  0  0  0  0  0  0  0  0  0  0
   10.6537  -15.6446   23.9454 N   0  0  0  0  0  0  0  0  0  0  0  0
   12.0725  -15.7480   24.2159 C   0  0  0  0  0  0  0  0  0  0  0  0
   12.4840  -17.1446   24.0388 C   0  0  0  0  0  0  0  0  0  0  0  0
   11.7307  -18.0495   23.5675 O   0  0  0  0  0  0  0  0  0  0  0  0
   13.7723  -17.5288   24.4008 O   0  0  0  0  0  0  0  0  0  0  0  0
  2  1  1  1
  2  3  1  0
  4  3  1  0
  5  4  2  0
  6  5  1  0
  7  8  1  0
  7  6  2  0
  8  9  2  0
  9  4  1  0
 10 17  1  0
 10  2  1  0
 11 10  2  0
 13 12  1  6
 13 14  1  0
 16 15  1  1
 15 13  1  0
 16 17  1  0
 18 16  1  0
 19 18  2  0
 20 18  1  0
 21 20  1  0
 22 21  1  0
 23 22  2  0
 24 22  1  0
M  END
$$$$
