FLG.pdb
     RDKit          3D

 24 24  0  0  1  0  0  0  0  0999 V2000
    5.8042  -17.8513   24.8949 N   0  0  0  0  0  0  0  0  0  0  0  0
    6.3769  -16.5315   25.0533 C   0  0  1  0  0  0  0  0  0  0  0  0
    6.7791  -16.2984   26.4930 C   0  0  0  0  0  0  0  0  0  0  0  0
    6.9676  -14.8453   26.6782 C   0  0  0  0  0  0  0  0  0  0  0  0
    8.2186  -14.3293   26.9662 C   0  0  0  0  0  0  0  0  0  0  0  0
    8.4218  -12.9788   27.1437 C   0  0  0  0  0  0  0  0  0  0  0  0
    7.3218  -12.1671   27.0209 C   0  0  0  0  0  0  0  0  0  0  0  0
    6.0691  -12.6578   26.7352 C   0  0  0  0  0  0  0  0  0  0  0  0
    5.8902  -13.9999   26.5632 C   0  0  0  0  0  0  0  0  0  0  0  0
    7.5200  -16.4062   24.1246 C   0  0  0  0  0  0  0  0  0  0  0  0
    8.2531  -17.4007   23.9028 O   0  0  0  0  0  0  0  0  0  0  0  0
    6.8155  -14.4062   20.0380 C   0  0  0  0  0  0  0  0  0  0  0  0
    7.3152  -13.4210   21.0642 C   0  0  2  0  0  0  0  0  0  0  0  0
    7.4476  -12.0204   20.4407 C   0  0  0  0  0  0  0  0  0  0  0  0
    8.6225  -13.7807   21.6306 C   0  0  0  0  0  0  0  0  0  0  0  0
    8.7328  -14.9644   22.5147 C   0  0  2  0  0  0  0  0  0  0  0  0
    7.7436  -15.1450   23.5130 N   0  0  0  0  0  0  0  0  0  0  0  0
   10.0788  -15.1318   23.1116 C   0  0  0  0  0  0  0  0  0  0  0  0
   10.2650  -14.7457   24.2898 O   0  0  0  0  0  0  0  0  0  0  0  0
   11.1657  -15.7095   22.4089 N   0  0  0  0  0  0  0  0  0  0  0  0
   12.4055  -15.9508   23.1170 C   0  0  0  0  0  0  0  0  0  0  0  0
   13.4113  -16.4187   22.1575 C   0  0  0  0  0  0  0  0  0  0  0  0
   13.2318  -17.3901   21.3621 O   0  0  0  0  0  0  0  0  0  0  0  0
   14.6454  -15.7776   22.0935 O   0  0  0  0  0  0  0  0  0  0  0  0
  2  1  1  1
  2  3  1  0
  4  3  1  0
  5  4  2  0
  6  5  1  0
  7  8  1  0
  7  6  2  0
  8  9  2  0
  9  4  1  0
 10 17  1  0
 10  2  1  0
 11 10  2  0
 13 12  1  6
 13 14  1  0
 16 15  1  1
 15 13  1  0
 16 17  1  0
 18 16  1  0
 19 18  2  0
 20 18  1  0
 21 20  1  0
 22 21  1  0
 23 22  2  0
 24 22  1  0
M  END
$$$$
