FLG.pdb
     RDKit          3D

 24 24  0  0  1  0  0  0  0  0999 V2000
    6.0430  -17.8603   25.1015 N   0  0  0  0  0  0  0  0  0  0  0  0
    6.6045  -16.5264   25.1185 C   0  0  1  0  0  0  0  0  0  0  0  0
    7.1202  -16.1869   26.4997 C   0  0  0  0  0  0  0  0  0  0  0  0
    7.2603  -14.7189   26.5798 C   0  0  0  0  0  0  0  0  0  0  0  0
    6.1446  -13.9021   26.5319 C   0  0  0  0  0  0  0  0  0  0  0  0
    6.2473  -12.5306   26.6046 C   0  0  0  0  0  0  0  0  0  0  0  0
    7.5119  -12.0113   26.7270 C   0  0  0  0  0  0  0  0  0  0  0  0
    8.6350  -12.8038   26.7766 C   0  0  0  0  0  0  0  0  0  0  0  0
    8.5103  -14.1609   26.7029 C   0  0  0  0  0  0  0  0  0  0  0  0
    7.6647  -16.4550   24.0911 C   0  0  0  0  0  0  0  0  0  0  0  0
    8.2678  -17.5004   23.7460 O   0  0  0  0  0  0  0  0  0  0  0  0
    6.8031  -14.4533   20.0444 C   0  0  0  0  0  0  0  0  0  0  0  0
    7.3466  -13.4736   21.0535 C   0  0  2  0  0  0  0  0  0  0  0  0
    7.4582  -12.0710   20.4306 C   0  0  0  0  0  0  0  0  0  0  0  0
    8.6745  -13.8394   21.5656 C   0  0  0  0  0  0  0  0  0  0  0  0
    8.8218  -15.0459   22.4126 C   0  0  2  0  0  0  0  0  0  0  0  0
    7.9604  -15.1857   23.5290 N   0  0  0  0  0  0  0  0  0  0  0  0
   10.2201  -15.3090   22.8269 C   0  0  0  0  0  0  0  0  0  0  0  0
   11.1138  -15.3241   21.9476 O   0  0  0  0  0  0  0  0  0  0  0  0
   10.5922  -15.5445   24.1741 N   0  0  0  0  0  0  0  0  0  0  0  0
   11.9980  -15.5404   24.5209 C   0  0  0  0  0  0  0  0  0  0  0  0
   12.5031  -16.9158   24.4517 C   0  0  0  0  0  0  0  0  0  0  0  0
   11.8275  -17.8960   24.0146 O   0  0  0  0  0  0  0  0  0  0  0  0
   13.7972  -17.1913   24.8847 O   0  0  0  0  0  0  0  0  0  0  0  0
  2  1  1  1
  2  3  1  0
  4  3  1  0
  5  4  2  0
  6  5  1  0
  7  8  1  0
  7  6  2  0
  8  9  2  0
  9  4  1  0
 10 17  1  0
 10  2  1  0
 11 10  2  0
 13 12  1  6
 13 14  1  0
 16 15  1  1
 15 13  1  0
 16 17  1  0
 18 16  1  0
 19 18  2  0
 20 18  1  0
 21 20  1  0
 22 21  1  0
 23 22  2  0
 24 22  1  0
M  END
$$$$
