FLG.pdb
     RDKit          3D

 24 24  0  0  1  0  0  0  0  0999 V2000
   11.4712  -16.2679   22.5980 N   0  0  0  0  0  0  0  0  0  0  0  0
   10.2167  -15.5466   22.6246 C   0  0  1  0  0  0  0  0  0  0  0  0
    9.3358  -15.9740   21.4713 C   0  0  0  0  0  0  0  0  0  0  0  0
    8.4142  -14.8596   21.1713 C   0  0  0  0  0  0  0  0  0  0  0  0
    8.9037  -13.6360   20.7500 C   0  0  0  0  0  0  0  0  0  0  0  0
    8.0664  -12.5807   20.4637 C   0  0  0  0  0  0  0  0  0  0  0  0
    6.7203  -12.8008   20.6166 C   0  0  0  0  0  0  0  0  0  0  0  0
    6.2113  -14.0085   21.0341 C   0  0  0  0  0  0  0  0  0  0  0  0
    7.0592  -15.0411   21.3124 C   0  0  0  0  0  0  0  0  0  0  0  0
    9.5749  -15.7780   23.9359 C   0  0  0  0  0  0  0  0  0  0  0  0
   10.1317  -16.5242   24.7778 O   0  0  0  0  0  0  0  0  0  0  0  0
    8.2015  -12.4446   26.8767 C   0  0  0  0  0  0  0  0  0  0  0  0
    7.1859  -12.7656   25.8095 C   0  0  2  0  0  0  0  0  0  0  0  0
    5.9400  -11.8771   25.9724 C   0  0  0  0  0  0  0  0  0  0  0  0
    6.7393  -14.1654   25.8310 C   0  0  0  0  0  0  0  0  0  0  0  0
    7.6859  -15.2382   25.4464 C   0  0  2  0  0  0  0  0  0  0  0  0
    8.3353  -15.1356   24.1912 N   0  0  0  0  0  0  0  0  0  0  0  0
    7.1298  -16.6022   25.6092 C   0  0  0  0  0  0  0  0  0  0  0  0
    6.5417  -16.8868   26.6793 O   0  0  0  0  0  0  0  0  0  0  0  0
    7.2335  -17.5999   24.6079 N   0  0  0  0  0  0  0  0  0  0  0  0
    6.5276  -18.8506   24.7929 C   0  0  0  0  0  0  0  0  0  0  0  0
    7.3835  -19.7647   25.5566 C   0  0  0  0  0  0  0  0  0  0  0  0
    8.5036  -19.4363   26.0526 O   0  0  0  0  0  0  0  0  0  0  0  0
    6.9674  -21.0767   25.7654 O   0  0  0  0  0  0  0  0  0  0  0  0
  2  1  1  1
  2  3  1  0
  4  3  1  0
  5  4  2  0
  6  5  1  0
  7  8  1  0
  7  6  2  0
  8  9  2  0
  9  4  1  0
 10 17  1  0
 10  2  1  0
 11 10  2  0
 13 12  1  1
 13 14  1  0
 16 15  1  6
 15 13  1  0
 16 17  1  0
 18 16  1  0
 19 18  2  0
 20 18  1  0
 21 20  1  0
 22 21  1  0
 23 22  2  0
 24 22  1  0
M  END
$$$$
