FLG.pdb
     RDKit          3D

 24 24  0  0  1  0  0  0  0  0999 V2000
    6.3543  -17.2273   25.6493 N   0  0  0  0  0  0  0  0  0  0  0  0
    6.9033  -15.9968   25.1209 C   0  0  1  0  0  0  0  0  0  0  0  0
    7.8079  -15.3401   26.1403 C   0  0  0  0  0  0  0  0  0  0  0  0
    7.1987  -14.0486   26.5173 C   0  0  0  0  0  0  0  0  0  0  0  0
    7.8520  -13.1884   27.3820 C   0  0  0  0  0  0  0  0  0  0  0  0
    7.3063  -11.9785   27.7497 C   0  0  0  0  0  0  0  0  0  0  0  0
    6.0809  -11.6658   27.2164 C   0  0  0  0  0  0  0  0  0  0  0  0
    5.4133  -12.5052   26.3553 C   0  0  0  0  0  0  0  0  0  0  0  0
    5.9725  -13.6997   26.0041 C   0  0  0  0  0  0  0  0  0  0  0  0
    7.6108  -16.3067   23.8607 C   0  0  0  0  0  0  0  0  0  0  0  0
    7.6094  -17.4817   23.4194 O   0  0  0  0  0  0  0  0  0  0  0  0
    6.4066  -14.1728   20.2152 C   0  0  0  0  0  0  0  0  0  0  0  0
    7.5482  -13.4432   20.8769 C   0  0  2  0  0  0  0  0  0  0  0  0
    7.8887  -12.1621   20.0953 C   0  0  0  0  0  0  0  0  0  0  0  0
    8.7760  -14.2448   20.9727 C   0  0  0  0  0  0  0  0  0  0  0  0
    8.8195  -15.4037   21.8946 C   0  0  2  0  0  0  0  0  0  0  0  0
    8.2728  -15.2440   23.1921 N   0  0  0  0  0  0  0  0  0  0  0  0
   10.1589  -16.0302   21.9925 C   0  0  0  0  0  0  0  0  0  0  0  0
   10.7223  -16.4096   20.9386 O   0  0  0  0  0  0  0  0  0  0  0  0
   10.8316  -16.2194   23.2255 N   0  0  0  0  0  0  0  0  0  0  0  0
   12.1179  -16.8843   23.2240 C   0  0  0  0  0  0  0  0  0  0  0  0
   13.1537  -15.9031   22.8836 C   0  0  0  0  0  0  0  0  0  0  0  0
   13.3944  -15.5100   21.7022 O   0  0  0  0  0  0  0  0  0  0  0  0
   13.9343  -15.3537   23.8971 O   0  0  0  0  0  0  0  0  0  0  0  0
  2  1  1  1
  2  3  1  0
  4  3  1  0
  5  4  2  0
  6  5  1  0
  7  8  1  0
  7  6  2  0
  8  9  2  0
  9  4  1  0
 10 17  1  0
 10  2  1  0
 11 10  2  0
 13 12  1  6
 13 14  1  0
 16 15  1  1
 15 13  1  0
 16 17  1  0
 18 16  1  0
 19 18  2  0
 20 18  1  0
 21 20  1  0
 22 21  1  0
 23 22  2  0
 24 22  1  0
M  END
$$$$
