FLG.pdb
     RDKit          3D

 24 24  0  0  1  0  0  0  0  0999 V2000
    6.1180  -17.5837   25.4225 N   0  0  0  0  0  0  0  0  0  0  0  0
    6.6992  -16.3018   25.0853 C   0  0  1  0  0  0  0  0  0  0  0  0
    7.5395  -15.7837   26.2317 C   0  0  0  0  0  0  0  0  0  0  0  0
    7.1396  -14.3851   26.4871 C   0  0  0  0  0  0  0  0  0  0  0  0
    5.8213  -13.9923   26.3394 C   0  0  0  0  0  0  0  0  0  0  0  0
    5.4218  -12.6948   26.5712 C   0  0  0  0  0  0  0  0  0  0  0  0
    6.3958  -11.8079   26.9567 C   0  0  0  0  0  0  0  0  0  0  0  0
    7.7122  -12.1760   27.1099 C   0  0  0  0  0  0  0  0  0  0  0  0
    8.0863  -13.4673   26.8748 C   0  0  0  0  0  0  0  0  0  0  0  0
    7.4831  -16.4592   23.8421 C   0  0  0  0  0  0  0  0  0  0  0  0
    7.6213  -17.5986   23.3341 O   0  0  0  0  0  0  0  0  0  0  0  0
    6.4126  -13.9414   20.1746 C   0  0  0  0  0  0  0  0  0  0  0  0
    7.4382  -13.2690   21.0519 C   0  0  2  0  0  0  0  0  0  0  0  0
    7.8226  -11.8972   20.4702 C   0  0  0  0  0  0  0  0  0  0  0  0
    8.6744  -14.0481   21.2071 C   0  0  0  0  0  0  0  0  0  0  0  0
    8.6467  -15.3127   21.9784 C   0  0  2  0  0  0  0  0  0  0  0  0
    8.0557  -15.2951   23.2662 N   0  0  0  0  0  0  0  0  0  0  0  0
    9.9614  -15.9933   22.0434 C   0  0  0  0  0  0  0  0  0  0  0  0
   10.5407  -16.2833   20.9699 O   0  0  0  0  0  0  0  0  0  0  0  0
   10.5934  -16.3311   23.2662 N   0  0  0  0  0  0  0  0  0  0  0  0
   11.7681  -17.1773   23.2344 C   0  0  0  0  0  0  0  0  0  0  0  0
   12.9617  -16.3259   23.2787 C   0  0  0  0  0  0  0  0  0  0  0  0
   12.9353  -15.0641   23.1547 O   0  0  0  0  0  0  0  0  0  0  0  0
   14.2113  -16.9101   23.4668 O   0  0  0  0  0  0  0  0  0  0  0  0
  2  1  1  1
  2  3  1  0
  4  3  1  0
  5  4  2  0
  6  5  1  0
  7  8  1  0
  7  6  2  0
  8  9  2  0
  9  4  1  0
 10 17  1  0
 10  2  1  0
 11 10  2  0
 13 12  1  6
 13 14  1  0
 16 15  1  1
 15 13  1  0
 16 17  1  0
 18 16  1  0
 19 18  2  0
 20 18  1  0
 21 20  1  0
 22 21  1  0
 23 22  2  0
 24 22  1  0
M  END
$$$$
