FLG.pdb
     RDKit          3D

 24 24  0  0  1  0  0  0  0  0999 V2000
    6.5823  -17.6125   25.4739 N   0  0  0  0  0  0  0  0  0  0  0  0
    7.0732  -16.2844   25.1741 C   0  0  1  0  0  0  0  0  0  0  0  0
    7.8300  -15.7204   26.3564 C   0  0  0  0  0  0  0  0  0  0  0  0
    7.4525  -14.2995   26.4966 C   0  0  0  0  0  0  0  0  0  0  0  0
    6.1331  -13.9056   26.3616 C   0  0  0  0  0  0  0  0  0  0  0  0
    5.7542  -12.5875   26.4875 C   0  0  0  0  0  0  0  0  0  0  0  0
    6.7499  -11.6811   26.7539 C   0  0  0  0  0  0  0  0  0  0  0  0
    8.0677  -12.0498   26.8921 C   0  0  0  0  0  0  0  0  0  0  0  0
    8.4212  -13.3618   26.7634 C   0  0  0  0  0  0  0  0  0  0  0  0
    7.9098  -16.3614   23.9580 C   0  0  0  0  0  0  0  0  0  0  0  0
    8.2160  -17.4825   23.4837 O   0  0  0  0  0  0  0  0  0  0  0  0
    6.2783  -14.0230   20.5631 C   0  0  0  0  0  0  0  0  0  0  0  0
    7.3385  -13.2110   21.2631 C   0  0  2  0  0  0  0  0  0  0  0  0
    7.4931  -11.8373   20.5871 C   0  0  0  0  0  0  0  0  0  0  0  0
    8.6592  -13.8553   21.2673 C   0  0  0  0  0  0  0  0  0  0  0  0
    8.8628  -15.0947   22.0531 C   0  0  2  0  0  0  0  0  0  0  0  0
    8.3384  -15.1434   23.3686 N   0  0  0  0  0  0  0  0  0  0  0  0
   10.2681  -15.5651   22.0597 C   0  0  0  0  0  0  0  0  0  0  0  0
   10.8781  -15.6484   20.9675 O   0  0  0  0  0  0  0  0  0  0  0  0
   10.9533  -15.9254   23.2469 N   0  0  0  0  0  0  0  0  0  0  0  0
   12.3136  -16.4118   23.1475 C   0  0  0  0  0  0  0  0  0  0  0  0
   12.8319  -16.6376   24.5009 C   0  0  0  0  0  0  0  0  0  0  0  0
   14.0612  -16.5762   24.8067 O   0  0  0  0  0  0  0  0  0  0  0  0
   11.9452  -16.9389   25.5310 O   0  0  0  0  0  0  0  0  0  0  0  0
  2  1  1  1
  2  3  1  0
  4  3  1  0
  5  4  2  0
  6  5  1  0
  7  8  1  0
  7  6  2  0
  8  9  2  0
  9  4  1  0
 10 17  1  0
 10  2  1  0
 11 10  2  0
 13 12  1  6
 13 14  1  0
 16 15  1  1
 15 13  1  0
 16 17  1  0
 18 16  1  0
 19 18  2  0
 20 18  1  0
 21 20  1  0
 22 21  1  0
 23 22  2  0
 24 22  1  0
M  END
$$$$
