FLG.pdb
     RDKit          3D

 24 24  0  0  1  0  0  0  0  0999 V2000
    6.3726  -17.9265   25.0161 N   0  0  0  0  0  0  0  0  0  0  0  0
    6.8055  -16.5461   24.9722 C   0  0  1  0  0  0  0  0  0  0  0  0
    7.3926  -16.1329   26.3040 C   0  0  0  0  0  0  0  0  0  0  0  0
    7.2232  -14.6718   26.4369 C   0  0  0  0  0  0  0  0  0  0  0  0
    8.2990  -13.8659   26.7648 C   0  0  0  0  0  0  0  0  0  0  0  0
    8.1685  -12.5011   26.8950 C   0  0  0  0  0  0  0  0  0  0  0  0
    6.9176  -11.9771   26.6836 C   0  0  0  0  0  0  0  0  0  0  0  0
    5.8341  -12.7587   26.3569 C   0  0  0  0  0  0  0  0  0  0  0  0
    5.9859  -14.1095   26.2330 C   0  0  0  0  0  0  0  0  0  0  0  0
    7.7714  -16.3967   23.8634 C   0  0  0  0  0  0  0  0  0  0  0  0
    8.3066  -17.4159   23.3632 O   0  0  0  0  0  0  0  0  0  0  0  0
    6.4713  -13.9051   20.1517 C   0  0  0  0  0  0  0  0  0  0  0  0
    7.1593  -13.0557   21.1903 C   0  0  2  0  0  0  0  0  0  0  0  0
    7.2773  -11.6020   20.6996 C   0  0  0  0  0  0  0  0  0  0  0  0
    8.5118  -13.5232   21.5241 C   0  0  0  0  0  0  0  0  0  0  0  0
    8.6883  -14.8512   22.1567 C   0  0  2  0  0  0  0  0  0  0  0  0
    8.0571  -15.0845   23.4037 N   0  0  0  0  0  0  0  0  0  0  0  0
   10.1024  -15.2892   22.2250 C   0  0  0  0  0  0  0  0  0  0  0  0
   10.8008  -15.2266   21.1856 O   0  0  0  0  0  0  0  0  0  0  0  0
   10.7006  -15.7761   23.4141 N   0  0  0  0  0  0  0  0  0  0  0  0
   12.0791  -16.2173   23.3719 C   0  0  0  0  0  0  0  0  0  0  0  0
   12.4714  -16.6617   24.7135 C   0  0  0  0  0  0  0  0  0  0  0  0
   11.7666  -17.4264   25.4394 O   0  0  0  0  0  0  0  0  0  0  0  0
   13.6840  -16.2347   25.2477 O   0  0  0  0  0  0  0  0  0  0  0  0
  2  1  1  1
  2  3  1  0
  4  3  1  0
  5  4  2  0
  6  5  1  0
  7  8  1  0
  7  6  2  0
  8  9  2  0
  9  4  1  0
 10 17  1  0
 10  2  1  0
 11 10  2  0
 13 12  1  6
 13 14  1  0
 16 15  1  1
 15 13  1  0
 16 17  1  0
 18 16  1  0
 19 18  2  0
 20 18  1  0
 21 20  1  0
 22 21  1  0
 23 22  2  0
 24 22  1  0
M  END
$$$$
