FLG.pdb
     RDKit          3D

 24 24  0  0  1  0  0  0  0  0999 V2000
   10.5647  -17.1139   22.0675 N   0  0  0  0  0  0  0  0  0  0  0  0
    9.6387  -16.0268   22.3031 C   0  0  1  0  0  0  0  0  0  0  0  0
    8.3693  -16.2304   21.5057 C   0  0  0  0  0  0  0  0  0  0  0  0
    7.9125  -14.9054   21.0401 C   0  0  0  0  0  0  0  0  0  0  0  0
    6.6616  -14.4294   21.3908 C   0  0  0  0  0  0  0  0  0  0  0  0
    6.2112  -13.1977   20.9703 C   0  0  0  0  0  0  0  0  0  0  0  0
    7.0641  -12.4631   20.1850 C   0  0  0  0  0  0  0  0  0  0  0  0
    8.3116  -12.9161   19.8240 C   0  0  0  0  0  0  0  0  0  0  0  0
    8.7380  -14.1399   20.2519 C   0  0  0  0  0  0  0  0  0  0  0  0
    9.3806  -15.9426   23.7561 C   0  0  0  0  0  0  0  0  0  0  0  0
   10.2650  -16.3103   24.5673 O   0  0  0  0  0  0  0  0  0  0  0  0
    8.3354  -12.3071   26.5285 C   0  0  0  0  0  0  0  0  0  0  0  0
    7.1924  -12.7951   25.6749 C   0  0  2  0  0  0  0  0  0  0  0  0
    5.9315  -11.9529   25.9371 C   0  0  0  0  0  0  0  0  0  0  0  0
    6.8444  -14.2025   25.9144 C   0  0  0  0  0  0  0  0  0  0  0  0
    7.8112  -15.2644   25.5502 C   0  0  2  0  0  0  0  0  0  0  0  0
    8.1220  -15.4408   24.1790 N   0  0  0  0  0  0  0  0  0  0  0  0
    7.5043  -16.5778   26.1640 C   0  0  0  0  0  0  0  0  0  0  0  0
    7.3470  -16.6375   27.4065 O   0  0  0  0  0  0  0  0  0  0  0  0
    7.3807  -17.7703   25.4081 N   0  0  0  0  0  0  0  0  0  0  0  0
    6.8157  -18.9432   26.0421 C   0  0  0  0  0  0  0  0  0  0  0  0
    7.8738  -19.6267   26.7936 C   0  0  0  0  0  0  0  0  0  0  0  0
    7.6895  -20.6804   27.4750 O   0  0  0  0  0  0  0  0  0  0  0  0
    9.1669  -19.1111   26.7762 O   0  0  0  0  0  0  0  0  0  0  0  0
  2  1  1  1
  2  3  1  0
  4  3  1  0
  5  4  2  0
  6  5  1  0
  7  8  1  0
  7  6  2  0
  8  9  2  0
  9  4  1  0
 10 17  1  0
 10  2  1  0
 11 10  2  0
 13 12  1  1
 13 14  1  0
 16 15  1  6
 15 13  1  0
 16 17  1  0
 18 16  1  0
 19 18  2  0
 20 18  1  0
 21 20  1  0
 22 21  1  0
 23 22  2  0
 24 22  1  0
M  END
$$$$
