FLG.pdb
     RDKit          3D

 24 24  0  0  1  0  0  0  0  0999 V2000
    6.3780  -17.6329   25.3807 N   0  0  0  0  0  0  0  0  0  0  0  0
    6.9058  -16.3082   25.1328 C   0  0  1  0  0  0  0  0  0  0  0  0
    7.7425  -15.8439   26.3046 C   0  0  0  0  0  0  0  0  0  0  0  0
    7.4463  -14.4149   26.5313 C   0  0  0  0  0  0  0  0  0  0  0  0
    6.2328  -13.8774   26.1404 C   0  0  0  0  0  0  0  0  0  0  0  0
    5.9313  -12.5485   26.3400 C   0  0  0  0  0  0  0  0  0  0  0  0
    6.8939  -11.7809   26.9466 C   0  0  0  0  0  0  0  0  0  0  0  0
    8.1069  -12.2936   27.3435 C   0  0  0  0  0  0  0  0  0  0  0  0
    8.3850  -13.6136   27.1359 C   0  0  0  0  0  0  0  0  0  0  0  0
    7.6772  -16.3435   23.8724 C   0  0  0  0  0  0  0  0  0  0  0  0
    7.8961  -17.4430   23.3077 O   0  0  0  0  0  0  0  0  0  0  0  0
    7.2695  -12.3079   19.6383 C   0  0  0  0  0  0  0  0  0  0  0  0
    7.5183  -13.6995   20.1626 C   0  0  2  0  0  0  0  0  0  0  0  0
    6.1980  -14.3410   20.6244 C   0  0  0  0  0  0  0  0  0  0  0  0
    8.4515  -13.7377   21.2970 C   0  0  0  0  0  0  0  0  0  0  0  0
    8.6579  -15.0094   22.0284 C   0  0  2  0  0  0  0  0  0  0  0  0
    8.1453  -15.1115   23.3455 N   0  0  0  0  0  0  0  0  0  0  0  0
   10.0614  -15.4843   22.0024 C   0  0  0  0  0  0  0  0  0  0  0  0
   10.6075  -15.6819   20.8912 O   0  0  0  0  0  0  0  0  0  0  0  0
   10.8142  -15.7250   23.1789 N   0  0  0  0  0  0  0  0  0  0  0  0
   12.1939  -16.1454   23.0509 C   0  0  0  0  0  0  0  0  0  0  0  0
   12.7730  -16.2716   24.3926 C   0  0  0  0  0  0  0  0  0  0  0  0
   12.2189  -16.8981   25.3459 O   0  0  0  0  0  0  0  0  0  0  0  0
   14.0029  -15.6787   24.6648 O   0  0  0  0  0  0  0  0  0  0  0  0
  2  1  1  1
  2  3  1  0
  4  3  1  0
  5  4  2  0
  6  5  1  0
  7  8  1  0
  7  6  2  0
  8  9  2  0
  9  4  1  0
 10 17  1  0
 10  2  1  0
 11 10  2  0
 13 12  1  1
 13 14  1  0
 16 15  1  1
 15 13  1  0
 16 17  1  0
 18 16  1  0
 19 18  2  0
 20 18  1  0
 21 20  1  0
 22 21  1  0
 23 22  2  0
 24 22  1  0
M  END
$$$$
