FLG.pdb
     RDKit          3D

 24 24  0  0  1  0  0  0  0  0999 V2000
    7.6694  -18.8631   27.2956 N   0  0  0  0  0  0  0  0  0  0  0  0
    8.1427  -17.4985   27.2014 C   0  0  1  0  0  0  0  0  0  0  0  0
    9.6550  -17.4632   27.1784 C   0  0  0  0  0  0  0  0  0  0  0  0
   10.0896  -16.2786   27.9459 C   0  0  0  0  0  0  0  0  0  0  0  0
   10.3971  -16.3856   29.2906 C   0  0  0  0  0  0  0  0  0  0  0  0
   10.8047  -15.2970   30.0293 C   0  0  0  0  0  0  0  0  0  0  0  0
   10.8915  -14.0982   29.3666 C   0  0  0  0  0  0  0  0  0  0  0  0
   10.5909  -13.9683   28.0307 C   0  0  0  0  0  0  0  0  0  0  0  0
   10.1888  -15.0604   27.3175 C   0  0  0  0  0  0  0  0  0  0  0  0
    7.5493  -16.8827   25.9959 C   0  0  0  0  0  0  0  0  0  0  0  0
    6.6719  -17.5038   25.3479 O   0  0  0  0  0  0  0  0  0  0  0  0
    5.3846  -13.0636   25.9666 C   0  0  0  0  0  0  0  0  0  0  0  0
    6.8527  -12.8069   25.7382 C   0  0  2  0  0  0  0  0  0  0  0  0
    7.1186  -11.2962   25.6154 C   0  0  0  0  0  0  0  0  0  0  0  0
    7.3759  -13.4503   24.5251 C   0  0  0  0  0  0  0  0  0  0  0  0
    7.4925  -14.9264   24.4756 C   0  0  2  0  0  0  0  0  0  0  0  0
    8.0047  -15.5931   25.6162 N   0  0  0  0  0  0  0  0  0  0  0  0
    8.1772  -15.4238   23.2591 C   0  0  0  0  0  0  0  0  0  0  0  0
    7.7735  -15.0294   22.1395 O   0  0  0  0  0  0  0  0  0  0  0  0
    9.2691  -16.3264   23.3054 N   0  0  0  0  0  0  0  0  0  0  0  0
    9.9024  -16.7200   22.0641 C   0  0  0  0  0  0  0  0  0  0  0  0
   11.1321  -15.9384   21.8956 C   0  0  0  0  0  0  0  0  0  0  0  0
   12.0540  -15.8745   22.7642 O   0  0  0  0  0  0  0  0  0  0  0  0
   11.3261  -15.2137   20.7229 O   0  0  0  0  0  0  0  0  0  0  0  0
  2  1  1  6
  2  3  1  0
  4  3  1  0
  5  4  2  0
  6  5  1  0
  7  8  1  0
  7  6  2  0
  8  9  2  0
  9  4  1  0
 10 17  1  0
 10  2  1  0
 11 10  2  0
 13 12  1  6
 13 14  1  0
 16 15  1  1
 15 13  1  0
 16 17  1  0
 18 16  1  0
 19 18  2  0
 20 18  1  0
 21 20  1  0
 22 21  1  0
 23 22  2  0
 24 22  1  0
M  END
$$$$
