FLG.pdb
     RDKit          3D

 24 24  0  0  1  0  0  0  0  0999 V2000
    7.3800  -18.8402   26.9439 N   0  0  0  0  0  0  0  0  0  0  0  0
    7.9548  -17.5120   26.9531 C   0  0  1  0  0  0  0  0  0  0  0  0
    9.4298  -17.5758   27.2830 C   0  0  0  0  0  0  0  0  0  0  0  0
    9.7985  -16.3081   27.9450 C   0  0  0  0  0  0  0  0  0  0  0  0
    8.8538  -15.3167   28.1421 C   0  0  0  0  0  0  0  0  0  0  0  0
    9.1711  -14.1256   28.7565 C   0  0  0  0  0  0  0  0  0  0  0  0
   10.4720  -13.9684   29.1649 C   0  0  0  0  0  0  0  0  0  0  0  0
   11.4277  -14.9400   28.9795 C   0  0  0  0  0  0  0  0  0  0  0  0
   11.0915  -16.1131   28.3682 C   0  0  0  0  0  0  0  0  0  0  0  0
    7.7011  -16.8865   25.6381 C   0  0  0  0  0  0  0  0  0  0  0  0
    7.2698  -17.5861   24.6894 O   0  0  0  0  0  0  0  0  0  0  0  0
    5.2036  -13.3371   26.0303 C   0  0  0  0  0  0  0  0  0  0  0  0
    6.6319  -12.9268   25.7752 C   0  0  2  0  0  0  0  0  0  0  0  0
    6.7630  -11.3940   25.8142 C   0  0  0  0  0  0  0  0  0  0  0  0
    7.1478  -13.3841   24.4776 C   0  0  0  0  0  0  0  0  0  0  0  0
    7.6096  -14.7839   24.3293 C   0  0  2  0  0  0  0  0  0  0  0  0
    7.9605  -15.4976   25.5021 N   0  0  0  0  0  0  0  0  0  0  0  0
    8.6715  -14.9503   23.3091 C   0  0  0  0  0  0  0  0  0  0  0  0
    8.4677  -14.5088   22.1534 O   0  0  0  0  0  0  0  0  0  0  0  0
    9.9080  -15.5868   23.5822 N   0  0  0  0  0  0  0  0  0  0  0  0
   10.9449  -15.5601   22.5718 C   0  0  0  0  0  0  0  0  0  0  0  0
   10.9619  -16.8542   21.8817 C   0  0  0  0  0  0  0  0  0  0  0  0
   11.4676  -17.9096   22.3703 O   0  0  0  0  0  0  0  0  0  0  0  0
   10.3968  -16.9601   20.6138 O   0  0  0  0  0  0  0  0  0  0  0  0
  2  1  1  6
  2  3  1  0
  4  3  1  0
  5  4  2  0
  6  5  1  0
  7  8  1  0
  7  6  2  0
  8  9  2  0
  9  4  1  0
 10 17  1  0
 10  2  1  0
 11 10  2  0
 13 12  1  6
 13 14  1  0
 16 15  1  1
 15 13  1  0
 16 17  1  0
 18 16  1  0
 19 18  2  0
 20 18  1  0
 21 20  1  0
 22 21  1  0
 23 22  2  0
 24 22  1  0
M  END
$$$$
