NMR.pdb
     RDKit          3D

 28 27  0  0  1  0  0  0  0  0999 V2000
   28.6029  -18.2321  -16.8717 N   0  0  0  0  0  0  0  0  0  0  0  0
   28.6622  -19.6553  -17.0246 C   0  0  0  0  0  0  0  0  0  0  0  0
   29.3697  -20.1401  -17.9493 O   0  0  0  0  0  0  0  0  0  0  0  0
   27.9088  -20.5357  -16.1158 C   0  0  0  0  0  0  0  0  0  0  0  0
   27.1274  -19.6818  -15.1463 C   0  0  2  0  0  0  0  0  0  0  0  0
   27.9423  -18.7207  -14.4702 N   0  0  0  0  0  0  0  0  0  0  0  0
   26.5411  -20.5983  -14.1206 C   0  0  0  0  0  0  0  0  0  0  0  0
   25.9546  -21.6568  -14.4502 O   0  0  0  0  0  0  0  0  0  0  0  0
   27.0990  -19.5037   -8.0501 C   0  0  0  0  0  0  0  0  0  0  0  0
   25.8663  -20.8149   -7.7378 S   0  0  0  0  0  0  0  0  0  0  0  0
   25.3091  -21.3758   -9.4063 C   0  0  0  0  0  0  0  0  0  0  0  0
   26.1377  -20.6317  -10.4047 C   0  0  0  0  0  0  0  0  0  0  0  0
   25.7971  -21.0035  -11.8030 C   0  0  2  0  0  0  0  0  0  0  0  0
   26.6454  -20.2736  -12.7547 N   0  0  0  0  0  0  0  0  0  0  0  0
   24.4019  -20.5321  -12.1096 C   0  0  0  0  0  0  0  0  0  0  0  0
   24.1134  -19.3249  -12.3130 O   0  0  0  0  0  0  0  0  0  0  0  0
   19.2306  -20.1837  -17.7878 N   0  0  0  0  0  0  0  0  0  0  0  0
   20.4526  -20.8759  -17.7231 C   0  0  0  0  0  0  0  0  0  0  0  0
   21.2846  -20.7578  -18.6958 N   0  0  0  0  0  0  0  0  0  0  0  0
   20.7818  -21.6957  -16.6121 N   0  0  0  0  0  0  0  0  0  0  0  0
   19.8324  -21.9862  -15.5529 C   0  0  0  0  0  0  0  0  0  0  0  0
   20.2790  -21.2299  -14.3088 C   0  0  0  0  0  0  0  0  0  0  0  0
   21.6637  -21.6447  -13.8885 C   0  0  0  0  0  0  0  0  0  0  0  0
   22.0114  -20.9401  -12.5998 C   0  0  2  0  0  0  0  0  0  0  0  0
   23.3239  -21.4504  -12.1845 N   0  0  0  0  0  0  0  0  0  0  0  0
   21.0731  -21.2863  -11.5117 C   0  0  0  0  0  0  0  0  0  0  0  0
   21.3638  -22.0261  -10.5378 O   0  0  0  0  0  0  0  0  0  0  0  0
   19.7729  -20.7853  -11.5216 O   0  0  0  0  0  0  0  0  0  0  0  0
  2  3  2  0
  2  1  1  0
  4  2  1  0
  5  4  1  0
  5  6  1  1
  7  5  1  0
  8  7  2  0
 10 11  1  0
 10  9  1  0
 11 12  1  0
 13 12  1  1
 13 14  1  0
 14  7  1  0
 15 13  1  0
 15 16  2  0
 18 17  1  0
 18 19  2  0
 20 21  1  0
 20 18  1  0
 22 21  1  0
 23 22  1  0
 24 23  1  6
 25 24  1  0
 25 15  1  0
 26 28  1  0
 26 24  1  0
 27 26  2  0
M  END
$$$$
