NMR.pdb
     RDKit          3D

 28 27  0  0  1  0  0  0  0  0999 V2000
   27.9166  -17.7405  -17.2708 N   0  0  0  0  0  0  0  0  0  0  0  0
   28.1043  -18.0570  -15.8863 C   0  0  0  0  0  0  0  0  0  0  0  0
   29.1060  -17.5843  -15.2831 O   0  0  0  0  0  0  0  0  0  0  0  0
   27.1421  -18.9204  -15.1810 C   0  0  0  0  0  0  0  0  0  0  0  0
   27.8914  -20.0648  -14.5416 C   0  0  2  0  0  0  0  0  0  0  0  0
   28.3865  -21.0075  -15.4963 N   0  0  0  0  0  0  0  0  0  0  0  0
   26.9322  -20.7751  -13.6410 C   0  0  0  0  0  0  0  0  0  0  0  0
   26.3763  -21.8432  -13.9918 O   0  0  0  0  0  0  0  0  0  0  0  0
   25.4854  -19.9781   -7.3355 C   0  0  0  0  0  0  0  0  0  0  0  0
   27.2236  -20.3272   -7.7751 S   0  0  0  0  0  0  0  0  0  0  0  0
   27.1728  -20.9947   -9.4958 C   0  0  0  0  0  0  0  0  0  0  0  0
   25.8724  -20.5513  -10.0867 C   0  0  0  0  0  0  0  0  0  0  0  0
   25.7229  -20.9855  -11.5004 C   0  0  2  0  0  0  0  0  0  0  0  0
   26.6418  -20.2405  -12.3714 N   0  0  0  0  0  0  0  0  0  0  0  0
   24.3528  -20.6017  -11.9887 C   0  0  0  0  0  0  0  0  0  0  0  0
   24.0545  -19.4353  -12.3526 O   0  0  0  0  0  0  0  0  0  0  0  0
   20.7665  -26.1671  -16.6729 N   0  0  0  0  0  0  0  0  0  0  0  0
   21.8538  -25.9035  -15.8213 C   0  0  0  0  0  0  0  0  0  0  0  0
   22.7080  -26.8379  -15.5985 N   0  0  0  0  0  0  0  0  0  0  0  0
   22.0242  -24.6347  -15.2083 N   0  0  0  0  0  0  0  0  0  0  0  0
   21.2222  -23.4813  -15.5745 C   0  0  0  0  0  0  0  0  0  0  0  0
   21.7724  -22.2760  -14.8237 C   0  0  0  0  0  0  0  0  0  0  0  0
   21.4724  -22.3695  -13.3515 C   0  0  0  0  0  0  0  0  0  0  0  0
   22.0364  -21.1506  -12.6627 C   0  0  2  0  0  0  0  0  0  0  0  0
   23.3115  -21.5616  -12.0620 N   0  0  0  0  0  0  0  0  0  0  0  0
   21.1803  -20.7042  -11.5438 C   0  0  0  0  0  0  0  0  0  0  0  0
   21.4773  -20.8406  -10.3299 O   0  0  0  0  0  0  0  0  0  0  0  0
   19.9573  -20.0876  -11.7999 O   0  0  0  0  0  0  0  0  0  0  0  0
  2  3  2  0
  2  1  1  0
  4  2  1  0
  5  4  1  0
  5  6  1  6
  7  5  1  0
  8  7  2  0
 10 11  1  0
 10  9  1  0
 11 12  1  0
 13 12  1  1
 13 14  1  0
 14  7  1  0
 15 13  1  0
 15 16  2  0
 18 17  1  0
 18 19  2  0
 20 21  1  0
 20 18  1  0
 22 21  1  0
 23 22  1  0
 24 23  1  1
 25 24  1  0
 25 15  1  0
 26 28  1  0
 26 24  1  0
 27 26  2  0
M  END
$$$$
