NMR.pdb
     RDKit          3D

 28 27  0  0  1  0  0  0  0  0999 V2000
   20.8510  -21.8109  -12.3355 N   0  0  0  0  0  0  0  0  0  0  0  0
   21.3231  -20.7996  -11.4373 C   0  0  0  0  0  0  0  0  0  0  0  0
   20.5958  -20.4607  -10.4642 O   0  0  0  0  0  0  0  0  0  0  0  0
   22.6364  -20.1677  -11.6486 C   0  0  0  0  0  0  0  0  0  0  0  0
   23.3035  -20.8156  -12.8381 C   0  0  2  0  0  0  0  0  0  0  0  0
   23.3725  -22.2398  -12.7292 N   0  0  0  0  0  0  0  0  0  0  0  0
   24.7003  -20.2862  -12.9063 C   0  0  0  0  0  0  0  0  0  0  0  0
   24.9322  -19.0537  -12.8976 O   0  0  0  0  0  0  0  0  0  0  0  0
   29.4250  -21.2519   -8.3654 C   0  0  0  0  0  0  0  0  0  0  0  0
   29.3950  -21.8948  -10.0749 S   0  0  0  0  0  0  0  0  0  0  0  0
   28.1675  -20.8488  -10.9738 C   0  0  0  0  0  0  0  0  0  0  0  0
   28.1328  -21.3484  -12.3831 C   0  0  0  0  0  0  0  0  0  0  0  0
   27.1251  -20.6303  -13.2070 C   0  0  2  0  0  0  0  0  0  0  0  0
   25.7828  -21.1831  -12.9821 N   0  0  0  0  0  0  0  0  0  0  0  0
   27.4001  -20.8985  -14.6613 C   0  0  0  0  0  0  0  0  0  0  0  0
   27.3756  -22.0510  -15.1644 O   0  0  0  0  0  0  0  0  0  0  0  0
   22.1260  -17.1043  -17.0940 N   0  0  0  0  0  0  0  0  0  0  0  0
   22.1131  -18.4467  -16.6761 C   0  0  0  0  0  0  0  0  0  0  0  0
   21.0177  -18.9452  -16.2244 N   0  0  0  0  0  0  0  0  0  0  0  0
   23.2780  -19.2549  -16.7436 N   0  0  0  0  0  0  0  0  0  0  0  0
   24.5541  -18.7408  -17.2071 C   0  0  0  0  0  0  0  0  0  0  0  0
   25.5315  -19.9073  -17.2642 C   0  0  0  0  0  0  0  0  0  0  0  0
   26.8814  -19.4615  -17.7592 C   0  0  0  0  0  0  0  0  0  0  0  0
   27.9492  -20.1691  -16.9609 C   0  0  2  0  0  0  0  0  0  0  0  0
   27.7066  -19.8378  -15.5512 N   0  0  0  0  0  0  0  0  0  0  0  0
   29.3007  -19.6607  -17.2756 C   0  0  0  0  0  0  0  0  0  0  0  0
   29.7071  -18.5078  -16.9823 O   0  0  0  0  0  0  0  0  0  0  0  0
   30.2184  -20.4732  -17.9383 O   0  0  0  0  0  0  0  0  0  0  0  0
  2  3  2  0
  2  1  1  0
  4  2  1  0
  5  4  1  0
  5  6  1  1
  7  5  1  0
  8  7  2  0
 10 11  1  0
 10  9  1  0
 11 12  1  0
 13 12  1  1
 13 14  1  0
 14  7  1  0
 15 13  1  0
 15 16  2  0
 18 17  1  0
 18 19  2  0
 20 21  1  0
 20 18  1  0
 22 21  1  0
 23 22  1  0
 24 23  1  6
 25 24  1  0
 25 15  1  0
 26 28  1  0
 26 24  1  0
 27 26  2  0
M  END
$$$$
