NMR.pdb
     RDKit          3D

 28 27  0  0  1  0  0  0  0  0999 V2000
   29.9296  -20.1939  -16.5617 N   0  0  0  0  0  0  0  0  0  0  0  0
   28.5415  -20.3966  -16.8522 C   0  0  0  0  0  0  0  0  0  0  0  0
   28.1293  -20.1979  -18.0275 O   0  0  0  0  0  0  0  0  0  0  0  0
   27.6131  -20.8298  -15.7944 C   0  0  0  0  0  0  0  0  0  0  0  0
   28.3819  -20.9847  -14.5042 C   0  0  2  0  0  0  0  0  0  0  0  0
   29.3437  -22.0418  -14.5537 N   0  0  0  0  0  0  0  0  0  0  0  0
   27.3902  -21.3080  -13.4327 C   0  0  0  0  0  0  0  0  0  0  0  0
   26.4149  -22.0651  -13.6530 O   0  0  0  0  0  0  0  0  0  0  0  0
   26.8844  -19.4578   -7.1728 C   0  0  0  0  0  0  0  0  0  0  0  0
   28.4947  -20.1462   -7.6920 S   0  0  0  0  0  0  0  0  0  0  0  0
   28.1676  -21.0173   -9.2867 C   0  0  0  0  0  0  0  0  0  0  0  0
   26.8918  -20.4534   -9.8265 C   0  0  0  0  0  0  0  0  0  0  0  0
   26.5246  -21.0530  -11.1362 C   0  0  2  0  0  0  0  0  0  0  0  0
   27.5475  -20.7551  -12.1476 N   0  0  0  0  0  0  0  0  0  0  0  0
   25.2825  -20.3797  -11.6524 C   0  0  0  0  0  0  0  0  0  0  0  0
   25.2887  -19.2395  -12.1833 O   0  0  0  0  0  0  0  0  0  0  0  0
   22.2121  -25.4376  -14.1144 N   0  0  0  0  0  0  0  0  0  0  0  0
   21.1755  -24.8331  -14.8470 C   0  0  0  0  0  0  0  0  0  0  0  0
   20.0778  -25.4798  -15.0179 N   0  0  0  0  0  0  0  0  0  0  0  0
   21.3178  -23.5322  -15.3967 N   0  0  0  0  0  0  0  0  0  0  0  0
   22.4386  -22.6693  -15.0699 C   0  0  0  0  0  0  0  0  0  0  0  0
   21.9224  -21.5619  -14.1608 C   0  0  0  0  0  0  0  0  0  0  0  0
   23.0423  -20.6625  -13.7102 C   0  0  0  0  0  0  0  0  0  0  0  0
   22.8781  -20.3843  -12.2358 C   0  0  2  0  0  0  0  0  0  0  0  0
   24.0186  -21.0164  -11.5610 N   0  0  0  0  0  0  0  0  0  0  0  0
   21.6670  -21.0276  -11.6850 C   0  0  0  0  0  0  0  0  0  0  0  0
   21.6846  -21.9965  -10.8842 O   0  0  0  0  0  0  0  0  0  0  0  0
   20.4026  -20.5665  -12.0461 O   0  0  0  0  0  0  0  0  0  0  0  0
  2  3  2  0
  2  1  1  0
  4  2  1  0
  5  4  1  0
  5  6  1  6
  7  5  1  0
  8  7  2  0
 10 11  1  0
 10  9  1  0
 11 12  1  0
 13 12  1  1
 13 14  1  0
 14  7  1  0
 15 13  1  0
 15 16  2  0
 18 17  1  0
 18 19  2  0
 20 21  1  0
 20 18  1  0
 22 21  1  0
 23 22  1  0
 24 23  1  6
 25 24  1  0
 25 15  1  0
 26 28  1  0
 26 24  1  0
 27 26  2  0
M  END
$$$$
