NMR.pdb
     RDKit          3D

 28 27  0  0  1  0  0  0  0  0999 V2000
   20.2233   -9.0985    9.1709 N   0  0  0  0  0  0  0  0  0  0  0  0
   19.2522   -9.9724    8.5830 C   0  0  0  0  0  0  0  0  0  0  0  0
   18.0355   -9.6418    8.6157 O   0  0  0  0  0  0  0  0  0  0  0  0
   19.6700  -11.2354    7.9514 C   0  0  0  0  0  0  0  0  0  0  0  0
   21.1719  -11.3560    8.0493 C   0  0  2  0  0  0  0  0  0  0  0  0
   21.8473  -10.8377    6.9003 N   0  0  0  0  0  0  0  0  0  0  0  0
   21.4938  -12.8120    8.1605 C   0  0  0  0  0  0  0  0  0  0  0  0
   21.5758  -13.5418    7.1438 O   0  0  0  0  0  0  0  0  0  0  0  0
   24.9326  -15.0675   12.3113 C   0  0  0  0  0  0  0  0  0  0  0  0
   24.4007  -16.7807   11.9670 S   0  0  0  0  0  0  0  0  0  0  0  0
   22.8521  -16.6261   10.9735 C   0  0  0  0  0  0  0  0  0  0  0  0
   22.5745  -15.1623   10.8420 C   0  0  0  0  0  0  0  0  0  0  0  0
   22.0498  -14.8108    9.4963 C   0  0  2  0  0  0  0  0  0  0  0  0
   21.7109  -13.3830    9.4289 N   0  0  0  0  0  0  0  0  0  0  0  0
   20.7384  -15.5159    9.2821 C   0  0  0  0  0  0  0  0  0  0  0  0
   19.6355  -15.0469    9.6634 O   0  0  0  0  0  0  0  0  0  0  0  0
   16.2672  -18.6523    2.5796 N   0  0  0  0  0  0  0  0  0  0  0  0
   15.5811  -18.9495    3.7703 C   0  0  0  0  0  0  0  0  0  0  0  0
   14.3672  -19.3664    3.6992 N   0  0  0  0  0  0  0  0  0  0  0  0
   16.1996  -18.7991    5.0390 N   0  0  0  0  0  0  0  0  0  0  0  0
   17.5105  -18.1957    5.1974 C   0  0  0  0  0  0  0  0  0  0  0  0
   17.8047  -18.1091    6.6890 C   0  0  0  0  0  0  0  0  0  0  0  0
   19.1329  -17.4479    6.9436 C   0  0  0  0  0  0  0  0  0  0  0  0
   19.3713  -17.3952    8.4330 C   0  0  2  0  0  0  0  0  0  0  0  0
   20.6866  -16.7713    8.6246 N   0  0  0  0  0  0  0  0  0  0  0  0
   19.4677  -18.7463    9.0241 C   0  0  0  0  0  0  0  0  0  0  0  0
   20.5274  -19.4207    9.0745 O   0  0  0  0  0  0  0  0  0  0  0  0
   18.3399  -19.3532    9.5729 O   0  0  0  0  0  0  0  0  0  0  0  0
  2  3  2  0
  2  1  1  0
  4  2  1  0
  5  4  1  0
  5  6  1  6
  7  5  1  0
  8  7  2  0
 10 11  1  0
 10  9  1  0
 11 12  1  0
 13 12  1  1
 13 14  1  0
 14  7  1  0
 15 13  1  0
 15 16  2  0
 18 17  1  0
 18 19  2  0
 20 21  1  0
 20 18  1  0
 22 21  1  0
 23 22  1  0
 24 23  1  6
 25 24  1  0
 25 15  1  0
 26 28  1  0
 26 24  1  0
 27 26  2  0
M  END
$$$$
