NMR.pdb
     RDKit          3D

 28 27  0  0  1  0  0  0  0  0999 V2000
   13.9306  -12.9837    6.1407 N   0  0  0  0  0  0  0  0  0  0  0  0
   13.4989  -14.0474    5.2836 C   0  0  0  0  0  0  0  0  0  0  0  0
   12.2678  -14.1722    5.0395 O   0  0  0  0  0  0  0  0  0  0  0  0
   14.4783  -14.9785    4.6983 C   0  0  0  0  0  0  0  0  0  0  0  0
   15.8671  -14.5374    5.0938 C   0  0  2  0  0  0  0  0  0  0  0  0
   16.3205  -13.3999    4.3554 N   0  0  0  0  0  0  0  0  0  0  0  0
   16.7927  -15.6765    4.8081 C   0  0  0  0  0  0  0  0  0  0  0  0
   17.3718  -15.7850    3.7009 O   0  0  0  0  0  0  0  0  0  0  0  0
   22.5911  -17.5921    7.1583 C   0  0  0  0  0  0  0  0  0  0  0  0
   21.2431  -18.6079    7.8565 S   0  0  0  0  0  0  0  0  0  0  0  0
   20.0269  -18.8241    6.4842 C   0  0  0  0  0  0  0  0  0  0  0  0
   18.9264  -17.8419    6.7313 C   0  0  0  0  0  0  0  0  0  0  0  0
   18.0546  -17.6666    5.5402 C   0  0  2  0  0  0  0  0  0  0  0  0
   17.0241  -16.6515    5.7969 N   0  0  0  0  0  0  0  0  0  0  0  0
   17.2794  -18.9348    5.3093 C   0  0  0  0  0  0  0  0  0  0  0  0
   16.3757  -19.3390    6.0850 O   0  0  0  0  0  0  0  0  0  0  0  0
   12.9769  -22.5604   -0.4150 N   0  0  0  0  0  0  0  0  0  0  0  0
   14.3337  -22.6332   -0.7764 C   0  0  0  0  0  0  0  0  0  0  0  0
   14.6494  -23.1881   -1.8920 N   0  0  0  0  0  0  0  0  0  0  0  0
   15.3527  -22.1091    0.0613 N   0  0  0  0  0  0  0  0  0  0  0  0
   15.0572  -21.3108    1.2374 C   0  0  0  0  0  0  0  0  0  0  0  0
   16.3577  -20.6686    1.7013 C   0  0  0  0  0  0  0  0  0  0  0  0
   17.0807  -21.5526    2.6821 C   0  0  0  0  0  0  0  0  0  0  0  0
   16.8328  -21.0337    4.0776 C   0  0  2  0  0  0  0  0  0  0  0  0
   17.5399  -19.7509    4.1791 N   0  0  0  0  0  0  0  0  0  0  0  0
   17.4273  -21.9127    5.1063 C   0  0  0  0  0  0  0  0  0  0  0  0
   16.7956  -22.8116    5.7173 O   0  0  0  0  0  0  0  0  0  0  0  0
   18.7692  -21.7748    5.4555 O   0  0  0  0  0  0  0  0  0  0  0  0
  2  3  2  0
  2  1  1  0
  4  2  1  0
  5  4  1  0
  5  6  1  6
  7  5  1  0
  8  7  2  0
 10 11  1  0
 10  9  1  0
 11 12  1  0
 13 12  1  1
 13 14  1  0
 14  7  1  0
 15 13  1  0
 15 16  2  0
 18 17  1  0
 18 19  2  0
 20 21  1  0
 20 18  1  0
 22 21  1  0
 23 22  1  0
 24 23  1  6
 25 24  1  0
 25 15  1  0
 26 28  1  0
 26 24  1  0
 27 26  2  0
M  END
$$$$
