NMR.pdb
     RDKit          3D

 28 27  0  0  1  0  0  0  0  0999 V2000
   19.1684  -21.1637  -13.1846 N   0  0  0  0  0  0  0  0  0  0  0  0
   19.4513  -20.0635  -12.3118 C   0  0  0  0  0  0  0  0  0  0  0  0
   18.4893  -19.4276  -11.8009 O   0  0  0  0  0  0  0  0  0  0  0  0
   20.8431  -19.6831  -12.0173 C   0  0  0  0  0  0  0  0  0  0  0  0
   21.7701  -20.6702  -12.6852 C   0  0  2  0  0  0  0  0  0  0  0  0
   21.6298  -21.9983  -12.1739 N   0  0  0  0  0  0  0  0  0  0  0  0
   23.1694  -20.2148  -12.4193 C   0  0  0  0  0  0  0  0  0  0  0  0
   23.6030  -19.1332  -12.8830 O   0  0  0  0  0  0  0  0  0  0  0  0
   27.7181  -19.9416   -7.6689 C   0  0  0  0  0  0  0  0  0  0  0  0
   25.9744  -20.4268   -7.4228 S   0  0  0  0  0  0  0  0  0  0  0  0
   25.1370  -20.0915   -9.0338 C   0  0  0  0  0  0  0  0  0  0  0  0
   25.8812  -20.8706  -10.0712 C   0  0  0  0  0  0  0  0  0  0  0  0
   25.4104  -20.5627  -11.4471 C   0  0  2  0  0  0  0  0  0  0  0  0
   24.0239  -21.0108  -11.6331 N   0  0  0  0  0  0  0  0  0  0  0  0
   26.2018  -21.3809  -12.4304 C   0  0  0  0  0  0  0  0  0  0  0  0
   26.2844  -22.6346  -12.3724 O   0  0  0  0  0  0  0  0  0  0  0  0
   23.7630  -26.1944  -17.9916 N   0  0  0  0  0  0  0  0  0  0  0  0
   24.3939  -26.3081  -16.7403 C   0  0  0  0  0  0  0  0  0  0  0  0
   24.3083  -27.4202  -16.1013 N   0  0  0  0  0  0  0  0  0  0  0  0
   25.1179  -25.2263  -16.1745 N   0  0  0  0  0  0  0  0  0  0  0  0
   25.1544  -23.9109  -16.7878 C   0  0  0  0  0  0  0  0  0  0  0  0
   26.3875  -23.1878  -16.2628 C   0  0  0  0  0  0  0  0  0  0  0  0
   26.0414  -22.2985  -15.0986 C   0  0  0  0  0  0  0  0  0  0  0  0
   27.2924  -21.5882  -14.6416 C   0  0  2  0  0  0  0  0  0  0  0  0
   26.9073  -20.7596  -13.4923 N   0  0  0  0  0  0  0  0  0  0  0  0
   27.8026  -20.6551  -15.6679 C   0  0  0  0  0  0  0  0  0  0  0  0
   27.4254  -19.4619  -15.7869 O   0  0  0  0  0  0  0  0  0  0  0  0
   28.7634  -21.0782  -16.5841 O   0  0  0  0  0  0  0  0  0  0  0  0
  2  3  2  0
  2  1  1  0
  4  2  1  0
  5  4  1  0
  5  6  1  1
  7  5  1  0
  8  7  2  0
 10 11  1  0
 10  9  1  0
 11 12  1  0
 13 12  1  1
 13 14  1  0
 14  7  1  0
 15 13  1  0
 15 16  2  0
 18 17  1  0
 18 19  2  0
 20 21  1  0
 20 18  1  0
 22 21  1  0
 23 22  1  0
 24 23  1  6
 25 24  1  0
 25 15  1  0
 26 28  1  0
 26 24  1  0
 27 26  2  0
M  END
$$$$
