NMR.pdb
     RDKit          3D

 28 27  0  0  1  0  0  0  0  0999 V2000
   27.6019  -17.5915  -17.7212 N   0  0  0  0  0  0  0  0  0  0  0  0
   28.0794  -18.2982  -16.5701 C   0  0  0  0  0  0  0  0  0  0  0  0
   29.3176  -18.3069  -16.3303 O   0  0  0  0  0  0  0  0  0  0  0  0
   27.1381  -19.0022  -15.6829 C   0  0  0  0  0  0  0  0  0  0  0  0
   27.7618  -20.3061  -15.2465 C   0  0  2  0  0  0  0  0  0  0  0  0
   27.8568  -21.2596  -16.3080 N   0  0  0  0  0  0  0  0  0  0  0  0
   26.8855  -20.8824  -14.1807 C   0  0  0  0  0  0  0  0  0  0  0  0
   26.0481  -21.7796  -14.4387 O   0  0  0  0  0  0  0  0  0  0  0  0
   25.0762  -21.1135   -6.5515 C   0  0  0  0  0  0  0  0  0  0  0  0
   26.1721  -20.3873   -7.8196 S   0  0  0  0  0  0  0  0  0  0  0  0
   25.5246  -20.9956   -9.4381 C   0  0  0  0  0  0  0  0  0  0  0  0
   26.4893  -20.5341  -10.4837 C   0  0  0  0  0  0  0  0  0  0  0  0
   26.0910  -20.9745  -11.8464 C   0  0  2  0  0  0  0  0  0  0  0  0
   26.9966  -20.4135  -12.8579 N   0  0  0  0  0  0  0  0  0  0  0  0
   24.7483  -20.3838  -12.1794 C   0  0  0  0  0  0  0  0  0  0  0  0
   24.5717  -19.1578  -12.3977 O   0  0  0  0  0  0  0  0  0  0  0  0
   19.2537  -23.9616  -17.4079 N   0  0  0  0  0  0  0  0  0  0  0  0
   19.8129  -24.2378  -16.1479 C   0  0  0  0  0  0  0  0  0  0  0  0
   19.9569  -25.4635  -15.7883 N   0  0  0  0  0  0  0  0  0  0  0  0
   20.2183  -23.1963  -15.2728 N   0  0  0  0  0  0  0  0  0  0  0  0
   20.1050  -21.7937  -15.6298 C   0  0  0  0  0  0  0  0  0  0  0  0
   20.5901  -20.9719  -14.4431 C   0  0  0  0  0  0  0  0  0  0  0  0
   21.9230  -21.4661  -13.9482 C   0  0  0  0  0  0  0  0  0  0  0  0
   22.3605  -20.6042  -12.7889 C   0  0  2  0  0  0  0  0  0  0  0  0
   23.5939  -21.2032  -12.2639 N   0  0  0  0  0  0  0  0  0  0  0  0
   21.3844  -20.6353  -11.6797 C   0  0  0  0  0  0  0  0  0  0  0  0
   21.4745  -21.3940  -10.6813 O   0  0  0  0  0  0  0  0  0  0  0  0
   20.2776  -19.7890  -11.6961 O   0  0  0  0  0  0  0  0  0  0  0  0
  2  3  2  0
  2  1  1  0
  4  2  1  0
  5  4  1  0
  5  6  1  6
  7  5  1  0
  8  7  2  0
 10 11  1  0
 10  9  1  0
 11 12  1  0
 13 12  1  1
 13 14  1  0
 14  7  1  0
 15 13  1  0
 15 16  2  0
 18 17  1  0
 18 19  2  0
 20 21  1  0
 20 18  1  0
 22 21  1  0
 23 22  1  0
 24 23  1  6
 25 24  1  0
 25 15  1  0
 26 28  1  0
 26 24  1  0
 27 26  2  0
M  END
$$$$
