NMR.pdb
     RDKit          3D

 28 27  0  0  1  0  0  0  0  0999 V2000
   28.9474  -19.4560  -17.9318 N   0  0  0  0  0  0  0  0  0  0  0  0
   29.3832  -20.7106  -17.3945 C   0  0  0  0  0  0  0  0  0  0  0  0
   30.4143  -21.2547  -17.8756 O   0  0  0  0  0  0  0  0  0  0  0  0
   28.6379  -21.3523  -16.2984 C   0  0  0  0  0  0  0  0  0  0  0  0
   27.4012  -20.5367  -16.0067 C   0  0  2  0  0  0  0  0  0  0  0  0
   27.6983  -19.1826  -15.6557 N   0  0  0  0  0  0  0  0  0  0  0  0
   26.7108  -21.1774  -14.8453 C   0  0  0  0  0  0  0  0  0  0  0  0
   26.3588  -22.3808  -14.8781 O   0  0  0  0  0  0  0  0  0  0  0  0
   25.2959  -20.9675   -7.1789 C   0  0  0  0  0  0  0  0  0  0  0  0
   26.0992  -20.1495   -8.6010 S   0  0  0  0  0  0  0  0  0  0  0  0
   25.5211  -21.0725  -10.0920 C   0  0  0  0  0  0  0  0  0  0  0  0
   26.1983  -20.4468  -11.2696 C   0  0  0  0  0  0  0  0  0  0  0  0
   25.8117  -21.0979  -12.5488 C   0  0  2  0  0  0  0  0  0  0  0  0
   26.4469  -20.4212  -13.6875 N   0  0  0  0  0  0  0  0  0  0  0  0
   24.3374  -20.9009  -12.7731 C   0  0  0  0  0  0  0  0  0  0  0  0
   23.8297  -19.7892  -13.0698 O   0  0  0  0  0  0  0  0  0  0  0  0
   17.2742  -23.5793  -10.9789 N   0  0  0  0  0  0  0  0  0  0  0  0
   16.8232  -23.6223  -12.3099 C   0  0  0  0  0  0  0  0  0  0  0  0
   15.5824  -23.3897  -12.5522 N   0  0  0  0  0  0  0  0  0  0  0  0
   17.7059  -23.9152  -13.3822 N   0  0  0  0  0  0  0  0  0  0  0  0
   19.1153  -24.1944  -13.1738 C   0  0  0  0  0  0  0  0  0  0  0  0
   19.8504  -22.8616  -13.1254 C   0  0  0  0  0  0  0  0  0  0  0  0
   21.3402  -23.0650  -13.0530 C   0  0  0  0  0  0  0  0  0  0  0  0
   22.0057  -21.7215  -12.8787 C   0  0  2  0  0  0  0  0  0  0  0  0
   23.4326  -21.9867  -12.6568 N   0  0  0  0  0  0  0  0  0  0  0  0
   21.5252  -21.0211  -11.6693 C   0  0  0  0  0  0  0  0  0  0  0  0
   21.9444  -21.2518  -10.5067 O   0  0  0  0  0  0  0  0  0  0  0  0
   20.5466  -20.0347  -11.7729 O   0  0  0  0  0  0  0  0  0  0  0  0
  2  3  2  0
  2  1  1  0
  4  2  1  0
  5  4  1  0
  5  6  1  1
  7  5  1  0
  8  7  2  0
 10 11  1  0
 10  9  1  0
 11 12  1  0
 13 12  1  1
 13 14  1  0
 14  7  1  0
 15 13  1  0
 15 16  2  0
 18 17  1  0
 18 19  2  0
 20 21  1  0
 20 18  1  0
 22 21  1  0
 23 22  1  0
 24 23  1  1
 25 24  1  0
 25 15  1  0
 26 28  1  0
 26 24  1  0
 27 26  2  0
M  END
$$$$
