NMR.pdb
     RDKit          3D

 28 27  0  0  1  0  0  0  0  0999 V2000
   18.2216  -17.1802  -16.7569 N   0  0  0  0  0  0  0  0  0  0  0  0
   19.4999  -17.1342  -17.4019 C   0  0  0  0  0  0  0  0  0  0  0  0
   20.1756  -18.1954  -17.4925 O   0  0  0  0  0  0  0  0  0  0  0  0
   20.0145  -15.8678  -17.9495 C   0  0  0  0  0  0  0  0  0  0  0  0
   18.9483  -14.8077  -17.8112 C   0  0  2  0  0  0  0  0  0  0  0  0
   17.8900  -14.9564  -18.7614 N   0  0  0  0  0  0  0  0  0  0  0  0
   19.6041  -13.4850  -18.0486 C   0  0  0  0  0  0  0  0  0  0  0  0
   20.5574  -13.0917  -17.3348 O   0  0  0  0  0  0  0  0  0  0  0  0
   19.7133  -12.1925  -23.9757 C   0  0  0  0  0  0  0  0  0  0  0  0
   20.6455  -10.8104  -23.2292 S   0  0  0  0  0  0  0  0  0  0  0  0
   20.9511  -11.3105  -21.4783 C   0  0  0  0  0  0  0  0  0  0  0  0
   19.7251  -10.9357  -20.7078 C   0  0  0  0  0  0  0  0  0  0  0  0
   19.8066  -11.3595  -19.2854 C   0  0  2  0  0  0  0  0  0  0  0  0
   19.1479  -12.6583  -19.0929 N   0  0  0  0  0  0  0  0  0  0  0  0
   19.0040  -10.4059  -18.4432 C   0  0  0  0  0  0  0  0  0  0  0  0
   17.7572  -10.4944  -18.3035 O   0  0  0  0  0  0  0  0  0  0  0  0
   21.6827   -3.9561  -13.2265 N   0  0  0  0  0  0  0  0  0  0  0  0
   21.6405   -4.1736  -14.6149 C   0  0  0  0  0  0  0  0  0  0  0  0
   22.4172   -3.4862  -15.3743 N   0  0  0  0  0  0  0  0  0  0  0  0
   20.7634   -5.1308  -15.1886 N   0  0  0  0  0  0  0  0  0  0  0  0
   19.6960   -5.7585  -14.4308 C   0  0  0  0  0  0  0  0  0  0  0  0
   18.8454   -6.5624  -15.4052 C   0  0  0  0  0  0  0  0  0  0  0  0
   19.6649   -7.6166  -16.1003 C   0  0  0  0  0  0  0  0  0  0  0  0
   18.7776   -8.3621  -17.0672 C   0  0  2  0  0  0  0  0  0  0  0  0
   19.6331   -9.3388  -17.7528 N   0  0  0  0  0  0  0  0  0  0  0  0
   18.2421   -7.4745  -18.1206 C   0  0  0  0  0  0  0  0  0  0  0  0
   18.8657   -7.1655  -19.1675 O   0  0  0  0  0  0  0  0  0  0  0  0
   16.9702   -6.9207  -17.9906 O   0  0  0  0  0  0  0  0  0  0  0  0
  2  3  2  0
  2  1  1  0
  4  2  1  0
  5  4  1  0
  5  6  1  6
  7  5  1  0
  8  7  2  0
 10 11  1  0
 10  9  1  0
 11 12  1  0
 13 12  1  6
 13 14  1  0
 14  7  1  0
 15 13  1  0
 15 16  2  0
 18 17  1  0
 18 19  2  0
 20 21  1  0
 20 18  1  0
 22 21  1  0
 23 22  1  0
 24 23  1  1
 25 24  1  0
 25 15  1  0
 26 28  1  0
 26 24  1  0
 27 26  2  0
M  END
$$$$
