NMR.pdb
     RDKit          3D

 28 27  0  0  1  0  0  0  0  0999 V2000
   29.9711  -23.5407  -17.5034 N   0  0  0  0  0  0  0  0  0  0  0  0
   29.4478  -22.3400  -16.9230 C   0  0  0  0  0  0  0  0  0  0  0  0
   29.6162  -21.2465  -17.5286 O   0  0  0  0  0  0  0  0  0  0  0  0
   28.7255  -22.3842  -15.6405 C   0  0  0  0  0  0  0  0  0  0  0  0
   27.4124  -21.6551  -15.7950 C   0  0  2  0  0  0  0  0  0  0  0  0
   27.5770  -20.2467  -15.9807 N   0  0  0  0  0  0  0  0  0  0  0  0
   26.6344  -21.8705  -14.5364 C   0  0  0  0  0  0  0  0  0  0  0  0
   26.0574  -22.9596  -14.3040 O   0  0  0  0  0  0  0  0  0  0  0  0
   27.9959  -20.2214   -8.5368 C   0  0  0  0  0  0  0  0  0  0  0  0
   26.2813  -19.6001   -8.6398 S   0  0  0  0  0  0  0  0  0  0  0  0
   25.4793  -20.5854   -9.9796 C   0  0  0  0  0  0  0  0  0  0  0  0
   26.2732  -20.3394  -11.2231 C   0  0  0  0  0  0  0  0  0  0  0  0
   25.7117  -21.0578  -12.3971 C   0  0  2  0  0  0  0  0  0  0  0  0
   26.5428  -20.8345  -13.5876 N   0  0  0  0  0  0  0  0  0  0  0  0
   24.3814  -20.4520  -12.7520 C   0  0  0  0  0  0  0  0  0  0  0  0
   24.2213  -19.6627  -13.7180 O   0  0  0  0  0  0  0  0  0  0  0  0
   18.8087  -26.3392  -13.8611 N   0  0  0  0  0  0  0  0  0  0  0  0
   18.4716  -25.3117  -14.7597 C   0  0  0  0  0  0  0  0  0  0  0  0
   17.4695  -25.4802  -15.5470 N   0  0  0  0  0  0  0  0  0  0  0  0
   19.2115  -24.1016  -14.8129 N   0  0  0  0  0  0  0  0  0  0  0  0
   20.3393  -23.8417  -13.9364 C   0  0  0  0  0  0  0  0  0  0  0  0
   20.9672  -22.5226  -14.3664 C   0  0  0  0  0  0  0  0  0  0  0  0
   22.2135  -22.2302  -13.5743 C   0  0  0  0  0  0  0  0  0  0  0  0
   21.9709  -21.0091  -12.7208 C   0  0  2  0  0  0  0  0  0  0  0  0
   23.2205  -20.7512  -11.9943 N   0  0  0  0  0  0  0  0  0  0  0  0
   20.9397  -21.2526  -11.6906 C   0  0  0  0  0  0  0  0  0  0  0  0
   21.1632  -21.8097  -10.5860 O   0  0  0  0  0  0  0  0  0  0  0  0
   19.6218  -20.8577  -11.9111 O   0  0  0  0  0  0  0  0  0  0  0  0
  2  3  2  0
  2  1  1  0
  4  2  1  0
  5  4  1  0
  5  6  1  1
  7  5  1  0
  8  7  2  0
 10 11  1  0
 10  9  1  0
 11 12  1  0
 13 12  1  1
 13 14  1  0
 14  7  1  0
 15 13  1  0
 15 16  2  0
 18 17  1  0
 18 19  2  0
 20 21  1  0
 20 18  1  0
 22 21  1  0
 23 22  1  0
 24 23  1  6
 25 24  1  0
 25 15  1  0
 26 28  1  0
 26 24  1  0
 27 26  2  0
M  END
$$$$
