NMR.pdb
     RDKit          3D

 28 27  0  0  1  0  0  0  0  0999 V2000
   25.3793  -27.0314  -15.8473 N   0  0  0  0  0  0  0  0  0  0  0  0
   25.1349  -26.1545  -16.9535 C   0  0  0  0  0  0  0  0  0  0  0  0
   25.1396  -26.6305  -18.1215 O   0  0  0  0  0  0  0  0  0  0  0  0
   24.8826  -24.7212  -16.7282 C   0  0  0  0  0  0  0  0  0  0  0  0
   25.8643  -23.9186  -17.5477 C   0  0  2  0  0  0  0  0  0  0  0  0
   27.2250  -24.1649  -17.1831 N   0  0  0  0  0  0  0  0  0  0  0  0
   25.5710  -22.4732  -17.3010 C   0  0  0  0  0  0  0  0  0  0  0  0
   26.4872  -21.6172  -17.2709 O   0  0  0  0  0  0  0  0  0  0  0  0
   22.7208  -20.4544  -22.3148 C   0  0  0  0  0  0  0  0  0  0  0  0
   23.7901  -19.7133  -21.0327 S   0  0  0  0  0  0  0  0  0  0  0  0
   23.3976  -20.6247  -19.4757 C   0  0  0  0  0  0  0  0  0  0  0  0
   24.2263  -20.0026  -18.3972 C   0  0  0  0  0  0  0  0  0  0  0  0
   23.9654  -20.6141  -17.0677 C   0  0  2  0  0  0  0  0  0  0  0  0
   24.2418  -22.0566  -17.0973 N   0  0  0  0  0  0  0  0  0  0  0  0
   22.4946  -20.5223  -16.7661 C   0  0  0  0  0  0  0  0  0  0  0  0
   21.6908  -21.4679  -16.9697 O   0  0  0  0  0  0  0  0  0  0  0  0
   23.7132  -20.3440   -8.8089 N   0  0  0  0  0  0  0  0  0  0  0  0
   22.3136  -20.2954   -8.9340 C   0  0  0  0  0  0  0  0  0  0  0  0
   21.5919  -20.4133   -7.8768 N   0  0  0  0  0  0  0  0  0  0  0  0
   21.6882  -20.1196  -10.1960 N   0  0  0  0  0  0  0  0  0  0  0  0
   22.4264  -20.1845  -11.4444 C   0  0  0  0  0  0  0  0  0  0  0  0
   21.4652  -19.8300  -12.5712 C   0  0  0  0  0  0  0  0  0  0  0  0
   22.1607  -19.8528  -13.9061 C   0  0  0  0  0  0  0  0  0  0  0  0
   21.1762  -19.4407  -14.9734 C   0  0  2  0  0  0  0  0  0  0  0  0
   21.9356  -19.3362  -16.2257 N   0  0  0  0  0  0  0  0  0  0  0  0
   20.6175  -18.0964  -14.7187 C   0  0  0  0  0  0  0  0  0  0  0  0
   21.1262  -17.0284  -15.1440 O   0  0  0  0  0  0  0  0  0  0  0  0
   19.4546  -17.9522  -13.9647 O   0  0  0  0  0  0  0  0  0  0  0  0
  2  3  2  0
  2  1  1  0
  4  2  1  0
  5  4  1  0
  5  6  1  1
  7  5  1  0
  8  7  2  0
 10 11  1  0
 10  9  1  0
 11 12  1  0
 13 12  1  6
 13 14  1  0
 14  7  1  0
 15 13  1  0
 15 16  2  0
 18 17  1  0
 18 19  2  0
 20 21  1  0
 20 18  1  0
 22 21  1  0
 23 22  1  0
 24 23  1  1
 25 24  1  0
 25 15  1  0
 26 28  1  0
 26 24  1  0
 27 26  2  0
M  END
$$$$
