NMR.pdb
     RDKit          3D

 28 27  0  0  1  0  0  0  0  0999 V2000
   29.5241  -18.0567  -16.6687 N   0  0  0  0  0  0  0  0  0  0  0  0
   28.0916  -18.0643  -16.6506 C   0  0  0  0  0  0  0  0  0  0  0  0
   27.4680  -17.2898  -17.4265 O   0  0  0  0  0  0  0  0  0  0  0  0
   27.3615  -18.9625  -15.7403 C   0  0  0  0  0  0  0  0  0  0  0  0
   28.3558  -19.6660  -14.8481 C   0  0  2  0  0  0  0  0  0  0  0  0
   29.2797  -20.4782  -15.5774 N   0  0  0  0  0  0  0  0  0  0  0  0
   27.5780  -20.5551  -13.9313 C   0  0  0  0  0  0  0  0  0  0  0  0
   28.1507  -21.3869  -13.1876 O   0  0  0  0  0  0  0  0  0  0  0  0
   27.4206  -20.2965   -9.0099 C   0  0  0  0  0  0  0  0  0  0  0  0
   25.6135  -20.4840   -8.8209 S   0  0  0  0  0  0  0  0  0  0  0  0
   25.0306  -21.2564  -10.3934 C   0  0  0  0  0  0  0  0  0  0  0  0
   25.8010  -20.6066  -11.4985 C   0  0  0  0  0  0  0  0  0  0  0  0
   25.4596  -21.1756  -12.8287 C   0  0  2  0  0  0  0  0  0  0  0  0
   26.1737  -20.4626  -13.8962 N   0  0  0  0  0  0  0  0  0  0  0  0
   24.0058  -20.9158  -13.1144 C   0  0  0  0  0  0  0  0  0  0  0  0
   23.5155  -19.7599  -13.1875 O   0  0  0  0  0  0  0  0  0  0  0  0
   17.0671  -26.3297  -13.5898 N   0  0  0  0  0  0  0  0  0  0  0  0
   18.3275  -26.1191  -14.1764 C   0  0  0  0  0  0  0  0  0  0  0  0
   18.8799  -27.0834  -14.8223 N   0  0  0  0  0  0  0  0  0  0  0  0
   18.9953  -24.8712  -14.0693 N   0  0  0  0  0  0  0  0  0  0  0  0
   18.5932  -23.8546  -13.1141 C   0  0  0  0  0  0  0  0  0  0  0  0
   19.4367  -22.6136  -13.3742 C   0  0  0  0  0  0  0  0  0  0  0  0
   20.9063  -22.9252  -13.2771 C   0  0  0  0  0  0  0  0  0  0  0  0
   21.6891  -21.6649  -13.5543 C   0  0  2  0  0  0  0  0  0  0  0  0
   23.1016  -21.9891  -13.3189 N   0  0  0  0  0  0  0  0  0  0  0  0
   21.3514  -20.5857  -12.6028 C   0  0  0  0  0  0  0  0  0  0  0  0
   21.8674  -20.4625  -11.4631 O   0  0  0  0  0  0  0  0  0  0  0  0
   20.4072  -19.6197  -12.9449 O   0  0  0  0  0  0  0  0  0  0  0  0
  2  3  2  0
  2  1  1  0
  4  2  1  0
  5  4  1  0
  5  6  1  6
  7  5  1  0
  8  7  2  0
 10 11  1  0
 10  9  1  0
 11 12  1  0
 13 12  1  1
 13 14  1  0
 14  7  1  0
 15 13  1  0
 15 16  2  0
 18 17  1  0
 18 19  2  0
 20 21  1  0
 20 18  1  0
 22 21  1  0
 23 22  1  0
 24 23  1  1
 25 24  1  0
 25 15  1  0
 26 28  1  0
 26 24  1  0
 27 26  2  0
M  END
$$$$
