WKG.pdb
     RDKit          3D

 28 29  0  0  1  0  0  0  0  0999 V2000
    7.0698  -18.1886   24.1763 N   0  0  0  0  0  0  0  0  0  0  0  0
    7.1081  -16.7604   23.9222 C   0  0  1  0  0  0  0  0  0  0  0  0
    7.8240  -16.1330   25.0978 C   0  0  0  0  0  0  0  0  0  0  0  0
    7.0588  -15.0371   25.7160 C   0  0  0  0  0  0  0  0  0  0  0  0
    5.7560  -15.1070   26.1481 C   0  0  0  0  0  0  0  0  0  0  0  0
    5.4192  -13.9097   26.6494 N   0  0  0  0  0  0  0  0  0  0  0  0
    6.4439  -13.0361   26.5719 C   0  0  0  0  0  0  0  0  0  0  0  0
    6.6059  -11.7133   26.9391 C   0  0  0  0  0  0  0  0  0  0  0  0
    7.7946  -11.0550   26.7352 C   0  0  0  0  0  0  0  0  0  0  0  0
    8.8316  -11.7448   26.1523 C   0  0  0  0  0  0  0  0  0  0  0  0
    8.6674  -13.0638   25.7870 C   0  0  0  0  0  0  0  0  0  0  0  0
    7.4825  -13.7525   25.9799 C   0  0  0  0  0  0  0  0  0  0  0  0
    7.8070  -16.5410   22.6485 C   0  0  0  0  0  0  0  0  0  0  0  0
    8.7151  -17.3204   22.2990 O   0  0  0  0  0  0  0  0  0  0  0  0
    7.4693  -15.4612   21.8094 N   0  0  0  0  0  0  0  0  0  0  0  0
    8.2177  -15.1065   20.6046 C   0  0  1  0  0  0  0  0  0  0  0  0
    7.6687  -13.8480   19.9751 C   0  0  0  0  0  0  0  0  0  0  0  0
    8.4900  -13.3335   18.8403 C   0  0  0  0  0  0  0  0  0  0  0  0
    8.1367  -13.8977   17.5044 C   0  0  0  0  0  0  0  0  0  0  0  0
    9.0367  -13.4122   16.3974 C   0  0  0  0  0  0  0  0  0  0  0  0
    8.7891  -14.0845   15.1356 N   0  0  0  0  0  0  0  0  0  0  0  0
    9.6423  -14.8178   20.9546 C   0  0  0  0  0  0  0  0  0  0  0  0
    9.8544  -14.2331   22.0418 O   0  0  0  0  0  0  0  0  0  0  0  0
   10.7425  -15.1628   20.1394 N   0  0  0  0  0  0  0  0  0  0  0  0
   12.1053  -14.8171   20.4305 C   0  0  0  0  0  0  0  0  0  0  0  0
   13.0279  -15.1285   19.3217 C   0  0  0  0  0  0  0  0  0  0  0  0
   12.6217  -15.7976   18.3515 O   0  0  0  0  0  0  0  0  0  0  0  0
   14.3323  -14.6893   19.3450 O   0  0  0  0  0  0  0  0  0  0  0  0
  2  1  1  1
  2  3  1  0
  2 13  1  0
  3  4  1  0
  4  5  2  0
  5  6  1  0
  7  6  1  0
  8  7  2  0
  9  8  1  0
 10 11  1  0
 10  9  2  0
 11 12  2  0
 12  4  1  0
 12  7  1  0
 13 15  1  0
 13 14  2  0
 15 16  1  0
 16 17  1  1
 18 17  1  0
 19 18  1  0
 20 19  1  0
 21 20  1  0
 22 24  1  0
 22 16  1  0
 23 22  2  0
 25 24  1  0
 26 28  1  0
 26 25  1  0
 27 26  2  0
M  END
$$$$
