WKG.pdb
     RDKit          3D

 28 29  0  0  1  0  0  0  0  0999 V2000
    6.3386  -17.6435   23.7641 N   0  0  0  0  0  0  0  0  0  0  0  0
    6.9117  -16.3183   23.6190 C   0  0  1  0  0  0  0  0  0  0  0  0
    7.8308  -16.1147   24.8030 C   0  0  0  0  0  0  0  0  0  0  0  0
    7.2354  -15.2693   25.8516 C   0  0  0  0  0  0  0  0  0  0  0  0
    6.5026  -15.7135   26.9261 C   0  0  0  0  0  0  0  0  0  0  0  0
    6.1369  -14.6458   27.6503 N   0  0  0  0  0  0  0  0  0  0  0  0
    6.5946  -13.4998   27.1058 C   0  0  0  0  0  0  0  0  0  0  0  0
    6.4949  -12.1660   27.4546 C   0  0  0  0  0  0  0  0  0  0  0  0
    7.0772  -11.1821   26.6923 C   0  0  0  0  0  0  0  0  0  0  0  0
    7.7687  -11.5538   25.5632 C   0  0  0  0  0  0  0  0  0  0  0  0
    7.8665  -12.8847   25.2177 C   0  0  0  0  0  0  0  0  0  0  0  0
    7.2907  -13.8970   25.9656 C   0  0  0  0  0  0  0  0  0  0  0  0
    7.6210  -16.2650   22.3334 C   0  0  0  0  0  0  0  0  0  0  0  0
    7.8151  -17.3151   21.6899 O   0  0  0  0  0  0  0  0  0  0  0  0
    8.0888  -15.0437   21.8101 N   0  0  0  0  0  0  0  0  0  0  0  0
    8.8399  -14.9322   20.5607 C   0  0  1  0  0  0  0  0  0  0  0  0
    8.6451  -13.5739   19.9295 C   0  0  0  0  0  0  0  0  0  0  0  0
    7.7762  -13.5917   18.7163 C   0  0  0  0  0  0  0  0  0  0  0  0
    8.4241  -14.1413   17.4891 C   0  0  0  0  0  0  0  0  0  0  0  0
    7.5409  -14.0738   16.2699 C   0  0  0  0  0  0  0  0  0  0  0  0
    8.1271  -14.7266   15.1141 N   0  0  0  0  0  0  0  0  0  0  0  0
   10.3041  -15.0672   20.8310 C   0  0  0  0  0  0  0  0  0  0  0  0
   11.0409  -14.1243   20.4608 O   0  0  0  0  0  0  0  0  0  0  0  0
   10.8910  -16.1812   21.4701 N   0  0  0  0  0  0  0  0  0  0  0  0
   11.6427  -17.1997   20.7925 C   0  0  0  0  0  0  0  0  0  0  0  0
   12.9432  -16.7171   20.2895 C   0  0  0  0  0  0  0  0  0  0  0  0
   13.0708  -16.4353   19.0819 O   0  0  0  0  0  0  0  0  0  0  0  0
   14.0182  -16.5738   21.1374 O   0  0  0  0  0  0  0  0  0  0  0  0
  2  1  1  1
  2  3  1  0
  2 13  1  0
  3  4  1  0
  4  5  2  0
  5  6  1  0
  7  6  1  0
  8  7  2  0
  9  8  1  0
 10 11  1  0
 10  9  2  0
 11 12  2  0
 12  4  1  0
 12  7  1  0
 13 15  1  0
 13 14  2  0
 15 16  1  0
 16 17  1  1
 18 17  1  0
 19 18  1  0
 20 19  1  0
 21 20  1  0
 22 24  1  0
 22 16  1  0
 23 22  2  0
 25 24  1  0
 26 28  1  0
 26 25  1  0
 27 26  2  0
M  END
$$$$
