WKG.pdb
     RDKit          3D

 28 29  0  0  1  0  0  0  0  0999 V2000
    6.4246  -18.2885   24.4215 N   0  0  0  0  0  0  0  0  0  0  0  0
    6.8437  -16.9118   24.2350 C   0  0  1  0  0  0  0  0  0  0  0  0
    7.3954  -16.4458   25.5641 C   0  0  0  0  0  0  0  0  0  0  0  0
    6.7684  -15.2011   26.0399 C   0  0  0  0  0  0  0  0  0  0  0  0
    5.6254  -15.1126   26.7978 C   0  0  0  0  0  0  0  0  0  0  0  0
    5.3774  -13.8148   27.0266 N   0  0  0  0  0  0  0  0  0  0  0  0
    6.3085  -13.0256   26.4525 C   0  0  0  0  0  0  0  0  0  0  0  0
    6.5018  -11.6582   26.3935 C   0  0  0  0  0  0  0  0  0  0  0  0
    7.5680  -11.1153   25.7178 C   0  0  0  0  0  0  0  0  0  0  0  0
    8.4487  -11.9677   25.0943 C   0  0  0  0  0  0  0  0  0  0  0  0
    8.2535  -13.3310   25.1547 C   0  0  0  0  0  0  0  0  0  0  0  0
    7.1895  -13.9062   25.8274 C   0  0  0  0  0  0  0  0  0  0  0  0
    7.8461  -16.8804   23.1612 C   0  0  0  0  0  0  0  0  0  0  0  0
    8.5718  -17.8746   22.9631 O   0  0  0  0  0  0  0  0  0  0  0  0
    8.0045  -15.7424   22.3462 N   0  0  0  0  0  0  0  0  0  0  0  0
    8.9828  -15.6510   21.2635 C   0  0  1  0  0  0  0  0  0  0  0  0
    8.7500  -14.4171   20.4241 C   0  0  0  0  0  0  0  0  0  0  0  0
    8.4864  -14.7082   18.9843 C   0  0  0  0  0  0  0  0  0  0  0  0
    8.5164  -13.5152   18.0879 C   0  0  0  0  0  0  0  0  0  0  0  0
    8.1293  -13.8306   16.6660 C   0  0  0  0  0  0  0  0  0  0  0  0
    8.0169  -12.6445   15.8376 N   0  0  0  0  0  0  0  0  0  0  0  0
   10.3608  -15.5240   21.8295 C   0  0  0  0  0  0  0  0  0  0  0  0
   10.4795  -14.8884   22.9023 O   0  0  0  0  0  0  0  0  0  0  0  0
   11.5157  -16.0726   21.2301 N   0  0  0  0  0  0  0  0  0  0  0  0
   12.8593  -15.7709   21.6362 C   0  0  0  0  0  0  0  0  0  0  0  0
   13.4139  -16.7646   22.5756 C   0  0  0  0  0  0  0  0  0  0  0  0
   12.7091  -17.7245   22.9441 O   0  0  0  0  0  0  0  0  0  0  0  0
   14.7004  -16.6451   23.0505 O   0  0  0  0  0  0  0  0  0  0  0  0
  2  1  1  1
  2  3  1  0
  2 13  1  0
  3  4  1  0
  4  5  2  0
  5  6  1  0
  7  6  1  0
  8  7  2  0
  9  8  1  0
 10 11  1  0
 10  9  2  0
 11 12  2  0
 12  4  1  0
 12  7  1  0
 13 15  1  0
 13 14  2  0
 15 16  1  0
 16 17  1  1
 18 17  1  0
 19 18  1  0
 20 19  1  0
 21 20  1  0
 22 24  1  0
 22 16  1  0
 23 22  2  0
 25 24  1  0
 26 28  1  0
 26 25  1  0
 27 26  2  0
M  END
$$$$
