WKG.pdb
     RDKit          3D

 28 29  0  0  1  0  0  0  0  0999 V2000
    6.7563  -18.6468   25.0611 N   0  0  0  0  0  0  0  0  0  0  0  0
    6.8415  -17.2549   24.6595 C   0  0  1  0  0  0  0  0  0  0  0  0
    7.3579  -16.4915   25.8589 C   0  0  0  0  0  0  0  0  0  0  0  0
    6.6056  -15.2519   26.1161 C   0  0  0  0  0  0  0  0  0  0  0  0
    5.2374  -15.1363   26.1741 C   0  0  0  0  0  0  0  0  0  0  0  0
    4.9385  -13.8539   26.4278 N   0  0  0  0  0  0  0  0  0  0  0  0
    6.0518  -13.1011   26.5428 C   0  0  0  0  0  0  0  0  0  0  0  0
    6.2813  -11.7612   26.7933 C   0  0  0  0  0  0  0  0  0  0  0  0
    7.5568  -11.2539   26.8568 C   0  0  0  0  0  0  0  0  0  0  0  0
    8.6122  -12.1141   26.6642 C   0  0  0  0  0  0  0  0  0  0  0  0
    8.3805  -13.4498   26.4146 C   0  0  0  0  0  0  0  0  0  0  0  0
    7.1076  -13.9890   26.3449 C   0  0  0  0  0  0  0  0  0  0  0  0
    7.7402  -17.1676   23.5003 C   0  0  0  0  0  0  0  0  0  0  0  0
    8.5380  -18.0962   23.2647 O   0  0  0  0  0  0  0  0  0  0  0  0
    7.7181  -16.0488   22.6447 N   0  0  0  0  0  0  0  0  0  0  0  0
    8.6973  -15.8212   21.5831 C   0  0  1  0  0  0  0  0  0  0  0  0
    8.3619  -14.5790   20.7922 C   0  0  0  0  0  0  0  0  0  0  0  0
    8.3670  -14.7855   19.3142 C   0  0  0  0  0  0  0  0  0  0  0  0
    8.3324  -13.5312   18.5059 C   0  0  0  0  0  0  0  0  0  0  0  0
    8.2632  -13.7826   17.0216 C   0  0  0  0  0  0  0  0  0  0  0  0
    8.2491  -12.5576   16.2439 N   0  0  0  0  0  0  0  0  0  0  0  0
   10.0504  -15.5925   22.1766 C   0  0  0  0  0  0  0  0  0  0  0  0
   10.1380  -14.7276   23.0784 O   0  0  0  0  0  0  0  0  0  0  0  0
   11.2148  -16.2870   21.7820 N   0  0  0  0  0  0  0  0  0  0  0  0
   12.4868  -15.6649   21.5445 C   0  0  0  0  0  0  0  0  0  0  0  0
   13.5432  -16.6317   21.1882 C   0  0  0  0  0  0  0  0  0  0  0  0
   14.7226  -16.2432   21.0790 O   0  0  0  0  0  0  0  0  0  0  0  0
   13.2426  -17.9579   20.9746 O   0  0  0  0  0  0  0  0  0  0  0  0
  2  1  1  1
  2  3  1  0
  2 13  1  0
  3  4  1  0
  4  5  2  0
  5  6  1  0
  7  6  1  0
  8  7  2  0
  9  8  1  0
 10 11  1  0
 10  9  2  0
 11 12  2  0
 12  4  1  0
 12  7  1  0
 13 15  1  0
 13 14  2  0
 15 16  1  0
 16 17  1  1
 18 17  1  0
 19 18  1  0
 20 19  1  0
 21 20  1  0
 22 24  1  0
 22 16  1  0
 23 22  2  0
 25 24  1  0
 26 28  1  0
 26 25  1  0
 27 26  2  0
M  END
$$$$
