WKG.pdb
     RDKit          3D

 28 29  0  0  1  0  0  0  0  0999 V2000
    6.8896  -18.7824   25.0541 N   0  0  0  0  0  0  0  0  0  0  0  0
    6.8391  -17.3519   24.8155 C   0  0  1  0  0  0  0  0  0  0  0  0
    7.3746  -16.6879   26.0647 C   0  0  0  0  0  0  0  0  0  0  0  0
    6.7436  -15.3853   26.3363 C   0  0  0  0  0  0  0  0  0  0  0  0
    5.3942  -15.1516   26.4522 C   0  0  0  0  0  0  0  0  0  0  0  0
    5.2180  -13.8455   26.7000 N   0  0  0  0  0  0  0  0  0  0  0  0
    6.3957  -13.1903   26.7555 C   0  0  0  0  0  0  0  0  0  0  0  0
    6.7502  -11.8726   26.9763 C   0  0  0  0  0  0  0  0  0  0  0  0
    8.0659  -11.4766   26.9768 C   0  0  0  0  0  0  0  0  0  0  0  0
    9.0342  -12.4267   26.7510 C   0  0  0  0  0  0  0  0  0  0  0  0
    8.6779  -13.7400   26.5311 C   0  0  0  0  0  0  0  0  0  0  0  0
    7.3617  -14.1681   26.5247 C   0  0  0  0  0  0  0  0  0  0  0  0
    7.6479  -17.0582   23.6246 C   0  0  0  0  0  0  0  0  0  0  0  0
    8.6141  -17.7916   23.3366 O   0  0  0  0  0  0  0  0  0  0  0  0
    7.3516  -15.9577   22.7966 N   0  0  0  0  0  0  0  0  0  0  0  0
    8.1481  -15.5848   21.6287 C   0  0  1  0  0  0  0  0  0  0  0  0
    7.6483  -14.2962   21.0196 C   0  0  0  0  0  0  0  0  0  0  0  0
    8.4150  -13.8613   19.8153 C   0  0  0  0  0  0  0  0  0  0  0  0
    7.6144  -13.7794   18.5583 C   0  0  0  0  0  0  0  0  0  0  0  0
    8.4413  -13.4254   17.3492 C   0  0  0  0  0  0  0  0  0  0  0  0
    7.6410  -13.2552   16.1508 N   0  0  0  0  0  0  0  0  0  0  0  0
    9.5659  -15.3391   22.0345 C   0  0  0  0  0  0  0  0  0  0  0  0
    9.7529  -14.6311   23.0506 O   0  0  0  0  0  0  0  0  0  0  0  0
   10.6862  -15.8535   21.3457 N   0  0  0  0  0  0  0  0  0  0  0  0
   12.0489  -15.5293   21.6609 C   0  0  0  0  0  0  0  0  0  0  0  0
   13.0112  -16.0737   20.6836 C   0  0  0  0  0  0  0  0  0  0  0  0
   12.6018  -16.7897   19.7489 O   0  0  0  0  0  0  0  0  0  0  0  0
   14.3562  -15.8006   20.7908 O   0  0  0  0  0  0  0  0  0  0  0  0
  2  1  1  1
  2  3  1  0
  2 13  1  0
  3  4  1  0
  4  5  2  0
  5  6  1  0
  7  6  1  0
  8  7  2  0
  9  8  1  0
 10 11  1  0
 10  9  2  0
 11 12  2  0
 12  4  1  0
 12  7  1  0
 13 15  1  0
 13 14  2  0
 15 16  1  0
 16 17  1  1
 18 17  1  0
 19 18  1  0
 20 19  1  0
 21 20  1  0
 22 24  1  0
 22 16  1  0
 23 22  2  0
 25 24  1  0
 26 28  1  0
 26 25  1  0
 27 26  2  0
M  END
$$$$
