WKG.pdb
     RDKit          3D

 28 29  0  0  1  0  0  0  0  0999 V2000
    8.5593  -16.7492   24.7971 N   0  0  0  0  0  0  0  0  0  0  0  0
    7.2767  -16.7934   24.1197 C   0  0  1  0  0  0  0  0  0  0  0  0
    6.3634  -15.8455   24.8649 C   0  0  0  0  0  0  0  0  0  0  0  0
    7.0442  -15.1386   25.9628 C   0  0  0  0  0  0  0  0  0  0  0  0
    7.8206  -15.7194   26.9368 C   0  0  0  0  0  0  0  0  0  0  0  0
    8.2618  -14.7492   27.7506 N   0  0  0  0  0  0  0  0  0  0  0  0
    7.8131  -13.5377   27.3630 C   0  0  0  0  0  0  0  0  0  0  0  0
    7.9763  -12.2542   27.8496 C   0  0  0  0  0  0  0  0  0  0  0  0
    7.3853  -11.1763   27.2358 C   0  0  0  0  0  0  0  0  0  0  0  0
    6.6198  -11.4011   26.1157 C   0  0  0  0  0  0  0  0  0  0  0  0
    6.4587  -12.6821   25.6326 C   0  0  0  0  0  0  0  0  0  0  0  0
    7.0414  -13.7865   26.2295 C   0  0  0  0  0  0  0  0  0  0  0  0
    7.4851  -16.3989   22.7198 C   0  0  0  0  0  0  0  0  0  0  0  0
    6.5113  -16.3335   21.9440 O   0  0  0  0  0  0  0  0  0  0  0  0
    8.7709  -16.0910   22.2338 N   0  0  0  0  0  0  0  0  0  0  0  0
    9.0135  -15.3132   21.0199 C   0  0  1  0  0  0  0  0  0  0  0  0
    8.2256  -14.0246   21.0341 C   0  0  0  0  0  0  0  0  0  0  0  0
    8.4034  -13.1955   19.8060 C   0  0  0  0  0  0  0  0  0  0  0  0
    8.0145  -13.8699   18.5326 C   0  0  0  0  0  0  0  0  0  0  0  0
    8.1728  -12.9881   17.3208 C   0  0  0  0  0  0  0  0  0  0  0  0
    7.7213  -13.6261   16.0983 N   0  0  0  0  0  0  0  0  0  0  0  0
   10.4556  -14.9266   20.9404 C   0  0  0  0  0  0  0  0  0  0  0  0
   10.8683  -14.0917   21.7780 O   0  0  0  0  0  0  0  0  0  0  0  0
   11.3616  -15.4431   19.9884 N   0  0  0  0  0  0  0  0  0  0  0  0
   12.4554  -14.7018   19.4268 C   0  0  0  0  0  0  0  0  0  0  0  0
   13.2271  -15.4760   18.4356 C   0  0  0  0  0  0  0  0  0  0  0  0
   12.9226  -16.6633   18.2086 O   0  0  0  0  0  0  0  0  0  0  0  0
   14.2796  -14.9035   17.7578 O   0  0  0  0  0  0  0  0  0  0  0  0
  2  1  1  1
  2  3  1  0
  2 13  1  0
  3  4  1  0
  4  5  2  0
  5  6  1  0
  7  6  1  0
  8  7  2  0
  9  8  1  0
 10 11  1  0
 10  9  2  0
 11 12  2  0
 12  4  1  0
 12  7  1  0
 13 15  1  0
 13 14  2  0
 15 16  1  0
 16 17  1  1
 18 17  1  0
 19 18  1  0
 20 19  1  0
 21 20  1  0
 22 24  1  0
 22 16  1  0
 23 22  2  0
 25 24  1  0
 26 28  1  0
 26 25  1  0
 27 26  2  0
M  END
$$$$
