WKG.pdb
     RDKit          3D

 28 29  0  0  1  0  0  0  0  0999 V2000
    6.9359  -18.3135   24.2071 N   0  0  0  0  0  0  0  0  0  0  0  0
    6.9771  -16.8706   24.0583 C   0  0  1  0  0  0  0  0  0  0  0  0
    7.6431  -16.3283   25.3035 C   0  0  0  0  0  0  0  0  0  0  0  0
    6.8670  -15.2547   25.9468 C   0  0  0  0  0  0  0  0  0  0  0  0
    5.6172  -15.3857   26.5033 C   0  0  0  0  0  0  0  0  0  0  0  0
    5.2492  -14.1897   26.9856 N   0  0  0  0  0  0  0  0  0  0  0  0
    6.2021  -13.2584   26.7758 C   0  0  0  0  0  0  0  0  0  0  0  0
    6.3088  -11.9125   27.0722 C   0  0  0  0  0  0  0  0  0  0  0  0
    7.4273  -11.1914   26.7298 C   0  0  0  0  0  0  0  0  0  0  0  0
    8.4497  -11.8415   26.0792 C   0  0  0  0  0  0  0  0  0  0  0  0
    8.3405  -13.1837   25.7848 C   0  0  0  0  0  0  0  0  0  0  0  0
    7.2269  -13.9353   26.1172 C   0  0  0  0  0  0  0  0  0  0  0  0
    7.7244  -16.5584   22.8324 C   0  0  0  0  0  0  0  0  0  0  0  0
    8.7171  -17.2454   22.5211 O   0  0  0  0  0  0  0  0  0  0  0  0
    7.3391  -15.4920   21.9966 N   0  0  0  0  0  0  0  0  0  0  0  0
    8.0952  -15.0725   20.8176 C   0  0  1  0  0  0  0  0  0  0  0  0
    7.6471  -13.7111   20.3413 C   0  0  0  0  0  0  0  0  0  0  0  0
    8.3164  -13.2611   19.0856 C   0  0  0  0  0  0  0  0  0  0  0  0
    7.7852  -13.8801   17.8356 C   0  0  0  0  0  0  0  0  0  0  0  0
    8.4943  -13.4098   16.5918 C   0  0  0  0  0  0  0  0  0  0  0  0
    7.8990  -13.9292   15.3747 N   0  0  0  0  0  0  0  0  0  0  0  0
    9.5452  -14.9452   21.1593 C   0  0  0  0  0  0  0  0  0  0  0  0
    9.8297  -14.3404   22.2186 O   0  0  0  0  0  0  0  0  0  0  0  0
   10.5929  -15.4612   20.3656 N   0  0  0  0  0  0  0  0  0  0  0  0
   11.9883  -15.2560   20.6345 C   0  0  0  0  0  0  0  0  0  0  0  0
   12.8671  -15.8897   19.6328 C   0  0  0  0  0  0  0  0  0  0  0  0
   12.3687  -16.5965   18.7349 O   0  0  0  0  0  0  0  0  0  0  0  0
   14.2313  -15.7103   19.6770 O   0  0  0  0  0  0  0  0  0  0  0  0
  2  1  1  1
  2  3  1  0
  2 13  1  0
  3  4  1  0
  4  5  2  0
  5  6  1  0
  7  6  1  0
  8  7  2  0
  9  8  1  0
 10 11  1  0
 10  9  2  0
 11 12  2  0
 12  4  1  0
 12  7  1  0
 13 15  1  0
 13 14  2  0
 15 16  1  0
 16 17  1  1
 18 17  1  0
 19 18  1  0
 20 19  1  0
 21 20  1  0
 22 24  1  0
 22 16  1  0
 23 22  2  0
 25 24  1  0
 26 28  1  0
 26 25  1  0
 27 26  2  0
M  END
$$$$
