WKG.pdb
     RDKit          3D

 28 29  0  0  1  0  0  0  0  0999 V2000
    9.1448  -16.0138   24.9834 N   0  0  0  0  0  0  0  0  0  0  0  0
    7.8782  -16.6847   24.7565 C   0  0  1  0  0  0  0  0  0  0  0  0
    6.9178  -16.1550   25.7982 C   0  0  0  0  0  0  0  0  0  0  0  0
    7.4651  -15.0171   26.5559 C   0  0  0  0  0  0  0  0  0  0  0  0
    8.5473  -15.0576   27.4022 C   0  0  0  0  0  0  0  0  0  0  0  0
    8.7328  -13.8261   27.8995 N   0  0  0  0  0  0  0  0  0  0  0  0
    7.8181  -12.9577   27.4215 C   0  0  0  0  0  0  0  0  0  0  0  0
    7.5815  -11.6101   27.6176 C   0  0  0  0  0  0  0  0  0  0  0  0
    6.5478  -10.9656   26.9818 C   0  0  0  0  0  0  0  0  0  0  0  0
    5.7442  -11.6951   26.1373 C   0  0  0  0  0  0  0  0  0  0  0  0
    5.9824  -13.0389   25.9436 C   0  0  0  0  0  0  0  0  0  0  0  0
    7.0153  -13.7145   26.5699 C   0  0  0  0  0  0  0  0  0  0  0  0
    7.4452  -16.3920   23.3833 C   0  0  0  0  0  0  0  0  0  0  0  0
    6.3419  -16.8100   22.9802 O   0  0  0  0  0  0  0  0  0  0  0  0
    8.2566  -15.6440   22.5079 N   0  0  0  0  0  0  0  0  0  0  0  0
    7.9018  -15.3594   21.1184 C   0  0  1  0  0  0  0  0  0  0  0  0
    7.8628  -13.8715   20.8618 C   0  0  0  0  0  0  0  0  0  0  0  0
    7.3309  -13.5054   19.5164 C   0  0  0  0  0  0  0  0  0  0  0  0
    8.3718  -13.2826   18.4701 C   0  0  0  0  0  0  0  0  0  0  0  0
    7.7938  -12.9655   17.1150 C   0  0  0  0  0  0  0  0  0  0  0  0
    8.8064  -12.8712   16.0799 N   0  0  0  0  0  0  0  0  0  0  0  0
    8.9405  -15.9200   20.2008 C   0  0  0  0  0  0  0  0  0  0  0  0
    8.6138  -16.0831   19.0027 O   0  0  0  0  0  0  0  0  0  0  0  0
   10.2476  -16.2695   20.6052 N   0  0  0  0  0  0  0  0  0  0  0  0
   10.8797  -17.5230   20.3045 C   0  0  0  0  0  0  0  0  0  0  0  0
   12.2354  -17.6361   20.8762 C   0  0  0  0  0  0  0  0  0  0  0  0
   12.6760  -16.7236   21.6023 O   0  0  0  0  0  0  0  0  0  0  0  0
   13.0203  -18.7371   20.6179 O   0  0  0  0  0  0  0  0  0  0  0  0
  2  1  1  1
  2  3  1  0
  2 13  1  0
  3  4  1  0
  4  5  2  0
  5  6  1  0
  7  6  1  0
  8  7  2  0
  9  8  1  0
 10 11  1  0
 10  9  2  0
 11 12  2  0
 12  4  1  0
 12  7  1  0
 13 15  1  0
 13 14  2  0
 15 16  1  0
 16 17  1  1
 18 17  1  0
 19 18  1  0
 20 19  1  0
 21 20  1  0
 22 24  1  0
 22 16  1  0
 23 22  2  0
 25 24  1  0
 26 28  1  0
 26 25  1  0
 27 26  2  0
M  END
$$$$
