WKG.pdb
     RDKit          3D

 28 29  0  0  1  0  0  0  0  0999 V2000
    7.3130  -18.1239   23.8538 N   0  0  0  0  0  0  0  0  0  0  0  0
    7.3711  -16.6826   23.6957 C   0  0  1  0  0  0  0  0  0  0  0  0
    8.0276  -16.1385   24.9451 C   0  0  0  0  0  0  0  0  0  0  0  0
    7.1569  -15.2175   25.6950 C   0  0  0  0  0  0  0  0  0  0  0  0
    5.9592  -15.5418   26.2859 C   0  0  0  0  0  0  0  0  0  0  0  0
    5.4708  -14.4376   26.8695 N   0  0  0  0  0  0  0  0  0  0  0  0
    6.2925  -13.3823   26.6947 C   0  0  0  0  0  0  0  0  0  0  0  0
    6.2481  -12.0575   27.0867 C   0  0  0  0  0  0  0  0  0  0  0  0
    7.2536  -11.1805   26.7580 C   0  0  0  0  0  0  0  0  0  0  0  0
    8.3166  -11.6511   26.0234 C   0  0  0  0  0  0  0  0  0  0  0  0
    8.3583  -12.9727   25.6338 C   0  0  0  0  0  0  0  0  0  0  0  0
    7.3609  -13.8786   25.9500 C   0  0  0  0  0  0  0  0  0  0  0  0
    8.1364  -16.3868   22.4768 C   0  0  0  0  0  0  0  0  0  0  0  0
    9.1160  -17.0961   22.1739 O   0  0  0  0  0  0  0  0  0  0  0  0
    7.7832  -15.3112   21.6386 N   0  0  0  0  0  0  0  0  0  0  0  0
    8.4851  -14.9866   20.3977 C   0  0  1  0  0  0  0  0  0  0  0  0
    7.9437  -13.7174   19.7837 C   0  0  0  0  0  0  0  0  0  0  0  0
    8.6057  -13.3379   18.5011 C   0  0  0  0  0  0  0  0  0  0  0  0
    7.8660  -13.7437   17.2698 C   0  0  0  0  0  0  0  0  0  0  0  0
    8.5953  -13.3974   15.9974 C   0  0  0  0  0  0  0  0  0  0  0  0
    7.8521  -13.7632   14.8060 N   0  0  0  0  0  0  0  0  0  0  0  0
    9.9320  -14.7367   20.6796 C   0  0  0  0  0  0  0  0  0  0  0  0
   10.2127  -14.1798   21.7659 O   0  0  0  0  0  0  0  0  0  0  0  0
   10.9809  -15.0885   19.8021 N   0  0  0  0  0  0  0  0  0  0  0  0
   12.3656  -14.7887   20.0349 C   0  0  0  0  0  0  0  0  0  0  0  0
   13.2370  -15.1826   18.9111 C   0  0  0  0  0  0  0  0  0  0  0  0
   12.7661  -15.8539   17.9722 O   0  0  0  0  0  0  0  0  0  0  0  0
   14.5641  -14.8178   18.8861 O   0  0  0  0  0  0  0  0  0  0  0  0
  2  1  1  1
  2  3  1  0
  2 13  1  0
  3  4  1  0
  4  5  2  0
  5  6  1  0
  7  6  1  0
  8  7  2  0
  9  8  1  0
 10 11  1  0
 10  9  2  0
 11 12  2  0
 12  4  1  0
 12  7  1  0
 13 15  1  0
 13 14  2  0
 15 16  1  0
 16 17  1  1
 18 17  1  0
 19 18  1  0
 20 19  1  0
 21 20  1  0
 22 24  1  0
 22 16  1  0
 23 22  2  0
 25 24  1  0
 26 28  1  0
 26 25  1  0
 27 26  2  0
M  END
$$$$
