WKG.pdb
     RDKit          3D

 28 29  0  0  1  0  0  0  0  0999 V2000
    8.6236  -16.4917   24.7076 N   0  0  0  0  0  0  0  0  0  0  0  0
    7.2744  -16.7158   24.2227 C   0  0  1  0  0  0  0  0  0  0  0  0
    6.3435  -16.0756   25.2285 C   0  0  0  0  0  0  0  0  0  0  0  0
    7.0469  -15.2091   26.1894 C   0  0  0  0  0  0  0  0  0  0  0  0
    8.0132  -15.6111   27.0802 C   0  0  0  0  0  0  0  0  0  0  0  0
    8.4084  -14.5365   27.7782 N   0  0  0  0  0  0  0  0  0  0  0  0
    7.7461  -13.4265   27.3926 C   0  0  0  0  0  0  0  0  0  0  0  0
    7.7829  -12.1024   27.7877 C   0  0  0  0  0  0  0  0  0  0  0  0
    6.9721  -11.1592   27.2038 C   0  0  0  0  0  0  0  0  0  0  0  0
    6.1138  -11.5621   26.2078 C   0  0  0  0  0  0  0  0  0  0  0  0
    6.0791  -12.8831   25.8157 C   0  0  0  0  0  0  0  0  0  0  0  0
    6.8835  -13.8548   26.3853 C   0  0  0  0  0  0  0  0  0  0  0  0
    7.1639  -16.1177   22.8852 C   0  0  0  0  0  0  0  0  0  0  0  0
    6.0960  -16.2168   22.2495 O   0  0  0  0  0  0  0  0  0  0  0  0
    8.2471  -15.4303   22.3033 N   0  0  0  0  0  0  0  0  0  0  0  0
    8.3788  -15.1935   20.8666 C   0  0  1  0  0  0  0  0  0  0  0  0
    8.3065  -13.7183   20.5506 C   0  0  0  0  0  0  0  0  0  0  0  0
    8.6556  -13.3864   19.1381 C   0  0  0  0  0  0  0  0  0  0  0  0
    7.9940  -14.2435   18.1108 C   0  0  0  0  0  0  0  0  0  0  0  0
    8.4050  -13.9055   16.7009 C   0  0  0  0  0  0  0  0  0  0  0  0
    7.8458  -14.8156   15.7187 N   0  0  0  0  0  0  0  0  0  0  0  0
    9.7165  -15.6629   20.3919 C   0  0  0  0  0  0  0  0  0  0  0  0
   10.7241  -15.1629   20.9431 O   0  0  0  0  0  0  0  0  0  0  0  0
    9.9021  -16.6230   19.3732 N   0  0  0  0  0  0  0  0  0  0  0  0
   11.1402  -17.3039   19.1186 C   0  0  0  0  0  0  0  0  0  0  0  0
   11.9420  -16.6636   18.0581 C   0  0  0  0  0  0  0  0  0  0  0  0
   12.3752  -17.3513   17.1129 O   0  0  0  0  0  0  0  0  0  0  0  0
   12.2179  -15.3155   18.0991 O   0  0  0  0  0  0  0  0  0  0  0  0
  2  1  1  1
  2  3  1  0
  2 13  1  0
  3  4  1  0
  4  5  2  0
  5  6  1  0
  7  6  1  0
  8  7  2  0
  9  8  1  0
 10 11  1  0
 10  9  2  0
 11 12  2  0
 12  4  1  0
 12  7  1  0
 13 15  1  0
 13 14  2  0
 15 16  1  0
 16 17  1  1
 18 17  1  0
 19 18  1  0
 20 19  1  0
 21 20  1  0
 22 24  1  0
 22 16  1  0
 23 22  2  0
 25 24  1  0
 26 28  1  0
 26 25  1  0
 27 26  2  0
M  END
$$$$
