WKG.pdb
     RDKit          3D

 28 29  0  0  1  0  0  0  0  0999 V2000
    6.7531  -18.0783   24.4666 N   0  0  0  0  0  0  0  0  0  0  0  0
    7.0692  -16.7473   23.9824 C   0  0  1  0  0  0  0  0  0  0  0  0
    8.0192  -16.1373   24.9891 C   0  0  0  0  0  0  0  0  0  0  0  0
    7.3551  -15.1949   25.9054 C   0  0  0  0  0  0  0  0  0  0  0  0
    6.4420  -15.5243   26.8784 C   0  0  0  0  0  0  0  0  0  0  0  0
    6.0694  -14.3953   27.4987 N   0  0  0  0  0  0  0  0  0  0  0  0
    6.6956  -13.3183   26.9816 C   0  0  0  0  0  0  0  0  0  0  0  0
    6.6613  -11.9646   27.2590 C   0  0  0  0  0  0  0  0  0  0  0  0
    7.4275  -11.0700   26.5513 C   0  0  0  0  0  0  0  0  0  0  0  0
    8.2381  -11.5525   25.5507 C   0  0  0  0  0  0  0  0  0  0  0  0
    8.2703  -12.9030   25.2762 C   0  0  0  0  0  0  0  0  0  0  0  0
    7.5102  -13.8271   25.9717 C   0  0  0  0  0  0  0  0  0  0  0  0
    7.6644  -16.8764   22.6453 C   0  0  0  0  0  0  0  0  0  0  0  0
    8.3434  -17.8837   22.3650 O   0  0  0  0  0  0  0  0  0  0  0  0
    7.4818  -15.8787   21.6678 N   0  0  0  0  0  0  0  0  0  0  0  0
    8.2283  -15.8290   20.4116 C   0  0  1  0  0  0  0  0  0  0  0  0
    7.9221  -14.5624   19.6479 C   0  0  0  0  0  0  0  0  0  0  0  0
    8.5309  -14.5173   18.2861 C   0  0  0  0  0  0  0  0  0  0  0  0
    7.7184  -13.8004   17.2596 C   0  0  0  0  0  0  0  0  0  0  0  0
    8.3267  -13.8471   15.8816 C   0  0  0  0  0  0  0  0  0  0  0  0
    7.4493  -13.3047   14.8610 N   0  0  0  0  0  0  0  0  0  0  0  0
    9.6970  -15.8104   20.6905 C   0  0  0  0  0  0  0  0  0  0  0  0
   10.1445  -14.8253   21.3216 O   0  0  0  0  0  0  0  0  0  0  0  0
   10.5914  -16.8261   20.2876 N   0  0  0  0  0  0  0  0  0  0  0  0
   12.0051  -16.8057   20.5378 C   0  0  0  0  0  0  0  0  0  0  0  0
   12.7897  -16.3544   19.3725 C   0  0  0  0  0  0  0  0  0  0  0  0
   12.2132  -16.1332   18.2896 O   0  0  0  0  0  0  0  0  0  0  0  0
   14.1513  -16.1744   19.4659 O   0  0  0  0  0  0  0  0  0  0  0  0
  2  1  1  1
  2  3  1  0
  2 13  1  0
  3  4  1  0
  4  5  2  0
  5  6  1  0
  7  6  1  0
  8  7  2  0
  9  8  1  0
 10 11  1  0
 10  9  2  0
 11 12  2  0
 12  4  1  0
 12  7  1  0
 13 15  1  0
 13 14  2  0
 15 16  1  0
 16 17  1  1
 18 17  1  0
 19 18  1  0
 20 19  1  0
 21 20  1  0
 22 24  1  0
 22 16  1  0
 23 22  2  0
 25 24  1  0
 26 28  1  0
 26 25  1  0
 27 26  2  0
M  END
$$$$
