WKG.pdb
     RDKit          3D

 28 29  0  0  1  0  0  0  0  0999 V2000
    6.6884  -18.2277   23.9259 N   0  0  0  0  0  0  0  0  0  0  0  0
    6.8415  -16.7905   23.7967 C   0  0  1  0  0  0  0  0  0  0  0  0
    7.5426  -16.3176   25.0508 C   0  0  0  0  0  0  0  0  0  0  0  0
    6.8202  -15.2329   25.7365 C   0  0  0  0  0  0  0  0  0  0  0  0
    5.5818  -15.3343   26.3238 C   0  0  0  0  0  0  0  0  0  0  0  0
    5.2669  -14.1374   26.8401 N   0  0  0  0  0  0  0  0  0  0  0  0
    6.2447  -13.2338   26.6236 C   0  0  0  0  0  0  0  0  0  0  0  0
    6.4043  -11.8987   26.9443 C   0  0  0  0  0  0  0  0  0  0  0  0
    7.5369  -11.2079   26.5864 C   0  0  0  0  0  0  0  0  0  0  0  0
    8.5194  -11.8774   25.8954 C   0  0  0  0  0  0  0  0  0  0  0  0
    8.3576  -13.2087   25.5769 C   0  0  0  0  0  0  0  0  0  0  0  0
    7.2285  -13.9301   25.9239 C   0  0  0  0  0  0  0  0  0  0  0  0
    7.6155  -16.5209   22.5771 C   0  0  0  0  0  0  0  0  0  0  0  0
    8.2055  -17.4552   21.9997 O   0  0  0  0  0  0  0  0  0  0  0  0
    7.7046  -15.2200   22.0441 N   0  0  0  0  0  0  0  0  0  0  0  0
    8.4694  -14.8871   20.8434 C   0  0  1  0  0  0  0  0  0  0  0  0
    8.2349  -13.4533   20.4305 C   0  0  0  0  0  0  0  0  0  0  0  0
    7.4645  -13.3098   19.1605 C   0  0  0  0  0  0  0  0  0  0  0  0
    8.0127  -14.0783   18.0044 C   0  0  0  0  0  0  0  0  0  0  0  0
    7.2371  -13.8679   16.7296 C   0  0  0  0  0  0  0  0  0  0  0  0
    7.7437  -14.6617   15.6256 N   0  0  0  0  0  0  0  0  0  0  0  0
    9.9334  -15.0142   21.1186 C   0  0  0  0  0  0  0  0  0  0  0  0
   10.7124  -14.8237   20.1564 O   0  0  0  0  0  0  0  0  0  0  0  0
   10.4758  -15.3321   22.3830 N   0  0  0  0  0  0  0  0  0  0  0  0
   11.8816  -15.3923   22.6686 C   0  0  0  0  0  0  0  0  0  0  0  0
   12.4533  -16.7375   22.4664 C   0  0  0  0  0  0  0  0  0  0  0  0
   11.7399  -17.6462   21.9980 O   0  0  0  0  0  0  0  0  0  0  0  0
   13.7652  -17.0021   22.7884 O   0  0  0  0  0  0  0  0  0  0  0  0
  2  1  1  1
  2  3  1  0
  2 13  1  0
  3  4  1  0
  4  5  2  0
  5  6  1  0
  7  6  1  0
  8  7  2  0
  9  8  1  0
 10 11  1  0
 10  9  2  0
 11 12  2  0
 12  4  1  0
 12  7  1  0
 13 15  1  0
 13 14  2  0
 15 16  1  0
 16 17  1  1
 18 17  1  0
 19 18  1  0
 20 19  1  0
 21 20  1  0
 22 24  1  0
 22 16  1  0
 23 22  2  0
 25 24  1  0
 26 28  1  0
 26 25  1  0
 27 26  2  0
M  END
$$$$
