WKG.pdb
     RDKit          3D

 28 29  0  0  1  0  0  0  0  0999 V2000
    6.8126  -17.2002   25.0878 N   0  0  0  0  0  0  0  0  0  0  0  0
    7.4821  -16.1737   24.3107 C   0  0  1  0  0  0  0  0  0  0  0  0
    8.6181  -15.6582   25.1661 C   0  0  0  0  0  0  0  0  0  0  0  0
    8.1609  -14.7823   26.2582 C   0  0  0  0  0  0  0  0  0  0  0  0
    8.2567  -15.0525   27.6023 C   0  0  0  0  0  0  0  0  0  0  0  0
    7.7328  -14.0163   28.2733 N   0  0  0  0  0  0  0  0  0  0  0  0
    7.2877  -13.0589   27.4339 C   0  0  0  0  0  0  0  0  0  0  0  0
    6.6823  -11.8298   27.6164 C   0  0  0  0  0  0  0  0  0  0  0  0
    6.3263  -11.0424   26.5481 C   0  0  0  0  0  0  0  0  0  0  0  0
    6.5866  -11.5057   25.2797 C   0  0  0  0  0  0  0  0  0  0  0  0
    7.1904  -12.7318   25.1006 C   0  0  0  0  0  0  0  0  0  0  0  0
    7.5600  -13.5462   26.1569 C   0  0  0  0  0  0  0  0  0  0  0  0
    7.9461  -16.7803   23.0554 C   0  0  0  0  0  0  0  0  0  0  0  0
    7.9631  -18.0213   22.9372 O   0  0  0  0  0  0  0  0  0  0  0  0
    8.3746  -15.9826   21.9763 N   0  0  0  0  0  0  0  0  0  0  0  0
    9.0861  -16.5087   20.8123 C   0  0  1  0  0  0  0  0  0  0  0  0
    9.3700  -15.4153   19.8097 C   0  0  0  0  0  0  0  0  0  0  0  0
    8.1432  -14.8186   19.2047 C   0  0  0  0  0  0  0  0  0  0  0  0
    8.3701  -14.0774   17.9292 C   0  0  0  0  0  0  0  0  0  0  0  0
    7.0984  -13.5586   17.3091 C   0  0  0  0  0  0  0  0  0  0  0  0
    7.3333  -12.8039   16.0922 N   0  0  0  0  0  0  0  0  0  0  0  0
   10.4136  -17.0556   21.2293 C   0  0  0  0  0  0  0  0  0  0  0  0
   10.7940  -18.1122   20.6744 O   0  0  0  0  0  0  0  0  0  0  0  0
   11.2472  -16.4555   22.1983 N   0  0  0  0  0  0  0  0  0  0  0  0
   12.4693  -17.0323   22.6835 C   0  0  0  0  0  0  0  0  0  0  0  0
   13.6197  -16.7749   21.7960 C   0  0  0  0  0  0  0  0  0  0  0  0
   13.4379  -16.2108   20.6993 O   0  0  0  0  0  0  0  0  0  0  0  0
   14.8921  -17.1498   22.1639 O   0  0  0  0  0  0  0  0  0  0  0  0
  2  1  1  1
  2  3  1  0
  2 13  1  0
  3  4  1  0
  4  5  2  0
  5  6  1  0
  7  6  1  0
  8  7  2  0
  9  8  1  0
 10 11  1  0
 10  9  2  0
 11 12  2  0
 12  4  1  0
 12  7  1  0
 13 15  1  0
 13 14  2  0
 15 16  1  0
 16 17  1  6
 18 17  1  0
 19 18  1  0
 20 19  1  0
 21 20  1  0
 22 24  1  0
 22 16  1  0
 23 22  2  0
 25 24  1  0
 26 28  1  0
 26 25  1  0
 27 26  2  0
M  END
$$$$
