WKG.pdb
     RDKit          3D

 28 29  0  0  1  0  0  0  0  0999 V2000
    6.3192  -17.5134   24.8220 N   0  0  0  0  0  0  0  0  0  0  0  0
    6.9554  -16.2485   24.5043 C   0  0  1  0  0  0  0  0  0  0  0  0
    8.1605  -16.1328   25.4112 C   0  0  0  0  0  0  0  0  0  0  0  0
    8.0017  -15.0965   26.4454 C   0  0  0  0  0  0  0  0  0  0  0  0
    8.3140  -15.2317   27.7769 C   0  0  0  0  0  0  0  0  0  0  0  0
    8.0291  -14.0739   28.3907 N   0  0  0  0  0  0  0  0  0  0  0  0
    7.5371  -13.1642   27.5248 C   0  0  0  0  0  0  0  0  0  0  0  0
    7.1026  -11.8580   27.6506 C   0  0  0  0  0  0  0  0  0  0  0  0
    6.6385  -11.1514   26.5674 C   0  0  0  0  0  0  0  0  0  0  0  0
    6.6142  -11.7753   25.3421 C   0  0  0  0  0  0  0  0  0  0  0  0
    7.0480  -13.0780   25.2196 C   0  0  0  0  0  0  0  0  0  0  0  0
    7.5204  -13.8143   26.2921 C   0  0  0  0  0  0  0  0  0  0  0  0
    7.3155  -16.2627   23.0799 C   0  0  0  0  0  0  0  0  0  0  0  0
    7.5505  -17.3474   22.5120 O   0  0  0  0  0  0  0  0  0  0  0  0
    7.4010  -15.0678   22.3387 N   0  0  0  0  0  0  0  0  0  0  0  0
    7.8622  -15.0054   20.9527 C   0  0  1  0  0  0  0  0  0  0  0  0
    7.5978  -13.6446   20.3532 C   0  0  0  0  0  0  0  0  0  0  0  0
    8.2640  -13.4262   19.0357 C   0  0  0  0  0  0  0  0  0  0  0  0
    7.5570  -14.0300   17.8680 C   0  0  0  0  0  0  0  0  0  0  0  0
    8.3089  -13.8720   16.5716 C   0  0  0  0  0  0  0  0  0  0  0  0
    7.6253  -14.4832   15.4470 N   0  0  0  0  0  0  0  0  0  0  0  0
    9.3419  -15.2122   20.8969 C   0  0  0  0  0  0  0  0  0  0  0  0
   10.0284  -14.6571   21.7854 O   0  0  0  0  0  0  0  0  0  0  0  0
    9.9958  -15.9861   19.9133 N   0  0  0  0  0  0  0  0  0  0  0  0
   11.4158  -16.1910   19.8567 C   0  0  0  0  0  0  0  0  0  0  0  0
   11.8513  -16.8665   18.6192 C   0  0  0  0  0  0  0  0  0  0  0  0
   11.0092  -17.4406   17.9014 O   0  0  0  0  0  0  0  0  0  0  0  0
   13.1766  -16.8706   18.2468 O   0  0  0  0  0  0  0  0  0  0  0  0
  2  1  1  1
  2  3  1  0
  2 13  1  0
  3  4  1  0
  4  5  2  0
  5  6  1  0
  7  6  1  0
  8  7  2  0
  9  8  1  0
 10 11  1  0
 10  9  2  0
 11 12  2  0
 12  4  1  0
 12  7  1  0
 13 15  1  0
 13 14  2  0
 15 16  1  0
 16 17  1  1
 18 17  1  0
 19 18  1  0
 20 19  1  0
 21 20  1  0
 22 24  1  0
 22 16  1  0
 23 22  2  0
 25 24  1  0
 26 28  1  0
 26 25  1  0
 27 26  2  0
M  END
$$$$
