WDY.pdb
     RDKit          3D

 35 37  0  0  1  0  0  0  0  0999 V2000
    8.0844  -18.1571   21.6896 N   0  0  0  0  0  0  0  0  0  0  0  0
    8.7890  -16.9801   22.2483 C   0  0  1  0  0  0  0  0  0  0  0  0
    7.7990  -15.9417   22.4703 C   0  0  0  0  0  0  0  0  0  0  0  0
    7.4553  -15.1042   21.3135 C   0  0  0  0  0  0  0  0  0  0  0  0
    7.1024  -15.5354   20.0681 C   0  0  0  0  0  0  0  0  0  0  0  0
    6.9025  -14.5060   19.2342 N   0  0  0  0  0  0  0  0  0  0  0  0
    7.1311  -13.3845   19.9546 C   0  0  0  0  0  0  0  0  0  0  0  0
    7.0708  -12.0350   19.5905 C   0  0  0  0  0  0  0  0  0  0  0  0
    7.3540  -11.0783   20.5198 C   0  0  0  0  0  0  0  0  0  0  0  0
    7.7012  -11.4063   21.8192 C   0  0  0  0  0  0  0  0  0  0  0  0
    7.7605  -12.7262   22.1763 C   0  0  0  0  0  0  0  0  0  0  0  0
    7.4757  -13.7164   21.2459 C   0  0  0  0  0  0  0  0  0  0  0  0
    9.7393  -17.3996   23.2639 C   0  0  0  0  0  0  0  0  0  0  0  0
    9.3278  -18.1997   24.2099 O   0  0  0  0  0  0  0  0  0  0  0  0
   11.1003  -17.0716   23.4146 N   0  0  0  0  0  0  0  0  0  0  0  0
   11.9102  -17.4385   24.5829 C   0  0  1  0  0  0  0  0  0  0  0  0
   13.3607  -17.3250   24.2786 C   0  0  0  0  0  0  0  0  0  0  0  0
   13.7676  -17.9070   22.9985 C   0  0  0  0  0  0  0  0  0  0  0  0
   14.3483  -17.2207   22.1259 O   0  0  0  0  0  0  0  0  0  0  0  0
   11.5051  -16.6541   25.7641 C   0  0  0  0  0  0  0  0  0  0  0  0
   11.9033  -15.4409   25.9184 O   0  0  0  0  0  0  0  0  0  0  0  0
   13.5152  -19.2372   22.7290 O   0  0  0  0  0  0  0  0  0  0  0  0
    7.4207  -11.7256   25.1934 O   0  0  0  0  0  0  0  0  0  0  0  0
    7.8821  -12.7738   25.9787 C   0  0  0  0  0  0  0  0  0  0  0  0
    7.2188  -13.9846   25.9202 C   0  0  0  0  0  0  0  0  0  0  0  0
    7.6529  -15.0436   26.6880 C   0  0  0  0  0  0  0  0  0  0  0  0
    8.7528  -14.9632   27.5447 C   0  0  0  0  0  0  0  0  0  0  0  0
    9.1823  -16.1218   28.3542 C   0  0  0  0  0  0  0  0  0  0  0  0
   10.6390  -16.4665   28.1253 C   0  0  2  0  0  0  0  0  0  0  0  0
   10.6700  -17.1118   26.8121 N   0  0  0  0  0  0  0  0  0  0  0  0
   11.1165  -17.3098   29.2144 C   0  0  0  0  0  0  0  0  0  0  0  0
   11.3446  -18.5435   28.9684 O   0  0  0  0  0  0  0  0  0  0  0  0
    9.4045  -13.7408   27.5893 C   0  0  0  0  0  0  0  0  0  0  0  0
    8.9669  -12.6805   26.8180 C   0  0  0  0  0  0  0  0  0  0  0  0
   11.3391  -16.8443   30.5065 O   0  0  0  0  0  0  0  0  0  0  0  0
  2  1  1  1
  2  3  1  0
  4  5  2  0
  4  3  1  0
  6  5  1  0
  7 12  2  0
  7  6  1  0
  8  7  1  0
  9  8  2  0
  9 10  1  0
 10 11  2  0
 11 12  1  0
 12  4  1  0
 13  2  1  0
 14 13  2  0
 15 13  1  0
 16 17  1  6
 16 15  1  0
 17 18  1  0
 18 19  2  0
 18 22  1  0
 20 30  1  0
 20 16  1  0
 21 20  2  0
 23 24  1  0
 24 34  2  0
 25 24  1  0
 25 26  2  0
 26 27  1  0
 27 33  2  0
 27 28  1  0
 29 30  1  0
 29 28  1  1
 31 35  1  0
 31 29  1  0
 32 31  2  0
 34 33  1  0
M  END
$$$$
