WDY.pdb
     RDKit          3D

 35 37  0  0  1  0  0  0  0  0999 V2000
    6.4575  -18.1525   24.4900 N   0  0  0  0  0  0  0  0  0  0  0  0
    7.7913  -17.5082   24.4954 C   0  0  1  0  0  0  0  0  0  0  0  0
    7.8894  -16.7147   25.7072 C   0  0  0  0  0  0  0  0  0  0  0  0
    6.8748  -15.6684   25.8906 C   0  0  0  0  0  0  0  0  0  0  0  0
    5.6699  -15.7989   26.5171 C   0  0  0  0  0  0  0  0  0  0  0  0
    4.9661  -14.6602   26.4626 N   0  0  0  0  0  0  0  0  0  0  0  0
    5.7312  -13.7736   25.7863 C   0  0  0  0  0  0  0  0  0  0  0  0
    5.4940  -12.4397   25.4369 C   0  0  0  0  0  0  0  0  0  0  0  0
    6.4424  -11.7524   24.7390 C   0  0  0  0  0  0  0  0  0  0  0  0
    7.6388  -12.3400   24.3647 C   0  0  0  0  0  0  0  0  0  0  0  0
    7.8717  -13.6447   24.7060 C   0  0  0  0  0  0  0  0  0  0  0  0
    6.9197  -14.3629   25.4167 C   0  0  0  0  0  0  0  0  0  0  0  0
    8.8098  -18.4599   24.0863 C   0  0  0  0  0  0  0  0  0  0  0  0
    8.6536  -19.7159   24.4063 O   0  0  0  0  0  0  0  0  0  0  0  0
   10.0029  -18.2497   23.3686 N   0  0  0  0  0  0  0  0  0  0  0  0
   11.3020  -18.8185   23.7483 C   0  0  1  0  0  0  0  0  0  0  0  0
   12.3181  -18.5698   22.6922 C   0  0  0  0  0  0  0  0  0  0  0  0
   12.2848  -17.2266   22.1113 C   0  0  0  0  0  0  0  0  0  0  0  0
   12.7351  -16.2364   22.7328 O   0  0  0  0  0  0  0  0  0  0  0  0
   11.7170  -18.3280   25.0756 C   0  0  0  0  0  0  0  0  0  0  0  0
   12.9476  -18.3862   25.4451 O   0  0  0  0  0  0  0  0  0  0  0  0
   11.7504  -17.0268   20.8541 O   0  0  0  0  0  0  0  0  0  0  0  0
   10.9369  -12.1823   24.0150 O   0  0  0  0  0  0  0  0  0  0  0  0
   10.8043  -13.1968   24.9539 C   0  0  0  0  0  0  0  0  0  0  0  0
   11.9119  -13.5577   25.6972 C   0  0  0  0  0  0  0  0  0  0  0  0
   11.8117  -14.5611   26.6366 C   0  0  0  0  0  0  0  0  0  0  0  0
   10.6254  -15.2535   26.8883 C   0  0  0  0  0  0  0  0  0  0  0  0
   10.5624  -16.3264   27.9018 C   0  0  0  0  0  0  0  0  0  0  0  0
   11.2717  -17.5835   27.4437 C   0  0  2  0  0  0  0  0  0  0  0  0
   10.8613  -17.7590   26.0499 N   0  0  0  0  0  0  0  0  0  0  0  0
   10.9070  -18.6932   28.3158 C   0  0  0  0  0  0  0  0  0  0  0  0
   11.2379  -18.6272   29.5490 O   0  0  0  0  0  0  0  0  0  0  0  0
    9.5261  -14.8769   26.1330 C   0  0  0  0  0  0  0  0  0  0  0  0
    9.6295  -13.8701   25.1915 C   0  0  0  0  0  0  0  0  0  0  0  0
   10.2167  -19.8196   27.8792 O   0  0  0  0  0  0  0  0  0  0  0  0
  2  1  1  1
  2  3  1  0
  4  5  2  0
  4  3  1  0
  6  5  1  0
  7 12  2  0
  7  6  1  0
  8  7  1  0
  9  8  2  0
  9 10  1  0
 10 11  2  0
 11 12  1  0
 12  4  1  0
 13  2  1  0
 14 13  2  0
 15 13  1  0
 16 17  1  6
 16 15  1  0
 17 18  1  0
 18 19  2  0
 18 22  1  0
 20 30  1  0
 20 16  1  0
 21 20  2  0
 23 24  1  0
 24 34  2  0
 25 24  1  0
 25 26  2  0
 26 27  1  0
 27 33  2  0
 27 28  1  0
 29 30  1  0
 29 28  1  1
 31 35  1  0
 31 29  1  0
 32 31  2  0
 34 33  1  0
M  END
$$$$
