WDY.pdb
     RDKit          3D

 35 37  0  0  1  0  0  0  0  0999 V2000
    7.0095  -18.0577   25.1604 N   0  0  0  0  0  0  0  0  0  0  0  0
    7.1759  -17.5719   23.7710 C   0  0  1  0  0  0  0  0  0  0  0  0
    6.3000  -16.4269   23.5996 C   0  0  0  0  0  0  0  0  0  0  0  0
    6.4439  -15.3384   24.5755 C   0  0  0  0  0  0  0  0  0  0  0  0
    6.1919  -15.4026   25.9148 C   0  0  0  0  0  0  0  0  0  0  0  0
    6.3784  -14.2136   26.5036 N   0  0  0  0  0  0  0  0  0  0  0  0
    6.7589  -13.3614   25.5249 C   0  0  0  0  0  0  0  0  0  0  0  0
    7.0810  -12.0007   25.5708 C   0  0  0  0  0  0  0  0  0  0  0  0
    7.4380  -11.3589   24.4220 C   0  0  0  0  0  0  0  0  0  0  0  0
    7.4910  -12.0189   23.2062 C   0  0  0  0  0  0  0  0  0  0  0  0
    7.1761  -13.3500   23.1603 C   0  0  0  0  0  0  0  0  0  0  0  0
    6.8101  -14.0229   24.3182 C   0  0  0  0  0  0  0  0  0  0  0  0
    8.5831  -17.5546   23.4108 C   0  0  0  0  0  0  0  0  0  0  0  0
    9.4538  -17.9968   24.2773 O   0  0  0  0  0  0  0  0  0  0  0  0
    9.2044  -17.1159   22.2257 N   0  0  0  0  0  0  0  0  0  0  0  0
   10.6522  -17.1677   21.9884 C   0  0  1  0  0  0  0  0  0  0  0  0
   10.9697  -16.8332   20.5753 C   0  0  0  0  0  0  0  0  0  0  0  0
   12.3718  -17.0208   20.1992 C   0  0  0  0  0  0  0  0  0  0  0  0
   13.1544  -17.6890   20.9138 O   0  0  0  0  0  0  0  0  0  0  0  0
   11.3692  -16.3186   22.9578 C   0  0  0  0  0  0  0  0  0  0  0  0
   11.3863  -15.0392   22.8276 O   0  0  0  0  0  0  0  0  0  0  0  0
   12.8604  -16.4578   19.0372 O   0  0  0  0  0  0  0  0  0  0  0  0
   10.2503  -17.6221   30.5739 O   0  0  0  0  0  0  0  0  0  0  0  0
   10.6523  -16.9838   29.4080 C   0  0  0  0  0  0  0  0  0  0  0  0
    9.9456  -17.2256   28.2454 C   0  0  0  0  0  0  0  0  0  0  0  0
   10.3205  -16.6071   27.0723 C   0  0  0  0  0  0  0  0  0  0  0  0
   11.4014  -15.7271   26.9866 C   0  0  0  0  0  0  0  0  0  0  0  0
   11.7726  -15.0885   25.7072 C   0  0  0  0  0  0  0  0  0  0  0  0
   12.8313  -15.8765   24.9646 C   0  0  2  0  0  0  0  0  0  0  0  0
   12.0820  -16.7804   24.0908 N   0  0  0  0  0  0  0  0  0  0  0  0
   13.6946  -16.5551   25.9233 C   0  0  0  0  0  0  0  0  0  0  0  0
   13.6313  -17.8299   25.9974 O   0  0  0  0  0  0  0  0  0  0  0  0
   12.0973  -15.4976   28.1631 C   0  0  0  0  0  0  0  0  0  0  0  0
   11.7189  -16.1194   29.3382 C   0  0  0  0  0  0  0  0  0  0  0  0
   14.5852  -15.8908   26.7608 O   0  0  0  0  0  0  0  0  0  0  0  0
  2  1  1  1
  2  3  1  0
  4  5  2  0
  4  3  1  0
  6  5  1  0
  7 12  2  0
  7  6  1  0
  8  7  1  0
  9  8  2  0
  9 10  1  0
 10 11  2  0
 11 12  1  0
 12  4  1  0
 13  2  1  0
 14 13  2  0
 15 13  1  0
 16 17  1  6
 16 15  1  0
 17 18  1  0
 18 19  2  0
 18 22  1  0
 20 30  1  0
 20 16  1  0
 21 20  2  0
 23 24  1  0
 24 34  2  0
 25 24  1  0
 25 26  2  0
 26 27  1  0
 27 33  2  0
 27 28  1  0
 29 30  1  0
 29 28  1  1
 31 35  1  0
 31 29  1  0
 32 31  2  0
 34 33  1  0
M  END
$$$$
