WDY.pdb
     RDKit          3D

 35 37  0  0  1  0  0  0  0  0999 V2000
    6.8480  -18.5672   21.7843 N   0  0  0  0  0  0  0  0  0  0  0  0
    7.5749  -17.3207   22.1188 C   0  0  1  0  0  0  0  0  0  0  0  0
    6.8887  -16.7004   23.2377 C   0  0  0  0  0  0  0  0  0  0  0  0
    6.7585  -15.2377   23.1988 C   0  0  0  0  0  0  0  0  0  0  0  0
    6.5262  -14.4667   22.0974 C   0  0  0  0  0  0  0  0  0  0  0  0
    6.5144  -13.1635   22.4081 N   0  0  0  0  0  0  0  0  0  0  0  0
    6.7441  -13.0890   23.7388 C   0  0  0  0  0  0  0  0  0  0  0  0
    6.8391  -11.9829   24.5903 C   0  0  0  0  0  0  0  0  0  0  0  0
    7.0840  -12.1795   25.9171 C   0  0  0  0  0  0  0  0  0  0  0  0
    7.2419  -13.4484   26.4476 C   0  0  0  0  0  0  0  0  0  0  0  0
    7.1491  -14.5310   25.6155 C   0  0  0  0  0  0  0  0  0  0  0  0
    6.9002  -14.3535   24.2613 C   0  0  0  0  0  0  0  0  0  0  0  0
    9.0084  -17.5552   22.0993 C   0  0  0  0  0  0  0  0  0  0  0  0
    9.4619  -18.6832   22.5751 O   0  0  0  0  0  0  0  0  0  0  0  0
   10.0501  -16.7298   21.6341 N   0  0  0  0  0  0  0  0  0  0  0  0
   11.4712  -17.0954   21.6785 C   0  0  1  0  0  0  0  0  0  0  0  0
   12.1499  -16.7389   20.4050 C   0  0  0  0  0  0  0  0  0  0  0  0
   11.7169  -17.5124   19.2402 C   0  0  0  0  0  0  0  0  0  0  0  0
   11.4558  -18.7344   19.3298 O   0  0  0  0  0  0  0  0  0  0  0  0
   12.1229  -16.5083   22.8640 C   0  0  0  0  0  0  0  0  0  0  0  0
   13.3627  -16.7386   23.1168 O   0  0  0  0  0  0  0  0  0  0  0  0
   11.5876  -16.9006   18.0093 O   0  0  0  0  0  0  0  0  0  0  0  0
   10.9186  -15.5760   31.5754 O   0  0  0  0  0  0  0  0  0  0  0  0
   10.7579  -15.6472   30.1979 C   0  0  0  0  0  0  0  0  0  0  0  0
   11.8266  -15.3082   29.3900 C   0  0  0  0  0  0  0  0  0  0  0  0
   11.6978  -15.3686   28.0192 C   0  0  0  0  0  0  0  0  0  0  0  0
   10.5197  -15.7625   27.3812 C   0  0  0  0  0  0  0  0  0  0  0  0
   10.4225  -15.8091   25.9079 C   0  0  0  0  0  0  0  0  0  0  0  0
   11.7836  -15.7536   25.2464 C   0  0  2  0  0  0  0  0  0  0  0  0
   11.5008  -15.6616   23.8134 N   0  0  0  0  0  0  0  0  0  0  0  0
   12.5575  -16.9292   25.6261 C   0  0  0  0  0  0  0  0  0  0  0  0
   13.7379  -16.7538   26.0848 O   0  0  0  0  0  0  0  0  0  0  0  0
    9.4597  -16.0985   28.2085 C   0  0  0  0  0  0  0  0  0  0  0  0
    9.5918  -16.0370   29.5831 C   0  0  0  0  0  0  0  0  0  0  0  0
   12.0803  -18.2317   25.5181 O   0  0  0  0  0  0  0  0  0  0  0  0
  2  1  1  1
  2  3  1  0
  4  5  2  0
  4  3  1  0
  6  5  1  0
  7 12  2  0
  7  6  1  0
  8  7  1  0
  9  8  2  0
  9 10  1  0
 10 11  2  0
 11 12  1  0
 12  4  1  0
 13  2  1  0
 14 13  2  0
 15 13  1  0
 16 17  1  6
 16 15  1  0
 17 18  1  0
 18 19  2  0
 18 22  1  0
 20 30  1  0
 20 16  1  0
 21 20  2  0
 23 24  1  0
 24 34  2  0
 25 24  1  0
 25 26  2  0
 26 27  1  0
 27 33  2  0
 27 28  1  0
 29 30  1  0
 29 28  1  1
 31 35  1  0
 31 29  1  0
 32 31  2  0
 34 33  1  0
M  END
$$$$
