WDY.pdb
     RDKit          3D

 35 37  0  0  1  0  0  0  0  0999 V2000
    7.1968  -16.9490   23.3660 N   0  0  0  0  0  0  0  0  0  0  0  0
    8.4847  -16.2507   23.5848 C   0  0  1  0  0  0  0  0  0  0  0  0
    8.5592  -15.8998   24.9915 C   0  0  0  0  0  0  0  0  0  0  0  0
    7.5119  -15.0046   25.5011 C   0  0  0  0  0  0  0  0  0  0  0  0
    6.4356  -15.3557   26.2625 C   0  0  0  0  0  0  0  0  0  0  0  0
    5.6493  -14.2999   26.5116 N   0  0  0  0  0  0  0  0  0  0  0  0
    6.2285  -13.2428   25.8984 C   0  0  0  0  0  0  0  0  0  0  0  0
    5.8398  -11.9006   25.8272 C   0  0  0  0  0  0  0  0  0  0  0  0
    6.6108  -11.0172   25.1313 C   0  0  0  0  0  0  0  0  0  0  0  0
    7.7723  -11.4128   24.4903 C   0  0  0  0  0  0  0  0  0  0  0  0
    8.1533  -12.7255   24.5594 C   0  0  0  0  0  0  0  0  0  0  0  0
    7.3832  -13.6417   25.2628 C   0  0  0  0  0  0  0  0  0  0  0  0
    9.5540  -16.9382   22.8815 C   0  0  0  0  0  0  0  0  0  0  0  0
    9.4879  -18.2366   22.7629 O   0  0  0  0  0  0  0  0  0  0  0  0
   10.7142  -16.4183   22.2762 N   0  0  0  0  0  0  0  0  0  0  0  0
   12.0438  -17.0309   22.3856 C   0  0  1  0  0  0  0  0  0  0  0  0
   13.0488  -16.2574   21.6101 C   0  0  0  0  0  0  0  0  0  0  0  0
   12.9181  -16.3640   20.1561 C   0  0  0  0  0  0  0  0  0  0  0  0
   12.1569  -17.2087   19.6304 O   0  0  0  0  0  0  0  0  0  0  0  0
   12.4195  -17.2102   23.8003 C   0  0  0  0  0  0  0  0  0  0  0  0
   13.3848  -16.5352   24.3169 O   0  0  0  0  0  0  0  0  0  0  0  0
   13.6402  -15.5254   19.3307 O   0  0  0  0  0  0  0  0  0  0  0  0
    9.7836  -13.0598   28.5853 O   0  0  0  0  0  0  0  0  0  0  0  0
   10.0859  -14.3473   28.1620 C   0  0  0  0  0  0  0  0  0  0  0  0
   11.0805  -15.0432   28.8224 C   0  0  0  0  0  0  0  0  0  0  0  0
   11.4033  -16.3228   28.4253 C   0  0  0  0  0  0  0  0  0  0  0  0
   10.7680  -16.9752   27.3666 C   0  0  0  0  0  0  0  0  0  0  0  0
   11.1481  -18.3466   26.9702 C   0  0  0  0  0  0  0  0  0  0  0  0
   12.3462  -18.3593   26.0441 C   0  0  2  0  0  0  0  0  0  0  0  0
   11.7954  -18.0932   24.7146 N   0  0  0  0  0  0  0  0  0  0  0  0
   13.0356  -19.6387   26.1577 C   0  0  0  0  0  0  0  0  0  0  0  0
   13.6971  -19.8764   27.2256 O   0  0  0  0  0  0  0  0  0  0  0  0
    9.7736  -16.2609   26.7172 C   0  0  0  0  0  0  0  0  0  0  0  0
    9.4519  -14.9776   27.1177 C   0  0  0  0  0  0  0  0  0  0  0  0
   13.0111  -20.6159   25.1676 O   0  0  0  0  0  0  0  0  0  0  0  0
  2  1  1  1
  2  3  1  0
  4  5  2  0
  4  3  1  0
  6  5  1  0
  7 12  2  0
  7  6  1  0
  8  7  1  0
  9  8  2  0
  9 10  1  0
 10 11  2  0
 11 12  1  0
 12  4  1  0
 13  2  1  0
 14 13  2  0
 15 13  1  0
 16 17  1  1
 16 15  1  0
 17 18  1  0
 18 19  2  0
 18 22  1  0
 20 30  1  0
 20 16  1  0
 21 20  2  0
 23 24  1  0
 24 34  2  0
 25 24  1  0
 25 26  2  0
 26 27  1  0
 27 33  2  0
 27 28  1  0
 29 30  1  0
 29 28  1  1
 31 35  1  0
 31 29  1  0
 32 31  2  0
 34 33  1  0
M  END
$$$$
