WDY.pdb
     RDKit          3D

 35 37  0  0  1  0  0  0  0  0999 V2000
    9.2545  -17.4524   21.5582 N   0  0  0  0  0  0  0  0  0  0  0  0
    8.6959  -16.8560   22.7937 C   0  0  1  0  0  0  0  0  0  0  0  0
    7.3389  -16.4315   22.5002 C   0  0  0  0  0  0  0  0  0  0  0  0
    7.1784  -15.4421   21.4264 C   0  0  0  0  0  0  0  0  0  0  0  0
    6.7059  -15.6717   20.1672 C   0  0  0  0  0  0  0  0  0  0  0  0
    6.7375  -14.5575   19.4238 N   0  0  0  0  0  0  0  0  0  0  0  0
    7.2414  -13.5859   20.2182 C   0  0  0  0  0  0  0  0  0  0  0  0
    7.4949  -12.2341   19.9617 C   0  0  0  0  0  0  0  0  0  0  0  0
    8.0174  -11.4526   20.9493 C   0  0  0  0  0  0  0  0  0  0  0  0
    8.3054  -11.9614   22.2041 C   0  0  0  0  0  0  0  0  0  0  0  0
    8.0578  -13.2836   22.4560 C   0  0  0  0  0  0  0  0  0  0  0  0
    7.5258  -14.0973   21.4648 C   0  0  0  0  0  0  0  0  0  0  0  0
    9.0396  -17.6727   23.9449 C   0  0  0  0  0  0  0  0  0  0  0  0
    8.4583  -18.8337   24.0812 O   0  0  0  0  0  0  0  0  0  0  0  0
    9.9372  -17.4128   24.9982 N   0  0  0  0  0  0  0  0  0  0  0  0
   11.0842  -18.2667   25.3308 C   0  0  1  0  0  0  0  0  0  0  0  0
   11.9360  -18.4989   24.1350 C   0  0  0  0  0  0  0  0  0  0  0  0
   13.1547  -19.2692   24.3885 C   0  0  0  0  0  0  0  0  0  0  0  0
   14.2377  -18.9781   23.8300 O   0  0  0  0  0  0  0  0  0  0  0  0
   11.8325  -17.7113   26.4737 C   0  0  0  0  0  0  0  0  0  0  0  0
   12.9122  -18.2724   26.8904 O   0  0  0  0  0  0  0  0  0  0  0  0
   13.1301  -20.3416   25.2576 O   0  0  0  0  0  0  0  0  0  0  0  0
    7.8414  -11.3514   26.6189 O   0  0  0  0  0  0  0  0  0  0  0  0
    8.1811  -12.6363   27.0215 C   0  0  0  0  0  0  0  0  0  0  0  0
    9.4376  -12.8507   27.5552 C   0  0  0  0  0  0  0  0  0  0  0  0
    9.8040  -14.1149   27.9635 C   0  0  0  0  0  0  0  0  0  0  0  0
    8.9580  -15.2218   27.8671 C   0  0  0  0  0  0  0  0  0  0  0  0
    9.3922  -16.5617   28.3128 C   0  0  0  0  0  0  0  0  0  0  0  0
   10.8872  -16.6267   28.5451 C   0  0  2  0  0  0  0  0  0  0  0  0
   11.4781  -16.5536   27.2081 N   0  0  0  0  0  0  0  0  0  0  0  0
   11.2138  -17.8459   29.2743 C   0  0  0  0  0  0  0  0  0  0  0  0
   10.7079  -18.0090   30.4370 O   0  0  0  0  0  0  0  0  0  0  0  0
    7.7025  -14.9864   27.3295 C   0  0  0  0  0  0  0  0  0  0  0  0
    7.3378  -13.7173   26.9208 C   0  0  0  0  0  0  0  0  0  0  0  0
   12.0449  -18.8427   28.7727 O   0  0  0  0  0  0  0  0  0  0  0  0
  2  1  1  6
  2  3  1  0
  4  5  2  0
  4  3  1  0
  6  5  1  0
  7 12  2  0
  7  6  1  0
  8  7  1  0
  9  8  2  0
  9 10  1  0
 10 11  2  0
 11 12  1  0
 12  4  1  0
 13  2  1  0
 14 13  2  0
 15 13  1  0
 16 17  1  6
 16 15  1  0
 17 18  1  0
 18 19  2  0
 18 22  1  0
 20 30  1  0
 20 16  1  0
 21 20  2  0
 23 24  1  0
 24 34  2  0
 25 24  1  0
 25 26  2  0
 26 27  1  0
 27 33  2  0
 27 28  1  0
 29 30  1  0
 29 28  1  6
 31 35  1  0
 31 29  1  0
 32 31  2  0
 34 33  1  0
M  END
$$$$
