WDY.pdb
     RDKit          3D

 35 37  0  0  1  0  0  0  0  0999 V2000
    8.2283  -16.8978   25.1779 N   0  0  0  0  0  0  0  0  0  0  0  0
    7.6496  -17.3225   23.8822 C   0  0  1  0  0  0  0  0  0  0  0  0
    6.8332  -16.2287   23.3876 C   0  0  0  0  0  0  0  0  0  0  0  0
    7.4259  -14.8861   23.4514 C   0  0  0  0  0  0  0  0  0  0  0  0
    8.1542  -14.2669   22.4780 C   0  0  0  0  0  0  0  0  0  0  0  0
    8.5877  -13.0656   22.8830 N   0  0  0  0  0  0  0  0  0  0  0  0
    8.1308  -12.9036   24.1455 C   0  0  0  0  0  0  0  0  0  0  0  0
    8.2844  -11.8431   25.0451 C   0  0  0  0  0  0  0  0  0  0  0  0
    7.7164  -11.9276   26.2817 C   0  0  0  0  0  0  0  0  0  0  0  0
    6.9888  -13.0381   26.6739 C   0  0  0  0  0  0  0  0  0  0  0  0
    6.8380  -14.0760   25.7946 C   0  0  0  0  0  0  0  0  0  0  0  0
    7.4078  -14.0106   24.5304 C   0  0  0  0  0  0  0  0  0  0  0  0
    8.6592  -17.9860   23.0753 C   0  0  0  0  0  0  0  0  0  0  0  0
    8.5504  -17.9351   21.7753 O   0  0  0  0  0  0  0  0  0  0  0  0
    9.7942  -18.7173   23.4748 N   0  0  0  0  0  0  0  0  0  0  0  0
   11.1207  -18.1254   23.6882 C   0  0  1  0  0  0  0  0  0  0  0  0
   11.2263  -16.8053   23.0132 C   0  0  0  0  0  0  0  0  0  0  0  0
   11.6543  -16.8624   21.6146 C   0  0  0  0  0  0  0  0  0  0  0  0
   11.9598  -15.8241   20.9836 O   0  0  0  0  0  0  0  0  0  0  0  0
   11.4385  -18.0653   25.1270 C   0  0  0  0  0  0  0  0  0  0  0  0
   12.6106  -17.7218   25.5296 O   0  0  0  0  0  0  0  0  0  0  0  0
   11.7291  -18.0757   20.9603 O   0  0  0  0  0  0  0  0  0  0  0  0
    9.0440  -12.1607   27.4543 O   0  0  0  0  0  0  0  0  0  0  0  0
    9.2584  -13.5159   27.6680 C   0  0  0  0  0  0  0  0  0  0  0  0
    8.1677  -14.3644   27.6733 C   0  0  0  0  0  0  0  0  0  0  0  0
    8.3485  -15.7144   27.8829 C   0  0  0  0  0  0  0  0  0  0  0  0
    9.6023  -16.2912   28.0962 C   0  0  0  0  0  0  0  0  0  0  0  0
    9.7515  -17.7435   28.3216 C   0  0  0  0  0  0  0  0  0  0  0  0
   10.9481  -18.3126   27.5885 C   0  0  2  0  0  0  0  0  0  0  0  0
   10.5413  -18.3561   26.1833 N   0  0  0  0  0  0  0  0  0  0  0  0
   11.2890  -19.6140   28.1499 C   0  0  0  0  0  0  0  0  0  0  0  0
   11.1361  -20.6486   27.4146 O   0  0  0  0  0  0  0  0  0  0  0  0
   10.6834  -15.4240   28.0871 C   0  0  0  0  0  0  0  0  0  0  0  0
   10.4990  -14.0703   27.8765 C   0  0  0  0  0  0  0  0  0  0  0  0
   11.7736  -19.7908   29.4421 O   0  0  0  0  0  0  0  0  0  0  0  0
  2  1  1  1
  2  3  1  0
  4  5  2  0
  4  3  1  0
  6  5  1  0
  7 12  2  0
  7  6  1  0
  8  7  1  0
  9  8  2  0
  9 10  1  0
 10 11  2  0
 11 12  1  0
 12  4  1  0
 13  2  1  0
 14 13  2  0
 15 13  1  0
 16 17  1  1
 16 15  1  0
 17 18  1  0
 18 19  2  0
 18 22  1  0
 20 30  1  0
 20 16  1  0
 21 20  2  0
 23 24  1  0
 24 34  2  0
 25 24  1  0
 25 26  2  0
 26 27  1  0
 27 33  2  0
 27 28  1  0
 29 30  1  0
 29 28  1  1
 31 35  1  0
 31 29  1  0
 32 31  2  0
 34 33  1  0
M  END
$$$$
