WDY.pdb
     RDKit          3D

 35 37  0  0  1  0  0  0  0  0999 V2000
    6.9731  -17.8981   24.2889 N   0  0  0  0  0  0  0  0  0  0  0  0
    7.9593  -16.8689   23.8861 C   0  0  1  0  0  0  0  0  0  0  0  0
    8.3412  -16.1372   25.0805 C   0  0  0  0  0  0  0  0  0  0  0  0
    7.3786  -15.1457   25.5788 C   0  0  0  0  0  0  0  0  0  0  0  0
    6.2966  -15.3849   26.3746 C   0  0  0  0  0  0  0  0  0  0  0  0
    5.6005  -14.2628   26.6015 N   0  0  0  0  0  0  0  0  0  0  0  0
    6.2452  -13.2762   25.9383 C   0  0  0  0  0  0  0  0  0  0  0  0
    5.9601  -11.9110   25.8264 C   0  0  0  0  0  0  0  0  0  0  0  0
    6.7805  -11.1153   25.0829 C   0  0  0  0  0  0  0  0  0  0  0  0
    7.8925  -11.6224   24.4328 C   0  0  0  0  0  0  0  0  0  0  0  0
    8.1722  -12.9577   24.5417 C   0  0  0  0  0  0  0  0  0  0  0  0
    7.3502  -13.7859   25.2938 C   0  0  0  0  0  0  0  0  0  0  0  0
    8.9252  -17.4346   22.9602 C   0  0  0  0  0  0  0  0  0  0  0  0
    9.2390  -18.6962   23.0806 O   0  0  0  0  0  0  0  0  0  0  0  0
    9.6222  -16.8234   21.9003 N   0  0  0  0  0  0  0  0  0  0  0  0
   10.9305  -17.2730   21.4089 C   0  0  1  0  0  0  0  0  0  0  0  0
   11.2262  -16.6851   20.0760 C   0  0  0  0  0  0  0  0  0  0  0  0
   10.4512  -17.2492   18.9698 C   0  0  0  0  0  0  0  0  0  0  0  0
    9.9443  -18.3924   19.0455 O   0  0  0  0  0  0  0  0  0  0  0  0
   11.9825  -17.0011   22.4060 C   0  0  0  0  0  0  0  0  0  0  0  0
   13.2027  -17.3440   22.1875 O   0  0  0  0  0  0  0  0  0  0  0  0
   10.2640  -16.5220   17.8113 O   0  0  0  0  0  0  0  0  0  0  0  0
    9.3057  -16.7019   29.8295 O   0  0  0  0  0  0  0  0  0  0  0  0
   10.0267  -16.2585   28.7287 C   0  0  0  0  0  0  0  0  0  0  0  0
   11.4056  -16.2232   28.8129 C   0  0  0  0  0  0  0  0  0  0  0  0
   12.1487  -15.7878   27.7370 C   0  0  0  0  0  0  0  0  0  0  0  0
   11.5753  -15.3687   26.5346 C   0  0  0  0  0  0  0  0  0  0  0  0
   12.4088  -14.9047   25.4067 C   0  0  0  0  0  0  0  0  0  0  0  0
   12.9035  -16.0547   24.5546 C   0  0  2  0  0  0  0  0  0  0  0  0
   11.7910  -16.3597   23.6539 N   0  0  0  0  0  0  0  0  0  0  0  0
   13.2944  -17.1647   25.4149 C   0  0  0  0  0  0  0  0  0  0  0  0
   12.5134  -18.1740   25.4920 O   0  0  0  0  0  0  0  0  0  0  0  0
   10.1915  -15.4115   26.4699 C   0  0  0  0  0  0  0  0  0  0  0  0
    9.4488  -15.8487   27.5506 C   0  0  0  0  0  0  0  0  0  0  0  0
   14.4722  -17.1860   26.1552 O   0  0  0  0  0  0  0  0  0  0  0  0
  2  1  1  1
  2  3  1  0
  4  5  2  0
  4  3  1  0
  6  5  1  0
  7 12  2  0
  7  6  1  0
  8  7  1  0
  9  8  2  0
  9 10  1  0
 10 11  2  0
 11 12  1  0
 12  4  1  0
 13  2  1  0
 14 13  2  0
 15 13  1  0
 16 17  1  6
 16 15  1  0
 17 18  1  0
 18 19  2  0
 18 22  1  0
 20 30  1  0
 20 16  1  0
 21 20  2  0
 23 24  1  0
 24 34  2  0
 25 24  1  0
 25 26  2  0
 26 27  1  0
 27 33  2  0
 27 28  1  0
 29 30  1  0
 29 28  1  1
 31 35  1  0
 31 29  1  0
 32 31  2  0
 34 33  1  0
M  END
$$$$
