WDY.pdb
     RDKit          3D

 35 37  0  0  1  0  0  0  0  0999 V2000
    6.9656  -18.2465   23.1092 N   0  0  0  0  0  0  0  0  0  0  0  0
    7.9138  -17.1997   23.5556 C   0  0  1  0  0  0  0  0  0  0  0  0
    7.5939  -16.8784   24.9348 C   0  0  0  0  0  0  0  0  0  0  0  0
    6.5555  -15.8615   25.1481 C   0  0  0  0  0  0  0  0  0  0  0  0
    5.2984  -16.0667   25.6368 C   0  0  0  0  0  0  0  0  0  0  0  0
    4.5908  -14.9291   25.6557 N   0  0  0  0  0  0  0  0  0  0  0  0
    5.4068  -13.9669   25.1687 C   0  0  0  0  0  0  0  0  0  0  0  0
    5.1895  -12.6000   24.9644 C   0  0  0  0  0  0  0  0  0  0  0  0
    6.1921  -11.8332   24.4489 C   0  0  0  0  0  0  0  0  0  0  0  0
    7.4245  -12.3715   24.1205 C   0  0  0  0  0  0  0  0  0  0  0  0
    7.6381  -13.7086   24.3200 C   0  0  0  0  0  0  0  0  0  0  0  0
    6.6310  -14.5077   24.8440 C   0  0  0  0  0  0  0  0  0  0  0  0
    9.2586  -17.5165   23.1069 C   0  0  0  0  0  0  0  0  0  0  0  0
    9.5773  -18.7700   22.9293 O   0  0  0  0  0  0  0  0  0  0  0  0
   10.3376  -16.6589   22.8183 N   0  0  0  0  0  0  0  0  0  0  0  0
   11.7491  -17.0430   22.9417 C   0  0  1  0  0  0  0  0  0  0  0  0
   12.6370  -15.9741   22.4140 C   0  0  0  0  0  0  0  0  0  0  0  0
   12.8250  -15.9921   20.9624 C   0  0  0  0  0  0  0  0  0  0  0  0
   12.3141  -16.8871   20.2501 O   0  0  0  0  0  0  0  0  0  0  0  0
   12.0657  -17.4227   24.3311 C   0  0  0  0  0  0  0  0  0  0  0  0
   13.1924  -17.9687   24.6252 O   0  0  0  0  0  0  0  0  0  0  0  0
   13.5773  -15.0114   20.3474 O   0  0  0  0  0  0  0  0  0  0  0  0
   12.0193  -11.6693   28.5649 O   0  0  0  0  0  0  0  0  0  0  0  0
   11.7112  -13.0074   28.3584 C   0  0  0  0  0  0  0  0  0  0  0  0
   10.3824  -13.3693   28.2450 C   0  0  0  0  0  0  0  0  0  0  0  0
   10.0450  -14.6897   28.0399 C   0  0  0  0  0  0  0  0  0  0  0  0
   10.9919  -15.7110   27.9373 C   0  0  0  0  0  0  0  0  0  0  0  0
   10.5870  -17.1152   27.7217 C   0  0  0  0  0  0  0  0  0  0  0  0
   11.5089  -17.8309   26.7568 C   0  0  2  0  0  0  0  0  0  0  0  0
   11.2185  -17.2380   25.4507 N   0  0  0  0  0  0  0  0  0  0  0  0
   11.2661  -19.2666   26.8260 C   0  0  0  0  0  0  0  0  0  0  0  0
   11.6039  -19.8864   27.8920 O   0  0  0  0  0  0  0  0  0  0  0  0
   12.3188  -15.3279   28.0535 C   0  0  0  0  0  0  0  0  0  0  0  0
   12.6542  -14.0028   28.2591 C   0  0  0  0  0  0  0  0  0  0  0  0
   10.6848  -19.9987   25.7955 O   0  0  0  0  0  0  0  0  0  0  0  0
  2  1  1  1
  2  3  1  0
  4  5  2  0
  4  3  1  0
  6  5  1  0
  7 12  2  0
  7  6  1  0
  8  7  1  0
  9  8  2  0
  9 10  1  0
 10 11  2  0
 11 12  1  0
 12  4  1  0
 13  2  1  0
 14 13  2  0
 15 13  1  0
 16 17  1  1
 16 15  1  0
 17 18  1  0
 18 19  2  0
 18 22  1  0
 20 30  1  0
 20 16  1  0
 21 20  2  0
 23 24  1  0
 24 34  2  0
 25 24  1  0
 25 26  2  0
 26 27  1  0
 27 33  2  0
 27 28  1  0
 29 30  1  0
 29 28  1  1
 31 35  1  0
 31 29  1  0
 32 31  2  0
 34 33  1  0
M  END
$$$$
