WDY.pdb
     RDKit          3D

 35 37  0  0  1  0  0  0  0  0999 V2000
    5.8772  -16.7004   22.5504 N   0  0  0  0  0  0  0  0  0  0  0  0
    6.8055  -16.2667   21.4806 C   0  0  1  0  0  0  0  0  0  0  0  0
    6.4914  -14.8857   21.1615 C   0  0  0  0  0  0  0  0  0  0  0  0
    7.0719  -13.8608   22.0393 C   0  0  0  0  0  0  0  0  0  0  0  0
    7.8907  -12.8346   21.6677 C   0  0  0  0  0  0  0  0  0  0  0  0
    8.2795  -12.1129   22.7275 N   0  0  0  0  0  0  0  0  0  0  0  0
    7.7006  -12.6839   23.8081 C   0  0  0  0  0  0  0  0  0  0  0  0
    7.7628  -12.3468   25.1646 C   0  0  0  0  0  0  0  0  0  0  0  0
    7.0765  -13.0978   26.0723 C   0  0  0  0  0  0  0  0  0  0  0  0
    6.3165  -14.1891   25.6878 C   0  0  0  0  0  0  0  0  0  0  0  0
    6.2551  -14.5197   24.3612 C   0  0  0  0  0  0  0  0  0  0  0  0
    6.9460  -13.7685   23.4200 C   0  0  0  0  0  0  0  0  0  0  0  0
    8.1529  -16.7272   21.7685 C   0  0  0  0  0  0  0  0  0  0  0  0
    8.3978  -17.2427   22.9427 O   0  0  0  0  0  0  0  0  0  0  0  0
    9.3038  -16.7091   20.9573 N   0  0  0  0  0  0  0  0  0  0  0  0
   10.6172  -17.2087   21.3822 C   0  0  1  0  0  0  0  0  0  0  0  0
   11.6510  -16.9224   20.3531 C   0  0  0  0  0  0  0  0  0  0  0  0
   12.8070  -17.8199   20.3767 C   0  0  0  0  0  0  0  0  0  0  0  0
   12.9151  -18.7207   21.2407 O   0  0  0  0  0  0  0  0  0  0  0  0
   10.9680  -16.6830   22.7146 C   0  0  0  0  0  0  0  0  0  0  0  0
   11.4944  -15.5169   22.8458 O   0  0  0  0  0  0  0  0  0  0  0  0
   13.8089  -17.6868   19.4363 O   0  0  0  0  0  0  0  0  0  0  0  0
   11.0642  -14.5720   31.2368 O   0  0  0  0  0  0  0  0  0  0  0  0
   10.8036  -15.1272   29.9910 C   0  0  0  0  0  0  0  0  0  0  0  0
   10.5825  -14.2787   28.9229 C   0  0  0  0  0  0  0  0  0  0  0  0
   10.3212  -14.7998   27.6742 C   0  0  0  0  0  0  0  0  0  0  0  0
   10.2648  -16.1713   27.4174 C   0  0  0  0  0  0  0  0  0  0  0  0
    9.9769  -16.6883   26.0638 C   0  0  0  0  0  0  0  0  0  0  0  0
   11.2294  -16.8014   25.2202 C   0  0  2  0  0  0  0  0  0  0  0  0
   10.7739  -17.3566   23.9450 N   0  0  0  0  0  0  0  0  0  0  0  0
   12.2097  -17.6284   25.9132 C   0  0  0  0  0  0  0  0  0  0  0  0
   13.1018  -17.0451   26.6192 O   0  0  0  0  0  0  0  0  0  0  0  0
   10.4893  -17.0056   28.5011 C   0  0  0  0  0  0  0  0  0  0  0  0
   10.7512  -16.4800   29.7525 C   0  0  0  0  0  0  0  0  0  0  0  0
   12.2260  -19.0182   25.8493 O   0  0  0  0  0  0  0  0  0  0  0  0
  2  1  1  1
  2  3  1  0
  4  5  2  0
  4  3  1  0
  6  5  1  0
  7 12  2  0
  7  6  1  0
  8  7  1  0
  9  8  2  0
  9 10  1  0
 10 11  2  0
 11 12  1  0
 12  4  1  0
 13  2  1  0
 14 13  2  0
 15 13  1  0
 16 17  1  6
 16 15  1  0
 17 18  1  0
 18 19  2  0
 18 22  1  0
 20 30  1  0
 20 16  1  0
 21 20  2  0
 23 24  1  0
 24 34  2  0
 25 24  1  0
 25 26  2  0
 26 27  1  0
 27 33  2  0
 27 28  1  0
 29 30  1  0
 29 28  1  1
 31 35  1  0
 31 29  1  0
 32 31  2  0
 34 33  1  0
M  END
$$$$
