WDY.pdb
     RDKit          3D

 35 37  0  0  1  0  0  0  0  0999 V2000
    8.6964  -16.4364   20.1505 N   0  0  0  0  0  0  0  0  0  0  0  0
    8.9034  -16.0896   21.5756 C   0  0  1  0  0  0  0  0  0  0  0  0
    7.5952  -15.8858   22.1712 C   0  0  0  0  0  0  0  0  0  0  0  0
    7.1579  -14.4930   22.3340 C   0  0  0  0  0  0  0  0  0  0  0  0
    6.9375  -13.5838   21.3409 C   0  0  0  0  0  0  0  0  0  0  0  0
    6.5946  -12.3890   21.8408 N   0  0  0  0  0  0  0  0  0  0  0  0
    6.5931  -12.5272   23.1861 C   0  0  0  0  0  0  0  0  0  0  0  0
    6.3121  -11.6053   24.2003 C   0  0  0  0  0  0  0  0  0  0  0  0
    6.3847  -12.0013   25.5029 C   0  0  0  0  0  0  0  0  0  0  0  0
    6.7303  -13.2956   25.8517 C   0  0  0  0  0  0  0  0  0  0  0  0
    7.0054  -14.1982   24.8604 C   0  0  0  0  0  0  0  0  0  0  0  0
    6.9373  -13.8162   23.5274 C   0  0  0  0  0  0  0  0  0  0  0  0
    9.9148  -16.9531   22.1603 C   0  0  0  0  0  0  0  0  0  0  0  0
    9.8049  -18.2433   21.9935 O   0  0  0  0  0  0  0  0  0  0  0  0
   11.0529  -16.6213   22.9201 N   0  0  0  0  0  0  0  0  0  0  0  0
   11.7301  -17.5487   23.8348 C   0  0  1  0  0  0  0  0  0  0  0  0
   13.0133  -16.9742   24.3173 C   0  0  0  0  0  0  0  0  0  0  0  0
   13.9434  -16.5733   23.2605 C   0  0  0  0  0  0  0  0  0  0  0  0
   13.8418  -17.0259   22.0967 O   0  0  0  0  0  0  0  0  0  0  0  0
   10.8288  -17.9498   24.9309 C   0  0  0  0  0  0  0  0  0  0  0  0
   11.1732  -18.8648   25.7666 O   0  0  0  0  0  0  0  0  0  0  0  0
   14.9596  -15.6791   23.5322 O   0  0  0  0  0  0  0  0  0  0  0  0
   12.2315  -14.4298   30.3916 O   0  0  0  0  0  0  0  0  0  0  0  0
   11.2534  -14.9207   29.5369 C   0  0  0  0  0  0  0  0  0  0  0  0
   10.8007  -16.2129   29.7241 C   0  0  0  0  0  0  0  0  0  0  0  0
    9.8307  -16.7284   28.8919 C   0  0  0  0  0  0  0  0  0  0  0  0
    9.2632  -16.0029   27.8422 C   0  0  0  0  0  0  0  0  0  0  0  0
    8.2284  -16.5954   26.9702 C   0  0  0  0  0  0  0  0  0  0  0  0
    8.7104  -17.8632   26.2967 C   0  0  2  0  0  0  0  0  0  0  0  0
    9.5477  -17.4038   25.1877 N   0  0  0  0  0  0  0  0  0  0  0  0
    7.5626  -18.6619   25.8847 C   0  0  0  0  0  0  0  0  0  0  0  0
    7.3347  -18.7927   24.6335 O   0  0  0  0  0  0  0  0  0  0  0  0
    9.7303  -14.7093   27.6708 C   0  0  0  0  0  0  0  0  0  0  0  0
   10.7032  -14.1949   28.5072 C   0  0  0  0  0  0  0  0  0  0  0  0
    6.7026  -19.2911   26.7794 O   0  0  0  0  0  0  0  0  0  0  0  0
  2  1  1  6
  2  3  1  0
  4  5  2  0
  4  3  1  0
  6  5  1  0
  7 12  2  0
  7  6  1  0
  8  7  1  0
  9  8  2  0
  9 10  1  0
 10 11  2  0
 11 12  1  0
 12  4  1  0
 13  2  1  0
 14 13  2  0
 15 13  1  0
 16 17  1  1
 16 15  1  0
 17 18  1  0
 18 19  2  0
 18 22  1  0
 20 30  1  0
 20 16  1  0
 21 20  2  0
 23 24  1  0
 24 34  2  0
 25 24  1  0
 25 26  2  0
 26 27  1  0
 27 33  2  0
 27 28  1  0
 29 30  1  0
 29 28  1  6
 31 35  1  0
 31 29  1  0
 32 31  2  0
 34 33  1  0
M  END
$$$$
