WDY.pdb
     RDKit          3D

 35 37  0  0  1  0  0  0  0  0999 V2000
    8.2385  -18.8143   22.1560 N   0  0  0  0  0  0  0  0  0  0  0  0
    8.7173  -17.5156   22.6836 C   0  0  1  0  0  0  0  0  0  0  0  0
    7.5825  -16.8449   23.2919 C   0  0  0  0  0  0  0  0  0  0  0  0
    6.8365  -15.9114   22.4376 C   0  0  0  0  0  0  0  0  0  0  0  0
    5.6111  -16.1192   21.8748 C   0  0  0  0  0  0  0  0  0  0  0  0
    5.2428  -15.0815   21.1115 N   0  0  0  0  0  0  0  0  0  0  0  0
    6.2510  -14.1828   21.1812 C   0  0  0  0  0  0  0  0  0  0  0  0
    6.4003  -12.9270   20.5828 C   0  0  0  0  0  0  0  0  0  0  0  0
    7.5340  -12.2061   20.8152 C   0  0  0  0  0  0  0  0  0  0  0  0
    8.5459  -12.6839   21.6302 C   0  0  0  0  0  0  0  0  0  0  0  0
    8.4007  -13.9122   22.2161 C   0  0  0  0  0  0  0  0  0  0  0  0
    7.2544  -14.6629   21.9931 C   0  0  0  0  0  0  0  0  0  0  0  0
    9.9919  -17.6876   23.3589 C   0  0  0  0  0  0  0  0  0  0  0  0
   10.2756  -18.8565   23.8664 O   0  0  0  0  0  0  0  0  0  0  0  0
   11.0289  -16.7601   23.5759 N   0  0  0  0  0  0  0  0  0  0  0  0
   12.2232  -17.0359   24.3839 C   0  0  1  0  0  0  0  0  0  0  0  0
   13.3115  -16.0747   24.0657 C   0  0  0  0  0  0  0  0  0  0  0  0
   13.7722  -16.1055   22.6767 C   0  0  0  0  0  0  0  0  0  0  0  0
   14.1106  -15.0578   22.0789 O   0  0  0  0  0  0  0  0  0  0  0  0
   11.8843  -17.0700   25.8188 C   0  0  0  0  0  0  0  0  0  0  0  0
   12.8000  -17.2209   26.7092 O   0  0  0  0  0  0  0  0  0  0  0  0
   13.8420  -17.3038   21.9946 O   0  0  0  0  0  0  0  0  0  0  0  0
    7.6271  -11.6201   25.2572 O   0  0  0  0  0  0  0  0  0  0  0  0
    7.9637  -12.7859   25.9323 C   0  0  0  0  0  0  0  0  0  0  0  0
    7.2948  -13.9517   25.6111 C   0  0  0  0  0  0  0  0  0  0  0  0
    7.6063  -15.1247   26.2639 C   0  0  0  0  0  0  0  0  0  0  0  0
    8.5841  -15.2072   27.2575 C   0  0  0  0  0  0  0  0  0  0  0  0
    8.8840  -16.4847   27.9360 C   0  0  0  0  0  0  0  0  0  0  0  0
   10.3428  -16.8693   27.8047 C   0  0  2  0  0  0  0  0  0  0  0  0
   10.5833  -16.9421   26.3629 N   0  0  0  0  0  0  0  0  0  0  0  0
   10.5815  -18.1215   28.5119 C   0  0  0  0  0  0  0  0  0  0  0  0
   10.7227  -19.1883   27.8216 O   0  0  0  0  0  0  0  0  0  0  0  0
    9.2436  -14.0277   27.5653 C   0  0  0  0  0  0  0  0  0  0  0  0
    8.9290  -12.8527   26.9088 C   0  0  0  0  0  0  0  0  0  0  0  0
   10.6657  -18.2182   29.8973 O   0  0  0  0  0  0  0  0  0  0  0  0
  2  1  1  1
  2  3  1  0
  4  5  2  0
  4  3  1  0
  6  5  1  0
  7 12  2  0
  7  6  1  0
  8  7  1  0
  9  8  2  0
  9 10  1  0
 10 11  2  0
 11 12  1  0
 12  4  1  0
 13  2  1  0
 14 13  2  0
 15 13  1  0
 16 17  1  1
 16 15  1  0
 17 18  1  0
 18 19  2  0
 18 22  1  0
 20 30  1  0
 20 16  1  0
 21 20  2  0
 23 24  1  0
 24 34  2  0
 25 24  1  0
 25 26  2  0
 26 27  1  0
 27 33  2  0
 27 28  1  0
 29 30  1  0
 29 28  1  6
 31 35  1  0
 31 29  1  0
 32 31  2  0
 34 33  1  0
M  END
$$$$
