WDY.pdb
     RDKit          3D

 35 37  0  0  1  0  0  0  0  0999 V2000
    6.4768  -18.2158   22.5964 N   0  0  0  0  0  0  0  0  0  0  0  0
    7.2283  -17.1004   21.9757 C   0  0  1  0  0  0  0  0  0  0  0  0
    6.5562  -15.8652   22.3367 C   0  0  0  0  0  0  0  0  0  0  0  0
    6.4216  -15.5866   23.7727 C   0  0  0  0  0  0  0  0  0  0  0  0
    5.7644  -16.3475   24.6951 C   0  0  0  0  0  0  0  0  0  0  0  0
    5.7934  -15.7774   25.9072 N   0  0  0  0  0  0  0  0  0  0  0  0
    6.4835  -14.6229   25.7669 C   0  0  0  0  0  0  0  0  0  0  0  0
    6.8149  -13.6357   26.7013 C   0  0  0  0  0  0  0  0  0  0  0  0
    7.5294  -12.5466   26.2984 C   0  0  0  0  0  0  0  0  0  0  0  0
    7.9380  -12.3895   24.9851 C   0  0  0  0  0  0  0  0  0  0  0  0
    7.6144  -13.3547   24.0703 C   0  0  0  0  0  0  0  0  0  0  0  0
    6.8876  -14.4718   24.4591 C   0  0  0  0  0  0  0  0  0  0  0  0
    8.6569  -17.3037   22.1429 C   0  0  0  0  0  0  0  0  0  0  0  0
    9.0628  -18.3224   22.8513 O   0  0  0  0  0  0  0  0  0  0  0  0
    9.7382  -16.5486   21.6493 N   0  0  0  0  0  0  0  0  0  0  0  0
   11.1483  -16.8661   21.9066 C   0  0  1  0  0  0  0  0  0  0  0  0
   12.0395  -16.0818   21.0120 C   0  0  0  0  0  0  0  0  0  0  0  0
   12.0340  -16.5077   19.6116 C   0  0  0  0  0  0  0  0  0  0  0  0
   12.0524  -17.7209   19.2993 O   0  0  0  0  0  0  0  0  0  0  0  0
   11.4682  -16.6936   23.3358 C   0  0  0  0  0  0  0  0  0  0  0  0
   11.8355  -15.5502   23.7960 O   0  0  0  0  0  0  0  0  0  0  0  0
   12.0080  -15.5684   18.6002 O   0  0  0  0  0  0  0  0  0  0  0  0
   11.1969  -13.9574   31.1710 O   0  0  0  0  0  0  0  0  0  0  0  0
   11.0508  -14.5784   29.9376 C   0  0  0  0  0  0  0  0  0  0  0  0
   10.5649  -13.8363   28.8780 C   0  0  0  0  0  0  0  0  0  0  0  0
   10.4086  -14.4247   27.6416 C   0  0  0  0  0  0  0  0  0  0  0  0
   10.7205  -15.7624   27.3895 C   0  0  0  0  0  0  0  0  0  0  0  0
   10.5336  -16.3554   26.0494 C   0  0  0  0  0  0  0  0  0  0  0  0
   11.5688  -17.4191   25.7491 C   0  0  2  0  0  0  0  0  0  0  0  0
   11.4081  -17.7069   24.3232 N   0  0  0  0  0  0  0  0  0  0  0  0
   11.3501  -18.5698   26.6169 C   0  0  0  0  0  0  0  0  0  0  0  0
   10.5412  -19.4785   26.2238 O   0  0  0  0  0  0  0  0  0  0  0  0
   11.2064  -16.4897   28.4646 C   0  0  0  0  0  0  0  0  0  0  0  0
   11.3621  -15.8968   29.7036 C   0  0  0  0  0  0  0  0  0  0  0  0
   11.9754  -18.7336   27.8490 O   0  0  0  0  0  0  0  0  0  0  0  0
  2  1  1  1
  2  3  1  0
  4  5  2  0
  4  3  1  0
  6  5  1  0
  7 12  2  0
  7  6  1  0
  8  7  1  0
  9  8  2  0
  9 10  1  0
 10 11  2  0
 11 12  1  0
 12  4  1  0
 13  2  1  0
 14 13  2  0
 15 13  1  0
 16 17  1  6
 16 15  1  0
 17 18  1  0
 18 19  2  0
 18 22  1  0
 20 30  1  0
 20 16  1  0
 21 20  2  0
 23 24  1  0
 24 34  2  0
 25 24  1  0
 25 26  2  0
 26 27  1  0
 27 33  2  0
 27 28  1  0
 29 30  1  0
 29 28  1  1
 31 35  1  0
 31 29  1  0
 32 31  2  0
 34 33  1  0
M  END
$$$$
