PSQ.pdb
     RDKit          3D

 23 23  0  0  1  0  0  0  0  0999 V2000
   26.6321  -15.4837  -18.0129 N   0  0  0  0  0  0  0  0  0  0  0  0
   27.2991  -16.6165  -17.4032 C   0  0  0  0  0  0  0  0  0  0  0  0
   27.9477  -16.0480  -16.1746 C   0  0  0  0  0  0  0  0  0  0  0  0
   27.2560  -14.7121  -15.8811 C   0  0  0  0  0  0  0  0  0  0  0  0
   26.1359  -14.7672  -16.8810 C   0  0  1  0  0  0  0  0  0  0  0  0
   25.5030  -13.4876  -17.1916 C   0  0  0  0  0  0  0  0  0  0  0  0
   25.1640  -12.7415  -16.2137 O   0  0  0  0  0  0  0  0  0  0  0  0
   26.6204  -10.8536  -19.8331 O   0  0  0  0  0  0  0  0  0  0  0  0
   25.2632  -11.1797  -20.0204 C   0  0  0  0  0  0  0  0  0  0  0  0
   24.6741  -11.7244  -18.7304 C   0  0  2  0  0  0  0  0  0  0  0  0
   25.2407  -13.0195  -18.5037 N   0  0  0  0  0  0  0  0  0  0  0  0
   23.1937  -11.7404  -18.7762 C   0  0  0  0  0  0  0  0  0  0  0  0
   22.6457  -12.7245  -19.3396 O   0  0  0  0  0  0  0  0  0  0  0  0
   17.6729   -9.9636  -16.3219 N   0  0  0  0  0  0  0  0  0  0  0  0
   17.9171  -11.3588  -16.4793 C   0  0  0  0  0  0  0  0  0  0  0  0
   16.9219  -12.1095  -16.3422 O   0  0  0  0  0  0  0  0  0  0  0  0
   19.2512  -11.9038  -16.7836 C   0  0  0  0  0  0  0  0  0  0  0  0
   20.3341  -10.8741  -16.9171 C   0  0  0  0  0  0  0  0  0  0  0  0
   20.9267  -10.7276  -18.2762 C   0  0  2  0  0  0  0  0  0  0  0  0
   22.3902  -10.7087  -18.2201 N   0  0  0  0  0  0  0  0  0  0  0  0
   20.4119   -9.5822  -19.0581 C   0  0  0  0  0  0  0  0  0  0  0  0
   19.2173   -9.6980  -19.7430 O   0  0  0  0  0  0  0  0  0  0  0  0
   21.0303   -8.4933  -19.1240 O   0  0  0  0  0  0  0  0  0  0  0  0
  1  2  1  0
  2  3  1  0
  4  3  1  0
  5  1  1  0
  5  4  1  0
  5  6  1  6
  6  7  2  0
  9  8  1  0
 10  9  1  6
 10 12  1  0
 11  6  1  0
 11 10  1  0
 12 20  1  0
 13 12  2  0
 15 14  1  0
 15 17  1  0
 16 15  2  0
 18 17  1  0
 19 18  1  1
 20 19  1  0
 21 19  1  0
 21 22  1  0
 23 21  2  0
M  END
$$$$
