PSQ.pdb
     RDKit          3D

 23 23  0  0  1  0  0  0  0  0999 V2000
   19.7166  -12.2837  -17.6680 N   0  0  0  0  0  0  0  0  0  0  0  0
   18.7345  -13.1720  -18.2563 C   0  0  0  0  0  0  0  0  0  0  0  0
   18.0995  -13.8543  -17.0797 C   0  0  0  0  0  0  0  0  0  0  0  0
   18.4207  -13.0064  -15.8439 C   0  0  0  0  0  0  0  0  0  0  0  0
   19.0471  -11.8081  -16.4991 C   0  0  1  0  0  0  0  0  0  0  0  0
   19.8583  -10.9629  -15.6261 C   0  0  0  0  0  0  0  0  0  0  0  0
   19.2740  -10.3878  -14.6485 O   0  0  0  0  0  0  0  0  0  0  0  0
   23.9305  -10.0523  -16.2909 O   0  0  0  0  0  0  0  0  0  0  0  0
   23.4339  -10.2303  -14.9851 C   0  0  0  0  0  0  0  0  0  0  0  0
   21.9645   -9.8489  -14.9286 C   0  0  2  0  0  0  0  0  0  0  0  0
   21.2483  -10.7390  -15.7913 N   0  0  0  0  0  0  0  0  0  0  0  0
   21.7623   -8.4224  -15.2720 C   0  0  0  0  0  0  0  0  0  0  0  0
   21.2893   -8.1659  -16.4107 O   0  0  0  0  0  0  0  0  0  0  0  0
   17.5224   -5.4265  -15.6571 N   0  0  0  0  0  0  0  0  0  0  0  0
   18.3697   -4.2925  -15.4935 C   0  0  0  0  0  0  0  0  0  0  0  0
   17.8202   -3.1728  -15.6241 O   0  0  0  0  0  0  0  0  0  0  0  0
   19.8063   -4.4096  -15.1903 C   0  0  0  0  0  0  0  0  0  0  0  0
   20.3027   -5.8172  -15.0384 C   0  0  0  0  0  0  0  0  0  0  0  0
   21.7385   -5.9628  -14.6678 C   0  0  2  0  0  0  0  0  0  0  0  0
   22.0762   -7.3593  -14.3829 N   0  0  0  0  0  0  0  0  0  0  0  0
   22.1908   -5.0750  -13.5745 C   0  0  0  0  0  0  0  0  0  0  0  0
   22.3174   -5.5729  -12.2916 O   0  0  0  0  0  0  0  0  0  0  0  0
   22.4669   -3.8678  -13.7722 O   0  0  0  0  0  0  0  0  0  0  0  0
  1  2  1  0
  2  3  1  0
  4  3  1  0
  5  1  1  0
  5  4  1  0
  5  6  1  1
  6  7  2  0
  9  8  1  0
 10  9  1  6
 10 12  1  0
 11  6  1  0
 11 10  1  0
 12 20  1  0
 13 12  2  0
 15 14  1  0
 15 17  1  0
 16 15  2  0
 18 17  1  0
 19 18  1  1
 20 19  1  0
 21 19  1  0
 21 22  1  0
 23 21  2  0
M  END
$$$$
