PSQ.pdb
     RDKit          3D

 23 23  0  0  1  0  0  0  0  0999 V2000
   20.4422  -13.0404  -17.5266 N   0  0  0  0  0  0  0  0  0  0  0  0
   19.4241  -13.7569  -18.2681 C   0  0  0  0  0  0  0  0  0  0  0  0
   18.1435  -13.4184  -17.5618 C   0  0  0  0  0  0  0  0  0  0  0  0
   18.4135  -12.1649  -16.7222 C   0  0  0  0  0  0  0  0  0  0  0  0
   19.7897  -11.8097  -17.2095 C   0  0  1  0  0  0  0  0  0  0  0  0
   20.5536  -10.9127  -16.3456 C   0  0  0  0  0  0  0  0  0  0  0  0
   19.9533  -10.4038  -15.3414 O   0  0  0  0  0  0  0  0  0  0  0  0
   24.3870  -10.9997  -15.0665 O   0  0  0  0  0  0  0  0  0  0  0  0
   24.0580   -9.8424  -15.7985 C   0  0  0  0  0  0  0  0  0  0  0  0
   22.5617   -9.5889  -15.7302 C   0  0  2  0  0  0  0  0  0  0  0  0
   21.9143  -10.5702  -16.5473 N   0  0  0  0  0  0  0  0  0  0  0  0
   22.2301   -8.1996  -16.1219 C   0  0  0  0  0  0  0  0  0  0  0  0
   21.9276   -7.9980  -17.3278 O   0  0  0  0  0  0  0  0  0  0  0  0
   17.9594   -4.3561  -16.5376 N   0  0  0  0  0  0  0  0  0  0  0  0
   18.0867   -5.2489  -15.4342 C   0  0  0  0  0  0  0  0  0  0  0  0
   17.0748   -5.3660  -14.7028 O   0  0  0  0  0  0  0  0  0  0  0  0
   19.3247   -5.9961  -15.1539 C   0  0  0  0  0  0  0  0  0  0  0  0
   20.4327   -5.7668  -16.1392 C   0  0  0  0  0  0  0  0  0  0  0  0
   21.8119   -5.7620  -15.5757 C   0  0  2  0  0  0  0  0  0  0  0  0
   22.2414   -7.1127  -15.2065 N   0  0  0  0  0  0  0  0  0  0  0  0
   22.0231   -4.8154  -14.4587 C   0  0  0  0  0  0  0  0  0  0  0  0
   22.3371   -5.2943  -13.2010 O   0  0  0  0  0  0  0  0  0  0  0  0
   21.9250   -3.5749  -14.6136 O   0  0  0  0  0  0  0  0  0  0  0  0
  1  2  1  0
  2  3  1  0
  4  3  1  0
  5  1  1  0
  5  4  1  0
  5  6  1  1
  6  7  2  0
  9  8  1  0
 10  9  1  6
 10 12  1  0
 11  6  1  0
 11 10  1  0
 12 20  1  0
 13 12  2  0
 15 14  1  0
 15 17  1  0
 16 15  2  0
 18 17  1  0
 19 18  1  1
 20 19  1  0
 21 19  1  0
 21 22  1  0
 23 21  2  0
M  END
$$$$
