PSQ.pdb
     RDKit          3D

 23 23  0  0  1  0  0  0  0  0999 V2000
   26.4495  -21.6683  -15.7060 N   0  0  0  0  0  0  0  0  0  0  0  0
   27.0030  -22.4996  -16.7559 C   0  0  0  0  0  0  0  0  0  0  0  0
   26.4733  -23.8726  -16.4601 C   0  0  0  0  0  0  0  0  0  0  0  0
   25.2751  -23.6970  -15.5206 C   0  0  0  0  0  0  0  0  0  0  0  0
   25.1337  -22.2014  -15.5466 C   0  0  1  0  0  0  0  0  0  0  0  0
   24.3630  -21.6206  -14.4497 C   0  0  0  0  0  0  0  0  0  0  0  0
   24.9986  -20.9529  -13.5676 O   0  0  0  0  0  0  0  0  0  0  0  0
   21.4533  -19.1408  -12.2742 O   0  0  0  0  0  0  0  0  0  0  0  0
   22.1272  -19.7171  -13.3683 C   0  0  0  0  0  0  0  0  0  0  0  0
   22.2833  -21.2133  -13.1564 C   0  0  2  0  0  0  0  0  0  0  0  0
   22.9593  -21.7486  -14.2993 N   0  0  0  0  0  0  0  0  0  0  0  0
   20.9770  -21.8626  -12.8999 C   0  0  0  0  0  0  0  0  0  0  0  0
   20.2042  -22.0094  -13.8834 O   0  0  0  0  0  0  0  0  0  0  0  0
   19.0660  -25.0732   -8.0248 N   0  0  0  0  0  0  0  0  0  0  0  0
   17.8107  -24.7004   -8.5869 C   0  0  0  0  0  0  0  0  0  0  0  0
   16.8293  -25.4081   -8.2571 O   0  0  0  0  0  0  0  0  0  0  0  0
   17.6569  -23.5569   -9.5025 C   0  0  0  0  0  0  0  0  0  0  0  0
   18.9423  -22.8903   -9.8952 C   0  0  0  0  0  0  0  0  0  0  0  0
   19.2521  -22.8850  -11.3525 C   0  0  2  0  0  0  0  0  0  0  0  0
   20.5755  -22.3142  -11.6138 N   0  0  0  0  0  0  0  0  0  0  0  0
   18.2234  -22.2483  -12.2038 C   0  0  0  0  0  0  0  0  0  0  0  0
   17.5250  -23.0075  -13.1232 O   0  0  0  0  0  0  0  0  0  0  0  0
   17.9588  -21.0253  -12.1211 O   0  0  0  0  0  0  0  0  0  0  0  0
  1  2  1  0
  2  3  1  0
  4  3  1  0
  5  1  1  0
  5  4  1  0
  5  6  1  1
  6  7  2  0
  9  8  1  0
 10  9  1  6
 10 12  1  0
 11  6  1  0
 11 10  1  0
 12 20  1  0
 13 12  2  0
 15 14  1  0
 15 17  1  0
 16 15  2  0
 18 17  1  0
 19 18  1  1
 20 19  1  0
 21 19  1  0
 21 22  1  0
 23 21  2  0
M  END
$$$$
