PSQ.pdb
     RDKit          3D

 23 23  0  0  1  0  0  0  0  0999 V2000
   22.2795  -14.1578  -19.9913 N   0  0  0  0  0  0  0  0  0  0  0  0
   21.9652  -15.1919  -20.9564 C   0  0  0  0  0  0  0  0  0  0  0  0
   21.8817  -16.4486  -20.1395 C   0  0  0  0  0  0  0  0  0  0  0  0
   21.7028  -16.0214  -18.6785 C   0  0  0  0  0  0  0  0  0  0  0  0
   21.5021  -14.5429  -18.8564 C   0  0  1  0  0  0  0  0  0  0  0  0
   21.7120  -13.7288  -17.6615 C   0  0  0  0  0  0  0  0  0  0  0  0
   20.9108  -13.8957  -16.6827 O   0  0  0  0  0  0  0  0  0  0  0  0
   24.5355  -10.9410  -14.9438 O   0  0  0  0  0  0  0  0  0  0  0  0
   24.3426  -11.6491  -16.1458 C   0  0  0  0  0  0  0  0  0  0  0  0
   22.8730  -11.9924  -16.3197 C   0  0  2  0  0  0  0  0  0  0  0  0
   22.7438  -12.7677  -17.5163 N   0  0  0  0  0  0  0  0  0  0  0  0
   22.0300  -10.7746  -16.3254 C   0  0  0  0  0  0  0  0  0  0  0  0
   21.9360  -10.1445  -17.4118 O   0  0  0  0  0  0  0  0  0  0  0  0
   17.6915   -9.0213  -11.8265 N   0  0  0  0  0  0  0  0  0  0  0  0
   17.5528   -8.0938  -12.8995 C   0  0  0  0  0  0  0  0  0  0  0  0
   16.5851   -7.3002  -12.8181 O   0  0  0  0  0  0  0  0  0  0  0  0
   18.4797   -8.0561  -14.0436 C   0  0  0  0  0  0  0  0  0  0  0  0
   19.5132   -9.1437  -14.0499 C   0  0  0  0  0  0  0  0  0  0  0  0
   20.4539   -9.1386  -15.2052 C   0  0  2  0  0  0  0  0  0  0  0  0
   21.3408  -10.3039  -15.1753 N   0  0  0  0  0  0  0  0  0  0  0  0
   21.2275   -7.8886  -15.3708 C   0  0  0  0  0  0  0  0  0  0  0  0
   20.6357   -6.7857  -15.9566 O   0  0  0  0  0  0  0  0  0  0  0  0
   22.4197   -7.7921  -14.9941 O   0  0  0  0  0  0  0  0  0  0  0  0
  1  2  1  0
  2  3  1  0
  4  3  1  0
  5  1  1  0
  5  4  1  0
  5  6  1  1
  6  7  2  0
  9  8  1  0
 10  9  1  6
 10 12  1  0
 11  6  1  0
 11 10  1  0
 12 20  1  0
 13 12  2  0
 15 14  1  0
 15 17  1  0
 16 15  2  0
 18 17  1  0
 19 18  1  1
 20 19  1  0
 21 19  1  0
 21 22  1  0
 23 21  2  0
M  END
$$$$
