PSQ.pdb
     RDKit          3D

 23 23  0  0  1  0  0  0  0  0999 V2000
   20.2395  -11.6759  -18.6504 N   0  0  0  0  0  0  0  0  0  0  0  0
   19.3556  -12.8022  -18.8735 C   0  0  0  0  0  0  0  0  0  0  0  0
   19.4867  -13.6292  -17.6276 C   0  0  0  0  0  0  0  0  0  0  0  0
   20.0895  -12.7215  -16.5496 C   0  0  0  0  0  0  0  0  0  0  0  0
   20.0485  -11.3992  -17.2619 C   0  0  1  0  0  0  0  0  0  0  0  0
   20.9187  -10.3604  -16.7159 C   0  0  0  0  0  0  0  0  0  0  0  0
   20.6675   -9.9351  -15.5395 O   0  0  0  0  0  0  0  0  0  0  0  0
   24.8437   -9.9051  -17.4951 O   0  0  0  0  0  0  0  0  0  0  0  0
   24.1294   -8.6951  -17.5898 C   0  0  0  0  0  0  0  0  0  0  0  0
   22.8379   -8.7874  -16.7953 C   0  0  2  0  0  0  0  0  0  0  0  0
   22.0215   -9.7941  -17.4034 N   0  0  0  0  0  0  0  0  0  0  0  0
   22.1632   -7.4720  -16.7048 C   0  0  0  0  0  0  0  0  0  0  0  0
   21.4259   -7.1356  -17.6688 O   0  0  0  0  0  0  0  0  0  0  0  0
   17.2367   -6.0475  -15.4682 N   0  0  0  0  0  0  0  0  0  0  0  0
   17.7528   -4.7428  -15.2191 C   0  0  0  0  0  0  0  0  0  0  0  0
   16.9020   -3.8484  -14.9981 O   0  0  0  0  0  0  0  0  0  0  0  0
   19.1952   -4.4443  -15.2184 C   0  0  0  0  0  0  0  0  0  0  0  0
   20.0805   -5.6260  -15.4846 C   0  0  0  0  0  0  0  0  0  0  0  0
   21.5461   -5.3599  -15.4504 C   0  0  2  0  0  0  0  0  0  0  0  0
   22.3158   -6.5977  -15.5950 N   0  0  0  0  0  0  0  0  0  0  0  0
   22.0090   -4.5823  -14.2803 C   0  0  0  0  0  0  0  0  0  0  0  0
   21.5802   -3.2801  -14.1062 O   0  0  0  0  0  0  0  0  0  0  0  0
   22.7894   -5.0688  -13.4277 O   0  0  0  0  0  0  0  0  0  0  0  0
  1  2  1  0
  2  3  1  0
  4  3  1  0
  5  1  1  0
  5  4  1  0
  5  6  1  1
  6  7  2  0
  9  8  1  0
 10  9  1  6
 10 12  1  0
 11  6  1  0
 11 10  1  0
 12 20  1  0
 13 12  2  0
 15 14  1  0
 15 17  1  0
 16 15  2  0
 18 17  1  0
 19 18  1  1
 20 19  1  0
 21 19  1  0
 21 22  1  0
 23 21  2  0
M  END
$$$$
