PSQ.pdb
     RDKit          3D

 23 23  0  0  1  0  0  0  0  0999 V2000
   28.0649  -21.5219  -10.5826 N   0  0  0  0  0  0  0  0  0  0  0  0
   29.3305  -21.4300   -9.8830 C   0  0  0  0  0  0  0  0  0  0  0  0
   30.3458  -21.2541  -10.9746 C   0  0  0  0  0  0  0  0  0  0  0  0
   29.5846  -20.7977  -12.2242 C   0  0  0  0  0  0  0  0  0  0  0  0
   28.2207  -20.5701  -11.6364 C   0  0  1  0  0  0  0  0  0  0  0  0
   27.1190  -20.5273  -12.5950 C   0  0  0  0  0  0  0  0  0  0  0  0
   27.1786  -19.6587  -13.5277 O   0  0  0  0  0  0  0  0  0  0  0  0
   24.2094  -23.5312  -13.0017 O   0  0  0  0  0  0  0  0  0  0  0  0
   24.7394  -22.7586  -14.0531 C   0  0  0  0  0  0  0  0  0  0  0  0
   24.9892  -21.3362  -13.5816 C   0  0  2  0  0  0  0  0  0  0  0  0
   25.9902  -21.3840  -12.5592 N   0  0  0  0  0  0  0  0  0  0  0  0
   23.7356  -20.6866  -13.1343 C   0  0  0  0  0  0  0  0  0  0  0  0
   23.5006  -20.6794  -11.8971 O   0  0  0  0  0  0  0  0  0  0  0  0
   20.7665  -18.4145  -18.0375 N   0  0  0  0  0  0  0  0  0  0  0  0
   20.6917  -17.7685  -16.7694 C   0  0  0  0  0  0  0  0  0  0  0  0
   20.9867  -16.5497  -16.7555 O   0  0  0  0  0  0  0  0  0  0  0  0
   20.2948  -18.4743  -15.5390 C   0  0  0  0  0  0  0  0  0  0  0  0
   21.2175  -18.2708  -14.3736 C   0  0  0  0  0  0  0  0  0  0  0  0
   21.5485  -19.4919  -13.5867 C   0  0  2  0  0  0  0  0  0  0  0  0
   22.8113  -20.0861  -14.0312 N   0  0  0  0  0  0  0  0  0  0  0  0
   20.4745  -20.5077  -13.5352 C   0  0  0  0  0  0  0  0  0  0  0  0
   19.3181  -20.2510  -12.8234 O   0  0  0  0  0  0  0  0  0  0  0  0
   20.5771  -21.6111  -14.1222 O   0  0  0  0  0  0  0  0  0  0  0  0
  1  2  1  0
  2  3  1  0
  4  3  1  0
  5  1  1  0
  5  4  1  0
  5  6  1  6
  6  7  2  0
  9  8  1  0
 10  9  1  1
 10 12  1  0
 11  6  1  0
 11 10  1  0
 12 20  1  0
 13 12  2  0
 15 14  1  0
 15 17  1  0
 16 15  2  0
 18 17  1  0
 19 18  1  6
 20 19  1  0
 21 19  1  0
 21 22  1  0
 23 21  2  0
M  END
$$$$
