PSQ.pdb
     RDKit          3D

 23 23  0  0  1  0  0  0  0  0999 V2000
   21.4440  -12.7621  -18.5105 N   0  0  0  0  0  0  0  0  0  0  0  0
   20.6838  -13.7008  -19.3108 C   0  0  0  0  0  0  0  0  0  0  0  0
   19.8133  -14.4149  -18.3180 C   0  0  0  0  0  0  0  0  0  0  0  0
   19.7762  -13.5508  -17.0527 C   0  0  0  0  0  0  0  0  0  0  0  0
   20.4835  -12.3216  -17.5492 C   0  0  1  0  0  0  0  0  0  0  0  0
   21.0102  -11.4347  -16.5145 C   0  0  0  0  0  0  0  0  0  0  0  0
   20.1729  -10.8773  -15.7296 O   0  0  0  0  0  0  0  0  0  0  0  0
   25.0800  -10.3176  -16.1000 O   0  0  0  0  0  0  0  0  0  0  0  0
   24.2823  -10.6204  -14.9795 C   0  0  0  0  0  0  0  0  0  0  0  0
   22.8279  -10.2908  -15.2692 C   0  0  2  0  0  0  0  0  0  0  0  0
   22.3862  -11.1521  -16.3240 N   0  0  0  0  0  0  0  0  0  0  0  0
   22.6510   -8.8541  -15.5828 C   0  0  0  0  0  0  0  0  0  0  0  0
   22.5684   -8.5362  -16.7986 O   0  0  0  0  0  0  0  0  0  0  0  0
   18.4618   -6.0898  -17.0611 N   0  0  0  0  0  0  0  0  0  0  0  0
   19.1068   -4.9293  -16.5435 C   0  0  0  0  0  0  0  0  0  0  0  0
   18.5085   -3.8419  -16.7237 O   0  0  0  0  0  0  0  0  0  0  0  0
   20.3985   -4.9847  -15.8378 C   0  0  0  0  0  0  0  0  0  0  0  0
   20.9476   -6.3671  -15.6420 C   0  0  0  0  0  0  0  0  0  0  0  0
   22.2287   -6.4557  -14.8865 C   0  0  2  0  0  0  0  0  0  0  0  0
   22.5734   -7.8467  -14.5836 N   0  0  0  0  0  0  0  0  0  0  0  0
   22.2912   -5.6176  -13.6692 C   0  0  0  0  0  0  0  0  0  0  0  0
   22.3741   -4.2430  -13.7839 O   0  0  0  0  0  0  0  0  0  0  0  0
   22.2726   -6.1169  -12.5190 O   0  0  0  0  0  0  0  0  0  0  0  0
  1  2  1  0
  2  3  1  0
  4  3  1  0
  5  1  1  0
  5  4  1  0
  5  6  1  1
  6  7  2  0
  9  8  1  0
 10  9  1  6
 10 12  1  0
 11  6  1  0
 11 10  1  0
 12 20  1  0
 13 12  2  0
 15 14  1  0
 15 17  1  0
 16 15  2  0
 18 17  1  0
 19 18  1  1
 20 19  1  0
 21 19  1  0
 21 22  1  0
 23 21  2  0
M  END
$$$$
