PSQ.pdb
     RDKit          3D

 23 23  0  0  1  0  0  0  0  0999 V2000
   27.1106  -19.0689  -14.5754 N   0  0  0  0  0  0  0  0  0  0  0  0
   28.2268  -18.7745  -15.4513 C   0  0  0  0  0  0  0  0  0  0  0  0
   29.1975  -19.8924  -15.2037 C   0  0  0  0  0  0  0  0  0  0  0  0
   28.4129  -21.0264  -14.5349 C   0  0  0  0  0  0  0  0  0  0  0  0
   27.0142  -20.4918  -14.6598 C   0  0  1  0  0  0  0  0  0  0  0  0
   26.0254  -21.0956  -13.7698 C   0  0  0  0  0  0  0  0  0  0  0  0
   25.3215  -22.0549  -14.2302 O   0  0  0  0  0  0  0  0  0  0  0  0
   25.9792  -21.6474   -9.7885 O   0  0  0  0  0  0  0  0  0  0  0  0
   24.8895  -20.8742  -10.2337 C   0  0  0  0  0  0  0  0  0  0  0  0
   24.6388  -21.1265  -11.7106 C   0  0  2  0  0  0  0  0  0  0  0  0
   25.7957  -20.6886  -12.4314 N   0  0  0  0  0  0  0  0  0  0  0  0
   23.3908  -20.4724  -12.1669 C   0  0  0  0  0  0  0  0  0  0  0  0
   23.4920  -19.3154  -12.6539 O   0  0  0  0  0  0  0  0  0  0  0  0
   22.0245  -21.6208  -17.1605 N   0  0  0  0  0  0  0  0  0  0  0  0
   20.7695  -21.0314  -16.8315 C   0  0  0  0  0  0  0  0  0  0  0  0
   20.0190  -20.7612  -17.7992 O   0  0  0  0  0  0  0  0  0  0  0  0
   20.3624  -20.7486  -15.4445 C   0  0  0  0  0  0  0  0  0  0  0  0
   21.4180  -21.0188  -14.4133 C   0  0  0  0  0  0  0  0  0  0  0  0
   21.0182  -20.7824  -12.9976 C   0  0  2  0  0  0  0  0  0  0  0  0
   22.1142  -21.0901  -12.0760 N   0  0  0  0  0  0  0  0  0  0  0  0
   19.7712  -21.4613  -12.5827 C   0  0  0  0  0  0  0  0  0  0  0  0
   18.5554  -20.8236  -12.7404 O   0  0  0  0  0  0  0  0  0  0  0  0
   19.7772  -22.6120  -12.0843 O   0  0  0  0  0  0  0  0  0  0  0  0
  1  2  1  0
  2  3  1  0
  4  3  1  0
  5  1  1  0
  5  4  1  0
  5  6  1  1
  6  7  2  0
  9  8  1  0
 10  9  1  1
 10 12  1  0
 11  6  1  0
 11 10  1  0
 12 20  1  0
 13 12  2  0
 15 14  1  0
 15 17  1  0
 16 15  2  0
 18 17  1  0
 19 18  1  6
 20 19  1  0
 21 19  1  0
 21 22  1  0
 23 21  2  0
M  END
$$$$
