PSQ.pdb
     RDKit          3D

 23 23  0  0  1  0  0  0  0  0999 V2000
   28.2539  -21.0269  -17.6151 N   0  0  0  0  0  0  0  0  0  0  0  0
   28.9888  -22.2551  -17.8414 C   0  0  0  0  0  0  0  0  0  0  0  0
   29.3218  -22.7475  -16.4630 C   0  0  0  0  0  0  0  0  0  0  0  0
   28.3796  -22.0284  -15.4913 C   0  0  0  0  0  0  0  0  0  0  0  0
   27.4653  -21.3420  -16.4663 C   0  0  1  0  0  0  0  0  0  0  0  0
   26.6897  -20.2273  -15.9276 C   0  0  0  0  0  0  0  0  0  0  0  0
   25.8820  -20.4749  -14.9714 O   0  0  0  0  0  0  0  0  0  0  0  0
   26.7256  -16.3476  -17.5542 O   0  0  0  0  0  0  0  0  0  0  0  0
   26.5427  -16.5288  -16.1696 C   0  0  0  0  0  0  0  0  0  0  0  0
   25.8939  -17.8758  -15.9003 C   0  0  2  0  0  0  0  0  0  0  0  0
   26.7737  -18.8914  -16.3943 N   0  0  0  0  0  0  0  0  0  0  0  0
   24.5366  -17.9497  -16.4886 C   0  0  0  0  0  0  0  0  0  0  0  0
   24.3883  -18.6795  -17.5042 O   0  0  0  0  0  0  0  0  0  0  0  0
   22.1369  -21.6235  -13.6598 N   0  0  0  0  0  0  0  0  0  0  0  0
   20.9031  -21.0722  -14.1121 C   0  0  0  0  0  0  0  0  0  0  0  0
   19.8760  -21.7479  -13.8649 O   0  0  0  0  0  0  0  0  0  0  0  0
   20.8207  -19.7882  -14.8291 C   0  0  0  0  0  0  0  0  0  0  0  0
   22.1394  -19.1088  -15.0530 C   0  0  0  0  0  0  0  0  0  0  0  0
   22.0922  -17.8409  -15.8341 C   0  0  2  0  0  0  0  0  0  0  0  0
   23.4232  -17.2426  -15.9597 N   0  0  0  0  0  0  0  0  0  0  0  0
   21.1092  -16.8482  -15.3479 C   0  0  0  0  0  0  0  0  0  0  0  0
   19.8422  -16.8080  -15.8982 O   0  0  0  0  0  0  0  0  0  0  0  0
   21.3885  -16.0281  -14.4412 O   0  0  0  0  0  0  0  0  0  0  0  0
  1  2  1  0
  2  3  1  0
  4  3  1  0
  5  1  1  0
  5  4  1  0
  5  6  1  1
  6  7  2  0
  9  8  1  0
 10  9  1  6
 10 12  1  0
 11  6  1  0
 11 10  1  0
 12 20  1  0
 13 12  2  0
 15 14  1  0
 15 17  1  0
 16 15  2  0
 18 17  1  0
 19 18  1  1
 20 19  1  0
 21 19  1  0
 21 22  1  0
 23 21  2  0
M  END
$$$$
