PSQ.pdb
     RDKit          3D

 23 23  0  0  1  0  0  0  0  0999 V2000
   26.4584  -11.3690  -17.4766 N   0  0  0  0  0  0  0  0  0  0  0  0
   27.6021  -12.0916  -16.9571 C   0  0  0  0  0  0  0  0  0  0  0  0
   27.6657  -11.6950  -15.5108 C   0  0  0  0  0  0  0  0  0  0  0  0
   26.2940  -11.1176  -15.1444 C   0  0  0  0  0  0  0  0  0  0  0  0
   25.5271  -11.4398  -16.3956 C   0  0  1  0  0  0  0  0  0  0  0  0
   24.2947  -10.6806  -16.5942 C   0  0  0  0  0  0  0  0  0  0  0  0
   24.3610   -9.6164  -17.2949 O   0  0  0  0  0  0  0  0  0  0  0  0
   20.6489  -11.6149  -14.7319 O   0  0  0  0  0  0  0  0  0  0  0  0
   20.6484  -11.0695  -16.0303 C   0  0  0  0  0  0  0  0  0  0  0  0
   21.8836  -10.2094  -16.2361 C   0  0  2  0  0  0  0  0  0  0  0  0
   23.0325  -11.0457  -16.0621 N   0  0  0  0  0  0  0  0  0  0  0  0
   21.8811   -9.0345  -15.3342 C   0  0  0  0  0  0  0  0  0  0  0  0
   22.8807   -8.8832  -14.5831 O   0  0  0  0  0  0  0  0  0  0  0  0
   24.5062   -4.7743  -16.5065 N   0  0  0  0  0  0  0  0  0  0  0  0
   23.6852   -4.0820  -15.5697 C   0  0  0  0  0  0  0  0  0  0  0  0
   24.0660   -2.9303  -15.2514 O   0  0  0  0  0  0  0  0  0  0  0  0
   22.4607   -4.6687  -14.9988 C   0  0  0  0  0  0  0  0  0  0  0  0
   22.1786   -6.0770  -15.4323 C   0  0  0  0  0  0  0  0  0  0  0  0
   20.9901   -6.7228  -14.8076 C   0  0  2  0  0  0  0  0  0  0  0  0
   20.8156   -8.0954  -15.2880 N   0  0  0  0  0  0  0  0  0  0  0  0
   19.7312   -5.9555  -14.9283 C   0  0  0  0  0  0  0  0  0  0  0  0
   19.4101   -5.0063  -13.9767 O   0  0  0  0  0  0  0  0  0  0  0  0
   18.9317   -6.1387  -15.8768 O   0  0  0  0  0  0  0  0  0  0  0  0
  1  2  1  0
  2  3  1  0
  4  3  1  0
  5  1  1  0
  5  4  1  0
  5  6  1  6
  6  7  2  0
  9  8  1  0
 10  9  1  1
 10 12  1  0
 11  6  1  0
 11 10  1  0
 12 20  1  0
 13 12  2  0
 15 14  1  0
 15 17  1  0
 16 15  2  0
 18 17  1  0
 19 18  1  6
 20 19  1  0
 21 19  1  0
 21 22  1  0
 23 21  2  0
M  END
$$$$
