YDT.pdb
     RDKit          3D

 28 28  0  0  1  0  0  0  0  0999 V2000
   24.7756  -14.8016  -22.6751 O   0  0  0  0  0  0  0  0  0  0  0  0
   24.2412  -15.8167  -21.8637 C   0  0  0  0  0  0  0  0  0  0  0  0
   24.8695  -17.0363  -21.8331 C   0  0  0  0  0  0  0  0  0  0  0  0
   24.3549  -18.0507  -21.0370 C   0  0  0  0  0  0  0  0  0  0  0  0
   23.2249  -17.8195  -20.2909 C   0  0  0  0  0  0  0  0  0  0  0  0
   22.6703  -18.8968  -19.4505 C   0  0  0  0  0  0  0  0  0  0  0  0
   23.2867  -18.7421  -18.0647 C   0  0  2  0  0  0  0  0  0  0  0  0
   24.5369  -19.4941  -18.0897 N   0  0  0  0  0  0  0  0  0  0  0  0
   22.4069  -19.3456  -17.0544 C   0  0  0  0  0  0  0  0  0  0  0  0
   22.4339  -20.5539  -16.8116 O   0  0  0  0  0  0  0  0  0  0  0  0
   22.6035  -16.6002  -20.3268 C   0  0  0  0  0  0  0  0  0  0  0  0
   23.1156  -15.5924  -21.1184 C   0  0  0  0  0  0  0  0  0  0  0  0
   21.4792  -18.5369  -16.3119 N   0  0  0  0  0  0  0  0  0  0  0  0
   20.6563  -19.0155  -15.2539 C   0  0  1  0  0  0  0  0  0  0  0  0
   20.4100  -17.9677  -14.1760 C   0  0  0  0  0  0  0  0  0  0  0  0
   19.6371  -18.6741  -13.1040 C   0  0  0  0  0  0  0  0  0  0  0  0
   19.9922  -19.7895  -12.6182 O   0  0  0  0  0  0  0  0  0  0  0  0
   19.4150  -19.6909  -15.6928 C   0  0  0  0  0  0  0  0  0  0  0  0
   18.5644  -19.1476  -16.4342 O   0  0  0  0  0  0  0  0  0  0  0  0
   18.4528  -18.1327  -12.5618 O   0  0  0  0  0  0  0  0  0  0  0  0
   18.6014  -23.8142  -14.3723 C   0  0  0  0  0  0  0  0  0  0  0  0
   18.1781  -23.2150  -15.6699 C   0  0  1  0  0  0  0  0  0  0  0  0
   17.0107  -23.8827  -16.0786 O   0  0  0  0  0  0  0  0  0  0  0  0
   17.8923  -21.7311  -15.5960 C   0  0  2  0  0  0  0  0  0  0  0  0
   19.1187  -21.0365  -15.2803 N   0  0  0  0  0  0  0  0  0  0  0  0
   16.8119  -21.4185  -14.6456 C   0  0  0  0  0  0  0  0  0  0  0  0
   15.5026  -21.8817  -14.9254 O   0  0  0  0  0  0  0  0  0  0  0  0
   16.9432  -20.7751  -13.6004 O   0  0  0  0  0  0  0  0  0  0  0  0
  1  2  1  0
  2 12  2  0
  3  4  2  0
  3  2  1  0
  4  5  1  0
  5  6  1  0
  5 11  2  0
  7  8  1  6
  7  6  1  0
  9  7  1  0
 10  9  2  0
 12 11  1  0
 13  9  1  0
 14 13  1  0
 14 15  1  1
 15 16  1  0
 16 20  1  0
 17 16  2  0
 18 14  1  0
 19 18  2  0
 22 21  1  1
 22 24  1  0
 23 22  1  0
 24 26  1  0
 24 25  1  1
 25 18  1  0
 26 27  1  0
 28 26  2  0
M  END
$$$$
