YDT.pdb
     RDKit          3D

 28 28  0  0  1  0  0  0  0  0999 V2000
   19.2773  -15.2563  -20.3118 O   0  0  0  0  0  0  0  0  0  0  0  0
   19.2131  -14.0160  -19.6546 C   0  0  0  0  0  0  0  0  0  0  0  0
   18.0139  -13.6120  -19.1238 C   0  0  0  0  0  0  0  0  0  0  0  0
   17.9324  -12.3892  -18.4711 C   0  0  0  0  0  0  0  0  0  0  0  0
   19.0529  -11.6014  -18.3654 C   0  0  0  0  0  0  0  0  0  0  0  0
   18.9687  -10.2984  -17.6804 C   0  0  0  0  0  0  0  0  0  0  0  0
   19.7320  -10.4356  -16.3677 C   0  0  2  0  0  0  0  0  0  0  0  0
   18.9660  -11.3684  -15.5479 N   0  0  0  0  0  0  0  0  0  0  0  0
   19.7738   -9.1408  -15.6744 C   0  0  0  0  0  0  0  0  0  0  0  0
   18.8350   -8.7491  -14.9780 O   0  0  0  0  0  0  0  0  0  0  0  0
   20.2457  -12.0113  -18.8977 C   0  0  0  0  0  0  0  0  0  0  0  0
   20.3258  -13.2268  -19.5464 C   0  0  0  0  0  0  0  0  0  0  0  0
   20.9219   -8.2838  -15.7889 N   0  0  0  0  0  0  0  0  0  0  0  0
   21.0091   -6.9719  -15.2440 C   0  0  1  0  0  0  0  0  0  0  0  0
   22.2478   -6.7712  -14.3806 C   0  0  0  0  0  0  0  0  0  0  0  0
   22.0847   -5.4171  -13.7598 C   0  0  0  0  0  0  0  0  0  0  0  0
   22.6616   -4.3800  -14.2046 O   0  0  0  0  0  0  0  0  0  0  0  0
   20.8085   -5.8808  -16.2234 C   0  0  0  0  0  0  0  0  0  0  0  0
   21.5113   -5.7443  -17.2509 O   0  0  0  0  0  0  0  0  0  0  0  0
   21.2672   -5.2111  -12.6289 O   0  0  0  0  0  0  0  0  0  0  0  0
   17.6068   -2.4259  -17.8565 C   0  0  0  0  0  0  0  0  0  0  0  0
   18.0236   -3.4966  -16.9069 C   0  0  1  0  0  0  0  0  0  0  0  0
   17.2912   -4.6518  -17.2304 O   0  0  0  0  0  0  0  0  0  0  0  0
   19.5000   -3.8228  -16.9600 C   0  0  2  0  0  0  0  0  0  0  0  0
   19.7714   -4.9016  -16.0388 N   0  0  0  0  0  0  0  0  0  0  0  0
   20.3410   -2.6420  -16.7019 C   0  0  0  0  0  0  0  0  0  0  0  0
   20.7718   -2.3884  -15.3763 O   0  0  0  0  0  0  0  0  0  0  0  0
   20.7167   -1.8318  -17.5540 O   0  0  0  0  0  0  0  0  0  0  0  0
  1  2  1  0
  2 12  2  0
  3  4  2  0
  3  2  1  0
  4  5  1  0
  5  6  1  0
  5 11  2  0
  7  8  1  1
  7  6  1  0
  9  7  1  0
 10  9  2  0
 12 11  1  0
 13  9  1  0
 14 13  1  0
 14 15  1  6
 15 16  1  0
 16 20  1  0
 17 16  2  0
 18 14  1  0
 19 18  2  0
 22 21  1  6
 22 24  1  0
 23 22  1  0
 24 26  1  0
 24 25  1  1
 25 18  1  0
 26 27  1  0
 28 26  2  0
M  END
$$$$
