YDT.pdb
     RDKit          3D

 28 28  0  0  1  0  0  0  0  0999 V2000
   28.5395  -18.5546   -4.0658 O   0  0  0  0  0  0  0  0  0  0  0  0
   28.2015  -18.9744   -5.3634 C   0  0  0  0  0  0  0  0  0  0  0  0
   27.3243  -18.2142   -6.0953 C   0  0  0  0  0  0  0  0  0  0  0  0
   26.9791  -18.6142   -7.3792 C   0  0  0  0  0  0  0  0  0  0  0  0
   27.5204  -19.7648   -7.8991 C   0  0  0  0  0  0  0  0  0  0  0  0
   27.1500  -20.1978   -9.2591 C   0  0  0  0  0  0  0  0  0  0  0  0
   25.6417  -20.4206   -9.2598 C   0  0  2  0  0  0  0  0  0  0  0  0
   25.3955  -21.5372   -8.3534 N   0  0  0  0  0  0  0  0  0  0  0  0
   25.1932  -20.8110  -10.6034 C   0  0  0  0  0  0  0  0  0  0  0  0
   25.5273  -21.8837  -11.1109 O   0  0  0  0  0  0  0  0  0  0  0  0
   28.3948  -20.5182   -7.1627 C   0  0  0  0  0  0  0  0  0  0  0  0
   28.7373  -20.1199   -5.8866 C   0  0  0  0  0  0  0  0  0  0  0  0
   24.3432  -19.9450  -11.3738 N   0  0  0  0  0  0  0  0  0  0  0  0
   23.8733  -20.2320  -12.6862 C   0  0  1  0  0  0  0  0  0  0  0  0
   22.4420  -19.7649  -12.9173 C   0  0  0  0  0  0  0  0  0  0  0  0
   21.5917  -20.6469  -12.0543 C   0  0  0  0  0  0  0  0  0  0  0  0
   20.9390  -20.2150  -11.0576 O   0  0  0  0  0  0  0  0  0  0  0  0
   24.7919  -19.8287  -13.7740 C   0  0  0  0  0  0  0  0  0  0  0  0
   25.1967  -18.6537  -13.9290 O   0  0  0  0  0  0  0  0  0  0  0  0
   21.4628  -22.0293  -12.3032 O   0  0  0  0  0  0  0  0  0  0  0  0
   28.1752  -21.2793  -14.6573 C   0  0  0  0  0  0  0  0  0  0  0  0
   27.3079  -21.3951  -15.8640 C   0  0  1  0  0  0  0  0  0  0  0  0
   26.8448  -22.7209  -15.9214 O   0  0  0  0  0  0  0  0  0  0  0  0
   26.1175  -20.4611  -15.8556 C   0  0  2  0  0  0  0  0  0  0  0  0
   25.2768  -20.7896  -14.7281 N   0  0  0  0  0  0  0  0  0  0  0  0
   25.3799  -20.4872  -17.1297 C   0  0  0  0  0  0  0  0  0  0  0  0
   26.0402  -20.0609  -18.3085 O   0  0  0  0  0  0  0  0  0  0  0  0
   24.2106  -20.8562  -17.2714 O   0  0  0  0  0  0  0  0  0  0  0  0
  1  2  1  0
  2 12  2  0
  3  4  2  0
  3  2  1  0
  4  5  1  0
  5  6  1  0
  5 11  2  0
  7  8  1  1
  7  6  1  0
  9  7  1  0
 10  9  2  0
 12 11  1  0
 13  9  1  0
 14 13  1  0
 14 15  1  6
 15 16  1  0
 16 20  1  0
 17 16  2  0
 18 14  1  0
 19 18  2  0
 22 21  1  1
 22 24  1  0
 23 22  1  0
 24 26  1  0
 24 25  1  1
 25 18  1  0
 26 27  1  0
 28 26  2  0
M  END
$$$$
