YDT.pdb
     RDKit          3D

 28 28  0  0  1  0  0  0  0  0999 V2000
   29.0436  -19.5913   -5.0822 O   0  0  0  0  0  0  0  0  0  0  0  0
   28.6143  -19.7646   -6.4089 C   0  0  0  0  0  0  0  0  0  0  0  0
   29.3145  -20.6192   -7.2226 C   0  0  0  0  0  0  0  0  0  0  0  0
   28.9044  -20.8023   -8.5364 C   0  0  0  0  0  0  0  0  0  0  0  0
   27.8035  -20.1259   -9.0031 C   0  0  0  0  0  0  0  0  0  0  0  0
   27.3695  -20.3110  -10.4001 C   0  0  0  0  0  0  0  0  0  0  0  0
   25.8859  -20.6604  -10.3626 C   0  0  2  0  0  0  0  0  0  0  0  0
   25.7872  -21.9406   -9.6694 N   0  0  0  0  0  0  0  0  0  0  0  0
   25.3777  -20.8371  -11.7298 C   0  0  0  0  0  0  0  0  0  0  0  0
   25.4916  -19.9534  -12.5818 O   0  0  0  0  0  0  0  0  0  0  0  0
   27.1100  -19.2748   -8.1852 C   0  0  0  0  0  0  0  0  0  0  0  0
   27.5184  -19.0933   -6.8795 C   0  0  0  0  0  0  0  0  0  0  0  0
   24.7258  -22.0578  -12.1184 N   0  0  0  0  0  0  0  0  0  0  0  0
   24.1535  -22.2963  -13.3995 C   0  0  1  0  0  0  0  0  0  0  0  0
   24.6128  -23.6108  -14.0170 C   0  0  0  0  0  0  0  0  0  0  0  0
   24.1720  -23.5534  -15.4481 C   0  0  0  0  0  0  0  0  0  0  0  0
   24.1688  -24.5658  -16.2104 O   0  0  0  0  0  0  0  0  0  0  0  0
   22.6867  -22.1121  -13.4655 C   0  0  0  0  0  0  0  0  0  0  0  0
   21.8751  -22.8522  -12.8639 O   0  0  0  0  0  0  0  0  0  0  0  0
   23.7263  -22.3537  -16.0412 O   0  0  0  0  0  0  0  0  0  0  0  0
   21.0839  -18.2765  -13.9586 C   0  0  0  0  0  0  0  0  0  0  0  0
   20.5136  -19.3460  -14.8263 C   0  0  1  0  0  0  0  0  0  0  0  0
   21.1555  -19.2601  -16.0738 O   0  0  0  0  0  0  0  0  0  0  0  0
   20.6969  -20.7439  -14.2773 C   0  0  2  0  0  0  0  0  0  0  0  0
   22.1084  -21.0481  -14.2415 N   0  0  0  0  0  0  0  0  0  0  0  0
   19.9279  -21.7453  -15.0351 C   0  0  0  0  0  0  0  0  0  0  0  0
   18.5131  -21.7095  -14.9713 O   0  0  0  0  0  0  0  0  0  0  0  0
   20.4125  -22.6354  -15.7397 O   0  0  0  0  0  0  0  0  0  0  0  0
  1  2  1  0
  2 12  2  0
  3  4  2  0
  3  2  1  0
  4  5  1  0
  5  6  1  0
  5 11  2  0
  7  8  1  1
  7  6  1  0
  9  7  1  0
 10  9  2  0
 12 11  1  0
 13  9  1  0
 14 13  1  0
 14 15  1  1
 15 16  1  0
 16 20  1  0
 17 16  2  0
 18 14  1  0
 19 18  2  0
 22 21  1  1
 22 24  1  0
 23 22  1  0
 24 26  1  0
 24 25  1  6
 25 18  1  0
 26 27  1  0
 28 26  2  0
M  END
$$$$
