YDT.pdb
     RDKit          3D

 28 28  0  0  1  0  0  0  0  0999 V2000
   19.9546  -18.6755  -14.6672 O   0  0  0  0  0  0  0  0  0  0  0  0
   20.3300  -17.3414  -14.8986 C   0  0  0  0  0  0  0  0  0  0  0  0
   19.3473  -16.3924  -15.0274 C   0  0  0  0  0  0  0  0  0  0  0  0
   19.7004  -15.0693  -15.2565 C   0  0  0  0  0  0  0  0  0  0  0  0
   21.0279  -14.7286  -15.3504 C   0  0  0  0  0  0  0  0  0  0  0  0
   21.4069  -13.3260  -15.6020 C   0  0  0  0  0  0  0  0  0  0  0  0
   20.9261  -12.9802  -17.0069 C   0  0  2  0  0  0  0  0  0  0  0  0
   21.7900  -13.7153  -17.9245 N   0  0  0  0  0  0  0  0  0  0  0  0
   21.1043  -11.5436  -17.2583 C   0  0  0  0  0  0  0  0  0  0  0  0
   22.1784  -11.0838  -17.6515 O   0  0  0  0  0  0  0  0  0  0  0  0
   22.0026  -15.6812  -15.2210 C   0  0  0  0  0  0  0  0  0  0  0  0
   21.6509  -16.9961  -14.9934 C   0  0  0  0  0  0  0  0  0  0  0  0
   20.0206  -10.6223  -17.0511 N   0  0  0  0  0  0  0  0  0  0  0  0
   20.0708   -9.2332  -17.3567 C   0  0  1  0  0  0  0  0  0  0  0  0
   19.1306   -8.8425  -18.4896 C   0  0  0  0  0  0  0  0  0  0  0  0
   19.4474   -7.4096  -18.7931 C   0  0  0  0  0  0  0  0  0  0  0  0
   20.5390   -7.0410  -19.3210 O   0  0  0  0  0  0  0  0  0  0  0  0
   19.9605   -8.3376  -16.1839 C   0  0  0  0  0  0  0  0  0  0  0  0
   19.0520   -8.4379  -15.3278 O   0  0  0  0  0  0  0  0  0  0  0  0
   18.5374   -6.3703  -18.5076 O   0  0  0  0  0  0  0  0  0  0  0  0
   22.6146   -4.8668  -15.8201 C   0  0  0  0  0  0  0  0  0  0  0  0
   22.2951   -5.7838  -14.6892 C   0  0  1  0  0  0  0  0  0  0  0  0
   22.3440   -5.0244  -13.5075 O   0  0  0  0  0  0  0  0  0  0  0  0
   20.9344   -6.4369  -14.7948 C   0  0  2  0  0  0  0  0  0  0  0  0
   20.9147   -7.2839  -15.9646 N   0  0  0  0  0  0  0  0  0  0  0  0
   19.8417   -5.4499  -14.8005 C   0  0  0  0  0  0  0  0  0  0  0  0
   19.6451   -4.6439  -13.6521 O   0  0  0  0  0  0  0  0  0  0  0  0
   19.0612   -5.2528  -15.7362 O   0  0  0  0  0  0  0  0  0  0  0  0
  1  2  1  0
  2 12  2  0
  3  4  2  0
  3  2  1  0
  4  5  1  0
  5  6  1  0
  5 11  2  0
  7  8  1  6
  7  6  1  0
  9  7  1  0
 10  9  2  0
 12 11  1  0
 13  9  1  0
 14 13  1  0
 14 15  1  6
 15 16  1  0
 16 20  1  0
 17 16  2  0
 18 14  1  0
 19 18  2  0
 22 21  1  6
 22 24  1  0
 23 22  1  0
 24 26  1  0
 24 25  1  6
 25 18  1  0
 26 27  1  0
 28 26  2  0
M  END
$$$$
