YDT.pdb
     RDKit          3D

 28 28  0  0  1  0  0  0  0  0999 V2000
   31.2911  -21.3116   -9.9368 O   0  0  0  0  0  0  0  0  0  0  0  0
   30.1643  -20.9487  -10.6937 C   0  0  0  0  0  0  0  0  0  0  0  0
   28.9185  -21.2781  -10.2219 C   0  0  0  0  0  0  0  0  0  0  0  0
   27.7941  -20.9274  -10.9571 C   0  0  0  0  0  0  0  0  0  0  0  0
   27.9442  -20.2555  -12.1459 C   0  0  0  0  0  0  0  0  0  0  0  0
   26.7532  -19.8886  -12.9339 C   0  0  0  0  0  0  0  0  0  0  0  0
   26.3294  -21.1333  -13.7057 C   0  0  2  0  0  0  0  0  0  0  0  0
   27.2618  -21.2568  -14.8213 N   0  0  0  0  0  0  0  0  0  0  0  0
   24.9786  -20.9480  -14.2533 C   0  0  0  0  0  0  0  0  0  0  0  0
   24.7919  -20.4121  -15.3477 O   0  0  0  0  0  0  0  0  0  0  0  0
   29.1904  -19.9305  -12.6102 C   0  0  0  0  0  0  0  0  0  0  0  0
   30.3075  -20.2796  -11.8789 C   0  0  0  0  0  0  0  0  0  0  0  0
   23.8231  -21.3904  -13.5218 N   0  0  0  0  0  0  0  0  0  0  0  0
   22.4867  -21.3293  -14.0074 C   0  0  1  0  0  0  0  0  0  0  0  0
   21.6128  -22.4590  -13.4779 C   0  0  0  0  0  0  0  0  0  0  0  0
   20.3169  -22.3410  -14.2210 C   0  0  0  0  0  0  0  0  0  0  0  0
   19.2546  -21.8986  -13.6899 O   0  0  0  0  0  0  0  0  0  0  0  0
   21.8448  -20.0015  -13.8864 C   0  0  0  0  0  0  0  0  0  0  0  0
   21.7281  -19.3931  -12.7979 O   0  0  0  0  0  0  0  0  0  0  0  0
   20.1991  -22.7183  -15.5751 O   0  0  0  0  0  0  0  0  0  0  0  0
   22.2979  -16.9313  -16.4564 C   0  0  0  0  0  0  0  0  0  0  0  0
   20.8684  -17.3097  -16.2692 C   0  0  1  0  0  0  0  0  0  0  0  0
   20.5002  -18.1106  -17.3640 O   0  0  0  0  0  0  0  0  0  0  0  0
   20.5985  -18.0739  -14.9915 C   0  0  2  0  0  0  0  0  0  0  0  0
   21.3120  -19.3287  -15.0406 N   0  0  0  0  0  0  0  0  0  0  0  0
   19.1583  -18.2586  -14.7465 C   0  0  0  0  0  0  0  0  0  0  0  0
   18.4065  -17.1673  -14.2456 O   0  0  0  0  0  0  0  0  0  0  0  0
   18.5278  -19.3015  -14.9425 O   0  0  0  0  0  0  0  0  0  0  0  0
  1  2  1  0
  2 12  2  0
  3  4  2  0
  3  2  1  0
  4  5  1  0
  5  6  1  0
  5 11  2  0
  7  8  1  6
  7  6  1  0
  9  7  1  0
 10  9  2  0
 12 11  1  0
 13  9  1  0
 14 13  1  0
 14 15  1  1
 15 16  1  0
 16 20  1  0
 17 16  2  0
 18 14  1  0
 19 18  2  0
 22 21  1  6
 22 24  1  0
 23 22  1  0
 24 26  1  0
 24 25  1  6
 25 18  1  0
 26 27  1  0
 28 26  2  0
M  END
$$$$
