YDT.pdb
     RDKit          3D

 28 28  0  0  1  0  0  0  0  0999 V2000
   15.2426  -16.2975  -15.8141 O   0  0  0  0  0  0  0  0  0  0  0  0
   16.0604  -15.1552  -15.7912 C   0  0  0  0  0  0  0  0  0  0  0  0
   17.1552  -15.1441  -14.9640 C   0  0  0  0  0  0  0  0  0  0  0  0
   17.9741  -14.0234  -14.9285 C   0  0  0  0  0  0  0  0  0  0  0  0
   17.6774  -12.9420  -15.7220 C   0  0  0  0  0  0  0  0  0  0  0  0
   18.5398  -11.7466  -15.6812 C   0  0  0  0  0  0  0  0  0  0  0  0
   19.1179  -11.5670  -17.0805 C   0  0  2  0  0  0  0  0  0  0  0  0
   20.1902  -12.5485  -17.2062 N   0  0  0  0  0  0  0  0  0  0  0  0
   19.7037  -10.2260  -17.2127 C   0  0  0  0  0  0  0  0  0  0  0  0
   20.8064   -9.9516  -16.7346 O   0  0  0  0  0  0  0  0  0  0  0  0
   16.5833  -12.9605  -16.5446 C   0  0  0  0  0  0  0  0  0  0  0  0
   15.7698  -14.0747  -16.5792 C   0  0  0  0  0  0  0  0  0  0  0  0
   19.0013   -9.1838  -17.9100 N   0  0  0  0  0  0  0  0  0  0  0  0
   19.4889   -7.8584  -18.0865 C   0  0  1  0  0  0  0  0  0  0  0  0
   18.8792   -7.1600  -19.2951 C   0  0  0  0  0  0  0  0  0  0  0  0
   19.3938   -7.9072  -20.4877 C   0  0  0  0  0  0  0  0  0  0  0  0
   18.6709   -8.1904  -21.4894 O   0  0  0  0  0  0  0  0  0  0  0  0
   19.4628   -7.0221  -16.8660 C   0  0  0  0  0  0  0  0  0  0  0  0
   18.4167   -6.7859  -16.2192 O   0  0  0  0  0  0  0  0  0  0  0  0
   20.7322   -8.3449  -20.5702 O   0  0  0  0  0  0  0  0  0  0  0  0
   21.7040   -7.6471  -13.8740 C   0  0  0  0  0  0  0  0  0  0  0  0
   21.8799   -6.2249  -14.2844 C   0  0  1  0  0  0  0  0  0  0  0  0
   23.0655   -6.1493  -15.0354 O   0  0  0  0  0  0  0  0  0  0  0  0
   20.7388   -5.6809  -15.1158 C   0  0  2  0  0  0  0  0  0  0  0  0
   20.6663   -6.4267  -16.3505 N   0  0  0  0  0  0  0  0  0  0  0  0
   20.8577   -4.2312  -15.3441 C   0  0  0  0  0  0  0  0  0  0  0  0
   20.7616   -3.3561  -14.2341 O   0  0  0  0  0  0  0  0  0  0  0  0
   21.0389   -3.6925  -16.4398 O   0  0  0  0  0  0  0  0  0  0  0  0
  1  2  1  0
  2 12  2  0
  3  4  2  0
  3  2  1  0
  4  5  1  0
  5  6  1  0
  5 11  2  0
  7  8  1  1
  7  6  1  0
  9  7  1  0
 10  9  2  0
 12 11  1  0
 13  9  1  0
 14 13  1  0
 14 15  1  6
 15 16  1  0
 16 20  1  0
 17 16  2  0
 18 14  1  0
 19 18  2  0
 22 21  1  6
 22 24  1  0
 23 22  1  0
 24 26  1  0
 24 25  1  6
 25 18  1  0
 26 27  1  0
 28 26  2  0
M  END
$$$$
