YDT.pdb
     RDKit          3D

 28 28  0  0  1  0  0  0  0  0999 V2000
   27.4817  -19.1396   -6.0166 O   0  0  0  0  0  0  0  0  0  0  0  0
   27.3628  -19.5825   -7.3448 C   0  0  0  0  0  0  0  0  0  0  0  0
   27.2851  -18.6486   -8.3471 C   0  0  0  0  0  0  0  0  0  0  0  0
   27.1671  -19.0685   -9.6653 C   0  0  0  0  0  0  0  0  0  0  0  0
   27.1302  -20.4124   -9.9476 C   0  0  0  0  0  0  0  0  0  0  0  0
   26.9965  -20.8626  -11.3454 C   0  0  0  0  0  0  0  0  0  0  0  0
   25.5155  -20.7827  -11.6989 C   0  0  2  0  0  0  0  0  0  0  0  0
   24.8578  -21.8371  -10.9342 N   0  0  0  0  0  0  0  0  0  0  0  0
   25.3254  -21.0641  -13.1284 C   0  0  0  0  0  0  0  0  0  0  0  0
   25.6372  -22.1502  -13.6212 O   0  0  0  0  0  0  0  0  0  0  0  0
   27.2080  -21.3382   -8.9421 C   0  0  0  0  0  0  0  0  0  0  0  0
   27.3252  -20.9199   -7.6322 C   0  0  0  0  0  0  0  0  0  0  0  0
   24.7648  -20.0712  -14.0036 N   0  0  0  0  0  0  0  0  0  0  0  0
   24.5312  -20.2591  -15.3949 C   0  0  1  0  0  0  0  0  0  0  0  0
   23.0517  -20.2264  -15.7559 C   0  0  0  0  0  0  0  0  0  0  0  0
   22.4648  -19.1233  -14.9287 C   0  0  0  0  0  0  0  0  0  0  0  0
   22.7636  -18.9400  -13.7107 O   0  0  0  0  0  0  0  0  0  0  0  0
   25.3577  -19.4098  -16.2810 C   0  0  0  0  0  0  0  0  0  0  0  0
   25.3628  -18.1588  -16.2219 O   0  0  0  0  0  0  0  0  0  0  0  0
   21.5333  -18.2085  -15.4626 O   0  0  0  0  0  0  0  0  0  0  0  0
   29.0153  -19.4581  -19.7252 C   0  0  0  0  0  0  0  0  0  0  0  0
   28.0776  -20.1440  -18.7913 C   0  0  1  0  0  0  0  0  0  0  0  0
   28.8479  -20.6887  -17.7494 O   0  0  0  0  0  0  0  0  0  0  0  0
   27.0269  -19.2317  -18.1974 C   0  0  2  0  0  0  0  0  0  0  0  0
   26.2164  -19.9937  -17.2762 N   0  0  0  0  0  0  0  0  0  0  0  0
   26.2197  -18.5639  -19.2321 C   0  0  0  0  0  0  0  0  0  0  0  0
   26.6480  -17.3065  -19.7248 O   0  0  0  0  0  0  0  0  0  0  0  0
   25.1786  -19.0083  -19.7241 O   0  0  0  0  0  0  0  0  0  0  0  0
  1  2  1  0
  2 12  2  0
  3  4  2  0
  3  2  1  0
  4  5  1  0
  5  6  1  0
  5 11  2  0
  7  8  1  1
  7  6  1  0
  9  7  1  0
 10  9  2  0
 12 11  1  0
 13  9  1  0
 14 13  1  0
 14 15  1  1
 15 16  1  0
 16 20  1  0
 17 16  2  0
 18 14  1  0
 19 18  2  0
 22 21  1  6
 22 24  1  0
 23 22  1  0
 24 26  1  0
 24 25  1  1
 25 18  1  0
 26 27  1  0
 28 26  2  0
M  END
$$$$
