YDT.pdb
     RDKit          3D

 28 28  0  0  1  0  0  0  0  0999 V2000
   20.8956  -11.8277  -25.5418 O   0  0  0  0  0  0  0  0  0  0  0  0
   21.2322  -11.3018  -24.2831 C   0  0  0  0  0  0  0  0  0  0  0  0
   21.6258   -9.9898  -24.2000 C   0  0  0  0  0  0  0  0  0  0  0  0
   21.9622   -9.4538  -22.9642 C   0  0  0  0  0  0  0  0  0  0  0  0
   21.8959  -10.2437  -21.8422 C   0  0  0  0  0  0  0  0  0  0  0  0
   22.2603   -9.6807  -20.5290 C   0  0  0  0  0  0  0  0  0  0  0  0
   23.7762   -9.7861  -20.4047 C   0  0  2  0  0  0  0  0  0  0  0  0
   24.0627  -11.1839  -20.0996 N   0  0  0  0  0  0  0  0  0  0  0  0
   24.2455   -8.9642  -19.2809 C   0  0  0  0  0  0  0  0  0  0  0  0
   24.3451   -9.4230  -18.1410 O   0  0  0  0  0  0  0  0  0  0  0  0
   21.5025  -11.5518  -21.9331 C   0  0  0  0  0  0  0  0  0  0  0  0
   21.1684  -12.0838  -23.1618 C   0  0  0  0  0  0  0  0  0  0  0  0
   24.6059   -7.5870  -19.4792 N   0  0  0  0  0  0  0  0  0  0  0  0
   25.0311   -6.7057  -18.4456 C   0  0  1  0  0  0  0  0  0  0  0  0
   26.3006   -5.9438  -18.8032 C   0  0  0  0  0  0  0  0  0  0  0  0
   26.6475   -5.1523  -17.5789 C   0  0  0  0  0  0  0  0  0  0  0  0
   27.8035   -5.1559  -17.0593 O   0  0  0  0  0  0  0  0  0  0  0  0
   23.9686   -5.8298  -17.9039 C   0  0  0  0  0  0  0  0  0  0  0  0
   23.2837   -5.0613  -18.6172 O   0  0  0  0  0  0  0  0  0  0  0  0
   25.6967   -4.3431  -16.9226 O   0  0  0  0  0  0  0  0  0  0  0  0
   21.1137   -7.0594  -15.7557 C   0  0  0  0  0  0  0  0  0  0  0  0
   21.7678   -5.9379  -15.0233 C   0  0  1  0  0  0  0  0  0  0  0  0
   22.5942   -6.5061  -14.0386 O   0  0  0  0  0  0  0  0  0  0  0  0
   22.6049   -5.0361  -15.9037 C   0  0  2  0  0  0  0  0  0  0  0  0
   23.6631   -5.8188  -16.4984 N   0  0  0  0  0  0  0  0  0  0  0  0
   23.1183   -3.8650  -15.1734 C   0  0  0  0  0  0  0  0  0  0  0  0
   24.5196   -3.6742  -15.0899 O   0  0  0  0  0  0  0  0  0  0  0  0
   22.4246   -3.0113  -14.6134 O   0  0  0  0  0  0  0  0  0  0  0  0
  1  2  1  0
  2 12  2  0
  3  4  2  0
  3  2  1  0
  4  5  1  0
  5  6  1  0
  5 11  2  0
  7  8  1  1
  7  6  1  0
  9  7  1  0
 10  9  2  0
 12 11  1  0
 13  9  1  0
 14 13  1  0
 14 15  1  6
 15 16  1  0
 16 20  1  0
 17 16  2  0
 18 14  1  0
 19 18  2  0
 22 21  1  6
 22 24  1  0
 23 22  1  0
 24 26  1  0
 24 25  1  1
 25 18  1  0
 26 27  1  0
 28 26  2  0
M  END
$$$$
