YDT.pdb
     RDKit          3D

 28 28  0  0  1  0  0  0  0  0999 V2000
   19.5273  -13.6933  -20.2742 O   0  0  0  0  0  0  0  0  0  0  0  0
   19.6719  -12.3336  -19.9506 C   0  0  0  0  0  0  0  0  0  0  0  0
   18.9278  -11.8181  -18.9193 C   0  0  0  0  0  0  0  0  0  0  0  0
   19.0580  -10.4766  -18.5860 C   0  0  0  0  0  0  0  0  0  0  0  0
   19.9300   -9.6844  -19.2926 C   0  0  0  0  0  0  0  0  0  0  0  0
   20.0652   -8.2572  -18.9474 C   0  0  0  0  0  0  0  0  0  0  0  0
   21.0663   -8.1696  -17.8008 C   0  0  2  0  0  0  0  0  0  0  0  0
   21.0001   -9.4503  -17.1048 N   0  0  0  0  0  0  0  0  0  0  0  0
   20.6622   -7.1142  -16.8619 C   0  0  0  0  0  0  0  0  0  0  0  0
   19.5663   -7.1349  -16.2977 O   0  0  0  0  0  0  0  0  0  0  0  0
   20.6690  -10.2059  -20.3203 C   0  0  0  0  0  0  0  0  0  0  0  0
   20.5388  -11.5394  -20.6510 C   0  0  0  0  0  0  0  0  0  0  0  0
   21.5414   -6.0151  -16.5706 N   0  0  0  0  0  0  0  0  0  0  0  0
   21.2011   -4.9030  -15.7502 C   0  0  1  0  0  0  0  0  0  0  0  0
   22.0720   -4.7982  -14.5049 C   0  0  0  0  0  0  0  0  0  0  0  0
   21.6185   -5.9096  -13.6078 C   0  0  0  0  0  0  0  0  0  0  0  0
   20.5054   -5.8969  -13.0020 O   0  0  0  0  0  0  0  0  0  0  0  0
   21.0740   -3.6177  -16.4723 C   0  0  0  0  0  0  0  0  0  0  0  0
   22.0093   -3.1047  -17.1283 O   0  0  0  0  0  0  0  0  0  0  0  0
   22.4125   -7.0532  -13.3812 O   0  0  0  0  0  0  0  0  0  0  0  0
   18.6151   -2.7976  -19.1791 C   0  0  0  0  0  0  0  0  0  0  0  0
   18.4155   -1.8155  -18.0756 C   0  0  1  0  0  0  0  0  0  0  0  0
   17.3342   -2.2697  -17.3010 O   0  0  0  0  0  0  0  0  0  0  0  0
   19.6226   -1.6469  -17.1790 C   0  0  2  0  0  0  0  0  0  0  0  0
   19.8405   -2.8781  -16.4561 N   0  0  0  0  0  0  0  0  0  0  0  0
   19.4921   -0.4869  -16.2815 C   0  0  0  0  0  0  0  0  0  0  0  0
   19.4355   -0.7096  -14.8835 O   0  0  0  0  0  0  0  0  0  0  0  0
   19.4269    0.6919  -16.6416 O   0  0  0  0  0  0  0  0  0  0  0  0
  1  2  1  0
  2 12  2  0
  3  4  2  0
  3  2  1  0
  4  5  1  0
  5  6  1  0
  5 11  2  0
  7  8  1  1
  7  6  1  0
  9  7  1  0
 10  9  2  0
 12 11  1  0
 13  9  1  0
 14 13  1  0
 14 15  1  1
 15 16  1  0
 16 20  1  0
 17 16  2  0
 18 14  1  0
 19 18  2  0
 22 21  1  6
 22 24  1  0
 23 22  1  0
 24 26  1  0
 24 25  1  1
 25 18  1  0
 26 27  1  0
 28 26  2  0
M  END
$$$$
