KDR.pdb
     RDKit          3D

 29 28  0  0  1  0  0  0  0  0999 V2000
   20.5529  -20.7582   -9.7416 N   0  0  0  0  0  0  0  0  0  0  0  0
   20.4395  -21.4506  -11.0397 C   0  0  1  0  0  0  0  0  0  0  0  0
   19.0575  -21.2919  -11.5575 C   0  0  0  0  0  0  0  0  0  0  0  0
   18.1288  -22.3804  -11.2634 C   0  0  0  0  0  0  0  0  0  0  0  0
   18.1604  -23.1845  -10.0542 C   0  0  0  0  0  0  0  0  0  0  0  0
   17.1935  -24.2738   -9.8056 C   0  0  0  0  0  0  0  0  0  0  0  0
   17.4771  -24.8458   -8.4452 N   0  0  0  0  0  0  0  0  0  0  0  0
   21.4157  -20.6956  -11.9360 C   0  0  0  0  0  0  0  0  0  0  0  0
   21.1816  -19.4937  -12.1496 O   0  0  0  0  0  0  0  0  0  0  0  0
   22.5424  -21.2984  -12.5134 N   0  0  0  0  0  0  0  0  0  0  0  0
   23.5008  -20.6461  -13.3524 C   0  0  1  0  0  0  0  0  0  0  0  0
   24.7189  -21.5025  -13.4780 C   0  0  0  0  0  0  0  0  0  0  0  0
   25.5848  -21.4028  -12.2816 C   0  0  0  0  0  0  0  0  0  0  0  0
   25.4652  -20.5030  -11.4107 O   0  0  0  0  0  0  0  0  0  0  0  0
   22.9198  -20.2960  -14.6795 C   0  0  0  0  0  0  0  0  0  0  0  0
   22.2263  -21.1727  -15.2520 O   0  0  0  0  0  0  0  0  0  0  0  0
   26.6137  -22.3250  -12.0391 O   0  0  0  0  0  0  0  0  0  0  0  0
   16.8889  -15.4236  -16.5105 N   0  0  0  0  0  0  0  0  0  0  0  0
   17.2656  -16.7371  -16.0782 C   0  0  0  0  0  0  0  0  0  0  0  0
   16.4744  -17.3952  -15.3031 N   0  0  0  0  0  0  0  0  0  0  0  0
   18.5012  -17.2942  -16.5085 N   0  0  0  0  0  0  0  0  0  0  0  0
   19.4021  -16.5067  -17.3176 C   0  0  0  0  0  0  0  0  0  0  0  0
   20.6107  -17.4126  -17.6341 C   0  0  0  0  0  0  0  0  0  0  0  0
   21.3004  -17.8097  -16.3559 C   0  0  0  0  0  0  0  0  0  0  0  0
   22.5046  -18.6538  -16.5691 C   0  0  2  0  0  0  0  0  0  0  0  0
   23.1210  -19.0391  -15.2974 N   0  0  0  0  0  0  0  0  0  0  0  0
   23.4844  -18.0280  -17.4625 C   0  0  0  0  0  0  0  0  0  0  0  0
   23.0937  -17.7378  -18.7744 O   0  0  0  0  0  0  0  0  0  0  0  0
   24.6597  -17.7213  -17.1611 O   0  0  0  0  0  0  0  0  0  0  0  0
  2  1  1  1
  3  2  1  0
  4  3  1  0
  5  4  1  0
  6  5  1  0
  7  6  1  0
  8 10  1  0
  8  2  1  0
  9  8  2  0
 11 10  1  0
 12 13  1  0
 11 12  1  6
 13 17  1  0
 14 13  2  0
 15 26  1  0
 15 11  1  0
 16 15  2  0
 18 19  1  0
 19 21  1  0
 20 19  2  0
 21 22  1  0
 22 23  1  0
 23 24  1  0
 25 24  1  1
 25 26  1  0
 25 27  1  0
 27 28  1  0
 29 27  2  0
M  END
$$$$
