KDR.pdb
     RDKit          3D

 29 28  0  0  1  0  0  0  0  0999 V2000
   27.1052  -19.8149  -14.8347 N   0  0  0  0  0  0  0  0  0  0  0  0
   26.0212  -20.3132  -15.7030 C   0  0  1  0  0  0  0  0  0  0  0  0
   26.5476  -21.4024  -16.5631 C   0  0  0  0  0  0  0  0  0  0  0  0
   27.8991  -21.2169  -17.0853 C   0  0  0  0  0  0  0  0  0  0  0  0
   28.3171  -20.0932  -17.9052 C   0  0  0  0  0  0  0  0  0  0  0  0
   29.6876  -19.9772  -18.4452 C   0  0  0  0  0  0  0  0  0  0  0  0
   29.8326  -18.6118  -19.0561 N   0  0  0  0  0  0  0  0  0  0  0  0
   25.0039  -20.8801  -14.7180 C   0  0  0  0  0  0  0  0  0  0  0  0
   24.1934  -21.7162  -15.1528 O   0  0  0  0  0  0  0  0  0  0  0  0
   24.9539  -20.4983  -13.3697 N   0  0  0  0  0  0  0  0  0  0  0  0
   23.9304  -20.8592  -12.4369 C   0  0  1  0  0  0  0  0  0  0  0  0
   24.4826  -20.8170  -11.0490 C   0  0  0  0  0  0  0  0  0  0  0  0
   25.5291  -21.8436  -10.8441 C   0  0  0  0  0  0  0  0  0  0  0  0
   25.7816  -22.7537  -11.6749 O   0  0  0  0  0  0  0  0  0  0  0  0
   22.7224  -19.9995  -12.5883 C   0  0  0  0  0  0  0  0  0  0  0  0
   22.8889  -18.7569  -12.5133 O   0  0  0  0  0  0  0  0  0  0  0  0
   26.3215  -21.8656   -9.6866 O   0  0  0  0  0  0  0  0  0  0  0  0
   18.6213  -14.5881  -14.6908 N   0  0  0  0  0  0  0  0  0  0  0  0
   18.0234  -15.3706  -15.7321 C   0  0  0  0  0  0  0  0  0  0  0  0
   17.0872  -14.8523  -16.4496 N   0  0  0  0  0  0  0  0  0  0  0  0
   18.4690  -16.7018  -15.9588 N   0  0  0  0  0  0  0  0  0  0  0  0
   19.4989  -17.2681  -15.1190 C   0  0  0  0  0  0  0  0  0  0  0  0
   19.8115  -18.6661  -15.6931 C   0  0  0  0  0  0  0  0  0  0  0  0
   20.8736  -19.3344  -14.8612 C   0  0  0  0  0  0  0  0  0  0  0  0
   20.3795  -19.8197  -13.5465 C   0  0  2  0  0  0  0  0  0  0  0  0
   21.4280  -20.5271  -12.8077 N   0  0  0  0  0  0  0  0  0  0  0  0
   19.1705  -20.6409  -13.6636 C   0  0  0  0  0  0  0  0  0  0  0  0
   17.9379  -20.0516  -13.3614 O   0  0  0  0  0  0  0  0  0  0  0  0
   19.1314  -21.8416  -14.0147 O   0  0  0  0  0  0  0  0  0  0  0  0
  2  1  1  1
  3  2  1  0
  4  3  1  0
  5  4  1  0
  6  5  1  0
  7  6  1  0
  8 10  1  0
  8  2  1  0
  9  8  2  0
 11 10  1  0
 12 13  1  0
 11 12  1  1
 13 17  1  0
 14 13  2  0
 15 26  1  0
 15 11  1  0
 16 15  2  0
 18 19  1  0
 19 21  1  0
 20 19  2  0
 21 22  1  0
 22 23  1  0
 23 24  1  0
 25 24  1  6
 25 26  1  0
 25 27  1  0
 27 28  1  0
 29 27  2  0
M  END
$$$$
