KDR.pdb
     RDKit          3D

 29 28  0  0  1  0  0  0  0  0999 V2000
   27.3626  -20.3638  -19.7466 N   0  0  0  0  0  0  0  0  0  0  0  0
   28.0721  -19.7936  -18.5852 C   0  0  1  0  0  0  0  0  0  0  0  0
   29.1043  -18.8406  -19.0645 C   0  0  0  0  0  0  0  0  0  0  0  0
   30.2889  -19.4294  -19.6839 C   0  0  0  0  0  0  0  0  0  0  0  0
   30.2578  -20.3568  -20.8015 C   0  0  0  0  0  0  0  0  0  0  0  0
   31.4892  -20.9138  -21.3988 C   0  0  0  0  0  0  0  0  0  0  0  0
   31.0868  -21.9213  -22.4388 N   0  0  0  0  0  0  0  0  0  0  0  0
   26.9813  -19.0373  -17.8338 C   0  0  0  0  0  0  0  0  0  0  0  0
   27.3292  -18.3632  -16.8492 O   0  0  0  0  0  0  0  0  0  0  0  0
   25.6307  -19.0762  -18.2084 N   0  0  0  0  0  0  0  0  0  0  0  0
   24.5704  -18.3425  -17.5876 C   0  0  1  0  0  0  0  0  0  0  0  0
   23.7656  -17.6450  -18.6359 C   0  0  0  0  0  0  0  0  0  0  0  0
   24.3620  -16.3424  -19.0083 C   0  0  0  0  0  0  0  0  0  0  0  0
   24.5344  -15.3992  -18.1942 O   0  0  0  0  0  0  0  0  0  0  0  0
   23.7299  -19.2186  -16.7232 C   0  0  0  0  0  0  0  0  0  0  0  0
   23.3389  -20.3059  -17.2153 O   0  0  0  0  0  0  0  0  0  0  0  0
   24.7812  -16.0734  -20.3198 O   0  0  0  0  0  0  0  0  0  0  0  0
   23.2963  -20.8061   -8.3068 N   0  0  0  0  0  0  0  0  0  0  0  0
   21.9952  -21.2687   -8.6905 C   0  0  0  0  0  0  0  0  0  0  0  0
   21.3628  -22.0810   -7.9157 N   0  0  0  0  0  0  0  0  0  0  0  0
   21.4220  -20.8273   -9.9146 N   0  0  0  0  0  0  0  0  0  0  0  0
   22.1249  -19.8663  -10.7325 C   0  0  0  0  0  0  0  0  0  0  0  0
   21.9530  -20.3282  -12.1950 C   0  0  0  0  0  0  0  0  0  0  0  0
   22.7450  -19.4326  -13.1102 C   0  0  0  0  0  0  0  0  0  0  0  0
   22.5054  -19.6975  -14.5526 C   0  0  2  0  0  0  0  0  0  0  0  0
   23.3685  -18.8712  -15.3999 N   0  0  0  0  0  0  0  0  0  0  0  0
   21.0964  -19.5482  -14.9297 C   0  0  0  0  0  0  0  0  0  0  0  0
   20.3039  -20.6993  -14.9990 O   0  0  0  0  0  0  0  0  0  0  0  0
   20.5208  -18.4705  -15.2010 O   0  0  0  0  0  0  0  0  0  0  0  0
  2  1  1  6
  3  2  1  0
  4  3  1  0
  5  4  1  0
  6  5  1  0
  7  6  1  0
  8 10  1  0
  8  2  1  0
  9  8  2  0
 11 10  1  0
 12 13  1  0
 11 12  1  6
 13 17  1  0
 14 13  2  0
 15 26  1  0
 15 11  1  0
 16 15  2  0
 18 19  1  0
 19 21  1  0
 20 19  2  0
 21 22  1  0
 22 23  1  0
 23 24  1  0
 25 24  1  1
 25 26  1  0
 25 27  1  0
 27 28  1  0
 29 27  2  0
M  END
$$$$
