KDR.pdb
     RDKit          3D

 29 28  0  0  1  0  0  0  0  0999 V2000
   20.8014  -13.8534  -18.3311 N   0  0  0  0  0  0  0  0  0  0  0  0
   19.6928  -12.9649  -17.9324 C   0  0  1  0  0  0  0  0  0  0  0  0
   18.7900  -13.6965  -17.0087 C   0  0  0  0  0  0  0  0  0  0  0  0
   18.6424  -15.1295  -17.2502 C   0  0  0  0  0  0  0  0  0  0  0  0
   17.7696  -16.0062  -16.4891 C   0  0  0  0  0  0  0  0  0  0  0  0
   17.5747  -17.4273  -16.8440 C   0  0  0  0  0  0  0  0  0  0  0  0
   16.7092  -18.0557  -15.7883 N   0  0  0  0  0  0  0  0  0  0  0  0
   20.3903  -11.8340  -17.1835 C   0  0  0  0  0  0  0  0  0  0  0  0
   20.6274  -12.0102  -15.9761 O   0  0  0  0  0  0  0  0  0  0  0  0
   20.7644  -10.6303  -17.7976 N   0  0  0  0  0  0  0  0  0  0  0  0
   21.2930   -9.4806  -17.1291 C   0  0  1  0  0  0  0  0  0  0  0  0
   22.1081   -8.6760  -18.0888 C   0  0  0  0  0  0  0  0  0  0  0  0
   22.6968   -7.4821  -17.4413 C   0  0  0  0  0  0  0  0  0  0  0  0
   23.6638   -7.5331  -16.6385 O   0  0  0  0  0  0  0  0  0  0  0  0
   20.2149   -8.6729  -16.4915 C   0  0  0  0  0  0  0  0  0  0  0  0
   19.2005   -8.4185  -17.1869 O   0  0  0  0  0  0  0  0  0  0  0  0
   22.2029   -6.1925  -17.6882 O   0  0  0  0  0  0  0  0  0  0  0  0
   15.6555  -10.7314  -10.3356 N   0  0  0  0  0  0  0  0  0  0  0  0
   15.0543   -9.8390  -11.2823 C   0  0  0  0  0  0  0  0  0  0  0  0
   13.8455   -9.4377  -11.0884 N   0  0  0  0  0  0  0  0  0  0  0  0
   15.7961   -9.4102  -12.4172 N   0  0  0  0  0  0  0  0  0  0  0  0
   17.0959   -9.9807  -12.6842 C   0  0  0  0  0  0  0  0  0  0  0  0
   17.6691   -9.2149  -13.8952 C   0  0  0  0  0  0  0  0  0  0  0  0
   18.5925   -8.1247  -13.4200 C   0  0  0  0  0  0  0  0  0  0  0  0
   19.2567   -7.3862  -14.5253 C   0  0  2  0  0  0  0  0  0  0  0  0
   20.2978   -8.1965  -15.1617 N   0  0  0  0  0  0  0  0  0  0  0  0
   19.7854   -6.0861  -14.1008 C   0  0  0  0  0  0  0  0  0  0  0  0
   18.8840   -5.1293  -13.6212 O   0  0  0  0  0  0  0  0  0  0  0  0
   20.9881   -5.7409  -14.1253 O   0  0  0  0  0  0  0  0  0  0  0  0
  2  1  1  1
  3  2  1  0
  4  3  1  0
  5  4  1  0
  6  5  1  0
  7  6  1  0
  8 10  1  0
  8  2  1  0
  9  8  2  0
 11 10  1  0
 12 13  1  0
 11 12  1  6
 13 17  1  0
 14 13  2  0
 15 26  1  0
 15 11  1  0
 16 15  2  0
 18 19  1  0
 19 21  1  0
 20 19  2  0
 21 22  1  0
 22 23  1  0
 23 24  1  0
 25 24  1  1
 25 26  1  0
 25 27  1  0
 27 28  1  0
 29 27  2  0
M  END
$$$$
