KDR.pdb
     RDKit          3D

 29 28  0  0  1  0  0  0  0  0999 V2000
   21.2716  -21.9384  -18.1107 N   0  0  0  0  0  0  0  0  0  0  0  0
   22.0537  -21.9956  -16.8608 C   0  0  1  0  0  0  0  0  0  0  0  0
   22.2141  -20.6215  -16.3229 C   0  0  0  0  0  0  0  0  0  0  0  0
   23.2253  -19.7889  -16.9693 C   0  0  0  0  0  0  0  0  0  0  0  0
   24.6529  -20.0547  -16.9372 C   0  0  0  0  0  0  0  0  0  0  0  0
   25.6399  -19.1379  -17.5442 C   0  0  0  0  0  0  0  0  0  0  0  0
   27.0055  -19.7385  -17.3627 N   0  0  0  0  0  0  0  0  0  0  0  0
   21.1739  -22.8167  -15.9237 C   0  0  0  0  0  0  0  0  0  0  0  0
   19.9799  -22.4854  -15.8258 O   0  0  0  0  0  0  0  0  0  0  0  0
   21.6561  -23.9076  -15.1864 N   0  0  0  0  0  0  0  0  0  0  0  0
   20.9256  -24.6312  -14.1910 C   0  0  1  0  0  0  0  0  0  0  0  0
   21.7506  -25.7765  -13.7005 C   0  0  0  0  0  0  0  0  0  0  0  0
   20.9811  -26.6575  -12.7935 C   0  0  0  0  0  0  0  0  0  0  0  0
   19.7577  -26.5013  -12.5461 O   0  0  0  0  0  0  0  0  0  0  0  0
   20.4820  -23.7412  -13.0809 C   0  0  0  0  0  0  0  0  0  0  0  0
   21.3748  -23.2525  -12.3451 O   0  0  0  0  0  0  0  0  0  0  0  0
   21.5807  -27.7444  -12.1399 O   0  0  0  0  0  0  0  0  0  0  0  0
   17.6773  -16.4997  -14.3776 N   0  0  0  0  0  0  0  0  0  0  0  0
   19.0521  -16.9034  -14.3424 C   0  0  0  0  0  0  0  0  0  0  0  0
   19.9491  -16.1248  -14.8414 N   0  0  0  0  0  0  0  0  0  0  0  0
   19.4062  -18.1513  -13.7599 N   0  0  0  0  0  0  0  0  0  0  0  0
   18.3758  -19.0225  -13.2442 C   0  0  0  0  0  0  0  0  0  0  0  0
   19.0846  -20.3141  -12.7853 C   0  0  0  0  0  0  0  0  0  0  0  0
   18.0668  -21.3083  -12.2927 C   0  0  0  0  0  0  0  0  0  0  0  0
   18.6682  -22.5577  -11.7583 C   0  0  2  0  0  0  0  0  0  0  0  0
   19.1214  -23.4385  -12.8373 N   0  0  0  0  0  0  0  0  0  0  0  0
   17.7751  -23.2676  -10.8373 C   0  0  0  0  0  0  0  0  0  0  0  0
   17.4016  -24.5780  -11.1553 O   0  0  0  0  0  0  0  0  0  0  0  0
   17.3046  -22.8076   -9.7726 O   0  0  0  0  0  0  0  0  0  0  0  0
  2  1  1  6
  3  2  1  0
  4  3  1  0
  5  4  1  0
  6  5  1  0
  7  6  1  0
  8 10  1  0
  8  2  1  0
  9  8  2  0
 11 10  1  0
 12 13  1  0
 11 12  1  1
 13 17  1  0
 14 13  2  0
 15 26  1  0
 15 11  1  0
 16 15  2  0
 18 19  1  0
 19 21  1  0
 20 19  2  0
 21 22  1  0
 22 23  1  0
 23 24  1  0
 25 24  1  6
 25 26  1  0
 25 27  1  0
 27 28  1  0
 29 27  2  0
M  END
$$$$
