KDR.pdb
     RDKit          3D

 29 28  0  0  1  0  0  0  0  0999 V2000
   20.2641  -19.3012  -10.4256 N   0  0  0  0  0  0  0  0  0  0  0  0
   21.6342  -19.5473  -10.9151 C   0  0  1  0  0  0  0  0  0  0  0  0
   22.2961  -20.5402  -10.0323 C   0  0  0  0  0  0  0  0  0  0  0  0
   21.8961  -20.5232   -8.6276 C   0  0  0  0  0  0  0  0  0  0  0  0
   22.5358  -21.3010   -7.5808 C   0  0  0  0  0  0  0  0  0  0  0  0
   22.0758  -21.2634   -6.1771 C   0  0  0  0  0  0  0  0  0  0  0  0
   22.9382  -22.2012   -5.3800 N   0  0  0  0  0  0  0  0  0  0  0  0
   21.4182  -20.1510  -12.2990 C   0  0  0  0  0  0  0  0  0  0  0  0
   22.4222  -20.5638  -12.9045 O   0  0  0  0  0  0  0  0  0  0  0  0
   20.1540  -20.2537  -12.8969 N   0  0  0  0  0  0  0  0  0  0  0  0
   19.8804  -20.8287  -14.1784 C   0  0  1  0  0  0  0  0  0  0  0  0
   18.4113  -21.0650  -14.3161 C   0  0  0  0  0  0  0  0  0  0  0  0
   17.9623  -22.2153  -13.4998 C   0  0  0  0  0  0  0  0  0  0  0  0
   16.7589  -22.4276  -13.2013 O   0  0  0  0  0  0  0  0  0  0  0  0
   20.4210  -19.9877  -15.2837 C   0  0  0  0  0  0  0  0  0  0  0  0
   20.1000  -18.7736  -15.2912 O   0  0  0  0  0  0  0  0  0  0  0  0
   18.8698  -23.1603  -12.9982 O   0  0  0  0  0  0  0  0  0  0  0  0
   28.4644  -20.4225  -16.4904 N   0  0  0  0  0  0  0  0  0  0  0  0
   27.7529  -21.6568  -16.6471 C   0  0  0  0  0  0  0  0  0  0  0  0
   28.4075  -22.7664  -16.6320 N   0  0  0  0  0  0  0  0  0  0  0  0
   26.3410  -21.6407  -16.8159 N   0  0  0  0  0  0  0  0  0  0  0  0
   25.6225  -20.3896  -16.7451 C   0  0  0  0  0  0  0  0  0  0  0  0
   24.1429  -20.7182  -17.0351 C   0  0  0  0  0  0  0  0  0  0  0  0
   23.3308  -19.4504  -17.0478 C   0  0  0  0  0  0  0  0  0  0  0  0
   21.8888  -19.6723  -17.3297 C   0  0  2  0  0  0  0  0  0  0  0  0
   21.2625  -20.5025  -16.2982 N   0  0  0  0  0  0  0  0  0  0  0  0
   21.6513  -20.2239  -18.6674 C   0  0  0  0  0  0  0  0  0  0  0  0
   22.0653  -19.4760  -19.7751 O   0  0  0  0  0  0  0  0  0  0  0  0
   21.1039  -21.3204  -18.9211 O   0  0  0  0  0  0  0  0  0  0  0  0
  2  1  1  1
  3  2  1  0
  4  3  1  0
  5  4  1  0
  6  5  1  0
  7  6  1  0
  8 10  1  0
  8  2  1  0
  9  8  2  0
 11 10  1  0
 12 13  1  0
 11 12  1  6
 13 17  1  0
 14 13  2  0
 15 26  1  0
 15 11  1  0
 16 15  2  0
 18 19  1  0
 19 21  1  0
 20 19  2  0
 21 22  1  0
 22 23  1  0
 23 24  1  0
 25 24  1  1
 25 26  1  0
 25 27  1  0
 27 28  1  0
 29 27  2  0
M  END
$$$$
