KDR.pdb
     RDKit          3D

 29 28  0  0  1  0  0  0  0  0999 V2000
   27.6948  -28.1345  -18.6259 N   0  0  0  0  0  0  0  0  0  0  0  0
   27.4796  -27.8877  -17.1871 C   0  0  1  0  0  0  0  0  0  0  0  0
   28.7618  -28.0757  -16.4633 C   0  0  0  0  0  0  0  0  0  0  0  0
   29.2405  -29.4506  -16.3440 C   0  0  0  0  0  0  0  0  0  0  0  0
   28.4864  -30.5345  -15.7388 C   0  0  0  0  0  0  0  0  0  0  0  0
   28.9852  -31.9251  -15.7144 C   0  0  0  0  0  0  0  0  0  0  0  0
   27.9462  -32.7801  -15.0452 N   0  0  0  0  0  0  0  0  0  0  0  0
   27.0668  -26.4204  -17.1321 C   0  0  0  0  0  0  0  0  0  0  0  0
   26.8920  -25.9186  -16.0084 O   0  0  0  0  0  0  0  0  0  0  0  0
   26.8826  -25.6370  -18.2804 N   0  0  0  0  0  0  0  0  0  0  0  0
   26.4694  -24.2670  -18.2992 C   0  0  1  0  0  0  0  0  0  0  0  0
   27.2948  -23.5104  -19.2888 C   0  0  0  0  0  0  0  0  0  0  0  0
   28.6604  -23.2516  -18.7795 C   0  0  0  0  0  0  0  0  0  0  0  0
   28.9152  -22.9932  -17.5751 O   0  0  0  0  0  0  0  0  0  0  0  0
   25.0093  -24.1381  -18.5689 C   0  0  0  0  0  0  0  0  0  0  0  0
   24.4831  -25.0064  -19.3081 O   0  0  0  0  0  0  0  0  0  0  0  0
   29.7788  -23.2793  -19.6259 O   0  0  0  0  0  0  0  0  0  0  0  0
   18.0980  -24.3919  -16.0384 N   0  0  0  0  0  0  0  0  0  0  0  0
   17.6366  -24.8871  -17.3017 C   0  0  0  0  0  0  0  0  0  0  0  0
   16.3853  -24.7944  -17.5944 N   0  0  0  0  0  0  0  0  0  0  0  0
   18.5609  -25.4709  -18.2109 N   0  0  0  0  0  0  0  0  0  0  0  0
   19.9569  -25.5693  -17.8532 C   0  0  0  0  0  0  0  0  0  0  0  0
   20.5949  -24.2083  -18.2028 C   0  0  0  0  0  0  0  0  0  0  0  0
   22.0794  -24.2615  -17.9569 C   0  0  0  0  0  0  0  0  0  0  0  0
   22.7746  -22.9801  -18.2449 C   0  0  2  0  0  0  0  0  0  0  0  0
   24.2193  -23.0944  -18.0316 N   0  0  0  0  0  0  0  0  0  0  0  0
   22.2176  -21.8516  -17.4925 C   0  0  0  0  0  0  0  0  0  0  0  0
   20.8869  -21.4898  -17.7298 O   0  0  0  0  0  0  0  0  0  0  0  0
   22.8274  -21.1663  -16.6411 O   0  0  0  0  0  0  0  0  0  0  0  0
  2  1  1  6
  3  2  1  0
  4  3  1  0
  5  4  1  0
  6  5  1  0
  7  6  1  0
  8 10  1  0
  8  2  1  0
  9  8  2  0
 11 10  1  0
 12 13  1  0
 11 12  1  6
 13 17  1  0
 14 13  2  0
 15 26  1  0
 15 11  1  0
 16 15  2  0
 18 19  1  0
 19 21  1  0
 20 19  2  0
 21 22  1  0
 22 23  1  0
 23 24  1  0
 25 24  1  1
 25 26  1  0
 25 27  1  0
 27 28  1  0
 29 27  2  0
M  END
$$$$
