KDR.pdb
     RDKit          3D

 29 28  0  0  1  0  0  0  0  0999 V2000
   22.1051  -17.7774  -21.8654 N   0  0  0  0  0  0  0  0  0  0  0  0
   22.9115  -18.1793  -20.6968 C   0  0  1  0  0  0  0  0  0  0  0  0
   23.6397  -16.9950  -20.1767 C   0  0  0  0  0  0  0  0  0  0  0  0
   24.9318  -16.7088  -20.7947 C   0  0  0  0  0  0  0  0  0  0  0  0
   26.0827  -17.5934  -20.7423 C   0  0  0  0  0  0  0  0  0  0  0  0
   27.3739  -17.2463  -21.3714 C   0  0  0  0  0  0  0  0  0  0  0  0
   28.3330  -18.3751  -21.1177 N   0  0  0  0  0  0  0  0  0  0  0  0
   21.8690  -18.6314  -19.6793 C   0  0  0  0  0  0  0  0  0  0  0  0
   20.8196  -17.9694  -19.6050 O   0  0  0  0  0  0  0  0  0  0  0  0
   22.0510  -19.7432  -18.8445 N   0  0  0  0  0  0  0  0  0  0  0  0
   21.1466  -20.1786  -17.8245 C   0  0  1  0  0  0  0  0  0  0  0  0
   21.4703  -21.5852  -17.4377 C   0  0  0  0  0  0  0  0  0  0  0  0
   20.4498  -22.1521  -16.5276 C   0  0  0  0  0  0  0  0  0  0  0  0
   19.4783  -21.4926  -16.0764 O   0  0  0  0  0  0  0  0  0  0  0  0
   21.1557  -19.2568  -16.6534 C   0  0  0  0  0  0  0  0  0  0  0  0
   22.0029  -18.3297  -16.6589 O   0  0  0  0  0  0  0  0  0  0  0  0
   20.5034  -23.4881  -16.1030 O   0  0  0  0  0  0  0  0  0  0  0  0
   18.7458  -12.0310  -16.9678 N   0  0  0  0  0  0  0  0  0  0  0  0
   18.5094  -12.2061  -15.5651 C   0  0  0  0  0  0  0  0  0  0  0  0
   18.1705  -11.1875  -14.8525 N   0  0  0  0  0  0  0  0  0  0  0  0
   18.6509  -13.4949  -14.9812 N   0  0  0  0  0  0  0  0  0  0  0  0
   19.2121  -14.5775  -15.7554 C   0  0  0  0  0  0  0  0  0  0  0  0
   19.2179  -15.8161  -14.8350 C   0  0  0  0  0  0  0  0  0  0  0  0
   19.7687  -17.0034  -15.5792 C   0  0  0  0  0  0  0  0  0  0  0  0
   19.7609  -18.2582  -14.7833 C   0  0  2  0  0  0  0  0  0  0  0  0
   20.2625  -19.3914  -15.5643 N   0  0  0  0  0  0  0  0  0  0  0  0
   18.4459  -18.5553  -14.2068 C   0  0  0  0  0  0  0  0  0  0  0  0
   18.2263  -18.2403  -12.8613 O   0  0  0  0  0  0  0  0  0  0  0  0
   17.4806  -19.0733  -14.8120 O   0  0  0  0  0  0  0  0  0  0  0  0
  2  1  1  6
  3  2  1  0
  4  3  1  0
  5  4  1  0
  6  5  1  0
  7  6  1  0
  8 10  1  0
  8  2  1  0
  9  8  2  0
 11 10  1  0
 12 13  1  0
 11 12  1  1
 13 17  1  0
 14 13  2  0
 15 26  1  0
 15 11  1  0
 16 15  2  0
 18 19  1  0
 19 21  1  0
 20 19  2  0
 21 22  1  0
 22 23  1  0
 23 24  1  0
 25 24  1  6
 25 26  1  0
 25 27  1  0
 27 28  1  0
 29 27  2  0
M  END
$$$$
