KDR.pdb
     RDKit          3D

 29 28  0  0  1  0  0  0  0  0999 V2000
   26.3451  -15.6484  -17.4842 N   0  0  0  0  0  0  0  0  0  0  0  0
   26.1816  -15.4880  -16.0265 C   0  0  1  0  0  0  0  0  0  0  0  0
   25.2628  -14.3527  -15.7612 C   0  0  0  0  0  0  0  0  0  0  0  0
   25.3964  -13.1946  -16.6413 C   0  0  0  0  0  0  0  0  0  0  0  0
   24.4802  -12.8722  -17.7213 C   0  0  0  0  0  0  0  0  0  0  0  0
   24.6627  -11.6859  -18.5830 C   0  0  0  0  0  0  0  0  0  0  0  0
   24.7730  -10.4786  -17.6949 N   0  0  0  0  0  0  0  0  0  0  0  0
   25.5252  -16.7946  -15.5926 C   0  0  0  0  0  0  0  0  0  0  0  0
   24.3040  -16.7708  -15.3624 O   0  0  0  0  0  0  0  0  0  0  0  0
   26.2372  -17.9939  -15.4484 N   0  0  0  0  0  0  0  0  0  0  0  0
   25.6764  -19.2598  -15.0863 C   0  0  1  0  0  0  0  0  0  0  0  0
   26.1113  -20.2979  -16.0692 C   0  0  0  0  0  0  0  0  0  0  0  0
   25.5748  -20.0301  -17.4226 C   0  0  0  0  0  0  0  0  0  0  0  0
   24.3457  -19.9891  -17.6871 O   0  0  0  0  0  0  0  0  0  0  0  0
   26.0216  -19.6320  -13.6850 C   0  0  0  0  0  0  0  0  0  0  0  0
   27.2392  -19.7738  -13.4120 O   0  0  0  0  0  0  0  0  0  0  0  0
   26.4214  -19.7999  -18.5173 O   0  0  0  0  0  0  0  0  0  0  0  0
   20.5577  -22.7551   -9.7395 N   0  0  0  0  0  0  0  0  0  0  0  0
   21.1764  -22.2042   -8.5700 C   0  0  0  0  0  0  0  0  0  0  0  0
   21.1458  -22.8719   -7.4686 N   0  0  0  0  0  0  0  0  0  0  0  0
   21.8129  -20.9346   -8.6402 N   0  0  0  0  0  0  0  0  0  0  0  0
   21.8008  -20.1916   -9.8788 C   0  0  0  0  0  0  0  0  0  0  0  0
   22.9798  -20.7245  -10.7199 C   0  0  0  0  0  0  0  0  0  0  0  0
   24.2333  -19.9610  -10.3842 C   0  0  0  0  0  0  0  0  0  0  0  0
   25.3621  -20.2372  -11.3105 C   0  0  2  0  0  0  0  0  0  0  0  0
   25.0447  -19.8256  -12.6799 N   0  0  0  0  0  0  0  0  0  0  0  0
   25.8009  -21.6356  -11.2679 C   0  0  0  0  0  0  0  0  0  0  0  0
   26.5746  -22.0540  -10.1797 O   0  0  0  0  0  0  0  0  0  0  0  0
   25.5460  -22.5099  -12.1263 O   0  0  0  0  0  0  0  0  0  0  0  0
  2  1  1  6
  3  2  1  0
  4  3  1  0
  5  4  1  0
  6  5  1  0
  7  6  1  0
  8 10  1  0
  8  2  1  0
  9  8  2  0
 11 10  1  0
 12 13  1  0
 11 12  1  6
 13 17  1  0
 14 13  2  0
 15 26  1  0
 15 11  1  0
 16 15  2  0
 18 19  1  0
 19 21  1  0
 20 19  2  0
 21 22  1  0
 22 23  1  0
 23 24  1  0
 25 24  1  1
 25 26  1  0
 25 27  1  0
 27 28  1  0
 29 27  2  0
M  END
$$$$
