KDR.pdb
     RDKit          3D

 29 28  0  0  1  0  0  0  0  0999 V2000
   26.2916  -22.5046  -10.7796 N   0  0  0  0  0  0  0  0  0  0  0  0
   26.4953  -21.2181  -11.4730 C   0  0  1  0  0  0  0  0  0  0  0  0
   27.9076  -21.1237  -11.9202 C   0  0  0  0  0  0  0  0  0  0  0  0
   28.9248  -21.4102  -10.9118 C   0  0  0  0  0  0  0  0  0  0  0  0
   30.3553  -21.2782  -11.1259 C   0  0  0  0  0  0  0  0  0  0  0  0
   31.3315  -21.3861  -10.0220 C   0  0  0  0  0  0  0  0  0  0  0  0
   31.3366  -22.8107   -9.5434 N   0  0  0  0  0  0  0  0  0  0  0  0
   25.5758  -21.3142  -12.6860 C   0  0  0  0  0  0  0  0  0  0  0  0
   25.9744  -21.9867  -13.6524 O   0  0  0  0  0  0  0  0  0  0  0  0
   24.3246  -20.6839  -12.7457 N   0  0  0  0  0  0  0  0  0  0  0  0
   23.3866  -20.7899  -13.8213 C   0  0  1  0  0  0  0  0  0  0  0  0
   22.2928  -21.7333  -13.4383 C   0  0  0  0  0  0  0  0  0  0  0  0
   21.7324  -21.4112  -12.1066 C   0  0  0  0  0  0  0  0  0  0  0  0
   20.7782  -22.0421  -11.5835 O   0  0  0  0  0  0  0  0  0  0  0  0
   22.8621  -19.4546  -14.2253 C   0  0  0  0  0  0  0  0  0  0  0  0
   22.4714  -18.6899  -13.3089 O   0  0  0  0  0  0  0  0  0  0  0  0
   22.2417  -20.3608  -11.3286 O   0  0  0  0  0  0  0  0  0  0  0  0
   24.9281  -12.0540  -17.7731 N   0  0  0  0  0  0  0  0  0  0  0  0
   25.0403  -12.3235  -16.3699 C   0  0  0  0  0  0  0  0  0  0  0  0
   25.4041  -11.3772  -15.5748 N   0  0  0  0  0  0  0  0  0  0  0  0
   24.7498  -13.6249  -15.8760 N   0  0  0  0  0  0  0  0  0  0  0  0
   24.0734  -14.5807  -16.7219 C   0  0  0  0  0  0  0  0  0  0  0  0
   23.9937  -15.8959  -15.9187 C   0  0  0  0  0  0  0  0  0  0  0  0
   23.3129  -16.9570  -16.7418 C   0  0  0  0  0  0  0  0  0  0  0  0
   22.2861  -17.7237  -15.9894 C   0  0  2  0  0  0  0  0  0  0  0  0
   22.7928  -19.0340  -15.5745 N   0  0  0  0  0  0  0  0  0  0  0  0
   21.0245  -17.8544  -16.7250 C   0  0  0  0  0  0  0  0  0  0  0  0
   20.1284  -16.7800  -16.6988 O   0  0  0  0  0  0  0  0  0  0  0  0
   20.6629  -18.8525  -17.3878 O   0  0  0  0  0  0  0  0  0  0  0  0
  2  1  1  1
  3  2  1  0
  4  3  1  0
  5  4  1  0
  6  5  1  0
  7  6  1  0
  8 10  1  0
  8  2  1  0
  9  8  2  0
 11 10  1  0
 12 13  1  0
 11 12  1  1
 13 17  1  0
 14 13  2  0
 15 26  1  0
 15 11  1  0
 16 15  2  0
 18 19  1  0
 19 21  1  0
 20 19  2  0
 21 22  1  0
 22 23  1  0
 23 24  1  0
 25 24  1  6
 25 26  1  0
 25 27  1  0
 27 28  1  0
 29 27  2  0
M  END
$$$$
