KDR.pdb
     RDKit          3D

 29 28  0  0  1  0  0  0  0  0999 V2000
   15.5134  -10.4104   -9.6905 N   0  0  0  0  0  0  0  0  0  0  0  0
   16.2096   -9.4448  -10.5623 C   0  0  1  0  0  0  0  0  0  0  0  0
   15.7789   -9.6576  -11.9668 C   0  0  0  0  0  0  0  0  0  0  0  0
   16.2811  -10.8635  -12.6205 C   0  0  0  0  0  0  0  0  0  0  0  0
   15.7750  -12.2029  -12.3764 C   0  0  0  0  0  0  0  0  0  0  0  0
   16.2185  -13.3700  -13.1666 C   0  0  0  0  0  0  0  0  0  0  0  0
   15.2684  -13.5398  -14.3185 N   0  0  0  0  0  0  0  0  0  0  0  0
   15.7099   -8.0906  -10.0694 C   0  0  0  0  0  0  0  0  0  0  0  0
   14.4818   -7.9476   -9.9416 O   0  0  0  0  0  0  0  0  0  0  0  0
   16.5701   -7.0265   -9.7628 N   0  0  0  0  0  0  0  0  0  0  0  0
   16.1685   -5.7405   -9.2800 C   0  0  1  0  0  0  0  0  0  0  0  0
   17.2023   -5.2163   -8.3369 C   0  0  0  0  0  0  0  0  0  0  0  0
   16.8403   -3.8794   -7.8147 C   0  0  0  0  0  0  0  0  0  0  0  0
   15.6614   -3.5364   -7.5412 O   0  0  0  0  0  0  0  0  0  0  0  0
   15.8967   -4.7948  -10.3993 C   0  0  0  0  0  0  0  0  0  0  0  0
   16.7885   -4.6698  -11.2748 O   0  0  0  0  0  0  0  0  0  0  0  0
   17.8097   -2.8912   -7.5872 O   0  0  0  0  0  0  0  0  0  0  0  0
    8.6393   -0.0405  -12.8709 N   0  0  0  0  0  0  0  0  0  0  0  0
    9.6123    0.0970  -13.9142 C   0  0  0  0  0  0  0  0  0  0  0  0
    9.3300    0.8134  -14.9471 N   0  0  0  0  0  0  0  0  0  0  0  0
   10.8703   -0.5554  -13.7961 N   0  0  0  0  0  0  0  0  0  0  0  0
   11.1465   -1.3817  -12.6440 C   0  0  0  0  0  0  0  0  0  0  0  0
   12.6222   -1.8174  -12.7621 C   0  0  0  0  0  0  0  0  0  0  0  0
   12.9771   -2.7348  -11.6221 C   0  0  0  0  0  0  0  0  0  0  0  0
   14.4121   -3.1197  -11.5951 C   0  0  2  0  0  0  0  0  0  0  0  0
   14.6962   -4.0529  -10.5024 N   0  0  0  0  0  0  0  0  0  0  0  0
   15.3088   -1.9606  -11.5459 C   0  0  0  0  0  0  0  0  0  0  0  0
   15.8987   -1.5287  -12.7390 O   0  0  0  0  0  0  0  0  0  0  0  0
   15.6044   -1.3059  -10.5211 O   0  0  0  0  0  0  0  0  0  0  0  0
  2  1  1  1
  3  2  1  0
  4  3  1  0
  5  4  1  0
  6  5  1  0
  7  6  1  0
  8 10  1  0
  8  2  1  0
  9  8  2  0
 11 10  1  0
 12 13  1  0
 11 12  1  1
 13 17  1  0
 14 13  2  0
 15 26  1  0
 15 11  1  0
 16 15  2  0
 18 19  1  0
 19 21  1  0
 20 19  2  0
 21 22  1  0
 22 23  1  0
 23 24  1  0
 25 24  1  1
 25 26  1  0
 25 27  1  0
 27 28  1  0
 29 27  2  0
M  END
$$$$
