KDR.pdb
     RDKit          3D

 29 28  0  0  1  0  0  0  0  0999 V2000
   25.6125  -20.6197  -15.4387 N   0  0  0  0  0  0  0  0  0  0  0  0
   24.3309  -20.1834  -16.0254 C   0  0  1  0  0  0  0  0  0  0  0  0
   23.8661  -21.2056  -16.9962 C   0  0  0  0  0  0  0  0  0  0  0  0
   24.8257  -22.2512  -17.3420 C   0  0  0  0  0  0  0  0  0  0  0  0
   25.1945  -22.6127  -18.6996 C   0  0  0  0  0  0  0  0  0  0  0  0
   26.1652  -23.6872  -18.9938 C   0  0  0  0  0  0  0  0  0  0  0  0
   26.2925  -23.8029  -20.4867 N   0  0  0  0  0  0  0  0  0  0  0  0
   23.3848  -20.1400  -14.8299 C   0  0  0  0  0  0  0  0  0  0  0  0
   23.8331  -20.5169  -13.7335 O   0  0  0  0  0  0  0  0  0  0  0  0
   22.0571  -19.6990  -14.9243 N   0  0  0  0  0  0  0  0  0  0  0  0
   21.1572  -19.5175  -13.8264 C   0  0  1  0  0  0  0  0  0  0  0  0
   20.3495  -18.2791  -14.0426 C   0  0  0  0  0  0  0  0  0  0  0  0
   19.4711  -17.9889  -12.8870 C   0  0  0  0  0  0  0  0  0  0  0  0
   18.2629  -17.6574  -12.9988 O   0  0  0  0  0  0  0  0  0  0  0  0
   20.3003  -20.7185  -13.6153 C   0  0  0  0  0  0  0  0  0  0  0  0
   19.9426  -21.3554  -14.6368 O   0  0  0  0  0  0  0  0  0  0  0  0
   19.9413  -18.0675  -11.5676 O   0  0  0  0  0  0  0  0  0  0  0  0
   18.5590  -25.5989   -6.2385 N   0  0  0  0  0  0  0  0  0  0  0  0
   18.2463  -26.3930   -7.3899 C   0  0  0  0  0  0  0  0  0  0  0  0
   17.9879  -27.6461   -7.2384 N   0  0  0  0  0  0  0  0  0  0  0  0
   18.2251  -25.7906   -8.6778 N   0  0  0  0  0  0  0  0  0  0  0  0
   18.7761  -24.4682   -8.8624 C   0  0  0  0  0  0  0  0  0  0  0  0
   18.6276  -24.1380  -10.3625 C   0  0  0  0  0  0  0  0  0  0  0  0
   19.2212  -22.7843  -10.6492 C   0  0  0  0  0  0  0  0  0  0  0  0
   19.1943  -22.4176  -12.0890 C   0  0  2  0  0  0  0  0  0  0  0  0
   19.8884  -21.1509  -12.3325 N   0  0  0  0  0  0  0  0  0  0  0  0
   17.8364  -22.3902  -12.6414 C   0  0  0  0  0  0  0  0  0  0  0  0
   17.3455  -23.5507  -13.2498 O   0  0  0  0  0  0  0  0  0  0  0  0
   17.0570  -21.4112  -12.6218 O   0  0  0  0  0  0  0  0  0  0  0  0
  2  1  1  1
  3  2  1  0
  4  3  1  0
  5  4  1  0
  6  5  1  0
  7  6  1  0
  8 10  1  0
  8  2  1  0
  9  8  2  0
 11 10  1  0
 12 13  1  0
 11 12  1  6
 13 17  1  0
 14 13  2  0
 15 26  1  0
 15 11  1  0
 16 15  2  0
 18 19  1  0
 19 21  1  0
 20 19  2  0
 21 22  1  0
 22 23  1  0
 23 24  1  0
 25 24  1  1
 25 26  1  0
 25 27  1  0
 27 28  1  0
 29 27  2  0
M  END
$$$$
