KDR.pdb
     RDKit          3D

 29 28  0  0  1  0  0  0  0  0999 V2000
   17.5526  -27.3498   -8.5888 N   0  0  0  0  0  0  0  0  0  0  0  0
   18.4258  -26.6127   -7.6553 C   0  0  1  0  0  0  0  0  0  0  0  0
   18.7780  -25.2997   -8.2511 C   0  0  0  0  0  0  0  0  0  0  0  0
   18.0399  -24.9167   -9.4520 C   0  0  0  0  0  0  0  0  0  0  0  0
   18.3326  -23.7447  -10.2586 C   0  0  0  0  0  0  0  0  0  0  0  0
   17.5672  -23.4156  -11.4789 C   0  0  0  0  0  0  0  0  0  0  0  0
   18.2349  -22.2456  -12.1452 N   0  0  0  0  0  0  0  0  0  0  0  0
   17.5440  -26.4024   -6.4287 C   0  0  0  0  0  0  0  0  0  0  0  0
   16.3223  -26.2754   -6.6193 O   0  0  0  0  0  0  0  0  0  0  0  0
   18.0539  -26.3491   -5.1236 N   0  0  0  0  0  0  0  0  0  0  0  0
   17.2972  -26.0670   -3.9422 C   0  0  1  0  0  0  0  0  0  0  0  0
   18.1523  -26.2888   -2.7370 C   0  0  0  0  0  0  0  0  0  0  0  0
   18.5793  -27.7013   -2.6203 C   0  0  0  0  0  0  0  0  0  0  0  0
   19.5503  -28.0774   -1.9146 O   0  0  0  0  0  0  0  0  0  0  0  0
   16.7183  -24.6941   -3.9764 C   0  0  0  0  0  0  0  0  0  0  0  0
   17.3040  -23.8415   -4.6886 O   0  0  0  0  0  0  0  0  0  0  0  0
   17.9135  -28.7299   -3.3034 O   0  0  0  0  0  0  0  0  0  0  0  0
   12.3009  -22.5924   -9.8230 N   0  0  0  0  0  0  0  0  0  0  0  0
   13.3248  -21.7524   -9.2751 C   0  0  0  0  0  0  0  0  0  0  0  0
   13.9828  -20.9700  -10.0592 N   0  0  0  0  0  0  0  0  0  0  0  0
   13.5995  -21.7930   -7.8805 N   0  0  0  0  0  0  0  0  0  0  0  0
   12.8488  -22.6827   -7.0253 C   0  0  0  0  0  0  0  0  0  0  0  0
   13.2906  -22.3752   -5.5791 C   0  0  0  0  0  0  0  0  0  0  0  0
   14.1842  -23.4760   -5.0725 C   0  0  0  0  0  0  0  0  0  0  0  0
   14.6362  -23.2757   -3.6712 C   0  0  2  0  0  0  0  0  0  0  0  0
   15.5595  -24.3319   -3.2497 N   0  0  0  0  0  0  0  0  0  0  0  0
   13.5203  -23.1432   -2.7294 C   0  0  0  0  0  0  0  0  0  0  0  0
   13.0512  -21.8582   -2.4351 O   0  0  0  0  0  0  0  0  0  0  0  0
   12.9338  -24.0855   -2.1511 O   0  0  0  0  0  0  0  0  0  0  0  0
  2  1  1  6
  3  2  1  0
  4  3  1  0
  5  4  1  0
  6  5  1  0
  7  6  1  0
  8 10  1  0
  8  2  1  0
  9  8  2  0
 11 10  1  0
 12 13  1  0
 11 12  1  1
 13 17  1  0
 14 13  2  0
 15 26  1  0
 15 11  1  0
 16 15  2  0
 18 19  1  0
 19 21  1  0
 20 19  2  0
 21 22  1  0
 22 23  1  0
 23 24  1  0
 25 24  1  6
 25 26  1  0
 25 27  1  0
 27 28  1  0
 29 27  2  0
M  END
$$$$
