KDR.pdb
     RDKit          3D

 29 28  0  0  1  0  0  0  0  0999 V2000
   24.7352  -19.7012  -19.6353 N   0  0  0  0  0  0  0  0  0  0  0  0
   25.3257  -21.0518  -19.5684 C   0  0  1  0  0  0  0  0  0  0  0  0
   26.7151  -20.9515  -19.0559 C   0  0  0  0  0  0  0  0  0  0  0  0
   27.0255  -19.7673  -18.2590 C   0  0  0  0  0  0  0  0  0  0  0  0
   28.1822  -18.9143  -18.4695 C   0  0  0  0  0  0  0  0  0  0  0  0
   28.4906  -17.7710  -17.5857 C   0  0  0  0  0  0  0  0  0  0  0  0
   29.8297  -17.2202  -17.9881 N   0  0  0  0  0  0  0  0  0  0  0  0
   24.4515  -21.7760  -18.5496 C   0  0  0  0  0  0  0  0  0  0  0  0
   23.2411  -21.8842  -18.8109 O   0  0  0  0  0  0  0  0  0  0  0  0
   24.9563  -22.3114  -17.3561 N   0  0  0  0  0  0  0  0  0  0  0  0
   24.2288  -23.1291  -16.4341 C   0  0  1  0  0  0  0  0  0  0  0  0
   25.1683  -24.0709  -15.7534 C   0  0  0  0  0  0  0  0  0  0  0  0
   24.4467  -25.0535  -14.9137 C   0  0  0  0  0  0  0  0  0  0  0  0
   25.0210  -25.9544  -14.2498 O   0  0  0  0  0  0  0  0  0  0  0  0
   23.4555  -22.3053  -15.4622 C   0  0  0  0  0  0  0  0  0  0  0  0
   24.1070  -21.7056  -14.5716 O   0  0  0  0  0  0  0  0  0  0  0  0
   23.0482  -25.0406  -14.8035 O   0  0  0  0  0  0  0  0  0  0  0  0
   18.9907  -25.2721   -9.9535 N   0  0  0  0  0  0  0  0  0  0  0  0
   17.8632  -24.4121  -10.1617 C   0  0  0  0  0  0  0  0  0  0  0  0
   16.9483  -24.3445   -9.2572 N   0  0  0  0  0  0  0  0  0  0  0  0
   17.7698  -23.6483  -11.3576 N   0  0  0  0  0  0  0  0  0  0  0  0
   18.5887  -23.9927  -12.4966 C   0  0  0  0  0  0  0  0  0  0  0  0
   19.5268  -22.7916  -12.7397 C   0  0  0  0  0  0  0  0  0  0  0  0
   20.3498  -23.0284  -13.9780 C   0  0  0  0  0  0  0  0  0  0  0  0
   21.2190  -21.8792  -14.3413 C   0  0  2  0  0  0  0  0  0  0  0  0
   22.0467  -22.1820  -15.5112 N   0  0  0  0  0  0  0  0  0  0  0  0
   22.0405  -21.4133  -13.2198 C   0  0  0  0  0  0  0  0  0  0  0  0
   21.7027  -20.1996  -12.6108 O   0  0  0  0  0  0  0  0  0  0  0  0
   23.0342  -22.0065  -12.7434 O   0  0  0  0  0  0  0  0  0  0  0  0
  2  1  1  1
  3  2  1  0
  4  3  1  0
  5  4  1  0
  6  5  1  0
  7  6  1  0
  8 10  1  0
  8  2  1  0
  9  8  2  0
 11 10  1  0
 12 13  1  0
 11 12  1  1
 13 17  1  0
 14 13  2  0
 15 26  1  0
 15 11  1  0
 16 15  2  0
 18 19  1  0
 19 21  1  0
 20 19  2  0
 21 22  1  0
 22 23  1  0
 23 24  1  0
 25 24  1  1
 25 26  1  0
 25 27  1  0
 27 28  1  0
 29 27  2  0
M  END
$$$$
