QEK.pdb
     RDKit          3D

 28 27  0  0  1  0  0  0  0  0999 V2000
   23.0546  -20.4798  -10.4771 N   0  0  0  0  0  0  0  0  0  0  0  0
   23.4713  -20.9579   -9.2254 C   0  0  0  0  0  0  0  0  0  0  0  0
   22.6716  -21.3943   -8.3892 O   0  0  0  0  0  0  0  0  0  0  0  0
   24.9297  -20.9340   -8.9028 C   0  0  0  0  0  0  0  0  0  0  0  0
   25.6505  -20.2080   -9.9996 C   0  0  0  0  0  0  0  0  0  0  0  0
   25.6685  -21.0003  -11.2549 C   0  0  2  0  0  0  0  0  0  0  0  0
   26.6168  -22.1238  -11.1323 N   0  0  0  0  0  0  0  0  0  0  0  0
   26.1039  -20.1514  -12.4176 C   0  0  0  0  0  0  0  0  0  0  0  0
   27.2427  -19.6300  -12.4600 O   0  0  0  0  0  0  0  0  0  0  0  0
   25.2519  -19.9076  -13.5054 N   0  0  0  0  0  0  0  0  0  0  0  0
   25.5595  -19.2082  -14.6930 C   0  0  1  0  0  0  0  0  0  0  0  0
   26.7550  -19.6730  -15.4646 C   0  0  0  0  0  0  0  0  0  0  0  0
   26.5811  -21.0277  -16.0278 C   0  0  0  0  0  0  0  0  0  0  0  0
   27.6918  -21.5090  -16.8954 C   0  0  0  0  0  0  0  0  0  0  0  0
   27.8017  -21.0639  -18.0521 O   0  0  0  0  0  0  0  0  0  0  0  0
   24.3559  -18.9370  -15.4875 C   0  0  0  0  0  0  0  0  0  0  0  0
   23.5201  -19.8823  -15.6445 O   0  0  0  0  0  0  0  0  0  0  0  0
   28.6188  -22.4369  -16.4758 O   0  0  0  0  0  0  0  0  0  0  0  0
   24.1274  -17.6671  -16.0616 N   0  0  0  0  0  0  0  0  0  0  0  0
   22.8954  -17.3961  -16.8872 C   0  0  1  0  0  0  0  0  0  0  0  0
   23.2653  -17.4046  -18.2892 C   0  0  0  0  0  0  0  0  0  0  0  0
   22.2447  -17.2298  -19.3283 C   0  0  0  0  0  0  0  0  0  0  0  0
   22.6538  -17.2317  -20.7591 C   0  0  0  0  0  0  0  0  0  0  0  0
   21.3565  -17.0104  -21.5690 C   0  0  0  0  0  0  0  0  0  0  0  0
   21.7328  -16.9824  -22.9536 N   0  0  0  0  0  0  0  0  0  0  0  0
   21.7665  -18.1011  -16.3342 C   0  0  0  0  0  0  0  0  0  0  0  0
   21.6501  -19.3612  -16.1742 O   0  0  0  0  0  0  0  0  0  0  0  0
   20.5988  -17.4164  -15.8861 O   0  0  0  0  0  0  0  0  0  0  0  0
  1  2  1  0
  2  4  1  0
  3  2  2  0
  4  5  1  0
  6  8  1  0
  6  7  1  1
  6  5  1  0
  8  9  2  0
 10 11  1  0
 10  8  1  0
 11 16  1  0
 11 12  1  6
 13 12  1  0
 14 13  1  0
 15 14  2  0
 16 17  2  0
 16 19  1  0
 18 14  1  0
 19 20  1  0
 20 26  1  0
 20 21  1  6
 22 21  1  0
 22 23  1  0
 24 23  1  0
 25 24  1  0
 26 27  2  0
 26 28  1  0
M  END
$$$$
