QEK.pdb
     RDKit          3D

 28 27  0  0  1  0  0  0  0  0999 V2000
   31.7258   -4.7018  -15.4463 N   0  0  0  0  0  0  0  0  0  0  0  0
   32.9775   -4.9583  -14.8661 C   0  0  0  0  0  0  0  0  0  0  0  0
   33.3724   -4.3546  -13.8617 O   0  0  0  0  0  0  0  0  0  0  0  0
   33.8531   -5.9955  -15.4900 C   0  0  0  0  0  0  0  0  0  0  0  0
   33.0605   -6.7266  -16.5326 C   0  0  0  0  0  0  0  0  0  0  0  0
   33.8651   -7.7956  -17.1758 C   0  0  2  0  0  0  0  0  0  0  0  0
   34.9477   -7.2002  -17.9821 N   0  0  0  0  0  0  0  0  0  0  0  0
   33.0119   -8.6308  -18.0906 C   0  0  0  0  0  0  0  0  0  0  0  0
   32.6540   -8.2142  -19.2170 O   0  0  0  0  0  0  0  0  0  0  0  0
   32.5806   -9.9136  -17.7204 N   0  0  0  0  0  0  0  0  0  0  0  0
   31.7089  -10.7629  -18.4367 C   0  0  1  0  0  0  0  0  0  0  0  0
   31.8733  -12.2361  -18.2286 C   0  0  0  0  0  0  0  0  0  0  0  0
   30.9622  -13.0381  -19.0709 C   0  0  0  0  0  0  0  0  0  0  0  0
   31.1419  -14.5140  -18.9849 C   0  0  0  0  0  0  0  0  0  0  0  0
   32.2160  -14.9760  -18.5593 O   0  0  0  0  0  0  0  0  0  0  0  0
   30.3280  -10.2671  -18.4095 C   0  0  0  0  0  0  0  0  0  0  0  0
   29.8716   -9.8354  -17.3040 O   0  0  0  0  0  0  0  0  0  0  0  0
   30.1637  -15.4083  -19.3584 O   0  0  0  0  0  0  0  0  0  0  0  0
   29.5267  -10.2661  -19.5724 N   0  0  0  0  0  0  0  0  0  0  0  0
   28.1059   -9.7629  -19.5385 C   0  0  1  0  0  0  0  0  0  0  0  0
   27.9576   -8.7244  -20.5396 C   0  0  0  0  0  0  0  0  0  0  0  0
   26.6743   -8.0347  -20.7105 C   0  0  0  0  0  0  0  0  0  0  0  0
   26.5744   -6.9115  -21.6816 C   0  0  0  0  0  0  0  0  0  0  0  0
   25.1625   -6.3131  -21.4906 C   0  0  0  0  0  0  0  0  0  0  0  0
   25.0780   -5.1689  -22.3528 N   0  0  0  0  0  0  0  0  0  0  0  0
   27.1960  -10.8668  -19.3631 C   0  0  0  0  0  0  0  0  0  0  0  0
   26.0021  -10.8156  -18.9171 O   0  0  0  0  0  0  0  0  0  0  0  0
   27.5655  -12.2046  -19.6899 O   0  0  0  0  0  0  0  0  0  0  0  0
  1  2  1  0
  2  4  1  0
  3  2  2  0
  4  5  1  0
  6  8  1  0
  6  7  1  6
  6  5  1  0
  8  9  2  0
 10 11  1  0
 10  8  1  0
 11 16  1  0
 11 12  1  1
 13 12  1  0
 14 13  1  0
 15 14  2  0
 16 17  2  0
 16 19  1  0
 18 14  1  0
 19 20  1  0
 20 26  1  0
 20 21  1  6
 22 21  1  0
 22 23  1  0
 24 23  1  0
 25 24  1  0
 26 27  2  0
 26 28  1  0
M  END
$$$$
