QEK.pdb
     RDKit          3D

 28 27  0  0  1  0  0  0  0  0999 V2000
   20.3304  -22.8460  -13.8308 N   0  0  0  0  0  0  0  0  0  0  0  0
   21.3436  -23.6884  -14.3132 C   0  0  0  0  0  0  0  0  0  0  0  0
   22.2692  -23.2670  -15.0167 O   0  0  0  0  0  0  0  0  0  0  0  0
   21.2927  -25.1390  -13.9600 C   0  0  0  0  0  0  0  0  0  0  0  0
   20.0709  -25.3857  -13.1257 C   0  0  0  0  0  0  0  0  0  0  0  0
   20.3275  -26.4013  -12.0738 C   0  0  2  0  0  0  0  0  0  0  0  0
   20.4779  -27.7364  -12.6834 N   0  0  0  0  0  0  0  0  0  0  0  0
   19.1838  -26.4634  -11.0990 C   0  0  0  0  0  0  0  0  0  0  0  0
   18.1368  -27.1027  -11.3548 O   0  0  0  0  0  0  0  0  0  0  0  0
   19.2416  -25.8071   -9.8602 N   0  0  0  0  0  0  0  0  0  0  0  0
   18.2088  -25.6921   -8.9040 C   0  0  1  0  0  0  0  0  0  0  0  0
   18.6219  -25.5250   -7.4751 C   0  0  0  0  0  0  0  0  0  0  0  0
   17.4722  -25.3513   -6.5637 C   0  0  0  0  0  0  0  0  0  0  0  0
   17.8167  -25.1233   -5.1328 C   0  0  0  0  0  0  0  0  0  0  0  0
   16.9055  -24.9403   -4.3056 O   0  0  0  0  0  0  0  0  0  0  0  0
   17.1417  -24.7970   -9.3663 C   0  0  0  0  0  0  0  0  0  0  0  0
   17.4583  -23.6076   -9.6855 O   0  0  0  0  0  0  0  0  0  0  0  0
   19.1139  -25.1043   -4.6710 O   0  0  0  0  0  0  0  0  0  0  0  0
   15.8031  -25.2379   -9.4566 N   0  0  0  0  0  0  0  0  0  0  0  0
   14.7045  -24.3056   -9.9003 C   0  0  1  0  0  0  0  0  0  0  0  0
   13.5713  -25.0983  -10.3363 C   0  0  0  0  0  0  0  0  0  0  0  0
   12.3113  -24.4489  -10.7138 C   0  0  0  0  0  0  0  0  0  0  0  0
   11.1788  -25.2829  -11.1999 C   0  0  0  0  0  0  0  0  0  0  0  0
   10.0744  -24.2888  -11.6241 C   0  0  0  0  0  0  0  0  0  0  0  0
    8.9676  -25.0743  -12.0907 N   0  0  0  0  0  0  0  0  0  0  0  0
   14.6200  -23.1810   -9.0029 C   0  0  0  0  0  0  0  0  0  0  0  0
   14.7354  -23.2004   -7.7328 O   0  0  0  0  0  0  0  0  0  0  0  0
   14.3837  -21.8572   -9.4771 O   0  0  0  0  0  0  0  0  0  0  0  0
  1  2  1  0
  2  4  1  0
  3  2  2  0
  4  5  1  0
  6  8  1  0
  6  7  1  6
  6  5  1  0
  8  9  2  0
 10 11  1  0
 10  8  1  0
 11 16  1  0
 11 12  1  1
 13 12  1  0
 14 13  1  0
 15 14  2  0
 16 17  2  0
 16 19  1  0
 18 14  1  0
 19 20  1  0
 20 26  1  0
 20 21  1  1
 22 21  1  0
 22 23  1  0
 24 23  1  0
 25 24  1  0
 26 27  2  0
 26 28  1  0
M  END
$$$$
