QEK.pdb
     RDKit          3D

 28 27  0  0  1  0  0  0  0  0999 V2000
   15.8771  -14.4720  -17.0974 N   0  0  0  0  0  0  0  0  0  0  0  0
   15.3387  -13.3519  -16.4458 C   0  0  0  0  0  0  0  0  0  0  0  0
   14.3562  -13.4350  -15.6995 O   0  0  0  0  0  0  0  0  0  0  0  0
   15.9805  -12.0214  -16.6681 C   0  0  0  0  0  0  0  0  0  0  0  0
   16.2326  -11.3830  -15.3345 C   0  0  0  0  0  0  0  0  0  0  0  0
   17.6800  -11.1360  -15.1155 C   0  0  2  0  0  0  0  0  0  0  0  0
   18.3660  -12.3997  -14.7851 N   0  0  0  0  0  0  0  0  0  0  0  0
   17.8934  -10.1808  -13.9735 C   0  0  0  0  0  0  0  0  0  0  0  0
   17.5261  -10.4582  -12.8079 O   0  0  0  0  0  0  0  0  0  0  0  0
   18.5140   -8.9372  -14.1658 N   0  0  0  0  0  0  0  0  0  0  0  0
   18.8387   -7.9814  -13.1784 C   0  0  1  0  0  0  0  0  0  0  0  0
   19.9800   -7.0594  -13.4751 C   0  0  0  0  0  0  0  0  0  0  0  0
   20.2922   -6.1548  -12.3495 C   0  0  0  0  0  0  0  0  0  0  0  0
   21.4966   -5.2977  -12.5306 C   0  0  0  0  0  0  0  0  0  0  0  0
   22.6199   -5.7538  -12.2511 O   0  0  0  0  0  0  0  0  0  0  0  0
   17.6368   -7.3476  -12.6239 C   0  0  0  0  0  0  0  0  0  0  0  0
   16.7877   -6.8657  -13.4384 O   0  0  0  0  0  0  0  0  0  0  0  0
   21.4293   -4.0047  -12.9996 O   0  0  0  0  0  0  0  0  0  0  0  0
   17.4244   -7.2732  -11.2297 N   0  0  0  0  0  0  0  0  0  0  0  0
   16.2376   -6.5376  -10.6611 C   0  0  1  0  0  0  0  0  0  0  0  0
   15.5560   -7.4102   -9.7248 C   0  0  0  0  0  0  0  0  0  0  0  0
   14.3396   -6.9600   -9.0397 C   0  0  0  0  0  0  0  0  0  0  0  0
   13.6271   -7.8967   -8.1289 C   0  0  0  0  0  0  0  0  0  0  0  0
   12.4106   -7.1137   -7.5859 C   0  0  0  0  0  0  0  0  0  0  0  0
   11.6595   -8.0276   -6.7734 N   0  0  0  0  0  0  0  0  0  0  0  0
   16.5897   -5.1658  -10.3940 C   0  0  0  0  0  0  0  0  0  0  0  0
   17.7397   -4.7151  -10.0756 O   0  0  0  0  0  0  0  0  0  0  0  0
   15.6275   -4.1158  -10.4630 O   0  0  0  0  0  0  0  0  0  0  0  0
  1  2  1  0
  2  4  1  0
  3  2  2  0
  4  5  1  0
  6  8  1  0
  6  7  1  1
  6  5  1  0
  8  9  2  0
 10 11  1  0
 10  8  1  0
 11 16  1  0
 11 12  1  6
 13 12  1  0
 14 13  1  0
 15 14  2  0
 16 17  2  0
 16 19  1  0
 18 14  1  0
 19 20  1  0
 20 26  1  0
 20 21  1  1
 22 21  1  0
 22 23  1  0
 24 23  1  0
 25 24  1  0
 26 27  2  0
 26 28  1  0
M  END
$$$$
