QEK.pdb
     RDKit          3D

 28 27  0  0  1  0  0  0  0  0999 V2000
   19.3397   -8.4776  -20.0320 N   0  0  0  0  0  0  0  0  0  0  0  0
   18.3384   -9.4405  -19.8341 C   0  0  0  0  0  0  0  0  0  0  0  0
   17.4115   -9.5993  -20.6371 O   0  0  0  0  0  0  0  0  0  0  0  0
   18.4035  -10.2954  -18.6108 C   0  0  0  0  0  0  0  0  0  0  0  0
   19.6761   -9.9877  -17.8791 C   0  0  0  0  0  0  0  0  0  0  0  0
   19.4946  -10.0853  -16.4090 C   0  0  2  0  0  0  0  0  0  0  0  0
   18.3529  -10.9657  -16.0961 N   0  0  0  0  0  0  0  0  0  0  0  0
   19.2138   -8.7332  -15.8132 C   0  0  0  0  0  0  0  0  0  0  0  0
   18.0481   -8.3682  -15.5328 O   0  0  0  0  0  0  0  0  0  0  0  0
   20.2470   -7.8224  -15.5456 N   0  0  0  0  0  0  0  0  0  0  0  0
   20.1330   -6.5550  -14.9334 C   0  0  1  0  0  0  0  0  0  0  0  0
   21.3941   -5.9327  -14.4205 C   0  0  0  0  0  0  0  0  0  0  0  0
   22.2506   -5.4018  -15.5008 C   0  0  0  0  0  0  0  0  0  0  0  0
   23.4889   -4.7053  -15.0539 C   0  0  0  0  0  0  0  0  0  0  0  0
   23.7906   -4.7079  -13.8468 O   0  0  0  0  0  0  0  0  0  0  0  0
   19.2486   -5.6649  -15.6944 C   0  0  0  0  0  0  0  0  0  0  0  0
   18.8777   -6.0402  -16.8513 O   0  0  0  0  0  0  0  0  0  0  0  0
   24.3308   -4.0478  -15.9228 O   0  0  0  0  0  0  0  0  0  0  0  0
   18.8188   -4.4291  -15.1628 N   0  0  0  0  0  0  0  0  0  0  0  0
   17.8573   -3.5482  -15.9194 C   0  0  1  0  0  0  0  0  0  0  0  0
   16.7817   -4.3720  -16.4361 C   0  0  0  0  0  0  0  0  0  0  0  0
   15.5652   -3.7541  -16.9748 C   0  0  0  0  0  0  0  0  0  0  0  0
   14.4916   -4.6221  -17.5303 C   0  0  0  0  0  0  0  0  0  0  0  0
   13.4303   -3.6609  -18.1113 C   0  0  0  0  0  0  0  0  0  0  0  0
   12.4388   -4.4773  -18.7516 N   0  0  0  0  0  0  0  0  0  0  0  0
   17.6702   -2.3044  -15.2158 C   0  0  0  0  0  0  0  0  0  0  0  0
   17.2837   -1.1931  -15.7083 O   0  0  0  0  0  0  0  0  0  0  0  0
   17.9153   -2.1885  -13.8160 O   0  0  0  0  0  0  0  0  0  0  0  0
  1  2  1  0
  2  4  1  0
  3  2  2  0
  4  5  1  0
  6  8  1  0
  6  7  1  6
  6  5  1  0
  8  9  2  0
 10 11  1  0
 10  8  1  0
 11 16  1  0
 11 12  1  6
 13 12  1  0
 14 13  1  0
 15 14  2  0
 16 17  2  0
 16 19  1  0
 18 14  1  0
 19 20  1  0
 20 26  1  0
 20 21  1  1
 22 21  1  0
 22 23  1  0
 24 23  1  0
 25 24  1  0
 26 27  2  0
 26 28  1  0
M  END
$$$$
