QEK.pdb
     RDKit          3D

 28 27  0  0  1  0  0  0  0  0999 V2000
   14.2983  -13.7803  -14.6280 N   0  0  0  0  0  0  0  0  0  0  0  0
   14.3995  -13.2036  -15.9033 C   0  0  0  0  0  0  0  0  0  0  0  0
   13.7757  -13.6451  -16.8755 O   0  0  0  0  0  0  0  0  0  0  0  0
   15.2924  -12.0192  -16.0811 C   0  0  0  0  0  0  0  0  0  0  0  0
   15.8950  -11.6706  -14.7526 C   0  0  0  0  0  0  0  0  0  0  0  0
   17.3030  -11.2222  -14.8958 C   0  0  2  0  0  0  0  0  0  0  0  0
   18.2207  -12.3594  -14.6933 N   0  0  0  0  0  0  0  0  0  0  0  0
   17.6364  -10.1703  -13.8738 C   0  0  0  0  0  0  0  0  0  0  0  0
   17.4442  -10.3593  -12.6499 O   0  0  0  0  0  0  0  0  0  0  0  0
   18.1777   -8.9313  -14.2486 N   0  0  0  0  0  0  0  0  0  0  0  0
   18.6681   -7.9186  -13.3953 C   0  0  1  0  0  0  0  0  0  0  0  0
   19.9441   -7.2487  -13.8000 C   0  0  0  0  0  0  0  0  0  0  0  0
   20.4203   -6.2725  -12.7985 C   0  0  0  0  0  0  0  0  0  0  0  0
   21.6965   -5.5813  -13.1329 C   0  0  0  0  0  0  0  0  0  0  0  0
   21.7214   -4.3389  -13.1955 O   0  0  0  0  0  0  0  0  0  0  0  0
   17.5951   -7.0242  -12.9458 C   0  0  0  0  0  0  0  0  0  0  0  0
   16.8014   -6.5580  -13.8231 O   0  0  0  0  0  0  0  0  0  0  0  0
   22.8697   -6.2584  -13.3804 O   0  0  0  0  0  0  0  0  0  0  0  0
   17.4433   -6.6890  -11.5824 N   0  0  0  0  0  0  0  0  0  0  0  0
   16.3559   -5.7487  -11.1281 C   0  0  1  0  0  0  0  0  0  0  0  0
   15.9163   -6.1518   -9.8064 C   0  0  0  0  0  0  0  0  0  0  0  0
   14.9055   -5.3681   -9.0882 C   0  0  0  0  0  0  0  0  0  0  0  0
   14.4009   -5.8572   -7.7765 C   0  0  0  0  0  0  0  0  0  0  0  0
   13.3783   -4.8021   -7.2978 C   0  0  0  0  0  0  0  0  0  0  0  0
   12.7254   -5.3522   -6.1443 N   0  0  0  0  0  0  0  0  0  0  0  0
   16.6842   -4.3968  -11.5047 C   0  0  0  0  0  0  0  0  0  0  0  0
   17.8478   -3.8788  -11.5735 O   0  0  0  0  0  0  0  0  0  0  0  0
   15.6785   -3.4495  -11.8571 O   0  0  0  0  0  0  0  0  0  0  0  0
  1  2  1  0
  2  4  1  0
  3  2  2  0
  4  5  1  0
  6  8  1  0
  6  7  1  1
  6  5  1  0
  8  9  2  0
 10 11  1  0
 10  8  1  0
 11 16  1  0
 11 12  1  6
 13 12  1  0
 14 13  1  0
 15 14  2  0
 16 17  2  0
 16 19  1  0
 18 14  1  0
 19 20  1  0
 20 26  1  0
 20 21  1  1
 22 21  1  0
 22 23  1  0
 24 23  1  0
 25 24  1  0
 26 27  2  0
 26 28  1  0
M  END
$$$$
