QEK.pdb
     RDKit          3D

 28 27  0  0  1  0  0  0  0  0999 V2000
   26.1810  -24.0113  -18.4427 N   0  0  0  0  0  0  0  0  0  0  0  0
   25.8395  -25.2644  -17.9116 C   0  0  0  0  0  0  0  0  0  0  0  0
   24.8194  -25.8701  -18.2604 O   0  0  0  0  0  0  0  0  0  0  0  0
   26.7439  -25.8771  -16.8927 C   0  0  0  0  0  0  0  0  0  0  0  0
   27.7469  -26.7394  -17.5999 C   0  0  0  0  0  0  0  0  0  0  0  0
   27.7063  -28.1381  -17.1040 C   0  0  2  0  0  0  0  0  0  0  0  0
   28.2427  -28.2055  -15.7313 N   0  0  0  0  0  0  0  0  0  0  0  0
   28.5414  -29.0385  -17.9724 C   0  0  0  0  0  0  0  0  0  0  0  0
   28.3873  -29.0797  -19.2154 O   0  0  0  0  0  0  0  0  0  0  0  0
   29.5297  -29.8711  -17.4261 N   0  0  0  0  0  0  0  0  0  0  0  0
   30.4619  -30.6665  -18.1279 C   0  0  1  0  0  0  0  0  0  0  0  0
   31.2253  -30.0036  -19.2317 C   0  0  0  0  0  0  0  0  0  0  0  0
   31.9447  -28.7936  -18.7832 C   0  0  0  0  0  0  0  0  0  0  0  0
   32.6392  -28.0265  -19.8543 C   0  0  0  0  0  0  0  0  0  0  0  0
   33.2436  -26.9786  -19.5629 O   0  0  0  0  0  0  0  0  0  0  0  0
   31.2556  -31.4994  -17.2169 C   0  0  0  0  0  0  0  0  0  0  0  0
   31.2185  -31.2268  -15.9755 O   0  0  0  0  0  0  0  0  0  0  0  0
   32.6469  -28.4244  -21.1726 O   0  0  0  0  0  0  0  0  0  0  0  0
   32.0373  -32.5725  -17.6985 N   0  0  0  0  0  0  0  0  0  0  0  0
   31.9582  -33.9387  -17.0660 C   0  0  1  0  0  0  0  0  0  0  0  0
   30.5766  -34.2103  -16.7196 C   0  0  0  0  0  0  0  0  0  0  0  0
   30.2347  -35.3571  -15.8713 C   0  0  0  0  0  0  0  0  0  0  0  0
   28.8092  -35.6088  -15.5262 C   0  0  0  0  0  0  0  0  0  0  0  0
   28.8002  -36.9106  -14.6936 C   0  0  0  0  0  0  0  0  0  0  0  0
   27.4383  -37.1446  -14.3062 N   0  0  0  0  0  0  0  0  0  0  0  0
   32.8225  -34.8562  -17.7649 C   0  0  0  0  0  0  0  0  0  0  0  0
   32.9930  -34.9428  -19.0260 O   0  0  0  0  0  0  0  0  0  0  0  0
   33.6181  -35.8152  -17.0719 O   0  0  0  0  0  0  0  0  0  0  0  0
  1  2  1  0
  2  4  1  0
  3  2  2  0
  4  5  1  0
  6  8  1  0
  6  7  1  1
  6  5  1  0
  8  9  2  0
 10 11  1  0
 10  8  1  0
 11 16  1  0
 11 12  1  1
 13 12  1  0
 14 13  1  0
 15 14  2  0
 16 17  2  0
 16 19  1  0
 18 14  1  0
 19 20  1  0
 20 26  1  0
 20 21  1  6
 22 21  1  0
 22 23  1  0
 24 23  1  0
 25 24  1  0
 26 27  2  0
 26 28  1  0
M  END
$$$$
