QEK.pdb
     RDKit          3D

 28 27  0  0  1  0  0  0  0  0999 V2000
   10.7659  -10.5687  -13.6477 N   0  0  0  0  0  0  0  0  0  0  0  0
   11.1753  -10.7725  -14.9743 C   0  0  0  0  0  0  0  0  0  0  0  0
   10.3750  -10.7690  -15.9170 O   0  0  0  0  0  0  0  0  0  0  0  0
   12.6266  -11.0003  -15.2452 C   0  0  0  0  0  0  0  0  0  0  0  0
   13.3693  -10.9557  -13.9429 C   0  0  0  0  0  0  0  0  0  0  0  0
   14.8199  -11.2053  -14.1360 C   0  0  2  0  0  0  0  0  0  0  0  0
   15.1198  -12.6357  -13.9343 N   0  0  0  0  0  0  0  0  0  0  0  0
   15.6350  -10.4172  -13.1478 C   0  0  0  0  0  0  0  0  0  0  0  0
   15.6641  -10.7188  -11.9317 O   0  0  0  0  0  0  0  0  0  0  0  0
   16.3985   -9.3098  -13.5468 N   0  0  0  0  0  0  0  0  0  0  0  0
   17.2153   -8.4955  -12.7320 C   0  0  1  0  0  0  0  0  0  0  0  0
   18.5111   -8.0301  -13.3194 C   0  0  0  0  0  0  0  0  0  0  0  0
   19.3068   -7.2164  -12.3773 C   0  0  0  0  0  0  0  0  0  0  0  0
   20.6447   -6.7877  -12.8718 C   0  0  0  0  0  0  0  0  0  0  0  0
   21.6167   -7.5548  -12.7501 O   0  0  0  0  0  0  0  0  0  0  0  0
   16.4307   -7.4721  -12.0316 C   0  0  0  0  0  0  0  0  0  0  0  0
   15.6154   -6.7754  -12.7146 O   0  0  0  0  0  0  0  0  0  0  0  0
   20.8643   -5.5654  -13.4667 O   0  0  0  0  0  0  0  0  0  0  0  0
   16.5721   -7.2639  -10.6420 N   0  0  0  0  0  0  0  0  0  0  0  0
   15.7754   -6.2011   -9.9289 C   0  0  1  0  0  0  0  0  0  0  0  0
   14.6394   -6.8286   -9.2819 C   0  0  0  0  0  0  0  0  0  0  0  0
   13.6574   -6.0178   -8.5539 C   0  0  0  0  0  0  0  0  0  0  0  0
   12.5060   -6.6887   -7.8916 C   0  0  0  0  0  0  0  0  0  0  0  0
   11.6472   -5.5547   -7.2880 C   0  0  0  0  0  0  0  0  0  0  0  0
   10.5218   -6.1805   -6.6543 N   0  0  0  0  0  0  0  0  0  0  0  0
   16.6646   -5.2626   -9.2920 C   0  0  0  0  0  0  0  0  0  0  0  0
   17.8992   -5.4350   -9.0216 O   0  0  0  0  0  0  0  0  0  0  0  0
   16.2231   -3.9722   -8.8762 O   0  0  0  0  0  0  0  0  0  0  0  0
  1  2  1  0
  2  4  1  0
  3  2  2  0
  4  5  1  0
  6  8  1  0
  6  7  1  1
  6  5  1  0
  8  9  2  0
 10 11  1  0
 10  8  1  0
 11 16  1  0
 11 12  1  6
 13 12  1  0
 14 13  1  0
 15 14  2  0
 16 17  2  0
 16 19  1  0
 18 14  1  0
 19 20  1  0
 20 26  1  0
 20 21  1  1
 22 21  1  0
 22 23  1  0
 24 23  1  0
 25 24  1  0
 26 27  2  0
 26 28  1  0
M  END
$$$$
