QEK.pdb
     RDKit          3D

 28 27  0  0  1  0  0  0  0  0999 V2000
   19.1898  -14.8922  -15.8182 N   0  0  0  0  0  0  0  0  0  0  0  0
   19.2093  -13.7019  -16.5611 C   0  0  0  0  0  0  0  0  0  0  0  0
   20.2650  -13.1791  -16.9370 O   0  0  0  0  0  0  0  0  0  0  0  0
   17.9075  -13.0538  -16.9030 C   0  0  0  0  0  0  0  0  0  0  0  0
   18.1102  -11.5684  -16.9492 C   0  0  0  0  0  0  0  0  0  0  0  0
   18.0364  -10.9677  -15.5937 C   0  0  2  0  0  0  0  0  0  0  0  0
   16.6681  -11.0938  -15.0566 N   0  0  0  0  0  0  0  0  0  0  0  0
   18.3841   -9.5050  -15.6366 C   0  0  0  0  0  0  0  0  0  0  0  0
   17.5096   -8.6272  -15.8243 O   0  0  0  0  0  0  0  0  0  0  0  0
   19.7045   -9.0614  -15.4676 N   0  0  0  0  0  0  0  0  0  0  0  0
   20.1737   -7.7307  -15.5241 C   0  0  1  0  0  0  0  0  0  0  0  0
   20.9789   -7.2445  -14.3597 C   0  0  0  0  0  0  0  0  0  0  0  0
   21.5183   -5.8846  -14.5650 C   0  0  0  0  0  0  0  0  0  0  0  0
   22.3186   -5.3348  -13.4357 C   0  0  0  0  0  0  0  0  0  0  0  0
   22.4663   -6.0131  -12.4031 O   0  0  0  0  0  0  0  0  0  0  0  0
   20.7110   -7.4030  -16.8498 C   0  0  0  0  0  0  0  0  0  0  0  0
   21.6237   -8.1505  -17.3242 O   0  0  0  0  0  0  0  0  0  0  0  0
   22.9135   -4.0936  -13.4767 O   0  0  0  0  0  0  0  0  0  0  0  0
   20.2322   -6.2937  -17.5810 N   0  0  0  0  0  0  0  0  0  0  0  0
   20.7446   -5.9949  -18.9670 C   0  0  1  0  0  0  0  0  0  0  0  0
   19.6103   -5.8229  -19.8538 C   0  0  0  0  0  0  0  0  0  0  0  0
   19.8153   -5.4708  -21.2630 C   0  0  0  0  0  0  0  0  0  0  0  0
   18.6351   -5.3352  -22.1593 C   0  0  0  0  0  0  0  0  0  0  0  0
   19.2025   -4.9901  -23.5546 C   0  0  0  0  0  0  0  0  0  0  0  0
   18.1077   -5.0736  -24.4787 N   0  0  0  0  0  0  0  0  0  0  0  0
   21.8698   -5.0973  -18.8937 C   0  0  0  0  0  0  0  0  0  0  0  0
   22.0881   -4.2089  -18.0049 O   0  0  0  0  0  0  0  0  0  0  0  0
   22.9108   -5.1160  -19.8679 O   0  0  0  0  0  0  0  0  0  0  0  0
  1  2  1  0
  2  4  1  0
  3  2  2  0
  4  5  1  0
  6  8  1  0
  6  7  1  6
  6  5  1  0
  8  9  2  0
 10 11  1  0
 10  8  1  0
 11 16  1  0
 11 12  1  1
 13 12  1  0
 14 13  1  0
 15 14  2  0
 16 17  2  0
 16 19  1  0
 18 14  1  0
 19 20  1  0
 20 26  1  0
 20 21  1  6
 22 21  1  0
 22 23  1  0
 24 23  1  0
 25 24  1  0
 26 27  2  0
 26 28  1  0
M  END
$$$$
