QEK.pdb
     RDKit          3D

 28 27  0  0  1  0  0  0  0  0999 V2000
   21.8960  -17.1502  -20.1720 N   0  0  0  0  0  0  0  0  0  0  0  0
   23.2767  -17.3991  -20.1993 C   0  0  0  0  0  0  0  0  0  0  0  0
   23.7861  -18.1905  -21.0013 O   0  0  0  0  0  0  0  0  0  0  0  0
   24.1499  -16.6799  -19.2236 C   0  0  0  0  0  0  0  0  0  0  0  0
   23.2824  -15.8409  -18.3330 C   0  0  0  0  0  0  0  0  0  0  0  0
   22.9770  -14.5272  -18.9533 C   0  0  2  0  0  0  0  0  0  0  0  0
   24.1995  -13.7047  -19.0274 N   0  0  0  0  0  0  0  0  0  0  0  0
   21.9607  -13.7742  -18.1395 C   0  0  0  0  0  0  0  0  0  0  0  0
   22.2720  -13.1952  -17.0726 O   0  0  0  0  0  0  0  0  0  0  0  0
   20.6193  -13.6881  -18.5418 N   0  0  0  0  0  0  0  0  0  0  0  0
   19.5680  -13.0196  -17.8770 C   0  0  1  0  0  0  0  0  0  0  0  0
   19.4602  -11.5421  -18.0909 C   0  0  0  0  0  0  0  0  0  0  0  0
   18.3554  -10.9319  -17.3229 C   0  0  0  0  0  0  0  0  0  0  0  0
   18.2236   -9.4541  -17.4528 C   0  0  0  0  0  0  0  0  0  0  0  0
   17.0909   -8.9454  -17.5326 O   0  0  0  0  0  0  0  0  0  0  0  0
   18.3092  -13.7686  -17.9666 C   0  0  0  0  0  0  0  0  0  0  0  0
   17.9025  -14.1143  -19.1206 O   0  0  0  0  0  0  0  0  0  0  0  0
   19.3094   -8.6079  -17.4897 O   0  0  0  0  0  0  0  0  0  0  0  0
   17.5689  -14.0988  -16.8101 N   0  0  0  0  0  0  0  0  0  0  0  0
   16.2466  -14.8159  -16.9104 C   0  0  1  0  0  0  0  0  0  0  0  0
   15.9975  -15.5068  -15.6602 C   0  0  0  0  0  0  0  0  0  0  0  0
   14.7925  -16.3260  -15.4909 C   0  0  0  0  0  0  0  0  0  0  0  0
   14.6286  -17.1338  -14.2520 C   0  0  0  0  0  0  0  0  0  0  0  0
   13.3205  -17.9345  -14.4404 C   0  0  0  0  0  0  0  0  0  0  0  0
   13.2104  -18.8181  -13.3149 N   0  0  0  0  0  0  0  0  0  0  0  0
   15.2860  -13.9855  -17.5924 C   0  0  0  0  0  0  0  0  0  0  0  0
   15.1458  -12.7226  -17.4820 O   0  0  0  0  0  0  0  0  0  0  0  0
   14.3412  -14.5289  -18.5116 O   0  0  0  0  0  0  0  0  0  0  0  0
  1  2  1  0
  2  4  1  0
  3  2  2  0
  4  5  1  0
  6  8  1  0
  6  7  1  1
  6  5  1  0
  8  9  2  0
 10 11  1  0
 10  8  1  0
 11 16  1  0
 11 12  1  6
 13 12  1  0
 14 13  1  0
 15 14  2  0
 16 17  2  0
 16 19  1  0
 18 14  1  0
 19 20  1  0
 20 26  1  0
 20 21  1  1
 22 21  1  0
 22 23  1  0
 24 23  1  0
 25 24  1  0
 26 27  2  0
 26 28  1  0
M  END
$$$$
