QEK.pdb
     RDKit          3D

 28 27  0  0  1  0  0  0  0  0999 V2000
   24.3008  -20.4605  -10.0108 N   0  0  0  0  0  0  0  0  0  0  0  0
   25.5081  -20.8589   -9.4171 C   0  0  0  0  0  0  0  0  0  0  0  0
   25.5523  -21.3488   -8.2825 O   0  0  0  0  0  0  0  0  0  0  0  0
   26.7747  -20.6806  -10.1887 C   0  0  0  0  0  0  0  0  0  0  0  0
   26.4588  -19.9642  -11.4681 C   0  0  0  0  0  0  0  0  0  0  0  0
   25.9236  -20.8945  -12.4936 C   0  0  2  0  0  0  0  0  0  0  0  0
   26.9964  -21.7807  -12.9840 N   0  0  0  0  0  0  0  0  0  0  0  0
   25.3752  -20.1358  -13.6708 C   0  0  0  0  0  0  0  0  0  0  0  0
   26.1171  -19.4545  -14.4165 O   0  0  0  0  0  0  0  0  0  0  0  0
   24.0077  -20.1593  -13.9840 N   0  0  0  0  0  0  0  0  0  0  0  0
   23.3745  -19.5631  -15.0965 C   0  0  1  0  0  0  0  0  0  0  0  0
   24.0322  -19.7430  -16.4291 C   0  0  0  0  0  0  0  0  0  0  0  0
   24.5049  -21.1249  -16.6519 C   0  0  0  0  0  0  0  0  0  0  0  0
   25.3469  -21.3273  -17.8636 C   0  0  0  0  0  0  0  0  0  0  0  0
   25.8447  -22.4463  -18.0830 O   0  0  0  0  0  0  0  0  0  0  0  0
   21.9228  -19.7756  -15.0700 C   0  0  0  0  0  0  0  0  0  0  0  0
   21.4963  -20.9731  -15.0403 O   0  0  0  0  0  0  0  0  0  0  0  0
   25.6068  -20.3224  -18.7685 O   0  0  0  0  0  0  0  0  0  0  0  0
   21.0226  -18.6874  -15.0761 N   0  0  0  0  0  0  0  0  0  0  0  0
   19.5322  -18.9096  -15.0276 C   0  0  1  0  0  0  0  0  0  0  0  0
   19.0889  -19.3687  -16.3296 C   0  0  0  0  0  0  0  0  0  0  0  0
   18.0547  -18.6327  -17.0648 C   0  0  0  0  0  0  0  0  0  0  0  0
   17.5712  -19.1623  -18.3687 C   0  0  0  0  0  0  0  0  0  0  0  0
   16.4880  -18.1713  -18.8510 C   0  0  0  0  0  0  0  0  0  0  0  0
   15.9705  -18.6919  -20.0842 N   0  0  0  0  0  0  0  0  0  0  0  0
   19.1656  -19.5216  -13.7753 C   0  0  0  0  0  0  0  0  0  0  0  0
   19.6070  -20.6187  -13.2973 O   0  0  0  0  0  0  0  0  0  0  0  0
   18.2150  -18.9240  -12.8965 O   0  0  0  0  0  0  0  0  0  0  0  0
  1  2  1  0
  2  4  1  0
  3  2  2  0
  4  5  1  0
  6  8  1  0
  6  7  1  6
  6  5  1  0
  8  9  2  0
 10 11  1  0
 10  8  1  0
 11 16  1  0
 11 12  1  6
 13 12  1  0
 14 13  1  0
 15 14  2  0
 16 17  2  0
 16 19  1  0
 18 14  1  0
 19 20  1  0
 20 26  1  0
 20 21  1  6
 22 21  1  0
 22 23  1  0
 24 23  1  0
 25 24  1  0
 26 27  2  0
 26 28  1  0
M  END
$$$$
