KWT.pdb
     RDKit          3D

 31 32  0  0  1  0  0  0  0  0999 V2000
    5.6859  -15.4353   21.2011 N   0  0  0  0  0  0  0  0  0  0  0  0
    7.0826  -15.1959   21.0520 C   0  0  1  0  0  0  0  0  0  0  0  0
    7.4746  -14.0468   20.1981 C   0  0  0  0  0  0  0  0  0  0  0  0
    8.3169  -14.3413   19.0133 C   0  0  0  0  0  0  0  0  0  0  0  0
    7.7658  -13.8169   17.7164 C   0  0  0  0  0  0  0  0  0  0  0  0
    8.7671  -14.1209   16.6024 C   0  0  0  0  0  0  0  0  0  0  0  0
    8.1961  -13.8646   15.2951 N   0  0  0  0  0  0  0  0  0  0  0  0
    7.6846  -15.0505   22.4129 C   0  0  0  0  0  0  0  0  0  0  0  0
    7.6282  -13.9585   23.0336 O   0  0  0  0  0  0  0  0  0  0  0  0
    8.3297  -16.1629   23.0116 N   0  0  0  0  0  0  0  0  0  0  0  0
    9.2710  -16.0388   24.0847 C   0  0  1  0  0  0  0  0  0  0  0  0
    8.6494  -16.2485   25.4454 C   0  0  0  0  0  0  0  0  0  0  0  0
    7.5119  -15.3485   25.6783 C   0  0  0  0  0  0  0  0  0  0  0  0
    6.1693  -15.6388   25.5604 C   0  0  0  0  0  0  0  0  0  0  0  0
    5.4717  -14.5297   25.8647 N   0  0  0  0  0  0  0  0  0  0  0  0
    6.3067  -13.5076   26.1822 C   0  0  0  0  0  0  0  0  0  0  0  0
    6.0615  -12.1938   26.5581 C   0  0  0  0  0  0  0  0  0  0  0  0
    7.1245  -11.3785   26.8221 C   0  0  0  0  0  0  0  0  0  0  0  0
    8.4217  -11.8431   26.7197 C   0  0  0  0  0  0  0  0  0  0  0  0
    8.6238  -13.1514   26.3443 C   0  0  0  0  0  0  0  0  0  0  0  0
    7.5773  -14.0202   26.0653 C   0  0  0  0  0  0  0  0  0  0  0  0
   10.4582  -16.9151   23.8853 C   0  0  0  0  0  0  0  0  0  0  0  0
   10.3954  -18.1780   24.0496 O   0  0  0  0  0  0  0  0  0  0  0  0
   12.9210  -16.5826   20.8303 C   0  0  0  0  0  0  0  0  0  0  0  0
   13.7033  -16.7745   22.0955 C   0  0  1  0  0  0  0  0  0  0  0  0
   14.3167  -15.5814   22.4144 O   0  0  0  0  0  0  0  0  0  0  0  0
   12.8794  -17.2328   23.2654 C   0  0  2  0  0  0  0  0  0  0  0  0
   11.7260  -16.4028   23.5017 N   0  0  0  0  0  0  0  0  0  0  0  0
   13.6809  -17.4584   24.4935 C   0  0  0  0  0  0  0  0  0  0  0  0
   13.4586  -16.8674   25.5837 O   0  0  0  0  0  0  0  0  0  0  0  0
   14.7472  -18.3524   24.5188 O   0  0  0  0  0  0  0  0  0  0  0  0
  2  1  1  1
  2  3  1  0
  4  3  1  0
  5  6  1  0
  5  4  1  0
  7  6  1  0
  8  2  1  0
  8  9  2  0
 10  8  1  0
 11 10  1  0
 11 12  1  1
 13 14  2  0
 13 12  1  0
 15 14  1  0
 16 21  2  0
 16 15  1  0
 17 16  1  0
 18 19  1  0
 18 17  2  0
 19 20  2  0
 20 21  1  0
 21 13  1  0
 22 11  1  0
 23 22  2  0
 25 24  1  6
 26 25  1  0
 27 25  1  0
 27 28  1  1
 28 22  1  0
 29 27  1  0
 30 29  2  0
 31 29  1  0
M  END
$$$$
