KWT.pdb
     RDKit          3D

 31 32  0  0  1  0  0  0  0  0999 V2000
    6.8822  -16.2548   21.1144 N   0  0  0  0  0  0  0  0  0  0  0  0
    7.8744  -15.2468   20.9423 C   0  0  1  0  0  0  0  0  0  0  0  0
    7.3898  -13.8851   20.6043 C   0  0  0  0  0  0  0  0  0  0  0  0
    6.9292  -13.6576   19.2129 C   0  0  0  0  0  0  0  0  0  0  0  0
    8.0379  -13.4241   18.2245 C   0  0  0  0  0  0  0  0  0  0  0  0
    7.4268  -13.2805   16.8309 C   0  0  0  0  0  0  0  0  0  0  0  0
    8.4498  -13.2748   15.8040 N   0  0  0  0  0  0  0  0  0  0  0  0
    8.7168  -15.1979   22.1766 C   0  0  0  0  0  0  0  0  0  0  0  0
    9.6104  -14.3247   22.3177 O   0  0  0  0  0  0  0  0  0  0  0  0
    8.5035  -16.1528   23.2037 N   0  0  0  0  0  0  0  0  0  0  0  0
    9.3333  -16.2503   24.3678 C   0  0  1  0  0  0  0  0  0  0  0  0
    8.5438  -16.3867   25.6484 C   0  0  0  0  0  0  0  0  0  0  0  0
    7.4517  -15.4077   25.7315 C   0  0  0  0  0  0  0  0  0  0  0  0
    6.1101  -15.6193   25.4950 C   0  0  0  0  0  0  0  0  0  0  0  0
    5.4619  -14.4557   25.6836 N   0  0  0  0  0  0  0  0  0  0  0  0
    6.3291  -13.4736   26.0386 C   0  0  0  0  0  0  0  0  0  0  0  0
    6.1371  -12.1307   26.3340 C   0  0  0  0  0  0  0  0  0  0  0  0
    7.2220  -11.3713   26.6666 C   0  0  0  0  0  0  0  0  0  0  0  0
    8.4893  -11.9200   26.7108 C   0  0  0  0  0  0  0  0  0  0  0  0
    8.6388  -13.2547   26.4115 C   0  0  0  0  0  0  0  0  0  0  0  0
    7.5681  -14.0691   26.0678 C   0  0  0  0  0  0  0  0  0  0  0  0
   10.3503  -17.3298   24.2351 C   0  0  0  0  0  0  0  0  0  0  0  0
   10.0342  -18.5627   24.3114 O   0  0  0  0  0  0  0  0  0  0  0  0
   15.0387  -18.6602   23.0711 C   0  0  0  0  0  0  0  0  0  0  0  0
   13.9933  -17.5992   23.2473 C   0  0  1  0  0  0  0  0  0  0  0  0
   13.6837  -17.0816   22.0074 O   0  0  0  0  0  0  0  0  0  0  0  0
   12.7330  -18.0805   23.9087 C   0  0  2  0  0  0  0  0  0  0  0  0
   11.7265  -17.0556   24.0165 N   0  0  0  0  0  0  0  0  0  0  0  0
   12.9766  -18.7780   25.1954 C   0  0  0  0  0  0  0  0  0  0  0  0
   12.7851  -18.2433   26.3200 O   0  0  0  0  0  0  0  0  0  0  0  0
   13.4402  -20.0895   25.2419 O   0  0  0  0  0  0  0  0  0  0  0  0
  2  1  1  1
  2  3  1  0
  4  3  1  0
  5  6  1  0
  5  4  1  0
  7  6  1  0
  8  2  1  0
  8  9  2  0
 10  8  1  0
 11 10  1  0
 11 12  1  1
 13 14  2  0
 13 12  1  0
 15 14  1  0
 16 21  2  0
 16 15  1  0
 17 16  1  0
 18 19  1  0
 18 17  2  0
 19 20  2  0
 20 21  1  0
 21 13  1  0
 22 11  1  0
 23 22  2  0
 25 24  1  6
 26 25  1  0
 27 25  1  0
 27 28  1  1
 28 22  1  0
 29 27  1  0
 30 29  2  0
 31 29  1  0
M  END
$$$$
