KWT.pdb
     RDKit          3D

 31 32  0  0  1  0  0  0  0  0999 V2000
    7.4235  -16.3897   21.1703 N   0  0  0  0  0  0  0  0  0  0  0  0
    8.3645  -15.3225   21.2470 C   0  0  1  0  0  0  0  0  0  0  0  0
    7.8524  -13.9601   20.9558 C   0  0  0  0  0  0  0  0  0  0  0  0
    7.2922  -13.7234   19.6030 C   0  0  0  0  0  0  0  0  0  0  0  0
    8.3272  -13.5169   18.5320 C   0  0  0  0  0  0  0  0  0  0  0  0
    7.6231  -13.4668   17.1764 C   0  0  0  0  0  0  0  0  0  0  0  0
    8.5779  -13.4557   16.0859 N   0  0  0  0  0  0  0  0  0  0  0  0
    9.0015  -15.3511   22.5994 C   0  0  0  0  0  0  0  0  0  0  0  0
    9.8319  -14.4720   22.9437 O   0  0  0  0  0  0  0  0  0  0  0  0
    8.6630  -16.3872   23.5070 N   0  0  0  0  0  0  0  0  0  0  0  0
    9.2879  -16.5431   24.7870 C   0  0  1  0  0  0  0  0  0  0  0  0
    8.3030  -16.5335   25.9323 C   0  0  0  0  0  0  0  0  0  0  0  0
    7.3281  -15.4410   25.8139 C   0  0  0  0  0  0  0  0  0  0  0  0
    6.0352  -15.5125   25.3406 C   0  0  0  0  0  0  0  0  0  0  0  0
    5.4958  -14.2818   25.4052 N   0  0  0  0  0  0  0  0  0  0  0  0
    6.3884  -13.3907   25.9069 C   0  0  0  0  0  0  0  0  0  0  0  0
    6.2959  -12.0284   26.1581 C   0  0  0  0  0  0  0  0  0  0  0  0
    7.3808  -11.3826   26.6779 C   0  0  0  0  0  0  0  0  0  0  0  0
    8.5517  -12.0633   26.9514 C   0  0  0  0  0  0  0  0  0  0  0  0
    8.6044  -13.4130   26.6887 C   0  0  0  0  0  0  0  0  0  0  0  0
    7.5292  -14.1152   26.1608 C   0  0  0  0  0  0  0  0  0  0  0  0
   10.1672  -17.7439   24.8323 C   0  0  0  0  0  0  0  0  0  0  0  0
    9.7293  -18.9075   24.5493 O   0  0  0  0  0  0  0  0  0  0  0  0
   14.6890  -19.7913   25.2179 C   0  0  0  0  0  0  0  0  0  0  0  0
   13.8208  -18.5719   25.1235 C   0  0  1  0  0  0  0  0  0  0  0  0
   13.9471  -18.0435   23.8562 O   0  0  0  0  0  0  0  0  0  0  0  0
   12.3678  -18.8271   25.4081 C   0  0  2  0  0  0  0  0  0  0  0  0
   11.5393  -17.6688   25.1909 N   0  0  0  0  0  0  0  0  0  0  0  0
   12.1320  -19.4570   26.7306 C   0  0  0  0  0  0  0  0  0  0  0  0
   11.6562  -18.8363   27.7183 O   0  0  0  0  0  0  0  0  0  0  0  0
   12.4268  -20.7964   26.9674 O   0  0  0  0  0  0  0  0  0  0  0  0
  2  1  1  1
  2  3  1  0
  4  3  1  0
  5  6  1  0
  5  4  1  0
  7  6  1  0
  8  2  1  0
  8  9  2  0
 10  8  1  0
 11 10  1  0
 11 12  1  1
 13 14  2  0
 13 12  1  0
 15 14  1  0
 16 21  2  0
 16 15  1  0
 17 16  1  0
 18 19  1  0
 18 17  2  0
 19 20  2  0
 20 21  1  0
 21 13  1  0
 22 11  1  0
 23 22  2  0
 25 24  1  6
 26 25  1  0
 27 25  1  0
 27 28  1  1
 28 22  1  0
 29 27  1  0
 30 29  2  0
 31 29  1  0
M  END
$$$$
