KWT.pdb
     RDKit          3D

 31 32  0  0  1  0  0  0  0  0999 V2000
    6.1000  -15.5003   21.0219 N   0  0  0  0  0  0  0  0  0  0  0  0
    7.5066  -15.3252   20.8776 C   0  0  1  0  0  0  0  0  0  0  0  0
    7.9537  -14.2672   19.9373 C   0  0  0  0  0  0  0  0  0  0  0  0
    8.0811  -14.6428   18.5081 C   0  0  0  0  0  0  0  0  0  0  0  0
    7.9594  -13.4889   17.5518 C   0  0  0  0  0  0  0  0  0  0  0  0
    8.1837  -14.0067   16.1314 C   0  0  0  0  0  0  0  0  0  0  0  0
    8.0367  -12.9467   15.1538 N   0  0  0  0  0  0  0  0  0  0  0  0
    8.0942  -15.0874   22.2317 C   0  0  0  0  0  0  0  0  0  0  0  0
    8.3504  -13.9234   22.6321 O   0  0  0  0  0  0  0  0  0  0  0  0
    8.3667  -16.1937   23.0767 N   0  0  0  0  0  0  0  0  0  0  0  0
    9.3125  -16.1442   24.1520 C   0  0  1  0  0  0  0  0  0  0  0  0
    8.6715  -16.2893   25.5121 C   0  0  0  0  0  0  0  0  0  0  0  0
    7.5294  -15.3817   25.6847 C   0  0  0  0  0  0  0  0  0  0  0  0
    6.1897  -15.6770   25.5482 C   0  0  0  0  0  0  0  0  0  0  0  0
    5.4858  -14.5573   25.7940 N   0  0  0  0  0  0  0  0  0  0  0  0
    6.3139  -13.5233   26.0903 C   0  0  0  0  0  0  0  0  0  0  0  0
    6.0609  -12.1961   26.4098 C   0  0  0  0  0  0  0  0  0  0  0  0
    7.1179  -11.3707   26.6657 C   0  0  0  0  0  0  0  0  0  0  0  0
    8.4169  -11.8382   26.6101 C   0  0  0  0  0  0  0  0  0  0  0  0
    8.6269  -13.1599   26.2901 C   0  0  0  0  0  0  0  0  0  0  0  0
    7.5866  -14.0394   26.0216 C   0  0  0  0  0  0  0  0  0  0  0  0
   10.4195  -17.1219   23.9624 C   0  0  0  0  0  0  0  0  0  0  0  0
   10.5187  -17.8265   22.9043 O   0  0  0  0  0  0  0  0  0  0  0  0
   12.6068  -17.0813   22.3734 C   0  0  0  0  0  0  0  0  0  0  0  0
   13.4353  -17.5237   23.5429 C   0  0  1  0  0  0  0  0  0  0  0  0
   14.1793  -16.4490   23.9818 O   0  0  0  0  0  0  0  0  0  0  0  0
   12.6363  -18.0714   24.6914 C   0  0  2  0  0  0  0  0  0  0  0  0
   11.4273  -17.3292   24.9413 N   0  0  0  0  0  0  0  0  0  0  0  0
   13.4426  -18.2783   25.9196 C   0  0  0  0  0  0  0  0  0  0  0  0
   13.3050  -17.5858   26.9630 O   0  0  0  0  0  0  0  0  0  0  0  0
   14.4186  -19.2673   25.9977 O   0  0  0  0  0  0  0  0  0  0  0  0
  2  1  1  1
  2  3  1  0
  4  3  1  0
  5  6  1  0
  5  4  1  0
  7  6  1  0
  8  2  1  0
  8  9  2  0
 10  8  1  0
 11 10  1  0
 11 12  1  1
 13 14  2  0
 13 12  1  0
 15 14  1  0
 16 21  2  0
 16 15  1  0
 17 16  1  0
 18 19  1  0
 18 17  2  0
 19 20  2  0
 20 21  1  0
 21 13  1  0
 22 11  1  0
 23 22  2  0
 25 24  1  6
 26 25  1  0
 27 25  1  0
 27 28  1  1
 28 22  1  0
 29 27  1  0
 30 29  2  0
 31 29  1  0
M  END
$$$$
