KWT.pdb
     RDKit          3D

 31 32  0  0  1  0  0  0  0  0999 V2000
    8.2000  -16.7084   18.7204 N   0  0  0  0  0  0  0  0  0  0  0  0
    9.0905  -15.6166   18.9333 C   0  0  1  0  0  0  0  0  0  0  0  0
    8.7811  -14.3544   18.2161 C   0  0  0  0  0  0  0  0  0  0  0  0
    8.4715  -14.4575   16.7692 C   0  0  0  0  0  0  0  0  0  0  0  0
    8.2061  -13.1387   16.0977 C   0  0  0  0  0  0  0  0  0  0  0  0
    7.7541  -13.4044   14.6620 C   0  0  0  0  0  0  0  0  0  0  0  0
    7.5078  -12.1670   13.9486 N   0  0  0  0  0  0  0  0  0  0  0  0
    9.1804  -15.3604   20.4036 C   0  0  0  0  0  0  0  0  0  0  0  0
   10.0134  -14.5420   20.8695 O   0  0  0  0  0  0  0  0  0  0  0  0
    8.3116  -16.0528   21.2856 N   0  0  0  0  0  0  0  0  0  0  0  0
    8.2861  -15.8246   22.7000 C   0  0  1  0  0  0  0  0  0  0  0  0
    6.8936  -15.5928   23.2377 C   0  0  0  0  0  0  0  0  0  0  0  0
    6.9051  -15.2125   24.6566 C   0  0  0  0  0  0  0  0  0  0  0  0
    6.6917  -16.0257   25.7492 C   0  0  0  0  0  0  0  0  0  0  0  0
    6.7921  -15.2725   26.8592 N   0  0  0  0  0  0  0  0  0  0  0  0
    7.0659  -13.9814   26.5418 C   0  0  0  0  0  0  0  0  0  0  0  0
    7.2569  -12.8543   27.3297 C   0  0  0  0  0  0  0  0  0  0  0  0
    7.5247  -11.6640   26.7167 C   0  0  0  0  0  0  0  0  0  0  0  0
    7.6059  -11.5736   25.3404 C   0  0  0  0  0  0  0  0  0  0  0  0
    7.4106  -12.7129   24.5939 C   0  0  0  0  0  0  0  0  0  0  0  0
    7.1359  -13.9465   25.1690 C   0  0  0  0  0  0  0  0  0  0  0  0
    8.9885  -16.9033   23.4485 C   0  0  0  0  0  0  0  0  0  0  0  0
    8.5649  -18.1059   23.4479 O   0  0  0  0  0  0  0  0  0  0  0  0
   12.3106  -18.1655   22.8331 C   0  0  0  0  0  0  0  0  0  0  0  0
   12.2846  -17.8976   24.3086 C   0  0  1  0  0  0  0  0  0  0  0  0
   13.0423  -16.7737   24.5614 O   0  0  0  0  0  0  0  0  0  0  0  0
   10.9067  -17.7001   24.8743 C   0  0  2  0  0  0  0  0  0  0  0  0
   10.1663  -16.6618   24.2044 N   0  0  0  0  0  0  0  0  0  0  0  0
   10.8960  -17.5467   26.3500 C   0  0  0  0  0  0  0  0  0  0  0  0
   11.3179  -18.4318   27.1412 O   0  0  0  0  0  0  0  0  0  0  0  0
   10.4109  -16.3957   26.9638 O   0  0  0  0  0  0  0  0  0  0  0  0
  2  1  1  1
  2  3  1  0
  4  3  1  0
  5  6  1  0
  5  4  1  0
  7  6  1  0
  8  2  1  0
  8  9  2  0
 10  8  1  0
 11 10  1  0
 11 12  1  1
 13 14  2  0
 13 12  1  0
 15 14  1  0
 16 21  2  0
 16 15  1  0
 17 16  1  0
 18 19  1  0
 18 17  2  0
 19 20  2  0
 20 21  1  0
 21 13  1  0
 22 11  1  0
 23 22  2  0
 25 24  1  6
 26 25  1  0
 27 25  1  0
 27 28  1  6
 28 22  1  0
 29 27  1  0
 30 29  2  0
 31 29  1  0
M  END
$$$$
