KWT.pdb
     RDKit          3D

 31 32  0  0  1  0  0  0  0  0999 V2000
    7.3584  -17.6211   21.2495 N   0  0  0  0  0  0  0  0  0  0  0  0
    8.6103  -16.9773   21.0294 C   0  0  1  0  0  0  0  0  0  0  0  0
    8.6059  -15.8049   20.1191 C   0  0  0  0  0  0  0  0  0  0  0  0
    8.2574  -16.0530   18.6989 C   0  0  0  0  0  0  0  0  0  0  0  0
    8.2897  -14.8261   17.8303 C   0  0  0  0  0  0  0  0  0  0  0  0
    7.9311  -15.2309   16.4008 C   0  0  0  0  0  0  0  0  0  0  0  0
    7.9947  -14.0974   15.4995 N   0  0  0  0  0  0  0  0  0  0  0  0
    9.1831  -16.5926   22.3558 C   0  0  0  0  0  0  0  0  0  0  0  0
   10.0284  -15.6670   22.4533 O   0  0  0  0  0  0  0  0  0  0  0  0
    8.7656  -17.2842   23.5218 N   0  0  0  0  0  0  0  0  0  0  0  0
    9.3231  -17.0410   24.8191 C   0  0  1  0  0  0  0  0  0  0  0  0
    8.2748  -16.7805   25.8751 C   0  0  0  0  0  0  0  0  0  0  0  0
    7.3409  -15.7188   25.4770 C   0  0  0  0  0  0  0  0  0  0  0  0
    6.1956  -15.8437   24.7198 C   0  0  0  0  0  0  0  0  0  0  0  0
    5.6405  -14.6249   24.5937 N   0  0  0  0  0  0  0  0  0  0  0  0
    6.3797  -13.6897   25.2433 C   0  0  0  0  0  0  0  0  0  0  0  0
    6.2137  -12.3198   25.3958 C   0  0  0  0  0  0  0  0  0  0  0  0
    7.1387  -11.6242   26.1202 C   0  0  0  0  0  0  0  0  0  0  0  0
    8.2216  -12.2627   26.6935 C   0  0  0  0  0  0  0  0  0  0  0  0
    8.3514  -13.6215   26.5199 C   0  0  0  0  0  0  0  0  0  0  0  0
    7.4385  -14.3737   25.7928 C   0  0  0  0  0  0  0  0  0  0  0  0
   10.2583  -18.1233   25.2327 C   0  0  0  0  0  0  0  0  0  0  0  0
    9.8366  -19.2568   25.6363 O   0  0  0  0  0  0  0  0  0  0  0  0
   14.1748  -18.5342   23.8499 C   0  0  0  0  0  0  0  0  0  0  0  0
   14.0086  -18.6934   25.3320 C   0  0  1  0  0  0  0  0  0  0  0  0
   14.5040  -17.5648   25.9502 O   0  0  0  0  0  0  0  0  0  0  0  0
   12.5890  -18.9132   25.7723 C   0  0  2  0  0  0  0  0  0  0  0  0
   11.6690  -17.9619   25.2034 N   0  0  0  0  0  0  0  0  0  0  0  0
   12.4448  -19.0360   27.2439 C   0  0  0  0  0  0  0  0  0  0  0  0
   11.7567  -18.2435   27.9407 O   0  0  0  0  0  0  0  0  0  0  0  0
   13.0715  -20.0520   27.9595 O   0  0  0  0  0  0  0  0  0  0  0  0
  2  1  1  1
  2  3  1  0
  4  3  1  0
  5  6  1  0
  5  4  1  0
  7  6  1  0
  8  2  1  0
  8  9  2  0
 10  8  1  0
 11 10  1  0
 11 12  1  1
 13 14  2  0
 13 12  1  0
 15 14  1  0
 16 21  2  0
 16 15  1  0
 17 16  1  0
 18 19  1  0
 18 17  2  0
 19 20  2  0
 20 21  1  0
 21 13  1  0
 22 11  1  0
 23 22  2  0
 25 24  1  6
 26 25  1  0
 27 25  1  0
 27 28  1  1
 28 22  1  0
 29 27  1  0
 30 29  2  0
 31 29  1  0
M  END
$$$$
