KWT.pdb
     RDKit          3D

 31 32  0  0  1  0  0  0  0  0999 V2000
    9.9784  -16.0086   18.2999 N   0  0  0  0  0  0  0  0  0  0  0  0
    8.8707  -16.4025   19.1048 C   0  0  1  0  0  0  0  0  0  0  0  0
    8.4132  -17.8079   18.9675 C   0  0  0  0  0  0  0  0  0  0  0  0
    9.4420  -18.8689   19.0930 C   0  0  0  0  0  0  0  0  0  0  0  0
    8.9203  -20.2641   18.8878 C   0  0  0  0  0  0  0  0  0  0  0  0
   10.0774  -21.2477   19.0590 C   0  0  0  0  0  0  0  0  0  0  0  0
    9.8463  -22.1459   20.1729 N   0  0  0  0  0  0  0  0  0  0  0  0
    9.1972  -16.1084   20.5339 C   0  0  0  0  0  0  0  0  0  0  0  0
   10.3883  -16.0888   20.9361 O   0  0  0  0  0  0  0  0  0  0  0  0
    8.1454  -15.8480   21.4493 N   0  0  0  0  0  0  0  0  0  0  0  0
    8.3692  -15.4596   22.8103 C   0  0  1  0  0  0  0  0  0  0  0  0
    7.1501  -14.8487   23.4602 C   0  0  0  0  0  0  0  0  0  0  0  0
    7.3968  -14.4788   24.8604 C   0  0  0  0  0  0  0  0  0  0  0  0
    7.9578  -15.2560   25.8514 C   0  0  0  0  0  0  0  0  0  0  0  0
    7.9978  -14.5293   26.9827 N   0  0  0  0  0  0  0  0  0  0  0  0
    7.4809  -13.2909   26.7780 C   0  0  0  0  0  0  0  0  0  0  0  0
    7.3112  -12.2060   27.6275 C   0  0  0  0  0  0  0  0  0  0  0  0
    6.7507  -11.0650   27.1292 C   0  0  0  0  0  0  0  0  0  0  0  0
    6.3573  -10.9827   25.8073 C   0  0  0  0  0  0  0  0  0  0  0  0
    6.5421  -12.0792   24.9968 C   0  0  0  0  0  0  0  0  0  0  0  0
    7.1072  -13.2619   25.4550 C   0  0  0  0  0  0  0  0  0  0  0  0
    8.9187  -16.5795   23.6234 C   0  0  0  0  0  0  0  0  0  0  0  0
    8.2345  -17.6259   23.8736 O   0  0  0  0  0  0  0  0  0  0  0  0
   12.2203  -18.4385   22.9969 C   0  0  0  0  0  0  0  0  0  0  0  0
   12.1684  -18.0340   24.4403 C   0  0  1  0  0  0  0  0  0  0  0  0
   13.0350  -16.9782   24.6288 O   0  0  0  0  0  0  0  0  0  0  0  0
   10.8003  -17.6400   24.9205 C   0  0  2  0  0  0  0  0  0  0  0  0
   10.2304  -16.5524   24.1672 N   0  0  0  0  0  0  0  0  0  0  0  0
   10.7366  -17.4139   26.3855 C   0  0  0  0  0  0  0  0  0  0  0  0
   10.3104  -16.3476   26.9037 O   0  0  0  0  0  0  0  0  0  0  0  0
   11.1509  -18.3823   27.2952 O   0  0  0  0  0  0  0  0  0  0  0  0
  2  1  1  6
  2  3  1  0
  4  3  1  0
  5  6  1  0
  5  4  1  0
  7  6  1  0
  8  2  1  0
  8  9  2  0
 10  8  1  0
 11 10  1  0
 11 12  1  1
 13 14  2  0
 13 12  1  0
 15 14  1  0
 16 21  2  0
 16 15  1  0
 17 16  1  0
 18 19  1  0
 18 17  2  0
 19 20  2  0
 20 21  1  0
 21 13  1  0
 22 11  1  0
 23 22  2  0
 25 24  1  6
 26 25  1  0
 27 25  1  0
 27 28  1  6
 28 22  1  0
 29 27  1  0
 30 29  2  0
 31 29  1  0
M  END
$$$$
