KWT.pdb
     RDKit          3D

 31 32  0  0  1  0  0  0  0  0999 V2000
    8.8095  -16.3360   18.5748 N   0  0  0  0  0  0  0  0  0  0  0  0
    9.5032  -17.1333   19.5306 C   0  0  1  0  0  0  0  0  0  0  0  0
   10.9022  -17.5034   19.2002 C   0  0  0  0  0  0  0  0  0  0  0  0
   11.1186  -18.8221   18.5567 C   0  0  0  0  0  0  0  0  0  0  0  0
   12.5574  -19.1321   18.2495 C   0  0  0  0  0  0  0  0  0  0  0  0
   12.6329  -20.5217   17.6176 C   0  0  0  0  0  0  0  0  0  0  0  0
   12.6438  -21.5610   18.6279 N   0  0  0  0  0  0  0  0  0  0  0  0
    9.4576  -16.4337   20.8512 C   0  0  0  0  0  0  0  0  0  0  0  0
   10.1431  -15.4010   21.0619 O   0  0  0  0  0  0  0  0  0  0  0  0
    8.6277  -16.9448   21.8818 N   0  0  0  0  0  0  0  0  0  0  0  0
    8.5261  -16.3418   23.1776 C   0  0  1  0  0  0  0  0  0  0  0  0
    7.1242  -15.8896   23.5124 C   0  0  0  0  0  0  0  0  0  0  0  0
    7.0472  -15.2642   24.8395 C   0  0  0  0  0  0  0  0  0  0  0  0
    6.7914  -15.8781   26.0471 C   0  0  0  0  0  0  0  0  0  0  0  0
    6.8118  -14.9377   27.0088 N   0  0  0  0  0  0  0  0  0  0  0  0
    7.0732  -13.7148   26.4808 C   0  0  0  0  0  0  0  0  0  0  0  0
    7.1936  -12.4606   27.0639 C   0  0  0  0  0  0  0  0  0  0  0  0
    7.4681  -11.3892   26.2632 C   0  0  0  0  0  0  0  0  0  0  0  0
    7.6244  -11.5409   24.8988 C   0  0  0  0  0  0  0  0  0  0  0  0
    7.4977  -12.8000   24.3583 C   0  0  0  0  0  0  0  0  0  0  0  0
    7.2195  -13.9208   25.1292 C   0  0  0  0  0  0  0  0  0  0  0  0
    9.0866  -17.2184   24.2428 C   0  0  0  0  0  0  0  0  0  0  0  0
    8.6491  -18.3999   24.4388 O   0  0  0  0  0  0  0  0  0  0  0  0
   12.5435  -18.4493   24.5458 C   0  0  0  0  0  0  0  0  0  0  0  0
   12.2021  -17.8663   25.8849 C   0  0  1  0  0  0  0  0  0  0  0  0
   12.8665  -16.6657   26.0204 O   0  0  0  0  0  0  0  0  0  0  0  0
   10.7323  -17.6431   26.1026 C   0  0  2  0  0  0  0  0  0  0  0  0
   10.1367  -16.7964   25.1008 N   0  0  0  0  0  0  0  0  0  0  0  0
   10.4039  -17.2106   27.4834 C   0  0  0  0  0  0  0  0  0  0  0  0
    9.8047  -16.1344   27.7478 O   0  0  0  0  0  0  0  0  0  0  0  0
   10.7431  -17.9798   28.5925 O   0  0  0  0  0  0  0  0  0  0  0  0
  2  1  1  6
  2  3  1  0
  4  3  1  0
  5  6  1  0
  5  4  1  0
  7  6  1  0
  8  2  1  0
  8  9  2  0
 10  8  1  0
 11 10  1  0
 11 12  1  1
 13 14  2  0
 13 12  1  0
 15 14  1  0
 16 21  2  0
 16 15  1  0
 17 16  1  0
 18 19  1  0
 18 17  2  0
 19 20  2  0
 20 21  1  0
 21 13  1  0
 22 11  1  0
 23 22  2  0
 25 24  1  6
 26 25  1  0
 27 25  1  0
 27 28  1  6
 28 22  1  0
 29 27  1  0
 30 29  2  0
 31 29  1  0
M  END
$$$$
