KWT.pdb
     RDKit          3D

 31 32  0  0  1  0  0  0  0  0999 V2000
    8.7271  -16.8317   19.3529 N   0  0  0  0  0  0  0  0  0  0  0  0
    8.8036  -17.8096   20.3863 C   0  0  1  0  0  0  0  0  0  0  0  0
    9.7714  -18.9171   20.1856 C   0  0  0  0  0  0  0  0  0  0  0  0
   10.3840  -19.0441   18.8408 C   0  0  0  0  0  0  0  0  0  0  0  0
   10.1559  -20.3754   18.1802 C   0  0  0  0  0  0  0  0  0  0  0  0
   10.8148  -20.3550   16.8013 C   0  0  0  0  0  0  0  0  0  0  0  0
   10.6091  -21.6064   16.0994 N   0  0  0  0  0  0  0  0  0  0  0  0
    9.0867  -17.1109   21.6775 C   0  0  0  0  0  0  0  0  0  0  0  0
   10.0087  -16.2607   21.7662 O   0  0  0  0  0  0  0  0  0  0  0  0
    8.3019  -17.4135   22.8197 N   0  0  0  0  0  0  0  0  0  0  0  0
    8.4735  -16.7608   24.0838 C   0  0  1  0  0  0  0  0  0  0  0  0
    7.2031  -16.1284   24.6013 C   0  0  0  0  0  0  0  0  0  0  0  0
    7.2372  -14.6628   24.5079 C   0  0  0  0  0  0  0  0  0  0  0  0
    7.4117  -13.8940   23.3768 C   0  0  0  0  0  0  0  0  0  0  0  0
    7.3776  -12.5992   23.7399 N   0  0  0  0  0  0  0  0  0  0  0  0
    7.1857  -12.4794   25.0784 C   0  0  0  0  0  0  0  0  0  0  0  0
    7.0815  -11.3676   25.9034 C   0  0  0  0  0  0  0  0  0  0  0  0
    6.8846  -11.5601   27.2407 C   0  0  0  0  0  0  0  0  0  0  0  0
    6.7899  -12.8324   27.7712 C   0  0  0  0  0  0  0  0  0  0  0  0
    6.8983  -13.9090   26.9212 C   0  0  0  0  0  0  0  0  0  0  0  0
    7.0986  -13.7664   25.5546 C   0  0  0  0  0  0  0  0  0  0  0  0
    9.0858  -17.6649   25.0962 C   0  0  0  0  0  0  0  0  0  0  0  0
    8.4409  -18.6425   25.6003 O   0  0  0  0  0  0  0  0  0  0  0  0
   12.7856  -18.9759   24.6878 C   0  0  0  0  0  0  0  0  0  0  0  0
   12.5230  -18.6257   26.1224 C   0  0  1  0  0  0  0  0  0  0  0  0
   13.2214  -17.4761   26.4258 O   0  0  0  0  0  0  0  0  0  0  0  0
   11.0711  -18.4210   26.4505 C   0  0  2  0  0  0  0  0  0  0  0  0
   10.4174  -17.4963   25.5602 N   0  0  0  0  0  0  0  0  0  0  0  0
   10.8332  -18.1015   27.8797 C   0  0  0  0  0  0  0  0  0  0  0  0
   10.2767  -17.0404   28.2687 O   0  0  0  0  0  0  0  0  0  0  0  0
   11.2166  -18.9690   28.8983 O   0  0  0  0  0  0  0  0  0  0  0  0
  2  1  1  6
  2  3  1  0
  4  3  1  0
  5  6  1  0
  5  4  1  0
  7  6  1  0
  8  2  1  0
  8  9  2  0
 10  8  1  0
 11 10  1  0
 11 12  1  1
 13 14  2  0
 13 12  1  0
 15 14  1  0
 16 21  2  0
 16 15  1  0
 17 16  1  0
 18 19  1  0
 18 17  2  0
 19 20  2  0
 20 21  1  0
 21 13  1  0
 22 11  1  0
 23 22  2  0
 25 24  1  6
 26 25  1  0
 27 25  1  0
 27 28  1  6
 28 22  1  0
 29 27  1  0
 30 29  2  0
 31 29  1  0
M  END
$$$$
