KWT.pdb
     RDKit          3D

 31 32  0  0  1  0  0  0  0  0999 V2000
    7.0437  -14.8090   20.0908 N   0  0  0  0  0  0  0  0  0  0  0  0
    7.1910  -15.9369   20.9489 C   0  0  1  0  0  0  0  0  0  0  0  0
    7.4598  -17.2418   20.2944 C   0  0  0  0  0  0  0  0  0  0  0  0
    8.4386  -17.2502   19.1801 C   0  0  0  0  0  0  0  0  0  0  0  0
    8.5100  -18.5507   18.4289 C   0  0  0  0  0  0  0  0  0  0  0  0
    9.5176  -18.4013   17.2895 C   0  0  0  0  0  0  0  0  0  0  0  0
    9.6989  -19.6510   16.5780 N   0  0  0  0  0  0  0  0  0  0  0  0
    8.2632  -15.6346   21.9462 C   0  0  0  0  0  0  0  0  0  0  0  0
    9.2189  -14.8698   21.6591 O   0  0  0  0  0  0  0  0  0  0  0  0
    8.1998  -16.2211   23.2362 N   0  0  0  0  0  0  0  0  0  0  0  0
    9.1761  -15.9779   24.2565 C   0  0  1  0  0  0  0  0  0  0  0  0
    8.5922  -15.9880   25.6496 C   0  0  0  0  0  0  0  0  0  0  0  0
    7.4292  -15.0983   25.7682 C   0  0  0  0  0  0  0  0  0  0  0  0
    6.0987  -15.4252   25.6151 C   0  0  0  0  0  0  0  0  0  0  0  0
    5.3680  -14.3124   25.8083 N   0  0  0  0  0  0  0  0  0  0  0  0
    6.1694  -13.2524   26.0856 C   0  0  0  0  0  0  0  0  0  0  0  0
    5.8839  -11.9206   26.3543 C   0  0  0  0  0  0  0  0  0  0  0  0
    6.9190  -11.0657   26.6030 C   0  0  0  0  0  0  0  0  0  0  0  0
    8.2278  -11.5084   26.5895 C   0  0  0  0  0  0  0  0  0  0  0  0
    8.4702  -12.8356   26.3191 C   0  0  0  0  0  0  0  0  0  0  0  0
    7.4531  -13.7446   26.0601 C   0  0  0  0  0  0  0  0  0  0  0  0
   10.3379  -16.9023   24.1441 C   0  0  0  0  0  0  0  0  0  0  0  0
   10.1836  -18.1578   23.9840 O   0  0  0  0  0  0  0  0  0  0  0  0
   15.2263  -17.5528   23.4015 C   0  0  0  0  0  0  0  0  0  0  0  0
   14.0057  -16.6828   23.4539 C   0  0  1  0  0  0  0  0  0  0  0  0
   13.6627  -16.3342   22.1647 O   0  0  0  0  0  0  0  0  0  0  0  0
   12.8219  -17.3225   24.1225 C   0  0  2  0  0  0  0  0  0  0  0  0
   11.6815  -16.4466   24.2075 N   0  0  0  0  0  0  0  0  0  0  0  0
   13.1546  -17.9533   25.4237 C   0  0  0  0  0  0  0  0  0  0  0  0
   12.7332  -17.5224   26.5299 O   0  0  0  0  0  0  0  0  0  0  0  0
   13.9673  -19.0801   25.5053 O   0  0  0  0  0  0  0  0  0  0  0  0
  2  1  1  6
  2  3  1  0
  4  3  1  0
  5  6  1  0
  5  4  1  0
  7  6  1  0
  8  2  1  0
  8  9  2  0
 10  8  1  0
 11 10  1  0
 11 12  1  1
 13 14  2  0
 13 12  1  0
 15 14  1  0
 16 21  2  0
 16 15  1  0
 17 16  1  0
 18 19  1  0
 18 17  2  0
 19 20  2  0
 20 21  1  0
 21 13  1  0
 22 11  1  0
 23 22  2  0
 25 24  1  6
 26 25  1  0
 27 25  1  0
 27 28  1  1
 28 22  1  0
 29 27  1  0
 30 29  2  0
 31 29  1  0
M  END
$$$$
