KWT.pdb
     RDKit          3D

 31 32  0  0  1  0  0  0  0  0999 V2000
    8.0503  -17.2685   21.5803 N   0  0  0  0  0  0  0  0  0  0  0  0
    9.0734  -16.2822   21.6831 C   0  0  1  0  0  0  0  0  0  0  0  0
    8.7717  -14.9464   21.1103 C   0  0  0  0  0  0  0  0  0  0  0  0
    8.5584  -14.8721   19.6444 C   0  0  0  0  0  0  0  0  0  0  0  0
    8.3589  -13.4779   19.1180 C   0  0  0  0  0  0  0  0  0  0  0  0
    8.1631  -13.5514   17.6040 C   0  0  0  0  0  0  0  0  0  0  0  0
    8.0074  -12.2308   17.0271 N   0  0  0  0  0  0  0  0  0  0  0  0
    9.4558  -16.1468   23.1222 C   0  0  0  0  0  0  0  0  0  0  0  0
   10.3302  -15.3197   23.4858 O   0  0  0  0  0  0  0  0  0  0  0  0
    8.8215  -16.9655   24.0914 N   0  0  0  0  0  0  0  0  0  0  0  0
    9.1433  -16.9206   25.4870 C   0  0  1  0  0  0  0  0  0  0  0  0
    7.9434  -16.6478   26.3631 C   0  0  0  0  0  0  0  0  0  0  0  0
    7.1279  -15.5371   25.8538 C   0  0  0  0  0  0  0  0  0  0  0  0
    5.9544  -15.6136   25.1344 C   0  0  0  0  0  0  0  0  0  0  0  0
    5.5412  -14.3609   24.8706 N   0  0  0  0  0  0  0  0  0  0  0  0
    6.4025  -13.4501   25.3915 C   0  0  0  0  0  0  0  0  0  0  0  0
    6.4013  -12.0618   25.3801 C   0  0  0  0  0  0  0  0  0  0  0  0
    7.4215  -11.4005   26.0014 C   0  0  0  0  0  0  0  0  0  0  0  0
    8.4391  -12.0909   26.6314 C   0  0  0  0  0  0  0  0  0  0  0  0
    8.4050  -13.4665   26.6210 C   0  0  0  0  0  0  0  0  0  0  0  0
    7.3902  -14.1853   26.0036 C   0  0  0  0  0  0  0  0  0  0  0  0
    9.8753  -18.1403   25.9269 C   0  0  0  0  0  0  0  0  0  0  0  0
    9.2657  -19.1532   26.4046 O   0  0  0  0  0  0  0  0  0  0  0  0
   13.4645  -19.5434   24.3857 C   0  0  0  0  0  0  0  0  0  0  0  0
   13.4220  -19.4647   25.8830 C   0  0  1  0  0  0  0  0  0  0  0  0
   14.1925  -18.3945   26.2857 O   0  0  0  0  0  0  0  0  0  0  0  0
   12.0394  -19.3182   26.4528 C   0  0  2  0  0  0  0  0  0  0  0  0
   11.2887  -18.2511   25.8422 N   0  0  0  0  0  0  0  0  0  0  0  0
   12.0209  -19.2530   27.9350 C   0  0  0  0  0  0  0  0  0  0  0  0
   11.5776  -18.2652   28.5791 O   0  0  0  0  0  0  0  0  0  0  0  0
   12.5005  -20.2969   28.7205 O   0  0  0  0  0  0  0  0  0  0  0  0
  2  1  1  1
  2  3  1  0
  4  3  1  0
  5  6  1  0
  5  4  1  0
  7  6  1  0
  8  2  1  0
  8  9  2  0
 10  8  1  0
 11 10  1  0
 11 12  1  1
 13 14  2  0
 13 12  1  0
 15 14  1  0
 16 21  2  0
 16 15  1  0
 17 16  1  0
 18 19  1  0
 18 17  2  0
 19 20  2  0
 20 21  1  0
 21 13  1  0
 22 11  1  0
 23 22  2  0
 25 24  1  6
 26 25  1  0
 27 25  1  0
 27 28  1  6
 28 22  1  0
 29 27  1  0
 30 29  2  0
 31 29  1  0
M  END
$$$$
