KWT.pdb
     RDKit          3D

 31 32  0  0  1  0  0  0  0  0999 V2000
    7.1268  -16.2576   21.2206 N   0  0  0  0  0  0  0  0  0  0  0  0
    8.2206  -15.3930   20.9265 C   0  0  1  0  0  0  0  0  0  0  0  0
    7.8848  -14.0609   20.3642 C   0  0  0  0  0  0  0  0  0  0  0  0
    7.2917  -14.0309   19.0050 C   0  0  0  0  0  0  0  0  0  0  0  0
    8.2394  -13.5854   17.9261 C   0  0  0  0  0  0  0  0  0  0  0  0
    7.5402  -13.7256   16.5742 C   0  0  0  0  0  0  0  0  0  0  0  0
    8.4170  -13.3450   15.4845 N   0  0  0  0  0  0  0  0  0  0  0  0
    9.0421  -15.2327   22.1654 C   0  0  0  0  0  0  0  0  0  0  0  0
    9.9797  -14.3966   22.2180 O   0  0  0  0  0  0  0  0  0  0  0  0
    8.7583  -16.0377   23.2983 N   0  0  0  0  0  0  0  0  0  0  0  0
    9.5745  -16.0490   24.4759 C   0  0  1  0  0  0  0  0  0  0  0  0
    8.7715  -16.1338   25.7526 C   0  0  0  0  0  0  0  0  0  0  0  0
    7.5851  -15.2683   25.7179 C   0  0  0  0  0  0  0  0  0  0  0  0
    6.2816  -15.6346   25.4581 C   0  0  0  0  0  0  0  0  0  0  0  0
    5.5140  -14.5321   25.5268 N   0  0  0  0  0  0  0  0  0  0  0  0
    6.2644  -13.4407   25.8245 C   0  0  0  0  0  0  0  0  0  0  0  0
    5.9283  -12.1050   25.9989 C   0  0  0  0  0  0  0  0  0  0  0  0
    6.9182  -11.2141   26.3000 C   0  0  0  0  0  0  0  0  0  0  0  0
    8.2310  -11.6248   26.4305 C   0  0  0  0  0  0  0  0  0  0  0  0
    8.5242  -12.9571   26.2502 C   0  0  0  0  0  0  0  0  0  0  0  0
    7.5543  -13.9020   25.9431 C   0  0  0  0  0  0  0  0  0  0  0  0
   10.6196  -17.1080   24.4163 C   0  0  0  0  0  0  0  0  0  0  0  0
   10.3183  -18.3448   24.3431 O   0  0  0  0  0  0  0  0  0  0  0  0
   13.6890  -17.0843   22.0491 C   0  0  0  0  0  0  0  0  0  0  0  0
   14.1496  -17.4562   23.4272 C   0  0  1  0  0  0  0  0  0  0  0  0
   14.8635  -16.3983   23.9490 O   0  0  0  0  0  0  0  0  0  0  0  0
   13.0377  -17.8139   24.3724 C   0  0  2  0  0  0  0  0  0  0  0  0
   12.0077  -16.8088   24.4366 N   0  0  0  0  0  0  0  0  0  0  0  0
   13.5192  -18.2235   25.7147 C   0  0  0  0  0  0  0  0  0  0  0  0
   13.2462  -17.5928   26.7705 O   0  0  0  0  0  0  0  0  0  0  0  0
   14.3167  -19.3497   25.8950 O   0  0  0  0  0  0  0  0  0  0  0  0
  2  1  1  1
  2  3  1  0
  4  3  1  0
  5  6  1  0
  5  4  1  0
  7  6  1  0
  8  2  1  0
  8  9  2  0
 10  8  1  0
 11 10  1  0
 11 12  1  1
 13 14  2  0
 13 12  1  0
 15 14  1  0
 16 21  2  0
 16 15  1  0
 17 16  1  0
 18 19  1  0
 18 17  2  0
 19 20  2  0
 20 21  1  0
 21 13  1  0
 22 11  1  0
 23 22  2  0
 25 24  1  6
 26 25  1  0
 27 25  1  0
 27 28  1  1
 28 22  1  0
 29 27  1  0
 30 29  2  0
 31 29  1  0
M  END
$$$$
