KLQ.pdb
     RDKit          3D

 27 26  0  0  1  0  0  0  0  0999 V2000
    7.4159  -14.8391   20.2264 N   0  0  0  0  0  0  0  0  0  0  0  0
    6.8841  -15.3876   21.4499 C   0  0  1  0  0  0  0  0  0  0  0  0
    6.7932  -16.8704   21.3968 C   0  0  0  0  0  0  0  0  0  0  0  0
    6.3936  -17.4566   20.0860 C   0  0  0  0  0  0  0  0  0  0  0  0
    6.2499  -18.9465   20.0545 C   0  0  0  0  0  0  0  0  0  0  0  0
    5.8633  -19.3741   18.6337 C   0  0  0  0  0  0  0  0  0  0  0  0
    5.7087  -20.8070   18.5552 N   0  0  0  0  0  0  0  0  0  0  0  0
    7.7786  -14.9966   22.5832 C   0  0  0  0  0  0  0  0  0  0  0  0
    9.0098  -14.9631   22.3757 O   0  0  0  0  0  0  0  0  0  0  0  0
    5.9102  -11.8430   26.8795 C   0  0  0  0  0  0  0  0  0  0  0  0
    6.8347  -12.2974   25.7400 C   0  0  1  0  0  0  0  0  0  0  0  0
    7.9390  -11.3013   25.6583 C   0  0  0  0  0  0  0  0  0  0  0  0
    7.2693  -13.6817   26.0799 C   0  0  0  0  0  0  0  0  0  0  0  0
    8.0879  -14.3489   24.9971 C   0  0  2  0  0  0  0  0  0  0  0  0
    7.2385  -14.6699   23.8694 N   0  0  0  0  0  0  0  0  0  0  0  0
    8.5707  -15.6349   25.5795 C   0  0  0  0  0  0  0  0  0  0  0  0
    7.7221  -16.5270   25.8240 O   0  0  0  0  0  0  0  0  0  0  0  0
   13.4727  -16.9507   23.5194 N   0  0  0  0  0  0  0  0  0  0  0  0
   12.3116  -17.6725   23.1683 C   0  0  0  0  0  0  0  0  0  0  0  0
   12.1393  -17.9935   21.9454 O   0  0  0  0  0  0  0  0  0  0  0  0
   11.3095  -18.0694   24.1470 C   0  0  0  0  0  0  0  0  0  0  0  0
   11.4926  -17.6175   25.5384 C   0  0  0  0  0  0  0  0  0  0  0  0
   10.2932  -17.2352   26.3398 C   0  0  2  0  0  0  0  0  0  0  0  0
    9.9148  -15.8932   25.8647 N   0  0  0  0  0  0  0  0  0  0  0  0
   10.5222  -17.2234   27.7744 C   0  0  0  0  0  0  0  0  0  0  0  0
   10.4337  -16.1668   28.4912 O   0  0  0  0  0  0  0  0  0  0  0  0
   10.8496  -18.3708   28.4906 O   0  0  0  0  0  0  0  0  0  0  0  0
  2  3  1  0
  2  1  1  6
  4  5  1  0
  4  3  1  0
  5  6  1  0
  6  7  1  0
  8  2  1  0
  9  8  2  0
 11 10  1  1
 12 11  1  0
 13 11  1  0
 14 13  1  1
 14 15  1  0
 15  8  1  0
 16 17  2  0
 16 14  1  0
 18 19  1  0
 19 20  2  0
 21 22  1  0
 21 19  1  0
 23 22  1  6
 23 24  1  0
 24 16  1  0
 25 23  1  0
 26 25  2  0
 27 25  1  0
M  END
$$$$
