KLQ.pdb
     RDKit          3D

 27 26  0  0  1  0  0  0  0  0999 V2000
    6.8958  -15.7668   21.2428 N   0  0  0  0  0  0  0  0  0  0  0  0
    8.2154  -15.1992   21.1119 C   0  0  1  0  0  0  0  0  0  0  0  0
    8.1934  -13.9186   20.3575 C   0  0  0  0  0  0  0  0  0  0  0  0
    7.6264  -13.9781   18.9803 C   0  0  0  0  0  0  0  0  0  0  0  0
    8.4951  -13.4265   17.8928 C   0  0  0  0  0  0  0  0  0  0  0  0
    7.7164  -13.4662   16.5726 C   0  0  0  0  0  0  0  0  0  0  0  0
    8.5350  -12.9937   15.4818 N   0  0  0  0  0  0  0  0  0  0  0  0
    8.7706  -14.9481   22.4779 C   0  0  0  0  0  0  0  0  0  0  0  0
    9.9756  -14.6340   22.5741 O   0  0  0  0  0  0  0  0  0  0  0  0
    5.6353  -12.7020   26.4565 C   0  0  0  0  0  0  0  0  0  0  0  0
    6.8479  -12.9550   25.5483 C   0  0  1  0  0  0  0  0  0  0  0  0
    7.8297  -11.8707   25.8290 C   0  0  0  0  0  0  0  0  0  0  0  0
    7.3302  -14.3287   25.8661 C   0  0  0  0  0  0  0  0  0  0  0  0
    8.4536  -14.8045   24.9722 C   0  0  2  0  0  0  0  0  0  0  0  0
    7.9438  -15.0647   23.6423 N   0  0  0  0  0  0  0  0  0  0  0  0
    8.9112  -16.1049   25.5429 C   0  0  0  0  0  0  0  0  0  0  0  0
    8.2088  -17.1229   25.3286 O   0  0  0  0  0  0  0  0  0  0  0  0
   14.0429  -19.5084   26.6447 N   0  0  0  0  0  0  0  0  0  0  0  0
   12.9835  -20.1118   25.9334 C   0  0  0  0  0  0  0  0  0  0  0  0
   13.1150  -21.3230   25.5542 O   0  0  0  0  0  0  0  0  0  0  0  0
   11.7471  -19.4085   25.6231 C   0  0  0  0  0  0  0  0  0  0  0  0
   11.6320  -18.0020   26.0501 C   0  0  0  0  0  0  0  0  0  0  0  0
   10.4289  -17.5758   26.8233 C   0  0  2  0  0  0  0  0  0  0  0  0
   10.0778  -16.2439   26.3009 N   0  0  0  0  0  0  0  0  0  0  0  0
   10.6402  -17.5215   28.2597 C   0  0  0  0  0  0  0  0  0  0  0  0
   10.8261  -16.4300   28.9016 O   0  0  0  0  0  0  0  0  0  0  0  0
   10.6481  -18.6603   29.0596 O   0  0  0  0  0  0  0  0  0  0  0  0
  2  3  1  0
  2  1  1  1
  4  5  1  0
  4  3  1  0
  5  6  1  0
  6  7  1  0
  8  2  1  0
  9  8  2  0
 11 10  1  1
 12 11  1  0
 13 11  1  0
 14 13  1  1
 14 15  1  0
 15  8  1  0
 16 17  2  0
 16 14  1  0
 18 19  1  0
 19 20  2  0
 21 22  1  0
 21 19  1  0
 23 22  1  6
 23 24  1  0
 24 16  1  0
 25 23  1  0
 26 25  2  0
 27 25  1  0
M  END
$$$$
