KLQ.pdb
     RDKit          3D

 27 26  0  0  1  0  0  0  0  0999 V2000
    7.1725  -15.7997   21.7259 N   0  0  0  0  0  0  0  0  0  0  0  0
    8.4351  -15.1172   21.5827 C   0  0  1  0  0  0  0  0  0  0  0  0
    8.3397  -13.9710   20.6410 C   0  0  0  0  0  0  0  0  0  0  0  0
    7.7968  -14.2778   19.2872 C   0  0  0  0  0  0  0  0  0  0  0  0
    8.6033  -13.7731   18.1312 C   0  0  0  0  0  0  0  0  0  0  0  0
    7.8652  -14.1117   16.8306 C   0  0  0  0  0  0  0  0  0  0  0  0
    8.6176  -13.6620   15.6838 N   0  0  0  0  0  0  0  0  0  0  0  0
    8.8642  -14.6097   22.9227 C   0  0  0  0  0  0  0  0  0  0  0  0
    9.9876  -14.0716   23.0154 O   0  0  0  0  0  0  0  0  0  0  0  0
    5.4352  -12.2216   26.4247 C   0  0  0  0  0  0  0  0  0  0  0  0
    6.6991  -12.5308   25.6082 C   0  0  1  0  0  0  0  0  0  0  0  0
    7.5922  -11.3453   25.7318 C   0  0  0  0  0  0  0  0  0  0  0  0
    7.2601  -13.7934   26.1665 C   0  0  0  0  0  0  0  0  0  0  0  0
    8.4398  -14.3345   25.3898 C   0  0  2  0  0  0  0  0  0  0  0  0
    8.0112  -14.7372   24.0668 N   0  0  0  0  0  0  0  0  0  0  0  0
    8.8818  -15.5615   26.1144 C   0  0  0  0  0  0  0  0  0  0  0  0
    9.1066  -15.4704   27.3460 O   0  0  0  0  0  0  0  0  0  0  0  0
    6.1415  -19.9860   27.0276 N   0  0  0  0  0  0  0  0  0  0  0  0
    7.3450  -20.6241   27.3973 C   0  0  0  0  0  0  0  0  0  0  0  0
    7.2982  -21.5607   28.2627 O   0  0  0  0  0  0  0  0  0  0  0  0
    8.6332  -20.2598   26.8249 C   0  0  0  0  0  0  0  0  0  0  0  0
    8.6799  -19.0890   25.9300 C   0  0  0  0  0  0  0  0  0  0  0  0
    9.5511  -17.9334   26.2939 C   0  0  2  0  0  0  0  0  0  0  0  0
    9.0569  -16.8010   25.4918 N   0  0  0  0  0  0  0  0  0  0  0  0
   10.9643  -18.1587   26.0430 C   0  0  0  0  0  0  0  0  0  0  0  0
   11.5630  -17.7562   24.9859 O   0  0  0  0  0  0  0  0  0  0  0  0
   11.7882  -18.8274   26.9436 O   0  0  0  0  0  0  0  0  0  0  0  0
  2  3  1  0
  2  1  1  1
  4  5  1  0
  4  3  1  0
  5  6  1  0
  6  7  1  0
  8  2  1  0
  9  8  2  0
 11 10  1  1
 12 11  1  0
 13 11  1  0
 14 13  1  1
 14 15  1  0
 15  8  1  0
 16 17  2  0
 16 14  1  0
 18 19  1  0
 19 20  2  0
 21 22  1  0
 21 19  1  0
 23 22  1  6
 23 24  1  0
 24 16  1  0
 25 23  1  0
 26 25  2  0
 27 25  1  0
M  END
$$$$
