KLQ.pdb
     RDKit          3D

 27 26  0  0  1  0  0  0  0  0999 V2000
    6.9810  -15.8781   21.3175 N   0  0  0  0  0  0  0  0  0  0  0  0
    8.2658  -15.2354   21.1884 C   0  0  1  0  0  0  0  0  0  0  0  0
    8.1748  -13.9689   20.4154 C   0  0  0  0  0  0  0  0  0  0  0  0
    7.6096  -14.0787   19.0406 C   0  0  0  0  0  0  0  0  0  0  0  0
    8.2099  -13.1692   18.0140 C   0  0  0  0  0  0  0  0  0  0  0  0
    7.4315  -13.3253   16.7023 C   0  0  0  0  0  0  0  0  0  0  0  0
    7.9556  -12.4415   15.6885 N   0  0  0  0  0  0  0  0  0  0  0  0
    8.7938  -14.9329   22.5548 C   0  0  0  0  0  0  0  0  0  0  0  0
    9.9670  -14.5156   22.6527 O   0  0  0  0  0  0  0  0  0  0  0  0
    5.7934  -12.6456   26.6224 C   0  0  0  0  0  0  0  0  0  0  0  0
    6.9614  -12.9525   25.6731 C   0  0  1  0  0  0  0  0  0  0  0  0
    8.0245  -11.9497   25.9605 C   0  0  0  0  0  0  0  0  0  0  0  0
    7.3529  -14.3665   25.9339 C   0  0  0  0  0  0  0  0  0  0  0  0
    8.4775  -14.8622   25.0523 C   0  0  2  0  0  0  0  0  0  0  0  0
    7.9772  -15.1165   23.7177 N   0  0  0  0  0  0  0  0  0  0  0  0
    8.9080  -16.1687   25.6299 C   0  0  0  0  0  0  0  0  0  0  0  0
    8.0364  -17.0572   25.7932 O   0  0  0  0  0  0  0  0  0  0  0  0
   14.2989  -18.9517   24.7085 N   0  0  0  0  0  0  0  0  0  0  0  0
   13.1931  -18.5500   23.9284 C   0  0  0  0  0  0  0  0  0  0  0  0
   13.3249  -18.5065   22.6600 O   0  0  0  0  0  0  0  0  0  0  0  0
   11.9096  -18.1912   24.5144 C   0  0  0  0  0  0  0  0  0  0  0  0
   11.7963  -18.2131   25.9843 C   0  0  0  0  0  0  0  0  0  0  0  0
   10.5280  -17.7502   26.6201 C   0  0  2  0  0  0  0  0  0  0  0  0
   10.2276  -16.4501   25.9962 N   0  0  0  0  0  0  0  0  0  0  0  0
   10.6072  -17.6174   28.0647 C   0  0  0  0  0  0  0  0  0  0  0  0
   10.5565  -16.4911   28.6704 O   0  0  0  0  0  0  0  0  0  0  0  0
   10.7363  -18.7136   28.9122 O   0  0  0  0  0  0  0  0  0  0  0  0
  2  3  1  0
  2  1  1  1
  4  5  1  0
  4  3  1  0
  5  6  1  0
  6  7  1  0
  8  2  1  0
  9  8  2  0
 11 10  1  1
 12 11  1  0
 13 11  1  0
 14 13  1  1
 14 15  1  0
 15  8  1  0
 16 17  2  0
 16 14  1  0
 18 19  1  0
 19 20  2  0
 21 22  1  0
 21 19  1  0
 23 22  1  6
 23 24  1  0
 24 16  1  0
 25 23  1  0
 26 25  2  0
 27 25  1  0
M  END
$$$$
