KLQ.pdb
     RDKit          3D

 27 26  0  0  1  0  0  0  0  0999 V2000
    7.0493  -15.5126   21.3594 N   0  0  0  0  0  0  0  0  0  0  0  0
    8.1181  -14.5672   21.1491 C   0  0  1  0  0  0  0  0  0  0  0  0
    7.6497  -13.3557   20.4262 C   0  0  0  0  0  0  0  0  0  0  0  0
    7.3851  -13.5227   18.9688 C   0  0  0  0  0  0  0  0  0  0  0  0
    8.5693  -13.8871   18.1285 C   0  0  0  0  0  0  0  0  0  0  0  0
    8.1424  -13.9020   16.6559 C   0  0  0  0  0  0  0  0  0  0  0  0
    9.1746  -14.4818   15.8302 N   0  0  0  0  0  0  0  0  0  0  0  0
    8.6681  -14.1567   22.4781 C   0  0  0  0  0  0  0  0  0  0  0  0
    9.7461  -13.5260   22.4989 O   0  0  0  0  0  0  0  0  0  0  0  0
    5.3319  -12.7121   26.6294 C   0  0  0  0  0  0  0  0  0  0  0  0
    6.4807  -12.7122   25.6097 C   0  0  1  0  0  0  0  0  0  0  0  0
    7.1533  -11.3877   25.7187 C   0  0  0  0  0  0  0  0  0  0  0  0
    7.3437  -13.8782   25.9508 C   0  0  0  0  0  0  0  0  0  0  0  0
    8.4918  -14.0913   24.9895 C   0  0  2  0  0  0  0  0  0  0  0  0
    7.9783  -14.4778   23.6922 N   0  0  0  0  0  0  0  0  0  0  0  0
    9.2713  -15.2436   25.5283 C   0  0  0  0  0  0  0  0  0  0  0  0
    9.1596  -15.5118   26.7495 O   0  0  0  0  0  0  0  0  0  0  0  0
   10.2509  -18.5537   28.6164 N   0  0  0  0  0  0  0  0  0  0  0  0
   10.3304  -19.6055   27.6784 C   0  0  0  0  0  0  0  0  0  0  0  0
   10.7625  -20.7406   28.0697 O   0  0  0  0  0  0  0  0  0  0  0  0
    9.9325  -19.4465   26.2870 C   0  0  0  0  0  0  0  0  0  0  0  0
    9.6328  -18.0838   25.8105 C   0  0  0  0  0  0  0  0  0  0  0  0
   10.7554  -17.2119   25.3563 C   0  0  2  0  0  0  0  0  0  0  0  0
   10.1156  -16.0350   24.7437 N   0  0  0  0  0  0  0  0  0  0  0  0
   11.6552  -17.8532   24.4129 C   0  0  0  0  0  0  0  0  0  0  0  0
   12.5237  -18.7289   24.7547 O   0  0  0  0  0  0  0  0  0  0  0  0
   11.6380  -17.5708   23.0503 O   0  0  0  0  0  0  0  0  0  0  0  0
  2  3  1  0
  2  1  1  1
  4  5  1  0
  4  3  1  0
  5  6  1  0
  6  7  1  0
  8  2  1  0
  9  8  2  0
 11 10  1  1
 12 11  1  0
 13 11  1  0
 14 13  1  1
 14 15  1  0
 15  8  1  0
 16 17  2  0
 16 14  1  0
 18 19  1  0
 19 20  2  0
 21 22  1  0
 21 19  1  0
 23 22  1  6
 23 24  1  0
 24 16  1  0
 25 23  1  0
 26 25  2  0
 27 25  1  0
M  END
$$$$
