KLQ.pdb
     RDKit          3D

 27 26  0  0  1  0  0  0  0  0999 V2000
    8.5357  -16.3279   20.2936 N   0  0  0  0  0  0  0  0  0  0  0  0
    7.5355  -16.4227   21.3285 C   0  0  1  0  0  0  0  0  0  0  0  0
    7.2080  -17.8361   21.6523 C   0  0  0  0  0  0  0  0  0  0  0  0
    7.4515  -18.8306   20.5692 C   0  0  0  0  0  0  0  0  0  0  0  0
    6.9444  -20.2151   20.8287 C   0  0  0  0  0  0  0  0  0  0  0  0
    7.2308  -21.0834   19.5980 C   0  0  0  0  0  0  0  0  0  0  0  0
    6.8305  -22.4502   19.8321 N   0  0  0  0  0  0  0  0  0  0  0  0
    8.0506  -15.7494   22.5609 C   0  0  0  0  0  0  0  0  0  0  0  0
    9.2540  -15.9057   22.8567 O   0  0  0  0  0  0  0  0  0  0  0  0
    8.0338  -11.8198   26.2104 C   0  0  0  0  0  0  0  0  0  0  0  0
    6.9108  -12.8317   26.4834 C   0  0  1  0  0  0  0  0  0  0  0  0
    5.8004  -12.0784   27.1301 C   0  0  0  0  0  0  0  0  0  0  0  0
    6.5661  -13.4403   25.1675 C   0  0  0  0  0  0  0  0  0  0  0  0
    7.6533  -14.3252   24.5995 C   0  0  2  0  0  0  0  0  0  0  0  0
    7.1884  -14.9486   23.3782 N   0  0  0  0  0  0  0  0  0  0  0  0
    7.8706  -15.4066   25.6042 C   0  0  0  0  0  0  0  0  0  0  0  0
    6.8758  -16.0770   25.9738 O   0  0  0  0  0  0  0  0  0  0  0  0
    6.5451  -19.5610   26.9518 N   0  0  0  0  0  0  0  0  0  0  0  0
    7.8549  -20.0313   27.1881 C   0  0  0  0  0  0  0  0  0  0  0  0
    8.0150  -21.0183   27.9809 O   0  0  0  0  0  0  0  0  0  0  0  0
    9.0259  -19.4390   26.5577 C   0  0  0  0  0  0  0  0  0  0  0  0
    8.9108  -18.0565   26.0582 C   0  0  0  0  0  0  0  0  0  0  0  0
    9.2636  -16.9263   26.9666 C   0  0  2  0  0  0  0  0  0  0  0  0
    9.1216  -15.7079   26.1511 N   0  0  0  0  0  0  0  0  0  0  0  0
   10.6021  -17.0144   27.5246 C   0  0  0  0  0  0  0  0  0  0  0  0
   11.5978  -16.3512   27.0697 O   0  0  0  0  0  0  0  0  0  0  0  0
   10.9088  -17.8262   28.6125 O   0  0  0  0  0  0  0  0  0  0  0  0
  2  3  1  0
  2  1  1  6
  4  5  1  0
  4  3  1  0
  5  6  1  0
  6  7  1  0
  8  2  1  0
  9  8  2  0
 11 10  1  6
 12 11  1  0
 13 11  1  0
 14 13  1  1
 14 15  1  0
 15  8  1  0
 16 17  2  0
 16 14  1  0
 18 19  1  0
 19 20  2  0
 21 22  1  0
 21 19  1  0
 23 22  1  6
 23 24  1  0
 24 16  1  0
 25 23  1  0
 26 25  2  0
 27 25  1  0
M  END
$$$$
