KLQ.pdb
     RDKit          3D

 27 26  0  0  1  0  0  0  0  0999 V2000
    7.7341  -13.9455   20.0997 N   0  0  0  0  0  0  0  0  0  0  0  0
    7.3861  -14.9522   21.0724 C   0  0  1  0  0  0  0  0  0  0  0  0
    7.7158  -16.3203   20.5934 C   0  0  0  0  0  0  0  0  0  0  0  0
    7.0857  -16.7349   19.3079 C   0  0  0  0  0  0  0  0  0  0  0  0
    7.3302  -18.1511   18.8885 C   0  0  0  0  0  0  0  0  0  0  0  0
    6.5187  -18.4360   17.6191 C   0  0  0  0  0  0  0  0  0  0  0  0
    6.7911  -19.7648   17.1256 N   0  0  0  0  0  0  0  0  0  0  0  0
    8.1419  -14.6850   22.3352 C   0  0  0  0  0  0  0  0  0  0  0  0
    9.3873  -14.6135   22.2710 O   0  0  0  0  0  0  0  0  0  0  0  0
    5.7137  -12.1874   26.8311 C   0  0  0  0  0  0  0  0  0  0  0  0
    6.7021  -12.4624   25.6878 C   0  0  1  0  0  0  0  0  0  0  0  0
    7.7453  -11.4016   25.7560 C   0  0  0  0  0  0  0  0  0  0  0  0
    7.2092  -13.8481   25.8966 C   0  0  0  0  0  0  0  0  0  0  0  0
    8.1702  -14.3154   24.8261 C   0  0  2  0  0  0  0  0  0  0  0  0
    7.4570  -14.5161   23.5823 N   0  0  0  0  0  0  0  0  0  0  0  0
    8.6741  -15.6452   25.2775 C   0  0  0  0  0  0  0  0  0  0  0  0
    7.8946  -16.6265   25.2062 O   0  0  0  0  0  0  0  0  0  0  0  0
   14.3094  -19.9808   24.4811 N   0  0  0  0  0  0  0  0  0  0  0  0
   13.7634  -18.7464   24.8940 C   0  0  0  0  0  0  0  0  0  0  0  0
   14.4343  -17.6815   24.6834 O   0  0  0  0  0  0  0  0  0  0  0  0
   12.4643  -18.6418   25.5429 C   0  0  0  0  0  0  0  0  0  0  0  0
   11.7084  -17.3883   25.3670 C   0  0  0  0  0  0  0  0  0  0  0  0
   10.4008  -17.2264   26.0677 C   0  0  2  0  0  0  0  0  0  0  0  0
    9.9651  -15.8504   25.7734 N   0  0  0  0  0  0  0  0  0  0  0  0
   10.4702  -17.4442   27.5025 C   0  0  0  0  0  0  0  0  0  0  0  0
   10.2909  -16.5146   28.3637 O   0  0  0  0  0  0  0  0  0  0  0  0
   10.7299  -18.6929   28.0593 O   0  0  0  0  0  0  0  0  0  0  0  0
  2  3  1  0
  2  1  1  6
  4  5  1  0
  4  3  1  0
  5  6  1  0
  6  7  1  0
  8  2  1  0
  9  8  2  0
 11 10  1  1
 12 11  1  0
 13 11  1  0
 14 13  1  1
 14 15  1  0
 15  8  1  0
 16 17  2  0
 16 14  1  0
 18 19  1  0
 19 20  2  0
 21 22  1  0
 21 19  1  0
 23 22  1  6
 23 24  1  0
 24 16  1  0
 25 23  1  0
 26 25  2  0
 27 25  1  0
M  END
$$$$
