KLQ.pdb
     RDKit          3D

 27 26  0  0  1  0  0  0  0  0999 V2000
    6.9705  -15.7997   21.2298 N   0  0  0  0  0  0  0  0  0  0  0  0
    8.3533  -15.3945   21.1650 C   0  0  1  0  0  0  0  0  0  0  0  0
    8.5231  -14.1299   20.4023 C   0  0  0  0  0  0  0  0  0  0  0  0
    8.5667  -14.2597   18.9181 C   0  0  0  0  0  0  0  0  0  0  0  0
    8.2737  -13.0115   18.1452 C   0  0  0  0  0  0  0  0  0  0  0  0
    8.2724  -13.3474   16.6492 C   0  0  0  0  0  0  0  0  0  0  0  0
    7.9552  -12.1791   15.8631 N   0  0  0  0  0  0  0  0  0  0  0  0
    8.8632  -15.1938   22.5568 C   0  0  0  0  0  0  0  0  0  0  0  0
   10.0870  -14.9981   22.7119 O   0  0  0  0  0  0  0  0  0  0  0  0
    5.8170  -12.6126   26.3411 C   0  0  0  0  0  0  0  0  0  0  0  0
    7.0208  -13.0263   25.4813 C   0  0  1  0  0  0  0  0  0  0  0  0
    8.0957  -12.0274   25.7365 C   0  0  0  0  0  0  0  0  0  0  0  0
    7.3606  -14.4215   25.8798 C   0  0  0  0  0  0  0  0  0  0  0  0
    8.4469  -15.0510   25.0364 C   0  0  2  0  0  0  0  0  0  0  0  0
    7.9735  -15.2253   23.6793 N   0  0  0  0  0  0  0  0  0  0  0  0
    8.6800  -16.4079   25.6113 C   0  0  0  0  0  0  0  0  0  0  0  0
    7.9379  -17.3456   25.2296 O   0  0  0  0  0  0  0  0  0  0  0  0
   12.7270  -18.1774   22.8417 N   0  0  0  0  0  0  0  0  0  0  0  0
   12.5313  -19.3278   23.6358 C   0  0  0  0  0  0  0  0  0  0  0  0
   12.9925  -20.4424   23.2194 O   0  0  0  0  0  0  0  0  0  0  0  0
   11.8313  -19.2896   24.9118 C   0  0  0  0  0  0  0  0  0  0  0  0
   11.0520  -18.0793   25.2309 C   0  0  0  0  0  0  0  0  0  0  0  0
   10.3218  -18.0096   26.5305 C   0  0  2  0  0  0  0  0  0  0  0  0
    9.6792  -16.6843   26.5493 N   0  0  0  0  0  0  0  0  0  0  0  0
   11.1736  -18.1809   27.6950 C   0  0  0  0  0  0  0  0  0  0  0  0
   11.3351  -19.3034   28.2881 O   0  0  0  0  0  0  0  0  0  0  0  0
   11.8946  -17.1316   28.2570 O   0  0  0  0  0  0  0  0  0  0  0  0
  2  3  1  0
  2  1  1  1
  4  5  1  0
  4  3  1  0
  5  6  1  0
  6  7  1  0
  8  2  1  0
  9  8  2  0
 11 10  1  1
 12 11  1  0
 13 11  1  0
 14 13  1  1
 14 15  1  0
 15  8  1  0
 16 17  2  0
 16 14  1  0
 18 19  1  0
 19 20  2  0
 21 22  1  0
 21 19  1  0
 23 22  1  6
 23 24  1  0
 24 16  1  0
 25 23  1  0
 26 25  2  0
 27 25  1  0
M  END
$$$$
