KLQ.pdb
     RDKit          3D

 27 26  0  0  1  0  0  0  0  0999 V2000
    7.2830  -15.6437   20.9697 N   0  0  0  0  0  0  0  0  0  0  0  0
    8.5872  -15.0278   20.9538 C   0  0  1  0  0  0  0  0  0  0  0  0
    8.6865  -13.9714   19.9128 C   0  0  0  0  0  0  0  0  0  0  0  0
    7.9104  -14.2075   18.6624 C   0  0  0  0  0  0  0  0  0  0  0  0
    8.6784  -14.0783   17.3838 C   0  0  0  0  0  0  0  0  0  0  0  0
    7.6958  -14.1538   16.2092 C   0  0  0  0  0  0  0  0  0  0  0  0
    8.3943  -14.0481   14.9506 N   0  0  0  0  0  0  0  0  0  0  0  0
    8.8481  -14.4152   22.2932 C   0  0  0  0  0  0  0  0  0  0  0  0
    9.9765  -13.9232   22.5049 O   0  0  0  0  0  0  0  0  0  0  0  0
    7.5341  -11.2116   26.2118 C   0  0  0  0  0  0  0  0  0  0  0  0
    6.7953  -12.5423   26.4189 C   0  0  1  0  0  0  0  0  0  0  0  0
    5.4801  -12.2131   27.0356 C   0  0  0  0  0  0  0  0  0  0  0  0
    6.7099  -13.1872   25.0782 C   0  0  0  0  0  0  0  0  0  0  0  0
    8.0302  -13.7247   24.5729 C   0  0  2  0  0  0  0  0  0  0  0  0
    7.8328  -14.3934   23.3040 N   0  0  0  0  0  0  0  0  0  0  0  0
    8.4620  -14.7536   25.5633 C   0  0  0  0  0  0  0  0  0  0  0  0
    8.6263  -14.3933   26.7545 O   0  0  0  0  0  0  0  0  0  0  0  0
    6.2725  -20.4465   25.7493 N   0  0  0  0  0  0  0  0  0  0  0  0
    7.2274  -20.4540   26.7888 C   0  0  0  0  0  0  0  0  0  0  0  0
    7.2666  -21.4591   27.5740 O   0  0  0  0  0  0  0  0  0  0  0  0
    8.1711  -19.3645   26.9940 C   0  0  0  0  0  0  0  0  0  0  0  0
    8.0443  -18.1754   26.1317 C   0  0  0  0  0  0  0  0  0  0  0  0
    9.0039  -17.0463   26.3090 C   0  0  2  0  0  0  0  0  0  0  0  0
    8.6913  -16.0922   25.2311 N   0  0  0  0  0  0  0  0  0  0  0  0
   10.3999  -17.4445   26.2496 C   0  0  0  0  0  0  0  0  0  0  0  0
   11.1118  -17.3537   25.1899 O   0  0  0  0  0  0  0  0  0  0  0  0
   11.0821  -17.9517   27.3514 O   0  0  0  0  0  0  0  0  0  0  0  0
  2  3  1  0
  2  1  1  1
  4  5  1  0
  4  3  1  0
  5  6  1  0
  6  7  1  0
  8  2  1  0
  9  8  2  0
 11 10  1  6
 12 11  1  0
 13 11  1  0
 14 13  1  1
 14 15  1  0
 15  8  1  0
 16 17  2  0
 16 14  1  0
 18 19  1  0
 19 20  2  0
 21 22  1  0
 21 19  1  0
 23 22  1  6
 23 24  1  0
 24 16  1  0
 25 23  1  0
 26 25  2  0
 27 25  1  0
M  END
$$$$
