KLQ.pdb
     RDKit          3D

 27 26  0  0  1  0  0  0  0  0999 V2000
    6.7782  -17.1245   21.1455 N   0  0  0  0  0  0  0  0  0  0  0  0
    6.3111  -17.0324   22.5071 C   0  0  1  0  0  0  0  0  0  0  0  0
    6.0984  -18.3744   23.1100 C   0  0  0  0  0  0  0  0  0  0  0  0
    5.1033  -19.2498   22.4280 C   0  0  0  0  0  0  0  0  0  0  0  0
    5.3944  -20.7179   22.4622 C   0  0  0  0  0  0  0  0  0  0  0  0
    4.7255  -21.3239   23.7016 C   0  0  0  0  0  0  0  0  0  0  0  0
    4.9444  -22.7496   23.7551 N   0  0  0  0  0  0  0  0  0  0  0  0
    7.3275  -16.2921   23.3171 C   0  0  0  0  0  0  0  0  0  0  0  0
    8.5295  -16.4041   22.9967 O   0  0  0  0  0  0  0  0  0  0  0  0
    5.7689  -11.9688   26.6996 C   0  0  0  0  0  0  0  0  0  0  0  0
    6.4810  -12.7337   25.5739 C   0  0  1  0  0  0  0  0  0  0  0  0
    7.3733  -11.7581   24.8880 C   0  0  0  0  0  0  0  0  0  0  0  0
    7.1880  -13.8732   26.2238 C   0  0  0  0  0  0  0  0  0  0  0  0
    7.9024  -14.7846   25.2508 C   0  0  2  0  0  0  0  0  0  0  0  0
    6.9335  -15.4782   24.4285 N   0  0  0  0  0  0  0  0  0  0  0  0
    8.6030  -15.8062   26.0823 C   0  0  0  0  0  0  0  0  0  0  0  0
    7.9019  -16.6306   26.7184 O   0  0  0  0  0  0  0  0  0  0  0  0
   10.1679  -19.6787   22.8942 N   0  0  0  0  0  0  0  0  0  0  0  0
   10.6129  -20.2386   24.1111 C   0  0  0  0  0  0  0  0  0  0  0  0
   10.8149  -21.4973   24.1658 O   0  0  0  0  0  0  0  0  0  0  0  0
   10.8560  -19.4354   25.3008 C   0  0  0  0  0  0  0  0  0  0  0  0
   10.3328  -18.0571   25.3169 C   0  0  0  0  0  0  0  0  0  0  0  0
   10.6048  -17.1927   26.5026 C   0  0  2  0  0  0  0  0  0  0  0  0
    9.9947  -15.8896   26.1870 N   0  0  0  0  0  0  0  0  0  0  0  0
   12.0169  -17.0356   26.8058 C   0  0  0  0  0  0  0  0  0  0  0  0
   12.6657  -17.8359   27.5651 O   0  0  0  0  0  0  0  0  0  0  0  0
   12.7850  -15.9994   26.2831 O   0  0  0  0  0  0  0  0  0  0  0  0
  2  3  1  0
  2  1  1  6
  4  5  1  0
  4  3  1  0
  5  6  1  0
  6  7  1  0
  8  2  1  0
  9  8  2  0
 11 10  1  1
 12 11  1  0
 13 11  1  0
 14 13  1  1
 14 15  1  0
 15  8  1  0
 16 17  2  0
 16 14  1  0
 18 19  1  0
 19 20  2  0
 21 22  1  0
 21 19  1  0
 23 22  1  6
 23 24  1  0
 24 16  1  0
 25 23  1  0
 26 25  2  0
 27 25  1  0
M  END
$$$$
