KLQ.pdb
     RDKit          3D

 27 26  0  0  1  0  0  0  0  0999 V2000
    6.8782  -15.0435   20.9081 N   0  0  0  0  0  0  0  0  0  0  0  0
    8.2796  -14.7022   20.8990 C   0  0  1  0  0  0  0  0  0  0  0  0
    8.5313  -13.4202   20.1898 C   0  0  0  0  0  0  0  0  0  0  0  0
    7.8727  -13.2650   18.8617 C   0  0  0  0  0  0  0  0  0  0  0  0
    8.7025  -13.6424   17.6741 C   0  0  0  0  0  0  0  0  0  0  0  0
    7.8953  -13.3636   16.4007 C   0  0  0  0  0  0  0  0  0  0  0  0
    8.6289  -13.7791   15.2291 N   0  0  0  0  0  0  0  0  0  0  0  0
    8.7551  -14.5766   22.3116 C   0  0  0  0  0  0  0  0  0  0  0  0
    9.9662  -14.3402   22.5054 O   0  0  0  0  0  0  0  0  0  0  0  0
    5.6420  -12.3149   26.2826 C   0  0  0  0  0  0  0  0  0  0  0  0
    6.8922  -12.6366   25.4501 C   0  0  1  0  0  0  0  0  0  0  0  0
    7.9738  -11.7323   25.9305 C   0  0  0  0  0  0  0  0  0  0  0  0
    7.1631  -14.0890   25.6450 C   0  0  0  0  0  0  0  0  0  0  0  0
    8.2881  -14.6219   24.7859 C   0  0  2  0  0  0  0  0  0  0  0  0
    7.8475  -14.7234   23.4105 N   0  0  0  0  0  0  0  0  0  0  0  0
    8.5607  -16.0045   25.2760 C   0  0  0  0  0  0  0  0  0  0  0  0
    7.8673  -16.9423   24.8119 O   0  0  0  0  0  0  0  0  0  0  0  0
   11.1080  -17.9553   22.1029 N   0  0  0  0  0  0  0  0  0  0  0  0
   11.4944  -19.0135   22.9535 C   0  0  0  0  0  0  0  0  0  0  0  0
   11.8285  -20.1274   22.4283 O   0  0  0  0  0  0  0  0  0  0  0  0
   11.5326  -18.8801   24.4027 C   0  0  0  0  0  0  0  0  0  0  0  0
   11.0801  -17.6040   24.9865 C   0  0  0  0  0  0  0  0  0  0  0  0
   10.1864  -17.6305   26.1813 C   0  0  2  0  0  0  0  0  0  0  0  0
    9.5455  -16.3048   26.2219 N   0  0  0  0  0  0  0  0  0  0  0  0
   10.8789  -17.9015   27.4293 C   0  0  0  0  0  0  0  0  0  0  0  0
   11.3160  -16.9815   28.2043 O   0  0  0  0  0  0  0  0  0  0  0  0
   11.1159  -19.1932   27.8899 O   0  0  0  0  0  0  0  0  0  0  0  0
  2  3  1  0
  2  1  1  1
  4  5  1  0
  4  3  1  0
  5  6  1  0
  6  7  1  0
  8  2  1  0
  9  8  2  0
 11 10  1  1
 12 11  1  0
 13 11  1  0
 14 13  1  1
 14 15  1  0
 15  8  1  0
 16 17  2  0
 16 14  1  0
 18 19  1  0
 19 20  2  0
 21 22  1  0
 21 19  1  0
 23 22  1  6
 23 24  1  0
 24 16  1  0
 25 23  1  0
 26 25  2  0
 27 25  1  0
M  END
$$$$
