WQI.pdb
     RDKit          3D

 32 33  0  0  1  0  0  0  0  0999 V2000
   25.7209  -20.8487   -9.6767 N   0  0  0  0  0  0  0  0  0  0  0  0
   25.7041  -20.1674  -10.9815 C   0  0  1  0  0  0  0  0  0  0  0  0
   27.0296  -20.2536  -11.6226 C   0  0  0  0  0  0  0  0  0  0  0  0
   27.2477  -19.5902  -12.8802 C   0  0  0  0  0  0  0  0  0  0  0  0
   27.1694  -18.2208  -13.0529 C   0  0  0  0  0  0  0  0  0  0  0  0
   27.4191  -17.9289  -14.3249 N   0  0  0  0  0  0  0  0  0  0  0  0
   27.6658  -19.0453  -15.0323 C   0  0  0  0  0  0  0  0  0  0  0  0
   27.9722  -19.3209  -16.3464 C   0  0  0  0  0  0  0  0  0  0  0  0
   28.1662  -20.6222  -16.7379 C   0  0  0  0  0  0  0  0  0  0  0  0
   28.0617  -21.6773  -15.8408 C   0  0  0  0  0  0  0  0  0  0  0  0
   27.7569  -21.4026  -14.5340 C   0  0  0  0  0  0  0  0  0  0  0  0
   27.5596  -20.0998  -14.1279 C   0  0  0  0  0  0  0  0  0  0  0  0
   24.7840  -20.9873  -11.8304 C   0  0  0  0  0  0  0  0  0  0  0  0
   24.8319  -22.2320  -11.6623 O   0  0  0  0  0  0  0  0  0  0  0  0
   18.9681  -21.8269  -13.3915 N   0  0  0  0  0  0  0  0  0  0  0  0
   19.4482  -20.5023  -13.2097 C   0  0  0  0  0  0  0  0  0  0  0  0
   18.6208  -19.5652  -13.2807 O   0  0  0  0  0  0  0  0  0  0  0  0
   20.8662  -20.1855  -12.9434 C   0  0  0  0  0  0  0  0  0  0  0  0
   21.6523  -21.4446  -12.8967 C   0  0  0  0  0  0  0  0  0  0  0  0
   23.0110  -21.3394  -13.5431 C   0  0  2  0  0  0  0  0  0  0  0  0
   23.8990  -20.4695  -12.7727 N   0  0  0  0  0  0  0  0  0  0  0  0
   22.9182  -20.8539  -14.9453 C   0  0  0  0  0  0  0  0  0  0  0  0
   23.0112  -19.6090  -15.2030 O   0  0  0  0  0  0  0  0  0  0  0  0
   25.8532  -22.8373  -18.7969 C   0  0  0  0  0  0  0  0  0  0  0  0
   24.9784  -21.8686  -18.0643 C   0  0  0  0  0  0  0  0  0  0  0  0
   23.5051  -22.1500  -18.2766 C   0  0  2  0  0  0  0  0  0  0  0  0
   23.0994  -21.9685  -19.7114 C   0  0  0  0  0  0  0  0  0  0  0  0
   22.6439  -21.2521  -17.4153 C   0  0  2  0  0  0  0  0  0  0  0  0
   22.7269  -21.7312  -16.0302 N   0  0  0  0  0  0  0  0  0  0  0  0
   21.2531  -21.1929  -17.8739 C   0  0  0  0  0  0  0  0  0  0  0  0
   20.4122  -21.9917  -17.3971 O   0  0  0  0  0  0  0  0  0  0  0  0
   20.8587  -20.2791  -18.8143 O   0  0  0  0  0  0  0  0  0  0  0  0
  2  1  1  1
  2  3  1  0
  3  4  1  0
  4  5  2  0
  5  6  1  0
  7  6  1  0
  8  7  2  0
  9  8  1  0
 10 11  1  0
 10  9  2  0
 11 12  2  0
 12  4  1  0
 12  7  1  0
 13  2  1  0
 13 21  1  0
 14 13  2  0
 16 18  1  0
 16 15  1  0
 17 16  2  0
 19 18  1  0
 20 21  1  0
 20 19  1  1
 22 20  1  0
 23 22  2  0
 24 25  1  0
 26 25  1  0
 26 27  1  6
 26 28  1  0
 28 29  1  1
 29 22  1  0
 30 32  1  0
 30 28  1  0
 31 30  2  0
M  END
$$$$
