WQI.pdb
     RDKit          3D

 32 33  0  0  1  0  0  0  0  0999 V2000
   26.0283  -22.9801  -12.7428 N   0  0  0  0  0  0  0  0  0  0  0  0
   25.3957  -21.8295  -12.0773 C   0  0  1  0  0  0  0  0  0  0  0  0
   26.3366  -20.6959  -12.0076 C   0  0  0  0  0  0  0  0  0  0  0  0
   27.4385  -20.7513  -11.0847 C   0  0  0  0  0  0  0  0  0  0  0  0
   28.7341  -21.0665  -11.4493 C   0  0  0  0  0  0  0  0  0  0  0  0
   29.5086  -21.0342  -10.3702 N   0  0  0  0  0  0  0  0  0  0  0  0
   28.7946  -20.7090   -9.2784 C   0  0  0  0  0  0  0  0  0  0  0  0
   29.0780  -20.5372   -7.9417 C   0  0  0  0  0  0  0  0  0  0  0  0
   28.0709  -20.1930   -7.0747 C   0  0  0  0  0  0  0  0  0  0  0  0
   26.7643  -20.0116   -7.5094 C   0  0  0  0  0  0  0  0  0  0  0  0
   26.4830  -20.1827   -8.8389 C   0  0  0  0  0  0  0  0  0  0  0  0
   27.4856  -20.5284   -9.7201 C   0  0  0  0  0  0  0  0  0  0  0  0
   24.3049  -21.4006  -13.0076 C   0  0  0  0  0  0  0  0  0  0  0  0
   24.5101  -21.5923  -14.2327 O   0  0  0  0  0  0  0  0  0  0  0  0
   21.1502  -24.0205  -14.9509 N   0  0  0  0  0  0  0  0  0  0  0  0
   20.3823  -22.9488  -14.4222 C   0  0  0  0  0  0  0  0  0  0  0  0
   19.5569  -22.3905  -15.1805 O   0  0  0  0  0  0  0  0  0  0  0  0
   20.5134  -22.4691  -13.0313 C   0  0  0  0  0  0  0  0  0  0  0  0
   20.6963  -20.9952  -13.0333 C   0  0  0  0  0  0  0  0  0  0  0  0
   22.0336  -20.5476  -13.5684 C   0  0  2  0  0  0  0  0  0  0  0  0
   23.1052  -20.8159  -12.6100 N   0  0  0  0  0  0  0  0  0  0  0  0
   22.0277  -19.1057  -13.9307 C   0  0  0  0  0  0  0  0  0  0  0  0
   22.7733  -18.2820  -13.3059 O   0  0  0  0  0  0  0  0  0  0  0  0
   25.3380  -17.1202  -15.5728 C   0  0  0  0  0  0  0  0  0  0  0  0
   23.9293  -17.0727  -15.0692 C   0  0  0  0  0  0  0  0  0  0  0  0
   22.9194  -17.3768  -16.1567 C   0  0  2  0  0  0  0  0  0  0  0  0
   23.0345  -16.4245  -17.3127 C   0  0  0  0  0  0  0  0  0  0  0  0
   21.5040  -17.3194  -15.6247 C   0  0  2  0  0  0  0  0  0  0  0  0
   21.2135  -18.5959  -14.9604 N   0  0  0  0  0  0  0  0  0  0  0  0
   20.5183  -17.0284  -16.6695 C   0  0  0  0  0  0  0  0  0  0  0  0
   20.2348  -17.9121  -17.5129 O   0  0  0  0  0  0  0  0  0  0  0  0
   19.9027  -15.8073  -16.7383 O   0  0  0  0  0  0  0  0  0  0  0  0
  2  1  1  6
  2  3  1  0
  3  4  1  0
  4  5  2  0
  5  6  1  0
  7  6  1  0
  8  7  2  0
  9  8  1  0
 10 11  1  0
 10  9  2  0
 11 12  2  0
 12  4  1  0
 12  7  1  0
 13  2  1  0
 13 21  1  0
 14 13  2  0
 16 18  1  0
 16 15  1  0
 17 16  2  0
 19 18  1  0
 20 21  1  0
 20 19  1  1
 22 20  1  0
 23 22  2  0
 24 25  1  0
 26 25  1  0
 26 27  1  6
 26 28  1  0
 28 29  1  6
 29 22  1  0
 30 32  1  0
 30 28  1  0
 31 30  2  0
M  END
$$$$
