WQI.pdb
     RDKit          3D

 32 33  0  0  1  0  0  0  0  0999 V2000
   26.1649  -18.0471  -17.7381 N   0  0  0  0  0  0  0  0  0  0  0  0
   26.0126  -17.5162  -16.3737 C   0  0  1  0  0  0  0  0  0  0  0  0
   25.0738  -16.3787  -16.3674 C   0  0  0  0  0  0  0  0  0  0  0  0
   25.5254  -15.0908  -16.8220 C   0  0  0  0  0  0  0  0  0  0  0  0
   24.8753  -14.3421  -17.7854 C   0  0  0  0  0  0  0  0  0  0  0  0
   25.5443  -13.2108  -17.9803 N   0  0  0  0  0  0  0  0  0  0  0  0
   26.6290  -13.1539  -17.1879 C   0  0  0  0  0  0  0  0  0  0  0  0
   27.6418  -12.2435  -16.9828 C   0  0  0  0  0  0  0  0  0  0  0  0
   28.6229  -12.5179  -16.0628 C   0  0  0  0  0  0  0  0  0  0  0  0
   28.6243  -13.6958  -15.3270 C   0  0  0  0  0  0  0  0  0  0  0  0
   27.6168  -14.6009  -15.5314 C   0  0  0  0  0  0  0  0  0  0  0  0
   26.6252  -14.3373  -16.4526 C   0  0  0  0  0  0  0  0  0  0  0  0
   25.3358  -18.6106  -15.6097 C   0  0  0  0  0  0  0  0  0  0  0  0
   24.6925  -19.4493  -16.2899 O   0  0  0  0  0  0  0  0  0  0  0  0
   26.0166  -20.2802   -9.5236 N   0  0  0  0  0  0  0  0  0  0  0  0
   25.0784  -21.2160  -10.0356 C   0  0  0  0  0  0  0  0  0  0  0  0
   24.6931  -22.1336   -9.2756 O   0  0  0  0  0  0  0  0  0  0  0  0
   24.5431  -21.1546  -11.4109 C   0  0  0  0  0  0  0  0  0  0  0  0
   25.1964  -20.0410  -12.1449 C   0  0  0  0  0  0  0  0  0  0  0  0
   24.6920  -19.8613  -13.5550 C   0  0  2  0  0  0  0  0  0  0  0  0
   25.3733  -18.7543  -14.2251 N   0  0  0  0  0  0  0  0  0  0  0  0
   23.2213  -19.6469  -13.5911 C   0  0  0  0  0  0  0  0  0  0  0  0
   22.7236  -18.5344  -13.2174 O   0  0  0  0  0  0  0  0  0  0  0  0
   20.4628  -20.1631  -17.8224 C   0  0  0  0  0  0  0  0  0  0  0  0
   20.9169  -19.8251  -16.4369 C   0  0  0  0  0  0  0  0  0  0  0  0
   20.3439  -20.7671  -15.3981 C   0  0  2  0  0  0  0  0  0  0  0  0
   18.8433  -20.7132  -15.3575 C   0  0  0  0  0  0  0  0  0  0  0  0
   20.8747  -20.4513  -14.0167 C   0  0  2  0  0  0  0  0  0  0  0  0
   22.3299  -20.6443  -14.0313 N   0  0  0  0  0  0  0  0  0  0  0  0
   20.2427  -21.2590  -12.9696 C   0  0  0  0  0  0  0  0  0  0  0  0
   20.5478  -22.4701  -12.8567 O   0  0  0  0  0  0  0  0  0  0  0  0
   19.3251  -20.7113  -12.1135 O   0  0  0  0  0  0  0  0  0  0  0  0
  2  1  1  6
  2  3  1  0
  3  4  1  0
  4  5  2  0
  5  6  1  0
  7  6  1  0
  8  7  2  0
  9  8  1  0
 10 11  1  0
 10  9  2  0
 11 12  2  0
 12  4  1  0
 12  7  1  0
 13  2  1  0
 13 21  1  0
 14 13  2  0
 16 18  1  0
 16 15  1  0
 17 16  2  0
 19 18  1  0
 20 21  1  0
 20 19  1  1
 22 20  1  0
 23 22  2  0
 24 25  1  0
 26 25  1  0
 26 27  1  1
 26 28  1  0
 28 29  1  6
 29 22  1  0
 30 32  1  0
 30 28  1  0
 31 30  2  0
M  END
$$$$
