WQI.pdb
     RDKit          3D

 32 33  0  0  1  0  0  0  0  0999 V2000
   26.0176  -20.2604  -17.1023 N   0  0  0  0  0  0  0  0  0  0  0  0
   26.9063  -19.5044  -16.2048 C   0  0  1  0  0  0  0  0  0  0  0  0
   26.2855  -18.2201  -15.8301 C   0  0  0  0  0  0  0  0  0  0  0  0
   26.4079  -17.0940  -16.7167 C   0  0  0  0  0  0  0  0  0  0  0  0
   25.3421  -16.3116  -17.1205 C   0  0  0  0  0  0  0  0  0  0  0  0
   25.7860  -15.3608  -17.9355 N   0  0  0  0  0  0  0  0  0  0  0  0
   27.1158  -15.4603  -18.1071 C   0  0  0  0  0  0  0  0  0  0  0  0
   28.0631  -14.7617  -18.8222 C   0  0  0  0  0  0  0  0  0  0  0  0
   29.3778  -15.1527  -18.7666 C   0  0  0  0  0  0  0  0  0  0  0  0
   29.7839  -16.2405  -18.0046 C   0  0  0  0  0  0  0  0  0  0  0  0
   28.8413  -16.9349  -17.2937 C   0  0  0  0  0  0  0  0  0  0  0  0
   27.5174  -16.5525  -17.3410 C   0  0  0  0  0  0  0  0  0  0  0  0
   26.9620  -20.3150  -14.9482 C   0  0  0  0  0  0  0  0  0  0  0  0
   25.9510  -21.0168  -14.6927 O   0  0  0  0  0  0  0  0  0  0  0  0
   31.7575  -21.2709  -10.8851 N   0  0  0  0  0  0  0  0  0  0  0  0
   30.6149  -21.7314  -10.1779 C   0  0  0  0  0  0  0  0  0  0  0  0
   30.7899  -22.2207   -9.0386 O   0  0  0  0  0  0  0  0  0  0  0  0
   29.2436  -21.6592  -10.7220 C   0  0  0  0  0  0  0  0  0  0  0  0
   29.2762  -21.0071  -12.0560 C   0  0  0  0  0  0  0  0  0  0  0  0
   27.9505  -21.0233  -12.7752 C   0  0  2  0  0  0  0  0  0  0  0  0
   28.0383  -20.3396  -14.0650 N   0  0  0  0  0  0  0  0  0  0  0  0
   26.8701  -20.4170  -11.9533 C   0  0  0  0  0  0  0  0  0  0  0  0
   26.5675  -19.1868  -12.0943 O   0  0  0  0  0  0  0  0  0  0  0  0
   21.3640  -20.0947  -11.3654 C   0  0  0  0  0  0  0  0  0  0  0  0
   22.5905  -20.0025  -10.5124 C   0  0  0  0  0  0  0  0  0  0  0  0
   23.8109  -20.5852  -11.1952 C   0  0  2  0  0  0  0  0  0  0  0  0
   23.5695  -21.9875  -11.6766 C   0  0  0  0  0  0  0  0  0  0  0  0
   25.0078  -20.5932  -10.2695 C   0  0  2  0  0  0  0  0  0  0  0  0
   26.1472  -21.1607  -11.0007 N   0  0  0  0  0  0  0  0  0  0  0  0
   24.7564  -21.3273   -9.0261 C   0  0  0  0  0  0  0  0  0  0  0  0
   25.3068  -22.4394   -8.8447 O   0  0  0  0  0  0  0  0  0  0  0  0
   23.9304  -20.8173   -8.0604 O   0  0  0  0  0  0  0  0  0  0  0  0
  2  1  1  6
  2  3  1  0
  3  4  1  0
  4  5  2  0
  5  6  1  0
  7  6  1  0
  8  7  2  0
  9  8  1  0
 10 11  1  0
 10  9  2  0
 11 12  2  0
 12  4  1  0
 12  7  1  0
 13  2  1  0
 13 21  1  0
 14 13  2  0
 16 18  1  0
 16 15  1  0
 17 16  2  0
 19 18  1  0
 20 21  1  0
 20 19  1  1
 22 20  1  0
 23 22  2  0
 24 25  1  0
 26 25  1  0
 26 27  1  1
 26 28  1  0
 28 29  1  6
 29 22  1  0
 30 32  1  0
 30 28  1  0
 31 30  2  0
M  END
$$$$
