WQI.pdb
     RDKit          3D

 32 33  0  0  1  0  0  0  0  0999 V2000
   28.3080  -20.2466   -9.8791 N   0  0  0  0  0  0  0  0  0  0  0  0
   27.1309  -21.0285   -9.4669 C   0  0  1  0  0  0  0  0  0  0  0  0
   26.4308  -20.3556   -8.3568 C   0  0  0  0  0  0  0  0  0  0  0  0
   27.1944  -19.6111   -7.3914 C   0  0  0  0  0  0  0  0  0  0  0  0
   27.6022  -18.3029   -7.5744 C   0  0  0  0  0  0  0  0  0  0  0  0
   28.2868  -17.9084   -6.5062 N   0  0  0  0  0  0  0  0  0  0  0  0
   28.3649  -18.8955   -5.5967 C   0  0  0  0  0  0  0  0  0  0  0  0
   28.9357  -19.0324   -4.3508 C   0  0  0  0  0  0  0  0  0  0  0  0
   28.8171  -20.2236   -3.6790 C   0  0  0  0  0  0  0  0  0  0  0  0
   28.1332  -21.3031   -4.2228 C   0  0  0  0  0  0  0  0  0  0  0  0
   27.5657  -21.1663   -5.4619 C   0  0  0  0  0  0  0  0  0  0  0  0
   27.6776  -19.9751   -6.1473 C   0  0  0  0  0  0  0  0  0  0  0  0
   26.2000  -20.9656  -10.6369 C   0  0  0  0  0  0  0  0  0  0  0  0
   25.9617  -19.8210  -11.0983 O   0  0  0  0  0  0  0  0  0  0  0  0
   26.3769  -22.4268  -15.6134 N   0  0  0  0  0  0  0  0  0  0  0  0
   24.9615  -22.3446  -15.5240 C   0  0  0  0  0  0  0  0  0  0  0  0
   24.3718  -21.5522  -16.2936 O   0  0  0  0  0  0  0  0  0  0  0  0
   24.1634  -23.1448  -14.5729 C   0  0  0  0  0  0  0  0  0  0  0  0
   24.8785  -23.2239  -13.2737 C   0  0  0  0  0  0  0  0  0  0  0  0
   24.8352  -21.9451  -12.4751 C   0  0  2  0  0  0  0  0  0  0  0  0
   25.5954  -22.0700  -11.2320 N   0  0  0  0  0  0  0  0  0  0  0  0
   23.4396  -21.5294  -12.1754 C   0  0  0  0  0  0  0  0  0  0  0  0
   23.0009  -21.5625  -10.9791 O   0  0  0  0  0  0  0  0  0  0  0  0
   20.1973  -16.7858  -12.9184 C   0  0  0  0  0  0  0  0  0  0  0  0
   20.0810  -18.2717  -12.7810 C   0  0  0  0  0  0  0  0  0  0  0  0
   21.3873  -18.9802  -13.0752 C   0  0  2  0  0  0  0  0  0  0  0  0
   21.8579  -18.7310  -14.4797 C   0  0  0  0  0  0  0  0  0  0  0  0
   21.2620  -20.4738  -12.8671 C   0  0  2  0  0  0  0  0  0  0  0  0
   22.5573  -21.0891  -13.1809 N   0  0  0  0  0  0  0  0  0  0  0  0
   20.1852  -21.0676  -13.6647 C   0  0  0  0  0  0  0  0  0  0  0  0
   18.9915  -20.8258  -13.3660 O   0  0  0  0  0  0  0  0  0  0  0  0
   20.4630  -21.8814  -14.7302 O   0  0  0  0  0  0  0  0  0  0  0  0
  2  1  1  6
  2  3  1  0
  3  4  1  0
  4  5  2  0
  5  6  1  0
  7  6  1  0
  8  7  2  0
  9  8  1  0
 10 11  1  0
 10  9  2  0
 11 12  2  0
 12  4  1  0
 12  7  1  0
 13  2  1  0
 13 21  1  0
 14 13  2  0
 16 18  1  0
 16 15  1  0
 17 16  2  0
 19 18  1  0
 20 21  1  0
 20 19  1  1
 22 20  1  0
 23 22  2  0
 24 25  1  0
 26 25  1  0
 26 27  1  6
 26 28  1  0
 28 29  1  6
 29 22  1  0
 30 32  1  0
 30 28  1  0
 31 30  2  0
M  END
$$$$
