WQI.pdb
     RDKit          3D

 32 33  0  0  1  0  0  0  0  0999 V2000
   15.4569  -16.8205    3.5998 N   0  0  0  0  0  0  0  0  0  0  0  0
   15.7684  -17.9699    4.4652 C   0  0  1  0  0  0  0  0  0  0  0  0
   16.7548  -18.8511    3.8128 C   0  0  0  0  0  0  0  0  0  0  0  0
   16.2960  -19.8826    2.9213 C   0  0  0  0  0  0  0  0  0  0  0  0
   15.6202  -19.6364    1.7407 C   0  0  0  0  0  0  0  0  0  0  0  0
   15.3354  -20.7940    1.1542 N   0  0  0  0  0  0  0  0  0  0  0  0
   15.7897  -21.8259    1.8867 C   0  0  0  0  0  0  0  0  0  0  0  0
   15.7718  -23.1970    1.7586 C   0  0  0  0  0  0  0  0  0  0  0  0
   16.3506  -23.9754    2.7300 C   0  0  0  0  0  0  0  0  0  0  0  0
   16.9583  -23.4166    3.8468 C   0  0  0  0  0  0  0  0  0  0  0  0
   16.9758  -22.0529    3.9736 C   0  0  0  0  0  0  0  0  0  0  0  0
   16.3979  -21.2597    3.0050 C   0  0  0  0  0  0  0  0  0  0  0  0
   16.4662  -17.3797    5.6502 C   0  0  0  0  0  0  0  0  0  0  0  0
   16.9778  -16.2433    5.4864 O   0  0  0  0  0  0  0  0  0  0  0  0
   16.7450  -17.1982   13.0516 N   0  0  0  0  0  0  0  0  0  0  0  0
   16.5839  -17.7454   11.7507 C   0  0  0  0  0  0  0  0  0  0  0  0
   15.9441  -18.8162   11.6414 O   0  0  0  0  0  0  0  0  0  0  0  0
   17.1323  -17.1129   10.5337 C   0  0  0  0  0  0  0  0  0  0  0  0
   16.7027  -17.8854    9.3402 C   0  0  0  0  0  0  0  0  0  0  0  0
   17.1844  -17.3065    8.0334 C   0  0  2  0  0  0  0  0  0  0  0  0
   16.5816  -17.9964    6.8934 N   0  0  0  0  0  0  0  0  0  0  0  0
   18.6665  -17.3488    7.9247 C   0  0  0  0  0  0  0  0  0  0  0  0
   19.2299  -18.1584    7.1173 O   0  0  0  0  0  0  0  0  0  0  0  0
   21.4429  -12.7546    8.9938 C   0  0  0  0  0  0  0  0  0  0  0  0
   21.0672  -14.0477    8.3404 C   0  0  0  0  0  0  0  0  0  0  0  0
   21.5039  -15.2501    9.1520 C   0  0  2  0  0  0  0  0  0  0  0  0
   22.9998  -15.3583    9.2355 C   0  0  0  0  0  0  0  0  0  0  0  0
   20.9600  -16.5354    8.5672 C   0  0  2  0  0  0  0  0  0  0  0  0
   19.4978  -16.5124    8.6945 N   0  0  0  0  0  0  0  0  0  0  0  0
   21.5290  -17.7294    9.1986 C   0  0  0  0  0  0  0  0  0  0  0  0
   22.6584  -18.1385    8.8383 O   0  0  0  0  0  0  0  0  0  0  0  0
   20.8465  -18.4041   10.1752 O   0  0  0  0  0  0  0  0  0  0  0  0
  2  1  1  6
  2  3  1  0
  3  4  1  0
  4  5  2  0
  5  6  1  0
  7  6  1  0
  8  7  2  0
  9  8  1  0
 10 11  1  0
 10  9  2  0
 11 12  2  0
 12  4  1  0
 12  7  1  0
 13  2  1  0
 13 21  1  0
 14 13  2  0
 16 18  1  0
 16 15  1  0
 17 16  2  0
 19 18  1  0
 20 21  1  0
 20 19  1  1
 22 20  1  0
 23 22  2  0
 24 25  1  0
 26 25  1  0
 26 27  1  6
 26 28  1  0
 28 29  1  1
 29 22  1  0
 30 32  1  0
 30 28  1  0
 31 30  2  0
M  END
$$$$
