WQI.pdb
     RDKit          3D

 32 33  0  0  1  0  0  0  0  0999 V2000
   27.3278  -21.0861  -12.2263 N   0  0  0  0  0  0  0  0  0  0  0  0
   26.2740  -21.2967  -11.2203 C   0  0  1  0  0  0  0  0  0  0  0  0
   26.4850  -20.4080  -10.0623 C   0  0  0  0  0  0  0  0  0  0  0  0
   27.7041  -20.5143   -9.3063 C   0  0  0  0  0  0  0  0  0  0  0  0
   28.8649  -21.0866   -9.7922 C   0  0  0  0  0  0  0  0  0  0  0  0
   29.8023  -21.0315   -8.8523 N   0  0  0  0  0  0  0  0  0  0  0  0
   29.3299  -20.4434   -7.7393 C   0  0  0  0  0  0  0  0  0  0  0  0
   29.8498  -20.1350   -6.5019 C   0  0  0  0  0  0  0  0  0  0  0  0
   29.0570  -19.5117   -5.5706 C   0  0  0  0  0  0  0  0  0  0  0  0
   27.7358  -19.1802   -5.8416 C   0  0  0  0  0  0  0  0  0  0  0  0
   27.2193  -19.4872   -7.0725 C   0  0  0  0  0  0  0  0  0  0  0  0
   28.0051  -20.1134   -8.0169 C   0  0  0  0  0  0  0  0  0  0  0  0
   25.0161  -20.8223  -11.8775 C   0  0  0  0  0  0  0  0  0  0  0  0
   24.8210  -19.5806  -11.8761 O   0  0  0  0  0  0  0  0  0  0  0  0
   22.8004  -18.0397  -14.3633 N   0  0  0  0  0  0  0  0  0  0  0  0
   21.8867  -18.8011  -15.1401 C   0  0  0  0  0  0  0  0  0  0  0  0
   20.9306  -18.1970  -15.6775 O   0  0  0  0  0  0  0  0  0  0  0  0
   22.0140  -20.2591  -15.3395 C   0  0  0  0  0  0  0  0  0  0  0  0
   23.1911  -20.7590  -14.5844 C   0  0  0  0  0  0  0  0  0  0  0  0
   22.8921  -21.1029  -13.1466 C   0  0  2  0  0  0  0  0  0  0  0  0
   24.0705  -21.6510  -12.4761 N   0  0  0  0  0  0  0  0  0  0  0  0
   21.7560  -22.0550  -13.0324 C   0  0  0  0  0  0  0  0  0  0  0  0
   21.8748  -23.2524  -13.4532 O   0  0  0  0  0  0  0  0  0  0  0  0
   19.1686  -23.3950   -8.6942 C   0  0  0  0  0  0  0  0  0  0  0  0
   19.6823  -23.4056  -10.1000 C   0  0  0  0  0  0  0  0  0  0  0  0
   18.8051  -22.6029  -11.0388 C   0  0  2  0  0  0  0  0  0  0  0  0
   17.4021  -23.1367  -11.0909 C   0  0  0  0  0  0  0  0  0  0  0  0
   19.3686  -22.5914  -12.4431 C   0  0  2  0  0  0  0  0  0  0  0  0
   20.5218  -21.6833  -12.4652 N   0  0  0  0  0  0  0  0  0  0  0  0
   18.3731  -22.2098  -13.4489 C   0  0  0  0  0  0  0  0  0  0  0  0
   18.1139  -20.9963  -13.6302 O   0  0  0  0  0  0  0  0  0  0  0  0
   17.7228  -23.1576  -14.1929 O   0  0  0  0  0  0  0  0  0  0  0  0
  2  1  1  6
  2  3  1  0
  3  4  1  0
  4  5  2  0
  5  6  1  0
  7  6  1  0
  8  7  2  0
  9  8  1  0
 10 11  1  0
 10  9  2  0
 11 12  2  0
 12  4  1  0
 12  7  1  0
 13  2  1  0
 13 21  1  0
 14 13  2  0
 16 18  1  0
 16 15  1  0
 17 16  2  0
 19 18  1  0
 20 21  1  0
 20 19  1  6
 22 20  1  0
 23 22  2  0
 24 25  1  0
 26 25  1  0
 26 27  1  6
 26 28  1  0
 28 29  1  1
 29 22  1  0
 30 32  1  0
 30 28  1  0
 31 30  2  0
M  END
$$$$
