WQI.pdb
     RDKit          3D

 32 33  0  0  1  0  0  0  0  0999 V2000
   22.3474  -19.6838  -17.4266 N   0  0  0  0  0  0  0  0  0  0  0  0
   22.5668  -18.9265  -16.1835 C   0  0  1  0  0  0  0  0  0  0  0  0
   21.4497  -19.1450  -15.2456 C   0  0  0  0  0  0  0  0  0  0  0  0
   20.2774  -18.3170  -15.3421 C   0  0  0  0  0  0  0  0  0  0  0  0
   19.4166  -18.3230  -16.4237 C   0  0  0  0  0  0  0  0  0  0  0  0
   18.4403  -17.4484  -16.2061 N   0  0  0  0  0  0  0  0  0  0  0  0
   18.5976  -16.8420  -15.0165 C   0  0  0  0  0  0  0  0  0  0  0  0
   17.9052  -15.8842  -14.3096 C   0  0  0  0  0  0  0  0  0  0  0  0
   18.3667  -15.4844  -13.0801 C   0  0  0  0  0  0  0  0  0  0  0  0
   19.5204  -16.0215  -12.5239 C   0  0  0  0  0  0  0  0  0  0  0  0
   20.2086  -16.9741  -13.2275 C   0  0  0  0  0  0  0  0  0  0  0  0
   19.7557  -17.3843  -14.4635 C   0  0  0  0  0  0  0  0  0  0  0  0
   23.7636  -19.5650  -15.5516 C   0  0  0  0  0  0  0  0  0  0  0  0
   23.6628  -20.7873  -15.2765 O   0  0  0  0  0  0  0  0  0  0  0  0
   28.3599  -21.7543  -15.2081 N   0  0  0  0  0  0  0  0  0  0  0  0
   28.0256  -21.1522  -16.4505 C   0  0  0  0  0  0  0  0  0  0  0  0
   28.0353  -21.8755  -17.4727 O   0  0  0  0  0  0  0  0  0  0  0  0
   27.6705  -19.7250  -16.5880 C   0  0  0  0  0  0  0  0  0  0  0  0
   27.3934  -19.1544  -15.2451 C   0  0  0  0  0  0  0  0  0  0  0  0
   26.0840  -19.6069  -14.6488 C   0  0  2  0  0  0  0  0  0  0  0  0
   24.9538  -18.9051  -15.2562 N   0  0  0  0  0  0  0  0  0  0  0  0
   26.0584  -19.4258  -13.1734 C   0  0  0  0  0  0  0  0  0  0  0  0
   26.0587  -18.2555  -12.6684 O   0  0  0  0  0  0  0  0  0  0  0  0
   23.0804  -22.2965   -9.6294 C   0  0  0  0  0  0  0  0  0  0  0  0
   24.4114  -22.0396  -10.2638 C   0  0  0  0  0  0  0  0  0  0  0  0
   24.8009  -20.5765  -10.2106 C   0  0  2  0  0  0  0  0  0  0  0  0
   23.8001  -19.7028  -10.9115 C   0  0  0  0  0  0  0  0  0  0  0  0
   26.1607  -20.3463  -10.8331 C   0  0  2  0  0  0  0  0  0  0  0  0
   26.0335  -20.5185  -12.2853 N   0  0  0  0  0  0  0  0  0  0  0  0
   27.1920  -21.2301  -10.2822 C   0  0  0  0  0  0  0  0  0  0  0  0
   27.6909  -22.1228  -11.0080 O   0  0  0  0  0  0  0  0  0  0  0  0
   27.6185  -21.0957   -8.9881 O   0  0  0  0  0  0  0  0  0  0  0  0
  2  1  1  6
  2  3  1  0
  3  4  1  0
  4  5  2  0
  5  6  1  0
  7  6  1  0
  8  7  2  0
  9  8  1  0
 10 11  1  0
 10  9  2  0
 11 12  2  0
 12  4  1  0
 12  7  1  0
 13  2  1  0
 13 21  1  0
 14 13  2  0
 16 18  1  0
 16 15  1  0
 17 16  2  0
 19 18  1  0
 20 21  1  0
 20 19  1  6
 22 20  1  0
 23 22  2  0
 24 25  1  0
 26 25  1  0
 26 27  1  6
 26 28  1  0
 28 29  1  6
 29 22  1  0
 30 32  1  0
 30 28  1  0
 31 30  2  0
M  END
$$$$
