WQI.pdb
     RDKit          3D

 32 33  0  0  1  0  0  0  0  0999 V2000
   26.2302  -23.3970  -15.8332 N   0  0  0  0  0  0  0  0  0  0  0  0
   26.6373  -22.4593  -14.7741 C   0  0  1  0  0  0  0  0  0  0  0  0
   27.0392  -21.1667  -15.3597 C   0  0  0  0  0  0  0  0  0  0  0  0
   28.3510  -20.6457  -15.0822 C   0  0  0  0  0  0  0  0  0  0  0  0
   29.1834  -20.1021  -16.0428 C   0  0  0  0  0  0  0  0  0  0  0  0
   30.3175  -19.7179  -15.4671 N   0  0  0  0  0  0  0  0  0  0  0  0
   30.2960  -19.9768  -14.1479 C   0  0  0  0  0  0  0  0  0  0  0  0
   31.1734  -19.7933  -13.1023 C   0  0  0  0  0  0  0  0  0  0  0  0
   30.8128  -20.1894  -11.8384 C   0  0  0  0  0  0  0  0  0  0  0  0
   29.5796  -20.7742  -11.5810 C   0  0  0  0  0  0  0  0  0  0  0  0
   28.7075  -20.9564  -12.6213 C   0  0  0  0  0  0  0  0  0  0  0  0
   29.0575  -20.5631  -13.8957 C   0  0  0  0  0  0  0  0  0  0  0  0
   25.3854  -22.1875  -14.0006 C   0  0  0  0  0  0  0  0  0  0  0  0
   24.3121  -22.5848  -14.5203 O   0  0  0  0  0  0  0  0  0  0  0  0
   24.7713  -20.5358   -7.9281 N   0  0  0  0  0  0  0  0  0  0  0  0
   23.4314  -20.6275   -8.3908 C   0  0  0  0  0  0  0  0  0  0  0  0
   22.5128  -20.5435   -7.5439 O   0  0  0  0  0  0  0  0  0  0  0  0
   23.0779  -20.8157   -9.8127 C   0  0  0  0  0  0  0  0  0  0  0  0
   24.3196  -20.9603  -10.6144 C   0  0  0  0  0  0  0  0  0  0  0  0
   24.0771  -21.3714  -12.0452 C   0  0  2  0  0  0  0  0  0  0  0  0
   25.3364  -21.5371  -12.7702 N   0  0  0  0  0  0  0  0  0  0  0  0
   23.2067  -20.3996  -12.7580 C   0  0  0  0  0  0  0  0  0  0  0  0
   23.7217  -19.4608  -13.4496 O   0  0  0  0  0  0  0  0  0  0  0  0
   20.7740  -21.6789  -16.7724 C   0  0  0  0  0  0  0  0  0  0  0  0
   20.6071  -21.3356  -15.3252 C   0  0  0  0  0  0  0  0  0  0  0  0
   21.1912  -19.9798  -14.9848 C   0  0  2  0  0  0  0  0  0  0  0  0
   22.6696  -19.9237  -15.2444 C   0  0  0  0  0  0  0  0  0  0  0  0
   20.9427  -19.6220  -13.5357 C   0  0  2  0  0  0  0  0  0  0  0  0
   21.8014  -20.4717  -12.7016 N   0  0  0  0  0  0  0  0  0  0  0  0
   19.5339  -19.7540  -13.1539 C   0  0  0  0  0  0  0  0  0  0  0  0
   19.2085  -20.5890  -12.2767 O   0  0  0  0  0  0  0  0  0  0  0  0
   18.5685  -18.9799  -13.7402 O   0  0  0  0  0  0  0  0  0  0  0  0
  2  1  1  6
  2  3  1  0
  3  4  1  0
  4  5  2  0
  5  6  1  0
  7  6  1  0
  8  7  2  0
  9  8  1  0
 10 11  1  0
 10  9  2  0
 11 12  2  0
 12  4  1  0
 12  7  1  0
 13  2  1  0
 13 21  1  0
 14 13  2  0
 16 18  1  0
 16 15  1  0
 17 16  2  0
 19 18  1  0
 20 21  1  0
 20 19  1  1
 22 20  1  0
 23 22  2  0
 24 25  1  0
 26 25  1  0
 26 27  1  1
 26 28  1  0
 28 29  1  1
 29 22  1  0
 30 32  1  0
 30 28  1  0
 31 30  2  0
M  END
$$$$
