WQI.pdb
     RDKit          3D

 32 33  0  0  1  0  0  0  0  0999 V2000
   25.6285  -18.2889  -17.4163 N   0  0  0  0  0  0  0  0  0  0  0  0
   25.5539  -17.7731  -16.0397 C   0  0  1  0  0  0  0  0  0  0  0  0
   24.5924  -16.6575  -15.9610 C   0  0  0  0  0  0  0  0  0  0  0  0
   24.9363  -15.3892  -16.5463 C   0  0  0  0  0  0  0  0  0  0  0  0
   24.1678  -14.7462  -17.4986 C   0  0  0  0  0  0  0  0  0  0  0  0
   24.7584  -13.6043  -17.8341 N   0  0  0  0  0  0  0  0  0  0  0  0
   25.9032  -13.4385  -17.1488 C   0  0  0  0  0  0  0  0  0  0  0  0
   26.8819  -12.4707  -17.1021 C   0  0  0  0  0  0  0  0  0  0  0  0
   27.9518  -12.6299  -16.2568 C   0  0  0  0  0  0  0  0  0  0  0  0
   28.0772  -13.7469  -15.4410 C   0  0  0  0  0  0  0  0  0  0  0  0
   27.1035  -14.7091  -15.4880 C   0  0  0  0  0  0  0  0  0  0  0  0
   26.0239  -14.5613  -16.3328 C   0  0  0  0  0  0  0  0  0  0  0  0
   24.9532  -18.8890  -15.2440 C   0  0  0  0  0  0  0  0  0  0  0  0
   24.2585  -19.7183  -15.8839 O   0  0  0  0  0  0  0  0  0  0  0  0
   26.7023  -20.6409   -9.5177 N   0  0  0  0  0  0  0  0  0  0  0  0
   27.4038  -20.8368  -10.7373 C   0  0  0  0  0  0  0  0  0  0  0  0
   28.6274  -21.0954  -10.6734 O   0  0  0  0  0  0  0  0  0  0  0  0
   26.7598  -20.7496  -12.0637 C   0  0  0  0  0  0  0  0  0  0  0  0
   25.3071  -20.4945  -11.8906 C   0  0  0  0  0  0  0  0  0  0  0  0
   24.5751  -20.2357  -13.1837 C   0  0  2  0  0  0  0  0  0  0  0  0
   25.1120  -19.0618  -13.8713 N   0  0  0  0  0  0  0  0  0  0  0  0
   23.1137  -20.0707  -12.9664 C   0  0  0  0  0  0  0  0  0  0  0  0
   22.6466  -18.9618  -12.5456 O   0  0  0  0  0  0  0  0  0  0  0  0
   17.9771  -20.6306  -15.6798 C   0  0  0  0  0  0  0  0  0  0  0  0
   18.6118  -20.7814  -14.3326 C   0  0  0  0  0  0  0  0  0  0  0  0
   20.1159  -20.9392  -14.4201 C   0  0  2  0  0  0  0  0  0  0  0  0
   20.5079  -22.2080  -15.1222 C   0  0  0  0  0  0  0  0  0  0  0  0
   20.7505  -20.9330  -13.0465 C   0  0  2  0  0  0  0  0  0  0  0  0
   22.1981  -21.1124  -13.2111 N   0  0  0  0  0  0  0  0  0  0  0  0
   20.1869  -21.9537  -12.1585 C   0  0  0  0  0  0  0  0  0  0  0  0
   20.8143  -23.0234  -11.9722 O   0  0  0  0  0  0  0  0  0  0  0  0
   18.9866  -21.7569  -11.5296 O   0  0  0  0  0  0  0  0  0  0  0  0
  2  1  1  6
  2  3  1  0
  3  4  1  0
  4  5  2  0
  5  6  1  0
  7  6  1  0
  8  7  2  0
  9  8  1  0
 10 11  1  0
 10  9  2  0
 11 12  2  0
 12  4  1  0
 12  7  1  0
 13  2  1  0
 13 21  1  0
 14 13  2  0
 16 18  1  0
 16 15  1  0
 17 16  2  0
 19 18  1  0
 20 21  1  0
 20 19  1  1
 22 20  1  0
 23 22  2  0
 24 25  1  0
 26 25  1  0
 26 27  1  1
 26 28  1  0
 28 29  1  6
 29 22  1  0
 30 32  1  0
 30 28  1  0
 31 30  2  0
M  END
$$$$
