WQI.pdb
     RDKit          3D

 32 33  0  0  1  0  0  0  0  0999 V2000
   27.6503  -20.7074  -16.1359 N   0  0  0  0  0  0  0  0  0  0  0  0
   27.1973  -21.4946  -14.9774 C   0  0  1  0  0  0  0  0  0  0  0  0
   26.9772  -20.6153  -13.8140 C   0  0  0  0  0  0  0  0  0  0  0  0
   28.1104  -20.0236  -13.1544 C   0  0  0  0  0  0  0  0  0  0  0  0
   28.4432  -18.6850  -13.2463 C   0  0  0  0  0  0  0  0  0  0  0  0
   29.5380  -18.4598  -12.5278 N   0  0  0  0  0  0  0  0  0  0  0  0
   29.9698  -19.5924  -11.9461 C   0  0  0  0  0  0  0  0  0  0  0  0
   31.0210  -19.9274  -11.1219 C   0  0  0  0  0  0  0  0  0  0  0  0
   31.1654  -21.2267  -10.7027 C   0  0  0  0  0  0  0  0  0  0  0  0
   30.2756  -22.2209  -11.0885 C   0  0  0  0  0  0  0  0  0  0  0  0
   29.2304  -21.8870  -11.9083 C   0  0  0  0  0  0  0  0  0  0  0  0
   29.0742  -20.5857  -12.3364 C   0  0  0  0  0  0  0  0  0  0  0  0
   25.8459  -22.0063  -15.3663 C   0  0  0  0  0  0  0  0  0  0  0  0
   25.0453  -21.1610  -15.8400 O   0  0  0  0  0  0  0  0  0  0  0  0
   23.8500  -27.9334  -16.1271 N   0  0  0  0  0  0  0  0  0  0  0  0
   24.3339  -27.1069  -17.1762 C   0  0  0  0  0  0  0  0  0  0  0  0
   24.6684  -27.6590  -18.2492 O   0  0  0  0  0  0  0  0  0  0  0  0
   24.4584  -25.6398  -17.0580 C   0  0  0  0  0  0  0  0  0  0  0  0
   23.9316  -25.2050  -15.7393 C   0  0  0  0  0  0  0  0  0  0  0  0
   24.0445  -23.7206  -15.4969 C   0  0  2  0  0  0  0  0  0  0  0  0
   25.4298  -23.3291  -15.2388 N   0  0  0  0  0  0  0  0  0  0  0  0
   23.1758  -23.2776  -14.3747 C   0  0  0  0  0  0  0  0  0  0  0  0
   23.4484  -23.6173  -13.1768 O   0  0  0  0  0  0  0  0  0  0  0  0
   21.1083  -18.9361  -11.3028 C   0  0  0  0  0  0  0  0  0  0  0  0
   20.6711  -20.2563  -11.8563 C   0  0  0  0  0  0  0  0  0  0  0  0
   21.5906  -20.7527  -12.9532 C   0  0  2  0  0  0  0  0  0  0  0  0
   21.6667  -19.7880  -14.1020 C   0  0  0  0  0  0  0  0  0  0  0  0
   21.1401  -22.0969  -13.4821 C   0  0  2  0  0  0  0  0  0  0  0  0
   22.0348  -22.4785  -14.5816 N   0  0  0  0  0  0  0  0  0  0  0  0
   19.7395  -22.0943  -13.9142 C   0  0  0  0  0  0  0  0  0  0  0  0
   18.8289  -22.0438  -13.0534 O   0  0  0  0  0  0  0  0  0  0  0  0
   19.4109  -22.1458  -15.2424 O   0  0  0  0  0  0  0  0  0  0  0  0
  2  1  1  6
  2  3  1  0
  3  4  1  0
  4  5  2  0
  5  6  1  0
  7  6  1  0
  8  7  2  0
  9  8  1  0
 10 11  1  0
 10  9  2  0
 11 12  2  0
 12  4  1  0
 12  7  1  0
 13  2  1  0
 13 21  1  0
 14 13  2  0
 16 18  1  0
 16 15  1  0
 17 16  2  0
 19 18  1  0
 20 21  1  0
 20 19  1  1
 22 20  1  0
 23 22  2  0
 24 25  1  0
 26 25  1  0
 26 27  1  6
 26 28  1  0
 28 29  1  6
 29 22  1  0
 30 32  1  0
 30 28  1  0
 31 30  2  0
M  END
$$$$
