WQI.pdb
     RDKit          3D

 32 33  0  0  1  0  0  0  0  0999 V2000
   26.2469  -22.4888  -12.5649 N   0  0  0  0  0  0  0  0  0  0  0  0
   25.3847  -21.7846  -11.6017 C   0  0  1  0  0  0  0  0  0  0  0  0
   25.9652  -20.4735  -11.2563 C   0  0  0  0  0  0  0  0  0  0  0  0
   26.5009  -20.2663   -9.9375 C   0  0  0  0  0  0  0  0  0  0  0  0
   25.7652  -19.7747   -8.8753 C   0  0  0  0  0  0  0  0  0  0  0  0
   26.5471  -19.6996   -7.8037 N   0  0  0  0  0  0  0  0  0  0  0  0
   27.7916  -20.1207   -8.0893 C   0  0  0  0  0  0  0  0  0  0  0  0
   28.9649  -20.2518   -7.3801 C   0  0  0  0  0  0  0  0  0  0  0  0
   30.0864  -20.7321   -8.0094 C   0  0  0  0  0  0  0  0  0  0  0  0
   30.0726  -21.0924   -9.3506 C   0  0  0  0  0  0  0  0  0  0  0  0
   28.9054  -20.9618  -10.0553 C   0  0  0  0  0  0  0  0  0  0  0  0
   27.7719  -20.4805   -9.4351 C   0  0  0  0  0  0  0  0  0  0  0  0
   24.1268  -21.4901  -12.3569 C   0  0  0  0  0  0  0  0  0  0  0  0
   24.2327  -21.4127  -13.6070 O   0  0  0  0  0  0  0  0  0  0  0  0
   19.8914  -23.9337  -13.1065 N   0  0  0  0  0  0  0  0  0  0  0  0
   18.9973  -22.8384  -13.2431 C   0  0  0  0  0  0  0  0  0  0  0  0
   18.0192  -22.9740  -14.0131 O   0  0  0  0  0  0  0  0  0  0  0  0
   19.1690  -21.5596  -12.5239 C   0  0  0  0  0  0  0  0  0  0  0  0
   20.4410  -21.5917  -11.7581 C   0  0  0  0  0  0  0  0  0  0  0  0
   21.6581  -21.2557  -12.5833 C   0  0  2  0  0  0  0  0  0  0  0  0
   22.8760  -21.3006  -11.7749 N   0  0  0  0  0  0  0  0  0  0  0  0
   21.5320  -19.9256  -13.2352 C   0  0  0  0  0  0  0  0  0  0  0  0
   21.6286  -18.8585  -12.5446 O   0  0  0  0  0  0  0  0  0  0  0  0
   24.3415  -18.9005  -17.0451 C   0  0  0  0  0  0  0  0  0  0  0  0
   23.4209  -18.2321  -16.0725 C   0  0  0  0  0  0  0  0  0  0  0  0
   21.9649  -18.3799  -16.4641 C   0  0  2  0  0  0  0  0  0  0  0  0
   21.4909  -17.2317  -17.3086 C   0  0  0  0  0  0  0  0  0  0  0  0
   21.0748  -18.4806  -15.2446 C   0  0  2  0  0  0  0  0  0  0  0  0
   21.3044  -19.7882  -14.6181 N   0  0  0  0  0  0  0  0  0  0  0  0
   19.6572  -18.2854  -15.5614 C   0  0  0  0  0  0  0  0  0  0  0  0
   18.9850  -19.2492  -15.9993 O   0  0  0  0  0  0  0  0  0  0  0  0
   19.0564  -17.0676  -15.3863 O   0  0  0  0  0  0  0  0  0  0  0  0
  2  1  1  6
  2  3  1  0
  3  4  1  0
  4  5  2  0
  5  6  1  0
  7  6  1  0
  8  7  2  0
  9  8  1  0
 10 11  1  0
 10  9  2  0
 11 12  2  0
 12  4  1  0
 12  7  1  0
 13  2  1  0
 13 21  1  0
 14 13  2  0
 16 18  1  0
 16 15  1  0
 17 16  2  0
 19 18  1  0
 20 21  1  0
 20 19  1  1
 22 20  1  0
 23 22  2  0
 24 25  1  0
 26 25  1  0
 26 27  1  1
 26 28  1  0
 28 29  1  6
 29 22  1  0
 30 32  1  0
 30 28  1  0
 31 30  2  0
M  END
$$$$
