WQI.pdb
     RDKit          3D

 32 33  0  0  1  0  0  0  0  0999 V2000
   26.3077  -19.3518  -16.1479 N   0  0  0  0  0  0  0  0  0  0  0  0
   27.4252  -19.0087  -15.2534 C   0  0  1  0  0  0  0  0  0  0  0  0
   27.2629  -17.6389  -14.7313 C   0  0  0  0  0  0  0  0  0  0  0  0
   27.4943  -16.5204  -15.6056 C   0  0  0  0  0  0  0  0  0  0  0  0
   26.6967  -15.3917  -15.6408 C   0  0  0  0  0  0  0  0  0  0  0  0
   27.1746  -14.5509  -16.5519 N   0  0  0  0  0  0  0  0  0  0  0  0
   28.2697  -15.0589  -17.1439 C   0  0  0  0  0  0  0  0  0  0  0  0
   29.1375  -14.6306  -18.1237 C   0  0  0  0  0  0  0  0  0  0  0  0
   30.1867  -15.4332  -18.4970 C   0  0  0  0  0  0  0  0  0  0  0  0
   30.4005  -16.6741  -17.9109 C   0  0  0  0  0  0  0  0  0  0  0  0
   29.5370  -17.0995  -16.9365 C   0  0  0  0  0  0  0  0  0  0  0  0
   28.4791  -16.3029  -16.5526 C   0  0  0  0  0  0  0  0  0  0  0  0
   27.2667  -19.9180  -14.0755 C   0  0  0  0  0  0  0  0  0  0  0  0
   26.1338  -20.4408  -13.9238 O   0  0  0  0  0  0  0  0  0  0  0  0
   31.5166  -21.8763   -9.7013 N   0  0  0  0  0  0  0  0  0  0  0  0
   31.5291  -22.1705  -11.0910 C   0  0  0  0  0  0  0  0  0  0  0  0
   32.5672  -22.6795  -11.5720 O   0  0  0  0  0  0  0  0  0  0  0  0
   30.3830  -21.9051  -11.9842 C   0  0  0  0  0  0  0  0  0  0  0  0
   29.2785  -21.2951  -11.2009 C   0  0  0  0  0  0  0  0  0  0  0  0
   28.0187  -21.0677  -11.9986 C   0  0  2  0  0  0  0  0  0  0  0  0
   28.2721  -20.2138  -13.1585 N   0  0  0  0  0  0  0  0  0  0  0  0
   26.9368  -20.4808  -11.1647 C   0  0  0  0  0  0  0  0  0  0  0  0
   26.8680  -19.2195  -10.9940 O   0  0  0  0  0  0  0  0  0  0  0  0
   22.2382  -21.0437  -12.4821 C   0  0  0  0  0  0  0  0  0  0  0  0
   23.4587  -20.5425  -11.7753 C   0  0  0  0  0  0  0  0  0  0  0  0
   23.5603  -21.0704  -10.3589 C   0  0  2  0  0  0  0  0  0  0  0  0
   22.4506  -20.5566   -9.4868 C   0  0  0  0  0  0  0  0  0  0  0  0
   24.8828  -20.6962   -9.7260 C   0  0  2  0  0  0  0  0  0  0  0  0
   25.9587  -21.2773  -10.5384 N   0  0  0  0  0  0  0  0  0  0  0  0
   24.9825  -21.1252   -8.3281 C   0  0  0  0  0  0  0  0  0  0  0  0
   24.5882  -20.3577   -7.4181 O   0  0  0  0  0  0  0  0  0  0  0  0
   25.4990  -22.3505   -8.0013 O   0  0  0  0  0  0  0  0  0  0  0  0
  2  1  1  6
  2  3  1  0
  3  4  1  0
  4  5  2  0
  5  6  1  0
  7  6  1  0
  8  7  2  0
  9  8  1  0
 10 11  1  0
 10  9  2  0
 11 12  2  0
 12  4  1  0
 12  7  1  0
 13  2  1  0
 13 21  1  0
 14 13  2  0
 16 18  1  0
 16 15  1  0
 17 16  2  0
 19 18  1  0
 20 21  1  0
 20 19  1  1
 22 20  1  0
 23 22  2  0
 24 25  1  0
 26 25  1  0
 26 27  1  1
 26 28  1  0
 28 29  1  6
 29 22  1  0
 30 32  1  0
 30 28  1  0
 31 30  2  0
M  END
$$$$
