IYI.pdb
     RDKit          3D

 29 29  0  0  1  0  0  0  0  0999 V2000
    9.1662  -12.7730   18.5716 C   0  0  0  0  0  0  0  0  0  0  0  0
    7.9593  -13.5515   18.1183 C   0  0  0  0  0  0  0  0  0  0  0  0
    7.2885  -14.1299   19.3470 C   0  0  2  0  0  0  0  0  0  0  0  0
    7.4539  -13.1649   20.4744 C   0  0  0  0  0  0  0  0  0  0  0  0
    7.8983  -15.4807   19.6106 C   0  0  2  0  0  0  0  0  0  0  0  0
    7.6260  -16.3323   18.4754 N   0  0  0  0  0  0  0  0  0  0  0  0
    7.4522  -16.0921   20.8634 C   0  0  0  0  0  0  0  0  0  0  0  0
    6.2699  -16.4723   20.9989 O   0  0  0  0  0  0  0  0  0  0  0  0
    7.6133  -20.6249   28.4290 O   0  0  0  0  0  0  0  0  0  0  0  0
    7.8157  -20.0102   27.1978 C   0  0  0  0  0  0  0  0  0  0  0  0
    9.0559  -19.5429   26.8495 C   0  0  0  0  0  0  0  0  0  0  0  0
    9.2385  -18.9368   25.6266 C   0  0  0  0  0  0  0  0  0  0  0  0
    8.2363  -18.7598   24.6990 C   0  0  0  0  0  0  0  0  0  0  0  0
    8.4445  -18.1111   23.3966 C   0  0  0  0  0  0  0  0  0  0  0  0
    7.9664  -16.7026   23.2692 C   0  0  2  0  0  0  0  0  0  0  0  0
    8.3846  -16.2445   21.9182 N   0  0  0  0  0  0  0  0  0  0  0  0
    8.4617  -15.7448   24.2668 C   0  0  0  0  0  0  0  0  0  0  0  0
    9.6791  -15.3502   24.1063 O   0  0  0  0  0  0  0  0  0  0  0  0
    6.9797  -19.2473   25.0826 C   0  0  0  0  0  0  0  0  0  0  0  0
    6.7946  -19.8501   26.2969 C   0  0  0  0  0  0  0  0  0  0  0  0
    5.4993  -11.8387   26.6438 C   0  0  0  0  0  0  0  0  0  0  0  0
    6.5725  -12.6078   25.8698 C   0  0  0  0  0  0  0  0  0  0  0  0
    7.4017  -13.3241   26.8788 C   0  0  2  0  0  0  0  0  0  0  0  0
    8.1634  -12.3486   27.7422 C   0  0  0  0  0  0  0  0  0  0  0  0
    8.3797  -14.3064   26.2569 C   0  0  2  0  0  0  0  0  0  0  0  0
    7.7272  -15.2237   25.3648 N   0  0  0  0  0  0  0  0  0  0  0  0
    9.1833  -14.9855   27.2965 C   0  0  0  0  0  0  0  0  0  0  0  0
    8.7820  -16.0278   27.8453 O   0  0  0  0  0  0  0  0  0  0  0  0
   10.4206  -14.4998   27.7134 O   0  0  0  0  0  0  0  0  0  0  0  0
  2  1  1  0
  3  2  1  0
  3  4  1  1
  5  3  1  0
  5  6  1  6
  7  8  2  0
  7  5  1  0
  9 10  1  0
 10 11  2  0
 11 12  1  0
 13 14  1  0
 13 12  2  0
 15 14  1  1
 15 16  1  0
 16  7  1  0
 17 26  1  0
 17 15  1  0
 18 17  2  0
 19 13  1  0
 20 19  2  0
 20 10  1  0
 21 22  1  0
 22 23  1  0
 23 25  1  0
 23 24  1  6
 25 27  1  0
 25 26  1  1
 27 29  1  0
 28 27  2  0
M  END
$$$$
