IYI.pdb
     RDKit          3D

 29 29  0  0  1  0  0  0  0  0999 V2000
    7.1095  -12.0945   18.9977 C   0  0  0  0  0  0  0  0  0  0  0  0
    7.6794  -13.4860   18.9138 C   0  0  0  0  0  0  0  0  0  0  0  0
    7.8301  -14.0146   20.3252 C   0  0  2  0  0  0  0  0  0  0  0  0
    8.6404  -13.0378   21.1118 C   0  0  0  0  0  0  0  0  0  0  0  0
    8.4475  -15.3847   20.2395 C   0  0  2  0  0  0  0  0  0  0  0  0
    7.4120  -16.3294   19.8885 N   0  0  0  0  0  0  0  0  0  0  0  0
    9.1555  -15.7870   21.4557 C   0  0  0  0  0  0  0  0  0  0  0  0
   10.2003  -15.1988   21.8064 O   0  0  0  0  0  0  0  0  0  0  0  0
    9.7555  -22.5560   19.7614 O   0  0  0  0  0  0  0  0  0  0  0  0
    9.9370  -21.4500   20.5851 C   0  0  0  0  0  0  0  0  0  0  0  0
   10.7016  -20.3915   20.1695 C   0  0  0  0  0  0  0  0  0  0  0  0
   10.8708  -19.3045   20.9977 C   0  0  0  0  0  0  0  0  0  0  0  0
   10.3113  -19.1988   22.2515 C   0  0  0  0  0  0  0  0  0  0  0  0
   10.4996  -18.0325   23.1259 C   0  0  0  0  0  0  0  0  0  0  0  0
    9.2688  -17.2766   23.5036 C   0  0  2  0  0  0  0  0  0  0  0  0
    8.6348  -16.8545   22.2269 N   0  0  0  0  0  0  0  0  0  0  0  0
    9.4563  -16.0920   24.3519 C   0  0  0  0  0  0  0  0  0  0  0  0
   10.6173  -15.5342   24.2841 O   0  0  0  0  0  0  0  0  0  0  0  0
    9.5351  -20.2957   22.6493 C   0  0  0  0  0  0  0  0  0  0  0  0
    9.3648  -21.3774   21.8289 C   0  0  0  0  0  0  0  0  0  0  0  0
    6.0400  -12.1297   25.8970 C   0  0  0  0  0  0  0  0  0  0  0  0
    7.1794  -13.0135   25.3844 C   0  0  0  0  0  0  0  0  0  0  0  0
    7.8546  -13.5848   26.5830 C   0  0  2  0  0  0  0  0  0  0  0  0
    8.4677  -12.4951   27.4280 C   0  0  0  0  0  0  0  0  0  0  0  0
    8.9249  -14.6050   26.2340 C   0  0  2  0  0  0  0  0  0  0  0  0
    8.4863  -15.5185   25.2161 N   0  0  0  0  0  0  0  0  0  0  0  0
    9.4224  -15.2888   27.4476 C   0  0  0  0  0  0  0  0  0  0  0  0
    8.9042  -16.3454   27.8523 O   0  0  0  0  0  0  0  0  0  0  0  0
   10.4872  -14.7919   28.1958 O   0  0  0  0  0  0  0  0  0  0  0  0
  2  1  1  0
  3  2  1  0
  3  4  1  1
  5  3  1  0
  5  6  1  1
  7  8  2  0
  7  5  1  0
  9 10  1  0
 10 11  2  0
 11 12  1  0
 13 14  1  0
 13 12  2  0
 15 14  1  6
 15 16  1  0
 16  7  1  0
 17 26  1  0
 17 15  1  0
 18 17  2  0
 19 13  1  0
 20 19  2  0
 20 10  1  0
 21 22  1  0
 22 23  1  0
 23 25  1  0
 23 24  1  6
 25 27  1  0
 25 26  1  6
 27 29  1  0
 28 27  2  0
M  END
$$$$
