IYI.pdb
     RDKit          3D

 29 29  0  0  1  0  0  0  0  0999 V2000
    7.1124  -13.2729   17.4643 C   0  0  0  0  0  0  0  0  0  0  0  0
    8.0788  -14.1174   18.2522 C   0  0  0  0  0  0  0  0  0  0  0  0
    7.4685  -14.3776   19.6139 C   0  0  2  0  0  0  0  0  0  0  0  0
    7.2185  -13.0642   20.2786 C   0  0  0  0  0  0  0  0  0  0  0  0
    8.4086  -15.2735   20.3753 C   0  0  2  0  0  0  0  0  0  0  0  0
    8.6006  -16.4853   19.6121 N   0  0  0  0  0  0  0  0  0  0  0  0
    7.9692  -15.5600   21.7418 C   0  0  0  0  0  0  0  0  0  0  0  0
    7.5108  -14.6507   22.4653 O   0  0  0  0  0  0  0  0  0  0  0  0
    7.4057  -20.8704   28.9853 O   0  0  0  0  0  0  0  0  0  0  0  0
    7.5257  -20.3424   27.7040 C   0  0  0  0  0  0  0  0  0  0  0  0
    8.7575  -20.0203   27.1974 C   0  0  0  0  0  0  0  0  0  0  0  0
    8.8582  -19.4985   25.9270 C   0  0  0  0  0  0  0  0  0  0  0  0
    7.7795  -19.2693   25.1024 C   0  0  0  0  0  0  0  0  0  0  0  0
    7.9006  -18.7117   23.7479 C   0  0  0  0  0  0  0  0  0  0  0  0
    7.6403  -17.2489   23.6031 C   0  0  2  0  0  0  0  0  0  0  0  0
    8.0733  -16.8859   22.2281 N   0  0  0  0  0  0  0  0  0  0  0  0
    8.3138  -16.3609   24.5601 C   0  0  0  0  0  0  0  0  0  0  0  0
    9.5729  -16.1704   24.3550 O   0  0  0  0  0  0  0  0  0  0  0  0
    6.5336  -19.6080   25.6471 C   0  0  0  0  0  0  0  0  0  0  0  0
    6.4298  -20.1267   26.9090 C   0  0  0  0  0  0  0  0  0  0  0  0
    6.2975  -11.6852   26.1548 C   0  0  0  0  0  0  0  0  0  0  0  0
    7.0906  -12.8817   25.6240 C   0  0  0  0  0  0  0  0  0  0  0  0
    7.7268  -13.5341   26.8024 C   0  0  2  0  0  0  0  0  0  0  0  0
    8.6490  -12.5769   27.5169 C   0  0  0  0  0  0  0  0  0  0  0  0
    8.4982  -14.7924   26.4420 C   0  0  2  0  0  0  0  0  0  0  0  0
    7.7074  -15.7042   25.6636 N   0  0  0  0  0  0  0  0  0  0  0  0
    9.0835  -15.4195   27.6470 C   0  0  0  0  0  0  0  0  0  0  0  0
   10.1015  -14.9520   28.1891 O   0  0  0  0  0  0  0  0  0  0  0  0
    8.5325  -16.5562   28.2343 O   0  0  0  0  0  0  0  0  0  0  0  0
  2  1  1  0
  3  2  1  0
  3  4  1  1
  5  3  1  0
  5  6  1  6
  7  8  2  0
  7  5  1  0
  9 10  1  0
 10 11  2  0
 11 12  1  0
 13 14  1  0
 13 12  2  0
 15 14  1  1
 15 16  1  0
 16  7  1  0
 17 26  1  0
 17 15  1  0
 18 17  2  0
 19 13  1  0
 20 19  2  0
 20 10  1  0
 21 22  1  0
 22 23  1  0
 23 25  1  0
 23 24  1  6
 25 27  1  0
 25 26  1  1
 27 29  1  0
 28 27  2  0
M  END
$$$$
