IYI.pdb
     RDKit          3D

 29 29  0  0  1  0  0  0  0  0999 V2000
    7.8993  -12.7620   17.9339 C   0  0  0  0  0  0  0  0  0  0  0  0
    8.0730  -14.2114   18.3045 C   0  0  0  0  0  0  0  0  0  0  0  0
    7.5882  -14.3904   19.7283 C   0  0  2  0  0  0  0  0  0  0  0  0
    8.4248  -13.5370   20.6234 C   0  0  0  0  0  0  0  0  0  0  0  0
    7.6536  -15.8584   20.0549 C   0  0  2  0  0  0  0  0  0  0  0  0
    6.8439  -16.5745   19.0961 N   0  0  0  0  0  0  0  0  0  0  0  0
    7.2648  -16.1717   21.4308 C   0  0  0  0  0  0  0  0  0  0  0  0
    6.0683  -16.1044   21.7837 O   0  0  0  0  0  0  0  0  0  0  0  0
    8.3060  -19.7938   29.5381 O   0  0  0  0  0  0  0  0  0  0  0  0
    8.3584  -19.3931   28.2071 C   0  0  0  0  0  0  0  0  0  0  0  0
    9.5383  -18.9679   27.6550 C   0  0  0  0  0  0  0  0  0  0  0  0
    9.5723  -18.5747   26.3357 C   0  0  0  0  0  0  0  0  0  0  0  0
    8.4746  -18.5771   25.5043 C   0  0  0  0  0  0  0  0  0  0  0  0
    8.5243  -18.1549   24.0973 C   0  0  0  0  0  0  0  0  0  0  0  0
    7.9570  -16.8100   23.7842 C   0  0  2  0  0  0  0  0  0  0  0  0
    8.2691  -16.5524   22.3538 N   0  0  0  0  0  0  0  0  0  0  0  0
    8.4511  -15.6825   24.5858 C   0  0  0  0  0  0  0  0  0  0  0  0
    9.6588  -15.3053   24.3348 O   0  0  0  0  0  0  0  0  0  0  0  0
    7.2828  -19.0167   26.0962 C   0  0  0  0  0  0  0  0  0  0  0  0
    7.2454  -19.4081   27.4067 C   0  0  0  0  0  0  0  0  0  0  0  0
    5.6921  -11.4262   27.2613 C   0  0  0  0  0  0  0  0  0  0  0  0
    6.3182  -12.8197   27.1683 C   0  0  0  0  0  0  0  0  0  0  0  0
    7.5809  -12.6740   26.3917 C   0  0  2  0  0  0  0  0  0  0  0  0
    7.2989  -12.2025   24.9862 C   0  0  0  0  0  0  0  0  0  0  0  0
    8.3948  -13.9556   26.3324 C   0  0  2  0  0  0  0  0  0  0  0  0
    7.7251  -14.9845   25.5869 N   0  0  0  0  0  0  0  0  0  0  0  0
    8.7961  -14.3927   27.6873 C   0  0  0  0  0  0  0  0  0  0  0  0
    8.3349  -15.4316   28.1941 O   0  0  0  0  0  0  0  0  0  0  0  0
    9.7029  -13.6724   28.4615 O   0  0  0  0  0  0  0  0  0  0  0  0
  2  1  1  0
  3  2  1  0
  3  4  1  1
  5  3  1  0
  5  6  1  6
  7  8  2  0
  7  5  1  0
  9 10  1  0
 10 11  2  0
 11 12  1  0
 13 14  1  0
 13 12  2  0
 15 14  1  1
 15 16  1  0
 16  7  1  0
 17 26  1  0
 17 15  1  0
 18 17  2  0
 19 13  1  0
 20 19  2  0
 20 10  1  0
 21 22  1  0
 22 23  1  0
 23 25  1  0
 23 24  1  6
 25 27  1  0
 25 26  1  1
 27 29  1  0
 28 27  2  0
M  END
$$$$
