IYI.pdb
     RDKit          3D

 29 29  0  0  1  0  0  0  0  0999 V2000
    6.8219  -20.7274   28.3734 C   0  0  0  0  0  0  0  0  0  0  0  0
    6.5029  -20.8821   26.9097 C   0  0  0  0  0  0  0  0  0  0  0  0
    7.2090  -19.7727   26.1582 C   0  0  2  0  0  0  0  0  0  0  0  0
    6.7546  -18.4627   26.7124 C   0  0  0  0  0  0  0  0  0  0  0  0
    6.9107  -19.9476   24.6932 C   0  0  2  0  0  0  0  0  0  0  0  0
    7.3035  -21.2829   24.3050 N   0  0  0  0  0  0  0  0  0  0  0  0
    7.5333  -18.9328   23.8418 C   0  0  0  0  0  0  0  0  0  0  0  0
    8.7415  -19.0152   23.5352 O   0  0  0  0  0  0  0  0  0  0  0  0
    8.6372  -12.3525   18.0660 O   0  0  0  0  0  0  0  0  0  0  0  0
    8.1292  -13.3308   18.9142 C   0  0  0  0  0  0  0  0  0  0  0  0
    8.6711  -14.5894   18.9273 C   0  0  0  0  0  0  0  0  0  0  0  0
    8.1558  -15.5459   19.7734 C   0  0  0  0  0  0  0  0  0  0  0  0
    7.1038  -15.3248   20.6339 C   0  0  0  0  0  0  0  0  0  0  0  0
    6.5631  -16.3547   21.5324 C   0  0  0  0  0  0  0  0  0  0  0  0
    7.3526  -16.6448   22.7658 C   0  0  2  0  0  0  0  0  0  0  0  0
    6.7414  -17.8567   23.3724 N   0  0  0  0  0  0  0  0  0  0  0  0
    7.4048  -15.5840   23.7806 C   0  0  0  0  0  0  0  0  0  0  0  0
    6.5262  -14.6479   23.6563 O   0  0  0  0  0  0  0  0  0  0  0  0
    6.5704  -14.0294   20.5986 C   0  0  0  0  0  0  0  0  0  0  0  0
    7.0799  -13.0764   19.7592 C   0  0  0  0  0  0  0  0  0  0  0  0
    6.4698  -11.5241   26.9811 C   0  0  0  0  0  0  0  0  0  0  0  0
    7.7846  -12.1431   26.5010 C   0  0  0  0  0  0  0  0  0  0  0  0
    7.4453  -13.4628   25.8990 C   0  0  2  0  0  0  0  0  0  0  0  0
    6.7079  -14.3332   26.8869 C   0  0  0  0  0  0  0  0  0  0  0  0
    8.6623  -14.2138   25.3861 C   0  0  2  0  0  0  0  0  0  0  0  0
    8.3168  -15.5075   24.8664 N   0  0  0  0  0  0  0  0  0  0  0  0
    9.7240  -14.2696   26.4144 C   0  0  0  0  0  0  0  0  0  0  0  0
   10.2329  -13.2314   26.8748 O   0  0  0  0  0  0  0  0  0  0  0  0
   10.2069  -15.4752   26.9182 O   0  0  0  0  0  0  0  0  0  0  0  0
  2  1  1  0
  3  2  1  0
  3  4  1  1
  5  3  1  0
  5  6  1  6
  7  8  2  0
  7  5  1  0
  9 10  1  0
 10 11  2  0
 11 12  1  0
 13 14  1  0
 13 12  2  0
 15 14  1  6
 15 16  1  0
 16  7  1  0
 17 26  1  0
 17 15  1  0
 18 17  2  0
 19 13  1  0
 20 19  2  0
 20 10  1  0
 21 22  1  0
 22 23  1  0
 23 25  1  0
 23 24  1  1
 25 27  1  0
 25 26  1  1
 27 29  1  0
 28 27  2  0
M  END
$$$$
