IYI.pdb
     RDKit          3D

 29 29  0  0  1  0  0  0  0  0999 V2000
    7.8408  -12.5374   18.4612 C   0  0  0  0  0  0  0  0  0  0  0  0
    8.0097  -14.0196   18.6680 C   0  0  0  0  0  0  0  0  0  0  0  0
    7.4187  -14.3730   20.0170 C   0  0  2  0  0  0  0  0  0  0  0  0
    8.0795  -13.5309   21.0580 C   0  0  0  0  0  0  0  0  0  0  0  0
    7.6034  -15.8522   20.2265 C   0  0  2  0  0  0  0  0  0  0  0  0
    6.9041  -16.5518   19.1732 N   0  0  0  0  0  0  0  0  0  0  0  0
    7.1862  -16.3144   21.5511 C   0  0  0  0  0  0  0  0  0  0  0  0
    5.9759  -16.3532   21.8581 O   0  0  0  0  0  0  0  0  0  0  0  0
    4.9701  -22.3971   21.5117 O   0  0  0  0  0  0  0  0  0  0  0  0
    5.7704  -21.4445   22.1337 C   0  0  0  0  0  0  0  0  0  0  0  0
    6.9550  -21.0540   21.5662 C   0  0  0  0  0  0  0  0  0  0  0  0
    7.7351  -20.1097   22.1955 C   0  0  0  0  0  0  0  0  0  0  0  0
    7.4029  -19.5101   23.3898 C   0  0  0  0  0  0  0  0  0  0  0  0
    8.2446  -18.5031   24.0514 C   0  0  0  0  0  0  0  0  0  0  0  0
    7.8383  -17.0769   23.8789 C   0  0  2  0  0  0  0  0  0  0  0  0
    8.1790  -16.7165   22.4774 N   0  0  0  0  0  0  0  0  0  0  0  0
    8.4602  -16.0997   24.7823 C   0  0  0  0  0  0  0  0  0  0  0  0
    9.6977  -15.8258   24.5428 O   0  0  0  0  0  0  0  0  0  0  0  0
    6.1868  -19.9291   23.9461 C   0  0  0  0  0  0  0  0  0  0  0  0
    5.4091  -20.8671   23.3235 C   0  0  0  0  0  0  0  0  0  0  0  0
    6.0885  -11.6021   26.5762 C   0  0  0  0  0  0  0  0  0  0  0  0
    6.9886  -12.6740   25.9571 C   0  0  0  0  0  0  0  0  0  0  0  0
    7.7336  -13.3116   27.0784 C   0  0  2  0  0  0  0  0  0  0  0  0
    8.6125  -12.3072   27.7828 C   0  0  0  0  0  0  0  0  0  0  0  0
    8.5828  -14.4907   26.6349 C   0  0  2  0  0  0  0  0  0  0  0  0
    7.8260  -15.4411   25.8689 N   0  0  0  0  0  0  0  0  0  0  0  0
    9.2831  -15.1029   27.7849 C   0  0  0  0  0  0  0  0  0  0  0  0
   10.2048  -14.5074   28.3718 O   0  0  0  0  0  0  0  0  0  0  0  0
    8.9521  -16.3667   28.2684 O   0  0  0  0  0  0  0  0  0  0  0  0
  2  1  1  0
  3  2  1  0
  3  4  1  1
  5  3  1  0
  5  6  1  6
  7  8  2  0
  7  5  1  0
  9 10  1  0
 10 11  2  0
 11 12  1  0
 13 14  1  0
 13 12  2  0
 15 14  1  1
 15 16  1  0
 16  7  1  0
 17 26  1  0
 17 15  1  0
 18 17  2  0
 19 13  1  0
 20 19  2  0
 20 10  1  0
 21 22  1  0
 22 23  1  0
 23 25  1  0
 23 24  1  6
 25 27  1  0
 25 26  1  1
 27 29  1  0
 28 27  2  0
M  END
$$$$
