IYI.pdb
     RDKit          3D

 29 29  0  0  1  0  0  0  0  0999 V2000
    7.7782  -12.2880   19.7344 C   0  0  0  0  0  0  0  0  0  0  0  0
    7.2584  -13.6910   19.9061 C   0  0  0  0  0  0  0  0  0  0  0  0
    8.3965  -14.6486   19.6197 C   0  0  2  0  0  0  0  0  0  0  0  0
    8.9147  -14.3700   18.2474 C   0  0  0  0  0  0  0  0  0  0  0  0
    7.8745  -16.0492   19.7981 C   0  0  2  0  0  0  0  0  0  0  0  0
    6.8447  -16.2802   18.8113 N   0  0  0  0  0  0  0  0  0  0  0  0
    7.3967  -16.3298   21.1528 C   0  0  0  0  0  0  0  0  0  0  0  0
    6.1985  -16.1460   21.4545 O   0  0  0  0  0  0  0  0  0  0  0  0
    7.6855  -20.2231   29.2016 O   0  0  0  0  0  0  0  0  0  0  0  0
    7.8835  -19.7804   27.8979 C   0  0  0  0  0  0  0  0  0  0  0  0
    6.9923  -18.9191   27.3133 C   0  0  0  0  0  0  0  0  0  0  0  0
    7.2036  -18.4909   26.0217 C   0  0  0  0  0  0  0  0  0  0  0  0
    8.2772  -18.8757   25.2501 C   0  0  0  0  0  0  0  0  0  0  0  0
    8.4913  -18.4111   23.8722 C   0  0  0  0  0  0  0  0  0  0  0  0
    7.9091  -17.0827   23.5184 C   0  0  2  0  0  0  0  0  0  0  0  0
    8.3171  -16.8131   22.1145 N   0  0  0  0  0  0  0  0  0  0  0  0
    8.3101  -15.9428   24.3538 C   0  0  0  0  0  0  0  0  0  0  0  0
    9.4968  -15.4843   24.1412 O   0  0  0  0  0  0  0  0  0  0  0  0
    9.1711  -19.7563   25.8741 C   0  0  0  0  0  0  0  0  0  0  0  0
    8.9643  -20.1839   27.1573 C   0  0  0  0  0  0  0  0  0  0  0  0
    5.9100  -11.0649   25.7645 C   0  0  0  0  0  0  0  0  0  0  0  0
    7.1890  -11.8860   25.5848 C   0  0  0  0  0  0  0  0  0  0  0  0
    7.0085  -13.1418   26.3653 C   0  0  2  0  0  0  0  0  0  0  0  0
    7.0083  -12.8605   27.8480 C   0  0  0  0  0  0  0  0  0  0  0  0
    8.0638  -14.1907   26.0583 C   0  0  2  0  0  0  0  0  0  0  0  0
    7.5165  -15.3133   25.3490 N   0  0  0  0  0  0  0  0  0  0  0  0
    8.7949  -14.5825   27.2830 C   0  0  0  0  0  0  0  0  0  0  0  0
    8.4924  -15.6110   27.9150 O   0  0  0  0  0  0  0  0  0  0  0  0
    9.8510  -13.8288   27.7901 O   0  0  0  0  0  0  0  0  0  0  0  0
  2  1  1  0
  3  2  1  0
  3  4  1  6
  5  3  1  0
  5  6  1  6
  7  8  2  0
  7  5  1  0
  9 10  1  0
 10 11  2  0
 11 12  1  0
 13 14  1  0
 13 12  2  0
 15 14  1  1
 15 16  1  0
 16  7  1  0
 17 26  1  0
 17 15  1  0
 18 17  2  0
 19 13  1  0
 20 19  2  0
 20 10  1  0
 21 22  1  0
 22 23  1  0
 23 25  1  0
 23 24  1  1
 25 27  1  0
 25 26  1  1
 27 29  1  0
 28 27  2  0
M  END
$$$$
