IYI.pdb
     RDKit          3D

 29 29  0  0  1  0  0  0  0  0999 V2000
    7.2043  -12.4726   19.6054 C   0  0  0  0  0  0  0  0  0  0  0  0
    7.1238  -13.9732   19.5060 C   0  0  0  0  0  0  0  0  0  0  0  0
    8.5374  -14.5173   19.5035 C   0  0  2  0  0  0  0  0  0  0  0  0
    9.2236  -14.0445   18.2645 C   0  0  0  0  0  0  0  0  0  0  0  0
    8.4532  -16.0160   19.6158 C   0  0  2  0  0  0  0  0  0  0  0  0
    7.7827  -16.5235   18.4408 N   0  0  0  0  0  0  0  0  0  0  0  0
    7.8090  -16.4774   20.8465 C   0  0  0  0  0  0  0  0  0  0  0  0
    6.8824  -17.3141   20.8031 O   0  0  0  0  0  0  0  0  0  0  0  0
    7.3233  -21.0827   28.0061 O   0  0  0  0  0  0  0  0  0  0  0  0
    7.5383  -20.3291   26.8569 C   0  0  0  0  0  0  0  0  0  0  0  0
    8.7824  -19.8273   26.5771 C   0  0  0  0  0  0  0  0  0  0  0  0
    8.9775  -19.0833   25.4349 C   0  0  0  0  0  0  0  0  0  0  0  0
    7.9846  -18.7973   24.5248 C   0  0  0  0  0  0  0  0  0  0  0  0
    8.2061  -18.0018   23.3089 C   0  0  0  0  0  0  0  0  0  0  0  0
    7.8343  -16.5577   23.3799 C   0  0  2  0  0  0  0  0  0  0  0  0
    8.2551  -15.9583   22.0862 N   0  0  0  0  0  0  0  0  0  0  0  0
    8.4243  -15.7775   24.4758 C   0  0  0  0  0  0  0  0  0  0  0  0
    9.6699  -15.4725   24.3372 O   0  0  0  0  0  0  0  0  0  0  0  0
    6.7238  -19.3233   24.8371 C   0  0  0  0  0  0  0  0  0  0  0  0
    6.5263  -20.0630   25.9711 C   0  0  0  0  0  0  0  0  0  0  0  0
    5.9352  -11.4859   26.3239 C   0  0  0  0  0  0  0  0  0  0  0  0
    6.8232  -12.5943   25.7534 C   0  0  0  0  0  0  0  0  0  0  0  0
    7.4876  -13.2536   26.9122 C   0  0  2  0  0  0  0  0  0  0  0  0
    8.2683  -12.2526   27.7281 C   0  0  0  0  0  0  0  0  0  0  0  0
    8.4103  -14.3889   26.5026 C   0  0  2  0  0  0  0  0  0  0  0  0
    7.7520  -15.3352   25.6459 N   0  0  0  0  0  0  0  0  0  0  0  0
    9.0347  -15.0189   27.6863 C   0  0  0  0  0  0  0  0  0  0  0  0
    8.5185  -16.0064   28.2405 O   0  0  0  0  0  0  0  0  0  0  0  0
   10.2224  -14.5456   28.2394 O   0  0  0  0  0  0  0  0  0  0  0  0
  2  1  1  0
  3  2  1  0
  3  4  1  6
  5  3  1  0
  5  6  1  6
  7  8  2  0
  7  5  1  0
  9 10  1  0
 10 11  2  0
 11 12  1  0
 13 14  1  0
 13 12  2  0
 15 14  1  6
 15 16  1  0
 16  7  1  0
 17 26  1  0
 17 15  1  0
 18 17  2  0
 19 13  1  0
 20 19  2  0
 20 10  1  0
 21 22  1  0
 22 23  1  0
 23 25  1  0
 23 24  1  6
 25 27  1  0
 25 26  1  1
 27 29  1  0
 28 27  2  0
M  END
$$$$
