IYI.pdb
     RDKit          3D

 29 29  0  0  1  0  0  0  0  0999 V2000
    7.7077  -12.5534   19.1277 C   0  0  0  0  0  0  0  0  0  0  0  0
    7.2002  -13.8702   19.6537 C   0  0  0  0  0  0  0  0  0  0  0  0
    8.2636  -14.9173   19.3948 C   0  0  2  0  0  0  0  0  0  0  0  0
    8.6760  -14.8281   17.9625 C   0  0  0  0  0  0  0  0  0  0  0  0
    7.6935  -16.2563   19.7795 C   0  0  2  0  0  0  0  0  0  0  0  0
    6.5818  -16.5463   18.9033 N   0  0  0  0  0  0  0  0  0  0  0  0
    7.3083  -16.3476   21.1887 C   0  0  0  0  0  0  0  0  0  0  0  0
    6.1950  -15.9297   21.5712 O   0  0  0  0  0  0  0  0  0  0  0  0
    8.0224  -19.7718   29.4567 O   0  0  0  0  0  0  0  0  0  0  0  0
    8.1390  -19.4335   28.1125 C   0  0  0  0  0  0  0  0  0  0  0  0
    9.3576  -19.0975   27.5833 C   0  0  0  0  0  0  0  0  0  0  0  0
    9.4550  -18.7652   26.2505 C   0  0  0  0  0  0  0  0  0  0  0  0
    8.3857  -18.7449   25.3832 C   0  0  0  0  0  0  0  0  0  0  0  0
    8.5032  -18.3884   23.9621 C   0  0  0  0  0  0  0  0  0  0  0  0
    7.8690  -17.1038   23.5422 C   0  0  2  0  0  0  0  0  0  0  0  0
    8.2204  -16.9180   22.1097 N   0  0  0  0  0  0  0  0  0  0  0  0
    8.2634  -15.8994   24.2851 C   0  0  0  0  0  0  0  0  0  0  0  0
    9.4782  -15.5049   24.1058 O   0  0  0  0  0  0  0  0  0  0  0  0
    7.1532  -19.0928   25.9522 C   0  0  0  0  0  0  0  0  0  0  0  0
    7.0527  -19.4235   27.2762 C   0  0  0  0  0  0  0  0  0  0  0  0
    6.6138  -10.5337   26.4914 C   0  0  0  0  0  0  0  0  0  0  0  0
    7.6408  -11.6624   26.6077 C   0  0  0  0  0  0  0  0  0  0  0  0
    7.0511  -12.8529   25.9341 C   0  0  2  0  0  0  0  0  0  0  0  0
    5.7833  -13.2915   26.6252 C   0  0  0  0  0  0  0  0  0  0  0  0
    8.0089  -14.0297   25.8586 C   0  0  2  0  0  0  0  0  0  0  0  0
    7.4361  -15.1461   25.1596 N   0  0  0  0  0  0  0  0  0  0  0  0
    8.5164  -14.3881   27.2009 C   0  0  0  0  0  0  0  0  0  0  0  0
    8.0672  -15.3692   27.8209 O   0  0  0  0  0  0  0  0  0  0  0  0
    9.5147  -13.6540   27.8374 O   0  0  0  0  0  0  0  0  0  0  0  0
  2  1  1  0
  3  2  1  0
  3  4  1  6
  5  3  1  0
  5  6  1  6
  7  8  2  0
  7  5  1  0
  9 10  1  0
 10 11  2  0
 11 12  1  0
 13 14  1  0
 13 12  2  0
 15 14  1  1
 15 16  1  0
 16  7  1  0
 17 26  1  0
 17 15  1  0
 18 17  2  0
 19 13  1  0
 20 19  2  0
 20 10  1  0
 21 22  1  0
 22 23  1  0
 23 25  1  0
 23 24  1  1
 25 27  1  0
 25 26  1  1
 27 29  1  0
 28 27  2  0
M  END
$$$$
