IYI.pdb
     RDKit          3D

 29 29  0  0  1  0  0  0  0  0999 V2000
    8.7735  -12.2442   19.6818 C   0  0  0  0  0  0  0  0  0  0  0  0
    8.9038  -13.6709   20.1462 C   0  0  0  0  0  0  0  0  0  0  0  0
    8.0700  -14.5390   19.2267 C   0  0  2  0  0  0  0  0  0  0  0  0
    6.6507  -14.0816   19.3032 C   0  0  0  0  0  0  0  0  0  0  0  0
    8.2686  -15.9720   19.6424 C   0  0  2  0  0  0  0  0  0  0  0  0
    7.7183  -16.8247   18.6139 N   0  0  0  0  0  0  0  0  0  0  0  0
    7.7099  -16.2845   20.9587 C   0  0  0  0  0  0  0  0  0  0  0  0
    6.4797  -16.4457   21.1045 O   0  0  0  0  0  0  0  0  0  0  0  0
    7.6752  -20.1939   28.9077 O   0  0  0  0  0  0  0  0  0  0  0  0
    7.8857  -19.6961   27.6260 C   0  0  0  0  0  0  0  0  0  0  0  0
    9.1576  -19.5458   27.1388 C   0  0  0  0  0  0  0  0  0  0  0  0
    9.3478  -19.0514   25.8677 C   0  0  0  0  0  0  0  0  0  0  0  0
    8.3231  -18.6856   25.0237 C   0  0  0  0  0  0  0  0  0  0  0  0
    8.5397  -18.1592   23.6686 C   0  0  0  0  0  0  0  0  0  0  0  0
    8.0950  -16.7561   23.4193 C   0  0  2  0  0  0  0  0  0  0  0  0
    8.5889  -16.4006   22.0629 N   0  0  0  0  0  0  0  0  0  0  0  0
    8.5575  -15.7381   24.3720 C   0  0  0  0  0  0  0  0  0  0  0  0
    9.7773  -15.3461   24.2227 O   0  0  0  0  0  0  0  0  0  0  0  0
    7.0343  -18.8503   25.5489 C   0  0  0  0  0  0  0  0  0  0  0  0
    6.8416  -19.3412   26.8115 C   0  0  0  0  0  0  0  0  0  0  0  0
    5.9625  -11.2691   25.9194 C   0  0  0  0  0  0  0  0  0  0  0  0
    6.9179  -12.3512   25.4112 C   0  0  0  0  0  0  0  0  0  0  0  0
    7.4634  -13.0434   26.6121 C   0  0  2  0  0  0  0  0  0  0  0  0
    8.1722  -12.0694   27.5211 C   0  0  0  0  0  0  0  0  0  0  0  0
    8.4105  -14.1797   26.2657 C   0  0  2  0  0  0  0  0  0  0  0  0
    7.7899  -15.1576   25.4163 N   0  0  0  0  0  0  0  0  0  0  0  0
    9.0025  -14.7682   27.4867 C   0  0  0  0  0  0  0  0  0  0  0  0
    8.5050  -15.7733   28.0263 O   0  0  0  0  0  0  0  0  0  0  0  0
   10.1377  -14.2347   28.0927 O   0  0  0  0  0  0  0  0  0  0  0  0
  2  1  1  0
  3  2  1  0
  3  4  1  1
  5  3  1  0
  5  6  1  6
  7  8  2  0
  7  5  1  0
  9 10  1  0
 10 11  2  0
 11 12  1  0
 13 14  1  0
 13 12  2  0
 15 14  1  1
 15 16  1  0
 16  7  1  0
 17 26  1  0
 17 15  1  0
 18 17  2  0
 19 13  1  0
 20 19  2  0
 20 10  1  0
 21 22  1  0
 22 23  1  0
 23 25  1  0
 23 24  1  1
 25 27  1  0
 25 26  1  1
 27 29  1  0
 28 27  2  0
M  END
$$$$
