IYI.pdb
     RDKit          3D

 29 29  0  0  1  0  0  0  0  0999 V2000
    7.9066  -12.5048   17.9432 C   0  0  0  0  0  0  0  0  0  0  0  0
    8.2416  -13.9568   18.1612 C   0  0  0  0  0  0  0  0  0  0  0  0
    7.5913  -14.3965   19.4565 C   0  0  2  0  0  0  0  0  0  0  0  0
    8.0486  -13.4859   20.5480 C   0  0  0  0  0  0  0  0  0  0  0  0
    7.9482  -15.8413   19.6827 C   0  0  2  0  0  0  0  0  0  0  0  0
    7.4043  -16.6202   18.5940 N   0  0  0  0  0  0  0  0  0  0  0  0
    7.5167  -16.3562   20.9831 C   0  0  0  0  0  0  0  0  0  0  0  0
    6.3423  -16.7465   21.1537 O   0  0  0  0  0  0  0  0  0  0  0  0
    8.2187  -20.0347   29.0378 O   0  0  0  0  0  0  0  0  0  0  0  0
    8.3458  -19.5522   27.7394 C   0  0  0  0  0  0  0  0  0  0  0  0
    7.2696  -19.5470   26.8912 C   0  0  0  0  0  0  0  0  0  0  0  0
    7.4131  -19.0657   25.6090 C   0  0  0  0  0  0  0  0  0  0  0  0
    8.5943  -18.5740   25.1002 C   0  0  0  0  0  0  0  0  0  0  0  0
    8.7342  -18.0628   23.7292 C   0  0  0  0  0  0  0  0  0  0  0  0
    8.0502  -16.7709   23.4262 C   0  0  2  0  0  0  0  0  0  0  0  0
    8.4541  -16.4036   22.0434 N   0  0  0  0  0  0  0  0  0  0  0  0
    8.3450  -15.6427   24.3196 C   0  0  0  0  0  0  0  0  0  0  0  0
    9.5323  -15.1481   24.2221 O   0  0  0  0  0  0  0  0  0  0  0  0
    9.6768  -18.5918   25.9900 C   0  0  0  0  0  0  0  0  0  0  0  0
    9.5379  -19.0693   27.2647 C   0  0  0  0  0  0  0  0  0  0  0  0
    6.2076  -10.5762   26.6663 C   0  0  0  0  0  0  0  0  0  0  0  0
    7.3077  -11.6281   26.8260 C   0  0  0  0  0  0  0  0  0  0  0  0
    6.8277  -12.8613   26.1421 C   0  0  2  0  0  0  0  0  0  0  0  0
    5.6257  -13.4377   26.8494 C   0  0  0  0  0  0  0  0  0  0  0  0
    7.8981  -13.9332   26.0267 C   0  0  2  0  0  0  0  0  0  0  0  0
    7.4508  -15.0598   25.2561 N   0  0  0  0  0  0  0  0  0  0  0  0
    8.4140  -14.3139   27.3596 C   0  0  0  0  0  0  0  0  0  0  0  0
    9.0203  -13.4963   28.0755 O   0  0  0  0  0  0  0  0  0  0  0  0
    8.2507  -15.5956   27.8805 O   0  0  0  0  0  0  0  0  0  0  0  0
  2  1  1  0
  3  2  1  0
  3  4  1  1
  5  3  1  0
  5  6  1  6
  7  8  2  0
  7  5  1  0
  9 10  1  0
 10 11  2  0
 11 12  1  0
 13 14  1  0
 13 12  2  0
 15 14  1  1
 15 16  1  0
 16  7  1  0
 17 26  1  0
 17 15  1  0
 18 17  2  0
 19 13  1  0
 20 19  2  0
 20 10  1  0
 21 22  1  0
 22 23  1  0
 23 25  1  0
 23 24  1  1
 25 27  1  0
 25 26  1  1
 27 29  1  0
 28 27  2  0
M  END
$$$$
