IYI.pdb
     RDKit          3D

 29 29  0  0  1  0  0  0  0  0999 V2000
    8.0009  -12.6204   17.9695 C   0  0  0  0  0  0  0  0  0  0  0  0
    8.1777  -14.0843   18.2754 C   0  0  0  0  0  0  0  0  0  0  0  0
    7.4962  -14.3704   19.5976 C   0  0  2  0  0  0  0  0  0  0  0  0
    8.1340  -13.5255   20.6506 C   0  0  0  0  0  0  0  0  0  0  0  0
    7.6030  -15.8490   19.8592 C   0  0  2  0  0  0  0  0  0  0  0  0
    6.8742  -16.5478   18.8258 N   0  0  0  0  0  0  0  0  0  0  0  0
    7.1552  -16.2426   21.1960 C   0  0  0  0  0  0  0  0  0  0  0  0
    5.9373  -16.2866   21.4705 O   0  0  0  0  0  0  0  0  0  0  0  0
    8.2689  -19.9047   29.2917 O   0  0  0  0  0  0  0  0  0  0  0  0
    8.2531  -19.5031   27.9600 C   0  0  0  0  0  0  0  0  0  0  0  0
    9.4260  -19.2890   27.2845 C   0  0  0  0  0  0  0  0  0  0  0  0
    9.3920  -18.8916   25.9665 C   0  0  0  0  0  0  0  0  0  0  0  0
    8.2311  -18.6870   25.2549 C   0  0  0  0  0  0  0  0  0  0  0  0
    8.2085  -18.2628   23.8478 C   0  0  0  0  0  0  0  0  0  0  0  0
    7.7510  -16.8673   23.5793 C   0  0  2  0  0  0  0  0  0  0  0  0
    8.1272  -16.5725   22.1716 N   0  0  0  0  0  0  0  0  0  0  0  0
    8.2997  -15.8149   24.4449 C   0  0  0  0  0  0  0  0  0  0  0  0
    9.5495  -15.5458   24.2740 O   0  0  0  0  0  0  0  0  0  0  0  0
    7.0481  -18.9135   25.9713 C   0  0  0  0  0  0  0  0  0  0  0  0
    7.0781  -19.3084   27.2810 C   0  0  0  0  0  0  0  0  0  0  0  0
    5.6922  -11.6455   27.5302 C   0  0  0  0  0  0  0  0  0  0  0  0
    6.2994  -13.0302   27.2935 C   0  0  0  0  0  0  0  0  0  0  0  0
    7.4815  -12.8370   26.4079 C   0  0  2  0  0  0  0  0  0  0  0  0
    7.0644  -12.3029   25.0596 C   0  0  0  0  0  0  0  0  0  0  0  0
    8.2919  -14.1068   26.2108 C   0  0  2  0  0  0  0  0  0  0  0  0
    7.5842  -15.0809   25.4277 N   0  0  0  0  0  0  0  0  0  0  0  0
    8.7650  -14.6411   27.5065 C   0  0  0  0  0  0  0  0  0  0  0  0
    8.2696  -15.6702   28.0007 O   0  0  0  0  0  0  0  0  0  0  0  0
    9.7805  -14.0273   28.2363 O   0  0  0  0  0  0  0  0  0  0  0  0
  2  1  1  0
  3  2  1  0
  3  4  1  1
  5  3  1  0
  5  6  1  6
  7  8  2  0
  7  5  1  0
  9 10  1  0
 10 11  2  0
 11 12  1  0
 13 14  1  0
 13 12  2  0
 15 14  1  1
 15 16  1  0
 16  7  1  0
 17 26  1  0
 17 15  1  0
 18 17  2  0
 19 13  1  0
 20 19  2  0
 20 10  1  0
 21 22  1  0
 22 23  1  0
 23 25  1  0
 23 24  1  6
 25 27  1  0
 25 26  1  1
 27 29  1  0
 28 27  2  0
M  END
$$$$
