CPM.pdb
     RDKit          3D

 22 22  0  0  1  0  0  0  0  0999 V2000
    9.7080  -17.9758   18.4967 N   0  0  0  0  0  0  0  0  0  0  0  0
    8.6583  -17.1288   18.9565 C   0  0  1  0  0  0  0  0  0  0  0  0
    7.4900  -17.9597   19.4812 C   0  0  0  0  0  0  0  0  0  0  0  0
    7.9149  -18.7560   21.0453 S   0  0  0  0  0  0  0  0  0  0  0  0
    9.0396  -16.1963   20.0286 C   0  0  0  0  0  0  0  0  0  0  0  0
   10.0477  -16.5571   20.7309 O   0  0  0  0  0  0  0  0  0  0  0  0
    8.3663  -14.9791   20.2958 N   0  0  0  0  0  0  0  0  0  0  0  0
    7.2029  -14.5153   19.5734 C   0  0  0  0  0  0  0  0  0  0  0  0
    6.7274  -13.2727   20.2983 C   0  0  0  0  0  0  0  0  0  0  0  0
    7.9551  -12.7502   20.9698 C   0  0  0  0  0  0  0  0  0  0  0  0
    8.7205  -14.0190   21.3100 C   0  0  1  0  0  0  0  0  0  0  0  0
    8.3743  -14.5148   22.6798 C   0  0  0  0  0  0  0  0  0  0  0  0
    7.3036  -15.1416   22.8535 O   0  0  0  0  0  0  0  0  0  0  0  0
    6.4316  -11.3151   26.9917 C   0  0  0  0  0  0  0  0  0  0  0  0
    5.6195  -12.8853   26.5445 S   0  0  0  0  0  0  0  0  0  0  0  0
    6.6642  -13.7602   25.3448 C   0  0  0  0  0  0  0  0  0  0  0  0
    8.0616  -13.8268   25.8974 C   0  0  0  0  0  0  0  0  0  0  0  0
    8.9322  -14.7941   25.1197 C   0  0  2  0  0  0  0  0  0  0  0  0
    9.2239  -14.2962   23.7910 N   0  0  0  0  0  0  0  0  0  0  0  0
    8.3551  -16.1451   25.1004 C   0  0  0  0  0  0  0  0  0  0  0  0
    8.1541  -16.7113   26.2106 O   0  0  0  0  0  0  0  0  0  0  0  0
    8.0249  -16.8210   23.9582 O   0  0  0  0  0  0  0  0  0  0  0  0
  2  1  1  1
  3  2  1  0
  4  3  1  0
  5  2  1  0
  5  6  2  0
  7  5  1  0
  8  7  1  0
  9 10  1  0
  9  8  1  0
 10 11  1  0
 11  7  1  0
 11 12  1  1
 12 13  2  0
 12 19  1  0
 15 14  1  0
 16 17  1  0
 16 15  1  0
 18 17  1  6
 19 18  1  0
 20 18  1  0
 20 22  1  0
 21 20  2  0
M  END
$$$$
