CPM.pdb
     RDKit          3D

 22 22  0  0  1  0  0  0  0  0999 V2000
    5.5161  -18.0337   24.8652 N   0  0  0  0  0  0  0  0  0  0  0  0
    6.0993  -16.7478   24.6733 C   0  0  1  0  0  0  0  0  0  0  0  0
    6.3775  -16.0792   26.0172 C   0  0  0  0  0  0  0  0  0  0  0  0
    6.5470  -14.2915   25.8265 S   0  0  0  0  0  0  0  0  0  0  0  0
    7.3642  -16.7473   23.9219 C   0  0  0  0  0  0  0  0  0  0  0  0
    8.1045  -17.7767   24.1015 O   0  0  0  0  0  0  0  0  0  0  0  0
    7.7690  -15.7039   23.0537 N   0  0  0  0  0  0  0  0  0  0  0  0
    6.9649  -14.5430   22.7439 C   0  0  0  0  0  0  0  0  0  0  0  0
    7.8501  -13.6270   21.9234 C   0  0  0  0  0  0  0  0  0  0  0  0
    8.8416  -14.5483   21.2915 C   0  0  0  0  0  0  0  0  0  0  0  0
    9.0228  -15.6264   22.3480 C   0  0  1  0  0  0  0  0  0  0  0  0
   10.1538  -15.2996   23.2731 C   0  0  0  0  0  0  0  0  0  0  0  0
   10.5045  -14.1055   23.4165 O   0  0  0  0  0  0  0  0  0  0  0  0
    9.8153  -12.7572   28.1726 C   0  0  0  0  0  0  0  0  0  0  0  0
   10.1836  -14.4489   28.7450 S   0  0  0  0  0  0  0  0  0  0  0  0
   11.3502  -15.2155   27.5842 C   0  0  0  0  0  0  0  0  0  0  0  0
   10.6464  -15.4113   26.2694 C   0  0  0  0  0  0  0  0  0  0  0  0
   11.5524  -16.0432   25.2310 C   0  0  2  0  0  0  0  0  0  0  0  0
   10.8434  -16.3035   23.9950 N   0  0  0  0  0  0  0  0  0  0  0  0
   12.2252  -17.2389   25.7566 C   0  0  0  0  0  0  0  0  0  0  0  0
   11.7137  -18.3621   25.4915 O   0  0  0  0  0  0  0  0  0  0  0  0
   13.3654  -17.2071   26.5112 O   0  0  0  0  0  0  0  0  0  0  0  0
  2  1  1  1
  3  2  1  0
  4  3  1  0
  5  2  1  0
  5  6  2  0
  7  5  1  0
  8  7  1  0
  9 10  1  0
  9  8  1  0
 10 11  1  0
 11  7  1  0
 11 12  1  1
 12 13  2  0
 12 19  1  0
 15 14  1  0
 16 17  1  0
 16 15  1  0
 18 17  1  1
 19 18  1  0
 20 18  1  0
 20 22  1  0
 21 20  2  0
M  END
$$$$
