CPM.pdb
     RDKit          3D

 22 22  0  0  1  0  0  0  0  0999 V2000
   11.7888  -17.1328   18.1379 N   0  0  0  0  0  0  0  0  0  0  0  0
   10.4452  -17.0288   18.6010 C   0  0  1  0  0  0  0  0  0  0  0  0
    9.9567  -18.3729   19.1354 C   0  0  0  0  0  0  0  0  0  0  0  0
    9.3375  -19.4139   17.7961 S   0  0  0  0  0  0  0  0  0  0  0  0
   10.2327  -16.0382   19.6677 C   0  0  0  0  0  0  0  0  0  0  0  0
   11.1565  -15.9845   20.5528 O   0  0  0  0  0  0  0  0  0  0  0  0
    9.1025  -15.1878   19.7448 N   0  0  0  0  0  0  0  0  0  0  0  0
    8.0122  -15.1927   18.7952 C   0  0  0  0  0  0  0  0  0  0  0  0
    6.9628  -14.2554   19.3574 C   0  0  0  0  0  0  0  0  0  0  0  0
    7.7385  -13.3161   20.2218 C   0  0  0  0  0  0  0  0  0  0  0  0
    8.8552  -14.1960   20.7603 C   0  0  1  0  0  0  0  0  0  0  0  0
    8.4727  -14.8277   22.0628 C   0  0  0  0  0  0  0  0  0  0  0  0
    8.9824  -15.9255   22.3859 O   0  0  0  0  0  0  0  0  0  0  0  0
    6.2380  -11.2967   28.8153 C   0  0  0  0  0  0  0  0  0  0  0  0
    5.8563  -11.6578   27.0692 S   0  0  0  0  0  0  0  0  0  0  0  0
    7.0739  -12.8492   26.4413 C   0  0  0  0  0  0  0  0  0  0  0  0
    6.8580  -13.0076   24.9612 C   0  0  0  0  0  0  0  0  0  0  0  0
    7.8176  -14.0117   24.3535 C   0  0  2  0  0  0  0  0  0  0  0  0
    7.5477  -14.2198   22.9456 N   0  0  0  0  0  0  0  0  0  0  0  0
    7.8384  -15.2684   25.1144 C   0  0  0  0  0  0  0  0  0  0  0  0
    6.9387  -16.1182   24.8652 O   0  0  0  0  0  0  0  0  0  0  0  0
    8.7687  -15.5699   26.0705 O   0  0  0  0  0  0  0  0  0  0  0  0
  2  1  1  1
  3  2  1  0
  4  3  1  0
  5  2  1  0
  5  6  2  0
  7  5  1  0
  8  7  1  0
  9 10  1  0
  9  8  1  0
 10 11  1  0
 11  7  1  0
 11 12  1  1
 12 13  2  0
 12 19  1  0
 15 14  1  0
 16 17  1  0
 16 15  1  0
 18 17  1  1
 19 18  1  0
 20 18  1  0
 20 22  1  0
 21 20  2  0
M  END
$$$$
