CPM.pdb
     RDKit          3D

 22 22  0  0  1  0  0  0  0  0999 V2000
    5.9413  -18.6331   20.2137 N   0  0  0  0  0  0  0  0  0  0  0  0
    5.8703  -17.2889   20.6814 C   0  0  1  0  0  0  0  0  0  0  0  0
    5.1327  -17.2241   22.0165 C   0  0  0  0  0  0  0  0  0  0  0  0
    3.3555  -17.4441   21.7838 S   0  0  0  0  0  0  0  0  0  0  0  0
    7.1718  -16.6312   20.8759 C   0  0  0  0  0  0  0  0  0  0  0  0
    8.0916  -17.3775   21.3626 O   0  0  0  0  0  0  0  0  0  0  0  0
    7.4283  -15.2744   20.5603 N   0  0  0  0  0  0  0  0  0  0  0  0
    6.4656  -14.3824   19.9537 C   0  0  0  0  0  0  0  0  0  0  0  0
    7.1070  -13.0097   19.9558 C   0  0  0  0  0  0  0  0  0  0  0  0
    8.5736  -13.2926   19.9668 C   0  0  0  0  0  0  0  0  0  0  0  0
    8.6653  -14.5707   20.7851 C   0  0  1  0  0  0  0  0  0  0  0  0
    8.8722  -14.2749   22.2382 C   0  0  0  0  0  0  0  0  0  0  0  0
    8.9889  -13.0850   22.6121 O   0  0  0  0  0  0  0  0  0  0  0  0
    6.7309  -11.5010   27.3178 C   0  0  0  0  0  0  0  0  0  0  0  0
    5.9550  -13.0403   26.7231 S   0  0  0  0  0  0  0  0  0  0  0  0
    7.2555  -14.2736   26.4331 C   0  0  0  0  0  0  0  0  0  0  0  0
    7.4911  -14.3700   24.9507 C   0  0  0  0  0  0  0  0  0  0  0  0
    8.8018  -15.0611   24.6297 C   0  0  2  0  0  0  0  0  0  0  0  0
    8.9404  -15.3038   23.2084 N   0  0  0  0  0  0  0  0  0  0  0  0
    8.9795  -16.2810   25.4291 C   0  0  0  0  0  0  0  0  0  0  0  0
    8.9924  -16.1604   26.6856 O   0  0  0  0  0  0  0  0  0  0  0  0
    9.1308  -17.5312   24.8957 O   0  0  0  0  0  0  0  0  0  0  0  0
  2  1  1  1
  3  2  1  0
  4  3  1  0
  5  2  1  0
  5  6  2  0
  7  5  1  0
  8  7  1  0
  9 10  1  0
  9  8  1  0
 10 11  1  0
 11  7  1  0
 11 12  1  1
 12 13  2  0
 12 19  1  0
 15 14  1  0
 16 17  1  0
 16 15  1  0
 18 17  1  6
 19 18  1  0
 20 18  1  0
 20 22  1  0
 21 20  2  0
M  END
$$$$
