CPM.pdb
     RDKit          3D

 22 22  0  0  1  0  0  0  0  0999 V2000
   11.0751  -16.8795   17.9538 N   0  0  0  0  0  0  0  0  0  0  0  0
   10.4176  -17.6876   18.9262 C   0  0  1  0  0  0  0  0  0  0  0  0
   11.4329  -18.3091   19.8819 C   0  0  0  0  0  0  0  0  0  0  0  0
   12.4747  -19.5101   19.0257 S   0  0  0  0  0  0  0  0  0  0  0  0
    9.4261  -16.9801   19.7513 C   0  0  0  0  0  0  0  0  0  0  0  0
    9.6560  -15.7329   19.9289 O   0  0  0  0  0  0  0  0  0  0  0  0
    8.2878  -17.5978   20.3248 N   0  0  0  0  0  0  0  0  0  0  0  0
    8.0042  -19.0136   20.2506 C   0  0  0  0  0  0  0  0  0  0  0  0
    6.7943  -19.2453   21.1327 C   0  0  0  0  0  0  0  0  0  0  0  0
    6.0948  -17.9256   21.1461 C   0  0  0  0  0  0  0  0  0  0  0  0
    7.2434  -16.9332   21.0620 C   0  0  1  0  0  0  0  0  0  0  0  0
    7.7097  -16.5211   22.4238 C   0  0  0  0  0  0  0  0  0  0  0  0
    8.6708  -17.1260   22.9528 O   0  0  0  0  0  0  0  0  0  0  0  0
    7.1991  -10.8936   27.9920 C   0  0  0  0  0  0  0  0  0  0  0  0
    6.3483  -11.7760   26.6419 S   0  0  0  0  0  0  0  0  0  0  0  0
    7.3358  -13.2285   26.1823 C   0  0  0  0  0  0  0  0  0  0  0  0
    6.8220  -13.7510   24.8688 C   0  0  0  0  0  0  0  0  0  0  0  0
    7.5854  -14.9779   24.4101 C   0  0  2  0  0  0  0  0  0  0  0  0
    7.0951  -15.4634   23.1364 N   0  0  0  0  0  0  0  0  0  0  0  0
    7.6002  -16.0227   25.4429 C   0  0  0  0  0  0  0  0  0  0  0  0
    8.4780  -15.9399   26.3464 O   0  0  0  0  0  0  0  0  0  0  0  0
    6.7249  -17.0728   25.4831 O   0  0  0  0  0  0  0  0  0  0  0  0
  2  1  1  6
  3  2  1  0
  4  3  1  0
  5  2  1  0
  5  6  2  0
  7  5  1  0
  8  7  1  0
  9 10  1  0
  9  8  1  0
 10 11  1  0
 11  7  1  0
 11 12  1  1
 12 13  2  0
 12 19  1  0
 15 14  1  0
 16 17  1  0
 16 15  1  0
 18 17  1  1
 19 18  1  0
 20 18  1  0
 20 22  1  0
 21 20  2  0
M  END
$$$$
