CPM.pdb
     RDKit          3D

 22 22  0  0  1  0  0  0  0  0999 V2000
    9.4712  -18.1760   18.0781 N   0  0  0  0  0  0  0  0  0  0  0  0
    8.4182  -17.6325   18.8697 C   0  0  1  0  0  0  0  0  0  0  0  0
    7.6411  -18.7468   19.5660 C   0  0  0  0  0  0  0  0  0  0  0  0
    6.3091  -18.0692   20.5798 S   0  0  0  0  0  0  0  0  0  0  0  0
    8.8511  -16.6914   19.9143 C   0  0  0  0  0  0  0  0  0  0  0  0
    9.7729  -17.1253   20.6900 O   0  0  0  0  0  0  0  0  0  0  0  0
    8.3123  -15.3922   20.0821 N   0  0  0  0  0  0  0  0  0  0  0  0
    7.1947  -14.8695   19.3284 C   0  0  0  0  0  0  0  0  0  0  0  0
    6.8611  -13.5283   19.9494 C   0  0  0  0  0  0  0  0  0  0  0  0
    8.1453  -13.0845   20.5702 C   0  0  0  0  0  0  0  0  0  0  0  0
    8.7780  -14.3946   21.0115 C   0  0  1  0  0  0  0  0  0  0  0  0
    8.3994  -14.7368   22.4192 C   0  0  0  0  0  0  0  0  0  0  0  0
    7.3976  -15.4597   22.6272 O   0  0  0  0  0  0  0  0  0  0  0  0
    6.5017  -11.3726   28.3605 C   0  0  0  0  0  0  0  0  0  0  0  0
    6.4401  -11.6110   26.5537 S   0  0  0  0  0  0  0  0  0  0  0  0
    6.6034  -13.3831   26.1942 C   0  0  0  0  0  0  0  0  0  0  0  0
    7.1908  -13.5323   24.8176 C   0  0  0  0  0  0  0  0  0  0  0  0
    8.5813  -14.1350   24.8579 C   0  0  2  0  0  0  0  0  0  0  0  0
    9.1422  -14.2663   23.5288 N   0  0  0  0  0  0  0  0  0  0  0  0
    8.6005  -15.4002   25.6045 C   0  0  0  0  0  0  0  0  0  0  0  0
    8.1991  -15.3795   26.8012 O   0  0  0  0  0  0  0  0  0  0  0  0
    9.0247  -16.5913   25.0830 O   0  0  0  0  0  0  0  0  0  0  0  0
  2  1  1  1
  3  2  1  0
  4  3  1  0
  5  2  1  0
  5  6  2  0
  7  5  1  0
  8  7  1  0
  9 10  1  0
  9  8  1  0
 10 11  1  0
 11  7  1  0
 11 12  1  1
 12 13  2  0
 12 19  1  0
 15 14  1  0
 16 17  1  0
 16 15  1  0
 18 17  1  6
 19 18  1  0
 20 18  1  0
 20 22  1  0
 21 20  2  0
M  END
$$$$
