CPM.pdb
     RDKit          3D

 22 22  0  0  1  0  0  0  0  0999 V2000
    5.2264  -15.8973   26.0455 N   0  0  0  0  0  0  0  0  0  0  0  0
    6.1278  -14.9625   25.4587 C   0  0  1  0  0  0  0  0  0  0  0  0
    6.8258  -14.1402   26.5391 C   0  0  0  0  0  0  0  0  0  0  0  0
    6.5563  -12.3734   26.2810 S   0  0  0  0  0  0  0  0  0  0  0  0
    7.1816  -15.5590   24.6231 C   0  0  0  0  0  0  0  0  0  0  0  0
    7.7110  -16.6258   25.0938 O   0  0  0  0  0  0  0  0  0  0  0  0
    7.6074  -15.0227   23.3832 N   0  0  0  0  0  0  0  0  0  0  0  0
    7.0122  -13.8692   22.7464 C   0  0  0  0  0  0  0  0  0  0  0  0
    7.8817  -13.5587   21.5450 C   0  0  0  0  0  0  0  0  0  0  0  0
    8.5150  -14.8681   21.2052 C   0  0  0  0  0  0  0  0  0  0  0  0
    8.6814  -15.5264   22.5655 C   0  0  1  0  0  0  0  0  0  0  0  0
   10.0185  -15.2147   23.1629 C   0  0  0  0  0  0  0  0  0  0  0  0
   10.4042  -14.0241   23.2177 O   0  0  0  0  0  0  0  0  0  0  0  0
   10.7850  -12.6977   28.1574 C   0  0  0  0  0  0  0  0  0  0  0  0
   10.7236  -14.4863   28.5068 S   0  0  0  0  0  0  0  0  0  0  0  0
   11.7074  -15.3584   27.2547 C   0  0  0  0  0  0  0  0  0  0  0  0
   10.9070  -15.4153   25.9825 C   0  0  0  0  0  0  0  0  0  0  0  0
   11.6869  -16.0563   24.8514 C   0  0  2  0  0  0  0  0  0  0  0  0
   10.8654  -16.2293   23.6708 N   0  0  0  0  0  0  0  0  0  0  0  0
   12.3291  -17.3069   25.2784 C   0  0  0  0  0  0  0  0  0  0  0  0
   11.6637  -18.3739   25.1674 O   0  0  0  0  0  0  0  0  0  0  0  0
   13.5969  -17.3827   25.7857 O   0  0  0  0  0  0  0  0  0  0  0  0
  2  1  1  1
  3  2  1  0
  4  3  1  0
  5  2  1  0
  5  6  2  0
  7  5  1  0
  8  7  1  0
  9 10  1  0
  9  8  1  0
 10 11  1  0
 11  7  1  0
 11 12  1  1
 12 13  2  0
 12 19  1  0
 15 14  1  0
 16 17  1  0
 16 15  1  0
 18 17  1  1
 19 18  1  0
 20 18  1  0
 20 22  1  0
 21 20  2  0
M  END
$$$$
