CPM.pdb
     RDKit          3D

 22 22  0  0  1  0  0  0  0  0999 V2000
   10.5601  -16.7605   18.5221 N   0  0  0  0  0  0  0  0  0  0  0  0
    9.5981  -17.0574   19.5306 C   0  0  1  0  0  0  0  0  0  0  0  0
    9.4592  -18.5669   19.7112 C   0  0  0  0  0  0  0  0  0  0  0  0
    8.2429  -18.9553   20.9882 S   0  0  0  0  0  0  0  0  0  0  0  0
    9.8945  -16.4905   20.8554 C   0  0  0  0  0  0  0  0  0  0  0  0
   11.1155  -16.5886   21.2287 O   0  0  0  0  0  0  0  0  0  0  0  0
    8.9280  -15.8734   21.6868 N   0  0  0  0  0  0  0  0  0  0  0  0
    7.5163  -15.8033   21.3826 C   0  0  0  0  0  0  0  0  0  0  0  0
    6.8518  -15.2149   22.6106 C   0  0  0  0  0  0  0  0  0  0  0  0
    7.9339  -14.4201   23.2651 C   0  0  0  0  0  0  0  0  0  0  0  0
    9.1839  -15.2251   22.9478 C   0  0  1  0  0  0  0  0  0  0  0  0
    9.4806  -16.2205   24.0263 C   0  0  0  0  0  0  0  0  0  0  0  0
    9.0983  -17.4057   23.8901 O   0  0  0  0  0  0  0  0  0  0  0  0
    9.3599  -13.2332   29.2793 C   0  0  0  0  0  0  0  0  0  0  0  0
   10.3887  -13.8950   27.9270 S   0  0  0  0  0  0  0  0  0  0  0  0
   10.7852  -15.6288   28.2919 C   0  0  0  0  0  0  0  0  0  0  0  0
   11.6208  -16.1684   27.1637 C   0  0  0  0  0  0  0  0  0  0  0  0
   10.7717  -16.8353   26.0993 C   0  0  2  0  0  0  0  0  0  0  0  0
   10.1837  -15.8622   25.2018 N   0  0  0  0  0  0  0  0  0  0  0  0
    9.7702  -17.7329   26.6909 C   0  0  0  0  0  0  0  0  0  0  0  0
    8.5589  -17.3842   26.6221 O   0  0  0  0  0  0  0  0  0  0  0  0
   10.0708  -18.9160   27.3075 O   0  0  0  0  0  0  0  0  0  0  0  0
  2  1  1  6
  3  2  1  0
  4  3  1  0
  5  2  1  0
  5  6  2  0
  7  5  1  0
  8  7  1  0
  9 10  1  0
  9  8  1  0
 10 11  1  0
 11  7  1  0
 11 12  1  1
 12 13  2  0
 12 19  1  0
 15 14  1  0
 16 17  1  0
 16 15  1  0
 18 17  1  1
 19 18  1  0
 20 18  1  0
 20 22  1  0
 21 20  2  0
M  END
$$$$
