CPM.pdb
     RDKit          3D

 22 22  0  0  1  0  0  0  0  0999 V2000
    6.0507  -19.6169   22.4372 N   0  0  0  0  0  0  0  0  0  0  0  0
    6.1195  -18.2017   22.5897 C   0  0  1  0  0  0  0  0  0  0  0  0
    5.9581  -17.8122   24.0569 C   0  0  0  0  0  0  0  0  0  0  0  0
    7.1416  -18.6978   25.0943 S   0  0  0  0  0  0  0  0  0  0  0  0
    7.3698  -17.5878   22.1160 C   0  0  0  0  0  0  0  0  0  0  0  0
    8.3619  -18.3897   22.0046 O   0  0  0  0  0  0  0  0  0  0  0  0
    7.5060  -16.2147   21.7963 N   0  0  0  0  0  0  0  0  0  0  0  0
    6.4041  -15.2816   21.7221 C   0  0  0  0  0  0  0  0  0  0  0  0
    7.0256  -13.9146   21.5203 C   0  0  0  0  0  0  0  0  0  0  0  0
    8.3406  -14.2038   20.8737 C   0  0  0  0  0  0  0  0  0  0  0  0
    8.7390  -15.5321   21.4969 C   0  0  1  0  0  0  0  0  0  0  0  0
    9.5677  -15.3309   22.7277 C   0  0  0  0  0  0  0  0  0  0  0  0
   10.0006  -14.1864   22.9962 O   0  0  0  0  0  0  0  0  0  0  0  0
   10.2018  -13.2187   29.4453 C   0  0  0  0  0  0  0  0  0  0  0  0
    9.2779  -13.7420   27.9629 S   0  0  0  0  0  0  0  0  0  0  0  0
   10.2218  -15.0421   27.1172 C   0  0  0  0  0  0  0  0  0  0  0  0
    9.7040  -15.1606   25.7101 C   0  0  0  0  0  0  0  0  0  0  0  0
   10.4626  -16.2041   24.9138 C   0  0  2  0  0  0  0  0  0  0  0  0
    9.8791  -16.3997   23.6025 N   0  0  0  0  0  0  0  0  0  0  0  0
   10.5993  -17.4610   25.6622 C   0  0  0  0  0  0  0  0  0  0  0  0
   11.2186  -17.4229   26.7616 O   0  0  0  0  0  0  0  0  0  0  0  0
   10.0985  -18.6620   25.2410 O   0  0  0  0  0  0  0  0  0  0  0  0
  2  1  1  1
  3  2  1  0
  4  3  1  0
  5  2  1  0
  5  6  2  0
  7  5  1  0
  8  7  1  0
  9 10  1  0
  9  8  1  0
 10 11  1  0
 11  7  1  0
 11 12  1  1
 12 13  2  0
 12 19  1  0
 15 14  1  0
 16 17  1  0
 16 15  1  0
 18 17  1  1
 19 18  1  0
 20 18  1  0
 20 22  1  0
 21 20  2  0
M  END
$$$$
