CPM.pdb
     RDKit          3D

 22 22  0  0  1  0  0  0  0  0999 V2000
    5.8913  -19.3604   21.4846 N   0  0  0  0  0  0  0  0  0  0  0  0
    6.2624  -18.3277   22.3938 C   0  0  1  0  0  0  0  0  0  0  0  0
    6.4616  -18.8949   23.7970 C   0  0  0  0  0  0  0  0  0  0  0  0
    6.7985  -17.5769   24.9845 S   0  0  0  0  0  0  0  0  0  0  0  0
    7.4951  -17.6061   22.0417 C   0  0  0  0  0  0  0  0  0  0  0  0
    8.5059  -18.3488   21.7835 O   0  0  0  0  0  0  0  0  0  0  0  0
    7.5966  -16.1946   21.9818 N   0  0  0  0  0  0  0  0  0  0  0  0
    6.5024  -15.2867   22.2444 C   0  0  0  0  0  0  0  0  0  0  0  0
    7.1007  -13.8946   22.2310 C   0  0  0  0  0  0  0  0  0  0  0  0
    8.3110  -14.0263   21.3656 C   0  0  0  0  0  0  0  0  0  0  0  0
    8.7815  -15.4427   21.6554 C   0  0  1  0  0  0  0  0  0  0  0  0
    9.7745  -15.4696   22.7758 C   0  0  0  0  0  0  0  0  0  0  0  0
   10.6258  -14.5548   22.8638 O   0  0  0  0  0  0  0  0  0  0  0  0
    8.4787  -13.4435   29.1892 C   0  0  0  0  0  0  0  0  0  0  0  0
    9.6684  -13.3668   27.8094 S   0  0  0  0  0  0  0  0  0  0  0  0
    9.9974  -15.0556   27.2296 C   0  0  0  0  0  0  0  0  0  0  0  0
    9.6394  -15.1308   25.7707 C   0  0  0  0  0  0  0  0  0  0  0  0
   10.2858  -16.3213   25.0900 C   0  0  2  0  0  0  0  0  0  0  0  0
    9.7814  -16.5023   23.7442 N   0  0  0  0  0  0  0  0  0  0  0  0
   10.1681  -17.5388   25.9038 C   0  0  0  0  0  0  0  0  0  0  0  0
   10.7416  -17.5486   27.0284 O   0  0  0  0  0  0  0  0  0  0  0  0
    9.4786  -18.6550   25.5175 O   0  0  0  0  0  0  0  0  0  0  0  0
  2  1  1  6
  3  2  1  0
  4  3  1  0
  5  2  1  0
  5  6  2  0
  7  5  1  0
  8  7  1  0
  9 10  1  0
  9  8  1  0
 10 11  1  0
 11  7  1  0
 11 12  1  1
 12 13  2  0
 12 19  1  0
 15 14  1  0
 16 17  1  0
 16 15  1  0
 18 17  1  1
 19 18  1  0
 20 18  1  0
 20 22  1  0
 21 20  2  0
M  END
$$$$
