CPM.pdb
     RDKit          3D

 22 22  0  0  1  0  0  0  0  0999 V2000
   11.8096  -17.3391   18.9604 N   0  0  0  0  0  0  0  0  0  0  0  0
   10.5295  -17.5115   19.5624 C   0  0  1  0  0  0  0  0  0  0  0  0
   10.4468  -18.8622   20.2689 C   0  0  0  0  0  0  0  0  0  0  0  0
   10.1405  -20.1920   19.0861 S   0  0  0  0  0  0  0  0  0  0  0  0
   10.1671  -16.4848   20.5519 C   0  0  0  0  0  0  0  0  0  0  0  0
   11.1373  -16.0503   21.2658 O   0  0  0  0  0  0  0  0  0  0  0  0
    8.8531  -15.9876   20.7319 N   0  0  0  0  0  0  0  0  0  0  0  0
    7.7046  -16.4247   19.9703 C   0  0  0  0  0  0  0  0  0  0  0  0
    6.5016  -15.7590   20.6071 C   0  0  0  0  0  0  0  0  0  0  0  0
    7.0621  -14.5343   21.2530 C   0  0  0  0  0  0  0  0  0  0  0  0
    8.4493  -14.9837   21.6832 C   0  0  1  0  0  0  0  0  0  0  0  0
    8.4397  -15.5235   23.0798 C   0  0  0  0  0  0  0  0  0  0  0  0
    8.2572  -16.7492   23.2631 O   0  0  0  0  0  0  0  0  0  0  0  0
    5.3300  -11.1592   27.2238 C   0  0  0  0  0  0  0  0  0  0  0  0
    6.8844  -12.0541   27.5526 S   0  0  0  0  0  0  0  0  0  0  0  0
    7.0900  -13.3462   26.2939 C   0  0  0  0  0  0  0  0  0  0  0  0
    8.3833  -14.0652   26.5639 C   0  0  0  0  0  0  0  0  0  0  0  0
    8.6289  -15.1814   25.5677 C   0  0  2  0  0  0  0  0  0  0  0  0
    8.6316  -14.6872   24.2060 N   0  0  0  0  0  0  0  0  0  0  0  0
    7.6895  -16.2945   25.7607 C   0  0  0  0  0  0  0  0  0  0  0  0
    7.9034  -17.0799   26.7256 O   0  0  0  0  0  0  0  0  0  0  0  0
    6.6041  -16.5283   24.9621 O   0  0  0  0  0  0  0  0  0  0  0  0
  2  1  1  1
  3  2  1  0
  4  3  1  0
  5  2  1  0
  5  6  2  0
  7  5  1  0
  8  7  1  0
  9 10  1  0
  9  8  1  0
 10 11  1  0
 11  7  1  0
 11 12  1  1
 12 13  2  0
 12 19  1  0
 15 14  1  0
 16 17  1  0
 16 15  1  0
 18 17  1  1
 19 18  1  0
 20 18  1  0
 20 22  1  0
 21 20  2  0
M  END
$$$$
