CPM.pdb
     RDKit          3D

 22 22  0  0  1  0  0  0  0  0999 V2000
    9.0166  -17.9562   18.6302 N   0  0  0  0  0  0  0  0  0  0  0  0
    9.5812  -18.1583   19.9229 C   0  0  1  0  0  0  0  0  0  0  0  0
   10.9782  -18.7631   19.8092 C   0  0  0  0  0  0  0  0  0  0  0  0
   11.6597  -19.1261   21.4417 S   0  0  0  0  0  0  0  0  0  0  0  0
    9.7035  -16.9425   20.7423 C   0  0  0  0  0  0  0  0  0  0  0  0
   10.8377  -16.7838   21.3151 O   0  0  0  0  0  0  0  0  0  0  0  0
    8.6658  -15.9930   20.9100 N   0  0  0  0  0  0  0  0  0  0  0  0
    7.4019  -16.0343   20.2090 C   0  0  0  0  0  0  0  0  0  0  0  0
    6.5500  -14.9383   20.8165 C   0  0  0  0  0  0  0  0  0  0  0  0
    7.5430  -13.9596   21.3526 C   0  0  0  0  0  0  0  0  0  0  0  0
    8.6952  -14.8509   21.7878 C   0  0  1  0  0  0  0  0  0  0  0  0
    8.5591  -15.2576   23.2224 C   0  0  0  0  0  0  0  0  0  0  0  0
    7.8417  -16.2418   23.5161 O   0  0  0  0  0  0  0  0  0  0  0  0
    5.7578  -10.6066   26.3976 C   0  0  0  0  0  0  0  0  0  0  0  0
    5.9606  -12.4001   26.6568 S   0  0  0  0  0  0  0  0  0  0  0  0
    7.6159  -12.8867   26.0915 C   0  0  0  0  0  0  0  0  0  0  0  0
    7.7306  -14.3824   26.2021 C   0  0  0  0  0  0  0  0  0  0  0  0
    9.0541  -14.8898   25.6641 C   0  0  2  0  0  0  0  0  0  0  0  0
    9.2194  -14.5609   24.2630 N   0  0  0  0  0  0  0  0  0  0  0  0
    9.2318  -16.3237   25.9305 C   0  0  0  0  0  0  0  0  0  0  0  0
   10.0733  -16.6553   26.8110 O   0  0  0  0  0  0  0  0  0  0  0  0
    8.5437  -17.3140   25.2850 O   0  0  0  0  0  0  0  0  0  0  0  0
  2  1  1  6
  3  2  1  0
  4  3  1  0
  5  2  1  0
  5  6  2  0
  7  5  1  0
  8  7  1  0
  9 10  1  0
  9  8  1  0
 10 11  1  0
 11  7  1  0
 11 12  1  1
 12 13  2  0
 12 19  1  0
 15 14  1  0
 16 17  1  0
 16 15  1  0
 18 17  1  6
 19 18  1  0
 20 18  1  0
 20 22  1  0
 21 20  2  0
M  END
$$$$
