CPM.pdb
     RDKit          3D

 22 22  0  0  1  0  0  0  0  0999 V2000
    8.6034  -18.5361   18.2616 N   0  0  0  0  0  0  0  0  0  0  0  0
    7.8773  -17.3900   18.6974 C   0  0  1  0  0  0  0  0  0  0  0  0
    6.5929  -17.8078   19.4090 C   0  0  0  0  0  0  0  0  0  0  0  0
    6.9424  -18.3947   21.0806 S   0  0  0  0  0  0  0  0  0  0  0  0
    8.6103  -16.5048   19.6158 C   0  0  0  0  0  0  0  0  0  0  0  0
    9.5223  -17.0756   20.3102 O   0  0  0  0  0  0  0  0  0  0  0  0
    8.3555  -15.1180   19.7507 N   0  0  0  0  0  0  0  0  0  0  0  0
    7.4285  -14.3754   18.9264 C   0  0  0  0  0  0  0  0  0  0  0  0
    7.3535  -12.9864   19.5272 C   0  0  0  0  0  0  0  0  0  0  0  0
    8.6603  -12.8230   20.2318 C   0  0  0  0  0  0  0  0  0  0  0  0
    8.9649  -14.2334   20.7109 C   0  0  1  0  0  0  0  0  0  0  0  0
    8.4312  -14.4687   22.0899 C   0  0  0  0  0  0  0  0  0  0  0  0
    7.2797  -14.9419   22.2302 O   0  0  0  0  0  0  0  0  0  0  0  0
    5.4739  -12.1617   28.2140 C   0  0  0  0  0  0  0  0  0  0  0  0
    6.0688  -12.0786   26.4923 S   0  0  0  0  0  0  0  0  0  0  0  0
    6.6153  -13.7338   25.9844 C   0  0  0  0  0  0  0  0  0  0  0  0
    7.2336  -13.6268   24.6174 C   0  0  0  0  0  0  0  0  0  0  0  0
    8.6378  -14.1976   24.5852 C   0  0  2  0  0  0  0  0  0  0  0  0
    9.1913  -14.1716   23.2468 N   0  0  0  0  0  0  0  0  0  0  0  0
    8.6915  -15.5352   25.1907 C   0  0  0  0  0  0  0  0  0  0  0  0
    8.4667  -16.5260   24.4414 O   0  0  0  0  0  0  0  0  0  0  0  0
    8.9688  -15.7688   26.5094 O   0  0  0  0  0  0  0  0  0  0  0  0
  2  1  1  1
  3  2  1  0
  4  3  1  0
  5  2  1  0
  5  6  2  0
  7  5  1  0
  8  7  1  0
  9 10  1  0
  9  8  1  0
 10 11  1  0
 11  7  1  0
 11 12  1  1
 12 13  2  0
 12 19  1  0
 15 14  1  0
 16 17  1  0
 16 15  1  0
 18 17  1  6
 19 18  1  0
 20 18  1  0
 20 22  1  0
 21 20  2  0
M  END
$$$$
