CPM.pdb
     RDKit          3D

 22 22  0  0  1  0  0  0  0  0999 V2000
    5.4738  -13.3709   26.5488 N   0  0  0  0  0  0  0  0  0  0  0  0
    6.1285  -13.2595   25.2880 C   0  0  1  0  0  0  0  0  0  0  0  0
    7.0273  -12.0258   25.2578 C   0  0  0  0  0  0  0  0  0  0  0  0
    7.9721  -11.8775   26.7896 S   0  0  0  0  0  0  0  0  0  0  0  0
    6.9662  -14.4119   24.9212 C   0  0  0  0  0  0  0  0  0  0  0  0
    7.2737  -15.1915   25.8894 O   0  0  0  0  0  0  0  0  0  0  0  0
    7.4194  -14.6743   23.6051 N   0  0  0  0  0  0  0  0  0  0  0  0
    7.1614  -13.8190   22.4683 C   0  0  0  0  0  0  0  0  0  0  0  0
    7.9658  -14.3941   21.3202 C   0  0  0  0  0  0  0  0  0  0  0  0
    8.1176  -15.8386   21.6690 C   0  0  0  0  0  0  0  0  0  0  0  0
    8.1962  -15.8135   23.1871 C   0  0  1  0  0  0  0  0  0  0  0  0
    9.6138  -15.7139   23.6588 C   0  0  0  0  0  0  0  0  0  0  0  0
   10.3267  -14.7622   23.2644 O   0  0  0  0  0  0  0  0  0  0  0  0
    9.2981  -13.9629   29.3911 C   0  0  0  0  0  0  0  0  0  0  0  0
   10.5255  -15.2007   28.8559 S   0  0  0  0  0  0  0  0  0  0  0  0
   10.5005  -15.2996   27.0432 C   0  0  0  0  0  0  0  0  0  0  0  0
   11.4492  -16.3864   26.6176 C   0  0  0  0  0  0  0  0  0  0  0  0
   11.5026  -16.5325   25.1095 C   0  0  2  0  0  0  0  0  0  0  0  0
   10.1769  -16.6670   24.5414 N   0  0  0  0  0  0  0  0  0  0  0  0
   12.4021  -17.6209   24.7035 C   0  0  0  0  0  0  0  0  0  0  0  0
   11.8816  -18.6473   24.1846 O   0  0  0  0  0  0  0  0  0  0  0  0
   13.7611  -17.5881   24.8535 O   0  0  0  0  0  0  0  0  0  0  0  0
  2  1  1  1
  3  2  1  0
  4  3  1  0
  5  2  1  0
  5  6  2  0
  7  5  1  0
  8  7  1  0
  9 10  1  0
  9  8  1  0
 10 11  1  0
 11  7  1  0
 11 12  1  6
 12 13  2  0
 12 19  1  0
 15 14  1  0
 16 17  1  0
 16 15  1  0
 18 17  1  1
 19 18  1  0
 20 18  1  0
 20 22  1  0
 21 20  2  0
M  END
$$$$
