TMK.pdb
     RDKit          3D

 25 24  0  0  1  0  0  0  0  0999 V2000
    6.6075  -17.0896   20.9864 C   0  0  0  0  0  0  0  0  0  0  0  0
    7.3637  -16.0946   20.1212 C   0  0  1  0  0  0  0  0  0  0  0  0
    6.9476  -16.0599   18.8216 O   0  0  0  0  0  0  0  0  0  0  0  0
    7.3475  -14.7195   20.7003 C   0  0  2  0  0  0  0  0  0  0  0  0
    7.9044  -13.8122   19.7333 N   0  0  0  0  0  0  0  0  0  0  0  0
    8.1155  -14.5779   21.9803 C   0  0  0  0  0  0  0  0  0  0  0  0
    9.3654  -14.5759   21.9727 O   0  0  0  0  0  0  0  0  0  0  0  0
    7.4431  -12.0674   28.1357 C   0  0  0  0  0  0  0  0  0  0  0  0
    6.0764  -11.9188   26.9631 S   0  0  0  0  0  0  0  0  0  0  0  0
    6.7110  -12.4977   25.3288 C   0  0  0  0  0  0  0  0  0  0  0  0
    7.0725  -13.9321   25.4982 C   0  0  0  0  0  0  0  0  0  0  0  0
    8.0529  -14.5101   24.5371 C   0  0  2  0  0  0  0  0  0  0  0  0
    7.4547  -14.4411   23.2169 N   0  0  0  0  0  0  0  0  0  0  0  0
    8.5012  -15.8480   24.8823 C   0  0  0  0  0  0  0  0  0  0  0  0
    7.7741  -16.8425   24.7371 O   0  0  0  0  0  0  0  0  0  0  0  0
    9.7950  -16.1653   25.4256 N   0  0  0  0  0  0  0  0  0  0  0  0
   10.1611  -17.5441   25.6398 C   0  0  1  0  0  0  0  0  0  0  0  0
   11.1580  -18.0695   24.6644 C   0  0  0  0  0  0  0  0  0  0  0  0
   11.5845  -19.4874   24.9451 C   0  0  0  0  0  0  0  0  0  0  0  0
   12.6165  -19.9457   23.9596 C   0  0  0  0  0  0  0  0  0  0  0  0
   12.9967  -21.3945   24.1577 C   0  0  0  0  0  0  0  0  0  0  0  0
   14.0055  -21.7911   23.2144 N   0  0  0  0  0  0  0  0  0  0  0  0
   10.6017  -17.7653   27.0542 C   0  0  0  0  0  0  0  0  0  0  0  0
   11.0232  -18.8300   27.5185 O   0  0  0  0  0  0  0  0  0  0  0  0
   10.5308  -16.6827   27.9124 O   0  0  0  0  0  0  0  0  0  0  0  0
  2  1  1  1
  3  2  1  0
  4  2  1  0
  4  6  1  0
  4  5  1  6
  6  7  2  0
  8  9  1  0
  9 10  1  0
 11 10  1  0
 12 11  1  1
 13  6  1  0
 13 12  1  0
 14 12  1  0
 14 15  2  0
 16 14  1  0
 17 16  1  0
 17 23  1  0
 17 18  1  6
 19 20  1  0
 19 18  1  0
 20 21  1  0
 21 22  1  0
 23 25  1  0
 24 23  2  0
M  END
$$$$
