TMK.pdb
     RDKit          3D

 25 24  0  0  1  0  0  0  0  0999 V2000
    6.9335  -18.1288   22.0298 C   0  0  0  0  0  0  0  0  0  0  0  0
    7.7624  -17.5485   20.8957 C   0  0  1  0  0  0  0  0  0  0  0  0
    7.3514  -17.9352   19.6528 O   0  0  0  0  0  0  0  0  0  0  0  0
    7.8481  -16.0604   20.9660 C   0  0  2  0  0  0  0  0  0  0  0  0
    8.4975  -15.5854   19.7739 N   0  0  0  0  0  0  0  0  0  0  0  0
    8.5991  -15.5392   22.1545 C   0  0  0  0  0  0  0  0  0  0  0  0
    9.8313  -15.3400   22.0883 O   0  0  0  0  0  0  0  0  0  0  0  0
    6.3771  -10.9703   26.0935 C   0  0  0  0  0  0  0  0  0  0  0  0
    6.4264  -12.4011   27.1958 S   0  0  0  0  0  0  0  0  0  0  0  0
    7.8520  -13.4420   26.6545 C   0  0  0  0  0  0  0  0  0  0  0  0
    7.5064  -13.9654   25.3041 C   0  0  0  0  0  0  0  0  0  0  0  0
    8.5436  -14.7627   24.5917 C   0  0  2  0  0  0  0  0  0  0  0  0
    7.9412  -15.2588   23.3683 N   0  0  0  0  0  0  0  0  0  0  0  0
    9.1343  -15.8181   25.3961 C   0  0  0  0  0  0  0  0  0  0  0  0
    9.7319  -15.5797   26.4566 O   0  0  0  0  0  0  0  0  0  0  0  0
    9.1059  -17.2174   25.0628 N   0  0  0  0  0  0  0  0  0  0  0  0
    9.8884  -18.1515   25.8348 C   0  0  1  0  0  0  0  0  0  0  0  0
   11.2602  -18.3857   25.3014 C   0  0  0  0  0  0  0  0  0  0  0  0
   12.1348  -19.1938   26.2250 C   0  0  0  0  0  0  0  0  0  0  0  0
   13.2619  -19.8372   25.4754 C   0  0  0  0  0  0  0  0  0  0  0  0
   14.1501  -20.6662   26.3736 C   0  0  0  0  0  0  0  0  0  0  0  0
   15.2695  -21.1909   25.6412 N   0  0  0  0  0  0  0  0  0  0  0  0
    9.9169  -17.7571   27.2796 C   0  0  0  0  0  0  0  0  0  0  0  0
   10.3001  -16.6685   27.7210 O   0  0  0  0  0  0  0  0  0  0  0  0
    9.4747  -18.6936   28.1967 O   0  0  0  0  0  0  0  0  0  0  0  0
  2  1  1  1
  3  2  1  0
  4  2  1  0
  4  6  1  0
  4  5  1  6
  6  7  2  0
  8  9  1  0
  9 10  1  0
 11 10  1  0
 12 11  1  1
 13  6  1  0
 13 12  1  0
 14 12  1  0
 14 15  2  0
 16 14  1  0
 17 16  1  0
 17 23  1  0
 17 18  1  6
 19 20  1  0
 19 18  1  0
 20 21  1  0
 21 22  1  0
 23 25  1  0
 24 23  2  0
M  END
$$$$
