TMK.pdb
     RDKit          3D

 25 24  0  0  1  0  0  0  0  0999 V2000
    6.5820  -14.5782   17.9891 C   0  0  0  0  0  0  0  0  0  0  0  0
    7.2142  -14.8143   19.3510 C   0  0  1  0  0  0  0  0  0  0  0  0
    8.2871  -15.6577   19.3268 O   0  0  0  0  0  0  0  0  0  0  0  0
    7.5829  -13.5371   20.0289 C   0  0  2  0  0  0  0  0  0  0  0  0
    8.4516  -12.7935   19.1566 N   0  0  0  0  0  0  0  0  0  0  0  0
    8.2738  -13.7134   21.3479 C   0  0  0  0  0  0  0  0  0  0  0  0
    9.4983  -13.9596   21.3943 O   0  0  0  0  0  0  0  0  0  0  0  0
    7.0051  -11.4872   27.7969 C   0  0  0  0  0  0  0  0  0  0  0  0
    5.7483  -12.5416   27.0396 S   0  0  0  0  0  0  0  0  0  0  0  0
    6.6426  -13.7559   25.9746 C   0  0  0  0  0  0  0  0  0  0  0  0
    7.1791  -12.9896   24.8162 C   0  0  0  0  0  0  0  0  0  0  0  0
    8.1182  -13.6973   23.9017 C   0  0  2  0  0  0  0  0  0  0  0  0
    7.5678  -13.6042   22.5622 N   0  0  0  0  0  0  0  0  0  0  0  0
    8.4103  -15.0644   24.2961 C   0  0  0  0  0  0  0  0  0  0  0  0
    7.6310  -15.9988   24.0544 O   0  0  0  0  0  0  0  0  0  0  0  0
    9.5941  -15.4803   25.0000 N   0  0  0  0  0  0  0  0  0  0  0  0
    9.8374  -16.8849   25.2207 C   0  0  1  0  0  0  0  0  0  0  0  0
   10.9135  -17.4598   24.3649 C   0  0  0  0  0  0  0  0  0  0  0  0
   10.3919  -18.2401   23.1858 C   0  0  0  0  0  0  0  0  0  0  0  0
   11.5098  -18.6639   22.2819 C   0  0  0  0  0  0  0  0  0  0  0  0
   11.0129  -19.4021   21.0608 C   0  0  0  0  0  0  0  0  0  0  0  0
   12.1066  -19.7592   20.2000 N   0  0  0  0  0  0  0  0  0  0  0  0
   10.0780  -17.1627   26.6728 C   0  0  0  0  0  0  0  0  0  0  0  0
    9.9976  -18.2693   27.2168 O   0  0  0  0  0  0  0  0  0  0  0  0
   10.4208  -16.0865   27.4714 O   0  0  0  0  0  0  0  0  0  0  0  0
  2  1  1  6
  3  2  1  0
  4  2  1  0
  4  6  1  0
  4  5  1  6
  6  7  2  0
  8  9  1  0
  9 10  1  0
 11 10  1  0
 12 11  1  1
 13  6  1  0
 13 12  1  0
 14 12  1  0
 14 15  2  0
 16 14  1  0
 17 16  1  0
 17 23  1  0
 17 18  1  6
 19 20  1  0
 19 18  1  0
 20 21  1  0
 21 22  1  0
 23 25  1  0
 24 23  2  0
M  END
$$$$
