TMK.pdb
     RDKit          3D

 25 24  0  0  1  0  0  0  0  0999 V2000
    6.8989  -16.0480   20.0586 C   0  0  0  0  0  0  0  0  0  0  0  0
    7.7889  -14.9393   19.5211 C   0  0  1  0  0  0  0  0  0  0  0  0
    7.5985  -14.6666   18.1974 O   0  0  0  0  0  0  0  0  0  0  0  0
    7.6731  -13.6864   20.3233 C   0  0  2  0  0  0  0  0  0  0  0  0
    8.4185  -12.6509   19.6596 N   0  0  0  0  0  0  0  0  0  0  0  0
    8.1756  -13.8040   21.7310 C   0  0  0  0  0  0  0  0  0  0  0  0
    9.3944  -13.6850   21.9811 O   0  0  0  0  0  0  0  0  0  0  0  0
    7.3628  -10.3598   27.1016 C   0  0  0  0  0  0  0  0  0  0  0  0
    7.5272  -12.1181   26.7195 S   0  0  0  0  0  0  0  0  0  0  0  0
    6.3417  -12.4792   25.3509 C   0  0  0  0  0  0  0  0  0  0  0  0
    6.4936  -13.9249   25.0285 C   0  0  0  0  0  0  0  0  0  0  0  0
    7.6537  -14.3204   24.1820 C   0  0  2  0  0  0  0  0  0  0  0  0
    7.2943  -14.0470   22.8029 N   0  0  0  0  0  0  0  0  0  0  0  0
    8.0966  -15.6885   24.3873 C   0  0  0  0  0  0  0  0  0  0  0  0
    7.5176  -16.6522   23.8631 O   0  0  0  0  0  0  0  0  0  0  0  0
    9.2157  -16.0748   25.2046 N   0  0  0  0  0  0  0  0  0  0  0  0
    9.9056  -17.3121   24.9324 C   0  0  1  0  0  0  0  0  0  0  0  0
   10.5624  -17.3634   23.5956 C   0  0  0  0  0  0  0  0  0  0  0  0
   11.3978  -18.5995   23.3828 C   0  0  0  0  0  0  0  0  0  0  0  0
   12.0392  -18.5910   22.0283 C   0  0  0  0  0  0  0  0  0  0  0  0
   12.8649  -19.8308   21.7757 C   0  0  0  0  0  0  0  0  0  0  0  0
   13.5469  -19.7417   20.5141 N   0  0  0  0  0  0  0  0  0  0  0  0
   10.8665  -17.6404   26.0335 C   0  0  0  0  0  0  0  0  0  0  0  0
   11.5806  -18.6473   26.0891 O   0  0  0  0  0  0  0  0  0  0  0  0
   10.9617  -16.7365   27.0764 O   0  0  0  0  0  0  0  0  0  0  0  0
  2  1  1  1
  3  2  1  0
  4  2  1  0
  4  6  1  0
  4  5  1  6
  6  7  2  0
  8  9  1  0
  9 10  1  0
 11 10  1  0
 12 11  1  1
 13  6  1  0
 13 12  1  0
 14 12  1  0
 14 15  2  0
 16 14  1  0
 17 16  1  0
 17 23  1  0
 17 18  1  6
 19 20  1  0
 19 18  1  0
 20 21  1  0
 21 22  1  0
 23 25  1  0
 24 23  2  0
M  END
$$$$
