TMK.pdb
     RDKit          3D

 25 24  0  0  1  0  0  0  0  0999 V2000
    6.3144  -17.8030   21.0509 C   0  0  0  0  0  0  0  0  0  0  0  0
    7.3044  -17.3958   19.9719 C   0  0  1  0  0  0  0  0  0  0  0  0
    6.9384  -17.7714   18.7117 O   0  0  0  0  0  0  0  0  0  0  0  0
    7.6015  -15.9338   20.0039 C   0  0  2  0  0  0  0  0  0  0  0  0
    8.3924  -15.6051   18.8486 N   0  0  0  0  0  0  0  0  0  0  0  0
    8.3382  -15.4786   21.2278 C   0  0  0  0  0  0  0  0  0  0  0  0
    9.5776  -15.6178   21.3101 O   0  0  0  0  0  0  0  0  0  0  0  0
    6.7266  -11.3455   27.7704 C   0  0  0  0  0  0  0  0  0  0  0  0
    6.2133  -12.0806   26.2016 S   0  0  0  0  0  0  0  0  0  0  0  0
    7.5697  -13.2179   25.6769 C   0  0  0  0  0  0  0  0  0  0  0  0
    7.2310  -13.6755   24.3011 C   0  0  0  0  0  0  0  0  0  0  0  0
    8.2089  -14.5646   23.6140 C   0  0  2  0  0  0  0  0  0  0  0  0
    7.6596  -14.8830   22.3092 N   0  0  0  0  0  0  0  0  0  0  0  0
    8.5701  -15.7472   24.3761 C   0  0  0  0  0  0  0  0  0  0  0  0
    7.8766  -16.7757   24.3613 O   0  0  0  0  0  0  0  0  0  0  0  0
    9.7309  -15.8576   25.2189 N   0  0  0  0  0  0  0  0  0  0  0  0
   10.2491  -17.1615   25.5537 C   0  0  1  0  0  0  0  0  0  0  0  0
   11.2138  -17.7090   24.5584 C   0  0  0  0  0  0  0  0  0  0  0  0
   10.5503  -18.3886   23.3883 C   0  0  0  0  0  0  0  0  0  0  0  0
   11.5677  -18.9141   22.4214 C   0  0  0  0  0  0  0  0  0  0  0  0
   10.9339  -19.6498   21.2639 C   0  0  0  0  0  0  0  0  0  0  0  0
   11.9182  -19.9864   20.2726 N   0  0  0  0  0  0  0  0  0  0  0  0
   10.8194  -17.1692   26.9387 C   0  0  0  0  0  0  0  0  0  0  0  0
   11.2214  -18.1674   27.5459 O   0  0  0  0  0  0  0  0  0  0  0  0
   10.9033  -15.9526   27.5918 O   0  0  0  0  0  0  0  0  0  0  0  0
  2  1  1  1
  3  2  1  0
  4  2  1  0
  4  6  1  0
  4  5  1  6
  6  7  2  0
  8  9  1  0
  9 10  1  0
 11 10  1  0
 12 11  1  1
 13  6  1  0
 13 12  1  0
 14 12  1  0
 14 15  2  0
 16 14  1  0
 17 16  1  0
 17 23  1  0
 17 18  1  6
 19 20  1  0
 19 18  1  0
 20 21  1  0
 21 22  1  0
 23 25  1  0
 24 23  2  0
M  END
$$$$
