TMK.pdb
     RDKit          3D

 25 24  0  0  1  0  0  0  0  0999 V2000
    6.9251  -16.8038   20.6993 C   0  0  0  0  0  0  0  0  0  0  0  0
    7.5181  -15.6294   19.9381 C   0  0  1  0  0  0  0  0  0  0  0  0
    7.0510  -15.5017   18.6620 O   0  0  0  0  0  0  0  0  0  0  0  0
    7.3542  -14.3417   20.6741 C   0  0  2  0  0  0  0  0  0  0  0  0
    7.7864  -13.2702   19.8176 N   0  0  0  0  0  0  0  0  0  0  0  0
    8.1230  -14.2609   21.9588 C   0  0  0  0  0  0  0  0  0  0  0  0
    9.3647  -14.1183   21.9467 O   0  0  0  0  0  0  0  0  0  0  0  0
    7.9558  -11.7580   27.9163 C   0  0  0  0  0  0  0  0  0  0  0  0
    6.4557  -11.6208   26.9185 S   0  0  0  0  0  0  0  0  0  0  0  0
    6.8503  -12.3342   25.2620 C   0  0  0  0  0  0  0  0  0  0  0  0
    7.1781  -13.7693   25.4854 C   0  0  0  0  0  0  0  0  0  0  0  0
    8.0976  -14.4222   24.5121 C   0  0  2  0  0  0  0  0  0  0  0  0
    7.4717  -14.3397   23.2055 N   0  0  0  0  0  0  0  0  0  0  0  0
    8.4730  -15.7786   24.8714 C   0  0  0  0  0  0  0  0  0  0  0  0
    7.6339  -16.6857   24.9801 O   0  0  0  0  0  0  0  0  0  0  0  0
    9.8170  -16.2129   25.1451 N   0  0  0  0  0  0  0  0  0  0  0  0
   10.0639  -17.5877   25.5055 C   0  0  1  0  0  0  0  0  0  0  0  0
   11.0678  -18.2738   24.6438 C   0  0  0  0  0  0  0  0  0  0  0  0
   10.8575  -18.0373   23.1703 C   0  0  0  0  0  0  0  0  0  0  0  0
   11.8955  -18.7484   22.3560 C   0  0  0  0  0  0  0  0  0  0  0  0
   11.7650  -18.4585   20.8790 C   0  0  0  0  0  0  0  0  0  0  0  0
   12.7421  -19.1953   20.1258 N   0  0  0  0  0  0  0  0  0  0  0  0
   10.4104  -17.7042   26.9581 C   0  0  0  0  0  0  0  0  0  0  0  0
   10.5120  -16.7624   27.7515 O   0  0  0  0  0  0  0  0  0  0  0  0
   10.6344  -18.9768   27.4519 O   0  0  0  0  0  0  0  0  0  0  0  0
  2  1  1  1
  3  2  1  0
  4  2  1  0
  4  6  1  0
  4  5  1  6
  6  7  2  0
  8  9  1  0
  9 10  1  0
 11 10  1  0
 12 11  1  1
 13  6  1  0
 13 12  1  0
 14 12  1  0
 14 15  2  0
 16 14  1  0
 17 16  1  0
 17 23  1  0
 17 18  1  6
 19 20  1  0
 19 18  1  0
 20 21  1  0
 21 22  1  0
 23 25  1  0
 24 23  2  0
M  END
$$$$
