TMK.pdb
     RDKit          3D

 25 24  0  0  1  0  0  0  0  0999 V2000
    9.2159  -17.0397   18.3157 C   0  0  0  0  0  0  0  0  0  0  0  0
    9.5441  -16.1472   19.5014 C   0  0  1  0  0  0  0  0  0  0  0  0
    9.5425  -14.8137   19.2103 O   0  0  0  0  0  0  0  0  0  0  0  0
    8.6570  -16.4165   20.6707 C   0  0  2  0  0  0  0  0  0  0  0  0
    7.3115  -16.0553   20.3134 N   0  0  0  0  0  0  0  0  0  0  0  0
    9.0324  -15.6720   21.9169 C   0  0  0  0  0  0  0  0  0  0  0  0
   10.0831  -14.9965   21.9596 O   0  0  0  0  0  0  0  0  0  0  0  0
    6.3459  -11.5093   25.6802 C   0  0  0  0  0  0  0  0  0  0  0  0
    7.7298  -12.4437   26.3705 S   0  0  0  0  0  0  0  0  0  0  0  0
    7.2296  -14.2210   26.3626 C   0  0  0  0  0  0  0  0  0  0  0  0
    7.2250  -14.6540   24.9380 C   0  0  0  0  0  0  0  0  0  0  0  0
    8.5117  -15.1375   24.3642 C   0  0  2  0  0  0  0  0  0  0  0  0
    8.2158  -15.7106   23.0643 N   0  0  0  0  0  0  0  0  0  0  0  0
    9.2391  -16.0502   25.2290 C   0  0  0  0  0  0  0  0  0  0  0  0
    8.6861  -17.0136   25.7810 O   0  0  0  0  0  0  0  0  0  0  0  0
   10.6384  -15.9414   25.5451 N   0  0  0  0  0  0  0  0  0  0  0  0
   11.1262  -16.4401   26.8078 C   0  0  1  0  0  0  0  0  0  0  0  0
   10.4733  -15.8275   27.9993 C   0  0  0  0  0  0  0  0  0  0  0  0
   10.2910  -16.7884   29.1458 C   0  0  0  0  0  0  0  0  0  0  0  0
   11.4783  -16.7691   30.0602 C   0  0  0  0  0  0  0  0  0  0  0  0
   11.3602  -17.7801   31.1768 C   0  0  0  0  0  0  0  0  0  0  0  0
   12.4778  -17.6821   32.0746 N   0  0  0  0  0  0  0  0  0  0  0  0
   11.0629  -17.9360   26.8507 C   0  0  0  0  0  0  0  0  0  0  0  0
   10.0409  -18.6173   26.7158 O   0  0  0  0  0  0  0  0  0  0  0  0
   12.2526  -18.6108   27.0583 O   0  0  0  0  0  0  0  0  0  0  0  0
  2  1  1  6
  3  2  1  0
  4  2  1  0
  4  6  1  0
  4  5  1  6
  6  7  2  0
  8  9  1  0
  9 10  1  0
 11 10  1  0
 12 11  1  1
 13  6  1  0
 13 12  1  0
 14 12  1  0
 14 15  2  0
 16 14  1  0
 17 16  1  0
 17 23  1  0
 17 18  1  1
 19 20  1  0
 19 18  1  0
 20 21  1  0
 21 22  1  0
 23 25  1  0
 24 23  2  0
M  END
$$$$
