LYG.pdb
     RDKit          3D

 25 25  0  0  1  0  0  0  0  0999 V2000
   28.0515  -17.5090  -18.4525 C   0  0  0  0  0  0  0  0  0  0  0  0
   27.0861  -16.8135  -17.5560 C   0  0  2  0  0  0  0  0  0  0  0  0
   27.8642  -15.9298  -16.5804 C   0  0  0  0  0  0  0  0  0  0  0  0
   26.2466  -17.7493  -16.7205 C   0  0  0  0  0  0  0  0  0  0  0  0
   25.5391  -18.7897  -17.5348 C   0  0  2  0  0  0  0  0  0  0  0  0
   24.5014  -18.2590  -18.3687 N   0  0  0  0  0  0  0  0  0  0  0  0
   24.9316  -19.7645  -16.5913 C   0  0  0  0  0  0  0  0  0  0  0  0
   23.8781  -19.4745  -15.9295 O   0  0  0  0  0  0  0  0  0  0  0  0
   21.7798  -27.1971  -13.2061 O   0  0  0  0  0  0  0  0  0  0  0  0
   22.5399  -26.2583  -13.8925 C   0  0  0  0  0  0  0  0  0  0  0  0
   21.9623  -25.4163  -14.8100 C   0  0  0  0  0  0  0  0  0  0  0  0
   22.7184  -24.4676  -15.5064 C   0  0  0  0  0  0  0  0  0  0  0  0
   24.0709  -24.3454  -15.2955 C   0  0  0  0  0  0  0  0  0  0  0  0
   24.9115  -23.3588  -16.0137 C   0  0  0  0  0  0  0  0  0  0  0  0
   24.8454  -21.9723  -15.4370 C   0  0  2  0  0  0  0  0  0  0  0  0
   25.4687  -21.0514  -16.3682 N   0  0  0  0  0  0  0  0  0  0  0  0
   25.4704  -21.8764  -14.0985 C   0  0  0  0  0  0  0  0  0  0  0  0
   26.6653  -21.5457  -13.9331 O   0  0  0  0  0  0  0  0  0  0  0  0
   24.6451  -25.2037  -14.3637 C   0  0  0  0  0  0  0  0  0  0  0  0
   23.9004  -26.1378  -13.6778 C   0  0  0  0  0  0  0  0  0  0  0  0
   24.6814  -22.1725  -12.9431 N   0  0  0  0  0  0  0  0  0  0  0  0
   25.1904  -22.0404  -11.6090 C   0  0  0  0  0  0  0  0  0  0  0  0
   24.6325  -20.8823  -10.9076 C   0  0  0  0  0  0  0  0  0  0  0  0
   25.0090  -20.6095   -9.6035 O   0  0  0  0  0  0  0  0  0  0  0  0
   23.8125  -20.1264  -11.4720 O   0  0  0  0  0  0  0  0  0  0  0  0
  2  1  1  1
  2  3  1  0
  4  5  1  0
  4  2  1  0
  5  7  1  0
  5  6  1  1
  7  8  2  0
  9 10  1  0
 10 11  2  0
 10 20  1  0
 11 12  1  0
 12 13  2  0
 13 14  1  0
 15 14  1  6
 16  7  1  0
 16 15  1  0
 17 15  1  0
 17 18  2  0
 19 13  1  0
 20 19  2  0
 21 22  1  0
 21 17  1  0
 23 22  1  0
 24 23  1  0
 25 23  2  0
M  END
$$$$
