LYG.pdb
     RDKit          3D

 25 25  0  0  1  0  0  0  0  0999 V2000
   14.1233  -20.8941    5.0888 C   0  0  0  0  0  0  0  0  0  0  0  0
   15.3644  -21.3622    4.4105 C   0  0  2  0  0  0  0  0  0  0  0  0
   15.8081  -22.6810    5.0446 C   0  0  0  0  0  0  0  0  0  0  0  0
   16.5259  -20.4064    4.5367 C   0  0  0  0  0  0  0  0  0  0  0  0
   16.3329  -19.1406    3.7580 C   0  0  2  0  0  0  0  0  0  0  0  0
   16.4377  -19.3169    2.3396 N   0  0  0  0  0  0  0  0  0  0  0  0
   17.3815  -18.1803    4.1912 C   0  0  0  0  0  0  0  0  0  0  0  0
   18.5665  -18.2385    3.7178 O   0  0  0  0  0  0  0  0  0  0  0  0
   21.3267  -10.7461    6.8455 O   0  0  0  0  0  0  0  0  0  0  0  0
   20.4104  -11.7539    6.5713 C   0  0  0  0  0  0  0  0  0  0  0  0
   20.1295  -12.1204    5.2787 C   0  0  0  0  0  0  0  0  0  0  0  0
   19.2088  -13.1336    4.9918 C   0  0  0  0  0  0  0  0  0  0  0  0
   18.5511  -13.7996    5.9979 C   0  0  0  0  0  0  0  0  0  0  0  0
   17.5649  -14.8753    5.7405 C   0  0  0  0  0  0  0  0  0  0  0  0
   18.1858  -16.2249    5.5115 C   0  0  2  0  0  0  0  0  0  0  0  0
   17.1417  -17.1593    5.1369 N   0  0  0  0  0  0  0  0  0  0  0  0
   18.9406  -16.7167    6.6862 C   0  0  0  0  0  0  0  0  0  0  0  0
   18.3798  -17.1787    7.7044 O   0  0  0  0  0  0  0  0  0  0  0  0
   18.8438  -13.4199    7.3036 C   0  0  0  0  0  0  0  0  0  0  0  0
   19.7506  -12.4220    7.5861 C   0  0  0  0  0  0  0  0  0  0  0  0
   20.3695  -16.6645    6.6625 N   0  0  0  0  0  0  0  0  0  0  0  0
   21.1756  -17.1524    7.7434 C   0  0  0  0  0  0  0  0  0  0  0  0
   21.1447  -16.2681    8.9102 C   0  0  0  0  0  0  0  0  0  0  0  0
   21.8657  -16.5894   10.0476 O   0  0  0  0  0  0  0  0  0  0  0  0
   20.4708  -15.2154    8.8976 O   0  0  0  0  0  0  0  0  0  0  0  0
  2  1  1  1
  2  3  1  0
  4  5  1  0
  4  2  1  0
  5  7  1  0
  5  6  1  6
  7  8  2  0
  9 10  1  0
 10 11  2  0
 10 20  1  0
 11 12  1  0
 12 13  2  0
 13 14  1  0
 15 14  1  1
 16  7  1  0
 16 15  1  0
 17 15  1  0
 17 18  2  0
 19 13  1  0
 20 19  2  0
 21 22  1  0
 21 17  1  0
 23 22  1  0
 24 23  1  0
 25 23  2  0
M  END
$$$$
