LYG.pdb
     RDKit          3D

 25 25  0  0  1  0  0  0  0  0999 V2000
   22.5209  -27.5059  -14.0534 C   0  0  0  0  0  0  0  0  0  0  0  0
   22.8928  -26.3717  -14.9449 C   0  0  2  0  0  0  0  0  0  0  0  0
   24.3814  -26.4723  -15.2796 C   0  0  0  0  0  0  0  0  0  0  0  0
   22.6772  -25.0125  -14.3248 C   0  0  0  0  0  0  0  0  0  0  0  0
   22.4386  -23.9350  -15.3387 C   0  0  2  0  0  0  0  0  0  0  0  0
   23.6184  -23.5477  -16.0541 N   0  0  0  0  0  0  0  0  0  0  0  0
   21.9141  -22.7456  -14.6178 C   0  0  0  0  0  0  0  0  0  0  0  0
   20.9957  -22.8590  -13.7372 O   0  0  0  0  0  0  0  0  0  0  0  0
   25.7877  -21.7294   -9.2148 O   0  0  0  0  0  0  0  0  0  0  0  0
   25.1038  -21.1741  -10.2892 C   0  0  0  0  0  0  0  0  0  0  0  0
   23.8786  -20.5801  -10.1156 C   0  0  0  0  0  0  0  0  0  0  0  0
   23.1819  -20.0181  -11.1905 C   0  0  0  0  0  0  0  0  0  0  0  0
   23.7018  -20.0416  -12.4624 C   0  0  0  0  0  0  0  0  0  0  0  0
   22.9971  -19.4635  -13.6307 C   0  0  0  0  0  0  0  0  0  0  0  0
   21.8521  -20.3029  -14.1243 C   0  0  2  0  0  0  0  0  0  0  0  0
   22.3873  -21.4362  -14.8542 N   0  0  0  0  0  0  0  0  0  0  0  0
   20.8972  -19.5387  -14.9583 C   0  0  0  0  0  0  0  0  0  0  0  0
   21.0849  -19.3248  -16.1763 O   0  0  0  0  0  0  0  0  0  0  0  0
   24.9438  -20.6461  -12.6262 C   0  0  0  0  0  0  0  0  0  0  0  0
   25.6299  -21.1994  -11.5675 C   0  0  0  0  0  0  0  0  0  0  0  0
   19.7094  -19.0210  -14.3530 N   0  0  0  0  0  0  0  0  0  0  0  0
   18.7510  -18.2420  -15.0816 C   0  0  0  0  0  0  0  0  0  0  0  0
   17.8352  -19.0711  -15.8680 C   0  0  0  0  0  0  0  0  0  0  0  0
   17.2652  -18.5730  -17.0273 O   0  0  0  0  0  0  0  0  0  0  0  0
   17.5553  -20.2346  -15.5070 O   0  0  0  0  0  0  0  0  0  0  0  0
  2  1  1  1
  2  3  1  0
  4  5  1  0
  4  2  1  0
  5  7  1  0
  5  6  1  1
  7  8  2  0
  9 10  1  0
 10 11  2  0
 10 20  1  0
 11 12  1  0
 12 13  2  0
 13 14  1  0
 15 14  1  6
 16  7  1  0
 16 15  1  0
 17 15  1  0
 17 18  2  0
 19 13  1  0
 20 19  2  0
 21 22  1  0
 21 17  1  0
 23 22  1  0
 24 23  1  0
 25 23  2  0
M  END
$$$$
