LYG.pdb
     RDKit          3D

 25 25  0  0  1  0  0  0  0  0999 V2000
   19.8993  -27.9743  -16.9328 C   0  0  0  0  0  0  0  0  0  0  0  0
   21.3186  -28.0910  -16.4951 C   0  0  2  0  0  0  0  0  0  0  0  0
   21.7699  -29.5427  -16.6597 C   0  0  0  0  0  0  0  0  0  0  0  0
   21.5422  -27.7274  -15.0473 C   0  0  0  0  0  0  0  0  0  0  0  0
   21.2122  -26.2977  -14.7425 C   0  0  2  0  0  0  0  0  0  0  0  0
   22.2494  -25.3783  -15.1068 N   0  0  0  0  0  0  0  0  0  0  0  0
   20.9818  -26.1903  -13.2780 C   0  0  0  0  0  0  0  0  0  0  0  0
   21.9263  -26.3997  -12.4438 O   0  0  0  0  0  0  0  0  0  0  0  0
   17.3493  -24.2838   -5.4040 O   0  0  0  0  0  0  0  0  0  0  0  0
   17.6965  -24.3666   -6.7467 C   0  0  0  0  0  0  0  0  0  0  0  0
   19.0105  -24.4622   -7.1318 C   0  0  0  0  0  0  0  0  0  0  0  0
   19.3708  -24.5460   -8.4809 C   0  0  0  0  0  0  0  0  0  0  0  0
   18.4180  -24.5352   -9.4711 C   0  0  0  0  0  0  0  0  0  0  0  0
   18.7539  -24.6168  -10.9121 C   0  0  0  0  0  0  0  0  0  0  0  0
   19.5203  -25.8544  -11.2867 C   0  0  2  0  0  0  0  0  0  0  0  0
   19.7273  -25.8561  -12.7222 N   0  0  0  0  0  0  0  0  0  0  0  0
   18.8516  -27.0995  -10.8463 C   0  0  0  0  0  0  0  0  0  0  0  0
   17.8644  -27.5835  -11.4429 O   0  0  0  0  0  0  0  0  0  0  0  0
   17.0900  -24.4380   -9.0690 C   0  0  0  0  0  0  0  0  0  0  0  0
   16.7353  -24.3556   -7.7405 C   0  0  0  0  0  0  0  0  0  0  0  0
   19.3495  -27.7820   -9.6925 N   0  0  0  0  0  0  0  0  0  0  0  0
   18.8989  -29.0909   -9.3183 C   0  0  0  0  0  0  0  0  0  0  0  0
   17.6603  -29.0562   -8.5379 C   0  0  0  0  0  0  0  0  0  0  0  0
   17.1534  -30.2189   -7.9827 O   0  0  0  0  0  0  0  0  0  0  0  0
   17.0448  -27.9827   -8.3617 O   0  0  0  0  0  0  0  0  0  0  0  0
  2  1  1  1
  2  3  1  0
  4  5  1  0
  4  2  1  0
  5  7  1  0
  5  6  1  1
  7  8  2  0
  9 10  1  0
 10 11  2  0
 10 20  1  0
 11 12  1  0
 12 13  2  0
 13 14  1  0
 15 14  1  6
 16  7  1  0
 16 15  1  0
 17 15  1  0
 17 18  2  0
 19 13  1  0
 20 19  2  0
 21 22  1  0
 21 17  1  0
 23 22  1  0
 24 23  1  0
 25 23  2  0
M  END
$$$$
