LYG.pdb
     RDKit          3D

 25 25  0  0  1  0  0  0  0  0999 V2000
   25.7198  -21.7801  -18.4579 C   0  0  0  0  0  0  0  0  0  0  0  0
   24.5430  -22.5772  -18.0115 C   0  0  2  0  0  0  0  0  0  0  0  0
   23.2658  -21.8828  -18.4854 C   0  0  0  0  0  0  0  0  0  0  0  0
   24.4328  -22.7149  -16.5124 C   0  0  0  0  0  0  0  0  0  0  0  0
   25.6937  -23.2125  -15.8735 C   0  0  2  0  0  0  0  0  0  0  0  0
   25.9318  -24.6099  -16.0839 N   0  0  0  0  0  0  0  0  0  0  0  0
   25.5848  -22.9691  -14.4111 C   0  0  0  0  0  0  0  0  0  0  0  0
   25.1501  -23.8743  -13.6216 O   0  0  0  0  0  0  0  0  0  0  0  0
   27.1895  -19.7243   -6.3354 O   0  0  0  0  0  0  0  0  0  0  0  0
   27.1654  -19.9828   -7.7003 C   0  0  0  0  0  0  0  0  0  0  0  0
   28.0308  -20.8875   -8.2631 C   0  0  0  0  0  0  0  0  0  0  0  0
   28.0148  -21.1550   -9.6360 C   0  0  0  0  0  0  0  0  0  0  0  0
   27.1290  -20.5187  -10.4720 C   0  0  0  0  0  0  0  0  0  0  0  0
   27.0799  -20.7671  -11.9321 C   0  0  0  0  0  0  0  0  0  0  0  0
   25.8868  -21.5693  -12.3707 C   0  0  2  0  0  0  0  0  0  0  0  0
   25.9477  -21.7442  -13.8092 N   0  0  0  0  0  0  0  0  0  0  0  0
   24.6018  -20.9561  -11.9655 C   0  0  0  0  0  0  0  0  0  0  0  0
   24.2816  -20.7874  -10.7681 O   0  0  0  0  0  0  0  0  0  0  0  0
   26.2569  -19.6042   -9.8906 C   0  0  0  0  0  0  0  0  0  0  0  0
   26.2727  -19.3410   -8.5385 C   0  0  0  0  0  0  0  0  0  0  0  0
   23.6842  -20.5372  -12.9793 N   0  0  0  0  0  0  0  0  0  0  0  0
   22.4190  -19.9366  -12.6718 C   0  0  0  0  0  0  0  0  0  0  0  0
   21.3136  -20.8952  -12.7305 C   0  0  0  0  0  0  0  0  0  0  0  0
   20.2367  -20.6667  -13.5702 O   0  0  0  0  0  0  0  0  0  0  0  0
   21.3248  -21.9288  -12.0277 O   0  0  0  0  0  0  0  0  0  0  0  0
  2  1  1  1
  2  3  1  0
  4  5  1  0
  4  2  1  0
  5  7  1  0
  5  6  1  1
  7  8  2  0
  9 10  1  0
 10 11  2  0
 10 20  1  0
 11 12  1  0
 12 13  2  0
 13 14  1  0
 15 14  1  6
 16  7  1  0
 16 15  1  0
 17 15  1  0
 17 18  2  0
 19 13  1  0
 20 19  2  0
 21 22  1  0
 21 17  1  0
 23 22  1  0
 24 23  1  0
 25 23  2  0
M  END
$$$$
