LYG.pdb
     RDKit          3D

 25 25  0  0  1  0  0  0  0  0999 V2000
   29.9658  -28.4191  -17.1368 C   0  0  0  0  0  0  0  0  0  0  0  0
   29.1309  -28.2399  -18.3576 C   0  0  2  0  0  0  0  0  0  0  0  0
   30.0471  -28.1832  -19.5804 C   0  0  0  0  0  0  0  0  0  0  0  0
   28.3213  -26.9659  -18.3612 C   0  0  0  0  0  0  0  0  0  0  0  0
   27.4987  -26.7887  -17.1211 C   0  0  2  0  0  0  0  0  0  0  0  0
   26.3938  -27.6967  -17.0298 N   0  0  0  0  0  0  0  0  0  0  0  0
   26.9673  -25.4005  -17.1270 C   0  0  0  0  0  0  0  0  0  0  0  0
   25.9748  -25.0765  -17.8631 O   0  0  0  0  0  0  0  0  0  0  0  0
   21.1548  -25.0956  -14.6524 O   0  0  0  0  0  0  0  0  0  0  0  0
   22.4104  -24.5124  -14.7694 C   0  0  0  0  0  0  0  0  0  0  0  0
   23.5494  -25.2272  -14.4943 C   0  0  0  0  0  0  0  0  0  0  0  0
   24.8183  -24.6496  -14.6089 C   0  0  0  0  0  0  0  0  0  0  0  0
   24.9689  -23.3416  -15.0022 C   0  0  0  0  0  0  0  0  0  0  0  0
   26.2922  -22.6875  -15.1323 C   0  0  0  0  0  0  0  0  0  0  0  0
   27.0050  -23.0118  -16.4153 C   0  0  2  0  0  0  0  0  0  0  0  0
   27.5140  -24.3675  -16.3344 N   0  0  0  0  0  0  0  0  0  0  0  0
   28.0915  -22.0556  -16.7264 C   0  0  0  0  0  0  0  0  0  0  0  0
   29.2878  -22.2735  -16.4330 O   0  0  0  0  0  0  0  0  0  0  0  0
   23.8078  -22.6271  -15.2783 C   0  0  0  0  0  0  0  0  0  0  0  0
   22.5583  -23.1961  -15.1655 C   0  0  0  0  0  0  0  0  0  0  0  0
   27.7671  -20.8306  -17.3893 N   0  0  0  0  0  0  0  0  0  0  0  0
   28.7600  -19.8541  -17.7311 C   0  0  0  0  0  0  0  0  0  0  0  0
   29.1217  -19.8944  -19.1496 C   0  0  0  0  0  0  0  0  0  0  0  0
   30.0786  -19.0277  -19.6497 O   0  0  0  0  0  0  0  0  0  0  0  0
   28.5756  -20.7072  -19.9265 O   0  0  0  0  0  0  0  0  0  0  0  0
  2  1  1  1
  2  3  1  0
  4  5  1  0
  4  2  1  0
  5  7  1  0
  5  6  1  6
  7  8  2  0
  9 10  1  0
 10 11  2  0
 10 20  1  0
 11 12  1  0
 12 13  2  0
 13 14  1  0
 15 14  1  1
 16  7  1  0
 16 15  1  0
 17 15  1  0
 17 18  2  0
 19 13  1  0
 20 19  2  0
 21 22  1  0
 21 17  1  0
 23 22  1  0
 24 23  1  0
 25 23  2  0
M  END
$$$$
