LYG.pdb
     RDKit          3D

 25 25  0  0  1  0  0  0  0  0999 V2000
   26.6425  -11.4274  -15.4598 C   0  0  0  0  0  0  0  0  0  0  0  0
   26.7669  -10.7608  -16.7864 C   0  0  2  0  0  0  0  0  0  0  0  0
   28.0192   -9.8834  -16.7843 C   0  0  0  0  0  0  0  0  0  0  0  0
   25.6050   -9.8598  -17.1276 C   0  0  0  0  0  0  0  0  0  0  0  0
   24.2862  -10.5715  -17.1163 C   0  0  2  0  0  0  0  0  0  0  0  0
   24.1930  -11.6241  -18.0842 N   0  0  0  0  0  0  0  0  0  0  0  0
   23.2297   -9.5679  -17.4099 C   0  0  0  0  0  0  0  0  0  0  0  0
   22.9867   -9.1960  -18.6076 O   0  0  0  0  0  0  0  0  0  0  0  0
   18.3847  -12.4712  -20.3816 O   0  0  0  0  0  0  0  0  0  0  0  0
   18.7886  -11.5546  -19.4188 C   0  0  0  0  0  0  0  0  0  0  0  0
   18.5583  -10.2113  -19.5819 C   0  0  0  0  0  0  0  0  0  0  0  0
   18.9609   -9.2802  -18.6188 C   0  0  0  0  0  0  0  0  0  0  0  0
   19.6035   -9.6796  -17.4716 C   0  0  0  0  0  0  0  0  0  0  0  0
   20.0519   -8.7286  -16.4275 C   0  0  0  0  0  0  0  0  0  0  0  0
   21.3616   -8.0599  -16.7388 C   0  0  2  0  0  0  0  0  0  0  0  0
   22.4397   -8.9704  -16.4034 N   0  0  0  0  0  0  0  0  0  0  0  0
   21.5256   -6.7647  -16.0409 C   0  0  0  0  0  0  0  0  0  0  0  0
   20.6637   -5.8593  -16.0858 O   0  0  0  0  0  0  0  0  0  0  0  0
   19.8314  -11.0431  -17.3172 C   0  0  0  0  0  0  0  0  0  0  0  0
   19.4348  -11.9599  -18.2657 C   0  0  0  0  0  0  0  0  0  0  0  0
   22.7156   -6.5325  -15.2825 N   0  0  0  0  0  0  0  0  0  0  0  0
   22.9635   -5.2969  -14.5984 C   0  0  0  0  0  0  0  0  0  0  0  0
   23.2757   -4.1998  -15.5167 C   0  0  0  0  0  0  0  0  0  0  0  0
   23.2377   -4.4044  -16.8855 O   0  0  0  0  0  0  0  0  0  0  0  0
   23.5796   -3.0680  -15.0818 O   0  0  0  0  0  0  0  0  0  0  0  0
  2  1  1  1
  2  3  1  0
  4  5  1  0
  4  2  1  0
  5  7  1  0
  5  6  1  6
  7  8  2  0
  9 10  1  0
 10 11  2  0
 10 20  1  0
 11 12  1  0
 12 13  2  0
 13 14  1  0
 15 14  1  1
 16  7  1  0
 16 15  1  0
 17 15  1  0
 17 18  2  0
 19 13  1  0
 20 19  2  0
 21 22  1  0
 21 17  1  0
 23 22  1  0
 24 23  1  0
 25 23  2  0
M  END
$$$$
