LYG.pdb
     RDKit          3D

 25 25  0  0  1  0  0  0  0  0999 V2000
   28.0095  -19.9564  -19.4063 C   0  0  0  0  0  0  0  0  0  0  0  0
   27.1992  -21.2057  -19.4537 C   0  0  2  0  0  0  0  0  0  0  0  0
   25.9522  -20.9555  -20.3026 C   0  0  0  0  0  0  0  0  0  0  0  0
   26.7181  -21.6723  -18.1011 C   0  0  0  0  0  0  0  0  0  0  0  0
   27.8340  -21.9030  -17.1278 C   0  0  2  0  0  0  0  0  0  0  0  0
   28.5934  -23.0887  -17.3947 N   0  0  0  0  0  0  0  0  0  0  0  0
   27.2333  -22.0242  -15.7735 C   0  0  0  0  0  0  0  0  0  0  0  0
   26.7005  -23.1175  -15.3829 O   0  0  0  0  0  0  0  0  0  0  0  0
   25.1348  -20.4361   -7.3023 O   0  0  0  0  0  0  0  0  0  0  0  0
   25.6861  -20.4189   -8.5775 C   0  0  0  0  0  0  0  0  0  0  0  0
   26.7185  -21.2593   -8.9119 C   0  0  0  0  0  0  0  0  0  0  0  0
   27.2806  -21.2499  -10.1929 C   0  0  0  0  0  0  0  0  0  0  0  0
   26.8170  -20.3957  -11.1643 C   0  0  0  0  0  0  0  0  0  0  0  0
   27.3851  -20.3480  -12.5321 C   0  0  0  0  0  0  0  0  0  0  0  0
   26.5801  -21.1067  -13.5497 C   0  0  2  0  0  0  0  0  0  0  0  0
   27.2123  -20.9590  -14.8466 N   0  0  0  0  0  0  0  0  0  0  0  0
   25.1642  -20.6772  -13.5984 C   0  0  0  0  0  0  0  0  0  0  0  0
   24.8071  -19.5812  -14.0842 O   0  0  0  0  0  0  0  0  0  0  0  0
   25.7706  -19.5488  -10.8140 C   0  0  0  0  0  0  0  0  0  0  0  0
   25.2171  -19.5582   -9.5525 C   0  0  0  0  0  0  0  0  0  0  0  0
   24.1585  -21.5459  -13.0702 N   0  0  0  0  0  0  0  0  0  0  0  0
   22.7578  -21.2613  -13.1853 C   0  0  0  0  0  0  0  0  0  0  0  0
   22.1879  -20.7360  -11.9429 C   0  0  0  0  0  0  0  0  0  0  0  0
   20.8484  -20.3912  -11.8816 O   0  0  0  0  0  0  0  0  0  0  0  0
   22.8976  -20.5915  -10.9242 O   0  0  0  0  0  0  0  0  0  0  0  0
  2  1  1  1
  2  3  1  0
  4  5  1  0
  4  2  1  0
  5  7  1  0
  5  6  1  6
  7  8  2  0
  9 10  1  0
 10 11  2  0
 10 20  1  0
 11 12  1  0
 12 13  2  0
 13 14  1  0
 15 14  1  1
 16  7  1  0
 16 15  1  0
 17 15  1  0
 17 18  2  0
 19 13  1  0
 20 19  2  0
 21 22  1  0
 21 17  1  0
 23 22  1  0
 24 23  1  0
 25 23  2  0
M  END
$$$$
