CQP.pdb
     RDKit          3D

 23 23  0  0  1  0  0  0  0  0999 V2000
   18.9451  -15.4914  -17.6480 N   0  0  0  0  0  0  0  0  0  0  0  0
   18.5959  -14.0991  -17.7806 C   0  0  1  0  0  0  0  0  0  0  0  0
   17.3652  -13.8147  -16.9336 C   0  0  0  0  0  0  0  0  0  0  0  0
   15.8910  -14.5582  -17.6713 S   0  0  0  0  0  0  0  0  0  0  0  0
   19.7216  -13.2801  -17.2378 C   0  0  0  0  0  0  0  0  0  0  0  0
   20.1743  -13.5417  -16.0958 O   0  0  0  0  0  0  0  0  0  0  0  0
   23.9131  -10.1282  -20.6310 N   0  0  0  0  0  0  0  0  0  0  0  0
   23.6771  -11.5262  -20.3952 C   0  0  0  0  0  0  0  0  0  0  0  0
   24.2215  -12.3404  -21.1733 O   0  0  0  0  0  0  0  0  0  0  0  0
   22.8361  -11.9732  -19.2895 C   0  0  0  0  0  0  0  0  0  0  0  0
   22.1999  -10.8915  -18.4899 C   0  0  0  0  0  0  0  0  0  0  0  0
   21.3902  -11.4726  -17.3529 C   0  0  2  0  0  0  0  0  0  0  0  0
   20.2959  -12.2159  -17.9714 N   0  0  0  0  0  0  0  0  0  0  0  0
   20.8086  -10.3753  -16.5158 C   0  0  0  0  0  0  0  0  0  0  0  0
   19.6276  -10.0308  -16.7634 O   0  0  0  0  0  0  0  0  0  0  0  0
   21.5346   -9.7454  -15.4927 N   0  0  0  0  0  0  0  0  0  0  0  0
   22.8898  -10.0214  -15.1044 C   0  0  0  0  0  0  0  0  0  0  0  0
   22.8814   -9.7701  -13.6017 C   0  0  0  0  0  0  0  0  0  0  0  0
   21.5622   -9.1336  -13.2784 C   0  0  0  0  0  0  0  0  0  0  0  0
   21.0518   -8.6981  -14.6299 C   0  0  1  0  0  0  0  0  0  0  0  0
   21.6293   -7.3879  -15.0263 C   0  0  0  0  0  0  0  0  0  0  0  0
   21.1636   -6.2311  -14.4522 O   0  0  0  0  0  0  0  0  0  0  0  0
   22.5465   -7.3662  -15.8924 O   0  0  0  0  0  0  0  0  0  0  0  0
  2  1  1  1
  3  2  1  0
  4  3  1  0
  5  2  1  0
  5  6  2  0
  7  8  1  0
  8 10  1  0
  9  8  2  0
 10 11  1  0
 12 11  1  6
 12 13  1  0
 12 14  1  0
 13  5  1  0
 14 16  1  0
 15 14  2  0
 16 20  1  0
 16 17  1  0
 17 18  1  0
 19 18  1  0
 20 19  1  0
 21 22  1  0
 20 21  1  6
 23 21  2  0
M  END
$$$$
