CQP.pdb
     RDKit          3D

 23 23  0  0  1  0  0  0  0  0999 V2000
   22.0025  -25.1071  -15.8544 N   0  0  0  0  0  0  0  0  0  0  0  0
   23.3893  -25.0435  -15.4660 C   0  0  1  0  0  0  0  0  0  0  0  0
   24.2537  -25.4501  -16.6494 C   0  0  0  0  0  0  0  0  0  0  0  0
   26.0011  -25.4907  -16.1856 S   0  0  0  0  0  0  0  0  0  0  0  0
   23.7167  -23.6252  -15.1288 C   0  0  0  0  0  0  0  0  0  0  0  0
   23.2420  -22.7022  -15.8360 O   0  0  0  0  0  0  0  0  0  0  0  0
   26.5354  -21.1734   -9.8940 N   0  0  0  0  0  0  0  0  0  0  0  0
   26.4835  -20.1265  -10.8774 C   0  0  0  0  0  0  0  0  0  0  0  0
   26.9070  -18.9990  -10.5395 O   0  0  0  0  0  0  0  0  0  0  0  0
   25.9582  -20.3745  -12.2161 C   0  0  0  0  0  0  0  0  0  0  0  0
   25.4992  -21.7656  -12.4773 C   0  0  0  0  0  0  0  0  0  0  0  0
   24.9228  -21.8859  -13.8699 C   0  0  2  0  0  0  0  0  0  0  0  0
   24.5470  -23.2874  -14.0348 N   0  0  0  0  0  0  0  0  0  0  0  0
   25.9625  -21.5470  -14.8932 C   0  0  0  0  0  0  0  0  0  0  0  0
   26.7157  -22.4758  -15.2736 O   0  0  0  0  0  0  0  0  0  0  0  0
   26.1062  -20.2532  -15.4185 N   0  0  0  0  0  0  0  0  0  0  0  0
   25.5419  -19.0426  -14.8895 C   0  0  0  0  0  0  0  0  0  0  0  0
   25.2640  -18.2120  -16.1361 C   0  0  0  0  0  0  0  0  0  0  0  0
   25.9163  -18.9249  -17.2835 C   0  0  0  0  0  0  0  0  0  0  0  0
   26.8490  -19.8936  -16.5989 C   0  0  1  0  0  0  0  0  0  0  0  0
   28.1297  -19.2374  -16.2296 C   0  0  0  0  0  0  0  0  0  0  0  0
   28.4243  -19.0022  -14.9096 O   0  0  0  0  0  0  0  0  0  0  0  0
   28.9287  -18.9064  -17.1482 O   0  0  0  0  0  0  0  0  0  0  0  0
  2  1  1  6
  3  2  1  0
  4  3  1  0
  5  2  1  0
  5  6  2  0
  7  8  1  0
  8 10  1  0
  9  8  2  0
 10 11  1  0
 12 11  1  1
 12 13  1  0
 12 14  1  0
 13  5  1  0
 14 16  1  0
 15 14  2  0
 16 20  1  0
 16 17  1  0
 17 18  1  0
 19 18  1  0
 20 19  1  0
 21 22  1  0
 20 21  1  1
 23 21  2  0
M  END
$$$$
