CQP.pdb
     RDKit          3D

 23 23  0  0  1  0  0  0  0  0999 V2000
   32.6429  -32.2392  -15.9909 N   0  0  0  0  0  0  0  0  0  0  0  0
   33.5284  -33.3388  -16.2824 C   0  0  1  0  0  0  0  0  0  0  0  0
   34.8756  -32.7862  -16.7214 C   0  0  0  0  0  0  0  0  0  0  0  0
   34.8066  -32.2084  -18.4336 S   0  0  0  0  0  0  0  0  0  0  0  0
   33.7425  -34.1143  -15.0233 C   0  0  0  0  0  0  0  0  0  0  0  0
   33.7967  -33.5015  -13.9283 O   0  0  0  0  0  0  0  0  0  0  0  0
   32.5072  -37.8109  -16.5208 N   0  0  0  0  0  0  0  0  0  0  0  0
   31.6870  -37.9260  -15.3462 C   0  0  0  0  0  0  0  0  0  0  0  0
   30.4628  -38.1186  -15.5165 O   0  0  0  0  0  0  0  0  0  0  0  0
   32.2644  -37.8230  -14.0099 C   0  0  0  0  0  0  0  0  0  0  0  0
   33.7405  -37.6417  -13.9616 C   0  0  0  0  0  0  0  0  0  0  0  0
   34.0937  -36.1880  -13.7423 C   0  0  2  0  0  0  0  0  0  0  0  0
   33.8865  -35.5213  -15.0249 N   0  0  0  0  0  0  0  0  0  0  0  0
   35.5367  -36.0556  -13.3634 C   0  0  0  0  0  0  0  0  0  0  0  0
   36.3487  -35.7941  -14.2836 O   0  0  0  0  0  0  0  0  0  0  0  0
   35.9841  -36.2130  -12.0422 N   0  0  0  0  0  0  0  0  0  0  0  0
   35.1843  -36.5517  -10.8979 C   0  0  0  0  0  0  0  0  0  0  0  0
   35.8652  -35.8010   -9.7604 C   0  0  0  0  0  0  0  0  0  0  0  0
   37.1583  -35.2716  -10.3062 C   0  0  0  0  0  0  0  0  0  0  0  0
   37.3396  -36.0588  -11.5807 C   0  0  1  0  0  0  0  0  0  0  0  0
   37.9529  -37.3848  -11.3111 C   0  0  0  0  0  0  0  0  0  0  0  0
   39.3030  -37.4824  -11.0822 O   0  0  0  0  0  0  0  0  0  0  0  0
   37.2108  -38.4051  -11.2981 O   0  0  0  0  0  0  0  0  0  0  0  0
  2  1  1  1
  3  2  1  0
  4  3  1  0
  5  2  1  0
  5  6  2  0
  7  8  1  0
  8 10  1  0
  9  8  2  0
 10 11  1  0
 12 11  1  6
 12 13  1  0
 12 14  1  0
 13  5  1  0
 14 16  1  0
 15 14  2  0
 16 20  1  0
 16 17  1  0
 17 18  1  0
 19 18  1  0
 20 19  1  0
 21 22  1  0
 20 21  1  1
 23 21  2  0
M  END
$$$$
