CQP.pdb
     RDKit          3D

 23 23  0  0  1  0  0  0  0  0999 V2000
   28.5592  -21.7326  -15.8580 N   0  0  0  0  0  0  0  0  0  0  0  0
   27.8035  -20.5729  -15.4556 C   0  0  1  0  0  0  0  0  0  0  0  0
   27.6547  -19.6409  -16.6482 C   0  0  0  0  0  0  0  0  0  0  0  0
   26.9279  -18.0634  -16.1450 S   0  0  0  0  0  0  0  0  0  0  0  0
   26.4358  -21.0211  -15.0543 C   0  0  0  0  0  0  0  0  0  0  0  0
   25.9040  -21.9834  -15.6614 O   0  0  0  0  0  0  0  0  0  0  0  0
   25.9135  -20.8681   -8.9425 N   0  0  0  0  0  0  0  0  0  0  0  0
   24.8500  -21.1218   -9.8754 C   0  0  0  0  0  0  0  0  0  0  0  0
   23.6903  -21.2106   -9.4147 O   0  0  0  0  0  0  0  0  0  0  0  0
   25.1172  -21.2677  -11.3026 C   0  0  0  0  0  0  0  0  0  0  0  0
   24.1765  -20.5531  -12.2074 C   0  0  0  0  0  0  0  0  0  0  0  0
   24.4161  -20.9475  -13.6472 C   0  0  2  0  0  0  0  0  0  0  0  0
   25.7182  -20.3943  -14.0091 N   0  0  0  0  0  0  0  0  0  0  0  0
   23.3748  -20.3360  -14.5332 C   0  0  0  0  0  0  0  0  0  0  0  0
   23.6466  -19.2281  -15.0559 O   0  0  0  0  0  0  0  0  0  0  0  0
   22.1412  -20.9576  -14.7826 N   0  0  0  0  0  0  0  0  0  0  0  0
   21.6535  -22.1707  -14.1874 C   0  0  0  0  0  0  0  0  0  0  0  0
   20.8259  -22.7991  -15.3016 C   0  0  0  0  0  0  0  0  0  0  0  0
   20.7090  -21.7688  -16.3855 C   0  0  0  0  0  0  0  0  0  0  0  0
   21.1258  -20.4946  -15.6930 C   0  0  1  0  0  0  0  0  0  0  0  0
   19.9912  -19.8924  -14.9465 C   0  0  0  0  0  0  0  0  0  0  0  0
   18.9685  -19.2814  -15.6286 O   0  0  0  0  0  0  0  0  0  0  0  0
   19.9919  -19.9562  -13.6864 O   0  0  0  0  0  0  0  0  0  0  0  0
  2  1  1  6
  3  2  1  0
  4  3  1  0
  5  2  1  0
  5  6  2  0
  7  8  1  0
  8 10  1  0
  9  8  2  0
 10 11  1  0
 12 11  1  1
 12 13  1  0
 12 14  1  0
 13  5  1  0
 14 16  1  0
 15 14  2  0
 16 20  1  0
 16 17  1  0
 17 18  1  0
 19 18  1  0
 20 19  1  0
 21 22  1  0
 20 21  1  1
 23 21  2  0
M  END
$$$$
