CQP.pdb
     RDKit          3D

 23 23  0  0  1  0  0  0  0  0999 V2000
   20.3510  -12.9082  -16.4764 N   0  0  0  0  0  0  0  0  0  0  0  0
   19.8946  -11.9744  -17.4754 C   0  0  1  0  0  0  0  0  0  0  0  0
   18.6570  -12.5411  -18.1537 C   0  0  0  0  0  0  0  0  0  0  0  0
   19.0221  -14.1315  -18.9331 S   0  0  0  0  0  0  0  0  0  0  0  0
   19.4978  -10.7090  -16.7871 C   0  0  0  0  0  0  0  0  0  0  0  0
   19.1787   -9.7100  -17.4782 O   0  0  0  0  0  0  0  0  0  0  0  0
   17.1601   -9.8567  -10.9433 N   0  0  0  0  0  0  0  0  0  0  0  0
   17.4376   -8.5449  -11.4609 C   0  0  0  0  0  0  0  0  0  0  0  0
   17.1000   -7.5665  -10.7583 O   0  0  0  0  0  0  0  0  0  0  0  0
   18.0891   -8.3666  -12.7545 C   0  0  0  0  0  0  0  0  0  0  0  0
   18.4102   -9.6203  -13.4888 C   0  0  0  0  0  0  0  0  0  0  0  0
   19.0974   -9.3111  -14.7996 C   0  0  2  0  0  0  0  0  0  0  0  0
   19.4699  -10.5995  -15.3773 N   0  0  0  0  0  0  0  0  0  0  0  0
   20.3448   -8.5182  -14.5575 C   0  0  0  0  0  0  0  0  0  0  0  0
   21.3480   -9.1433  -14.1365 O   0  0  0  0  0  0  0  0  0  0  0  0
   20.4116   -7.1346  -14.7852 N   0  0  0  0  0  0  0  0  0  0  0  0
   19.3442   -6.2842  -15.2338 C   0  0  0  0  0  0  0  0  0  0  0  0
   20.0617   -5.2362  -16.0753 C   0  0  0  0  0  0  0  0  0  0  0  0
   21.5313   -5.4332  -15.8482 C   0  0  0  0  0  0  0  0  0  0  0  0
   21.5738   -6.3012  -14.6146 C   0  0  1  0  0  0  0  0  0  0  0  0
   21.4540   -5.4856  -13.3787 C   0  0  0  0  0  0  0  0  0  0  0  0
   22.5295   -4.7611  -12.9280 O   0  0  0  0  0  0  0  0  0  0  0  0
   20.3531   -5.4759  -12.7624 O   0  0  0  0  0  0  0  0  0  0  0  0
  2  1  1  1
  3  2  1  0
  4  3  1  0
  5  2  1  0
  5  6  2  0
  7  8  1  0
  8 10  1  0
  9  8  2  0
 10 11  1  0
 12 11  1  1
 12 13  1  0
 12 14  1  0
 13  5  1  0
 14 16  1  0
 15 14  2  0
 16 20  1  0
 16 17  1  0
 17 18  1  0
 19 18  1  0
 20 19  1  0
 21 22  1  0
 20 21  1  1
 23 21  2  0
M  END
$$$$
