CQP.pdb
     RDKit          3D

 23 23  0  0  1  0  0  0  0  0999 V2000
   18.1458  -15.7232  -16.4991 N   0  0  0  0  0  0  0  0  0  0  0  0
   17.6672  -14.5560  -15.8013 C   0  0  1  0  0  0  0  0  0  0  0  0
   17.7264  -14.8158  -14.3040 C   0  0  0  0  0  0  0  0  0  0  0  0
   16.4713  -16.0204  -13.8101 S   0  0  0  0  0  0  0  0  0  0  0  0
   18.5886  -13.4192  -16.1032 C   0  0  0  0  0  0  0  0  0  0  0  0
   19.8289  -13.6165  -16.0923 O   0  0  0  0  0  0  0  0  0  0  0  0
   17.6368  -12.3132  -20.8306 N   0  0  0  0  0  0  0  0  0  0  0  0
   17.9053  -11.1098  -20.0920 C   0  0  0  0  0  0  0  0  0  0  0  0
   17.1999  -10.1089  -20.3478 O   0  0  0  0  0  0  0  0  0  0  0  0
   18.9590  -11.0630  -19.0834 C   0  0  0  0  0  0  0  0  0  0  0  0
   18.6278  -10.3079  -17.8448 C   0  0  0  0  0  0  0  0  0  0  0  0
   19.0882  -11.0635  -16.6188 C   0  0  2  0  0  0  0  0  0  0  0  0
   18.1072  -12.1233  -16.4020 N   0  0  0  0  0  0  0  0  0  0  0  0
   19.0887  -10.1618  -15.4229 C   0  0  0  0  0  0  0  0  0  0  0  0
   18.1281  -10.2711  -14.6229 O   0  0  0  0  0  0  0  0  0  0  0  0
   20.1094   -9.2275  -15.1868 N   0  0  0  0  0  0  0  0  0  0  0  0
   21.2740   -9.0027  -15.9973 C   0  0  0  0  0  0  0  0  0  0  0  0
   22.3394   -8.6156  -14.9793 C   0  0  0  0  0  0  0  0  0  0  0  0
   21.6336   -8.4172  -13.6707 C   0  0  0  0  0  0  0  0  0  0  0  0
   20.1838   -8.3139  -14.0758 C   0  0  1  0  0  0  0  0  0  0  0  0
   19.8440   -6.9346  -14.5110 C   0  0  0  0  0  0  0  0  0  0  0  0
   19.6723   -5.9433  -13.5770 O   0  0  0  0  0  0  0  0  0  0  0  0
   19.7192   -6.7011  -15.7446 O   0  0  0  0  0  0  0  0  0  0  0  0
  2  1  1  6
  3  2  1  0
  4  3  1  0
  5  2  1  0
  5  6  2  0
  7  8  1  0
  8 10  1  0
  9  8  2  0
 10 11  1  0
 12 11  1  6
 12 13  1  0
 12 14  1  0
 13  5  1  0
 14 16  1  0
 15 14  2  0
 16 20  1  0
 16 17  1  0
 17 18  1  0
 19 18  1  0
 20 19  1  0
 21 22  1  0
 20 21  1  6
 23 21  2  0
M  END
$$$$
