CQP.pdb
     RDKit          3D

 23 23  0  0  1  0  0  0  0  0999 V2000
   13.0294  -12.8605  -13.0964 N   0  0  0  0  0  0  0  0  0  0  0  0
   14.3678  -12.3550  -13.2738 C   0  0  1  0  0  0  0  0  0  0  0  0
   14.8524  -12.7168  -14.6692 C   0  0  0  0  0  0  0  0  0  0  0  0
   16.5923  -13.2087  -14.6383 S   0  0  0  0  0  0  0  0  0  0  0  0
   14.3217  -10.8645  -13.1797 C   0  0  0  0  0  0  0  0  0  0  0  0
   13.6243  -10.2201  -14.0018 O   0  0  0  0  0  0  0  0  0  0  0  0
   15.2617   -7.4124   -8.0802 N   0  0  0  0  0  0  0  0  0  0  0  0
   14.0812   -8.0555   -8.5887 C   0  0  0  0  0  0  0  0  0  0  0  0
   13.1398   -8.2459   -7.7873 O   0  0  0  0  0  0  0  0  0  0  0  0
   13.9887   -8.4668   -9.9859 C   0  0  0  0  0  0  0  0  0  0  0  0
   15.2071   -8.2290  -10.8062 C   0  0  0  0  0  0  0  0  0  0  0  0
   14.9930   -8.6943  -12.2288 C   0  0  2  0  0  0  0  0  0  0  0  0
   15.0409  -10.1533  -12.1910 N   0  0  0  0  0  0  0  0  0  0  0  0
   16.1015   -8.2031  -13.1081 C   0  0  0  0  0  0  0  0  0  0  0  0
   17.0841   -8.9664  -13.2711 O   0  0  0  0  0  0  0  0  0  0  0  0
   16.0641   -6.9469  -13.7334 N   0  0  0  0  0  0  0  0  0  0  0  0
   15.0605   -5.9327  -13.5666 C   0  0  0  0  0  0  0  0  0  0  0  0
   14.9987   -5.2724  -14.9382 C   0  0  0  0  0  0  0  0  0  0  0  0
   16.1541   -5.8113  -15.7286 C   0  0  0  0  0  0  0  0  0  0  0  0
   17.0306   -6.4361  -14.6711 C   0  0  1  0  0  0  0  0  0  0  0  0
   17.8993   -5.4197  -14.0233 C   0  0  0  0  0  0  0  0  0  0  0  0
   19.0004   -4.9362  -14.6853 O   0  0  0  0  0  0  0  0  0  0  0  0
   17.6027   -5.0178  -12.8647 O   0  0  0  0  0  0  0  0  0  0  0  0
  2  1  1  6
  3  2  1  0
  4  3  1  0
  5  2  1  0
  5  6  2  0
  7  8  1  0
  8 10  1  0
  9  8  2  0
 10 11  1  0
 12 11  1  1
 12 13  1  0
 12 14  1  0
 13  5  1  0
 14 16  1  0
 15 14  2  0
 16 20  1  0
 16 17  1  0
 17 18  1  0
 19 18  1  0
 20 19  1  0
 21 22  1  0
 20 21  1  1
 23 21  2  0
M  END
$$$$
