CQP.pdb
     RDKit          3D

 23 23  0  0  1  0  0  0  0  0999 V2000
   16.0076  -11.7737  -16.1356 N   0  0  0  0  0  0  0  0  0  0  0  0
   16.4212  -10.4586  -16.5570 C   0  0  1  0  0  0  0  0  0  0  0  0
   15.5078   -9.4240  -15.9178 C   0  0  0  0  0  0  0  0  0  0  0  0
   13.8508   -9.4964  -16.6384 S   0  0  0  0  0  0  0  0  0  0  0  0
   17.8062  -10.2184  -16.0504 C   0  0  0  0  0  0  0  0  0  0  0  0
   18.1044  -10.5833  -14.8862 O   0  0  0  0  0  0  0  0  0  0  0  0
   22.2605  -12.8371  -17.1769 N   0  0  0  0  0  0  0  0  0  0  0  0
   22.4033  -11.4422  -17.4923 C   0  0  0  0  0  0  0  0  0  0  0  0
   23.5224  -10.9197  -17.2939 O   0  0  0  0  0  0  0  0  0  0  0  0
   21.2846  -10.6707  -18.0241 C   0  0  0  0  0  0  0  0  0  0  0  0
   21.0866   -9.3266  -17.4173 C   0  0  0  0  0  0  0  0  0  0  0  0
   20.1199   -9.4009  -16.2571 C   0  0  2  0  0  0  0  0  0  0  0  0
   18.7958   -9.5911  -16.8427 N   0  0  0  0  0  0  0  0  0  0  0  0
   20.1238   -8.1117  -15.4947 C   0  0  0  0  0  0  0  0  0  0  0  0
   19.3318   -7.2172  -15.8782 O   0  0  0  0  0  0  0  0  0  0  0  0
   20.9683   -7.8916  -14.3951 N   0  0  0  0  0  0  0  0  0  0  0  0
   21.8962   -8.8269  -13.8226 C   0  0  0  0  0  0  0  0  0  0  0  0
   21.8751   -8.4776  -12.3397 C   0  0  0  0  0  0  0  0  0  0  0  0
   21.1038   -7.1977  -12.2091 C   0  0  0  0  0  0  0  0  0  0  0  0
   21.0607   -6.6780  -13.6251 C   0  0  1  0  0  0  0  0  0  0  0  0
   22.3035   -5.9382  -13.9645 C   0  0  0  0  0  0  0  0  0  0  0  0
   23.1991   -6.4744  -14.8562 O   0  0  0  0  0  0  0  0  0  0  0  0
   22.5118   -4.8195  -13.4195 O   0  0  0  0  0  0  0  0  0  0  0  0
  2  1  1  1
  3  2  1  0
  4  3  1  0
  5  2  1  0
  5  6  2  0
  7  8  1  0
  8 10  1  0
  9  8  2  0
 10 11  1  0
 12 11  1  6
 12 13  1  0
 12 14  1  0
 13  5  1  0
 14 16  1  0
 15 14  2  0
 16 20  1  0
 16 17  1  0
 17 18  1  0
 19 18  1  0
 20 19  1  0
 21 22  1  0
 20 21  1  6
 23 21  2  0
M  END
$$$$
