CQP.pdb
     RDKit          3D

 23 23  0  0  1  0  0  0  0  0999 V2000
   20.5149  -16.8912  -16.9350 N   0  0  0  0  0  0  0  0  0  0  0  0
   19.6922  -15.7190  -16.7694 C   0  0  1  0  0  0  0  0  0  0  0  0
   18.9844  -15.7971  -15.4255 C   0  0  0  0  0  0  0  0  0  0  0  0
   17.9025  -17.2442  -15.3516 S   0  0  0  0  0  0  0  0  0  0  0  0
   20.5840  -14.5204  -16.7456 C   0  0  0  0  0  0  0  0  0  0  0  0
   21.6663  -14.5747  -16.1106 O   0  0  0  0  0  0  0  0  0  0  0  0
   20.3016   -9.1928  -20.3280 N   0  0  0  0  0  0  0  0  0  0  0  0
   21.3142   -8.9780  -19.3310 C   0  0  0  0  0  0  0  0  0  0  0  0
   21.9094   -7.8778  -19.3440 O   0  0  0  0  0  0  0  0  0  0  0  0
   21.6307  -10.0050  -18.3437 C   0  0  0  0  0  0  0  0  0  0  0  0
   20.8165  -11.2476  -18.4277 C   0  0  0  0  0  0  0  0  0  0  0  0
   21.1647  -12.1922  -17.2996 C   0  0  2  0  0  0  0  0  0  0  0  0
   20.2474  -13.3223  -17.4177 N   0  0  0  0  0  0  0  0  0  0  0  0
   20.9357  -11.5281  -15.9768 C   0  0  0  0  0  0  0  0  0  0  0  0
   19.8084  -11.6801  -15.4472 O   0  0  0  0  0  0  0  0  0  0  0  0
   21.9253  -10.7640  -15.3384 N   0  0  0  0  0  0  0  0  0  0  0  0
   23.2285  -10.4435  -15.8509 C   0  0  0  0  0  0  0  0  0  0  0  0
   24.0963  -10.4019  -14.5992 C   0  0  0  0  0  0  0  0  0  0  0  0
   23.1642  -10.4709  -13.4259 C   0  0  0  0  0  0  0  0  0  0  0  0
   21.8209  -10.1563  -14.0368 C   0  0  1  0  0  0  0  0  0  0  0  0
   21.6165   -8.6900  -14.1606 C   0  0  0  0  0  0  0  0  0  0  0  0
   21.2946   -7.9463  -13.0525 O   0  0  0  0  0  0  0  0  0  0  0  0
   21.7449   -8.1531  -15.2952 O   0  0  0  0  0  0  0  0  0  0  0  0
  2  1  1  1
  3  2  1  0
  4  3  1  0
  5  2  1  0
  5  6  2  0
  7  8  1  0
  8 10  1  0
  9  8  2  0
 10 11  1  0
 12 11  1  6
 12 13  1  0
 12 14  1  0
 13  5  1  0
 14 16  1  0
 15 14  2  0
 16 20  1  0
 16 17  1  0
 17 18  1  0
 19 18  1  0
 20 19  1  0
 21 22  1  0
 20 21  1  6
 23 21  2  0
M  END
$$$$
