CQP.pdb
     RDKit          3D

 23 23  0  0  1  0  0  0  0  0999 V2000
   15.9661  -13.5663  -15.1392 N   0  0  0  0  0  0  0  0  0  0  0  0
   16.0009  -12.4086  -15.9975 C   0  0  1  0  0  0  0  0  0  0  0  0
   14.9826  -11.3938  -15.5011 C   0  0  0  0  0  0  0  0  0  0  0  0
   13.2976  -11.9508  -15.8485 S   0  0  0  0  0  0  0  0  0  0  0  0
   17.3547  -11.7858  -15.8893 C   0  0  0  0  0  0  0  0  0  0  0  0
   17.9376  -11.7767  -14.7768 O   0  0  0  0  0  0  0  0  0  0  0  0
   22.2395  -12.0721  -19.1045 N   0  0  0  0  0  0  0  0  0  0  0  0
   22.4563  -10.7588  -18.5624 C   0  0  0  0  0  0  0  0  0  0  0  0
   23.6290  -10.3232  -18.5627 O   0  0  0  0  0  0  0  0  0  0  0  0
   21.3489   -9.9680  -18.0352 C   0  0  0  0  0  0  0  0  0  0  0  0
   20.0057  -10.6009  -18.1326 C   0  0  0  0  0  0  0  0  0  0  0  0
   19.3120  -10.5926  -16.7892 C   0  0  2  0  0  0  0  0  0  0  0  0
   18.0034  -11.2041  -17.0034 N   0  0  0  0  0  0  0  0  0  0  0  0
   19.1099   -9.1854  -16.3179 C   0  0  0  0  0  0  0  0  0  0  0  0
   18.0323   -8.6251  -16.6333 O   0  0  0  0  0  0  0  0  0  0  0  0
   20.0706   -8.5031  -15.5549 N   0  0  0  0  0  0  0  0  0  0  0  0
   21.3618   -8.9935  -15.1600 C   0  0  0  0  0  0  0  0  0  0  0  0
   21.5797   -8.3477  -13.7974 C   0  0  0  0  0  0  0  0  0  0  0  0
   20.4853   -7.3373  -13.6191 C   0  0  0  0  0  0  0  0  0  0  0  0
   19.9395   -7.1738  -15.0163 C   0  0  1  0  0  0  0  0  0  0  0  0
   20.7525   -6.2101  -15.8020 C   0  0  0  0  0  0  0  0  0  0  0  0
   21.5810   -6.6638  -16.7982 O   0  0  0  0  0  0  0  0  0  0  0  0
   20.6631   -4.9805  -15.5337 O   0  0  0  0  0  0  0  0  0  0  0  0
  2  1  1  1
  3  2  1  0
  4  3  1  0
  5  2  1  0
  5  6  2  0
  7  8  1  0
  8 10  1  0
  9  8  2  0
 10 11  1  0
 12 11  1  6
 12 13  1  0
 12 14  1  0
 13  5  1  0
 14 16  1  0
 15 14  2  0
 16 20  1  0
 16 17  1  0
 17 18  1  0
 19 18  1  0
 20 19  1  0
 21 22  1  0
 20 21  1  6
 23 21  2  0
M  END
$$$$
