CQP.pdb
     RDKit          3D

 23 23  0  0  1  0  0  0  0  0999 V2000
   25.6069  -22.1811   -9.7617 N   0  0  0  0  0  0  0  0  0  0  0  0
   25.7359  -20.8183  -10.2138 C   0  0  1  0  0  0  0  0  0  0  0  0
   26.9298  -20.1785   -9.5221 C   0  0  0  0  0  0  0  0  0  0  0  0
   26.3897  -18.9281   -8.3326 S   0  0  0  0  0  0  0  0  0  0  0  0
   26.0154  -20.8362  -11.6814 C   0  0  0  0  0  0  0  0  0  0  0  0
   26.9810  -21.5137  -12.1129 O   0  0  0  0  0  0  0  0  0  0  0  0
   24.8774  -24.4678  -13.5043 N   0  0  0  0  0  0  0  0  0  0  0  0
   24.1245  -23.2735  -13.7734 C   0  0  0  0  0  0  0  0  0  0  0  0
   23.1460  -23.0317  -13.0325 O   0  0  0  0  0  0  0  0  0  0  0  0
   24.4918  -22.3807  -14.8678 C   0  0  0  0  0  0  0  0  0  0  0  0
   24.2641  -20.9317  -14.6171 C   0  0  0  0  0  0  0  0  0  0  0  0
   25.4997  -20.2907  -14.0269 C   0  0  2  0  0  0  0  0  0  0  0  0
   25.2248  -20.1120  -12.6038 N   0  0  0  0  0  0  0  0  0  0  0  0
   25.7300  -18.9442  -14.6411 C   0  0  0  0  0  0  0  0  0  0  0  0
   25.0885  -17.9785  -14.1610 O   0  0  0  0  0  0  0  0  0  0  0  0
   26.6204  -18.7476  -15.7084 N   0  0  0  0  0  0  0  0  0  0  0  0
   27.4383  -19.7449  -16.3410 C   0  0  0  0  0  0  0  0  0  0  0  0
   28.6896  -18.9713  -16.7375 C   0  0  0  0  0  0  0  0  0  0  0  0
   28.3896  -17.5195  -16.5085 C   0  0  0  0  0  0  0  0  0  0  0  0
   26.8870  -17.4977  -16.3725 C   0  0  1  0  0  0  0  0  0  0  0  0
   26.2270  -17.4628  -17.7030 C   0  0  0  0  0  0  0  0  0  0  0  0
   25.5394  -18.5610  -18.1567 O   0  0  0  0  0  0  0  0  0  0  0  0
   26.3135  -16.4119  -18.3959 O   0  0  0  0  0  0  0  0  0  0  0  0
  2  1  1  1
  3  2  1  0
  4  3  1  0
  5  2  1  0
  5  6  2  0
  7  8  1  0
  8 10  1  0
  9  8  2  0
 10 11  1  0
 12 11  1  6
 12 13  1  0
 12 14  1  0
 13  5  1  0
 14 16  1  0
 15 14  2  0
 16 20  1  0
 16 17  1  0
 17 18  1  0
 19 18  1  0
 20 19  1  0
 21 22  1  0
 20 21  1  6
 23 21  2  0
M  END
$$$$
