CQP.pdb
     RDKit          3D

 23 23  0  0  1  0  0  0  0  0999 V2000
   23.6184  -12.6470  -18.3003 N   0  0  0  0  0  0  0  0  0  0  0  0
   23.7278  -11.9875  -17.0231 C   0  0  1  0  0  0  0  0  0  0  0  0
   25.1542  -11.4913  -16.8430 C   0  0  0  0  0  0  0  0  0  0  0  0
   26.2580  -12.8536  -16.4004 S   0  0  0  0  0  0  0  0  0  0  0  0
   22.8283  -10.7945  -17.0333 C   0  0  0  0  0  0  0  0  0  0  0  0
   22.8222  -10.0406  -18.0378 O   0  0  0  0  0  0  0  0  0  0  0  0
   17.4788  -10.3116  -14.0034 N   0  0  0  0  0  0  0  0  0  0  0  0
   17.8108  -10.8605  -15.2896 C   0  0  0  0  0  0  0  0  0  0  0  0
   17.0065  -11.6769  -15.7911 O   0  0  0  0  0  0  0  0  0  0  0  0
   19.0379  -10.4763  -15.9797 C   0  0  0  0  0  0  0  0  0  0  0  0
   19.9200   -9.5323  -15.2415 C   0  0  0  0  0  0  0  0  0  0  0  0
   21.1865   -9.2627  -16.0221 C   0  0  2  0  0  0  0  0  0  0  0  0
   21.9804  -10.4859  -15.9442 N   0  0  0  0  0  0  0  0  0  0  0  0
   21.9613   -8.1497  -15.3863 C   0  0  0  0  0  0  0  0  0  0  0  0
   22.9016   -8.4712  -14.6202 O   0  0  0  0  0  0  0  0  0  0  0  0
   21.6661   -6.7979  -15.6231 N   0  0  0  0  0  0  0  0  0  0  0  0
   20.5852   -6.2794  -16.4148 C   0  0  0  0  0  0  0  0  0  0  0  0
   21.1701   -5.0071  -17.0151 C   0  0  0  0  0  0  0  0  0  0  0  0
   22.4802   -4.7673  -16.3250 C   0  0  0  0  0  0  0  0  0  0  0  0
   22.4002   -5.6671  -15.1164 C   0  0  1  0  0  0  0  0  0  0  0  0
   21.6548   -5.0151  -14.0090 C   0  0  0  0  0  0  0  0  0  0  0  0
   22.2769   -4.0785  -13.2214 O   0  0  0  0  0  0  0  0  0  0  0  0
   20.4514   -5.3400  -13.8137 O   0  0  0  0  0  0  0  0  0  0  0  0
  2  1  1  6
  3  2  1  0
  4  3  1  0
  5  2  1  0
  5  6  2  0
  7  8  1  0
  8 10  1  0
  9  8  2  0
 10 11  1  0
 12 11  1  1
 12 13  1  0
 12 14  1  0
 13  5  1  0
 14 16  1  0
 15 14  2  0
 16 20  1  0
 16 17  1  0
 17 18  1  0
 19 18  1  0
 20 19  1  0
 21 22  1  0
 20 21  1  1
 23 21  2  0
M  END
$$$$
