ELL.pdb
     RDKit          3D

 26 25  0  0  1  0  0  0  0  0999 V2000
    9.4129  -18.9426   19.5485 N   0  0  0  0  0  0  0  0  0  0  0  0
    8.5811  -18.4173   20.6126 C   0  0  1  0  0  0  0  0  0  0  0  0
    8.6242  -19.4277   21.7316 C   0  0  0  0  0  0  0  0  0  0  0  0
    7.9913  -20.7141   21.2001 C   0  0  0  0  0  0  0  0  0  0  0  0
    7.9838  -21.6962   22.2893 C   0  0  0  0  0  0  0  0  0  0  0  0
    8.2231  -22.9015   22.0786 O   0  0  0  0  0  0  0  0  0  0  0  0
    9.1575  -17.1351   21.1023 C   0  0  0  0  0  0  0  0  0  0  0  0
   10.4080  -17.0252   21.1786 O   0  0  0  0  0  0  0  0  0  0  0  0
    7.7042  -21.2691   23.5789 O   0  0  0  0  0  0  0  0  0  0  0  0
    6.7891  -12.5092   19.6977 C   0  0  0  0  0  0  0  0  0  0  0  0
    7.9007  -13.5870   19.8985 C   0  0  1  0  0  0  0  0  0  0  0  0
    9.1004  -13.0252   19.1592 C   0  0  0  0  0  0  0  0  0  0  0  0
    8.1452  -13.7205   21.3417 C   0  0  0  0  0  0  0  0  0  0  0  0
    9.0435  -14.7819   21.8821 C   0  0  2  0  0  0  0  0  0  0  0  0
    8.3624  -16.0399   21.4812 N   0  0  0  0  0  0  0  0  0  0  0  0
    9.3027  -14.7980   23.3265 C   0  0  0  0  0  0  0  0  0  0  0  0
   10.2545  -14.2314   23.8965 O   0  0  0  0  0  0  0  0  0  0  0  0
    6.0080  -12.8170   26.5494 C   0  0  0  0  0  0  0  0  0  0  0  0
    7.3933  -13.2351   26.0057 C   0  0  1  0  0  0  0  0  0  0  0  0
    8.3707  -12.2788   26.6445 C   0  0  0  0  0  0  0  0  0  0  0  0
    7.5576  -14.6528   26.3519 C   0  0  0  0  0  0  0  0  0  0  0  0
    8.6009  -15.4575   25.6424 C   0  0  2  0  0  0  0  0  0  0  0  0
    8.4356  -15.5032   24.2358 N   0  0  0  0  0  0  0  0  0  0  0  0
    8.8979  -16.7425   26.2762 C   0  0  0  0  0  0  0  0  0  0  0  0
    9.0399  -16.8166   27.5020 O   0  0  0  0  0  0  0  0  0  0  0  0
    9.0239  -17.8802   25.5311 O   0  0  0  0  0  0  0  0  0  0  0  0
  2  1  1  6
  2  3  1  0
  2  7  1  0
  4  5  1  0
  4  3  1  0
  5  6  2  0
  7  8  2  0
  9  5  1  0
 11 10  1  1
 11 12  1  0
 13 11  1  0
 14 13  1  1
 15 14  1  0
 15  7  1  0
 16 14  1  0
 16 17  2  0
 19 21  1  0
 19 18  1  1
 20 19  1  0
 22 21  1  1
 22 23  1  0
 22 24  1  0
 23 16  1  0
 24 25  2  0
 24 26  1  0
M  END
$$$$
