ELL.pdb
     RDKit          3D

 26 25  0  0  1  0  0  0  0  0999 V2000
    7.6698  -18.6148   22.4630 N   0  0  0  0  0  0  0  0  0  0  0  0
    8.8274  -17.9914   21.8536 C   0  0  1  0  0  0  0  0  0  0  0  0
    8.4218  -17.6063   20.4528 C   0  0  0  0  0  0  0  0  0  0  0  0
    9.7022  -17.2549   19.6947 C   0  0  0  0  0  0  0  0  0  0  0  0
    9.6481  -17.9170   18.3871 C   0  0  0  0  0  0  0  0  0  0  0  0
    9.0225  -17.4172   17.4315 O   0  0  0  0  0  0  0  0  0  0  0  0
    9.1772  -16.7565   22.6077 C   0  0  0  0  0  0  0  0  0  0  0  0
   10.2261  -16.1359   22.2974 O   0  0  0  0  0  0  0  0  0  0  0  0
   10.3091  -19.1243   18.2162 O   0  0  0  0  0  0  0  0  0  0  0  0
    5.6179  -13.2445   25.3865 C   0  0  0  0  0  0  0  0  0  0  0  0
    6.7040  -13.7142   24.3681 C   0  0  1  0  0  0  0  0  0  0  0  0
    7.3305  -12.4246   23.8722 C   0  0  0  0  0  0  0  0  0  0  0  0
    7.6642  -14.5612   25.0900 C   0  0  0  0  0  0  0  0  0  0  0  0
    8.8896  -15.0883   24.4225 C   0  0  2  0  0  0  0  0  0  0  0  0
    8.3826  -16.2529   23.6519 N   0  0  0  0  0  0  0  0  0  0  0  0
   10.0123  -15.5066   25.2700 C   0  0  0  0  0  0  0  0  0  0  0  0
   11.1900  -15.1175   25.1538 O   0  0  0  0  0  0  0  0  0  0  0  0
   10.4773  -14.6277   30.1573 C   0  0  0  0  0  0  0  0  0  0  0  0
   10.4287  -14.9145   28.6392 C   0  0  1  0  0  0  0  0  0  0  0  0
   11.1312  -13.7440   27.9957 C   0  0  0  0  0  0  0  0  0  0  0  0
   11.0582  -16.2279   28.4509 C   0  0  0  0  0  0  0  0  0  0  0  0
   10.9032  -16.9259   27.1362 C   0  0  2  0  0  0  0  0  0  0  0  0
    9.8280  -16.4421   26.3503 N   0  0  0  0  0  0  0  0  0  0  0  0
   11.0085  -18.3831   27.2172 C   0  0  0  0  0  0  0  0  0  0  0  0
   11.9320  -18.9087   27.8492 O   0  0  0  0  0  0  0  0  0  0  0  0
   10.0944  -19.1883   26.5999 O   0  0  0  0  0  0  0  0  0  0  0  0
  2  1  1  1
  2  3  1  0
  2  7  1  0
  4  5  1  0
  4  3  1  0
  5  6  2  0
  7  8  2  0
  9  5  1  0
 11 10  1  1
 11 12  1  0
 13 11  1  0
 14 13  1  1
 15 14  1  0
 15  7  1  0
 16 14  1  0
 16 17  2  0
 19 21  1  0
 19 18  1  1
 20 19  1  0
 22 21  1  1
 22 23  1  0
 22 24  1  0
 23 16  1  0
 24 25  2  0
 24 26  1  0
M  END
$$$$
