ELL.pdb
     RDKit          3D

 26 25  0  0  1  0  0  0  0  0999 V2000
    9.2434  -19.2409   19.9092 N   0  0  0  0  0  0  0  0  0  0  0  0
    9.1362  -18.9943   21.3333 C   0  0  1  0  0  0  0  0  0  0  0  0
   10.0939  -19.9442   22.0081 C   0  0  0  0  0  0  0  0  0  0  0  0
    9.2513  -20.9449   22.7996 C   0  0  0  0  0  0  0  0  0  0  0  0
   10.1109  -21.5473   23.8239 C   0  0  0  0  0  0  0  0  0  0  0  0
   11.3121  -21.2312   23.9317 O   0  0  0  0  0  0  0  0  0  0  0  0
    9.5608  -17.5977   21.6256 C   0  0  0  0  0  0  0  0  0  0  0  0
   10.6901  -17.2138   21.2270 O   0  0  0  0  0  0  0  0  0  0  0  0
    9.5703  -22.4877   24.6883 O   0  0  0  0  0  0  0  0  0  0  0  0
    6.4559  -13.2147   21.0029 C   0  0  0  0  0  0  0  0  0  0  0  0
    7.6955  -14.1614   20.9354 C   0  0  1  0  0  0  0  0  0  0  0  0
    8.7269  -13.3675   20.1559 C   0  0  0  0  0  0  0  0  0  0  0  0
    8.1275  -14.4393   22.3126 C   0  0  0  0  0  0  0  0  0  0  0  0
    9.2897  -15.3302   22.5969 C   0  0  2  0  0  0  0  0  0  0  0  0
    8.7509  -16.6882   22.3271 N   0  0  0  0  0  0  0  0  0  0  0  0
    9.8788  -15.2895   23.9404 C   0  0  0  0  0  0  0  0  0  0  0  0
   10.8191  -14.5534   24.2955 O   0  0  0  0  0  0  0  0  0  0  0  0
    8.2681  -13.0750   27.7123 C   0  0  0  0  0  0  0  0  0  0  0  0
    9.3684  -13.7396   26.8539 C   0  0  1  0  0  0  0  0  0  0  0  0
   10.6242  -12.9568   27.1505 C   0  0  0  0  0  0  0  0  0  0  0  0
    9.3858  -15.1571   27.2373 C   0  0  0  0  0  0  0  0  0  0  0  0
    9.9710  -16.1583   26.2915 C   0  0  2  0  0  0  0  0  0  0  0  0
    9.3913  -16.1371   24.9987 N   0  0  0  0  0  0  0  0  0  0  0  0
   10.1548  -17.4900   26.8694 C   0  0  0  0  0  0  0  0  0  0  0  0
   10.6413  -17.6195   27.9985 O   0  0  0  0  0  0  0  0  0  0  0  0
    9.7949  -18.6112   26.1775 O   0  0  0  0  0  0  0  0  0  0  0  0
  2  1  1  6
  2  3  1  0
  2  7  1  0
  4  5  1  0
  4  3  1  0
  5  6  2  0
  7  8  2  0
  9  5  1  0
 11 10  1  1
 11 12  1  0
 13 11  1  0
 14 13  1  1
 15 14  1  0
 15  7  1  0
 16 14  1  0
 16 17  2  0
 19 21  1  0
 19 18  1  1
 20 19  1  0
 22 21  1  1
 22 23  1  0
 22 24  1  0
 23 16  1  0
 24 25  2  0
 24 26  1  0
M  END
$$$$
