ELL.pdb
     RDKit          3D

 26 25  0  0  1  0  0  0  0  0999 V2000
   10.0478  -19.0591   19.7643 N   0  0  0  0  0  0  0  0  0  0  0  0
    9.3245  -18.6078   20.9363 C   0  0  1  0  0  0  0  0  0  0  0  0
    9.7509  -19.4998   22.0753 C   0  0  0  0  0  0  0  0  0  0  0  0
    9.3236  -20.9231   21.7157 C   0  0  0  0  0  0  0  0  0  0  0  0
    9.5818  -21.7787   22.8786 C   0  0  0  0  0  0  0  0  0  0  0  0
   10.5075  -22.6139   22.8777 O   0  0  0  0  0  0  0  0  0  0  0  0
    9.7192  -17.2073   21.2507 C   0  0  0  0  0  0  0  0  0  0  0  0
   10.9312  -16.8855   21.1559 O   0  0  0  0  0  0  0  0  0  0  0  0
    8.7759  -21.6513   24.0002 O   0  0  0  0  0  0  0  0  0  0  0  0
    7.8817  -14.6255   19.1572 C   0  0  0  0  0  0  0  0  0  0  0  0
    8.4180  -13.4882   20.0825 C   0  0  1  0  0  0  0  0  0  0  0  0
    7.5036  -12.3125   19.7940 C   0  0  0  0  0  0  0  0  0  0  0  0
    8.3130  -13.9503   21.4739 C   0  0  0  0  0  0  0  0  0  0  0  0
    9.3096  -14.8957   22.0554 C   0  0  2  0  0  0  0  0  0  0  0  0
    8.7929  -16.2275   21.6474 N   0  0  0  0  0  0  0  0  0  0  0  0
    9.5205  -14.8703   23.5075 C   0  0  0  0  0  0  0  0  0  0  0  0
   10.4106  -14.2289   24.0977 O   0  0  0  0  0  0  0  0  0  0  0  0
    5.9509  -12.9515   26.3690 C   0  0  0  0  0  0  0  0  0  0  0  0
    7.3780  -13.3278   25.9097 C   0  0  1  0  0  0  0  0  0  0  0  0
    8.2701  -12.2513   26.4781 C   0  0  0  0  0  0  0  0  0  0  0  0
    7.6191  -14.6910   26.3998 C   0  0  0  0  0  0  0  0  0  0  0  0
    8.7408  -15.4872   25.8102 C   0  0  2  0  0  0  0  0  0  0  0  0
    8.6745  -15.6199   24.4010 N   0  0  0  0  0  0  0  0  0  0  0  0
    9.0459  -16.7195   26.5378 C   0  0  0  0  0  0  0  0  0  0  0  0
    9.0963  -16.7197   27.7730 O   0  0  0  0  0  0  0  0  0  0  0  0
    9.2801  -17.8884   25.8714 O   0  0  0  0  0  0  0  0  0  0  0  0
  2  1  1  6
  2  3  1  0
  2  7  1  0
  4  5  1  0
  4  3  1  0
  5  6  2  0
  7  8  2  0
  9  5  1  0
 11 10  1  6
 11 12  1  0
 13 11  1  0
 14 13  1  1
 15 14  1  0
 15  7  1  0
 16 14  1  0
 16 17  2  0
 19 21  1  0
 19 18  1  1
 20 19  1  0
 22 21  1  1
 22 23  1  0
 22 24  1  0
 23 16  1  0
 24 25  2  0
 24 26  1  0
M  END
$$$$
