ELL.pdb
     RDKit          3D

 26 25  0  0  1  0  0  0  0  0999 V2000
    9.2541  -18.5763   19.7875 N   0  0  0  0  0  0  0  0  0  0  0  0
   10.0473  -18.3326   20.9756 C   0  0  1  0  0  0  0  0  0  0  0  0
   11.4713  -18.6820   20.6218 C   0  0  0  0  0  0  0  0  0  0  0  0
   11.4648  -20.1187   20.0986 C   0  0  0  0  0  0  0  0  0  0  0  0
   12.8273  -20.6482   20.2181 C   0  0  0  0  0  0  0  0  0  0  0  0
   13.8059  -20.0346   19.7488 O   0  0  0  0  0  0  0  0  0  0  0  0
    9.9813  -16.8871   21.3252 C   0  0  0  0  0  0  0  0  0  0  0  0
   11.0460  -16.2178   21.3306 O   0  0  0  0  0  0  0  0  0  0  0  0
   13.0250  -21.8573   20.8683 O   0  0  0  0  0  0  0  0  0  0  0  0
    6.2745  -13.4615   19.3391 C   0  0  0  0  0  0  0  0  0  0  0  0
    7.7005  -13.9061   19.7932 C   0  0  1  0  0  0  0  0  0  0  0  0
    8.5696  -12.6906   19.5307 C   0  0  0  0  0  0  0  0  0  0  0  0
    7.6339  -14.2483   21.2211 C   0  0  0  0  0  0  0  0  0  0  0  0
    8.8219  -14.7830   21.9476 C   0  0  2  0  0  0  0  0  0  0  0  0
    8.7775  -16.2374   21.6476 N   0  0  0  0  0  0  0  0  0  0  0  0
    8.8935  -14.5791   23.3992 C   0  0  0  0  0  0  0  0  0  0  0  0
    9.0714  -13.4849   23.9676 O   0  0  0  0  0  0  0  0  0  0  0  0
    6.3116  -12.4767   26.1195 C   0  0  0  0  0  0  0  0  0  0  0  0
    7.6889  -13.1232   25.8468 C   0  0  1  0  0  0  0  0  0  0  0  0
    8.6519  -12.3914   26.7494 C   0  0  0  0  0  0  0  0  0  0  0  0
    7.5252  -14.5593   26.1068 C   0  0  0  0  0  0  0  0  0  0  0  0
    8.6237  -15.4979   25.7173 C   0  0  2  0  0  0  0  0  0  0  0  0
    8.7568  -15.6802   24.3184 N   0  0  0  0  0  0  0  0  0  0  0  0
    8.6707  -16.7256   26.5121 C   0  0  0  0  0  0  0  0  0  0  0  0
    8.5506  -16.6788   27.7417 O   0  0  0  0  0  0  0  0  0  0  0  0
    8.8474  -17.9415   25.9159 O   0  0  0  0  0  0  0  0  0  0  0  0
  2  1  1  6
  2  3  1  0
  2  7  1  0
  4  5  1  0
  4  3  1  0
  5  6  2  0
  7  8  2  0
  9  5  1  0
 11 10  1  1
 11 12  1  0
 13 11  1  0
 14 13  1  1
 15 14  1  0
 15  7  1  0
 16 14  1  0
 16 17  2  0
 19 21  1  0
 19 18  1  1
 20 19  1  0
 22 21  1  6
 22 23  1  0
 22 24  1  0
 23 16  1  0
 24 25  2  0
 24 26  1  0
M  END
$$$$
