ELL.pdb
     RDKit          3D

 26 25  0  0  1  0  0  0  0  0999 V2000
    8.8666  -18.8376   21.3920 N   0  0  0  0  0  0  0  0  0  0  0  0
   10.1546  -18.2235   21.1384 C   0  0  1  0  0  0  0  0  0  0  0  0
   10.4245  -18.3828   19.6630 C   0  0  0  0  0  0  0  0  0  0  0  0
   11.9419  -18.3492   19.4776 C   0  0  0  0  0  0  0  0  0  0  0  0
   12.2237  -18.4741   18.0437 C   0  0  0  0  0  0  0  0  0  0  0  0
   11.4871  -19.1436   17.2930 O   0  0  0  0  0  0  0  0  0  0  0  0
   10.0804  -16.7714   21.4579 C   0  0  0  0  0  0  0  0  0  0  0  0
   11.1430  -16.0988   21.4614 O   0  0  0  0  0  0  0  0  0  0  0  0
   13.3344  -17.8313   17.5176 O   0  0  0  0  0  0  0  0  0  0  0  0
    6.4162  -13.2432   19.5011 C   0  0  0  0  0  0  0  0  0  0  0  0
    7.7885  -13.8558   19.9240 C   0  0  1  0  0  0  0  0  0  0  0  0
    8.8006  -12.7859   19.5602 C   0  0  0  0  0  0  0  0  0  0  0  0
    7.7420  -14.1132   21.3704 C   0  0  0  0  0  0  0  0  0  0  0  0
    8.9174  -14.6745   22.0974 C   0  0  2  0  0  0  0  0  0  0  0  0
    8.8712  -16.1191   21.7540 N   0  0  0  0  0  0  0  0  0  0  0  0
    8.9693  -14.5136   23.5552 C   0  0  0  0  0  0  0  0  0  0  0  0
    9.0678  -13.4289   24.1598 O   0  0  0  0  0  0  0  0  0  0  0  0
    6.1904  -12.7819   26.3903 C   0  0  0  0  0  0  0  0  0  0  0  0
    7.6219  -13.2676   26.0675 C   0  0  1  0  0  0  0  0  0  0  0  0
    8.5239  -12.4551   26.9643 C   0  0  0  0  0  0  0  0  0  0  0  0
    7.6225  -14.7184   26.2952 C   0  0  0  0  0  0  0  0  0  0  0  0
    8.8005  -15.5239   25.8447 C   0  0  2  0  0  0  0  0  0  0  0  0
    8.9072  -15.6511   24.4374 N   0  0  0  0  0  0  0  0  0  0  0  0
    9.0015  -16.7618   26.5985 C   0  0  0  0  0  0  0  0  0  0  0  0
    8.8712  -16.7729   27.8278 O   0  0  0  0  0  0  0  0  0  0  0  0
    9.3356  -17.9239   25.9636 O   0  0  0  0  0  0  0  0  0  0  0  0
  2  1  1  6
  2  3  1  0
  2  7  1  0
  4  5  1  0
  4  3  1  0
  5  6  2  0
  7  8  2  0
  9  5  1  0
 11 10  1  1
 11 12  1  0
 13 11  1  0
 14 13  1  1
 15 14  1  0
 15  7  1  0
 16 14  1  0
 16 17  2  0
 19 21  1  0
 19 18  1  1
 20 19  1  0
 22 21  1  6
 22 23  1  0
 22 24  1  0
 23 16  1  0
 24 25  2  0
 24 26  1  0
M  END
$$$$
