ELL.pdb
     RDKit          3D

 26 25  0  0  1  0  0  0  0  0999 V2000
   10.4816  -19.1380   20.9640 N   0  0  0  0  0  0  0  0  0  0  0  0
   11.2823  -17.9643   20.6783 C   0  0  1  0  0  0  0  0  0  0  0  0
   11.0882  -17.6565   19.2145 C   0  0  0  0  0  0  0  0  0  0  0  0
   12.4758  -17.6320   18.5727 C   0  0  0  0  0  0  0  0  0  0  0  0
   12.7338  -18.9599   18.0059 C   0  0  0  0  0  0  0  0  0  0  0  0
   12.1499  -19.3511   16.9761 O   0  0  0  0  0  0  0  0  0  0  0  0
   10.7784  -16.8159   21.4804 C   0  0  0  0  0  0  0  0  0  0  0  0
   11.5175  -15.8085   21.6233 O   0  0  0  0  0  0  0  0  0  0  0  0
   13.6479  -19.7934   18.6331 O   0  0  0  0  0  0  0  0  0  0  0  0
    6.3220  -14.1066   20.7906 C   0  0  0  0  0  0  0  0  0  0  0  0
    7.8192  -14.3555   21.1563 C   0  0  1  0  0  0  0  0  0  0  0  0
    8.3800  -12.9656   21.3915 C   0  0  0  0  0  0  0  0  0  0  0  0
    7.8563  -15.1861   22.3684 C   0  0  0  0  0  0  0  0  0  0  0  0
    9.1478  -15.6562   22.9483 C   0  0  2  0  0  0  0  0  0  0  0  0
    9.5090  -16.8090   22.0835 N   0  0  0  0  0  0  0  0  0  0  0  0
    9.1629  -16.0700   24.3563 C   0  0  0  0  0  0  0  0  0  0  0  0
    8.2942  -16.7671   24.9143 O   0  0  0  0  0  0  0  0  0  0  0  0
    8.7407  -12.6723   27.7682 C   0  0  0  0  0  0  0  0  0  0  0  0
    9.9294  -13.5077   27.2406 C   0  0  1  0  0  0  0  0  0  0  0  0
   11.1322  -13.0017   27.9989 C   0  0  0  0  0  0  0  0  0  0  0  0
    9.5712  -14.9144   27.4630 C   0  0  0  0  0  0  0  0  0  0  0  0
   10.2231  -15.9709   26.6272 C   0  0  2  0  0  0  0  0  0  0  0  0
   10.2333  -15.6830   25.2397 N   0  0  0  0  0  0  0  0  0  0  0  0
    9.8301  -17.3363   26.9767 C   0  0  0  0  0  0  0  0  0  0  0  0
    9.9038  -17.7275   28.1471 O   0  0  0  0  0  0  0  0  0  0  0  0
    9.3768  -18.2022   26.0228 O   0  0  0  0  0  0  0  0  0  0  0  0
  2  1  1  1
  2  3  1  0
  2  7  1  0
  4  5  1  0
  4  3  1  0
  5  6  2  0
  7  8  2  0
  9  5  1  0
 11 10  1  1
 11 12  1  0
 13 11  1  0
 14 13  1  6
 15 14  1  0
 15  7  1  0
 16 14  1  0
 16 17  2  0
 19 21  1  0
 19 18  1  1
 20 19  1  0
 22 21  1  1
 22 23  1  0
 22 24  1  0
 23 16  1  0
 24 25  2  0
 24 26  1  0
M  END
$$$$
