ELL.pdb
     RDKit          3D

 26 25  0  0  1  0  0  0  0  0999 V2000
    9.3704  -18.3156   20.5416 N   0  0  0  0  0  0  0  0  0  0  0  0
   10.6726  -17.7198   20.7642 C   0  0  1  0  0  0  0  0  0  0  0  0
   11.3573  -17.6670   19.4213 C   0  0  0  0  0  0  0  0  0  0  0  0
   10.7536  -18.7806   18.5650 C   0  0  0  0  0  0  0  0  0  0  0  0
   11.4770  -18.8110   17.2896 C   0  0  0  0  0  0  0  0  0  0  0  0
   12.3220  -17.9408   17.0013 O   0  0  0  0  0  0  0  0  0  0  0  0
   10.4996  -16.3301   21.2689 C   0  0  0  0  0  0  0  0  0  0  0  0
   11.5242  -15.6310   21.4766 O   0  0  0  0  0  0  0  0  0  0  0  0
   11.2114  -19.8321   16.3893 O   0  0  0  0  0  0  0  0  0  0  0  0
    6.6669  -12.8232   19.5323 C   0  0  0  0  0  0  0  0  0  0  0  0
    8.0554  -13.4176   19.9274 C   0  0  1  0  0  0  0  0  0  0  0  0
    9.0310  -12.2846   19.6706 C   0  0  0  0  0  0  0  0  0  0  0  0
    7.9979  -13.7954   21.3468 C   0  0  0  0  0  0  0  0  0  0  0  0
    9.1820  -14.3753   22.0445 C   0  0  2  0  0  0  0  0  0  0  0  0
    9.2379  -15.7646   21.5212 N   0  0  0  0  0  0  0  0  0  0  0  0
    9.1761  -14.3989   23.5118 C   0  0  0  0  0  0  0  0  0  0  0  0
    9.4874  -13.4460   24.2515 O   0  0  0  0  0  0  0  0  0  0  0  0
    8.0651  -12.5642   26.3632 C   0  0  0  0  0  0  0  0  0  0  0  0
    7.0143  -13.6334   26.7400 C   0  0  1  0  0  0  0  0  0  0  0  0
    5.7201  -12.8733   26.8985 C   0  0  0  0  0  0  0  0  0  0  0  0
    7.0471  -14.6351   25.6666 C   0  0  0  0  0  0  0  0  0  0  0  0
    8.2399  -15.5306   25.5450 C   0  0  2  0  0  0  0  0  0  0  0  0
    8.7920  -15.5808   24.2409 N   0  0  0  0  0  0  0  0  0  0  0  0
    8.0836  -16.8272   26.2050 C   0  0  0  0  0  0  0  0  0  0  0  0
    7.8366  -16.8866   27.4149 O   0  0  0  0  0  0  0  0  0  0  0  0
    8.2068  -17.9918   25.5024 O   0  0  0  0  0  0  0  0  0  0  0  0
  2  1  1  6
  2  3  1  0
  2  7  1  0
  4  5  1  0
  4  3  1  0
  5  6  2  0
  7  8  2  0
  9  5  1  0
 11 10  1  1
 11 12  1  0
 13 11  1  0
 14 13  1  6
 15 14  1  0
 15  7  1  0
 16 14  1  0
 16 17  2  0
 19 21  1  0
 19 18  1  6
 20 19  1  0
 22 21  1  6
 22 23  1  0
 22 24  1  0
 23 16  1  0
 24 25  2  0
 24 26  1  0
M  END
$$$$
