ELL.pdb
     RDKit          3D

 26 25  0  0  1  0  0  0  0  0999 V2000
    8.2702  -18.2873   21.4400 N   0  0  0  0  0  0  0  0  0  0  0  0
    9.6210  -17.7624   21.4502 C   0  0  1  0  0  0  0  0  0  0  0  0
    9.9687  -17.4405   20.0182 C   0  0  0  0  0  0  0  0  0  0  0  0
    9.9490  -18.7588   19.2438 C   0  0  0  0  0  0  0  0  0  0  0  0
   10.7989  -18.5985   18.0593 C   0  0  0  0  0  0  0  0  0  0  0  0
   11.4830  -17.5708   17.8850 O   0  0  0  0  0  0  0  0  0  0  0  0
    9.6557  -16.5048   22.2460 C   0  0  0  0  0  0  0  0  0  0  0  0
   10.7107  -15.8203   22.2481 O   0  0  0  0  0  0  0  0  0  0  0  0
   10.8385  -19.6152   17.1167 O   0  0  0  0  0  0  0  0  0  0  0  0
    7.3001  -12.1670   24.7680 C   0  0  0  0  0  0  0  0  0  0  0  0
    7.1201  -13.5785   25.4105 C   0  0  1  0  0  0  0  0  0  0  0  0
    5.6815  -13.5865   25.8920 C   0  0  0  0  0  0  0  0  0  0  0  0
    7.3666  -14.5845   24.3676 C   0  0  0  0  0  0  0  0  0  0  0  0
    8.7428  -14.8549   23.8594 C   0  0  2  0  0  0  0  0  0  0  0  0
    8.5571  -16.0484   22.9943 N   0  0  0  0  0  0  0  0  0  0  0  0
    9.8028  -15.1148   24.8405 C   0  0  0  0  0  0  0  0  0  0  0  0
   10.7677  -14.3637   25.0783 O   0  0  0  0  0  0  0  0  0  0  0  0
   11.4584  -14.3923   29.2016 C   0  0  0  0  0  0  0  0  0  0  0  0
   10.1351  -15.1897   29.2493 C   0  0  1  0  0  0  0  0  0  0  0  0
    9.2412  -14.4116   30.1838 C   0  0  0  0  0  0  0  0  0  0  0  0
    9.6746  -15.3010   27.8592 C   0  0  0  0  0  0  0  0  0  0  0  0
   10.2823  -16.3434   26.9739 C   0  0  2  0  0  0  0  0  0  0  0  0
    9.8071  -16.3140   25.6393 N   0  0  0  0  0  0  0  0  0  0  0  0
   10.3549  -17.6734   27.5796 C   0  0  0  0  0  0  0  0  0  0  0  0
    9.4968  -18.5252   27.3213 O   0  0  0  0  0  0  0  0  0  0  0  0
   11.3658  -17.9997   28.4378 O   0  0  0  0  0  0  0  0  0  0  0  0
  2  1  1  6
  2  3  1  0
  2  7  1  0
  4  5  1  0
  4  3  1  0
  5  6  2  0
  7  8  2  0
  9  5  1  0
 11 10  1  6
 11 12  1  0
 13 11  1  0
 14 13  1  1
 15 14  1  0
 15  7  1  0
 16 14  1  0
 16 17  2  0
 19 21  1  0
 19 18  1  6
 20 19  1  0
 22 21  1  1
 22 23  1  0
 22 24  1  0
 23 16  1  0
 24 25  2  0
 24 26  1  0
M  END
$$$$
