ELL.pdb
     RDKit          3D

 26 25  0  0  1  0  0  0  0  0999 V2000
    9.1273  -15.8845   19.7737 N   0  0  0  0  0  0  0  0  0  0  0  0
    8.5031  -16.5623   20.8923 C   0  0  1  0  0  0  0  0  0  0  0  0
    9.0393  -17.9721   20.8953 C   0  0  0  0  0  0  0  0  0  0  0  0
   10.2190  -18.0062   19.9232 C   0  0  0  0  0  0  0  0  0  0  0  0
   10.7089  -19.3870   19.8572 C   0  0  0  0  0  0  0  0  0  0  0  0
   11.9263  -19.6406   19.7675 O   0  0  0  0  0  0  0  0  0  0  0  0
    8.9046  -15.8942   22.1605 C   0  0  0  0  0  0  0  0  0  0  0  0
   10.0603  -15.4059   22.2463 O   0  0  0  0  0  0  0  0  0  0  0  0
    9.7938  -20.4285   19.8961 O   0  0  0  0  0  0  0  0  0  0  0  0
    5.3539  -13.0450   25.4030 C   0  0  0  0  0  0  0  0  0  0  0  0
    6.6078  -13.3406   24.5212 C   0  0  1  0  0  0  0  0  0  0  0  0
    7.4510  -12.0852   24.6420 C   0  0  0  0  0  0  0  0  0  0  0  0
    7.2821  -14.5229   25.0762 C   0  0  0  0  0  0  0  0  0  0  0  0
    8.5340  -15.0597   24.4681 C   0  0  2  0  0  0  0  0  0  0  0  0
    8.0447  -15.7840   23.2668 N   0  0  0  0  0  0  0  0  0  0  0  0
    9.3679  -15.9540   25.2797 C   0  0  0  0  0  0  0  0  0  0  0  0
    9.7254  -17.1022   24.9544 O   0  0  0  0  0  0  0  0  0  0  0  0
   10.8015  -14.3870   30.6125 C   0  0  0  0  0  0  0  0  0  0  0  0
   10.4434  -14.5359   29.1162 C   0  0  1  0  0  0  0  0  0  0  0  0
   10.8722  -13.2369   28.4786 C   0  0  0  0  0  0  0  0  0  0  0  0
   11.1354  -15.7437   28.6483 C   0  0  0  0  0  0  0  0  0  0  0  0
   10.7123  -16.3688   27.3561 C   0  0  2  0  0  0  0  0  0  0  0  0
    9.8584  -15.5524   26.5735 N   0  0  0  0  0  0  0  0  0  0  0  0
   10.2984  -17.7671   27.4759 C   0  0  0  0  0  0  0  0  0  0  0  0
   11.0621  -18.6047   27.9694 O   0  0  0  0  0  0  0  0  0  0  0  0
    9.0670  -18.1738   27.0474 O   0  0  0  0  0  0  0  0  0  0  0  0
  2  1  1  6
  2  3  1  0
  2  7  1  0
  4  5  1  0
  4  3  1  0
  5  6  2  0
  7  8  2  0
  9  5  1  0
 11 10  1  1
 11 12  1  0
 13 11  1  0
 14 13  1  1
 15 14  1  0
 15  7  1  0
 16 14  1  0
 16 17  2  0
 19 21  1  0
 19 18  1  1
 20 19  1  0
 22 21  1  1
 22 23  1  0
 22 24  1  0
 23 16  1  0
 24 25  2  0
 24 26  1  0
M  END
$$$$
