ELL.pdb
     RDKit          3D

 26 25  0  0  1  0  0  0  0  0999 V2000
    5.9685  -18.6355   22.5986 N   0  0  0  0  0  0  0  0  0  0  0  0
    6.2685  -18.2830   23.9719 C   0  0  1  0  0  0  0  0  0  0  0  0
    6.9133  -19.4950   24.5966 C   0  0  0  0  0  0  0  0  0  0  0  0
    7.1611  -19.1638   26.0686 C   0  0  0  0  0  0  0  0  0  0  0  0
    7.8157  -20.3213   26.6871 C   0  0  0  0  0  0  0  0  0  0  0  0
    7.9767  -21.3875   26.0614 O   0  0  0  0  0  0  0  0  0  0  0  0
    7.2435  -17.1582   23.9909 C   0  0  0  0  0  0  0  0  0  0  0  0
    8.1745  -17.1515   23.1454 O   0  0  0  0  0  0  0  0  0  0  0  0
    8.2634  -20.2215   27.9961 O   0  0  0  0  0  0  0  0  0  0  0  0
    5.8793  -12.0390   25.9106 C   0  0  0  0  0  0  0  0  0  0  0  0
    6.5524  -12.9398   24.8275 C   0  0  1  0  0  0  0  0  0  0  0  0
    7.2884  -11.9591   23.9341 C   0  0  0  0  0  0  0  0  0  0  0  0
    7.4653  -13.8655   25.5133 C   0  0  0  0  0  0  0  0  0  0  0  0
    8.1335  -14.9809   24.7823 C   0  0  2  0  0  0  0  0  0  0  0  0
    7.1662  -16.1009   24.9136 N   0  0  0  0  0  0  0  0  0  0  0  0
    9.4576  -15.4140   25.2437 C   0  0  0  0  0  0  0  0  0  0  0  0
   10.5456  -15.0708   24.7431 O   0  0  0  0  0  0  0  0  0  0  0  0
   10.7643  -14.9084   30.3138 C   0  0  0  0  0  0  0  0  0  0  0  0
   10.5383  -14.9565   28.7854 C   0  0  1  0  0  0  0  0  0  0  0  0
   11.2590  -13.7462   28.2436 C   0  0  0  0  0  0  0  0  0  0  0  0
   11.0423  -16.2615   28.3384 C   0  0  0  0  0  0  0  0  0  0  0  0
   10.8680  -16.6554   26.9052 C   0  0  2  0  0  0  0  0  0  0  0  0
    9.6055  -16.3100   26.3623 N   0  0  0  0  0  0  0  0  0  0  0  0
   11.3284  -18.0097   26.5974 C   0  0  0  0  0  0  0  0  0  0  0  0
   12.4405  -18.3932   26.9779 O   0  0  0  0  0  0  0  0  0  0  0  0
   10.5441  -18.8734   25.8875 O   0  0  0  0  0  0  0  0  0  0  0  0
  2  1  1  6
  2  3  1  0
  2  7  1  0
  4  5  1  0
  4  3  1  0
  5  6  2  0
  7  8  2  0
  9  5  1  0
 11 10  1  1
 11 12  1  0
 13 11  1  0
 14 13  1  1
 15 14  1  0
 15  7  1  0
 16 14  1  0
 16 17  2  0
 19 21  1  0
 19 18  1  1
 20 19  1  0
 22 21  1  1
 22 23  1  0
 22 24  1  0
 23 16  1  0
 24 25  2  0
 24 26  1  0
M  END
$$$$
