ELL.pdb
     RDKit          3D

 26 25  0  0  1  0  0  0  0  0999 V2000
   10.6943  -19.5742   20.4256 N   0  0  0  0  0  0  0  0  0  0  0  0
    9.8113  -19.0669   21.4568 C   0  0  1  0  0  0  0  0  0  0  0  0
   10.2932  -19.6501   22.7616 C   0  0  0  0  0  0  0  0  0  0  0  0
   10.4099  -21.1616   22.5623 C   0  0  0  0  0  0  0  0  0  0  0  0
   10.7360  -21.7635   23.8594 C   0  0  0  0  0  0  0  0  0  0  0  0
   11.6982  -22.5457   23.9888 O   0  0  0  0  0  0  0  0  0  0  0  0
    9.9293  -17.5844   21.5219 C   0  0  0  0  0  0  0  0  0  0  0  0
   11.0722  -17.0654   21.4440 O   0  0  0  0  0  0  0  0  0  0  0  0
    9.9541  -21.4517   24.9617 O   0  0  0  0  0  0  0  0  0  0  0  0
    8.7706  -12.7405   19.9167 C   0  0  0  0  0  0  0  0  0  0  0  0
    7.7283  -13.2206   20.9752 C   0  0  1  0  0  0  0  0  0  0  0  0
    6.3886  -12.8262   20.3825 C   0  0  0  0  0  0  0  0  0  0  0  0
    7.8691  -14.6765   21.1200 C   0  0  0  0  0  0  0  0  0  0  0  0
    9.0543  -15.2784   21.7970 C   0  0  2  0  0  0  0  0  0  0  0  0
    8.8158  -16.7388   21.6648 N   0  0  0  0  0  0  0  0  0  0  0  0
    9.2904  -14.9411   23.2057 C   0  0  0  0  0  0  0  0  0  0  0  0
    9.9006  -13.9353   23.6157 O   0  0  0  0  0  0  0  0  0  0  0  0
    6.0445  -13.0174   26.2162 C   0  0  0  0  0  0  0  0  0  0  0  0
    7.4814  -13.3453   25.7503 C   0  0  1  0  0  0  0  0  0  0  0  0
    8.3468  -12.2688   26.3587 C   0  0  0  0  0  0  0  0  0  0  0  0
    7.7520  -14.7187   26.1946 C   0  0  0  0  0  0  0  0  0  0  0  0
    8.9380  -15.4419   25.6379 C   0  0  2  0  0  0  0  0  0  0  0  0
    8.8121  -15.7871   24.2694 N   0  0  0  0  0  0  0  0  0  0  0  0
    9.4500  -16.5049   26.5033 C   0  0  0  0  0  0  0  0  0  0  0  0
    9.5708  -16.3168   27.7192 O   0  0  0  0  0  0  0  0  0  0  0  0
    9.8034  -17.7196   25.9890 O   0  0  0  0  0  0  0  0  0  0  0  0
  2  1  1  6
  2  3  1  0
  2  7  1  0
  4  5  1  0
  4  3  1  0
  5  6  2  0
  7  8  2  0
  9  5  1  0
 11 10  1  6
 11 12  1  0
 13 11  1  0
 14 13  1  1
 15 14  1  0
 15  7  1  0
 16 14  1  0
 16 17  2  0
 19 21  1  0
 19 18  1  1
 20 19  1  0
 22 21  1  1
 22 23  1  0
 22 24  1  0
 23 16  1  0
 24 25  2  0
 24 26  1  0
M  END
$$$$
