YNP.pdb
     RDKit          3D

 28 29  0  0  1  0  0  0  0  0999 V2000
   28.1050  -12.0077  -17.5441 O   0  0  0  0  0  0  0  0  0  0  0  0
   27.6654  -13.2858  -17.1830 C   0  0  0  0  0  0  0  0  0  0  0  0
   27.5439  -13.6648  -15.8628 C   0  0  0  0  0  0  0  0  0  0  0  0
   27.1095  -14.9274  -15.5152 C   0  0  0  0  0  0  0  0  0  0  0  0
   26.7772  -15.8676  -16.4682 C   0  0  0  0  0  0  0  0  0  0  0  0
   26.3089  -17.2280  -16.0963 C   0  0  0  0  0  0  0  0  0  0  0  0
   27.4785  -18.0599  -15.6208 C   0  0  2  0  0  0  0  0  0  0  0  0
   28.2761  -18.4375  -16.7439 N   0  0  0  0  0  0  0  0  0  0  0  0
   27.0357  -19.2189  -14.8048 C   0  0  0  0  0  0  0  0  0  0  0  0
   26.7594  -20.3199  -15.3478 O   0  0  0  0  0  0  0  0  0  0  0  0
   26.8988  -15.4880  -17.7957 C   0  0  0  0  0  0  0  0  0  0  0  0
   27.3337  -14.2243  -18.1379 C   0  0  0  0  0  0  0  0  0  0  0  0
   25.3958  -22.0332  -10.7272 N   0  0  0  0  0  0  0  0  0  0  0  0
   25.8684  -20.7940  -10.2352 C   0  0  0  0  0  0  0  0  0  0  0  0
   25.8735  -20.5780   -9.0055 O   0  0  0  0  0  0  0  0  0  0  0  0
   26.3605  -19.7393  -11.1480 C   0  0  0  0  0  0  0  0  0  0  0  0
   26.2945  -20.2028  -12.5851 C   0  0  2  0  0  0  0  0  0  0  0  0
   26.8994  -19.1586  -13.3914 N   0  0  0  0  0  0  0  0  0  0  0  0
   24.8306  -20.3390  -12.9043 C   0  0  0  0  0  0  0  0  0  0  0  0
   24.1675  -19.2783  -12.9121 O   0  0  0  0  0  0  0  0  0  0  0  0
   24.2121  -21.5572  -13.1808 N   0  0  0  0  0  0  0  0  0  0  0  0
   24.8232  -22.8910  -13.1300 C   0  0  0  0  0  0  0  0  0  0  0  0
   24.1647  -23.5265  -14.3623 C   0  0  0  0  0  0  0  0  0  0  0  0
   22.7179  -23.1466  -14.1278 C   0  0  0  0  0  0  0  0  0  0  0  0
   22.8421  -21.7550  -13.5723 C   0  0  1  0  0  0  0  0  0  0  0  0
   21.9076  -21.6204  -12.4456 C   0  0  0  0  0  0  0  0  0  0  0  0
   20.6848  -21.4828  -12.6499 O   0  0  0  0  0  0  0  0  0  0  0  0
   22.3838  -21.6463  -11.1560 O   0  0  0  0  0  0  0  0  0  0  0  0
  2 12  2  0
  2  1  1  0
  3  2  1  0
  4  5  1  0
  4  3  2  0
  5 11  2  0
  6  7  1  0
  6  5  1  0
  7  8  1  6
  9  7  1  0
  9 10  2  0
 11 12  1  0
 13 14  1  0
 14 16  1  0
 15 14  2  0
 17 16  1  1
 17 18  1  0
 18  9  1  0
 19 17  1  0
 20 19  2  0
 21 22  1  0
 21 19  1  0
 22 23  1  0
 24 23  1  0
 25 21  1  0
 25 24  1  0
 25 26  1  1
 27 26  2  0
 28 26  1  0
M  END
$$$$
