YNP.pdb
     RDKit          3D

 28 29  0  0  1  0  0  0  0  0999 V2000
   26.6274  -19.6649   -4.4566 O   0  0  0  0  0  0  0  0  0  0  0  0
   26.8417  -19.6681   -5.8391 C   0  0  0  0  0  0  0  0  0  0  0  0
   28.1024  -19.5217   -6.3779 C   0  0  0  0  0  0  0  0  0  0  0  0
   28.3050  -19.5259   -7.7427 C   0  0  0  0  0  0  0  0  0  0  0  0
   27.2599  -19.6763   -8.6302 C   0  0  0  0  0  0  0  0  0  0  0  0
   27.4756  -19.6815  -10.1005 C   0  0  0  0  0  0  0  0  0  0  0  0
   26.9596  -20.9750  -10.6892 C   0  0  2  0  0  0  0  0  0  0  0  0
   27.6624  -22.0726  -10.1049 N   0  0  0  0  0  0  0  0  0  0  0  0
   27.0193  -20.9686  -12.1729 C   0  0  0  0  0  0  0  0  0  0  0  0
   28.1175  -21.0997  -12.7731 O   0  0  0  0  0  0  0  0  0  0  0  0
   25.9920  -19.8236   -8.0899 C   0  0  0  0  0  0  0  0  0  0  0  0
   25.7948  -19.8186   -6.7246 C   0  0  0  0  0  0  0  0  0  0  0  0
   26.5152  -23.6700  -15.6823 N   0  0  0  0  0  0  0  0  0  0  0  0
   25.5568  -23.1677  -14.7712 C   0  0  0  0  0  0  0  0  0  0  0  0
   25.2034  -23.8654  -13.7980 O   0  0  0  0  0  0  0  0  0  0  0  0
   24.9581  -21.8263  -14.9436 C   0  0  0  0  0  0  0  0  0  0  0  0
   25.8958  -20.7536  -14.4392 C   0  0  2  0  0  0  0  0  0  0  0  0
   25.8660  -20.8173  -12.9896 N   0  0  0  0  0  0  0  0  0  0  0  0
   25.3246  -19.4493  -14.9250 C   0  0  0  0  0  0  0  0  0  0  0  0
   24.3664  -18.9881  -14.2661 O   0  0  0  0  0  0  0  0  0  0  0  0
   25.8064  -18.7640  -16.0391 N   0  0  0  0  0  0  0  0  0  0  0  0
   26.9386  -19.1471  -16.8915 C   0  0  0  0  0  0  0  0  0  0  0  0
   27.5574  -17.7645  -17.1398 C   0  0  0  0  0  0  0  0  0  0  0  0
   26.3225  -16.9741  -17.5175 C   0  0  0  0  0  0  0  0  0  0  0  0
   25.2881  -17.5373  -16.5828 C   0  0  1  0  0  0  0  0  0  0  0  0
   24.0415  -17.7355  -17.3360 C   0  0  0  0  0  0  0  0  0  0  0  0
   23.6999  -18.8765  -17.7069 O   0  0  0  0  0  0  0  0  0  0  0  0
   23.2445  -16.6555  -17.6348 O   0  0  0  0  0  0  0  0  0  0  0  0
  2 12  2  0
  2  1  1  0
  3  2  1  0
  4  5  1  0
  4  3  2  0
  5 11  2  0
  6  7  1  0
  6  5  1  0
  7  8  1  1
  9  7  1  0
  9 10  2  0
 11 12  1  0
 13 14  1  0
 14 16  1  0
 15 14  2  0
 17 16  1  6
 17 18  1  0
 18  9  1  0
 19 17  1  0
 20 19  2  0
 21 22  1  0
 21 19  1  0
 22 23  1  0
 24 23  1  0
 25 21  1  0
 25 24  1  0
 25 26  1  6
 27 26  2  0
 28 26  1  0
M  END
$$$$
