YNP.pdb
     RDKit          3D

 28 29  0  0  1  0  0  0  0  0999 V2000
   18.1848  -20.1030  -14.4563 O   0  0  0  0  0  0  0  0  0  0  0  0
   19.3860  -20.5201  -13.8731 C   0  0  0  0  0  0  0  0  0  0  0  0
   20.3163  -19.6170  -13.4038 C   0  0  0  0  0  0  0  0  0  0  0  0
   21.4987  -20.0368  -12.8297 C   0  0  0  0  0  0  0  0  0  0  0  0
   21.8056  -21.3751  -12.6984 C   0  0  0  0  0  0  0  0  0  0  0  0
   23.0783  -21.8296  -12.0803 C   0  0  0  0  0  0  0  0  0  0  0  0
   24.2359  -21.5132  -13.0001 C   0  0  2  0  0  0  0  0  0  0  0  0
   24.1235  -22.2994  -14.1873 N   0  0  0  0  0  0  0  0  0  0  0  0
   25.5441  -21.6745  -12.3163 C   0  0  0  0  0  0  0  0  0  0  0  0
   26.0138  -22.8194  -12.0881 O   0  0  0  0  0  0  0  0  0  0  0  0
   20.8714  -22.2840  -13.1697 C   0  0  0  0  0  0  0  0  0  0  0  0
   19.6907  -21.8590  -13.7428 C   0  0  0  0  0  0  0  0  0  0  0  0
   29.3706  -20.4814  -13.5959 N   0  0  0  0  0  0  0  0  0  0  0  0
   28.7228  -19.4037  -12.9480 C   0  0  0  0  0  0  0  0  0  0  0  0
   28.4169  -18.3838  -13.6000 O   0  0  0  0  0  0  0  0  0  0  0  0
   28.3962  -19.4548  -11.5063 C   0  0  0  0  0  0  0  0  0  0  0  0
   27.5937  -20.6943  -11.1838 C   0  0  2  0  0  0  0  0  0  0  0  0
   26.3298  -20.5710  -11.8865 N   0  0  0  0  0  0  0  0  0  0  0  0
   27.3782  -20.6662   -9.6950 C   0  0  0  0  0  0  0  0  0  0  0  0
   26.2159  -20.4078   -9.3114 O   0  0  0  0  0  0  0  0  0  0  0  0
   28.3880  -20.9086   -8.7653 N   0  0  0  0  0  0  0  0  0  0  0  0
   29.7918  -21.2319   -9.0483 C   0  0  0  0  0  0  0  0  0  0  0  0
   30.0426  -22.2820   -7.9573 C   0  0  0  0  0  0  0  0  0  0  0  0
   29.4675  -21.5690   -6.7518 C   0  0  0  0  0  0  0  0  0  0  0  0
   28.2587  -20.8894   -7.3328 C   0  0  1  0  0  0  0  0  0  0  0  0
   28.1883  -19.5251   -6.7902 C   0  0  0  0  0  0  0  0  0  0  0  0
   28.4688  -18.5432   -7.5066 O   0  0  0  0  0  0  0  0  0  0  0  0
   27.8103  -19.3282   -5.4829 O   0  0  0  0  0  0  0  0  0  0  0  0
  2 12  2  0
  2  1  1  0
  3  2  1  0
  4  5  1  0
  4  3  2  0
  5 11  2  0
  6  7  1  0
  6  5  1  0
  7  8  1  6
  9  7  1  0
  9 10  2  0
 11 12  1  0
 13 14  1  0
 14 16  1  0
 15 14  2  0
 17 16  1  6
 17 18  1  0
 18  9  1  0
 19 17  1  0
 20 19  2  0
 21 22  1  0
 21 19  1  0
 22 23  1  0
 24 23  1  0
 25 21  1  0
 25 24  1  0
 25 26  1  1
 27 26  2  0
 28 26  1  0
M  END
$$$$
