YNP.pdb
     RDKit          3D

 28 29  0  0  1  0  0  0  0  0999 V2000
   20.8864  -18.5864  -14.8001 O   0  0  0  0  0  0  0  0  0  0  0  0
   21.6970  -19.0436  -13.7556 C   0  0  0  0  0  0  0  0  0  0  0  0
   22.9798  -18.5718  -13.5733 C   0  0  0  0  0  0  0  0  0  0  0  0
   23.7727  -19.0280  -12.5404 C   0  0  0  0  0  0  0  0  0  0  0  0
   23.3218  -19.9745  -11.6441 C   0  0  0  0  0  0  0  0  0  0  0  0
   24.1739  -20.4673  -10.5308 C   0  0  0  0  0  0  0  0  0  0  0  0
   25.4877  -20.9772  -11.0785 C   0  0  2  0  0  0  0  0  0  0  0  0
   25.2340  -22.0341  -12.0051 N   0  0  0  0  0  0  0  0  0  0  0  0
   26.4242  -21.3659   -9.9936 C   0  0  0  0  0  0  0  0  0  0  0  0
   26.2098  -22.3904   -9.2952 O   0  0  0  0  0  0  0  0  0  0  0  0
   22.0326  -20.4497  -11.8262 C   0  0  0  0  0  0  0  0  0  0  0  0
   21.2439  -19.9902  -12.8605 C   0  0  0  0  0  0  0  0  0  0  0  0
   29.8819  -22.5501  -10.2951 N   0  0  0  0  0  0  0  0  0  0  0  0
   30.4711  -21.3119   -9.9476 C   0  0  0  0  0  0  0  0  0  0  0  0
   31.5396  -20.9614  -10.4902 O   0  0  0  0  0  0  0  0  0  0  0  0
   29.8485  -20.4150   -8.9498 C   0  0  0  0  0  0  0  0  0  0  0  0
   28.4744  -20.9140   -8.5664 C   0  0  2  0  0  0  0  0  0  0  0  0
   27.5947  -20.6219   -9.6831 N   0  0  0  0  0  0  0  0  0  0  0  0
   28.0741  -20.1191   -7.3533 C   0  0  0  0  0  0  0  0  0  0  0  0
   27.2303  -19.2149   -7.5411 O   0  0  0  0  0  0  0  0  0  0  0  0
   28.5900  -20.3459   -6.0785 N   0  0  0  0  0  0  0  0  0  0  0  0
   29.6187  -21.3231   -5.7016 C   0  0  0  0  0  0  0  0  0  0  0  0
   29.0452  -21.8014   -4.3607 C   0  0  0  0  0  0  0  0  0  0  0  0
   28.7275  -20.4729   -3.7076 C   0  0  0  0  0  0  0  0  0  0  0  0
   28.2180  -19.6637   -4.8680 C   0  0  1  0  0  0  0  0  0  0  0  0
   28.7938  -18.3140   -4.7804 C   0  0  0  0  0  0  0  0  0  0  0  0
   28.3306  -17.4785   -3.9784 O   0  0  0  0  0  0  0  0  0  0  0  0
   29.8515  -17.9686   -5.5883 O   0  0  0  0  0  0  0  0  0  0  0  0
  2 12  2  0
  2  1  1  0
  3  2  1  0
  4  5  1  0
  4  3  2  0
  5 11  2  0
  6  7  1  0
  6  5  1  0
  7  8  1  6
  9  7  1  0
  9 10  2  0
 11 12  1  0
 13 14  1  0
 14 16  1  0
 15 14  2  0
 17 16  1  6
 17 18  1  0
 18  9  1  0
 19 17  1  0
 20 19  2  0
 21 22  1  0
 21 19  1  0
 22 23  1  0
 24 23  1  0
 25 21  1  0
 25 24  1  0
 25 26  1  6
 27 26  2  0
 28 26  1  0
M  END
$$$$
