YNP.pdb
     RDKit          3D

 28 29  0  0  1  0  0  0  0  0999 V2000
   28.4011  -18.7713   -2.7885 O   0  0  0  0  0  0  0  0  0  0  0  0
   28.2265  -19.2192   -4.1023 C   0  0  0  0  0  0  0  0  0  0  0  0
   28.0524  -18.3409   -5.1508 C   0  0  0  0  0  0  0  0  0  0  0  0
   27.8809  -18.7911   -6.4437 C   0  0  0  0  0  0  0  0  0  0  0  0
   27.8754  -20.1364   -6.7482 C   0  0  0  0  0  0  0  0  0  0  0  0
   27.6911  -20.6236   -8.1399 C   0  0  0  0  0  0  0  0  0  0  0  0
   26.2292  -20.5500   -8.5188 C   0  0  2  0  0  0  0  0  0  0  0  0
   25.4482  -21.1968   -7.5129 N   0  0  0  0  0  0  0  0  0  0  0  0
   25.9846  -21.0873   -9.8814 C   0  0  0  0  0  0  0  0  0  0  0  0
   25.7308  -22.3074  -10.0557 O   0  0  0  0  0  0  0  0  0  0  0  0
   28.0503  -21.0204   -5.6951 C   0  0  0  0  0  0  0  0  0  0  0  0
   28.2214  -20.5651   -4.4041 C   0  0  0  0  0  0  0  0  0  0  0  0
   23.2155  -21.5886  -14.6074 N   0  0  0  0  0  0  0  0  0  0  0  0
   24.2616  -22.0546  -13.7770 C   0  0  0  0  0  0  0  0  0  0  0  0
   24.9992  -22.9811  -14.1723 O   0  0  0  0  0  0  0  0  0  0  0  0
   24.5055  -21.4673  -12.4416 C   0  0  0  0  0  0  0  0  0  0  0  0
   25.8507  -20.7797  -12.3977 C   0  0  2  0  0  0  0  0  0  0  0  0
   26.0210  -20.2756  -11.0474 N   0  0  0  0  0  0  0  0  0  0  0  0
   25.7623  -19.6444  -13.3810 C   0  0  0  0  0  0  0  0  0  0  0  0
   24.8546  -18.8082  -13.1766 O   0  0  0  0  0  0  0  0  0  0  0  0
   26.6221  -19.4975  -14.4681 N   0  0  0  0  0  0  0  0  0  0  0  0
   27.5935  -20.4790  -14.9664 C   0  0  0  0  0  0  0  0  0  0  0  0
   28.7544  -19.5397  -15.3214 C   0  0  0  0  0  0  0  0  0  0  0  0
   28.0158  -18.4710  -16.0990 C   0  0  0  0  0  0  0  0  0  0  0  0
   26.7311  -18.3491  -15.3274 C   0  0  1  0  0  0  0  0  0  0  0  0
   25.6213  -18.2539  -16.2866 C   0  0  0  0  0  0  0  0  0  0  0  0
   24.8821  -19.2358  -16.4995 O   0  0  0  0  0  0  0  0  0  0  0  0
   25.3952  -17.0738  -16.9551 O   0  0  0  0  0  0  0  0  0  0  0  0
  2 12  2  0
  2  1  1  0
  3  2  1  0
  4  5  1  0
  4  3  2  0
  5 11  2  0
  6  7  1  0
  6  5  1  0
  7  8  1  1
  9  7  1  0
  9 10  2  0
 11 12  1  0
 13 14  1  0
 14 16  1  0
 15 14  2  0
 17 16  1  1
 17 18  1  0
 18  9  1  0
 19 17  1  0
 20 19  2  0
 21 22  1  0
 21 19  1  0
 22 23  1  0
 24 23  1  0
 25 21  1  0
 25 24  1  0
 25 26  1  6
 27 26  2  0
 28 26  1  0
M  END
$$$$
