YNP.pdb
     RDKit          3D

 28 29  0  0  1  0  0  0  0  0999 V2000
   20.0899  -21.7768   -8.7475 O   0  0  0  0  0  0  0  0  0  0  0  0
   21.2439  -21.3081   -9.3846 C   0  0  0  0  0  0  0  0  0  0  0  0
   22.3845  -20.9909   -8.6777 C   0  0  0  0  0  0  0  0  0  0  0  0
   23.5185  -20.5292   -9.3139 C   0  0  0  0  0  0  0  0  0  0  0  0
   23.5653  -20.3636  -10.6824 C   0  0  0  0  0  0  0  0  0  0  0  0
   24.7855  -19.8667  -11.3698 C   0  0  0  0  0  0  0  0  0  0  0  0
   25.4009  -20.9792  -12.1883 C   0  0  2  0  0  0  0  0  0  0  0  0
   26.0560  -21.9002  -11.3152 N   0  0  0  0  0  0  0  0  0  0  0  0
   26.2911  -20.4527  -13.2539 C   0  0  0  0  0  0  0  0  0  0  0  0
   27.4434  -20.0290  -12.9782 O   0  0  0  0  0  0  0  0  0  0  0  0
   22.4194  -20.6820  -11.3942 C   0  0  0  0  0  0  0  0  0  0  0  0
   21.2882  -21.1432  -10.7533 C   0  0  0  0  0  0  0  0  0  0  0  0
   27.0351  -23.3792  -15.7327 N   0  0  0  0  0  0  0  0  0  0  0  0
   27.6534  -22.1780  -16.1519 C   0  0  0  0  0  0  0  0  0  0  0  0
   28.8928  -22.0565  -16.0627 O   0  0  0  0  0  0  0  0  0  0  0  0
   26.8626  -21.0536  -16.6976 C   0  0  0  0  0  0  0  0  0  0  0  0
   26.7674  -19.9294  -15.6918 C   0  0  2  0  0  0  0  0  0  0  0  0
   25.9062  -20.3957  -14.6208 N   0  0  0  0  0  0  0  0  0  0  0  0
   26.1300  -18.7792  -16.4229 C   0  0  0  0  0  0  0  0  0  0  0  0
   24.8807  -18.7917  -16.4867 O   0  0  0  0  0  0  0  0  0  0  0  0
   26.8538  -17.7416  -17.0079 N   0  0  0  0  0  0  0  0  0  0  0  0
   28.3092  -17.5520  -16.9781 C   0  0  0  0  0  0  0  0  0  0  0  0
   28.3701  -16.0284  -16.8024 C   0  0  0  0  0  0  0  0  0  0  0  0
   27.3873  -15.5892  -17.8671 C   0  0  0  0  0  0  0  0  0  0  0  0
   26.3185  -16.6418  -17.7648 C   0  0  1  0  0  0  0  0  0  0  0  0
   25.9208  -17.0325  -19.1249 C   0  0  0  0  0  0  0  0  0  0  0  0
   26.3207  -18.1062  -19.6180 O   0  0  0  0  0  0  0  0  0  0  0  0
   25.1016  -16.2088  -19.8606 O   0  0  0  0  0  0  0  0  0  0  0  0
  2 12  2  0
  2  1  1  0
  3  2  1  0
  4  5  1  0
  4  3  2  0
  5 11  2  0
  6  7  1  0
  6  5  1  0
  7  8  1  1
  9  7  1  0
  9 10  2  0
 11 12  1  0
 13 14  1  0
 14 16  1  0
 15 14  2  0
 17 16  1  6
 17 18  1  0
 18  9  1  0
 19 17  1  0
 20 19  2  0
 21 22  1  0
 21 19  1  0
 22 23  1  0
 24 23  1  0
 25 21  1  0
 25 24  1  0
 25 26  1  6
 27 26  2  0
 28 26  1  0
M  END
$$$$
