YNP.pdb
     RDKit          3D

 28 29  0  0  1  0  0  0  0  0999 V2000
   15.0125   -9.5562  -20.9751 O   0  0  0  0  0  0  0  0  0  0  0  0
   15.8152   -9.6617  -19.8342 C   0  0  0  0  0  0  0  0  0  0  0  0
   15.3553  -10.2516  -18.6759 C   0  0  0  0  0  0  0  0  0  0  0  0
   16.1537  -10.3516  -17.5550 C   0  0  0  0  0  0  0  0  0  0  0  0
   17.4453   -9.8679  -17.5396 C   0  0  0  0  0  0  0  0  0  0  0  0
   18.3071   -9.9747  -16.3336 C   0  0  0  0  0  0  0  0  0  0  0  0
   18.1240   -8.7517  -15.4636 C   0  0  2  0  0  0  0  0  0  0  0  0
   16.7359   -8.5839  -15.1720 N   0  0  0  0  0  0  0  0  0  0  0  0
   18.7420   -7.5454  -16.0701 C   0  0  0  0  0  0  0  0  0  0  0  0
   18.0337   -6.6836  -16.6524 O   0  0  0  0  0  0  0  0  0  0  0  0
   17.9089   -9.2746  -18.7033 C   0  0  0  0  0  0  0  0  0  0  0  0
   17.1066   -9.1772  -19.8213 C   0  0  0  0  0  0  0  0  0  0  0  0
   19.9801   -4.7243  -14.3947 N   0  0  0  0  0  0  0  0  0  0  0  0
   21.3647   -4.9755  -14.5384 C   0  0  0  0  0  0  0  0  0  0  0  0
   22.1620   -4.5602  -13.6720 O   0  0  0  0  0  0  0  0  0  0  0  0
   21.8961   -5.7238  -15.6983 C   0  0  0  0  0  0  0  0  0  0  0  0
   20.7771   -6.1342  -16.6277 C   0  0  2  0  0  0  0  0  0  0  0  0
   20.1403   -7.2942  -16.0319 N   0  0  0  0  0  0  0  0  0  0  0  0
   21.4391   -6.5014  -17.9280 C   0  0  0  0  0  0  0  0  0  0  0  0
   21.6965   -7.7146  -18.0917 O   0  0  0  0  0  0  0  0  0  0  0  0
   21.7626   -5.5742  -18.9171 N   0  0  0  0  0  0  0  0  0  0  0  0
   21.5550   -4.1217  -18.8697 C   0  0  0  0  0  0  0  0  0  0  0  0
   21.1162   -3.8736  -20.3194 C   0  0  0  0  0  0  0  0  0  0  0  0
   22.1832   -4.6460  -21.0659 C   0  0  0  0  0  0  0  0  0  0  0  0
   22.3701   -5.8541  -20.1906 C   0  0  1  0  0  0  0  0  0  0  0  0
   23.8099   -6.1293  -20.0813 C   0  0  0  0  0  0  0  0  0  0  0  0
   24.4184   -5.9063  -19.0155 O   0  0  0  0  0  0  0  0  0  0  0  0
   24.4926   -6.6365  -21.1618 O   0  0  0  0  0  0  0  0  0  0  0  0
  2 12  2  0
  2  1  1  0
  3  2  1  0
  4  5  1  0
  4  3  2  0
  5 11  2  0
  6  7  1  0
  6  5  1  0
  7  8  1  6
  9  7  1  0
  9 10  2  0
 11 12  1  0
 13 14  1  0
 14 16  1  0
 15 14  2  0
 17 16  1  1
 17 18  1  0
 18  9  1  0
 19 17  1  0
 20 19  2  0
 21 22  1  0
 21 19  1  0
 22 23  1  0
 24 23  1  0
 25 21  1  0
 25 24  1  0
 25 26  1  1
 27 26  2  0
 28 26  1  0
M  END
$$$$
