YNP.pdb
     RDKit          3D

 28 29  0  0  1  0  0  0  0  0999 V2000
   18.0681  -27.3770   -4.5422 O   0  0  0  0  0  0  0  0  0  0  0  0
   18.0362  -26.7103   -5.7717 C   0  0  0  0  0  0  0  0  0  0  0  0
   17.0925  -27.0059   -6.7326 C   0  0  0  0  0  0  0  0  0  0  0  0
   17.0680  -26.3434   -7.9427 C   0  0  0  0  0  0  0  0  0  0  0  0
   17.9830  -25.3575   -8.2480 C   0  0  0  0  0  0  0  0  0  0  0  0
   17.9585  -24.6425   -9.5505 C   0  0  0  0  0  0  0  0  0  0  0  0
   18.0400  -23.1508   -9.3175 C   0  0  2  0  0  0  0  0  0  0  0  0
   16.8905  -22.7245   -8.5847 N   0  0  0  0  0  0  0  0  0  0  0  0
   18.2321  -22.4037  -10.5863 C   0  0  0  0  0  0  0  0  0  0  0  0
   17.2443  -22.0574  -11.2847 O   0  0  0  0  0  0  0  0  0  0  0  0
   18.9321  -25.0593   -7.2830 C   0  0  0  0  0  0  0  0  0  0  0  0
   18.9523  -25.7246   -6.0746 C   0  0  0  0  0  0  0  0  0  0  0  0
   20.4844  -19.8326  -14.5189 N   0  0  0  0  0  0  0  0  0  0  0  0
   21.4240  -19.9524  -13.4683 C   0  0  0  0  0  0  0  0  0  0  0  0
   22.5439  -19.4109  -13.5753 O   0  0  0  0  0  0  0  0  0  0  0  0
   21.1108  -20.7089  -12.2365 C   0  0  0  0  0  0  0  0  0  0  0  0
   19.7379  -21.3343  -12.3279 C   0  0  2  0  0  0  0  0  0  0  0  0
   19.5144  -22.0412  -11.0802 N   0  0  0  0  0  0  0  0  0  0  0  0
   19.8038  -22.2994  -13.4803 C   0  0  0  0  0  0  0  0  0  0  0  0
   20.4802  -23.3350  -13.2935 O   0  0  0  0  0  0  0  0  0  0  0  0
   19.1631  -22.0883  -14.7000 N   0  0  0  0  0  0  0  0  0  0  0  0
   18.3204  -20.9446  -15.0701 C   0  0  0  0  0  0  0  0  0  0  0  0
   17.2321  -21.6714  -15.8721 C   0  0  0  0  0  0  0  0  0  0  0  0
   18.0865  -22.5388  -16.7721 C   0  0  0  0  0  0  0  0  0  0  0  0
   19.1995  -22.9522  -15.8496 C   0  0  1  0  0  0  0  0  0  0  0  0
   20.4691  -22.8609  -16.5848 C   0  0  0  0  0  0  0  0  0  0  0  0
   21.3328  -22.0233  -16.2559 O   0  0  0  0  0  0  0  0  0  0  0  0
   20.7077  -23.7051  -17.6437 O   0  0  0  0  0  0  0  0  0  0  0  0
  2 12  2  0
  2  1  1  0
  3  2  1  0
  4  5  1  0
  4  3  2  0
  5 11  2  0
  6  7  1  0
  6  5  1  0
  7  8  1  6
  9  7  1  0
  9 10  2  0
 11 12  1  0
 13 14  1  0
 14 16  1  0
 15 14  2  0
 17 16  1  1
 17 18  1  0
 18  9  1  0
 19 17  1  0
 20 19  2  0
 21 22  1  0
 21 19  1  0
 22 23  1  0
 24 23  1  0
 25 21  1  0
 25 24  1  0
 25 26  1  6
 27 26  2  0
 28 26  1  0
M  END
$$$$
