YNP.pdb
     RDKit          3D

 28 29  0  0  1  0  0  0  0  0999 V2000
   21.4424  -21.0478   -7.6733 O   0  0  0  0  0  0  0  0  0  0  0  0
   22.4874  -20.8348   -8.5787 C   0  0  0  0  0  0  0  0  0  0  0  0
   22.2637  -20.7454   -9.9363 C   0  0  0  0  0  0  0  0  0  0  0  0
   23.3002  -20.5351  -10.8225 C   0  0  0  0  0  0  0  0  0  0  0  0
   24.6049  -20.4048  -10.3944 C   0  0  0  0  0  0  0  0  0  0  0  0
   25.7227  -20.1780  -11.3469 C   0  0  0  0  0  0  0  0  0  0  0  0
   25.8626  -21.3708  -12.2655 C   0  0  2  0  0  0  0  0  0  0  0  0
   26.3445  -22.4881  -11.5175 N   0  0  0  0  0  0  0  0  0  0  0  0
   26.7000  -21.0588  -13.4514 C   0  0  0  0  0  0  0  0  0  0  0  0
   27.9389  -20.8731  -13.3331 O   0  0  0  0  0  0  0  0  0  0  0  0
   24.8311  -20.4944   -9.0299 C   0  0  0  0  0  0  0  0  0  0  0  0
   23.7913  -20.7047   -8.1480 C   0  0  0  0  0  0  0  0  0  0  0  0
   26.4168  -24.1342  -15.8952 N   0  0  0  0  0  0  0  0  0  0  0  0
   27.2648  -23.1004  -16.3569 C   0  0  0  0  0  0  0  0  0  0  0  0
   28.5036  -23.2475  -16.3060 O   0  0  0  0  0  0  0  0  0  0  0  0
   26.7167  -21.8398  -16.9026 C   0  0  0  0  0  0  0  0  0  0  0  0
   26.9633  -20.6929  -15.9496 C   0  0  2  0  0  0  0  0  0  0  0  0
   26.1668  -20.9528  -14.7645 N   0  0  0  0  0  0  0  0  0  0  0  0
   26.4734  -19.4595  -16.6583 C   0  0  0  0  0  0  0  0  0  0  0  0
   25.2420  -19.2455  -16.6042 O   0  0  0  0  0  0  0  0  0  0  0  0
   27.3102  -18.5817  -17.3455 N   0  0  0  0  0  0  0  0  0  0  0  0
   28.7625  -18.7010  -17.5233 C   0  0  0  0  0  0  0  0  0  0  0  0
   29.1663  -17.2286  -17.3659 C   0  0  0  0  0  0  0  0  0  0  0  0
   28.1589  -16.5675  -18.2827 C   0  0  0  0  0  0  0  0  0  0  0  0
   26.9177  -17.3759  -18.0245 C   0  0  1  0  0  0  0  0  0  0  0  0
   26.2608  -17.6411  -19.3125 C   0  0  0  0  0  0  0  0  0  0  0  0
   26.2631  -18.7891  -19.8003 O   0  0  0  0  0  0  0  0  0  0  0  0
   25.6384  -16.6165  -19.9859 O   0  0  0  0  0  0  0  0  0  0  0  0
  2 12  2  0
  2  1  1  0
  3  2  1  0
  4  5  1  0
  4  3  2  0
  5 11  2  0
  6  7  1  0
  6  5  1  0
  7  8  1  1
  9  7  1  0
  9 10  2  0
 11 12  1  0
 13 14  1  0
 14 16  1  0
 15 14  2  0
 17 16  1  6
 17 18  1  0
 18  9  1  0
 19 17  1  0
 20 19  2  0
 21 22  1  0
 21 19  1  0
 22 23  1  0
 24 23  1  0
 25 21  1  0
 25 24  1  0
 25 26  1  6
 27 26  2  0
 28 26  1  0
M  END
$$$$
