YNP.pdb
     RDKit          3D

 28 29  0  0  1  0  0  0  0  0999 V2000
   28.8876  -19.8563   -6.2274 O   0  0  0  0  0  0  0  0  0  0  0  0
   28.3007  -20.0238   -7.4862 C   0  0  0  0  0  0  0  0  0  0  0  0
   26.9634  -19.7668   -7.7028 C   0  0  0  0  0  0  0  0  0  0  0  0
   26.3924  -19.9346   -8.9477 C   0  0  0  0  0  0  0  0  0  0  0  0
   27.1292  -20.3659  -10.0310 C   0  0  0  0  0  0  0  0  0  0  0  0
   26.5164  -20.5471  -11.3726 C   0  0  0  0  0  0  0  0  0  0  0  0
   25.5824  -21.7359  -11.3526 C   0  0  2  0  0  0  0  0  0  0  0  0
   26.3334  -22.9296  -11.5784 N   0  0  0  0  0  0  0  0  0  0  0  0
   24.4551  -21.5681  -12.3045 C   0  0  0  0  0  0  0  0  0  0  0  0
   24.4780  -22.1242  -13.4331 O   0  0  0  0  0  0  0  0  0  0  0  0
   28.4735  -20.6246   -9.8147 C   0  0  0  0  0  0  0  0  0  0  0  0
   29.0396  -20.4553   -8.5681 C   0  0  0  0  0  0  0  0  0  0  0  0
   19.6896  -20.4065  -14.1250 N   0  0  0  0  0  0  0  0  0  0  0  0
   19.8073  -19.8860  -12.8150 C   0  0  0  0  0  0  0  0  0  0  0  0
   18.8070  -19.3940  -12.2527 O   0  0  0  0  0  0  0  0  0  0  0  0
   21.0955  -19.9100  -12.0887 C   0  0  0  0  0  0  0  0  0  0  0  0
   22.1136  -20.7426  -12.8336 C   0  0  2  0  0  0  0  0  0  0  0  0
   23.3059  -20.7866  -12.0074 N   0  0  0  0  0  0  0  0  0  0  0  0
   22.3842  -20.0060  -14.1173 C   0  0  0  0  0  0  0  0  0  0  0  0
   22.9327  -18.8873  -14.0053 O   0  0  0  0  0  0  0  0  0  0  0  0
   22.0582  -20.5065  -15.3767 N   0  0  0  0  0  0  0  0  0  0  0  0
   21.4182  -21.7927  -15.6787 C   0  0  0  0  0  0  0  0  0  0  0  0
   22.2073  -22.1881  -16.9345 C   0  0  0  0  0  0  0  0  0  0  0  0
   22.1374  -20.8964  -17.7214 C   0  0  0  0  0  0  0  0  0  0  0  0
   22.2826  -19.8599  -16.6418 C   0  0  1  0  0  0  0  0  0  0  0  0
   21.3198  -18.7804  -16.9032 C   0  0  0  0  0  0  0  0  0  0  0  0
   21.4463  -18.0473  -17.9044 O   0  0  0  0  0  0  0  0  0  0  0  0
   20.2709  -18.5759  -16.0378 O   0  0  0  0  0  0  0  0  0  0  0  0
  2 12  2  0
  2  1  1  0
  3  2  1  0
  4  5  1  0
  4  3  2  0
  5 11  2  0
  6  7  1  0
  6  5  1  0
  7  8  1  6
  9  7  1  0
  9 10  2  0
 11 12  1  0
 13 14  1  0
 14 16  1  0
 15 14  2  0
 17 16  1  1
 17 18  1  0
 18  9  1  0
 19 17  1  0
 20 19  2  0
 21 22  1  0
 21 19  1  0
 22 23  1  0
 24 23  1  0
 25 21  1  0
 25 24  1  0
 25 26  1  6
 27 26  2  0
 28 26  1  0
M  END
$$$$
