YNP.pdb
     RDKit          3D

 28 29  0  0  1  0  0  0  0  0999 V2000
   21.4003   -0.3569  -14.8472 O   0  0  0  0  0  0  0  0  0  0  0  0
   21.5026   -1.7345  -14.6258 C   0  0  0  0  0  0  0  0  0  0  0  0
   22.5846   -2.4626  -15.0735 C   0  0  0  0  0  0  0  0  0  0  0  0
   22.6777   -3.8211  -14.8508 C   0  0  0  0  0  0  0  0  0  0  0  0
   21.6965   -4.5133  -14.1721 C   0  0  0  0  0  0  0  0  0  0  0  0
   21.7947   -5.9763  -13.9308 C   0  0  0  0  0  0  0  0  0  0  0  0
   21.9141   -6.7059  -15.2497 C   0  0  2  0  0  0  0  0  0  0  0  0
   20.8343   -6.3205  -16.1014 N   0  0  0  0  0  0  0  0  0  0  0  0
   22.0110   -8.1756  -15.0606 C   0  0  0  0  0  0  0  0  0  0  0  0
   22.8221   -8.6655  -14.2326 O   0  0  0  0  0  0  0  0  0  0  0  0
   20.6083   -3.7826  -13.7214 C   0  0  0  0  0  0  0  0  0  0  0  0
   20.5200   -2.4245  -13.9468 C   0  0  0  0  0  0  0  0  0  0  0  0
   19.3982  -10.0545  -13.5979 N   0  0  0  0  0  0  0  0  0  0  0  0
   18.9422  -10.7409  -14.7476 C   0  0  0  0  0  0  0  0  0  0  0  0
   17.7477  -11.0966  -14.8225 O   0  0  0  0  0  0  0  0  0  0  0  0
   19.8517  -11.0501  -15.8722 C   0  0  0  0  0  0  0  0  0  0  0  0
   21.2451  -10.5374  -15.5892 C   0  0  2  0  0  0  0  0  0  0  0  0
   21.2119   -9.1000  -15.7864 N   0  0  0  0  0  0  0  0  0  0  0  0
   22.1370  -11.1925  -16.6085 C   0  0  0  0  0  0  0  0  0  0  0  0
   22.1499  -10.6709  -17.7455 O   0  0  0  0  0  0  0  0  0  0  0  0
   22.9183  -12.3154  -16.3410 N   0  0  0  0  0  0  0  0  0  0  0  0
   23.0667  -13.0030  -15.0524 C   0  0  0  0  0  0  0  0  0  0  0  0
   24.5663  -13.3267  -15.1009 C   0  0  0  0  0  0  0  0  0  0  0  0
   24.6773  -13.9086  -16.4943 C   0  0  0  0  0  0  0  0  0  0  0  0
   23.7402  -13.0325  -17.2787 C   0  0  1  0  0  0  0  0  0  0  0  0
   22.9544  -13.8858  -18.1816 C   0  0  0  0  0  0  0  0  0  0  0  0
   21.7673  -14.1633  -17.9175 O   0  0  0  0  0  0  0  0  0  0  0  0
   23.5313  -14.3826  -19.3266 O   0  0  0  0  0  0  0  0  0  0  0  0
  2 12  2  0
  2  1  1  0
  3  2  1  0
  4  5  1  0
  4  3  2  0
  5 11  2  0
  6  7  1  0
  6  5  1  0
  7  8  1  6
  9  7  1  0
  9 10  2  0
 11 12  1  0
 13 14  1  0
 14 16  1  0
 15 14  2  0
 17 16  1  6
 17 18  1  0
 18  9  1  0
 19 17  1  0
 20 19  2  0
 21 22  1  0
 21 19  1  0
 22 23  1  0
 24 23  1  0
 25 21  1  0
 25 24  1  0
 25 26  1  6
 27 26  2  0
 28 26  1  0
M  END
$$$$
