YNP.pdb
     RDKit          3D

 28 29  0  0  1  0  0  0  0  0999 V2000
   21.3159   -0.1831  -15.0121 O   0  0  0  0  0  0  0  0  0  0  0  0
   21.2071   -1.5753  -15.0964 C   0  0  0  0  0  0  0  0  0  0  0  0
   22.2966   -2.3721  -15.3777 C   0  0  0  0  0  0  0  0  0  0  0  0
   22.1806   -3.7446  -15.4590 C   0  0  0  0  0  0  0  0  0  0  0  0
   20.9736   -4.3829  -15.2635 C   0  0  0  0  0  0  0  0  0  0  0  0
   20.8463   -5.8609  -15.3504 C   0  0  0  0  0  0  0  0  0  0  0  0
   20.6341   -6.4386  -13.9692 C   0  0  2  0  0  0  0  0  0  0  0  0
   21.8724   -6.4262  -13.2576 N   0  0  0  0  0  0  0  0  0  0  0  0
   20.0071   -7.7835  -14.0240 C   0  0  0  0  0  0  0  0  0  0  0  0
   20.6852   -8.7972  -14.3340 O   0  0  0  0  0  0  0  0  0  0  0  0
   19.8775   -3.5831  -14.9807 C   0  0  0  0  0  0  0  0  0  0  0  0
   19.9989   -2.2112  -14.9005 C   0  0  0  0  0  0  0  0  0  0  0  0
   17.2363   -8.6393  -10.3594 N   0  0  0  0  0  0  0  0  0  0  0  0
   17.5070   -9.5247  -11.4289 C   0  0  0  0  0  0  0  0  0  0  0  0
   18.2673  -10.4985  -11.2484 O   0  0  0  0  0  0  0  0  0  0  0  0
   16.9073   -9.3246  -12.7660 C   0  0  0  0  0  0  0  0  0  0  0  0
   17.9775   -9.2963  -13.8329 C   0  0  2  0  0  0  0  0  0  0  0  0
   18.6331   -8.0051  -13.7363 N   0  0  0  0  0  0  0  0  0  0  0  0
   17.2514   -9.4262  -15.1442 C   0  0  0  0  0  0  0  0  0  0  0  0
   16.7960   -8.3667  -15.6290 O   0  0  0  0  0  0  0  0  0  0  0  0
   17.0756  -10.6373  -15.8114 N   0  0  0  0  0  0  0  0  0  0  0  0
   17.5723  -11.9553  -15.3974 C   0  0  0  0  0  0  0  0  0  0  0  0
   17.9851  -12.5193  -16.7639 C   0  0  0  0  0  0  0  0  0  0  0  0
   16.7518  -12.1941  -17.5798 C   0  0  0  0  0  0  0  0  0  0  0  0
   16.3666  -10.8423  -17.0461 C   0  0  1  0  0  0  0  0  0  0  0  0
   14.9074  -10.8113  -16.8715 C   0  0  0  0  0  0  0  0  0  0  0  0
   14.1494  -10.8902  -17.8590 O   0  0  0  0  0  0  0  0  0  0  0  0
   14.3724  -10.6944  -15.6102 O   0  0  0  0  0  0  0  0  0  0  0  0
  2 12  2  0
  2  1  1  0
  3  2  1  0
  4  5  1  0
  4  3  2  0
  5 11  2  0
  6  7  1  0
  6  5  1  0
  7  8  1  6
  9  7  1  0
  9 10  2  0
 11 12  1  0
 13 14  1  0
 14 16  1  0
 15 14  2  0
 17 16  1  1
 17 18  1  0
 18  9  1  0
 19 17  1  0
 20 19  2  0
 21 22  1  0
 21 19  1  0
 22 23  1  0
 24 23  1  0
 25 21  1  0
 25 24  1  0
 25 26  1  1
 27 26  2  0
 28 26  1  0
M  END
$$$$
