YNP.pdb
     RDKit          3D

 28 29  0  0  1  0  0  0  0  0999 V2000
   17.4351  -28.1299  -15.4216 O   0  0  0  0  0  0  0  0  0  0  0  0
   18.6275  -27.4064  -15.3125 C   0  0  0  0  0  0  0  0  0  0  0  0
   18.6756  -26.1776  -14.6890 C   0  0  0  0  0  0  0  0  0  0  0  0
   19.8560  -25.4705  -14.5856 C   0  0  0  0  0  0  0  0  0  0  0  0
   21.0399  -25.9573  -15.0992 C   0  0  0  0  0  0  0  0  0  0  0  0
   22.3124  -25.1978  -14.9889 C   0  0  0  0  0  0  0  0  0  0  0  0
   22.3131  -24.0536  -15.9774 C   0  0  2  0  0  0  0  0  0  0  0  0
   22.4954  -24.5701  -17.2965 N   0  0  0  0  0  0  0  0  0  0  0  0
   23.3091  -23.0131  -15.6164 C   0  0  0  0  0  0  0  0  0  0  0  0
   24.4228  -22.9588  -16.1997 O   0  0  0  0  0  0  0  0  0  0  0  0
   20.9929  -27.1925  -15.7263 C   0  0  0  0  0  0  0  0  0  0  0  0
   19.8102  -27.8954  -15.8270 C   0  0  0  0  0  0  0  0  0  0  0  0
   21.3947  -19.3090  -15.5507 N   0  0  0  0  0  0  0  0  0  0  0  0
   22.7851  -19.2884  -15.2913 C   0  0  0  0  0  0  0  0  0  0  0  0
   23.5715  -18.8715  -16.1668 O   0  0  0  0  0  0  0  0  0  0  0  0
   23.3350  -19.7519  -13.9989 C   0  0  0  0  0  0  0  0  0  0  0  0
   24.0585  -21.0682  -14.1672 C   0  0  2  0  0  0  0  0  0  0  0  0
   23.0724  -22.0356  -14.6122 N   0  0  0  0  0  0  0  0  0  0  0  0
   24.5763  -21.4281  -12.8011 C   0  0  0  0  0  0  0  0  0  0  0  0
   23.8217  -22.1318  -12.0938 O   0  0  0  0  0  0  0  0  0  0  0  0
   25.8178  -21.0212  -12.3156 N   0  0  0  0  0  0  0  0  0  0  0  0
   26.8577  -20.2892  -13.0491 C   0  0  0  0  0  0  0  0  0  0  0  0
   28.1065  -21.0011  -12.5108 C   0  0  0  0  0  0  0  0  0  0  0  0
   27.8151  -20.9822  -11.0252 C   0  0  0  0  0  0  0  0  0  0  0  0
   26.3335  -21.2358  -10.9900 C   0  0  1  0  0  0  0  0  0  0  0  0
   25.7322  -20.3339   -9.9971 C   0  0  0  0  0  0  0  0  0  0  0  0
   25.1223  -19.3082  -10.3602 O   0  0  0  0  0  0  0  0  0  0  0  0
   25.8422  -20.6221   -8.6571 O   0  0  0  0  0  0  0  0  0  0  0  0
  2 12  2  0
  2  1  1  0
  3  2  1  0
  4  5  1  0
  4  3  2  0
  5 11  2  0
  6  7  1  0
  6  5  1  0
  7  8  1  6
  9  7  1  0
  9 10  2  0
 11 12  1  0
 13 14  1  0
 14 16  1  0
 15 14  2  0
 17 16  1  1
 17 18  1  0
 18  9  1  0
 19 17  1  0
 20 19  2  0
 21 22  1  0
 21 19  1  0
 22 23  1  0
 24 23  1  0
 25 21  1  0
 25 24  1  0
 25 26  1  1
 27 26  2  0
 28 26  1  0
M  END
$$$$
