YNP.pdb
     RDKit          3D

 28 29  0  0  1  0  0  0  0  0999 V2000
   20.2183  -23.5441   -8.5208 O   0  0  0  0  0  0  0  0  0  0  0  0
   21.1490  -22.6703   -9.0929 C   0  0  0  0  0  0  0  0  0  0  0  0
   21.8950  -21.8012   -8.3251 C   0  0  0  0  0  0  0  0  0  0  0  0
   22.8110  -20.9426   -8.8974 C   0  0  0  0  0  0  0  0  0  0  0  0
   23.0235  -20.9125  -10.2599 C   0  0  0  0  0  0  0  0  0  0  0  0
   24.0096  -19.9888  -10.8784 C   0  0  0  0  0  0  0  0  0  0  0  0
   25.2202  -20.7674  -11.3416 C   0  0  2  0  0  0  0  0  0  0  0  0
   25.9621  -21.2070  -10.2030 N   0  0  0  0  0  0  0  0  0  0  0  0
   26.0395  -19.9913  -12.3066 C   0  0  0  0  0  0  0  0  0  0  0  0
   26.9045  -19.1716  -11.9027 O   0  0  0  0  0  0  0  0  0  0  0  0
   22.2743  -21.7856  -11.0329 C   0  0  0  0  0  0  0  0  0  0  0  0
   21.3597  -22.6421  -10.4558 C   0  0  0  0  0  0  0  0  0  0  0  0
   28.3090  -20.3548  -17.9011 N   0  0  0  0  0  0  0  0  0  0  0  0
   28.2347  -19.8601  -16.5779 C   0  0  0  0  0  0  0  0  0  0  0  0
   28.9322  -18.8798  -16.2441 O   0  0  0  0  0  0  0  0  0  0  0  0
   27.3447  -20.4796  -15.5721 C   0  0  0  0  0  0  0  0  0  0  0  0
   26.7258  -19.4247  -14.6841 C   0  0  2  0  0  0  0  0  0  0  0  0
   25.9011  -20.1226  -13.7150 N   0  0  0  0  0  0  0  0  0  0  0  0
   25.8766  -18.5745  -15.5895 C   0  0  0  0  0  0  0  0  0  0  0  0
   24.8406  -19.1129  -16.0387 O   0  0  0  0  0  0  0  0  0  0  0  0
   26.1913  -17.2604  -15.9315 N   0  0  0  0  0  0  0  0  0  0  0  0
   27.3854  -16.5047  -15.5338 C   0  0  0  0  0  0  0  0  0  0  0  0
   26.7519  -15.1294  -15.2827 C   0  0  0  0  0  0  0  0  0  0  0  0
   25.9186  -14.9770  -16.5377 C   0  0  0  0  0  0  0  0  0  0  0  0
   25.4063  -16.3747  -16.7491 C   0  0  1  0  0  0  0  0  0  0  0  0
   25.5036  -16.6926  -18.1809 C   0  0  0  0  0  0  0  0  0  0  0  0
   24.7549  -16.1325  -19.0065 O   0  0  0  0  0  0  0  0  0  0  0  0
   26.4269  -17.6145  -18.6150 O   0  0  0  0  0  0  0  0  0  0  0  0
  2 12  2  0
  2  1  1  0
  3  2  1  0
  4  5  1  0
  4  3  2  0
  5 11  2  0
  6  7  1  0
  6  5  1  0
  7  8  1  1
  9  7  1  0
  9 10  2  0
 11 12  1  0
 13 14  1  0
 14 16  1  0
 15 14  2  0
 17 16  1  6
 17 18  1  0
 18  9  1  0
 19 17  1  0
 20 19  2  0
 21 22  1  0
 21 19  1  0
 22 23  1  0
 24 23  1  0
 25 21  1  0
 25 24  1  0
 25 26  1  6
 27 26  2  0
 28 26  1  0
M  END
$$$$
