PSE.pdb
     RDKit          3D

 23 23  0  0  1  0  0  0  0  0999 V2000
   27.7429  -21.4065  -14.9872 N   0  0  0  0  0  0  0  0  0  0  0  0
   28.7896  -20.6214  -15.5728 C   0  0  0  0  0  0  0  0  0  0  0  0
   28.8722  -19.3373  -14.7390 C   0  0  0  0  0  0  0  0  0  0  0  0
   28.5617  -19.9078  -13.3474 C   0  0  0  0  0  0  0  0  0  0  0  0
   27.3616  -20.7905  -13.7278 C   0  0  1  0  0  0  0  0  0  0  0  0
   26.2303  -19.8363  -13.9146 C   0  0  0  0  0  0  0  0  0  0  0  0
   25.9212  -19.0930  -12.9653 O   0  0  0  0  0  0  0  0  0  0  0  0
   25.0204  -18.4577  -17.5378 O   0  0  0  0  0  0  0  0  0  0  0  0
   24.6697  -17.8417  -16.3573 C   0  0  0  0  0  0  0  0  0  0  0  0
   24.3706  -18.8453  -15.2441 C   0  0  2  0  0  0  0  0  0  0  0  0
   25.4886  -19.7422  -15.1364 N   0  0  0  0  0  0  0  0  0  0  0  0
   23.1061  -19.5564  -15.5610 C   0  0  0  0  0  0  0  0  0  0  0  0
   23.1867  -20.6165  -16.2212 O   0  0  0  0  0  0  0  0  0  0  0  0
   21.8831  -19.0221  -15.1146 N   0  0  0  0  0  0  0  0  0  0  0  0
   20.5602  -19.4572  -15.3404 C   0  0  1  0  0  0  0  0  0  0  0  0
   19.9618  -20.0697  -14.0824 C   0  0  0  0  0  0  0  0  0  0  0  0
   20.5896  -21.4022  -13.7599 C   0  0  0  0  0  0  0  0  0  0  0  0
   19.8640  -22.0807  -12.6608 C   0  0  0  0  0  0  0  0  0  0  0  0
   19.2297  -23.1375  -12.9316 O   0  0  0  0  0  0  0  0  0  0  0  0
   19.6673  -18.5893  -16.0815 C   0  0  0  0  0  0  0  0  0  0  0  0
   19.8839  -17.3516  -16.0991 O   0  0  0  0  0  0  0  0  0  0  0  0
   19.8686  -21.5980  -11.3815 O   0  0  0  0  0  0  0  0  0  0  0  0
   18.5651  -19.0485  -16.7880 O   0  0  0  0  0  0  0  0  0  0  0  0
  1  2  1  0
  2  3  1  0
  4  3  1  0
  5  1  1  0
  5  4  1  0
  5  6  1  6
  7  6  2  0
  8  9  1  0
 10  9  1  6
 10 11  1  0
 10 12  1  0
 11  6  1  0
 12 14  1  0
 13 12  2  0
 14 15  1  0
 15 16  1  1
 15 20  1  0
 16 17  1  0
 17 18  1  0
 18 22  1  0
 19 18  2  0
 20 21  2  0
 20 23  1  0
M  END
$$$$
