PSE.pdb
     RDKit          3D

 23 23  0  0  1  0  0  0  0  0999 V2000
   28.5481  -21.3207   -8.5430 N   0  0  0  0  0  0  0  0  0  0  0  0
   29.3620  -20.2036   -8.1629 C   0  0  0  0  0  0  0  0  0  0  0  0
   28.3987  -19.0280   -7.9603 C   0  0  0  0  0  0  0  0  0  0  0  0
   27.1952  -19.7746   -7.3665 C   0  0  0  0  0  0  0  0  0  0  0  0
   27.1550  -20.9563   -8.3493 C   0  0  1  0  0  0  0  0  0  0  0  0
   26.5658  -20.3935   -9.5988 C   0  0  0  0  0  0  0  0  0  0  0  0
   25.8452  -19.3826   -9.5092 O   0  0  0  0  0  0  0  0  0  0  0  0
   27.4590  -21.8618  -13.4983 O   0  0  0  0  0  0  0  0  0  0  0  0
   27.1640  -20.5443  -13.2273 C   0  0  0  0  0  0  0  0  0  0  0  0
   26.1871  -20.3950  -12.0615 C   0  0  2  0  0  0  0  0  0  0  0  0
   26.7945  -20.9673  -10.8911 N   0  0  0  0  0  0  0  0  0  0  0  0
   24.9073  -21.0602  -12.4147 C   0  0  0  0  0  0  0  0  0  0  0  0
   24.7140  -22.2161  -11.9758 O   0  0  0  0  0  0  0  0  0  0  0  0
   23.9732  -20.3781  -13.2165 N   0  0  0  0  0  0  0  0  0  0  0  0
   22.7174  -20.7924  -13.7080 C   0  0  1  0  0  0  0  0  0  0  0  0
   21.5923  -19.9602  -13.1100 C   0  0  0  0  0  0  0  0  0  0  0  0
   20.2412  -20.4221  -13.5945 C   0  0  0  0  0  0  0  0  0  0  0  0
   19.1655  -19.5296  -13.1030 C   0  0  0  0  0  0  0  0  0  0  0  0
   19.4740  -18.3488  -12.7824 O   0  0  0  0  0  0  0  0  0  0  0  0
   22.5888  -21.0646  -15.1255 C   0  0  0  0  0  0  0  0  0  0  0  0
   21.7710  -21.9358  -15.5145 O   0  0  0  0  0  0  0  0  0  0  0  0
   17.8685  -19.9483  -12.9940 O   0  0  0  0  0  0  0  0  0  0  0  0
   23.3272  -20.4101  -16.1007 O   0  0  0  0  0  0  0  0  0  0  0  0
  1  2  1  0
  2  3  1  0
  4  3  1  0
  5  1  1  0
  5  4  1  0
  5  6  1  6
  7  6  2  0
  8  9  1  0
 10  9  1  6
 10 11  1  0
 10 12  1  0
 11  6  1  0
 12 14  1  0
 13 12  2  0
 14 15  1  0
 15 16  1  6
 15 20  1  0
 16 17  1  0
 17 18  1  0
 18 22  1  0
 19 18  2  0
 20 21  2  0
 20 23  1  0
M  END
$$$$
