PSE.pdb
     RDKit          3D

 23 23  0  0  1  0  0  0  0  0999 V2000
   19.5792   -9.9523  -17.8986 N   0  0  0  0  0  0  0  0  0  0  0  0
   20.0001  -11.2783  -18.2443 C   0  0  0  0  0  0  0  0  0  0  0  0
   19.6584  -12.1589  -17.0365 C   0  0  0  0  0  0  0  0  0  0  0  0
   18.3485  -11.4938  -16.5892 C   0  0  0  0  0  0  0  0  0  0  0  0
   18.7995  -10.0264  -16.6749 C   0  0  1  0  0  0  0  0  0  0  0  0
   19.6597   -9.8209  -15.4737 C   0  0  0  0  0  0  0  0  0  0  0  0
   19.1212   -9.8349  -14.3516 O   0  0  0  0  0  0  0  0  0  0  0  0
   23.8944   -9.8771  -15.6335 O   0  0  0  0  0  0  0  0  0  0  0  0
   23.1418  -10.3336  -14.5745 C   0  0  0  0  0  0  0  0  0  0  0  0
   21.8705   -9.5111  -14.3671 C   0  0  2  0  0  0  0  0  0  0  0  0
   21.0737   -9.6085  -15.5594 N   0  0  0  0  0  0  0  0  0  0  0  0
   22.2472   -8.1093  -14.0540 C   0  0  0  0  0  0  0  0  0  0  0  0
   22.8380   -7.8955  -12.9717 O   0  0  0  0  0  0  0  0  0  0  0  0
   21.9320   -7.0887  -14.9703 N   0  0  0  0  0  0  0  0  0  0  0  0
   22.2152   -5.7072  -14.9310 C   0  0  1  0  0  0  0  0  0  0  0  0
   22.0766   -5.0791  -16.3102 C   0  0  0  0  0  0  0  0  0  0  0  0
   22.4946   -3.6304  -16.3059 C   0  0  0  0  0  0  0  0  0  0  0  0
   22.3098   -3.0188  -17.6426 C   0  0  0  0  0  0  0  0  0  0  0  0
   22.0008   -3.7753  -18.6041 O   0  0  0  0  0  0  0  0  0  0  0  0
   21.6647   -4.9225  -13.8443 C   0  0  0  0  0  0  0  0  0  0  0  0
   20.4865   -5.1370  -13.4638 O   0  0  0  0  0  0  0  0  0  0  0  0
   22.4607   -1.6763  -17.8535 O   0  0  0  0  0  0  0  0  0  0  0  0
   22.3716   -3.9283  -13.1833 O   0  0  0  0  0  0  0  0  0  0  0  0
  1  2  1  0
  2  3  1  0
  4  3  1  0
  5  1  1  0
  5  4  1  0
  5  6  1  1
  7  6  2  0
  8  9  1  0
 10  9  1  6
 10 11  1  0
 10 12  1  0
 11  6  1  0
 12 14  1  0
 13 12  2  0
 14 15  1  0
 15 16  1  6
 15 20  1  0
 16 17  1  0
 17 18  1  0
 18 22  1  0
 19 18  2  0
 20 21  2  0
 20 23  1  0
M  END
$$$$
