PSE.pdb
     RDKit          3D

 23 23  0  0  1  0  0  0  0  0999 V2000
   19.1532  -10.5794  -18.2592 N   0  0  0  0  0  0  0  0  0  0  0  0
   19.6177  -11.9052  -17.9738 C   0  0  0  0  0  0  0  0  0  0  0  0
   19.4466  -12.0969  -16.4622 C   0  0  0  0  0  0  0  0  0  0  0  0
   18.1480  -11.3070  -16.2429 C   0  0  0  0  0  0  0  0  0  0  0  0
   18.5000  -10.0596  -17.0701 C   0  0  1  0  0  0  0  0  0  0  0  0
   19.4574   -9.2952  -16.2191 C   0  0  0  0  0  0  0  0  0  0  0  0
   19.0796   -8.9216  -15.0936 O   0  0  0  0  0  0  0  0  0  0  0  0
   23.2889   -7.9343  -17.5835 O   0  0  0  0  0  0  0  0  0  0  0  0
   23.0721   -8.3254  -16.2811 C   0  0  0  0  0  0  0  0  0  0  0  0
   21.6218   -8.1188  -15.8455 C   0  0  2  0  0  0  0  0  0  0  0  0
   20.7875   -8.9749  -16.6436 N   0  0  0  0  0  0  0  0  0  0  0  0
   21.2698   -6.6846  -16.0010 C   0  0  0  0  0  0  0  0  0  0  0  0
   20.4911   -6.3761  -16.9307 O   0  0  0  0  0  0  0  0  0  0  0  0
   21.8150   -5.7398  -15.1119 N   0  0  0  0  0  0  0  0  0  0  0  0
   21.4704   -4.3897  -14.8904 C   0  0  1  0  0  0  0  0  0  0  0  0
   19.9617   -4.2181  -14.7883 C   0  0  0  0  0  0  0  0  0  0  0  0
   19.5785   -2.7729  -14.5931 C   0  0  0  0  0  0  0  0  0  0  0  0
   18.1060   -2.6113  -14.5666 C   0  0  0  0  0  0  0  0  0  0  0  0
   17.6389   -1.4653  -14.3199 O   0  0  0  0  0  0  0  0  0  0  0  0
   22.2381   -3.6334  -13.9217 C   0  0  0  0  0  0  0  0  0  0  0  0
   22.3757   -2.3939  -14.0759 O   0  0  0  0  0  0  0  0  0  0  0  0
   17.2569   -3.6567  -14.8022 O   0  0  0  0  0  0  0  0  0  0  0  0
   22.8434   -4.2036  -12.8112 O   0  0  0  0  0  0  0  0  0  0  0  0
  1  2  1  0
  2  3  1  0
  4  3  1  0
  5  1  1  0
  5  4  1  0
  5  6  1  1
  7  6  2  0
  8  9  1  0
 10  9  1  6
 10 11  1  0
 10 12  1  0
 11  6  1  0
 12 14  1  0
 13 12  2  0
 14 15  1  0
 15 16  1  1
 15 20  1  0
 16 17  1  0
 17 18  1  0
 18 22  1  0
 19 18  2  0
 20 21  2  0
 20 23  1  0
M  END
$$$$
