PSE.pdb
     RDKit          3D

 23 23  0  0  1  0  0  0  0  0999 V2000
   26.9816  -20.9054  -13.6721 N   0  0  0  0  0  0  0  0  0  0  0  0
   27.0300  -21.0429  -12.2461 C   0  0  0  0  0  0  0  0  0  0  0  0
   25.6421  -21.5370  -11.8215 C   0  0  0  0  0  0  0  0  0  0  0  0
   25.3133  -22.4500  -13.0118 C   0  0  0  0  0  0  0  0  0  0  0  0
   25.7471  -21.5071  -14.1462 C   0  0  1  0  0  0  0  0  0  0  0  0
   24.6550  -20.4953  -14.2400 C   0  0  0  0  0  0  0  0  0  0  0  0
   24.2146  -20.0016  -13.1857 O   0  0  0  0  0  0  0  0  0  0  0  0
   23.3522  -16.7837  -16.1062 O   0  0  0  0  0  0  0  0  0  0  0  0
   23.3608  -18.0704  -16.5967 C   0  0  0  0  0  0  0  0  0  0  0  0
   23.0320  -19.1050  -15.5210 C   0  0  2  0  0  0  0  0  0  0  0  0
   24.0951  -20.0718  -15.4886 N   0  0  0  0  0  0  0  0  0  0  0  0
   21.7176  -19.7229  -15.8301 C   0  0  0  0  0  0  0  0  0  0  0  0
   21.7032  -20.6869  -16.6280 O   0  0  0  0  0  0  0  0  0  0  0  0
   20.5549  -19.2113  -15.2244 N   0  0  0  0  0  0  0  0  0  0  0  0
   19.1990  -19.5465  -15.4233 C   0  0  1  0  0  0  0  0  0  0  0  0
   18.4585  -19.6477  -14.0976 C   0  0  0  0  0  0  0  0  0  0  0  0
   17.0762  -20.2233  -14.2755 C   0  0  0  0  0  0  0  0  0  0  0  0
   17.0777  -21.6889  -14.0587 C   0  0  0  0  0  0  0  0  0  0  0  0
   17.3779  -22.1190  -12.9110 O   0  0  0  0  0  0  0  0  0  0  0  0
   18.4712  -18.8723  -16.4795 C   0  0  0  0  0  0  0  0  0  0  0  0
   18.1615  -19.5081  -17.5182 O   0  0  0  0  0  0  0  0  0  0  0  0
   16.7635  -22.5703  -15.0557 O   0  0  0  0  0  0  0  0  0  0  0  0
   18.0864  -17.5409  -16.4147 O   0  0  0  0  0  0  0  0  0  0  0  0
  1  2  1  0
  2  3  1  0
  4  3  1  0
  5  1  1  0
  5  4  1  0
  5  6  1  1
  7  6  2  0
  8  9  1  0
 10  9  1  6
 10 11  1  0
 10 12  1  0
 11  6  1  0
 12 14  1  0
 13 12  2  0
 14 15  1  0
 15 16  1  1
 15 20  1  0
 16 17  1  0
 17 18  1  0
 18 22  1  0
 19 18  2  0
 20 21  2  0
 20 23  1  0
M  END
$$$$
