PSE.pdb
     RDKit          3D

 23 23  0  0  1  0  0  0  0  0999 V2000
   28.5633  -20.5520  -15.4549 N   0  0  0  0  0  0  0  0  0  0  0  0
   28.0417  -19.6052  -16.3963 C   0  0  0  0  0  0  0  0  0  0  0  0
   27.1634  -18.6439  -15.5869 C   0  0  0  0  0  0  0  0  0  0  0  0
   27.9759  -18.5791  -14.2854 C   0  0  0  0  0  0  0  0  0  0  0  0
   28.2512  -20.0823  -14.1159 C   0  0  1  0  0  0  0  0  0  0  0  0
   26.9618  -20.6539  -13.6305 C   0  0  0  0  0  0  0  0  0  0  0  0
   26.2195  -21.2208  -14.4533 O   0  0  0  0  0  0  0  0  0  0  0  0
   25.4955  -19.9406   -9.7590 O   0  0  0  0  0  0  0  0  0  0  0  0
   25.2572  -21.1736  -10.3238 C   0  0  0  0  0  0  0  0  0  0  0  0
   25.2833  -21.1285  -11.8512 C   0  0  2  0  0  0  0  0  0  0  0  0
   26.5452  -20.5764  -12.2622 N   0  0  0  0  0  0  0  0  0  0  0  0
   24.1324  -20.3223  -12.3310 C   0  0  0  0  0  0  0  0  0  0  0  0
   24.3254  -19.1039  -12.5417 O   0  0  0  0  0  0  0  0  0  0  0  0
   22.8868  -20.9468  -12.5287 N   0  0  0  0  0  0  0  0  0  0  0  0
   21.6725  -20.4255  -13.0227 C   0  0  1  0  0  0  0  0  0  0  0  0
   21.6867  -20.3474  -14.5425 C   0  0  0  0  0  0  0  0  0  0  0  0
   20.4708  -19.6314  -15.0738 C   0  0  0  0  0  0  0  0  0  0  0  0
   20.3838  -19.7513  -16.5479 C   0  0  0  0  0  0  0  0  0  0  0  0
   19.2686  -20.0554  -17.0541 O   0  0  0  0  0  0  0  0  0  0  0  0
   20.4324  -20.9062  -12.4473 C   0  0  0  0  0  0  0  0  0  0  0  0
   20.3920  -22.0556  -11.9412 O   0  0  0  0  0  0  0  0  0  0  0  0
   21.4648  -19.5406  -17.3582 O   0  0  0  0  0  0  0  0  0  0  0  0
   19.2623  -20.1614  -12.4192 O   0  0  0  0  0  0  0  0  0  0  0  0
  1  2  1  0
  2  3  1  0
  4  3  1  0
  5  1  1  0
  5  4  1  0
  5  6  1  6
  7  6  2  0
  8  9  1  0
 10  9  1  1
 10 11  1  0
 10 12  1  0
 11  6  1  0
 12 14  1  0
 13 12  2  0
 14 15  1  0
 15 16  1  6
 15 20  1  0
 16 17  1  0
 17 18  1  0
 18 22  1  0
 19 18  2  0
 20 21  2  0
 20 23  1  0
M  END
$$$$
