PSE.pdb
     RDKit          3D

 23 23  0  0  1  0  0  0  0  0999 V2000
   11.9791  -11.9900  -11.7965 N   0  0  0  0  0  0  0  0  0  0  0  0
   12.2383  -13.2760  -11.2186 C   0  0  0  0  0  0  0  0  0  0  0  0
   13.0644  -13.0127   -9.9541 C   0  0  0  0  0  0  0  0  0  0  0  0
   12.4200  -11.6987   -9.4887 C   0  0  0  0  0  0  0  0  0  0  0  0
   12.3857  -10.9718  -10.8432 C   0  0  1  0  0  0  0  0  0  0  0  0
   13.7940  -10.5416  -11.0810 C   0  0  0  0  0  0  0  0  0  0  0  0
   14.3308   -9.7889  -10.2476 O   0  0  0  0  0  0  0  0  0  0  0  0
   17.8318  -10.9235  -13.7840 O   0  0  0  0  0  0  0  0  0  0  0  0
   16.5140  -11.2632  -13.5739 C   0  0  0  0  0  0  0  0  0  0  0  0
   15.8777  -10.4539  -12.4444 C   0  0  2  0  0  0  0  0  0  0  0  0
   14.5495  -10.9574  -12.2247 N   0  0  0  0  0  0  0  0  0  0  0  0
   15.8809   -9.0167  -12.8179 C   0  0  0  0  0  0  0  0  0  0  0  0
   15.0656   -8.6424  -13.6904 O   0  0  0  0  0  0  0  0  0  0  0  0
   16.7852   -8.1417  -12.1877 N   0  0  0  0  0  0  0  0  0  0  0  0
   17.0376   -6.7721  -12.4130 C   0  0  1  0  0  0  0  0  0  0  0  0
   16.5979   -5.9301  -11.2239 C   0  0  0  0  0  0  0  0  0  0  0  0
   16.7326   -4.4553  -11.5068 C   0  0  0  0  0  0  0  0  0  0  0  0
   16.2934   -3.6478  -10.3449 C   0  0  0  0  0  0  0  0  0  0  0  0
   15.2004   -3.0236  -10.4348 O   0  0  0  0  0  0  0  0  0  0  0  0
   18.3105   -6.3930  -12.9924 C   0  0  0  0  0  0  0  0  0  0  0  0
   19.3147   -7.1256  -12.8082 O   0  0  0  0  0  0  0  0  0  0  0  0
   17.0311   -3.5675   -9.1965 O   0  0  0  0  0  0  0  0  0  0  0  0
   18.4943   -5.2480  -13.7541 O   0  0  0  0  0  0  0  0  0  0  0  0
  1  2  1  0
  2  3  1  0
  4  3  1  0
  5  1  1  0
  5  4  1  0
  5  6  1  6
  7  6  2  0
  8  9  1  0
 10  9  1  6
 10 11  1  0
 10 12  1  0
 11  6  1  0
 12 14  1  0
 13 12  2  0
 14 15  1  0
 15 16  1  1
 15 20  1  0
 16 17  1  0
 17 18  1  0
 18 22  1  0
 19 18  2  0
 20 21  2  0
 20 23  1  0
M  END
$$$$
