PSE.pdb
     RDKit          3D

 23 23  0  0  1  0  0  0  0  0999 V2000
   18.5770  -14.1938  -16.5534 N   0  0  0  0  0  0  0  0  0  0  0  0
   17.2825  -14.6580  -16.9580 C   0  0  0  0  0  0  0  0  0  0  0  0
   16.7734  -13.6450  -17.9902 C   0  0  0  0  0  0  0  0  0  0  0  0
   18.0950  -13.2987  -18.6916 C   0  0  0  0  0  0  0  0  0  0  0  0
   18.9722  -13.1146  -17.4423 C   0  0  1  0  0  0  0  0  0  0  0  0
   18.5751  -11.7874  -16.8894 C   0  0  0  0  0  0  0  0  0  0  0  0
   18.8626  -10.7660  -17.5400 O   0  0  0  0  0  0  0  0  0  0  0  0
   15.7261   -9.2720  -13.9249 O   0  0  0  0  0  0  0  0  0  0  0  0
   16.1506  -10.4670  -14.4613 C   0  0  0  0  0  0  0  0  0  0  0  0
   17.4983  -10.3399  -15.1708 C   0  0  2  0  0  0  0  0  0  0  0  0
   17.8800  -11.6418  -15.6454 N   0  0  0  0  0  0  0  0  0  0  0  0
   18.4914   -9.7716  -14.2243 C   0  0  0  0  0  0  0  0  0  0  0  0
   19.0077  -10.5482  -13.3899 O   0  0  0  0  0  0  0  0  0  0  0  0
   18.8113   -8.4031  -14.2987 N   0  0  0  0  0  0  0  0  0  0  0  0
   19.6315   -7.6110  -13.4680 C   0  0  1  0  0  0  0  0  0  0  0  0
   20.3756   -6.5572  -14.2755 C   0  0  0  0  0  0  0  0  0  0  0  0
   21.3413   -5.7791  -13.4179 C   0  0  0  0  0  0  0  0  0  0  0  0
   21.9465   -4.6606  -14.1780 C   0  0  0  0  0  0  0  0  0  0  0  0
   21.7503   -3.4854  -13.7621 O   0  0  0  0  0  0  0  0  0  0  0  0
   19.0886   -7.1444  -12.2081 C   0  0  0  0  0  0  0  0  0  0  0  0
   19.7717   -7.2637  -11.1601 O   0  0  0  0  0  0  0  0  0  0  0  0
   22.7020   -4.8694  -15.2983 O   0  0  0  0  0  0  0  0  0  0  0  0
   17.8358   -6.5616  -12.0834 O   0  0  0  0  0  0  0  0  0  0  0  0
  1  2  1  0
  2  3  1  0
  4  3  1  0
  5  1  1  0
  5  4  1  0
  5  6  1  1
  7  6  2  0
  8  9  1  0
 10  9  1  1
 10 11  1  0
 10 12  1  0
 11  6  1  0
 12 14  1  0
 13 12  2  0
 14 15  1  0
 15 16  1  6
 15 20  1  0
 16 17  1  0
 17 18  1  0
 18 22  1  0
 19 18  2  0
 20 21  2  0
 20 23  1  0
M  END
$$$$
