PSE.pdb
     RDKit          3D

 23 23  0  0  1  0  0  0  0  0999 V2000
   27.8104  -17.6627  -16.9102 N   0  0  0  0  0  0  0  0  0  0  0  0
   28.8125  -18.1440  -17.8153 C   0  0  0  0  0  0  0  0  0  0  0  0
   28.3376  -19.5274  -18.2753 C   0  0  0  0  0  0  0  0  0  0  0  0
   26.8229  -19.2801  -18.3294 C   0  0  0  0  0  0  0  0  0  0  0  0
   26.6646  -18.5529  -16.9840 C   0  0  1  0  0  0  0  0  0  0  0  0
   26.7510  -19.6300  -15.9556 C   0  0  0  0  0  0  0  0  0  0  0  0
   25.9058  -20.5433  -15.9838 O   0  0  0  0  0  0  0  0  0  0  0  0
   29.7694  -19.8159  -12.9276 O   0  0  0  0  0  0  0  0  0  0  0  0
   29.0220  -20.9036  -13.3208 C   0  0  0  0  0  0  0  0  0  0  0  0
   27.6234  -20.5081  -13.7932 C   0  0  2  0  0  0  0  0  0  0  0  0
   27.7623  -19.6549  -14.9416 N   0  0  0  0  0  0  0  0  0  0  0  0
   26.9072  -19.8393  -12.6775 C   0  0  0  0  0  0  0  0  0  0  0  0
   27.0957  -18.6122  -12.5203 O   0  0  0  0  0  0  0  0  0  0  0  0
   26.0561  -20.5965  -11.8512 N   0  0  0  0  0  0  0  0  0  0  0  0
   25.2968  -20.2118  -10.7261 C   0  0  1  0  0  0  0  0  0  0  0  0
   23.8620  -19.8883  -11.1169 C   0  0  0  0  0  0  0  0  0  0  0  0
   23.0601  -21.1392  -11.3734 C   0  0  0  0  0  0  0  0  0  0  0  0
   21.7133  -20.8107  -11.8960 C   0  0  0  0  0  0  0  0  0  0  0  0
   21.3928  -21.2551  -13.0328 O   0  0  0  0  0  0  0  0  0  0  0  0
   25.4391  -20.9787   -9.5049 C   0  0  0  0  0  0  0  0  0  0  0  0
   25.9370  -22.1313   -9.5548 O   0  0  0  0  0  0  0  0  0  0  0  0
   20.8242  -20.0529  -11.1856 O   0  0  0  0  0  0  0  0  0  0  0  0
   25.0523  -20.5104   -8.2575 O   0  0  0  0  0  0  0  0  0  0  0  0
  1  2  1  0
  2  3  1  0
  4  3  1  0
  5  1  1  0
  5  4  1  0
  5  6  1  1
  7  6  2  0
  8  9  1  0
 10  9  1  1
 10 11  1  0
 10 12  1  0
 11  6  1  0
 12 14  1  0
 13 12  2  0
 14 15  1  0
 15 16  1  6
 15 20  1  0
 16 17  1  0
 17 18  1  0
 18 22  1  0
 19 18  2  0
 20 21  2  0
 20 23  1  0
M  END
$$$$
