PSE.pdb
     RDKit          3D

 23 23  0  0  1  0  0  0  0  0999 V2000
   23.3258  -23.7999   11.0448 N   0  0  0  0  0  0  0  0  0  0  0  0
   23.2888  -25.2008   11.3463 C   0  0  0  0  0  0  0  0  0  0  0  0
   24.4850  -25.4669   12.2677 C   0  0  0  0  0  0  0  0  0  0  0  0
   24.4905  -24.1601   13.0744 C   0  0  0  0  0  0  0  0  0  0  0  0
   24.3128  -23.1741   11.9081 C   0  0  1  0  0  0  0  0  0  0  0  0
   25.6494  -23.1189   11.2481 C   0  0  0  0  0  0  0  0  0  0  0  0
   25.9577  -24.0321   10.4604 O   0  0  0  0  0  0  0  0  0  0  0  0
   28.3558  -20.0730   12.0969 O   0  0  0  0  0  0  0  0  0  0  0  0
   28.3595  -20.5827   10.8178 C   0  0  0  0  0  0  0  0  0  0  0  0
   27.8293  -22.0150   10.7609 C   0  0  2  0  0  0  0  0  0  0  0  0
   26.5879  -22.0628   11.4838 N   0  0  0  0  0  0  0  0  0  0  0  0
   28.8492  -22.9313   11.3312 C   0  0  0  0  0  0  0  0  0  0  0  0
   28.6735  -23.3383   12.5015 O   0  0  0  0  0  0  0  0  0  0  0  0
   29.9578  -23.3033   10.5482 N   0  0  0  0  0  0  0  0  0  0  0  0
   31.0740  -24.1044   10.8685 C   0  0  1  0  0  0  0  0  0  0  0  0
   31.3406  -25.1345    9.7805 C   0  0  0  0  0  0  0  0  0  0  0  0
   32.4095  -26.1147   10.1929 C   0  0  0  0  0  0  0  0  0  0  0  0
   32.6480  -27.1205    9.1314 C   0  0  0  0  0  0  0  0  0  0  0  0
   31.9171  -27.0834    8.1034 O   0  0  0  0  0  0  0  0  0  0  0  0
   32.2566  -23.4565   11.3992 C   0  0  0  0  0  0  0  0  0  0  0  0
   32.5451  -22.2935   11.0207 O   0  0  0  0  0  0  0  0  0  0  0  0
   33.6269  -28.0692    9.2373 O   0  0  0  0  0  0  0  0  0  0  0  0
   33.1082  -24.0519   12.3186 O   0  0  0  0  0  0  0  0  0  0  0  0
  1  2  1  0
  2  3  1  0
  4  3  1  0
  5  1  1  0
  5  4  1  0
  5  6  1  6
  7  6  2  0
  8  9  1  0
 10  9  1  1
 10 11  1  0
 10 12  1  0
 11  6  1  0
 12 14  1  0
 13 12  2  0
 14 15  1  0
 15 16  1  6
 15 20  1  0
 16 17  1  0
 17 18  1  0
 18 22  1  0
 19 18  2  0
 20 21  2  0
 20 23  1  0
M  END
$$$$
