PSE.pdb
     RDKit          3D

 23 23  0  0  1  0  0  0  0  0999 V2000
   19.7007  -13.0404  -17.0744 N   0  0  0  0  0  0  0  0  0  0  0  0
   18.5243  -13.3952  -16.3361 C   0  0  0  0  0  0  0  0  0  0  0  0
   17.7946  -12.0785  -16.0449 C   0  0  0  0  0  0  0  0  0  0  0  0
   18.0999  -11.3168  -17.3430 C   0  0  0  0  0  0  0  0  0  0  0  0
   19.5996  -11.6397  -17.4469 C   0  0  1  0  0  0  0  0  0  0  0  0
   20.2500  -10.7628  -16.4305 C   0  0  0  0  0  0  0  0  0  0  0  0
   19.5655  -10.3612  -15.4716 O   0  0  0  0  0  0  0  0  0  0  0  0
   24.0203  -11.0553  -15.0847 O   0  0  0  0  0  0  0  0  0  0  0  0
   23.7092   -9.7729  -15.4781 C   0  0  0  0  0  0  0  0  0  0  0  0
   22.2019   -9.5220  -15.5038 C   0  0  2  0  0  0  0  0  0  0  0  0
   21.6237  -10.3658  -16.5137 N   0  0  0  0  0  0  0  0  0  0  0  0
   21.9559   -8.0811  -15.7647 C   0  0  0  0  0  0  0  0  0  0  0  0
   21.9596   -7.6985  -16.9563 O   0  0  0  0  0  0  0  0  0  0  0  0
   21.7306   -7.2119  -14.6810 N   0  0  0  0  0  0  0  0  0  0  0  0
   21.4555   -5.8283  -14.6625 C   0  0  1  0  0  0  0  0  0  0  0  0
   19.9578   -5.5657  -14.7249 C   0  0  0  0  0  0  0  0  0  0  0  0
   19.6555   -4.0921  -14.8281 C   0  0  0  0  0  0  0  0  0  0  0  0
   18.1965   -3.8531  -14.9239 C   0  0  0  0  0  0  0  0  0  0  0  0
   17.4272   -4.8526  -14.8832 O   0  0  0  0  0  0  0  0  0  0  0  0
   22.1834   -4.9943  -13.7274 C   0  0  0  0  0  0  0  0  0  0  0  0
   22.5825   -5.4872  -12.6426 O   0  0  0  0  0  0  0  0  0  0  0  0
   17.6738   -2.5960  -15.0501 O   0  0  0  0  0  0  0  0  0  0  0  0
   22.4739   -3.6577  -13.9594 O   0  0  0  0  0  0  0  0  0  0  0  0
  1  2  1  0
  2  3  1  0
  4  3  1  0
  5  1  1  0
  5  4  1  0
  5  6  1  1
  7  6  2  0
  8  9  1  0
 10  9  1  6
 10 11  1  0
 10 12  1  0
 11  6  1  0
 12 14  1  0
 13 12  2  0
 14 15  1  0
 15 16  1  1
 15 20  1  0
 16 17  1  0
 17 18  1  0
 18 22  1  0
 19 18  2  0
 20 21  2  0
 20 23  1  0
M  END
$$$$
