PSE.pdb
     RDKit          3D

 23 23  0  0  1  0  0  0  0  0999 V2000
   18.0456  -11.6341  -16.6022 N   0  0  0  0  0  0  0  0  0  0  0  0
   18.8226  -12.7723  -16.2075 C   0  0  0  0  0  0  0  0  0  0  0  0
   19.8009  -12.2670  -15.1405 C   0  0  0  0  0  0  0  0  0  0  0  0
   18.9087  -11.2359  -14.4339 C   0  0  0  0  0  0  0  0  0  0  0  0
   18.3284  -10.5475  -15.6803 C   0  0  1  0  0  0  0  0  0  0  0  0
   19.4330   -9.6830  -16.1877 C   0  0  0  0  0  0  0  0  0  0  0  0
   19.9864   -8.9028  -15.3913 O   0  0  0  0  0  0  0  0  0  0  0  0
   21.9311  -10.6743  -19.0537 O   0  0  0  0  0  0  0  0  0  0  0  0
   21.5419   -9.3679  -19.2485 C   0  0  0  0  0  0  0  0  0  0  0  0
   20.8613   -8.7739  -18.0158 C   0  0  2  0  0  0  0  0  0  0  0  0
   19.8798   -9.7142  -17.5483 N   0  0  0  0  0  0  0  0  0  0  0  0
   20.2601   -7.4654  -18.3786 C   0  0  0  0  0  0  0  0  0  0  0  0
   19.0184   -7.4189  -18.5270 O   0  0  0  0  0  0  0  0  0  0  0  0
   21.0942   -6.3434  -18.5394 N   0  0  0  0  0  0  0  0  0  0  0  0
   20.7972   -4.9665  -18.4612 C   0  0  1  0  0  0  0  0  0  0  0  0
   19.8865   -4.6678  -17.2790 C   0  0  0  0  0  0  0  0  0  0  0  0
   19.4925   -3.2131  -17.2343 C   0  0  0  0  0  0  0  0  0  0  0  0
   18.5295   -2.9555  -16.1383 C   0  0  0  0  0  0  0  0  0  0  0  0
   18.9852   -2.5760  -15.0244 O   0  0  0  0  0  0  0  0  0  0  0  0
   21.8748   -4.0177  -18.6570 C   0  0  0  0  0  0  0  0  0  0  0  0
   21.7160   -3.0600  -19.4549 O   0  0  0  0  0  0  0  0  0  0  0  0
   17.1816   -3.1140  -16.3043 O   0  0  0  0  0  0  0  0  0  0  0  0
   23.0965   -4.1016  -18.0050 O   0  0  0  0  0  0  0  0  0  0  0  0
  1  2  1  0
  2  3  1  0
  4  3  1  0
  5  1  1  0
  5  4  1  0
  5  6  1  6
  7  6  2  0
  8  9  1  0
 10  9  1  6
 10 11  1  0
 10 12  1  0
 11  6  1  0
 12 14  1  0
 13 12  2  0
 14 15  1  0
 15 16  1  1
 15 20  1  0
 16 17  1  0
 17 18  1  0
 18 22  1  0
 19 18  2  0
 20 21  2  0
 20 23  1  0
M  END
$$$$
