PSE.pdb
     RDKit          3D

 23 23  0  0  1  0  0  0  0  0999 V2000
   17.5897  -12.1997  -16.2609 N   0  0  0  0  0  0  0  0  0  0  0  0
   16.4053  -11.4125  -16.4408 C   0  0  0  0  0  0  0  0  0  0  0  0
   16.8561  -10.1234  -17.1378 C   0  0  0  0  0  0  0  0  0  0  0  0
   17.9594  -10.6877  -18.0449 C   0  0  0  0  0  0  0  0  0  0  0  0
   18.6678  -11.5787  -17.0113 C   0  0  1  0  0  0  0  0  0  0  0  0
   19.4428  -10.6315  -16.1585 C   0  0  0  0  0  0  0  0  0  0  0  0
   18.8233   -9.9404  -15.3292 O   0  0  0  0  0  0  0  0  0  0  0  0
   23.7778   -9.1660  -14.5271 O   0  0  0  0  0  0  0  0  0  0  0  0
   23.0324   -9.9773  -15.3531 C   0  0  0  0  0  0  0  0  0  0  0  0
   21.5629   -9.5606  -15.4058 C   0  0  2  0  0  0  0  0  0  0  0  0
   20.8645  -10.4856  -16.2557 N   0  0  0  0  0  0  0  0  0  0  0  0
   21.4739   -8.1633  -15.9005 C   0  0  0  0  0  0  0  0  0  0  0  0
   21.1231   -7.9901  -17.0892 O   0  0  0  0  0  0  0  0  0  0  0  0
   21.7816   -7.1017  -15.0293 N   0  0  0  0  0  0  0  0  0  0  0  0
   21.6488   -5.7083  -15.2058 C   0  0  1  0  0  0  0  0  0  0  0  0
   20.2978   -5.3584  -15.8129 C   0  0  0  0  0  0  0  0  0  0  0  0
   20.1831   -3.8828  -16.1007 C   0  0  0  0  0  0  0  0  0  0  0  0
   18.8609   -3.5550  -16.6832 C   0  0  0  0  0  0  0  0  0  0  0  0
   18.6834   -3.7731  -17.9134 O   0  0  0  0  0  0  0  0  0  0  0  0
   22.0815   -4.8344  -14.1339 C   0  0  0  0  0  0  0  0  0  0  0  0
   22.1060   -5.2695  -12.9553 O   0  0  0  0  0  0  0  0  0  0  0  0
   17.8454   -3.0335  -15.9305 O   0  0  0  0  0  0  0  0  0  0  0  0
   22.4791   -3.5200  -14.3312 O   0  0  0  0  0  0  0  0  0  0  0  0
  1  2  1  0
  2  3  1  0
  4  3  1  0
  5  1  1  0
  5  4  1  0
  5  6  1  1
  7  6  2  0
  8  9  1  0
 10  9  1  6
 10 11  1  0
 10 12  1  0
 11  6  1  0
 12 14  1  0
 13 12  2  0
 14 15  1  0
 15 16  1  1
 15 20  1  0
 16 17  1  0
 17 18  1  0
 18 22  1  0
 19 18  2  0
 20 21  2  0
 20 23  1  0
M  END
$$$$
