PSE.pdb
     RDKit          3D

 23 23  0  0  1  0  0  0  0  0999 V2000
   23.4628  -13.8790  -16.7758 N   0  0  0  0  0  0  0  0  0  0  0  0
   24.8630  -13.6134  -16.6217 C   0  0  0  0  0  0  0  0  0  0  0  0
   24.9869  -12.6910  -15.4032 C   0  0  0  0  0  0  0  0  0  0  0  0
   23.8649  -13.2643  -14.5252 C   0  0  0  0  0  0  0  0  0  0  0  0
   22.7718  -13.3770  -15.6005 C   0  0  1  0  0  0  0  0  0  0  0  0
   22.2970  -11.9786  -15.8100 C   0  0  0  0  0  0  0  0  0  0  0  0
   22.9182  -11.2574  -16.6120 O   0  0  0  0  0  0  0  0  0  0  0  0
   18.5279   -8.9652  -15.5592 O   0  0  0  0  0  0  0  0  0  0  0  0
   19.1328  -10.1483  -15.1979 C   0  0  0  0  0  0  0  0  0  0  0  0
   20.6306  -10.1520  -15.5014 C   0  0  2  0  0  0  0  0  0  0  0  0
   21.1608  -11.4348  -15.1280 N   0  0  0  0  0  0  0  0  0  0  0  0
   21.2767   -9.0382  -14.7618 C   0  0  0  0  0  0  0  0  0  0  0  0
   21.6687   -9.2668  -13.5955 O   0  0  0  0  0  0  0  0  0  0  0  0
   21.4231   -7.7867  -15.3886 N   0  0  0  0  0  0  0  0  0  0  0  0
   22.0493   -6.6065  -14.9354 C   0  0  1  0  0  0  0  0  0  0  0  0
   22.3396   -5.6605  -16.0916 C   0  0  0  0  0  0  0  0  0  0  0  0
   23.1584   -4.4748  -15.6476 C   0  0  0  0  0  0  0  0  0  0  0  0
   23.3838   -3.5333  -16.7692 C   0  0  0  0  0  0  0  0  0  0  0  0
   23.0244   -2.3331  -16.6183 O   0  0  0  0  0  0  0  0  0  0  0  0
   21.5346   -5.9698  -13.7398 C   0  0  0  0  0  0  0  0  0  0  0  0
   20.2949   -5.8091  -13.6115 O   0  0  0  0  0  0  0  0  0  0  0  0
   23.9651   -3.9278  -17.9422 O   0  0  0  0  0  0  0  0  0  0  0  0
   22.3413   -5.5172  -12.7058 O   0  0  0  0  0  0  0  0  0  0  0  0
  1  2  1  0
  2  3  1  0
  4  3  1  0
  5  1  1  0
  5  4  1  0
  5  6  1  6
  7  6  2  0
  8  9  1  0
 10  9  1  1
 10 11  1  0
 10 12  1  0
 11  6  1  0
 12 14  1  0
 13 12  2  0
 14 15  1  0
 15 16  1  6
 15 20  1  0
 16 17  1  0
 17 18  1  0
 18 22  1  0
 19 18  2  0
 20 21  2  0
 20 23  1  0
M  END
$$$$
