PSE.pdb
     RDKit          3D

 23 23  0  0  1  0  0  0  0  0999 V2000
   18.3099  -13.1413  -15.8315 N   0  0  0  0  0  0  0  0  0  0  0  0
   17.0044  -12.5660  -15.9716 C   0  0  0  0  0  0  0  0  0  0  0  0
   17.1967  -11.2695  -16.7672 C   0  0  0  0  0  0  0  0  0  0  0  0
   18.3213  -11.7086  -17.7163 C   0  0  0  0  0  0  0  0  0  0  0  0
   19.2257  -12.4066  -16.6872 C   0  0  1  0  0  0  0  0  0  0  0  0
   19.8852  -11.2948  -15.9428 C   0  0  0  0  0  0  0  0  0  0  0  0
   19.2151  -10.6668  -15.1027 O   0  0  0  0  0  0  0  0  0  0  0  0
   23.8418  -10.1490  -16.7145 O   0  0  0  0  0  0  0  0  0  0  0  0
   23.3777  -10.0777  -15.4201 C   0  0  0  0  0  0  0  0  0  0  0  0
   21.8616   -9.8960  -15.3550 C   0  0  2  0  0  0  0  0  0  0  0  0
   21.2519  -10.9224  -16.1554 N   0  0  0  0  0  0  0  0  0  0  0  0
   21.5172   -8.5319  -15.8299 C   0  0  0  0  0  0  0  0  0  0  0  0
   21.0707   -8.4184  -16.9935 O   0  0  0  0  0  0  0  0  0  0  0  0
   21.7017   -7.4341  -14.9689 N   0  0  0  0  0  0  0  0  0  0  0  0
   21.3943   -6.0693  -15.1511 C   0  0  1  0  0  0  0  0  0  0  0  0
   19.9754   -5.8912  -15.6720 C   0  0  0  0  0  0  0  0  0  0  0  0
   19.6219   -4.4345  -15.8352 C   0  0  0  0  0  0  0  0  0  0  0  0
   18.2087   -4.2726  -16.2496 C   0  0  0  0  0  0  0  0  0  0  0  0
   17.8084   -4.9159  -17.2587 O   0  0  0  0  0  0  0  0  0  0  0  0
   21.7884   -5.1313  -14.1194 C   0  0  0  0  0  0  0  0  0  0  0  0
   22.1235   -5.5636  -12.9880 O   0  0  0  0  0  0  0  0  0  0  0  0
   17.3429   -3.4586  -15.5734 O   0  0  0  0  0  0  0  0  0  0  0  0
   21.8200   -3.7569  -14.3059 O   0  0  0  0  0  0  0  0  0  0  0  0
  1  2  1  0
  2  3  1  0
  4  3  1  0
  5  1  1  0
  5  4  1  0
  5  6  1  1
  7  6  2  0
  8  9  1  0
 10  9  1  6
 10 11  1  0
 10 12  1  0
 11  6  1  0
 12 14  1  0
 13 12  2  0
 14 15  1  0
 15 16  1  1
 15 20  1  0
 16 17  1  0
 17 18  1  0
 18 22  1  0
 19 18  2  0
 20 21  2  0
 20 23  1  0
M  END
$$$$
