NNY.pdb
     RDKit          3D

 29 29  0  0  1  0  0  0  0  0999 V2000
   27.9855  -13.0503  -17.1749 N   0  0  0  0  0  0  0  0  0  0  0  0
   28.0415  -12.5666  -15.8556 C   0  0  0  0  0  0  0  0  0  0  0  0
   28.6972  -13.1849  -14.9962 O   0  0  0  0  0  0  0  0  0  0  0  0
   27.3310  -11.3347  -15.4820 C   0  0  0  0  0  0  0  0  0  0  0  0
   26.4323  -10.9317  -16.6006 C   0  0  2  0  0  0  0  0  0  0  0  0
   27.2147  -10.7715  -17.7919 N   0  0  0  0  0  0  0  0  0  0  0  0
   25.5769   -9.7778  -16.3012 C   0  0  0  0  0  0  0  0  0  0  0  0
   24.7784   -9.8354  -15.3320 O   0  0  0  0  0  0  0  0  0  0  0  0
   23.4980   -5.0993  -16.0105 N   0  0  0  0  0  0  0  0  0  0  0  0
   24.4094   -4.9823  -17.0997 C   0  0  0  0  0  0  0  0  0  0  0  0
   24.6114   -3.8824  -17.6663 O   0  0  0  0  0  0  0  0  0  0  0  0
   25.1127   -6.1893  -17.5471 C   0  0  0  0  0  0  0  0  0  0  0  0
   24.8412   -7.3994  -16.6909 C   0  0  2  0  0  0  0  0  0  0  0  0
   25.5905   -8.5547  -17.0607 N   0  0  0  0  0  0  0  0  0  0  0  0
   23.3932   -7.7085  -16.7159 C   0  0  0  0  0  0  0  0  0  0  0  0
   22.9029   -8.1735  -17.7728 O   0  0  0  0  0  0  0  0  0  0  0  0
   16.1333  -11.8625  -15.2671 O   0  0  0  0  0  0  0  0  0  0  0  0
   17.3879  -11.2678  -15.3661 C   0  0  0  0  0  0  0  0  0  0  0  0
   18.1618  -11.1725  -14.2351 C   0  0  0  0  0  0  0  0  0  0  0  0
   19.4100  -10.5754  -14.3576 C   0  0  0  0  0  0  0  0  0  0  0  0
   19.8647  -10.0923  -15.5683 C   0  0  0  0  0  0  0  0  0  0  0  0
   21.1855   -9.4680  -15.6385 C   0  0  0  0  0  0  0  0  0  0  0  0
   21.1548   -7.9545  -15.6228 C   0  0  2  0  0  0  0  0  0  0  0  0
   22.5214   -7.5116  -15.6164 N   0  0  0  0  0  0  0  0  0  0  0  0
   20.5031   -7.4063  -14.4122 C   0  0  0  0  0  0  0  0  0  0  0  0
   21.1524   -7.0986  -13.3690 O   0  0  0  0  0  0  0  0  0  0  0  0
   19.0606  -10.2033  -16.6896 C   0  0  0  0  0  0  0  0  0  0  0  0
   17.8116  -10.7950  -16.5928 C   0  0  0  0  0  0  0  0  0  0  0  0
   19.1375   -7.2029  -14.3673 O   0  0  0  0  0  0  0  0  0  0  0  0
  2  3  2  0
  2  1  1  0
  4  2  1  0
  5  4  1  0
  5  6  1  6
  7  8  2  0
  7  5  1  0
 10  9  1  0
 10 12  1  0
 11 10  2  0
 13 12  1  6
 13 14  1  0
 14  7  1  0
 15 13  1  0
 16 15  2  0
 18 17  1  0
 18 28  2  0
 19 18  1  0
 20 19  2  0
 20 21  1  0
 21 27  2  0
 22 21  1  0
 23 22  1  1
 23 24  1  0
 24 15  1  0
 25 23  1  0
 26 25  2  0
 27 28  1  0
 29 25  1  0
M  END
$$$$
