NNY.pdb
     RDKit          3D

 29 29  0  0  1  0  0  0  0  0999 V2000
   20.5755  -11.7332  -20.2631 N   0  0  0  0  0  0  0  0  0  0  0  0
   19.4548  -12.0051  -19.4582 C   0  0  0  0  0  0  0  0  0  0  0  0
   18.5566  -12.7574  -19.8802 O   0  0  0  0  0  0  0  0  0  0  0  0
   19.3348  -11.4075  -18.1201 C   0  0  0  0  0  0  0  0  0  0  0  0
   20.4984  -10.5072  -17.8821 C   0  0  2  0  0  0  0  0  0  0  0  0
   21.5517  -11.2606  -17.2656 N   0  0  0  0  0  0  0  0  0  0  0  0
   20.1669   -9.2694  -17.1672 C   0  0  0  0  0  0  0  0  0  0  0  0
   20.3196   -8.1629  -17.7440 O   0  0  0  0  0  0  0  0  0  0  0  0
   16.7061   -8.3577  -16.0165 N   0  0  0  0  0  0  0  0  0  0  0  0
   16.8904   -8.3696  -14.6035 C   0  0  0  0  0  0  0  0  0  0  0  0
   15.9215   -8.5087  -13.8201 O   0  0  0  0  0  0  0  0  0  0  0  0
   18.2522   -8.2138  -14.0811 C   0  0  0  0  0  0  0  0  0  0  0  0
   19.2938   -8.0297  -15.1546 C   0  0  2  0  0  0  0  0  0  0  0  0
   19.6665   -9.2357  -15.8176 N   0  0  0  0  0  0  0  0  0  0  0  0
   20.4927   -7.3820  -14.5750 C   0  0  0  0  0  0  0  0  0  0  0  0
   21.3928   -8.1149  -14.0995 O   0  0  0  0  0  0  0  0  0  0  0  0
   20.8509   -1.0578  -18.6468 O   0  0  0  0  0  0  0  0  0  0  0  0
   21.3214   -2.0846  -17.8331 C   0  0  0  0  0  0  0  0  0  0  0  0
   21.8115   -1.7663  -16.5898 C   0  0  0  0  0  0  0  0  0  0  0  0
   22.2755   -2.8069  -15.7951 C   0  0  0  0  0  0  0  0  0  0  0  0
   22.2489   -4.1167  -16.2308 C   0  0  0  0  0  0  0  0  0  0  0  0
   22.7554   -5.1722  -15.3542 C   0  0  0  0  0  0  0  0  0  0  0  0
   21.9286   -5.3864  -14.1041 C   0  0  2  0  0  0  0  0  0  0  0  0
   20.6890   -5.9796  -14.5229 N   0  0  0  0  0  0  0  0  0  0  0  0
   21.6043   -4.1217  -13.4070 C   0  0  0  0  0  0  0  0  0  0  0  0
   20.4241   -3.6673  -13.3338 O   0  0  0  0  0  0  0  0  0  0  0  0
   21.7489   -4.4043  -17.4890 C   0  0  0  0  0  0  0  0  0  0  0  0
   21.2802   -3.3836  -18.3003 C   0  0  0  0  0  0  0  0  0  0  0  0
   22.5898   -3.3709  -12.7960 O   0  0  0  0  0  0  0  0  0  0  0  0
  2  3  2  0
  2  1  1  0
  4  2  1  0
  5  4  1  0
  5  6  1  1
  7  8  2  0
  7  5  1  0
 10  9  1  0
 10 12  1  0
 11 10  2  0
 13 12  1  1
 13 14  1  0
 14  7  1  0
 15 13  1  0
 16 15  2  0
 18 17  1  0
 18 28  2  0
 19 18  1  0
 20 19  2  0
 20 21  1  0
 21 27  2  0
 22 21  1  0
 23 22  1  6
 23 24  1  0
 24 15  1  0
 25 23  1  0
 26 25  2  0
 27 28  1  0
 29 25  1  0
M  END
$$$$
