NNY.pdb
     RDKit          3D

 29 29  0  0  1  0  0  0  0  0999 V2000
   27.8796  -16.6421  -19.5982 N   0  0  0  0  0  0  0  0  0  0  0  0
   27.2511  -16.8281  -18.3540 C   0  0  0  0  0  0  0  0  0  0  0  0
   27.6629  -16.2118  -17.3534 O   0  0  0  0  0  0  0  0  0  0  0  0
   26.1096  -17.7460  -18.2248 C   0  0  0  0  0  0  0  0  0  0  0  0
   26.0595  -18.2684  -16.8299 C   0  0  2  0  0  0  0  0  0  0  0  0
   27.3591  -18.7553  -16.4680 N   0  0  0  0  0  0  0  0  0  0  0  0
   24.9824  -19.2347  -16.5861 C   0  0  0  0  0  0  0  0  0  0  0  0
   24.6388  -20.0216  -17.5042 O   0  0  0  0  0  0  0  0  0  0  0  0
   24.7208  -23.6236  -13.1842 N   0  0  0  0  0  0  0  0  0  0  0  0
   24.0542  -22.9387  -14.2411 C   0  0  0  0  0  0  0  0  0  0  0  0
   22.9796  -23.3693  -14.7222 O   0  0  0  0  0  0  0  0  0  0  0  0
   24.6593  -21.7067  -14.7584 C   0  0  0  0  0  0  0  0  0  0  0  0
   23.6882  -20.5605  -14.8782 C   0  0  2  0  0  0  0  0  0  0  0  0
   24.2756  -19.3449  -15.3366 N   0  0  0  0  0  0  0  0  0  0  0  0
   23.0218  -20.3381  -13.5747 C   0  0  0  0  0  0  0  0  0  0  0  0
   23.7121  -19.9071  -12.6202 O   0  0  0  0  0  0  0  0  0  0  0  0
   17.3010  -16.8056  -15.8501 O   0  0  0  0  0  0  0  0  0  0  0  0
   18.1657  -17.3109  -14.8834 C   0  0  0  0  0  0  0  0  0  0  0  0
   19.5189  -17.1669  -15.0714 C   0  0  0  0  0  0  0  0  0  0  0  0
   20.3627  -17.6787  -14.0939 C   0  0  0  0  0  0  0  0  0  0  0  0
   19.8681  -18.3109  -12.9706 C   0  0  0  0  0  0  0  0  0  0  0  0
   20.8029  -18.8356  -11.9756 C   0  0  0  0  0  0  0  0  0  0  0  0
   21.0251  -20.3304  -12.0650 C   0  0  2  0  0  0  0  0  0  0  0  0
   21.6467  -20.5824  -13.3354 N   0  0  0  0  0  0  0  0  0  0  0  0
   19.7624  -21.1016  -12.0260 C   0  0  0  0  0  0  0  0  0  0  0  0
   19.3263  -21.7459  -13.0257 O   0  0  0  0  0  0  0  0  0  0  0  0
   18.4993  -18.4400  -12.8107 C   0  0  0  0  0  0  0  0  0  0  0  0
   17.6372  -17.9376  -13.7719 C   0  0  0  0  0  0  0  0  0  0  0  0
   18.9933  -21.1535  -10.8796 O   0  0  0  0  0  0  0  0  0  0  0  0
  2  3  2  0
  2  1  1  0
  4  2  1  0
  5  4  1  0
  5  6  1  6
  7  8  2  0
  7  5  1  0
 10  9  1  0
 10 12  1  0
 11 10  2  0
 13 12  1  1
 13 14  1  0
 14  7  1  0
 15 13  1  0
 16 15  2  0
 18 17  1  0
 18 28  2  0
 19 18  1  0
 20 19  2  0
 20 21  1  0
 21 27  2  0
 22 21  1  0
 23 22  1  6
 23 24  1  0
 24 15  1  0
 25 23  1  0
 26 25  2  0
 27 28  1  0
 29 25  1  0
M  END
$$$$
