NNY.pdb
     RDKit          3D

 29 29  0  0  1  0  0  0  0  0999 V2000
   28.5673  -18.5676  -18.9297 N   0  0  0  0  0  0  0  0  0  0  0  0
   29.3351  -19.5827  -18.3313 C   0  0  0  0  0  0  0  0  0  0  0  0
   30.3879  -19.9655  -18.8751 O   0  0  0  0  0  0  0  0  0  0  0  0
   28.9041  -20.1965  -17.0666 C   0  0  0  0  0  0  0  0  0  0  0  0
   27.6110  -19.5873  -16.6446 C   0  0  2  0  0  0  0  0  0  0  0  0
   27.8380  -18.2187  -16.2806 N   0  0  0  0  0  0  0  0  0  0  0  0
   26.8882  -20.3536  -15.6232 C   0  0  0  0  0  0  0  0  0  0  0  0
   26.6565  -21.5742  -15.8152 O   0  0  0  0  0  0  0  0  0  0  0  0
   25.6504  -22.3159  -10.6916 N   0  0  0  0  0  0  0  0  0  0  0  0
   25.3379  -20.9549  -10.9755 C   0  0  0  0  0  0  0  0  0  0  0  0
   24.4047  -20.3625  -10.3838 O   0  0  0  0  0  0  0  0  0  0  0  0
   26.1401  -20.2559  -11.9851 C   0  0  0  0  0  0  0  0  0  0  0  0
   25.7145  -20.5452  -13.4016 C   0  0  2  0  0  0  0  0  0  0  0  0
   26.4150  -19.7885  -14.3863 N   0  0  0  0  0  0  0  0  0  0  0  0
   24.2570  -20.3206  -13.5360 C   0  0  0  0  0  0  0  0  0  0  0  0
   23.8228  -19.1497  -13.4184 O   0  0  0  0  0  0  0  0  0  0  0  0
   15.6945  -21.9913  -14.9655 O   0  0  0  0  0  0  0  0  0  0  0  0
   17.0835  -22.0431  -14.8921 C   0  0  0  0  0  0  0  0  0  0  0  0
   17.6629  -22.8982  -13.9864 C   0  0  0  0  0  0  0  0  0  0  0  0
   19.0504  -22.9332  -13.9308 C   0  0  0  0  0  0  0  0  0  0  0  0
   19.8273  -22.1408  -14.7522 C   0  0  0  0  0  0  0  0  0  0  0  0
   21.2842  -22.2146  -14.6472 C   0  0  0  0  0  0  0  0  0  0  0  0
   21.8991  -21.1163  -13.8060 C   0  0  2  0  0  0  0  0  0  0  0  0
   23.3166  -21.3495  -13.7904 N   0  0  0  0  0  0  0  0  0  0  0  0
   21.4287  -21.1367  -12.4028 C   0  0  0  0  0  0  0  0  0  0  0  0
   21.8729  -21.9585  -11.5472 O   0  0  0  0  0  0  0  0  0  0  0  0
   19.2129  -21.2895  -15.6542 C   0  0  0  0  0  0  0  0  0  0  0  0
   17.8303  -21.2367  -15.7286 C   0  0  0  0  0  0  0  0  0  0  0  0
   20.4706  -20.2463  -11.9584 O   0  0  0  0  0  0  0  0  0  0  0  0
  2  3  2  0
  2  1  1  0
  4  2  1  0
  5  4  1  0
  5  6  1  1
  7  8  2  0
  7  5  1  0
 10  9  1  0
 10 12  1  0
 11 10  2  0
 13 12  1  1
 13 14  1  0
 14  7  1  0
 15 13  1  0
 16 15  2  0
 18 17  1  0
 18 28  2  0
 19 18  1  0
 20 19  2  0
 20 21  1  0
 21 27  2  0
 22 21  1  0
 23 22  1  6
 23 24  1  0
 24 15  1  0
 25 23  1  0
 26 25  2  0
 27 28  1  0
 29 25  1  0
M  END
$$$$
