NNY.pdb
     RDKit          3D

 29 29  0  0  1  0  0  0  0  0999 V2000
   15.1438  -15.0074  -16.2964 N   0  0  0  0  0  0  0  0  0  0  0  0
   16.2680  -14.4428  -16.9250 C   0  0  0  0  0  0  0  0  0  0  0  0
   17.1956  -15.1777  -17.3125 O   0  0  0  0  0  0  0  0  0  0  0  0
   16.3572  -12.9894  -17.1287 C   0  0  0  0  0  0  0  0  0  0  0  0
   17.7381  -12.5348  -16.8008 C   0  0  2  0  0  0  0  0  0  0  0  0
   18.0754  -12.9846  -15.4813 N   0  0  0  0  0  0  0  0  0  0  0  0
   17.9658  -11.1001  -17.0075 C   0  0  0  0  0  0  0  0  0  0  0  0
   17.2786  -10.4817  -17.8592 O   0  0  0  0  0  0  0  0  0  0  0  0
   17.4107   -5.7391  -15.8066 N   0  0  0  0  0  0  0  0  0  0  0  0
   18.1905   -6.6586  -16.5664 C   0  0  0  0  0  0  0  0  0  0  0  0
   19.0725   -6.2625  -17.3645 O   0  0  0  0  0  0  0  0  0  0  0  0
   17.9357   -8.0925  -16.3919 C   0  0  0  0  0  0  0  0  0  0  0  0
   19.1729   -8.9449  -16.5095 C   0  0  2  0  0  0  0  0  0  0  0  0
   18.9467  -10.3344  -16.2832 N   0  0  0  0  0  0  0  0  0  0  0  0
   20.2090   -8.4445  -15.5773 C   0  0  0  0  0  0  0  0  0  0  0  0
   19.9117   -8.3303  -14.3640 O   0  0  0  0  0  0  0  0  0  0  0  0
   26.5413  -11.9304  -17.3236 O   0  0  0  0  0  0  0  0  0  0  0  0
   25.6785  -11.1431  -16.5665 C   0  0  0  0  0  0  0  0  0  0  0  0
   24.3246  -11.2889  -16.7485 C   0  0  0  0  0  0  0  0  0  0  0  0
   23.4827  -10.4930  -15.9822 C   0  0  0  0  0  0  0  0  0  0  0  0
   23.9797   -9.5854  -15.0682 C   0  0  0  0  0  0  0  0  0  0  0  0
   23.0471   -8.7691  -14.2917 C   0  0  0  0  0  0  0  0  0  0  0  0
   22.4956   -7.5768  -15.0442 C   0  0  2  0  0  0  0  0  0  0  0  0
   21.5219   -8.0846  -15.9704 N   0  0  0  0  0  0  0  0  0  0  0  0
   23.5293   -6.8659  -15.8296 C   0  0  0  0  0  0  0  0  0  0  0  0
   23.5767   -6.9137  -17.0946 O   0  0  0  0  0  0  0  0  0  0  0  0
   25.3491   -9.4622  -14.9086 C   0  0  0  0  0  0  0  0  0  0  0  0
   26.2094  -10.2451  -15.6613 C   0  0  0  0  0  0  0  0  0  0  0  0
   24.5018   -6.1072  -15.2075 O   0  0  0  0  0  0  0  0  0  0  0  0
  2  3  2  0
  2  1  1  0
  4  2  1  0
  5  4  1  0
  5  6  1  1
  7  8  2  0
  7  5  1  0
 10  9  1  0
 10 12  1  0
 11 10  2  0
 13 12  1  1
 13 14  1  0
 14  7  1  0
 15 13  1  0
 16 15  2  0
 18 17  1  0
 18 28  2  0
 19 18  1  0
 20 19  2  0
 20 21  1  0
 21 27  2  0
 22 21  1  0
 23 22  1  6
 23 24  1  0
 24 15  1  0
 25 23  1  0
 26 25  2  0
 27 28  1  0
 29 25  1  0
M  END
$$$$
