NNY.pdb
     RDKit          3D

 29 29  0  0  1  0  0  0  0  0999 V2000
   13.6459   -9.3791  -16.3220 N   0  0  0  0  0  0  0  0  0  0  0  0
   14.9782   -9.3019  -16.7657 C   0  0  0  0  0  0  0  0  0  0  0  0
   15.2194   -9.1111  -17.9723 O   0  0  0  0  0  0  0  0  0  0  0  0
   16.0905   -9.4451  -15.8148 C   0  0  0  0  0  0  0  0  0  0  0  0
   17.2124  -10.1649  -16.4814 C   0  0  2  0  0  0  0  0  0  0  0  0
   16.8996  -11.5634  -16.5389 N   0  0  0  0  0  0  0  0  0  0  0  0
   18.5342   -9.8826  -15.9102 C   0  0  0  0  0  0  0  0  0  0  0  0
   19.1910  -10.8152  -15.3819 O   0  0  0  0  0  0  0  0  0  0  0  0
   22.9554   -8.0177  -14.3158 N   0  0  0  0  0  0  0  0  0  0  0  0
   22.8457   -8.9751  -15.3655 C   0  0  0  0  0  0  0  0  0  0  0  0
   23.8409   -9.6272  -15.7607 O   0  0  0  0  0  0  0  0  0  0  0  0
   21.5297   -9.1826  -15.9792 C   0  0  0  0  0  0  0  0  0  0  0  0
   20.4433   -8.3243  -15.3840 C   0  0  2  0  0  0  0  0  0  0  0  0
   19.1442   -8.5784  -15.9139 N   0  0  0  0  0  0  0  0  0  0  0  0
   20.7890   -6.8953  -15.5607 C   0  0  0  0  0  0  0  0  0  0  0  0
   21.0072   -6.4758  -16.7225 O   0  0  0  0  0  0  0  0  0  0  0  0
   15.6514   -3.1474  -17.7119 O   0  0  0  0  0  0  0  0  0  0  0  0
   16.7109   -3.3163  -16.8249 C   0  0  0  0  0  0  0  0  0  0  0  0
   16.6438   -4.3359  -15.9067 C   0  0  0  0  0  0  0  0  0  0  0  0
   17.7123   -4.4856  -15.0318 C   0  0  0  0  0  0  0  0  0  0  0  0
   18.8064   -3.6447  -15.0762 C   0  0  0  0  0  0  0  0  0  0  0  0
   19.9011   -3.8450  -14.1272 C   0  0  0  0  0  0  0  0  0  0  0  0
   21.1004   -4.5617  -14.7102 C   0  0  2  0  0  0  0  0  0  0  0  0
   20.8895   -5.9664  -14.4953 N   0  0  0  0  0  0  0  0  0  0  0  0
   22.3690   -4.1943  -14.0420 C   0  0  0  0  0  0  0  0  0  0  0  0
   23.0448   -5.0214  -13.3610 O   0  0  0  0  0  0  0  0  0  0  0  0
   18.8435   -2.6267  -16.0133 C   0  0  0  0  0  0  0  0  0  0  0  0
   17.7899   -2.4571  -16.8969 C   0  0  0  0  0  0  0  0  0  0  0  0
   22.8791   -2.9138  -14.1343 O   0  0  0  0  0  0  0  0  0  0  0  0
  2  3  2  0
  2  1  1  0
  4  2  1  0
  5  4  1  0
  5  6  1  1
  7  8  2  0
  7  5  1  0
 10  9  1  0
 10 12  1  0
 11 10  2  0
 13 12  1  6
 13 14  1  0
 14  7  1  0
 15 13  1  0
 16 15  2  0
 18 17  1  0
 18 28  2  0
 19 18  1  0
 20 19  2  0
 20 21  1  0
 21 27  2  0
 22 21  1  0
 23 22  1  1
 23 24  1  0
 24 15  1  0
 25 23  1  0
 26 25  2  0
 27 28  1  0
 29 25  1  0
M  END
$$$$
