NNY.pdb
     RDKit          3D

 29 29  0  0  1  0  0  0  0  0999 V2000
   25.3955  -12.2253  -19.3677 N   0  0  0  0  0  0  0  0  0  0  0  0
   24.7626  -11.3883  -20.3040 C   0  0  0  0  0  0  0  0  0  0  0  0
   25.2287  -11.2807  -21.4537 O   0  0  0  0  0  0  0  0  0  0  0  0
   23.5528  -10.6381  -19.9358 C   0  0  0  0  0  0  0  0  0  0  0  0
   23.1917  -10.9568  -18.5254 C   0  0  2  0  0  0  0  0  0  0  0  0
   22.9082  -12.3590  -18.4228 N   0  0  0  0  0  0  0  0  0  0  0  0
   22.1382  -10.1030  -17.9648 C   0  0  0  0  0  0  0  0  0  0  0  0
   21.5563   -9.2718  -18.7070 O   0  0  0  0  0  0  0  0  0  0  0  0
   18.4820   -7.9513  -15.1388 N   0  0  0  0  0  0  0  0  0  0  0  0
   18.4084   -9.3649  -14.9754 C   0  0  0  0  0  0  0  0  0  0  0  0
   17.4339   -9.9057  -14.4012 O   0  0  0  0  0  0  0  0  0  0  0  0
   19.5090  -10.1811  -15.4990 C   0  0  0  0  0  0  0  0  0  0  0  0
   20.6417   -9.3704  -16.0744 C   0  0  2  0  0  0  0  0  0  0  0  0
   21.7159  -10.1540  -16.5893 N   0  0  0  0  0  0  0  0  0  0  0  0
   21.1496   -8.4315  -15.0481 C   0  0  0  0  0  0  0  0  0  0  0  0
   22.1579   -8.7677  -14.3820 O   0  0  0  0  0  0  0  0  0  0  0  0
   22.5931   -1.9648  -18.2829 O   0  0  0  0  0  0  0  0  0  0  0  0
   22.5718   -2.9371  -17.2869 C   0  0  0  0  0  0  0  0  0  0  0  0
   22.7642   -4.2494  -17.6447 C   0  0  0  0  0  0  0  0  0  0  0  0
   22.7390   -5.2023  -16.6343 C   0  0  0  0  0  0  0  0  0  0  0  0
   22.5287   -4.8524  -15.3154 C   0  0  0  0  0  0  0  0  0  0  0  0
   22.5068   -5.8980  -14.2930 C   0  0  0  0  0  0  0  0  0  0  0  0
   21.1188   -6.2578  -13.8073 C   0  0  2  0  0  0  0  0  0  0  0  0
   20.5661   -7.1708  -14.7689 N   0  0  0  0  0  0  0  0  0  0  0  0
   20.2155   -5.0876  -13.7336 C   0  0  0  0  0  0  0  0  0  0  0  0
   19.2085   -4.9554  -14.4906 O   0  0  0  0  0  0  0  0  0  0  0  0
   22.3379   -3.5212  -14.9877 C   0  0  0  0  0  0  0  0  0  0  0  0
   22.3588   -2.5522  -15.9777 C   0  0  0  0  0  0  0  0  0  0  0  0
   20.4346   -4.0736  -12.8214 O   0  0  0  0  0  0  0  0  0  0  0  0
  2  3  2  0
  2  1  1  0
  4  2  1  0
  5  4  1  0
  5  6  1  6
  7  8  2  0
  7  5  1  0
 10  9  1  0
 10 12  1  0
 11 10  2  0
 13 12  1  1
 13 14  1  0
 14  7  1  0
 15 13  1  0
 16 15  2  0
 18 17  1  0
 18 28  2  0
 19 18  1  0
 20 19  2  0
 20 21  1  0
 21 27  2  0
 22 21  1  0
 23 22  1  6
 23 24  1  0
 24 15  1  0
 25 23  1  0
 26 25  2  0
 27 28  1  0
 29 25  1  0
M  END
$$$$
