NNY.pdb
     RDKit          3D

 29 29  0  0  1  0  0  0  0  0999 V2000
   15.7546  -15.3780  -14.5669 N   0  0  0  0  0  0  0  0  0  0  0  0
   16.8702  -15.3821  -15.4230 C   0  0  0  0  0  0  0  0  0  0  0  0
   17.4938  -16.4412  -15.6233 O   0  0  0  0  0  0  0  0  0  0  0  0
   17.3071  -14.1438  -16.0847 C   0  0  0  0  0  0  0  0  0  0  0  0
   16.3954  -13.0326  -15.6908 C   0  0  2  0  0  0  0  0  0  0  0  0
   15.0676  -13.3387  -16.1384 N   0  0  0  0  0  0  0  0  0  0  0  0
   16.8583  -11.7004  -16.0958 C   0  0  0  0  0  0  0  0  0  0  0  0
   16.2599  -11.0926  -17.0192 O   0  0  0  0  0  0  0  0  0  0  0  0
   17.2918   -6.6126  -17.0141 N   0  0  0  0  0  0  0  0  0  0  0  0
   17.6504   -7.2945  -15.8154 C   0  0  0  0  0  0  0  0  0  0  0  0
   18.3125   -6.7269  -14.9147 O   0  0  0  0  0  0  0  0  0  0  0  0
   17.2234   -8.6889  -15.6574 C   0  0  0  0  0  0  0  0  0  0  0  0
   18.3439   -9.6851  -15.8101 C   0  0  2  0  0  0  0  0  0  0  0  0
   17.9783  -11.0261  -15.4925 N   0  0  0  0  0  0  0  0  0  0  0  0
   19.4953   -9.2661  -14.9786 C   0  0  0  0  0  0  0  0  0  0  0  0
   19.6328   -9.7893  -13.8469 O   0  0  0  0  0  0  0  0  0  0  0  0
   27.7555  -10.8423  -15.8199 O   0  0  0  0  0  0  0  0  0  0  0  0
   26.3921  -10.5634  -15.8529 C   0  0  0  0  0  0  0  0  0  0  0  0
   25.6012  -11.0262  -14.8294 C   0  0  0  0  0  0  0  0  0  0  0  0
   24.2438  -10.7360  -14.8832 C   0  0  0  0  0  0  0  0  0  0  0  0
   23.7005  -10.0093  -15.9238 C   0  0  0  0  0  0  0  0  0  0  0  0
   22.2634   -9.7374  -15.9322 C   0  0  0  0  0  0  0  0  0  0  0  0
   21.8667   -8.4887  -15.1737 C   0  0  2  0  0  0  0  0  0  0  0  0
   20.4570   -8.3067  -15.3820 N   0  0  0  0  0  0  0  0  0  0  0  0
   22.5510   -7.2739  -15.6705 C   0  0  0  0  0  0  0  0  0  0  0  0
   22.1036   -6.5866  -16.6360 O   0  0  0  0  0  0  0  0  0  0  0  0
   24.5244   -9.5573  -16.9400 C   0  0  0  0  0  0  0  0  0  0  0  0
   25.8817   -9.8340  -16.9088 C   0  0  0  0  0  0  0  0  0  0  0  0
   23.7249   -6.8299  -15.0934 O   0  0  0  0  0  0  0  0  0  0  0  0
  2  3  2  0
  2  1  1  0
  4  2  1  0
  5  4  1  0
  5  6  1  6
  7  8  2  0
  7  5  1  0
 10  9  1  0
 10 12  1  0
 11 10  2  0
 13 12  1  1
 13 14  1  0
 14  7  1  0
 15 13  1  0
 16 15  2  0
 18 17  1  0
 18 28  2  0
 19 18  1  0
 20 19  2  0
 20 21  1  0
 21 27  2  0
 22 21  1  0
 23 22  1  6
 23 24  1  0
 24 15  1  0
 25 23  1  0
 26 25  2  0
 27 28  1  0
 29 25  1  0
M  END
$$$$
