NNY.pdb
     RDKit          3D

 29 29  0  0  1  0  0  0  0  0999 V2000
   30.4249  -23.4956  -18.5277 N   0  0  0  0  0  0  0  0  0  0  0  0
   30.4712  -22.1419  -18.9061 C   0  0  0  0  0  0  0  0  0  0  0  0
   31.4797  -21.6939  -19.4830 O   0  0  0  0  0  0  0  0  0  0  0  0
   29.3366  -21.2497  -18.6256 C   0  0  0  0  0  0  0  0  0  0  0  0
   28.3020  -22.0023  -17.8611 C   0  0  2  0  0  0  0  0  0  0  0  0
   27.8302  -23.0924  -18.6649 N   0  0  0  0  0  0  0  0  0  0  0  0
   27.2259  -21.1655  -17.3180 C   0  0  0  0  0  0  0  0  0  0  0  0
   27.5013  -20.2758  -16.4737 O   0  0  0  0  0  0  0  0  0  0  0  0
   23.0027  -18.5242  -16.4658 N   0  0  0  0  0  0  0  0  0  0  0  0
   22.7056  -19.2371  -17.6633 C   0  0  0  0  0  0  0  0  0  0  0  0
   21.6859  -18.9740  -18.3435 O   0  0  0  0  0  0  0  0  0  0  0  0
   23.6286  -20.2958  -18.0864 C   0  0  0  0  0  0  0  0  0  0  0  0
   24.8078  -20.4732  -17.1649 C   0  0  2  0  0  0  0  0  0  0  0  0
   25.8429  -21.2978  -17.6957 N   0  0  0  0  0  0  0  0  0  0  0  0
   24.3449  -21.0176  -15.8679 C   0  0  0  0  0  0  0  0  0  0  0  0
   23.8638  -22.1758  -15.8472 O   0  0  0  0  0  0  0  0  0  0  0  0
   22.7062  -21.3227   -7.1559 O   0  0  0  0  0  0  0  0  0  0  0  0
   23.1590  -21.0067   -8.4337 C   0  0  0  0  0  0  0  0  0  0  0  0
   24.4720  -21.2611   -8.7478 C   0  0  0  0  0  0  0  0  0  0  0  0
   24.9017  -20.9377  -10.0286 C   0  0  0  0  0  0  0  0  0  0  0  0
   24.0472  -20.3804  -10.9587 C   0  0  0  0  0  0  0  0  0  0  0  0
   24.5548  -20.0548  -12.2912 C   0  0  0  0  0  0  0  0  0  0  0  0
   23.9135  -20.8509  -13.4079 C   0  0  2  0  0  0  0  0  0  0  0  0
   24.4110  -20.3097  -14.6422 N   0  0  0  0  0  0  0  0  0  0  0  0
   22.4389  -20.7253  -13.4285 C   0  0  0  0  0  0  0  0  0  0  0  0
   21.8487  -19.6998  -13.8809 O   0  0  0  0  0  0  0  0  0  0  0  0
   22.7299  -20.1361  -10.6109 C   0  0  0  0  0  0  0  0  0  0  0  0
   22.2775  -20.4501   -9.3396 C   0  0  0  0  0  0  0  0  0  0  0  0
   21.6300  -21.7370  -12.9484 O   0  0  0  0  0  0  0  0  0  0  0  0
  2  3  2  0
  2  1  1  0
  4  2  1  0
  5  4  1  0
  5  6  1  6
  7  8  2  0
  7  5  1  0
 10  9  1  0
 10 12  1  0
 11 10  2  0
 13 12  1  6
 13 14  1  0
 14  7  1  0
 15 13  1  0
 16 15  2  0
 18 17  1  0
 18 28  2  0
 19 18  1  0
 20 19  2  0
 20 21  1  0
 21 27  2  0
 22 21  1  0
 23 22  1  1
 23 24  1  0
 24 15  1  0
 25 23  1  0
 26 25  2  0
 27 28  1  0
 29 25  1  0
M  END
$$$$
