NNY.pdb
     RDKit          3D

 29 29  0  0  1  0  0  0  0  0999 V2000
   18.0740  -17.1783  -15.6942 N   0  0  0  0  0  0  0  0  0  0  0  0
   18.2611  -16.8252  -17.0426 C   0  0  0  0  0  0  0  0  0  0  0  0
   18.2435  -17.7066  -17.9221 O   0  0  0  0  0  0  0  0  0  0  0  0
   18.4776  -15.4215  -17.4230 C   0  0  0  0  0  0  0  0  0  0  0  0
   18.4506  -14.5744  -16.1971 C   0  0  2  0  0  0  0  0  0  0  0  0
   17.2392  -14.8375  -15.4758 N   0  0  0  0  0  0  0  0  0  0  0  0
   18.6876  -13.1476  -16.4446 C   0  0  0  0  0  0  0  0  0  0  0  0
   19.8374  -12.7601  -16.7731 O   0  0  0  0  0  0  0  0  0  0  0  0
   15.0410  -10.9095  -18.8075 N   0  0  0  0  0  0  0  0  0  0  0  0
   16.3580  -10.4292  -18.5517 C   0  0  0  0  0  0  0  0  0  0  0  0
   17.2093  -10.3394  -19.4676 O   0  0  0  0  0  0  0  0  0  0  0  0
   16.6984  -10.0384  -17.1795 C   0  0  0  0  0  0  0  0  0  0  0  0
   17.8994  -10.7610  -16.6257 C   0  0  2  0  0  0  0  0  0  0  0  0
   17.6677  -12.1374  -16.3340 N   0  0  0  0  0  0  0  0  0  0  0  0
   18.3808  -10.0627  -15.4118 C   0  0  0  0  0  0  0  0  0  0  0  0
   17.8455  -10.3437  -14.3128 O   0  0  0  0  0  0  0  0  0  0  0  0
   23.0165   -2.9678  -15.1182 O   0  0  0  0  0  0  0  0  0  0  0  0
   22.6008   -4.2824  -14.9266 C   0  0  0  0  0  0  0  0  0  0  0  0
   22.1116   -4.6446  -13.6951 C   0  0  0  0  0  0  0  0  0  0  0  0
   21.7026   -5.9615  -13.5269 C   0  0  0  0  0  0  0  0  0  0  0  0
   21.7814   -6.8800  -14.5546 C   0  0  0  0  0  0  0  0  0  0  0  0
   21.3415   -8.2549  -14.3200 C   0  0  0  0  0  0  0  0  0  0  0  0
   19.8393   -8.4141  -14.2198 C   0  0  2  0  0  0  0  0  0  0  0  0
   19.4132   -9.0921  -15.4126 N   0  0  0  0  0  0  0  0  0  0  0  0
   19.1273   -7.1176  -14.1658 C   0  0  0  0  0  0  0  0  0  0  0  0
   18.9590   -6.4771  -13.0860 O   0  0  0  0  0  0  0  0  0  0  0  0
   22.2793   -6.4834  -15.7838 C   0  0  0  0  0  0  0  0  0  0  0  0
   22.6935   -5.1754  -15.9762 C   0  0  0  0  0  0  0  0  0  0  0  0
   18.6079   -6.5408  -15.3086 O   0  0  0  0  0  0  0  0  0  0  0  0
  2  3  2  0
  2  1  1  0
  4  2  1  0
  5  4  1  0
  5  6  1  6
  7  8  2  0
  7  5  1  0
 10  9  1  0
 10 12  1  0
 11 10  2  0
 13 12  1  1
 13 14  1  0
 14  7  1  0
 15 13  1  0
 16 15  2  0
 18 17  1  0
 18 28  2  0
 19 18  1  0
 20 19  2  0
 20 21  1  0
 21 27  2  0
 22 21  1  0
 23 22  1  6
 23 24  1  0
 24 15  1  0
 25 23  1  0
 26 25  2  0
 27 28  1  0
 29 25  1  0
M  END
$$$$
