NNY.pdb
     RDKit          3D

 29 29  0  0  1  0  0  0  0  0999 V2000
   15.4723  -11.5748  -15.5723 N   0  0  0  0  0  0  0  0  0  0  0  0
   16.3972  -10.7538  -14.9027 C   0  0  0  0  0  0  0  0  0  0  0  0
   17.5771  -11.1295  -14.7703 O   0  0  0  0  0  0  0  0  0  0  0  0
   15.9817   -9.4534  -14.3566 C   0  0  0  0  0  0  0  0  0  0  0  0
   16.4323   -9.3530  -12.9396 C   0  0  2  0  0  0  0  0  0  0  0  0
   15.8526  -10.4292  -12.1893 N   0  0  0  0  0  0  0  0  0  0  0  0
   16.2217   -8.0342  -12.3317 C   0  0  0  0  0  0  0  0  0  0  0  0
   15.3977   -7.2392  -12.8505 O   0  0  0  0  0  0  0  0  0  0  0  0
   14.1996   -6.9093   -9.5392 N   0  0  0  0  0  0  0  0  0  0  0  0
   15.2370   -6.7334   -8.5782 C   0  0  0  0  0  0  0  0  0  0  0  0
   15.0303   -6.9122   -7.3546 O   0  0  0  0  0  0  0  0  0  0  0  0
   16.5648   -6.3345   -9.0572 C   0  0  0  0  0  0  0  0  0  0  0  0
   16.6808   -6.3027  -10.5594 C   0  0  2  0  0  0  0  0  0  0  0  0
   16.9116   -7.5784  -11.1530 N   0  0  0  0  0  0  0  0  0  0  0  0
   17.7547   -5.3621  -10.9530 C   0  0  0  0  0  0  0  0  0  0  0  0
   17.6420   -4.1582  -10.6192 O   0  0  0  0  0  0  0  0  0  0  0  0
   21.9381   -9.9245  -15.2749 O   0  0  0  0  0  0  0  0  0  0  0  0
   21.7698   -8.8145  -14.4519 C   0  0  0  0  0  0  0  0  0  0  0  0
   21.3266   -9.0101  -13.1664 C   0  0  0  0  0  0  0  0  0  0  0  0
   21.1661   -7.8881  -12.3632 C   0  0  0  0  0  0  0  0  0  0  0  0
   21.4396   -6.6185  -12.8315 C   0  0  0  0  0  0  0  0  0  0  0  0
   21.2477   -5.4722  -11.9437 C   0  0  0  0  0  0  0  0  0  0  0  0
   19.9055   -4.7892  -12.0983 C   0  0  2  0  0  0  0  0  0  0  0  0
   18.9075   -5.7371  -11.6865 N   0  0  0  0  0  0  0  0  0  0  0  0
   19.6112   -4.4127  -13.4992 C   0  0  0  0  0  0  0  0  0  0  0  0
   18.6862   -4.9579  -14.1713 O   0  0  0  0  0  0  0  0  0  0  0  0
   21.8845   -6.4551  -14.1320 C   0  0  0  0  0  0  0  0  0  0  0  0
   22.0526   -7.5588  -14.9525 C   0  0  0  0  0  0  0  0  0  0  0  0
   20.3436   -3.4349  -14.1439 O   0  0  0  0  0  0  0  0  0  0  0  0
  2  3  2  0
  2  1  1  0
  4  2  1  0
  5  4  1  0
  5  6  1  1
  7  8  2  0
  7  5  1  0
 10  9  1  0
 10 12  1  0
 11 10  2  0
 13 12  1  1
 13 14  1  0
 14  7  1  0
 15 13  1  0
 16 15  2  0
 18 17  1  0
 18 28  2  0
 19 18  1  0
 20 19  2  0
 20 21  1  0
 21 27  2  0
 22 21  1  0
 23 22  1  6
 23 24  1  0
 24 15  1  0
 25 23  1  0
 26 25  2  0
 27 28  1  0
 29 25  1  0
M  END
$$$$
