NNY.pdb
     RDKit          3D

 29 29  0  0  1  0  0  0  0  0999 V2000
   22.9768  -16.0343  -19.0776 N   0  0  0  0  0  0  0  0  0  0  0  0
   21.9521  -15.1307  -19.4117 C   0  0  0  0  0  0  0  0  0  0  0  0
   20.8945  -15.5521  -19.9163 O   0  0  0  0  0  0  0  0  0  0  0  0
   22.1198  -13.6901  -19.1697 C   0  0  0  0  0  0  0  0  0  0  0  0
   23.4730  -13.4466  -18.5945 C   0  0  2  0  0  0  0  0  0  0  0  0
   23.5835  -14.1508  -17.3499 N   0  0  0  0  0  0  0  0  0  0  0  0
   23.8426  -12.0296  -18.5013 C   0  0  0  0  0  0  0  0  0  0  0  0
   24.3783  -11.4646  -19.4882 O   0  0  0  0  0  0  0  0  0  0  0  0
   24.6148   -7.1803  -17.0347 N   0  0  0  0  0  0  0  0  0  0  0  0
   23.6991   -7.6790  -16.0634 C   0  0  0  0  0  0  0  0  0  0  0  0
   23.2152   -6.9334  -15.1793 O   0  0  0  0  0  0  0  0  0  0  0  0
   23.3318   -9.0979  -16.1219 C   0  0  0  0  0  0  0  0  0  0  0  0
   23.9916   -9.8469  -17.2510 C   0  0  2  0  0  0  0  0  0  0  0  0
   23.6280  -11.2234  -17.3279 N   0  0  0  0  0  0  0  0  0  0  0  0
   25.4625   -9.7198  -17.1363 C   0  0  0  0  0  0  0  0  0  0  0  0
   25.9893   -9.9054  -16.0131 O   0  0  0  0  0  0  0  0  0  0  0  0
   33.4920  -12.2616  -18.0654 O   0  0  0  0  0  0  0  0  0  0  0  0
   32.1495  -11.9110  -17.9542 C   0  0  0  0  0  0  0  0  0  0  0  0
   31.2052  -12.7389  -18.5109 C   0  0  0  0  0  0  0  0  0  0  0  0
   29.8719  -12.3692  -18.3877 C   0  0  0  0  0  0  0  0  0  0  0  0
   29.4999  -11.2131  -17.7311 C   0  0  0  0  0  0  0  0  0  0  0  0
   28.0814  -10.8698  -17.6358 C   0  0  0  0  0  0  0  0  0  0  0  0
   27.7490   -9.4764  -18.1255 C   0  0  2  0  0  0  0  0  0  0  0  0
   26.3175   -9.4001  -18.2201 N   0  0  0  0  0  0  0  0  0  0  0  0
   28.3000   -9.1941  -19.4699 C   0  0  0  0  0  0  0  0  0  0  0  0
   27.7588   -9.6229  -20.5319 O   0  0  0  0  0  0  0  0  0  0  0  0
   30.4757  -10.3999  -17.1810 C   0  0  0  0  0  0  0  0  0  0  0  0
   31.8125  -10.7474  -17.2908 C   0  0  0  0  0  0  0  0  0  0  0  0
   29.4456   -8.4384  -19.6271 O   0  0  0  0  0  0  0  0  0  0  0  0
  2  3  2  0
  2  1  1  0
  4  2  1  0
  5  4  1  0
  5  6  1  1
  7  8  2  0
  7  5  1  0
 10  9  1  0
 10 12  1  0
 11 10  2  0
 13 12  1  1
 13 14  1  0
 14  7  1  0
 15 13  1  0
 16 15  2  0
 18 17  1  0
 18 28  2  0
 19 18  1  0
 20 19  2  0
 20 21  1  0
 21 27  2  0
 22 21  1  0
 23 22  1  6
 23 24  1  0
 24 15  1  0
 25 23  1  0
 26 25  2  0
 27 28  1  0
 29 25  1  0
M  END
$$$$
