NNY.pdb
     RDKit          3D

 29 29  0  0  1  0  0  0  0  0999 V2000
   25.2669  -34.1110  -10.3836 N   0  0  0  0  0  0  0  0  0  0  0  0
   23.9137  -34.0836  -10.7660 C   0  0  0  0  0  0  0  0  0  0  0  0
   23.4832  -34.9203  -11.5817 O   0  0  0  0  0  0  0  0  0  0  0  0
   23.0017  -33.0734  -10.2095 C   0  0  0  0  0  0  0  0  0  0  0  0
   22.3657  -32.3216  -11.3282 C   0  0  2  0  0  0  0  0  0  0  0  0
   23.3921  -31.7060  -12.1184 N   0  0  0  0  0  0  0  0  0  0  0  0
   21.3121  -31.3910  -10.9073 C   0  0  0  0  0  0  0  0  0  0  0  0
   20.2620  -31.8423  -10.3840 O   0  0  0  0  0  0  0  0  0  0  0  0
   19.4146  -25.8083  -10.5977 N   0  0  0  0  0  0  0  0  0  0  0  0
   19.8432  -26.8201   -9.6906 C   0  0  0  0  0  0  0  0  0  0  0  0
   19.3366  -26.9304   -8.5491 O   0  0  0  0  0  0  0  0  0  0  0  0
   20.9006  -27.7386  -10.1265 C   0  0  0  0  0  0  0  0  0  0  0  0
   20.3835  -29.0667  -10.6162 C   0  0  2  0  0  0  0  0  0  0  0  0
   21.4021  -29.9619  -11.0567 N   0  0  0  0  0  0  0  0  0  0  0  0
   19.4024  -28.8454  -11.7031 C   0  0  0  0  0  0  0  0  0  0  0  0
   18.3519  -28.2141  -11.4361 O   0  0  0  0  0  0  0  0  0  0  0  0
   19.6089  -22.7410  -14.2207 O   0  0  0  0  0  0  0  0  0  0  0  0
   19.5342  -24.1120  -14.4496 C   0  0  0  0  0  0  0  0  0  0  0  0
   20.7023  -24.8318  -14.5189 C   0  0  0  0  0  0  0  0  0  0  0  0
   20.6036  -26.1983  -14.7479 C   0  0  0  0  0  0  0  0  0  0  0  0
   19.3801  -26.8192  -14.9017 C   0  0  0  0  0  0  0  0  0  0  0  0
   19.3355  -28.2605  -15.1462 C   0  0  0  0  0  0  0  0  0  0  0  0
   18.6163  -29.0472  -14.0711 C   0  0  2  0  0  0  0  0  0  0  0  0
   19.5754  -29.3038  -13.0327 N   0  0  0  0  0  0  0  0  0  0  0  0
   18.1203  -30.3560  -14.5526 C   0  0  0  0  0  0  0  0  0  0  0  0
   17.3142  -30.4637  -15.5238 O   0  0  0  0  0  0  0  0  0  0  0  0
   18.2214  -26.0657  -14.8266 C   0  0  0  0  0  0  0  0  0  0  0  0
   18.2939  -24.7009  -14.5988 C   0  0  0  0  0  0  0  0  0  0  0  0
   18.5218  -31.5349  -13.9549 O   0  0  0  0  0  0  0  0  0  0  0  0
  2  3  2  0
  2  1  1  0
  4  2  1  0
  5  4  1  0
  5  6  1  1
  7  8  2  0
  7  5  1  0
 10  9  1  0
 10 12  1  0
 11 10  2  0
 13 12  1  6
 13 14  1  0
 14  7  1  0
 15 13  1  0
 16 15  2  0
 18 17  1  0
 18 28  2  0
 19 18  1  0
 20 19  2  0
 20 21  1  0
 21 27  2  0
 22 21  1  0
 23 22  1  6
 23 24  1  0
 24 15  1  0
 25 23  1  0
 26 25  2  0
 27 28  1  0
 29 25  1  0
M  END
$$$$
