HWM.pdb
     RDKit          3D

 33 35  0  0  1  0  0  0  0  0999 V2000
   27.9218  -19.2975  -16.5133 N   0  0  0  0  0  0  0  0  0  0  0  0
   27.3176  -19.0113  -15.2413 C   0  0  1  0  0  0  0  0  0  0  0  0
   26.3936  -17.8385  -15.3455 C   0  0  0  0  0  0  0  0  0  0  0  0
   27.0690  -16.6031  -15.8369 C   0  0  0  0  0  0  0  0  0  0  0  0
   28.4260  -16.5451  -16.1281 C   0  0  0  0  0  0  0  0  0  0  0  0
   28.6678  -15.2852  -16.5383 N   0  0  0  0  0  0  0  0  0  0  0  0
   27.5184  -14.5854  -16.5063 C   0  0  0  0  0  0  0  0  0  0  0  0
   26.5396  -15.3960  -16.0759 N   0  0  0  0  0  0  0  0  0  0  0  0
   26.6606  -20.2030  -14.6464 C   0  0  0  0  0  0  0  0  0  0  0  0
   25.9817  -20.9566  -15.3879 O   0  0  0  0  0  0  0  0  0  0  0  0
   26.7924  -20.4889  -13.2678 N   0  0  0  0  0  0  0  0  0  0  0  0
   26.1397  -21.6786  -12.7081 C   0  0  1  0  0  0  0  0  0  0  0  0
   26.9304  -22.1060  -11.5251 C   0  0  0  0  0  0  0  0  0  0  0  0
   26.6973  -21.2954  -10.3204 C   0  0  0  0  0  0  0  0  0  0  0  0
   25.4844  -20.6363  -10.0530 C   0  0  0  0  0  0  0  0  0  0  0  0
   25.5715  -20.0164   -8.8708 N   0  0  0  0  0  0  0  0  0  0  0  0
   26.7841  -20.2189   -8.3183 C   0  0  0  0  0  0  0  0  0  0  0  0
   27.3384  -19.7831   -7.1332 C   0  0  0  0  0  0  0  0  0  0  0  0
   28.6301  -20.1505   -6.8410 C   0  0  0  0  0  0  0  0  0  0  0  0
   29.3149  -20.9334   -7.7369 C   0  0  0  0  0  0  0  0  0  0  0  0
   28.7728  -21.3695   -8.9129 C   0  0  0  0  0  0  0  0  0  0  0  0
   27.4732  -21.0140   -9.2290 C   0  0  0  0  0  0  0  0  0  0  0  0
   24.7011  -21.4550  -12.4922 C   0  0  0  0  0  0  0  0  0  0  0  0
   24.2788  -20.2903  -12.2982 O   0  0  0  0  0  0  0  0  0  0  0  0
   20.7410  -19.1358   -9.5509 C   0  0  0  0  0  0  0  0  0  0  0  0
   20.1983  -19.0296  -11.2679 S   0  0  0  0  0  0  0  0  0  0  0  0
   20.5958  -20.5658  -12.1758 C   0  0  0  0  0  0  0  0  0  0  0  0
   22.0185  -20.9730  -11.9492 C   0  0  0  0  0  0  0  0  0  0  0  0
   22.3203  -22.2774  -12.5995 C   0  0  2  0  0  0  0  0  0  0  0  0
   23.7825  -22.5131  -12.4967 N   0  0  0  0  0  0  0  0  0  0  0  0
   22.0116  -22.2379  -14.0384 C   0  0  0  0  0  0  0  0  0  0  0  0
   22.8776  -22.1861  -14.9219 O   0  0  0  0  0  0  0  0  0  0  0  0
   20.6828  -22.2586  -14.4610 O   0  0  0  0  0  0  0  0  0  0  0  0
  2  1  1  6
  2  3  1  0
  3  4  1  0
  4  8  1  0
  5  4  2  0
  5  6  1  0
  6  7  1  0
  8  7  2  0
  9  2  1  0
  9 10  2  0
 11  9  1  0
 12 13  1  1
 12 11  1  0
 13 14  1  0
 14 15  2  0
 14 22  1  0
 15 16  1  0
 16 17  1  0
 17 18  2  0
 18 19  1  0
 20 19  2  0
 21 20  1  0
 22 21  2  0
 22 17  1  0
 23 12  1  0
 24 23  2  0
 25 26  1  0
 26 27  1  0
 27 28  1  0
 29 28  1  6
 29 30  1  0
 30 23  1  0
 31 29  1  0
 31 33  1  0
 32 31  2  0
M  END
$$$$
