HWM.pdb
     RDKit          3D

 33 35  0  0  1  0  0  0  0  0999 V2000
   28.1069  -21.4918  -15.2695 N   0  0  0  0  0  0  0  0  0  0  0  0
   27.8920  -20.4256  -14.3304 C   0  0  1  0  0  0  0  0  0  0  0  0
   27.2146  -19.2660  -14.9911 C   0  0  0  0  0  0  0  0  0  0  0  0
   28.0314  -18.6524  -16.0776 C   0  0  0  0  0  0  0  0  0  0  0  0
   29.1262  -17.8331  -15.8330 C   0  0  0  0  0  0  0  0  0  0  0  0
   29.6024  -17.4737  -17.0406 N   0  0  0  0  0  0  0  0  0  0  0  0
   28.8436  -18.0397  -17.9975 C   0  0  0  0  0  0  0  0  0  0  0  0
   27.8809  -18.7620  -17.4041 N   0  0  0  0  0  0  0  0  0  0  0  0
   27.1790  -20.8820  -13.1101 C   0  0  0  0  0  0  0  0  0  0  0  0
   26.0189  -21.3511  -13.2234 O   0  0  0  0  0  0  0  0  0  0  0  0
   27.7905  -20.7908  -11.8383 N   0  0  0  0  0  0  0  0  0  0  0  0
   26.9952  -21.0456  -10.6311 C   0  0  1  0  0  0  0  0  0  0  0  0
   27.8591  -20.7534   -9.4582 C   0  0  0  0  0  0  0  0  0  0  0  0
   27.1369  -20.6940   -8.1786 C   0  0  0  0  0  0  0  0  0  0  0  0
   25.7986  -21.0971   -8.0249 C   0  0  0  0  0  0  0  0  0  0  0  0
   25.4410  -20.9572   -6.7435 N   0  0  0  0  0  0  0  0  0  0  0  0
   26.4685  -20.4778   -6.0149 C   0  0  0  0  0  0  0  0  0  0  0  0
   26.5789  -20.1653   -4.6764 C   0  0  0  0  0  0  0  0  0  0  0  0
   27.7767  -19.6729   -4.2161 C   0  0  0  0  0  0  0  0  0  0  0  0
   28.8116  -19.5120   -5.1035 C   0  0  0  0  0  0  0  0  0  0  0  0
   28.7103  -19.8196   -6.4311 C   0  0  0  0  0  0  0  0  0  0  0  0
   27.5149  -20.3183   -6.9183 C   0  0  0  0  0  0  0  0  0  0  0  0
   25.6980  -20.3525  -10.6820 C   0  0  0  0  0  0  0  0  0  0  0  0
   25.6653  -19.0991  -10.6590 O   0  0  0  0  0  0  0  0  0  0  0  0
   21.9526  -21.4962  -15.2194 C   0  0  0  0  0  0  0  0  0  0  0  0
   20.6101  -20.9689  -14.1360 S   0  0  0  0  0  0  0  0  0  0  0  0
   21.2579  -20.3776  -12.5320 C   0  0  0  0  0  0  0  0  0  0  0  0
   22.6417  -20.8934  -12.2864 C   0  0  0  0  0  0  0  0  0  0  0  0
   23.1982  -20.3687  -11.0095 C   0  0  2  0  0  0  0  0  0  0  0  0
   24.4889  -21.0570  -10.7553 N   0  0  0  0  0  0  0  0  0  0  0  0
   22.3248  -20.7021   -9.8723 C   0  0  0  0  0  0  0  0  0  0  0  0
   22.4485  -21.7308   -9.1944 O   0  0  0  0  0  0  0  0  0  0  0  0
   21.2942  -19.8336   -9.5145 O   0  0  0  0  0  0  0  0  0  0  0  0
  2  1  1  6
  2  3  1  0
  3  4  1  0
  4  8  1  0
  5  4  2  0
  5  6  1  0
  6  7  1  0
  8  7  2  0
  9  2  1  0
  9 10  2  0
 11  9  1  0
 12 13  1  1
 12 11  1  0
 13 14  1  0
 14 15  2  0
 14 22  1  0
 15 16  1  0
 16 17  1  0
 17 18  2  0
 18 19  1  0
 20 19  2  0
 21 20  1  0
 22 21  2  0
 22 17  1  0
 23 12  1  0
 24 23  2  0
 25 26  1  0
 26 27  1  0
 27 28  1  0
 29 28  1  6
 29 30  1  0
 30 23  1  0
 31 29  1  0
 31 33  1  0
 32 31  2  0
M  END
$$$$
