HWM.pdb
     RDKit          3D

 33 35  0  0  1  0  0  0  0  0999 V2000
   28.2084  -23.0704  -16.5881 N   0  0  0  0  0  0  0  0  0  0  0  0
   27.3727  -21.9080  -16.4639 C   0  0  1  0  0  0  0  0  0  0  0  0
   26.5542  -21.7092  -17.7011 C   0  0  0  0  0  0  0  0  0  0  0  0
   27.3768  -21.3771  -18.8999 C   0  0  0  0  0  0  0  0  0  0  0  0
   27.4089  -22.1689  -20.0408 C   0  0  0  0  0  0  0  0  0  0  0  0
   28.2502  -21.5582  -20.8972 N   0  0  0  0  0  0  0  0  0  0  0  0
   28.7238  -20.4371  -20.3223 C   0  0  0  0  0  0  0  0  0  0  0  0
   28.1865  -20.3284  -19.0975 N   0  0  0  0  0  0  0  0  0  0  0  0
   26.5445  -21.9359  -15.2314 C   0  0  0  0  0  0  0  0  0  0  0  0
   25.9786  -23.0087  -14.9034 O   0  0  0  0  0  0  0  0  0  0  0  0
   26.3906  -20.7763  -14.4369 N   0  0  0  0  0  0  0  0  0  0  0  0
   25.5551  -20.8288  -13.2312 C   0  0  1  0  0  0  0  0  0  0  0  0
   26.1102  -19.8499  -12.2611 C   0  0  0  0  0  0  0  0  0  0  0  0
   27.1553  -20.3983  -11.3838 C   0  0  0  0  0  0  0  0  0  0  0  0
   28.3951  -20.8658  -11.8545 C   0  0  0  0  0  0  0  0  0  0  0  0
   29.1378  -21.2657  -10.8163 N   0  0  0  0  0  0  0  0  0  0  0  0
   28.4662  -21.0952   -9.6603 C   0  0  0  0  0  0  0  0  0  0  0  0
   28.8069  -21.3640   -8.3513 C   0  0  0  0  0  0  0  0  0  0  0  0
   27.8888  -21.0880   -7.3665 C   0  0  0  0  0  0  0  0  0  0  0  0
   26.6738  -20.5582   -7.7233 C   0  0  0  0  0  0  0  0  0  0  0  0
   26.3287  -20.2888   -9.0177 C   0  0  0  0  0  0  0  0  0  0  0  0
   27.2366  -20.5566  -10.0271 C   0  0  0  0  0  0  0  0  0  0  0  0
   24.1262  -20.6944  -13.5572 C   0  0  0  0  0  0  0  0  0  0  0  0
   23.7466  -19.7559  -14.2972 O   0  0  0  0  0  0  0  0  0  0  0  0
   19.1257  -25.2548  -12.1576 C   0  0  0  0  0  0  0  0  0  0  0  0
   18.9633  -24.4690  -13.7731 S   0  0  0  0  0  0  0  0  0  0  0  0
   19.6818  -22.7880  -13.7580 C   0  0  0  0  0  0  0  0  0  0  0  0
   21.1429  -22.8292  -13.4343 C   0  0  0  0  0  0  0  0  0  0  0  0
   21.7300  -21.4620  -13.3983 C   0  0  2  0  0  0  0  0  0  0  0  0
   23.1701  -21.5906  -13.0610 N   0  0  0  0  0  0  0  0  0  0  0  0
   21.1283  -20.6532  -12.3255 C   0  0  0  0  0  0  0  0  0  0  0  0
   21.5652  -20.6205  -11.1674 O   0  0  0  0  0  0  0  0  0  0  0  0
   20.0056  -19.8715  -12.5961 O   0  0  0  0  0  0  0  0  0  0  0  0
  2  1  1  6
  2  3  1  0
  3  4  1  0
  4  8  1  0
  5  4  2  0
  5  6  1  0
  6  7  1  0
  8  7  2  0
  9  2  1  0
  9 10  2  0
 11  9  1  0
 12 13  1  1
 12 11  1  0
 13 14  1  0
 14 15  2  0
 14 22  1  0
 15 16  1  0
 16 17  1  0
 17 18  2  0
 18 19  1  0
 20 19  2  0
 21 20  1  0
 22 21  2  0
 22 17  1  0
 23 12  1  0
 24 23  2  0
 25 26  1  0
 26 27  1  0
 27 28  1  0
 29 28  1  1
 29 30  1  0
 30 23  1  0
 31 29  1  0
 31 33  1  0
 32 31  2  0
M  END
$$$$
