HWM.pdb
     RDKit          3D

 33 35  0  0  1  0  0  0  0  0999 V2000
   23.9694  -20.6998  -14.3739 N   0  0  0  0  0  0  0  0  0  0  0  0
   23.4679  -20.1966  -13.1248 C   0  0  1  0  0  0  0  0  0  0  0  0
   21.9928  -20.4250  -13.0154 C   0  0  0  0  0  0  0  0  0  0  0  0
   21.2049  -19.6530  -14.0191 C   0  0  0  0  0  0  0  0  0  0  0  0
   20.6023  -20.2400  -15.1246 C   0  0  0  0  0  0  0  0  0  0  0  0
   19.9903  -19.2425  -15.7913 N   0  0  0  0  0  0  0  0  0  0  0  0
   20.1983  -18.0850  -15.1367 C   0  0  0  0  0  0  0  0  0  0  0  0
   20.9435  -18.3396  -14.0502 N   0  0  0  0  0  0  0  0  0  0  0  0
   24.2153  -20.7320  -11.9584 C   0  0  0  0  0  0  0  0  0  0  0  0
   24.5632  -21.9394  -11.9615 O   0  0  0  0  0  0  0  0  0  0  0  0
   24.5315  -19.9014  -10.8586 N   0  0  0  0  0  0  0  0  0  0  0  0
   25.3372  -20.4357   -9.7540 C   0  0  1  0  0  0  0  0  0  0  0  0
   26.3679  -19.4186   -9.4214 C   0  0  0  0  0  0  0  0  0  0  0  0
   27.5074  -19.9448   -8.6550 C   0  0  0  0  0  0  0  0  0  0  0  0
   28.2733  -21.0500   -9.0659 C   0  0  0  0  0  0  0  0  0  0  0  0
   29.2539  -21.2598   -8.1807 N   0  0  0  0  0  0  0  0  0  0  0  0
   29.1950  -20.3530   -7.1853 C   0  0  0  0  0  0  0  0  0  0  0  0
   29.9716  -20.1717   -6.0602 C   0  0  0  0  0  0  0  0  0  0  0  0
   29.6528  -19.1451   -5.2038 C   0  0  0  0  0  0  0  0  0  0  0  0
   28.5782  -18.3443   -5.5007 C   0  0  0  0  0  0  0  0  0  0  0  0
   27.8040  -18.5172   -6.6133 C   0  0  0  0  0  0  0  0  0  0  0  0
   28.1057  -19.5431   -7.4917 C   0  0  0  0  0  0  0  0  0  0  0  0
   24.4910  -20.9026   -8.6441 C   0  0  0  0  0  0  0  0  0  0  0  0
   23.3680  -20.3762   -8.4589 O   0  0  0  0  0  0  0  0  0  0  0  0
   26.7362  -21.4778   -2.7462 C   0  0  0  0  0  0  0  0  0  0  0  0
   25.5184  -22.8085   -2.7497 S   0  0  0  0  0  0  0  0  0  0  0  0
   24.3462  -22.6189   -4.1396 C   0  0  0  0  0  0  0  0  0  0  0  0
   25.0722  -22.4226   -5.4341 C   0  0  0  0  0  0  0  0  0  0  0  0
   24.1244  -22.2951   -6.5746 C   0  0  2  0  0  0  0  0  0  0  0  0
   24.9065  -21.9255   -7.7811 N   0  0  0  0  0  0  0  0  0  0  0  0
   23.1700  -21.1964   -6.3522 C   0  0  0  0  0  0  0  0  0  0  0  0
   23.4270  -20.0091   -6.5917 O   0  0  0  0  0  0  0  0  0  0  0  0
   21.9010  -21.4751   -5.8457 O   0  0  0  0  0  0  0  0  0  0  0  0
  2  1  1  6
  2  3  1  0
  3  4  1  0
  4  8  1  0
  5  4  2  0
  5  6  1  0
  6  7  1  0
  8  7  2  0
  9  2  1  0
  9 10  2  0
 11  9  1  0
 12 13  1  1
 12 11  1  0
 13 14  1  0
 14 15  2  0
 14 22  1  0
 15 16  1  0
 16 17  1  0
 17 18  2  0
 18 19  1  0
 20 19  2  0
 21 20  1  0
 22 21  2  0
 22 17  1  0
 23 12  1  0
 24 23  2  0
 25 26  1  0
 26 27  1  0
 27 28  1  0
 29 28  1  1
 29 30  1  0
 30 23  1  0
 31 29  1  0
 31 33  1  0
 32 31  2  0
M  END
$$$$
