HWM.pdb
     RDKit          3D

 33 35  0  0  1  0  0  0  0  0999 V2000
   21.6854  -21.3078  -11.7292 N   0  0  0  0  0  0  0  0  0  0  0  0
   22.2163  -20.5960  -12.8590 C   0  0  1  0  0  0  0  0  0  0  0  0
   21.3906  -19.3839  -13.1573 C   0  0  0  0  0  0  0  0  0  0  0  0
   19.9501  -19.6978  -13.3822 C   0  0  0  0  0  0  0  0  0  0  0  0
   19.4796  -20.3181  -14.5327 C   0  0  0  0  0  0  0  0  0  0  0  0
   18.1466  -20.4333  -14.3778 N   0  0  0  0  0  0  0  0  0  0  0  0
   17.7965  -19.9108  -13.1878 C   0  0  0  0  0  0  0  0  0  0  0  0
   18.9045  -19.4604  -12.5793 N   0  0  0  0  0  0  0  0  0  0  0  0
   23.6583  -20.2780  -12.7004 C   0  0  0  0  0  0  0  0  0  0  0  0
   24.0178  -19.0741  -12.6893 O   0  0  0  0  0  0  0  0  0  0  0  0
   24.6160  -21.3097  -12.5651 N   0  0  0  0  0  0  0  0  0  0  0  0
   26.0433  -20.9717  -12.5102 C   0  0  1  0  0  0  0  0  0  0  0  0
   26.6370  -21.7268  -11.3767 C   0  0  0  0  0  0  0  0  0  0  0  0
   26.5661  -21.0277  -10.0848 C   0  0  0  0  0  0  0  0  0  0  0  0
   25.3844  -20.4622   -9.5738 C   0  0  0  0  0  0  0  0  0  0  0  0
   25.6341  -19.9327   -8.3710 N   0  0  0  0  0  0  0  0  0  0  0  0
   26.9277  -20.1079   -8.0359 C   0  0  0  0  0  0  0  0  0  0  0  0
   27.6465  -19.7351   -6.9197 C   0  0  0  0  0  0  0  0  0  0  0  0
   28.9833  -20.0495   -6.8672 C   0  0  0  0  0  0  0  0  0  0  0  0
   29.5482  -20.7192   -7.9240 C   0  0  0  0  0  0  0  0  0  0  0  0
   28.8429  -21.0924   -9.0333 C   0  0  0  0  0  0  0  0  0  0  0  0
   27.4950  -20.7884   -9.1090 C   0  0  0  0  0  0  0  0  0  0  0  0
   26.6893  -21.1382  -13.8220 C   0  0  0  0  0  0  0  0  0  0  0  0
   26.3901  -22.1234  -14.5379 O   0  0  0  0  0  0  0  0  0  0  0  0
   30.3367  -16.6678  -17.6347 C   0  0  0  0  0  0  0  0  0  0  0  0
   28.9486  -16.3877  -16.5174 S   0  0  0  0  0  0  0  0  0  0  0  0
   28.0259  -17.9375  -16.2191 C   0  0  0  0  0  0  0  0  0  0  0  0
   28.9589  -19.0766  -15.9483 C   0  0  0  0  0  0  0  0  0  0  0  0
   28.2136  -20.3327  -15.6615 C   0  0  2  0  0  0  0  0  0  0  0  0
   27.6364  -20.2218  -14.2982 N   0  0  0  0  0  0  0  0  0  0  0  0
   29.1194  -21.4928  -15.6301 C   0  0  0  0  0  0  0  0  0  0  0  0
   29.6042  -22.0089  -16.6459 O   0  0  0  0  0  0  0  0  0  0  0  0
   29.4691  -22.0638  -14.4069 O   0  0  0  0  0  0  0  0  0  0  0  0
  2  1  1  1
  2  3  1  0
  3  4  1  0
  4  8  1  0
  5  4  2  0
  5  6  1  0
  6  7  1  0
  8  7  2  0
  9  2  1  0
  9 10  2  0
 11  9  1  0
 12 13  1  1
 12 11  1  0
 13 14  1  0
 14 15  2  0
 14 22  1  0
 15 16  1  0
 16 17  1  0
 17 18  2  0
 18 19  1  0
 20 19  2  0
 21 20  1  0
 22 21  2  0
 22 17  1  0
 23 12  1  0
 24 23  2  0
 25 26  1  0
 26 27  1  0
 27 28  1  0
 29 28  1  1
 29 30  1  0
 30 23  1  0
 31 29  1  0
 31 33  1  0
 32 31  2  0
M  END
$$$$
