HWM.pdb
     RDKit          3D

 33 35  0  0  1  0  0  0  0  0999 V2000
   36.4451  -32.3204  -17.8944 N   0  0  0  0  0  0  0  0  0  0  0  0
   35.3445  -33.1479  -17.4834 C   0  0  1  0  0  0  0  0  0  0  0  0
   35.7601  -34.0750  -16.3845 C   0  0  0  0  0  0  0  0  0  0  0  0
   36.7630  -35.0885  -16.8216 C   0  0  0  0  0  0  0  0  0  0  0  0
   36.4578  -36.4328  -16.9928 C   0  0  0  0  0  0  0  0  0  0  0  0
   37.5995  -37.0289  -17.3871 N   0  0  0  0  0  0  0  0  0  0  0  0
   38.5747  -36.1040  -17.4601 C   0  0  0  0  0  0  0  0  0  0  0  0
   38.0589  -34.9149  -17.1128 N   0  0  0  0  0  0  0  0  0  0  0  0
   34.1395  -32.3534  -17.1333 C   0  0  0  0  0  0  0  0  0  0  0  0
   34.2403  -31.1044  -17.0415 O   0  0  0  0  0  0  0  0  0  0  0  0
   32.8964  -32.9875  -16.9041 N   0  0  0  0  0  0  0  0  0  0  0  0
   31.6518  -32.2310  -17.0868 C   0  0  1  0  0  0  0  0  0  0  0  0
   31.6584  -31.6892  -18.4701 C   0  0  0  0  0  0  0  0  0  0  0  0
   30.4400  -30.9498  -18.8328 C   0  0  0  0  0  0  0  0  0  0  0  0
   29.8386  -29.9908  -17.9986 C   0  0  0  0  0  0  0  0  0  0  0  0
   28.7738  -29.4721  -18.6204 N   0  0  0  0  0  0  0  0  0  0  0  0
   28.6179  -30.0300  -19.8373 C   0  0  0  0  0  0  0  0  0  0  0  0
   27.6772  -29.8312  -20.8258 C   0  0  0  0  0  0  0  0  0  0  0  0
   27.7728  -30.5731  -21.9787 C   0  0  0  0  0  0  0  0  0  0  0  0
   28.7966  -31.4794  -22.1003 C   0  0  0  0  0  0  0  0  0  0  0  0
   29.7328  -31.6821  -21.1257 C   0  0  0  0  0  0  0  0  0  0  0  0
   29.6587  -30.9462  -19.9562 C   0  0  0  0  0  0  0  0  0  0  0  0
   30.4750  -33.0238  -16.6961 C   0  0  0  0  0  0  0  0  0  0  0  0
   30.3413  -34.1902  -17.1367 O   0  0  0  0  0  0  0  0  0  0  0  0
   25.0968  -33.9036  -10.9895 C   0  0  0  0  0  0  0  0  0  0  0  0
   26.4776  -32.9823  -11.6953 S   0  0  0  0  0  0  0  0  0  0  0  0
   26.9252  -33.6348  -13.3433 C   0  0  0  0  0  0  0  0  0  0  0  0
   28.0176  -32.8224  -13.9662 C   0  0  0  0  0  0  0  0  0  0  0  0
   28.4048  -33.3631  -15.2978 C   0  0  2  0  0  0  0  0  0  0  0  0
   29.4917  -32.5097  -15.8403 N   0  0  0  0  0  0  0  0  0  0  0  0
   27.2907  -33.2660  -16.2552 C   0  0  0  0  0  0  0  0  0  0  0  0
   27.0663  -32.2611  -16.9429 O   0  0  0  0  0  0  0  0  0  0  0  0
   26.4242  -34.3463  -16.4193 O   0  0  0  0  0  0  0  0  0  0  0  0
  2  1  1  1
  2  3  1  0
  3  4  1  0
  4  8  1  0
  5  4  2  0
  5  6  1  0
  6  7  1  0
  8  7  2  0
  9  2  1  0
  9 10  2  0
 11  9  1  0
 12 13  1  6
 12 11  1  0
 13 14  1  0
 14 15  2  0
 14 22  1  0
 15 16  1  0
 16 17  1  0
 17 18  2  0
 18 19  1  0
 20 19  2  0
 21 20  1  0
 22 21  2  0
 22 17  1  0
 23 12  1  0
 24 23  2  0
 25 26  1  0
 26 27  1  0
 27 28  1  0
 29 28  1  1
 29 30  1  0
 30 23  1  0
 31 29  1  0
 31 33  1  0
 32 31  2  0
M  END
$$$$
