HWM.pdb
     RDKit          3D

 33 35  0  0  1  0  0  0  0  0999 V2000
   28.3254  -20.8490  -16.6524 N   0  0  0  0  0  0  0  0  0  0  0  0
   27.8421  -20.1356  -15.5024 C   0  0  1  0  0  0  0  0  0  0  0  0
   27.1657  -18.8651  -15.9126 C   0  0  0  0  0  0  0  0  0  0  0  0
   28.0632  -17.9399  -16.6625 C   0  0  0  0  0  0  0  0  0  0  0  0
   28.1029  -17.8801  -18.0498 C   0  0  0  0  0  0  0  0  0  0  0  0
   29.0194  -16.9425  -18.3583 N   0  0  0  0  0  0  0  0  0  0  0  0
   29.5308  -16.4378  -17.2202 C   0  0  0  0  0  0  0  0  0  0  0  0
   28.9426  -17.0511  -16.1817 N   0  0  0  0  0  0  0  0  0  0  0  0
   26.9865  -20.9808  -14.6310 C   0  0  0  0  0  0  0  0  0  0  0  0
   26.1861  -21.7890  -15.1647 O   0  0  0  0  0  0  0  0  0  0  0  0
   27.0661  -20.8807  -13.2227 N   0  0  0  0  0  0  0  0  0  0  0  0
   26.2193  -21.7389  -12.3854 C   0  0  1  0  0  0  0  0  0  0  0  0
   27.0040  -22.0949  -11.1752 C   0  0  0  0  0  0  0  0  0  0  0  0
   26.8576  -21.1453  -10.0619 C   0  0  0  0  0  0  0  0  0  0  0  0
   25.6991  -20.3784   -9.8452 C   0  0  0  0  0  0  0  0  0  0  0  0
   25.8587  -19.6426   -8.7394 N   0  0  0  0  0  0  0  0  0  0  0  0
   27.0689  -19.8685   -8.1910 C   0  0  0  0  0  0  0  0  0  0  0  0
   27.6820  -19.3476   -7.0711 C   0  0  0  0  0  0  0  0  0  0  0  0
   28.9533  -19.7706   -6.7648 C   0  0  0  0  0  0  0  0  0  0  0  0
   29.5602  -20.6909   -7.5826 C   0  0  0  0  0  0  0  0  0  0  0  0
   28.9595  -21.2121   -8.6938 C   0  0  0  0  0  0  0  0  0  0  0  0
   27.6790  -20.8030   -9.0224 C   0  0  0  0  0  0  0  0  0  0  0  0
   24.8961  -21.1362  -12.1580 C   0  0  0  0  0  0  0  0  0  0  0  0
   24.7600  -19.8926  -12.2443 O   0  0  0  0  0  0  0  0  0  0  0  0
   19.4371  -19.5098  -10.0365 C   0  0  0  0  0  0  0  0  0  0  0  0
   20.3087  -18.4480  -11.2057 S   0  0  0  0  0  0  0  0  0  0  0  0
   21.0539  -19.4328  -12.5537 C   0  0  0  0  0  0  0  0  0  0  0  0
   22.3897  -19.9750  -12.1501 C   0  0  0  0  0  0  0  0  0  0  0  0
   22.3962  -21.4634  -12.1565 C   0  0  2  0  0  0  0  0  0  0  0  0
   23.7752  -21.9167  -11.8451 N   0  0  0  0  0  0  0  0  0  0  0  0
   22.0838  -21.9905  -13.4951 C   0  0  0  0  0  0  0  0  0  0  0  0
   22.9440  -22.3993  -14.2863 O   0  0  0  0  0  0  0  0  0  0  0  0
   20.7581  -22.0454  -13.9242 O   0  0  0  0  0  0  0  0  0  0  0  0
  2  1  1  6
  2  3  1  0
  3  4  1  0
  4  8  1  0
  5  4  2  0
  5  6  1  0
  6  7  1  0
  8  7  2  0
  9  2  1  0
  9 10  2  0
 11  9  1  0
 12 13  1  1
 12 11  1  0
 13 14  1  0
 14 15  2  0
 14 22  1  0
 15 16  1  0
 16 17  1  0
 17 18  2  0
 18 19  1  0
 20 19  2  0
 21 20  1  0
 22 21  2  0
 22 17  1  0
 23 12  1  0
 24 23  2  0
 25 26  1  0
 26 27  1  0
 27 28  1  0
 29 28  1  6
 29 30  1  0
 30 23  1  0
 31 29  1  0
 31 33  1  0
 32 31  2  0
M  END
$$$$
