HWM.pdb
     RDKit          3D

 33 35  0  0  1  0  0  0  0  0999 V2000
   27.7326  -22.6729  -16.7128 N   0  0  0  0  0  0  0  0  0  0  0  0
   27.3349  -21.4137  -16.1460 C   0  0  1  0  0  0  0  0  0  0  0  0
   26.5912  -20.5914  -17.1514 C   0  0  0  0  0  0  0  0  0  0  0  0
   27.4206  -20.2228  -18.3348 C   0  0  0  0  0  0  0  0  0  0  0  0
   27.1218  -20.6332  -19.6278 C   0  0  0  0  0  0  0  0  0  0  0  0
   28.0817  -20.1136  -20.4170 N   0  0  0  0  0  0  0  0  0  0  0  0
   28.9418  -19.4109  -19.6568 C   0  0  0  0  0  0  0  0  0  0  0  0
   28.5340  -19.4795  -18.3802 N   0  0  0  0  0  0  0  0  0  0  0  0
   26.5830  -21.5776  -14.8758 C   0  0  0  0  0  0  0  0  0  0  0  0
   25.5300  -22.2631  -14.8767 O   0  0  0  0  0  0  0  0  0  0  0  0
   27.0394  -20.9727  -13.6818 N   0  0  0  0  0  0  0  0  0  0  0  0
   26.2633  -21.1308  -12.4460 C   0  0  1  0  0  0  0  0  0  0  0  0
   27.1444  -20.7446  -11.3138 C   0  0  0  0  0  0  0  0  0  0  0  0
   26.4686  -20.7157  -10.0079 C   0  0  0  0  0  0  0  0  0  0  0  0
   25.2832  -21.4202   -9.7333 C   0  0  0  0  0  0  0  0  0  0  0  0
   24.9392  -21.2223   -8.4559 N   0  0  0  0  0  0  0  0  0  0  0  0
   25.8306  -20.4170   -7.8449 C   0  0  0  0  0  0  0  0  0  0  0  0
   25.8964  -19.9289   -6.5569 C   0  0  0  0  0  0  0  0  0  0  0  0
   26.9411  -19.1005   -6.2237 C   0  0  0  0  0  0  0  0  0  0  0  0
   27.8740  -18.7925   -7.1824 C   0  0  0  0  0  0  0  0  0  0  0  0
   27.8162  -19.2721   -8.4606 C   0  0  0  0  0  0  0  0  0  0  0  0
   26.7745  -20.1092   -8.8201 C   0  0  0  0  0  0  0  0  0  0  0  0
   24.9638  -20.4454  -12.5321 C   0  0  0  0  0  0  0  0  0  0  0  0
   24.9270  -19.2218  -12.8039 O   0  0  0  0  0  0  0  0  0  0  0  0
   17.5648  -20.9676  -14.8508 C   0  0  0  0  0  0  0  0  0  0  0  0
   19.1811  -21.7265  -14.5951 S   0  0  0  0  0  0  0  0  0  0  0  0
   20.2176  -20.7018  -13.4914 C   0  0  0  0  0  0  0  0  0  0  0  0
   21.5815  -21.2968  -13.3272 C   0  0  0  0  0  0  0  0  0  0  0  0
   22.4436  -20.4478  -12.4604 C   0  0  2  0  0  0  0  0  0  0  0  0
   23.7571  -21.1248  -12.3172 N   0  0  0  0  0  0  0  0  0  0  0  0
   21.8881  -20.3392  -11.1014 C   0  0  0  0  0  0  0  0  0  0  0  0
   21.9893  -21.2311  -10.2485 O   0  0  0  0  0  0  0  0  0  0  0  0
   21.2058  -19.1830  -10.7240 O   0  0  0  0  0  0  0  0  0  0  0  0
  2  1  1  6
  2  3  1  0
  3  4  1  0
  4  8  1  0
  5  4  2  0
  5  6  1  0
  6  7  1  0
  8  7  2  0
  9  2  1  0
  9 10  2  0
 11  9  1  0
 12 13  1  1
 12 11  1  0
 13 14  1  0
 14 15  2  0
 14 22  1  0
 15 16  1  0
 16 17  1  0
 17 18  2  0
 18 19  1  0
 20 19  2  0
 21 20  1  0
 22 21  2  0
 22 17  1  0
 23 12  1  0
 24 23  2  0
 25 26  1  0
 26 27  1  0
 27 28  1  0
 29 28  1  6
 29 30  1  0
 30 23  1  0
 31 29  1  0
 31 33  1  0
 32 31  2  0
M  END
$$$$
