HWM.pdb
     RDKit          3D

 33 35  0  0  1  0  0  0  0  0999 V2000
   27.4093  -17.6775  -19.9833 N   0  0  0  0  0  0  0  0  0  0  0  0
   26.5409  -17.4263  -18.8662 C   0  0  1  0  0  0  0  0  0  0  0  0
   25.1422  -17.1656  -19.3304 C   0  0  0  0  0  0  0  0  0  0  0  0
   24.9388  -15.7724  -19.8222 C   0  0  0  0  0  0  0  0  0  0  0  0
   24.7313  -15.4632  -21.1605 C   0  0  0  0  0  0  0  0  0  0  0  0
   24.5913  -14.1248  -21.2184 N   0  0  0  0  0  0  0  0  0  0  0  0
   24.7054  -13.6177  -19.9768 C   0  0  0  0  0  0  0  0  0  0  0  0
   24.9185  -14.6304  -19.1225 N   0  0  0  0  0  0  0  0  0  0  0  0
   26.6106  -18.5006  -17.8430 C   0  0  0  0  0  0  0  0  0  0  0  0
   26.6273  -19.6991  -18.2200 O   0  0  0  0  0  0  0  0  0  0  0  0
   26.6559  -18.1855  -16.4652 N   0  0  0  0  0  0  0  0  0  0  0  0
   26.5651  -19.2621  -15.4716 C   0  0  1  0  0  0  0  0  0  0  0  0
   27.4036  -18.8685  -14.3100 C   0  0  0  0  0  0  0  0  0  0  0  0
   27.4533  -19.8719  -13.2360 C   0  0  0  0  0  0  0  0  0  0  0  0
   28.2301  -21.0419  -13.3043 C   0  0  0  0  0  0  0  0  0  0  0  0
   28.0921  -21.7292  -12.1649 N   0  0  0  0  0  0  0  0  0  0  0  0
   27.2590  -21.0868  -11.3226 C   0  0  0  0  0  0  0  0  0  0  0  0
   26.8093  -21.4009  -10.0574 C   0  0  0  0  0  0  0  0  0  0  0  0
   25.9359  -20.5377   -9.4403 C   0  0  0  0  0  0  0  0  0  0  0  0
   25.5469  -19.4015  -10.1052 C   0  0  0  0  0  0  0  0  0  0  0  0
   25.9880  -19.0828  -11.3586 C   0  0  0  0  0  0  0  0  0  0  0  0
   26.8691  -19.9355  -12.0002 C   0  0  0  0  0  0  0  0  0  0  0  0
   25.1658  -19.6154  -15.1834 C   0  0  0  0  0  0  0  0  0  0  0  0
   24.3115  -18.7058  -15.0588 O   0  0  0  0  0  0  0  0  0  0  0  0
   20.4410  -20.9704   -9.9308 C   0  0  0  0  0  0  0  0  0  0  0  0
   22.0404  -20.6211  -10.6881 S   0  0  0  0  0  0  0  0  0  0  0  0
   22.0922  -21.2220  -12.4139 C   0  0  0  0  0  0  0  0  0  0  0  0
   23.4217  -20.9418  -13.0425 C   0  0  0  0  0  0  0  0  0  0  0  0
   23.4264  -21.3022  -14.4866 C   0  0  2  0  0  0  0  0  0  0  0  0
   24.7566  -20.9482  -15.0428 N   0  0  0  0  0  0  0  0  0  0  0  0
   22.4428  -20.5041  -15.2369 C   0  0  0  0  0  0  0  0  0  0  0  0
   21.4448  -20.9897  -15.7858 O   0  0  0  0  0  0  0  0  0  0  0  0
   22.6162  -19.1254  -15.3538 O   0  0  0  0  0  0  0  0  0  0  0  0
  2  1  1  6
  2  3  1  0
  3  4  1  0
  4  8  1  0
  5  4  2  0
  5  6  1  0
  6  7  1  0
  8  7  2  0
  9  2  1  0
  9 10  2  0
 11  9  1  0
 12 13  1  1
 12 11  1  0
 13 14  1  0
 14 15  2  0
 14 22  1  0
 15 16  1  0
 16 17  1  0
 17 18  2  0
 18 19  1  0
 20 19  2  0
 21 20  1  0
 22 21  2  0
 22 17  1  0
 23 12  1  0
 24 23  2  0
 25 26  1  0
 26 27  1  0
 27 28  1  0
 29 28  1  1
 29 30  1  0
 30 23  1  0
 31 29  1  0
 31 33  1  0
 32 31  2  0
M  END
$$$$
