HWM.pdb
     RDKit          3D

 33 35  0  0  1  0  0  0  0  0999 V2000
   27.3884  -23.5657  -16.2237 N   0  0  0  0  0  0  0  0  0  0  0  0
   26.9466  -22.2254  -15.9528 C   0  0  1  0  0  0  0  0  0  0  0  0
   26.2396  -21.6504  -17.1400 C   0  0  0  0  0  0  0  0  0  0  0  0
   27.1585  -21.3302  -18.2701 C   0  0  0  0  0  0  0  0  0  0  0  0
   27.3951  -22.2016  -19.3257 C   0  0  0  0  0  0  0  0  0  0  0  0
   28.2673  -21.5763  -20.1395 N   0  0  0  0  0  0  0  0  0  0  0  0
   28.5645  -20.3705  -19.6205 C   0  0  0  0  0  0  0  0  0  0  0  0
   27.8831  -20.2221  -18.4740 N   0  0  0  0  0  0  0  0  0  0  0  0
   26.1380  -22.1367  -14.7102 C   0  0  0  0  0  0  0  0  0  0  0  0
   25.4354  -23.1214  -14.3705 O   0  0  0  0  0  0  0  0  0  0  0  0
   26.1536  -20.9647  -13.9191 N   0  0  0  0  0  0  0  0  0  0  0  0
   25.3321  -20.8986  -12.7044 C   0  0  1  0  0  0  0  0  0  0  0  0
   25.9550  -19.8989  -11.7988 C   0  0  0  0  0  0  0  0  0  0  0  0
   27.0693  -20.4254  -10.9965 C   0  0  0  0  0  0  0  0  0  0  0  0
   28.1873  -21.0714  -11.5532 C   0  0  0  0  0  0  0  0  0  0  0  0
   29.0383  -21.4002  -10.5748 N   0  0  0  0  0  0  0  0  0  0  0  0
   28.5563  -21.0115   -9.3777 C   0  0  0  0  0  0  0  0  0  0  0  0
   29.0601  -21.1352   -8.1001 C   0  0  0  0  0  0  0  0  0  0  0  0
   28.3186  -20.6411   -7.0537 C   0  0  0  0  0  0  0  0  0  0  0  0
   27.1104  -20.0466   -7.3206 C   0  0  0  0  0  0  0  0  0  0  0  0
   26.6044  -19.9199   -8.5835 C   0  0  0  0  0  0  0  0  0  0  0  0
   27.3330  -20.4083   -9.6539 C   0  0  0  0  0  0  0  0  0  0  0  0
   23.9092  -20.7005  -13.0240 C   0  0  0  0  0  0  0  0  0  0  0  0
   23.5799  -19.8326  -13.8670 O   0  0  0  0  0  0  0  0  0  0  0  0
   19.3394  -25.2808  -13.0857 C   0  0  0  0  0  0  0  0  0  0  0  0
   18.3748  -23.9038  -12.4322 S   0  0  0  0  0  0  0  0  0  0  0  0
   19.2594  -22.3200  -12.6581 C   0  0  0  0  0  0  0  0  0  0  0  0
   20.7319  -22.4904  -12.4484 C   0  0  0  0  0  0  0  0  0  0  0  0
   21.4650  -21.2165  -12.6836 C   0  0  2  0  0  0  0  0  0  0  0  0
   22.9038  -21.4587  -12.4092 N   0  0  0  0  0  0  0  0  0  0  0  0
   21.0367  -20.1741  -11.7363 C   0  0  0  0  0  0  0  0  0  0  0  0
   21.4105  -20.1274  -10.5568 O   0  0  0  0  0  0  0  0  0  0  0  0
   20.1639  -19.1722  -12.1594 O   0  0  0  0  0  0  0  0  0  0  0  0
  2  1  1  6
  2  3  1  0
  3  4  1  0
  4  8  1  0
  5  4  2  0
  5  6  1  0
  6  7  1  0
  8  7  2  0
  9  2  1  0
  9 10  2  0
 11  9  1  0
 12 13  1  1
 12 11  1  0
 13 14  1  0
 14 15  2  0
 14 22  1  0
 15 16  1  0
 16 17  1  0
 17 18  2  0
 18 19  1  0
 20 19  2  0
 21 20  1  0
 22 21  2  0
 22 17  1  0
 23 12  1  0
 24 23  2  0
 25 26  1  0
 26 27  1  0
 27 28  1  0
 29 28  1  1
 29 30  1  0
 30 23  1  0
 31 29  1  0
 31 33  1  0
 32 31  2  0
M  END
$$$$
