HWM.pdb
     RDKit          3D

 33 35  0  0  1  0  0  0  0  0999 V2000
   22.3866  -16.1406  -18.4768 N   0  0  0  0  0  0  0  0  0  0  0  0
   22.9013  -16.2322  -17.1382 C   0  0  1  0  0  0  0  0  0  0  0  0
   22.0735  -15.4164  -16.1953 C   0  0  0  0  0  0  0  0  0  0  0  0
   22.0397  -13.9680  -16.5490 C   0  0  0  0  0  0  0  0  0  0  0  0
   20.8742  -13.3009  -16.9043 C   0  0  0  0  0  0  0  0  0  0  0  0
   21.2325  -12.0263  -17.1512 N   0  0  0  0  0  0  0  0  0  0  0  0
   22.5588  -11.8986  -16.9604 C   0  0  0  0  0  0  0  0  0  0  0  0
   23.0513  -13.0909  -16.5911 N   0  0  0  0  0  0  0  0  0  0  0  0
   23.0582  -17.6387  -16.6878 C   0  0  0  0  0  0  0  0  0  0  0  0
   22.1743  -18.4774  -16.9941 O   0  0  0  0  0  0  0  0  0  0  0  0
   24.1816  -18.0328  -15.9246 N   0  0  0  0  0  0  0  0  0  0  0  0
   24.1553  -19.3097  -15.2012 C   0  0  1  0  0  0  0  0  0  0  0  0
   25.5375  -19.5840  -14.7304 C   0  0  0  0  0  0  0  0  0  0  0  0
   25.6424  -20.7170  -13.7987 C   0  0  0  0  0  0  0  0  0  0  0  0
   25.7133  -22.0582  -14.2149 C   0  0  0  0  0  0  0  0  0  0  0  0
   25.8379  -22.8463  -13.1413 N   0  0  0  0  0  0  0  0  0  0  0  0
   25.8547  -22.1098  -12.0127 C   0  0  0  0  0  0  0  0  0  0  0  0
   25.9550  -22.4659  -10.6843 C   0  0  0  0  0  0  0  0  0  0  0  0
   25.9311  -21.4709   -9.7366 C   0  0  0  0  0  0  0  0  0  0  0  0
   25.8083  -20.1671  -10.1481 C   0  0  0  0  0  0  0  0  0  0  0  0
   25.7087  -19.8059  -11.4622 C   0  0  0  0  0  0  0  0  0  0  0  0
   25.7319  -20.7896  -12.4353 C   0  0  0  0  0  0  0  0  0  0  0  0
   23.0959  -19.3307  -14.1798 C   0  0  0  0  0  0  0  0  0  0  0  0
   22.9975  -18.3771  -13.3714 O   0  0  0  0  0  0  0  0  0  0  0  0
   18.4272  -15.8838  -13.4940 C   0  0  0  0  0  0  0  0  0  0  0  0
   18.3643  -17.6837  -13.5943 S   0  0  0  0  0  0  0  0  0  0  0  0
   19.9932  -18.4178  -13.2070 C   0  0  0  0  0  0  0  0  0  0  0  0
   19.9552  -19.9093  -13.3300 C   0  0  0  0  0  0  0  0  0  0  0  0
   21.2539  -20.5201  -12.9354 C   0  0  2  0  0  0  0  0  0  0  0  0
   22.1873  -20.3931  -14.0828 N   0  0  0  0  0  0  0  0  0  0  0  0
   21.1079  -21.9632  -12.6835 C   0  0  0  0  0  0  0  0  0  0  0  0
   21.2864  -22.8296  -13.5499 O   0  0  0  0  0  0  0  0  0  0  0  0
   20.7502  -22.4102  -11.4118 O   0  0  0  0  0  0  0  0  0  0  0  0
  2  1  1  6
  2  3  1  0
  3  4  1  0
  4  8  1  0
  5  4  2  0
  5  6  1  0
  6  7  1  0
  8  7  2  0
  9  2  1  0
  9 10  2  0
 11  9  1  0
 12 13  1  1
 12 11  1  0
 13 14  1  0
 14 15  2  0
 14 22  1  0
 15 16  1  0
 16 17  1  0
 17 18  2  0
 18 19  1  0
 20 19  2  0
 21 20  1  0
 22 21  2  0
 22 17  1  0
 23 12  1  0
 24 23  2  0
 25 26  1  0
 26 27  1  0
 27 28  1  0
 29 28  1  6
 29 30  1  0
 30 23  1  0
 31 29  1  0
 31 33  1  0
 32 31  2  0
M  END
$$$$
