HWM.pdb
     RDKit          3D

 33 35  0  0  1  0  0  0  0  0999 V2000
   28.9036  -20.1680  -14.3420 N   0  0  0  0  0  0  0  0  0  0  0  0
   27.4933  -20.4237  -14.4453 C   0  0  1  0  0  0  0  0  0  0  0  0
   27.2038  -21.3426  -15.5906 C   0  0  0  0  0  0  0  0  0  0  0  0
   27.8021  -20.8815  -16.8766 C   0  0  0  0  0  0  0  0  0  0  0  0
   28.8809  -21.5140  -17.4811 C   0  0  0  0  0  0  0  0  0  0  0  0
   29.1368  -20.8228  -18.6085 N   0  0  0  0  0  0  0  0  0  0  0  0
   28.2613  -19.8053  -18.7074 C   0  0  0  0  0  0  0  0  0  0  0  0
   27.4439  -19.8436  -17.6440 N   0  0  0  0  0  0  0  0  0  0  0  0
   26.9109  -20.9058  -13.1669 C   0  0  0  0  0  0  0  0  0  0  0  0
   25.8571  -21.5893  -13.1985 O   0  0  0  0  0  0  0  0  0  0  0  0
   27.5275  -20.6022  -11.9311 N   0  0  0  0  0  0  0  0  0  0  0  0
   26.8229  -20.8961  -10.6774 C   0  0  1  0  0  0  0  0  0  0  0  0
   27.7551  -20.5940   -9.5607 C   0  0  0  0  0  0  0  0  0  0  0  0
   27.1240  -20.5963   -8.2324 C   0  0  0  0  0  0  0  0  0  0  0  0
   25.8244  -21.0768   -7.9929 C   0  0  0  0  0  0  0  0  0  0  0  0
   25.5522  -20.9781   -6.6870 N   0  0  0  0  0  0  0  0  0  0  0  0
   26.6011  -20.4533   -6.0231 C   0  0  0  0  0  0  0  0  0  0  0  0
   26.7895  -20.1567   -4.6896 C   0  0  0  0  0  0  0  0  0  0  0  0
   27.9881  -19.6049   -4.3051 C   0  0  0  0  0  0  0  0  0  0  0  0
   28.9464  -19.3715   -5.2598 C   0  0  0  0  0  0  0  0  0  0  0  0
   28.7677  -19.6628   -6.5828 C   0  0  0  0  0  0  0  0  0  0  0  0
   27.5699  -20.2202   -6.9945 C   0  0  0  0  0  0  0  0  0  0  0  0
   25.5059  -20.2407  -10.6308 C   0  0  0  0  0  0  0  0  0  0  0  0
   25.4376  -18.9886  -10.6451 O   0  0  0  0  0  0  0  0  0  0  0  0
   21.5665  -22.4787  -14.6971 C   0  0  0  0  0  0  0  0  0  0  0  0
   20.7416  -20.9321  -14.2712 S   0  0  0  0  0  0  0  0  0  0  0  0
   21.2180  -20.3765  -12.5959 C   0  0  0  0  0  0  0  0  0  0  0  0
   22.5925  -20.8518  -12.2410 C   0  0  0  0  0  0  0  0  0  0  0  0
   23.0019  -20.3718  -10.8929 C   0  0  2  0  0  0  0  0  0  0  0  0
   24.3171  -20.9800  -10.5699 N   0  0  0  0  0  0  0  0  0  0  0  0
   22.0679  -20.8400   -9.8557 C   0  0  0  0  0  0  0  0  0  0  0  0
   22.2463  -21.8682   -9.1893 O   0  0  0  0  0  0  0  0  0  0  0  0
   20.9116  -20.1087   -9.5857 O   0  0  0  0  0  0  0  0  0  0  0  0
  2  1  1  1
  2  3  1  0
  3  4  1  0
  4  8  1  0
  5  4  2  0
  5  6  1  0
  6  7  1  0
  8  7  2  0
  9  2  1  0
  9 10  2  0
 11  9  1  0
 12 13  1  1
 12 11  1  0
 13 14  1  0
 14 15  2  0
 14 22  1  0
 15 16  1  0
 16 17  1  0
 17 18  2  0
 18 19  1  0
 20 19  2  0
 21 20  1  0
 22 21  2  0
 22 17  1  0
 23 12  1  0
 24 23  2  0
 25 26  1  0
 26 27  1  0
 27 28  1  0
 29 28  1  6
 29 30  1  0
 30 23  1  0
 31 29  1  0
 31 33  1  0
 32 31  2  0
M  END
$$$$
