HWM.pdb
     RDKit          3D

 33 35  0  0  1  0  0  0  0  0999 V2000
   27.8884  -22.9616  -17.4909 N   0  0  0  0  0  0  0  0  0  0  0  0
   28.7455  -22.2009  -16.6238 C   0  0  1  0  0  0  0  0  0  0  0  0
   29.8414  -21.5454  -17.4042 C   0  0  0  0  0  0  0  0  0  0  0  0
   30.7180  -22.5205  -18.1149 C   0  0  0  0  0  0  0  0  0  0  0  0
   30.8479  -22.5561  -19.4975 C   0  0  0  0  0  0  0  0  0  0  0  0
   31.7113  -23.5541  -19.7670 N   0  0  0  0  0  0  0  0  0  0  0  0
   32.1046  -24.1183  -18.6100 C   0  0  0  0  0  0  0  0  0  0  0  0
   31.4940  -23.4824  -17.5984 N   0  0  0  0  0  0  0  0  0  0  0  0
   27.9890  -21.2373  -15.7842 C   0  0  0  0  0  0  0  0  0  0  0  0
   27.7453  -20.0929  -16.2419 O   0  0  0  0  0  0  0  0  0  0  0  0
   27.5491  -21.5962  -14.4891 N   0  0  0  0  0  0  0  0  0  0  0  0
   26.6604  -20.6926  -13.7486 C   0  0  1  0  0  0  0  0  0  0  0  0
   25.4668  -20.4461  -14.5982 C   0  0  0  0  0  0  0  0  0  0  0  0
   25.0183  -19.0456  -14.6145 C   0  0  0  0  0  0  0  0  0  0  0  0
   23.7186  -18.6442  -14.2585 C   0  0  0  0  0  0  0  0  0  0  0  0
   23.6315  -17.3119  -14.3400 N   0  0  0  0  0  0  0  0  0  0  0  0
   24.8070  -16.7839  -14.7348 C   0  0  0  0  0  0  0  0  0  0  0  0
   25.1981  -15.4819  -14.9661 C   0  0  0  0  0  0  0  0  0  0  0  0
   26.4873  -15.2502  -15.3821 C   0  0  0  0  0  0  0  0  0  0  0  0
   27.3313  -16.3196  -15.5506 C   0  0  0  0  0  0  0  0  0  0  0  0
   26.9516  -17.6124  -15.3232 C   0  0  0  0  0  0  0  0  0  0  0  0
   25.6590  -17.8713  -14.9023 C   0  0  0  0  0  0  0  0  0  0  0  0
   26.4072  -21.1817  -12.3838 C   0  0  0  0  0  0  0  0  0  0  0  0
   25.9852  -22.3504  -12.2142 O   0  0  0  0  0  0  0  0  0  0  0  0
   26.9964  -19.4682   -4.6451 C   0  0  0  0  0  0  0  0  0  0  0  0
   27.1444  -18.9119   -6.3546 S   0  0  0  0  0  0  0  0  0  0  0  0
   26.5688  -20.2024   -7.5146 C   0  0  0  0  0  0  0  0  0  0  0  0
   26.8853  -19.8341   -8.9308 C   0  0  0  0  0  0  0  0  0  0  0  0
   26.4326  -20.8874   -9.8800 C   0  0  2  0  0  0  0  0  0  0  0  0
   26.6248  -20.3739  -11.2597 N   0  0  0  0  0  0  0  0  0  0  0  0
   24.9908  -21.1480   -9.7366 C   0  0  0  0  0  0  0  0  0  0  0  0
   24.1198  -20.5376  -10.3705 O   0  0  0  0  0  0  0  0  0  0  0  0
   24.5506  -22.1281   -8.8477 O   0  0  0  0  0  0  0  0  0  0  0  0
  2  1  1  6
  2  3  1  0
  3  4  1  0
  4  8  1  0
  5  4  2  0
  5  6  1  0
  6  7  1  0
  8  7  2  0
  9  2  1  0
  9 10  2  0
 11  9  1  0
 12 13  1  6
 12 11  1  0
 13 14  1  0
 14 15  2  0
 14 22  1  0
 15 16  1  0
 16 17  1  0
 17 18  2  0
 18 19  1  0
 20 19  2  0
 21 20  1  0
 22 21  2  0
 22 17  1  0
 23 12  1  0
 24 23  2  0
 25 26  1  0
 26 27  1  0
 27 28  1  0
 29 28  1  1
 29 30  1  0
 30 23  1  0
 31 29  1  0
 31 33  1  0
 32 31  2  0
M  END
$$$$
