HWM.pdb
     RDKit          3D

 33 35  0  0  1  0  0  0  0  0999 V2000
   28.7466  -21.9097  -15.6663 N   0  0  0  0  0  0  0  0  0  0  0  0
   27.6568  -20.9851  -15.5169 C   0  0  1  0  0  0  0  0  0  0  0  0
   26.9203  -20.8209  -16.8094 C   0  0  0  0  0  0  0  0  0  0  0  0
   27.7751  -20.2807  -17.9057 C   0  0  0  0  0  0  0  0  0  0  0  0
   28.1501  -21.0295  -19.0140 C   0  0  0  0  0  0  0  0  0  0  0  0
   28.9092  -20.2178  -19.7750 N   0  0  0  0  0  0  0  0  0  0  0  0
   29.0064  -19.0174  -19.1740 C   0  0  0  0  0  0  0  0  0  0  0  0
   28.3100  -19.0587  -18.0278 N   0  0  0  0  0  0  0  0  0  0  0  0
   26.7582  -21.3472  -14.3913 C   0  0  0  0  0  0  0  0  0  0  0  0
   26.9080  -22.4600  -13.8275 O   0  0  0  0  0  0  0  0  0  0  0  0
   25.7474  -20.4582  -13.9578 N   0  0  0  0  0  0  0  0  0  0  0  0
   25.0936  -20.6796  -12.6624 C   0  0  1  0  0  0  0  0  0  0  0  0
   25.7535  -19.7900  -11.6722 C   0  0  0  0  0  0  0  0  0  0  0  0
   26.8370  -20.4330  -10.9136 C   0  0  0  0  0  0  0  0  0  0  0  0
   27.9260  -21.0845  -11.5193 C   0  0  0  0  0  0  0  0  0  0  0  0
   28.7549  -21.5322  -10.5696 N   0  0  0  0  0  0  0  0  0  0  0  0
   28.2854  -21.2194   -9.3456 C   0  0  0  0  0  0  0  0  0  0  0  0
   28.7757  -21.4707   -8.0815 C   0  0  0  0  0  0  0  0  0  0  0  0
   28.0529  -21.0283   -6.9995 C   0  0  0  0  0  0  0  0  0  0  0  0
   26.8760  -20.3568   -7.2190 C   0  0  0  0  0  0  0  0  0  0  0  0
   26.3835  -20.1036   -8.4682 C   0  0  0  0  0  0  0  0  0  0  0  0
   27.0938  -20.5377   -9.5736 C   0  0  0  0  0  0  0  0  0  0  0  0
   23.6297  -20.5726  -12.7703 C   0  0  0  0  0  0  0  0  0  0  0  0
   23.1088  -19.4633  -13.0360 O   0  0  0  0  0  0  0  0  0  0  0  0
   20.0786  -25.8849  -13.4283 C   0  0  0  0  0  0  0  0  0  0  0  0
   18.7234  -24.6953  -13.4719 S   0  0  0  0  0  0  0  0  0  0  0  0
   19.3432  -22.9894  -13.2528 C   0  0  0  0  0  0  0  0  0  0  0  0
   20.7994  -22.9855  -12.9052 C   0  0  0  0  0  0  0  0  0  0  0  0
   21.3268  -21.5983  -12.7907 C   0  0  2  0  0  0  0  0  0  0  0  0
   22.7944  -21.6819  -12.5829 N   0  0  0  0  0  0  0  0  0  0  0  0
   20.7826  -20.9191  -11.6034 C   0  0  0  0  0  0  0  0  0  0  0  0
   21.3144  -20.9651  -10.4862 O   0  0  0  0  0  0  0  0  0  0  0  0
   19.6070  -20.1766  -11.7099 O   0  0  0  0  0  0  0  0  0  0  0  0
  2  1  1  6
  2  3  1  0
  3  4  1  0
  4  8  1  0
  5  4  2  0
  5  6  1  0
  6  7  1  0
  8  7  2  0
  9  2  1  0
  9 10  2  0
 11  9  1  0
 12 13  1  1
 12 11  1  0
 13 14  1  0
 14 15  2  0
 14 22  1  0
 15 16  1  0
 16 17  1  0
 17 18  2  0
 18 19  1  0
 20 19  2  0
 21 20  1  0
 22 21  2  0
 22 17  1  0
 23 12  1  0
 24 23  2  0
 25 26  1  0
 26 27  1  0
 27 28  1  0
 29 28  1  1
 29 30  1  0
 30 23  1  0
 31 29  1  0
 31 33  1  0
 32 31  2  0
M  END
$$$$
