MAR.pdb
     RDKit          3D

 25 24  0  0  1  0  0  0  0  0999 V2000
   22.1906  -19.9229   -8.7670 C   0  0  0  0  0  0  0  0  0  0  0  0
   23.5627  -21.0831   -8.9653 S   0  0  0  0  0  0  0  0  0  0  0  0
   23.5174  -21.8109  -10.6019 C   0  0  0  0  0  0  0  0  0  0  0  0
   24.0546  -20.8578  -11.6664 C   0  0  0  0  0  0  0  0  0  0  0  0
   25.5812  -20.8973  -11.6191 C   0  0  2  0  0  0  0  0  0  0  0  0
   26.0660  -20.5189  -10.3087 N   0  0  0  0  0  0  0  0  0  0  0  0
   26.1910  -20.0273  -12.6290 C   0  0  0  0  0  0  0  0  0  0  0  0
   26.2753  -18.7865  -12.3299 O   0  0  0  0  0  0  0  0  0  0  0  0
   28.2892  -20.2989  -15.6361 C   0  0  0  0  0  0  0  0  0  0  0  0
   27.2149  -19.5025  -14.8836 C   0  0  2  0  0  0  0  0  0  0  0  0
   26.6897  -20.4113  -13.8849 N   0  0  0  0  0  0  0  0  0  0  0  0
   26.1145  -19.1127  -15.7936 C   0  0  0  0  0  0  0  0  0  0  0  0
   25.3083  -19.9635  -16.1844 O   0  0  0  0  0  0  0  0  0  0  0  0
   20.8060  -12.8538  -15.3818 N   0  0  0  0  0  0  0  0  0  0  0  0
   20.4934  -14.2364  -15.2608 C   0  0  0  0  0  0  0  0  0  0  0  0
   19.5043  -14.6463  -14.5421 N   0  0  0  0  0  0  0  0  0  0  0  0
   21.2920  -15.1845  -15.9508 N   0  0  0  0  0  0  0  0  0  0  0  0
   22.2507  -14.7014  -16.9140 C   0  0  0  0  0  0  0  0  0  0  0  0
   23.0047  -15.8300  -17.6070 C   0  0  0  0  0  0  0  0  0  0  0  0
   24.0707  -16.2910  -16.6523 C   0  0  0  0  0  0  0  0  0  0  0  0
   24.9390  -17.3851  -17.1919 C   0  0  2  0  0  0  0  0  0  0  0  0
   25.9584  -17.7499  -16.2399 N   0  0  0  0  0  0  0  0  0  0  0  0
   25.5183  -17.1177  -18.5019 C   0  0  0  0  0  0  0  0  0  0  0  0
   26.6824  -16.6424  -18.5603 O   0  0  0  0  0  0  0  0  0  0  0  0
   24.8931  -17.3427  -19.7128 O   0  0  0  0  0  0  0  0  0  0  0  0
  2  1  1  0
  2  3  1  0
  4  3  1  0
  4  5  1  0
  5  6  1  1
  7  5  1  0
  7  8  2  0
 10  9  1  6
 10 11  1  0
 10 12  1  0
 11  7  1  0
 12 22  1  0
 13 12  2  0
 14 15  1  0
 15 16  2  0
 17 15  1  0
 17 18  1  0
 19 18  1  0
 20 19  1  0
 21 23  1  0
 21 20  1  1
 22 21  1  0
 23 24  2  0
 23 25  1  0
M  END
$$$$
