MAR.pdb
     RDKit          3D

 25 24  0  0  1  0  0  0  0  0999 V2000
   30.6818  -21.1585   -8.9679 C   0  0  0  0  0  0  0  0  0  0  0  0
   31.3794  -22.3238  -10.1610 S   0  0  0  0  0  0  0  0  0  0  0  0
   31.6244  -21.5112  -11.7390 C   0  0  0  0  0  0  0  0  0  0  0  0
   30.3776  -20.7566  -12.1931 C   0  0  0  0  0  0  0  0  0  0  0  0
   29.7464  -21.5266  -13.3520 C   0  0  2  0  0  0  0  0  0  0  0  0
   30.7624  -22.1761  -14.1529 N   0  0  0  0  0  0  0  0  0  0  0  0
   28.9313  -20.6647  -14.2129 C   0  0  0  0  0  0  0  0  0  0  0  0
   29.0253  -19.4061  -14.0050 O   0  0  0  0  0  0  0  0  0  0  0  0
   27.1704  -20.4382  -17.3444 C   0  0  0  0  0  0  0  0  0  0  0  0
   27.0273  -20.2489  -15.8284 C   0  0  2  0  0  0  0  0  0  0  0  0
   28.0614  -21.0740  -15.2374 N   0  0  0  0  0  0  0  0  0  0  0  0
   25.7099  -20.7338  -15.3593 C   0  0  0  0  0  0  0  0  0  0  0  0
   25.6228  -21.8284  -14.7928 O   0  0  0  0  0  0  0  0  0  0  0  0
   23.5641  -21.0623   -8.3126 N   0  0  0  0  0  0  0  0  0  0  0  0
   24.4901  -21.1486   -9.3892 C   0  0  0  0  0  0  0  0  0  0  0  0
   25.7609  -21.2259   -9.1844 N   0  0  0  0  0  0  0  0  0  0  0  0
   23.9984  -21.1503  -10.7200 N   0  0  0  0  0  0  0  0  0  0  0  0
   22.8315  -20.3577  -11.0204 C   0  0  0  0  0  0  0  0  0  0  0  0
   22.3880  -20.4946  -12.4720 C   0  0  0  0  0  0  0  0  0  0  0  0
   23.5812  -20.1624  -13.3242 C   0  0  0  0  0  0  0  0  0  0  0  0
   23.3134  -20.2227  -14.7962 C   0  0  2  0  0  0  0  0  0  0  0  0
   24.5127  -19.9519  -15.5491 N   0  0  0  0  0  0  0  0  0  0  0  0
   22.2096  -19.3882  -15.2527 C   0  0  0  0  0  0  0  0  0  0  0  0
   22.4741  -18.3309  -15.8826 O   0  0  0  0  0  0  0  0  0  0  0  0
   20.8695  -19.6566  -15.0531 O   0  0  0  0  0  0  0  0  0  0  0  0
  2  1  1  0
  2  3  1  0
  4  3  1  0
  4  5  1  0
  5  6  1  6
  7  5  1  0
  7  8  2  0
 10  9  1  6
 10 11  1  0
 10 12  1  0
 11  7  1  0
 12 22  1  0
 13 12  2  0
 14 15  1  0
 15 16  2  0
 17 15  1  0
 17 18  1  0
 19 18  1  0
 20 19  1  0
 21 23  1  0
 21 20  1  1
 22 21  1  0
 23 24  2  0
 23 25  1  0
M  END
$$$$
