MAR.pdb
     RDKit          3D

 25 24  0  0  1  0  0  0  0  0999 V2000
   29.6726  -20.7259   -4.6920 C   0  0  0  0  0  0  0  0  0  0  0  0
   28.1279  -19.9863   -4.1134 S   0  0  0  0  0  0  0  0  0  0  0  0
   27.0154  -19.7325   -5.4948 C   0  0  0  0  0  0  0  0  0  0  0  0
   27.6672  -20.0929   -6.8272 C   0  0  0  0  0  0  0  0  0  0  0  0
   26.6897  -19.7451   -7.9489 C   0  0  2  0  0  0  0  0  0  0  0  0
   25.3354  -20.0996   -7.5803 N   0  0  0  0  0  0  0  0  0  0  0  0
   27.0348  -20.4056   -9.2111 C   0  0  0  0  0  0  0  0  0  0  0  0
   28.1826  -20.1249   -9.7009 O   0  0  0  0  0  0  0  0  0  0  0  0
   25.7208  -22.8110  -11.7007 C   0  0  0  0  0  0  0  0  0  0  0  0
   26.1688  -21.3785  -11.3816 C   0  0  2  0  0  0  0  0  0  0  0  0
   26.2409  -21.3098   -9.9361 N   0  0  0  0  0  0  0  0  0  0  0  0
   25.1666  -20.3962  -11.8521 C   0  0  0  0  0  0  0  0  0  0  0  0
   24.8873  -19.4178  -11.1512 O   0  0  0  0  0  0  0  0  0  0  0  0
   27.5397  -16.2727  -16.2151 N   0  0  0  0  0  0  0  0  0  0  0  0
   26.9939  -16.8531  -17.3938 C   0  0  0  0  0  0  0  0  0  0  0  0
   27.6928  -16.9853  -18.4693 N   0  0  0  0  0  0  0  0  0  0  0  0
   25.6465  -17.2970  -17.3807 N   0  0  0  0  0  0  0  0  0  0  0  0
   24.9424  -17.3127  -16.1220 C   0  0  0  0  0  0  0  0  0  0  0  0
   25.5253  -18.3191  -15.1371 C   0  0  0  0  0  0  0  0  0  0  0  0
   24.6654  -18.2694  -13.9048 C   0  0  0  0  0  0  0  0  0  0  0  0
   23.7804  -19.4648  -13.7317 C   0  0  2  0  0  0  0  0  0  0  0  0
   24.5010  -20.5546  -13.1220 N   0  0  0  0  0  0  0  0  0  0  0  0
   23.0973  -19.9017  -14.9423 C   0  0  0  0  0  0  0  0  0  0  0  0
   23.6316  -20.7991  -15.6451 O   0  0  0  0  0  0  0  0  0  0  0  0
   21.8902  -19.4106  -15.3999 O   0  0  0  0  0  0  0  0  0  0  0  0
  2  1  1  0
  2  3  1  0
  4  3  1  0
  4  5  1  0
  5  6  1  1
  7  5  1  0
  7  8  2  0
 10  9  1  1
 10 11  1  0
 10 12  1  0
 11  7  1  0
 12 22  1  0
 13 12  2  0
 14 15  1  0
 15 16  2  0
 17 15  1  0
 17 18  1  0
 19 18  1  0
 20 19  1  0
 21 23  1  0
 21 20  1  6
 22 21  1  0
 23 24  2  0
 23 25  1  0
M  END
$$$$
