MAR.pdb
     RDKit          3D

 25 24  0  0  1  0  0  0  0  0999 V2000
   27.7582  -20.5606   -8.3155 C   0  0  0  0  0  0  0  0  0  0  0  0
   28.9847  -21.1030   -9.5277 S   0  0  0  0  0  0  0  0  0  0  0  0
   28.1968  -21.3846  -11.1120 C   0  0  0  0  0  0  0  0  0  0  0  0
   26.7460  -20.9100  -11.1213 C   0  0  0  0  0  0  0  0  0  0  0  0
   26.1872  -21.1031  -12.5301 C   0  0  2  0  0  0  0  0  0  0  0  0
   27.0155  -20.4320  -13.5094 N   0  0  0  0  0  0  0  0  0  0  0  0
   24.8086  -20.6202  -12.6519 C   0  0  0  0  0  0  0  0  0  0  0  0
   24.6013  -19.4073  -12.3024 O   0  0  0  0  0  0  0  0  0  0  0  0
   21.8383  -20.5873  -14.3781 C   0  0  0  0  0  0  0  0  0  0  0  0
   22.3158  -20.9326  -12.9613 C   0  0  2  0  0  0  0  0  0  0  0  0
   23.6965  -21.3462  -13.1097 N   0  0  0  0  0  0  0  0  0  0  0  0
   21.5404  -22.0642  -12.4055 C   0  0  0  0  0  0  0  0  0  0  0  0
   21.8239  -23.2226  -12.7289 O   0  0  0  0  0  0  0  0  0  0  0  0
   16.3996  -24.7435   -7.2825 N   0  0  0  0  0  0  0  0  0  0  0  0
   17.3949  -25.3966   -6.5034 C   0  0  0  0  0  0  0  0  0  0  0  0
   17.1349  -26.4665   -5.8322 N   0  0  0  0  0  0  0  0  0  0  0  0
   18.7053  -24.8541   -6.4678 N   0  0  0  0  0  0  0  0  0  0  0  0
   18.9774  -23.6687   -7.2430 C   0  0  0  0  0  0  0  0  0  0  0  0
   18.8742  -23.9135   -8.7437 C   0  0  0  0  0  0  0  0  0  0  0  0
   19.6409  -22.8099   -9.4178 C   0  0  0  0  0  0  0  0  0  0  0  0
   19.7266  -22.9497  -10.9063 C   0  0  2  0  0  0  0  0  0  0  0  0
   20.4505  -21.8460  -11.4861 N   0  0  0  0  0  0  0  0  0  0  0  0
   18.4485  -23.1472  -11.5776 C   0  0  0  0  0  0  0  0  0  0  0  0
   17.8119  -22.1351  -11.9712 O   0  0  0  0  0  0  0  0  0  0  0  0
   17.8579  -24.3706  -11.8271 O   0  0  0  0  0  0  0  0  0  0  0  0
  2  1  1  0
  2  3  1  0
  4  3  1  0
  4  5  1  0
  5  6  1  6
  7  5  1  0
  7  8  2  0
 10  9  1  6
 10 11  1  0
 10 12  1  0
 11  7  1  0
 12 22  1  0
 13 12  2  0
 14 15  1  0
 15 16  2  0
 17 15  1  0
 17 18  1  0
 19 18  1  0
 20 19  1  0
 21 23  1  0
 21 20  1  1
 22 21  1  0
 23 24  2  0
 23 25  1  0
M  END
$$$$
