MAR.pdb
     RDKit          3D

 25 24  0  0  1  0  0  0  0  0999 V2000
   30.3491  -20.6663   -9.8800 C   0  0  0  0  0  0  0  0  0  0  0  0
   29.8686  -21.9360  -11.0737 S   0  0  0  0  0  0  0  0  0  0  0  0
   29.5907  -21.1924  -12.6800 C   0  0  0  0  0  0  0  0  0  0  0  0
   28.2487  -20.4683  -12.7502 C   0  0  0  0  0  0  0  0  0  0  0  0
   28.0637  -19.9378  -14.1711 C   0  0  2  0  0  0  0  0  0  0  0  0
   29.0561  -18.9295  -14.4777 N   0  0  0  0  0  0  0  0  0  0  0  0
   26.7258  -19.3790  -14.3856 C   0  0  0  0  0  0  0  0  0  0  0  0
   26.4388  -18.3264  -13.7177 O   0  0  0  0  0  0  0  0  0  0  0  0
   24.2365  -19.0409  -16.8893 C   0  0  0  0  0  0  0  0  0  0  0  0
   24.4025  -19.3141  -15.3885 C   0  0  2  0  0  0  0  0  0  0  0  0
   25.7302  -19.8758  -15.2432 N   0  0  0  0  0  0  0  0  0  0  0  0
   23.4135  -20.3117  -14.9224 C   0  0  0  0  0  0  0  0  0  0  0  0
   23.6377  -21.5175  -15.0725 O   0  0  0  0  0  0  0  0  0  0  0  0
   16.3292  -21.6002  -11.8792 N   0  0  0  0  0  0  0  0  0  0  0  0
   17.0523  -22.4994  -11.0469 C   0  0  0  0  0  0  0  0  0  0  0  0
   16.7966  -23.7632  -11.0333 N   0  0  0  0  0  0  0  0  0  0  0  0
   18.0802  -21.9885  -10.2132 N   0  0  0  0  0  0  0  0  0  0  0  0
   19.0460  -21.0864  -10.7908 C   0  0  0  0  0  0  0  0  0  0  0  0
   19.4851  -21.5132  -12.1864 C   0  0  0  0  0  0  0  0  0  0  0  0
   20.5279  -20.5273  -12.6344 C   0  0  0  0  0  0  0  0  0  0  0  0
   21.1645  -20.8689  -13.9461 C   0  0  2  0  0  0  0  0  0  0  0  0
   22.1815  -19.9069  -14.2906 N   0  0  0  0  0  0  0  0  0  0  0  0
   20.2310  -21.0606  -15.0485 C   0  0  0  0  0  0  0  0  0  0  0  0
   19.8487  -20.0516  -15.6967 O   0  0  0  0  0  0  0  0  0  0  0  0
   19.7155  -22.2753  -15.4566 O   0  0  0  0  0  0  0  0  0  0  0  0
  2  1  1  0
  2  3  1  0
  4  3  1  0
  4  5  1  0
  5  6  1  1
  7  5  1  0
  7  8  2  0
 10  9  1  6
 10 11  1  0
 10 12  1  0
 11  7  1  0
 12 22  1  0
 13 12  2  0
 14 15  1  0
 15 16  2  0
 17 15  1  0
 17 18  1  0
 19 18  1  0
 20 19  1  0
 21 23  1  0
 21 20  1  1
 22 21  1  0
 23 24  2  0
 23 25  1  0
M  END
$$$$
