MAR.pdb
     RDKit          3D

 25 24  0  0  1  0  0  0  0  0999 V2000
   28.3469  -26.2665  -17.9684 C   0  0  0  0  0  0  0  0  0  0  0  0
   27.6363  -25.2323  -16.6670 S   0  0  0  0  0  0  0  0  0  0  0  0
   27.5892  -23.5226  -17.2008 C   0  0  0  0  0  0  0  0  0  0  0  0
   27.0282  -22.6017  -16.1203 C   0  0  0  0  0  0  0  0  0  0  0  0
   27.0564  -21.1686  -16.6495 C   0  0  2  0  0  0  0  0  0  0  0  0
   28.2472  -20.4777  -16.2022 N   0  0  0  0  0  0  0  0  0  0  0  0
   25.8737  -20.4035  -16.2442 C   0  0  0  0  0  0  0  0  0  0  0  0
   25.8557  -19.9887  -15.0344 O   0  0  0  0  0  0  0  0  0  0  0  0
   23.2318  -18.3789  -17.6737 C   0  0  0  0  0  0  0  0  0  0  0  0
   23.5770  -19.3913  -16.5735 C   0  0  2  0  0  0  0  0  0  0  0  0
   24.7630  -20.0798  -17.0412 N   0  0  0  0  0  0  0  0  0  0  0  0
   22.4893  -20.3816  -16.4091 C   0  0  0  0  0  0  0  0  0  0  0  0
   22.3930  -21.3270  -17.1988 O   0  0  0  0  0  0  0  0  0  0  0  0
   17.9726  -24.5971  -12.5164 N   0  0  0  0  0  0  0  0  0  0  0  0
   18.8300  -25.7325  -12.5177 C   0  0  0  0  0  0  0  0  0  0  0  0
   18.3620  -26.9340  -12.5161 N   0  0  0  0  0  0  0  0  0  0  0  0
   20.2346  -25.5329  -12.5218 N   0  0  0  0  0  0  0  0  0  0  0  0
   20.7348  -24.1846  -12.6319 C   0  0  0  0  0  0  0  0  0  0  0  0
   20.3507  -23.5229  -13.9499 C   0  0  0  0  0  0  0  0  0  0  0  0
   20.9116  -22.1284  -13.9158 C   0  0  0  0  0  0  0  0  0  0  0  0
   20.5439  -21.2954  -15.1046 C   0  0  2  0  0  0  0  0  0  0  0  0
   21.5291  -20.2692  -15.3386 N   0  0  0  0  0  0  0  0  0  0  0  0
   19.2007  -20.7319  -15.0658 C   0  0  0  0  0  0  0  0  0  0  0  0
   19.0598  -19.5347  -14.7034 O   0  0  0  0  0  0  0  0  0  0  0  0
   18.0416  -21.4061  -15.3975 O   0  0  0  0  0  0  0  0  0  0  0  0
  2  1  1  0
  2  3  1  0
  4  3  1  0
  4  5  1  0
  5  6  1  1
  7  5  1  0
  7  8  2  0
 10  9  1  6
 10 11  1  0
 10 12  1  0
 11  7  1  0
 12 22  1  0
 13 12  2  0
 14 15  1  0
 15 16  2  0
 17 15  1  0
 17 18  1  0
 19 18  1  0
 20 19  1  0
 21 23  1  0
 21 20  1  1
 22 21  1  0
 23 24  2  0
 23 25  1  0
M  END
$$$$
