MAR.pdb
     RDKit          3D

 25 24  0  0  1  0  0  0  0  0999 V2000
   20.9675  -22.5440  -18.5794 C   0  0  0  0  0  0  0  0  0  0  0  0
   22.1117  -21.2814  -19.1834 S   0  0  0  0  0  0  0  0  0  0  0  0
   22.8836  -20.4429  -17.8010 C   0  0  0  0  0  0  0  0  0  0  0  0
   22.3076  -20.8979  -16.4625 C   0  0  0  0  0  0  0  0  0  0  0  0
   22.9671  -20.0797  -15.3535 C   0  0  2  0  0  0  0  0  0  0  0  0
   24.3451  -20.4820  -15.1665 N   0  0  0  0  0  0  0  0  0  0  0  0
   22.2534  -20.1954  -14.0785 C   0  0  0  0  0  0  0  0  0  0  0  0
   22.6761  -21.0949  -13.2733 O   0  0  0  0  0  0  0  0  0  0  0  0
   19.4826  -18.4313  -12.2941 C   0  0  0  0  0  0  0  0  0  0  0  0
   20.4329  -19.6302  -12.4130 C   0  0  2  0  0  0  0  0  0  0  0  0
   21.1588  -19.4259  -13.6502 N   0  0  0  0  0  0  0  0  0  0  0  0
   19.6729  -20.8963  -12.5143 C   0  0  0  0  0  0  0  0  0  0  0  0
   19.2790  -21.2913  -13.6168 O   0  0  0  0  0  0  0  0  0  0  0  0
   18.9651  -25.8019   -5.6658 N   0  0  0  0  0  0  0  0  0  0  0  0
   17.6643  -25.5442   -6.1812 C   0  0  0  0  0  0  0  0  0  0  0  0
   16.6207  -26.1395   -5.7130 N   0  0  0  0  0  0  0  0  0  0  0  0
   17.5163  -24.6072   -7.2361 N   0  0  0  0  0  0  0  0  0  0  0  0
   18.7053  -24.0160   -7.7993 C   0  0  0  0  0  0  0  0  0  0  0  0
   18.3961  -23.0413   -8.9293 C   0  0  0  0  0  0  0  0  0  0  0  0
   18.7556  -23.7363  -10.2132 C   0  0  0  0  0  0  0  0  0  0  0  0
   18.5813  -22.8871  -11.4342 C   0  0  2  0  0  0  0  0  0  0  0  0
   19.3778  -21.6887  -11.3456 N   0  0  0  0  0  0  0  0  0  0  0  0
   17.1985  -22.5725  -11.7693 C   0  0  0  0  0  0  0  0  0  0  0  0
   16.7385  -21.4491  -11.4363 O   0  0  0  0  0  0  0  0  0  0  0  0
   16.3265  -23.4128  -12.4335 O   0  0  0  0  0  0  0  0  0  0  0  0
  2  1  1  0
  2  3  1  0
  4  3  1  0
  4  5  1  0
  5  6  1  1
  7  5  1  0
  7  8  2  0
 10  9  1  6
 10 11  1  0
 10 12  1  0
 11  7  1  0
 12 22  1  0
 13 12  2  0
 14 15  1  0
 15 16  2  0
 17 15  1  0
 17 18  1  0
 19 18  1  0
 20 19  1  0
 21 23  1  0
 21 20  1  1
 22 21  1  0
 23 24  2  0
 23 25  1  0
M  END
$$$$
