MAR.pdb
     RDKit          3D

 25 24  0  0  1  0  0  0  0  0999 V2000
   21.7688  -20.5021   -8.3357 C   0  0  0  0  0  0  0  0  0  0  0  0
   22.8407  -21.5949   -7.3741 S   0  0  0  0  0  0  0  0  0  0  0  0
   24.4911  -21.6025   -8.0715 C   0  0  0  0  0  0  0  0  0  0  0  0
   24.4936  -21.1811   -9.5387 C   0  0  0  0  0  0  0  0  0  0  0  0
   25.9406  -21.1586  -10.0287 C   0  0  2  0  0  0  0  0  0  0  0  0
   26.7360  -20.2382   -9.2440 N   0  0  0  0  0  0  0  0  0  0  0  0
   26.0417  -20.7969  -11.4456 C   0  0  0  0  0  0  0  0  0  0  0  0
   26.0088  -19.5467  -11.7138 O   0  0  0  0  0  0  0  0  0  0  0  0
   26.7667  -22.4281  -14.7059 C   0  0  0  0  0  0  0  0  0  0  0  0
   26.0987  -21.2862  -13.9285 C   0  0  2  0  0  0  0  0  0  0  0  0
   26.1699  -21.6751  -12.5346 N   0  0  0  0  0  0  0  0  0  0  0  0
   24.6748  -21.1521  -14.3097 C   0  0  0  0  0  0  0  0  0  0  0  0
   23.8115  -21.7931  -13.7010 O   0  0  0  0  0  0  0  0  0  0  0  0
   19.7289  -14.4661  -15.5358 N   0  0  0  0  0  0  0  0  0  0  0  0
   18.8832  -15.5458  -15.1573 C   0  0  0  0  0  0  0  0  0  0  0  0
   17.7258  -15.3446  -14.6255 N   0  0  0  0  0  0  0  0  0  0  0  0
   19.3281  -16.8755  -15.3732 N   0  0  0  0  0  0  0  0  0  0  0  0
   20.6635  -17.0776  -15.8793 C   0  0  0  0  0  0  0  0  0  0  0  0
   20.9875  -18.5493  -16.1064 C   0  0  0  0  0  0  0  0  0  0  0  0
   22.3949  -18.7641  -15.6235 C   0  0  0  0  0  0  0  0  0  0  0  0
   22.8821  -20.1720  -15.7751 C   0  0  2  0  0  0  0  0  0  0  0  0
   24.2657  -20.2826  -15.3855 N   0  0  0  0  0  0  0  0  0  0  0  0
   22.6605  -20.7586  -17.0904 C   0  0  0  0  0  0  0  0  0  0  0  0
   21.5677  -21.3423  -17.3134 O   0  0  0  0  0  0  0  0  0  0  0  0
   23.5597  -20.7325  -18.1385 O   0  0  0  0  0  0  0  0  0  0  0  0
  2  1  1  0
  2  3  1  0
  4  3  1  0
  4  5  1  0
  5  6  1  1
  7  5  1  0
  7  8  2  0
 10  9  1  6
 10 11  1  0
 10 12  1  0
 11  7  1  0
 12 22  1  0
 13 12  2  0
 14 15  1  0
 15 16  2  0
 17 15  1  0
 17 18  1  0
 19 18  1  0
 20 19  1  0
 21 23  1  0
 21 20  1  6
 22 21  1  0
 23 24  2  0
 23 25  1  0
M  END
$$$$
