MAR.pdb
     RDKit          3D

 25 24  0  0  1  0  0  0  0  0999 V2000
   28.4910  -19.9443   -6.2332 C   0  0  0  0  0  0  0  0  0  0  0  0
   29.5887  -21.3737   -6.3736 S   0  0  0  0  0  0  0  0  0  0  0  0
   29.6920  -21.9007   -8.0830 C   0  0  0  0  0  0  0  0  0  0  0  0
   28.8356  -21.0329   -9.0014 C   0  0  0  0  0  0  0  0  0  0  0  0
   28.9792  -21.5583  -10.4289 C   0  0  2  0  0  0  0  0  0  0  0  0
   30.3713  -21.6047  -10.8231 N   0  0  0  0  0  0  0  0  0  0  0  0
   28.2305  -20.7505  -11.3961 C   0  0  0  0  0  0  0  0  0  0  0  0
   28.3052  -19.4817  -11.2514 O   0  0  0  0  0  0  0  0  0  0  0  0
   27.3981  -20.3619  -14.6730 C   0  0  0  0  0  0  0  0  0  0  0  0
   26.6455  -20.3869  -13.3360 C   0  0  2  0  0  0  0  0  0  0  0  0
   27.4429  -21.2212  -12.4600 N   0  0  0  0  0  0  0  0  0  0  0  0
   25.3112  -21.0076  -13.4945 C   0  0  0  0  0  0  0  0  0  0  0  0
   25.2164  -22.2270  -13.6702 O   0  0  0  0  0  0  0  0  0  0  0  0
   19.4818  -22.8701  -10.2455 N   0  0  0  0  0  0  0  0  0  0  0  0
   19.9981  -22.2924   -9.0523 C   0  0  0  0  0  0  0  0  0  0  0  0
   19.9577  -22.9174   -7.9251 N   0  0  0  0  0  0  0  0  0  0  0  0
   20.5720  -20.9961   -9.1089 N   0  0  0  0  0  0  0  0  0  0  0  0
   20.7151  -20.3658  -10.3982 C   0  0  0  0  0  0  0  0  0  0  0  0
   21.7304  -21.0740  -11.2871 C   0  0  0  0  0  0  0  0  0  0  0  0
   21.8632  -20.2496  -12.5373 C   0  0  0  0  0  0  0  0  0  0  0  0
   22.8041  -20.8264  -13.5495 C   0  0  2  0  0  0  0  0  0  0  0  0
   24.1062  -20.2160  -13.4484 N   0  0  0  0  0  0  0  0  0  0  0  0
   22.3185  -20.7984  -14.9231 C   0  0  0  0  0  0  0  0  0  0  0  0
   22.7096  -19.8731  -15.6817 O   0  0  0  0  0  0  0  0  0  0  0  0
   21.4487  -21.7144  -15.4817 O   0  0  0  0  0  0  0  0  0  0  0  0
  2  1  1  0
  2  3  1  0
  4  3  1  0
  4  5  1  0
  5  6  1  6
  7  5  1  0
  7  8  2  0
 10  9  1  6
 10 11  1  0
 10 12  1  0
 11  7  1  0
 12 22  1  0
 13 12  2  0
 14 15  1  0
 15 16  2  0
 17 15  1  0
 17 18  1  0
 19 18  1  0
 20 19  1  0
 21 23  1  0
 21 20  1  1
 22 21  1  0
 23 24  2  0
 23 25  1  0
M  END
$$$$
