MAR.pdb
     RDKit          3D

 25 24  0  0  1  0  0  0  0  0999 V2000
   27.1862  -18.3611   -6.1482 C   0  0  0  0  0  0  0  0  0  0  0  0
   27.5261  -20.1343   -6.0579 S   0  0  0  0  0  0  0  0  0  0  0  0
   26.8429  -20.9626   -7.4923 C   0  0  0  0  0  0  0  0  0  0  0  0
   26.5913  -19.9945   -8.6454 C   0  0  0  0  0  0  0  0  0  0  0  0
   26.0344  -20.7889   -9.8257 C   0  0  2  0  0  0  0  0  0  0  0  0
   26.5979  -22.1218   -9.8613 N   0  0  0  0  0  0  0  0  0  0  0  0
   26.2833  -20.1254  -11.1088 C   0  0  0  0  0  0  0  0  0  0  0  0
   25.7365  -18.9801  -11.2687 O   0  0  0  0  0  0  0  0  0  0  0  0
   28.4873  -20.5426  -14.0690 C   0  0  0  0  0  0  0  0  0  0  0  0
   27.2057  -19.9584  -13.4601 C   0  0  2  0  0  0  0  0  0  0  0  0
   27.0553  -20.6131  -12.1763 N   0  0  0  0  0  0  0  0  0  0  0  0
   26.0292  -20.2835  -14.2974 C   0  0  0  0  0  0  0  0  0  0  0  0
   25.6135  -21.4459  -14.3502 O   0  0  0  0  0  0  0  0  0  0  0  0
   20.1935  -21.0160  -11.0993 N   0  0  0  0  0  0  0  0  0  0  0  0
   19.8700  -21.8753  -12.1861 C   0  0  0  0  0  0  0  0  0  0  0  0
   18.7124  -22.4345  -12.2855 N   0  0  0  0  0  0  0  0  0  0  0  0
   20.8486  -22.1195  -13.1839 N   0  0  0  0  0  0  0  0  0  0  0  0
   22.0559  -21.3304  -13.1673 C   0  0  0  0  0  0  0  0  0  0  0  0
   21.8961  -19.9997  -13.8925 C   0  0  0  0  0  0  0  0  0  0  0  0
   23.2414  -19.3287  -13.8710 C   0  0  0  0  0  0  0  0  0  0  0  0
   23.9147  -19.2725  -15.2074 C   0  0  2  0  0  0  0  0  0  0  0  0
   25.3489  -19.2664  -15.0611 N   0  0  0  0  0  0  0  0  0  0  0  0
   23.4723  -18.1854  -16.0709 C   0  0  0  0  0  0  0  0  0  0  0  0
   22.2905  -18.2029  -16.5042 O   0  0  0  0  0  0  0  0  0  0  0  0
   24.2481  -17.1133  -16.4667 O   0  0  0  0  0  0  0  0  0  0  0  0
  2  1  1  0
  2  3  1  0
  4  3  1  0
  4  5  1  0
  5  6  1  6
  7  5  1  0
  7  8  2  0
 10  9  1  6
 10 11  1  0
 10 12  1  0
 11  7  1  0
 12 22  1  0
 13 12  2  0
 14 15  1  0
 15 16  2  0
 17 15  1  0
 17 18  1  0
 19 18  1  0
 20 19  1  0
 21 23  1  0
 21 20  1  1
 22 21  1  0
 23 24  2  0
 23 25  1  0
M  END
$$$$
