MAR.pdb
     RDKit          3D

 25 24  0  0  1  0  0  0  0  0999 V2000
   28.7862  -17.9528   -6.5524 C   0  0  0  0  0  0  0  0  0  0  0  0
   28.4014  -19.4003   -5.5403 S   0  0  0  0  0  0  0  0  0  0  0  0
   26.8241  -20.0915   -6.0348 C   0  0  0  0  0  0  0  0  0  0  0  0
   26.6627  -20.1190   -7.5525 C   0  0  0  0  0  0  0  0  0  0  0  0
   25.2600  -20.6306   -7.8765 C   0  0  2  0  0  0  0  0  0  0  0  0
   24.9523  -21.8151   -7.1034 N   0  0  0  0  0  0  0  0  0  0  0  0
   25.0926  -20.9279   -9.3021 C   0  0  0  0  0  0  0  0  0  0  0  0
   25.6642  -21.9895   -9.7292 O   0  0  0  0  0  0  0  0  0  0  0  0
   22.5191  -20.9115  -11.5287 C   0  0  0  0  0  0  0  0  0  0  0  0
   24.0251  -20.6213  -11.5767 C   0  0  2  0  0  0  0  0  0  0  0  0
   24.3742  -20.1727  -10.2439 N   0  0  0  0  0  0  0  0  0  0  0  0
   24.3213  -19.5325  -12.5347 C   0  0  0  0  0  0  0  0  0  0  0  0
   24.0826  -18.3599  -12.2269 O   0  0  0  0  0  0  0  0  0  0  0  0
   29.2167  -16.6805  -18.8163 N   0  0  0  0  0  0  0  0  0  0  0  0
   29.6558  -17.3945  -17.6667 C   0  0  0  0  0  0  0  0  0  0  0  0
   30.7924  -17.1479  -17.1100 N   0  0  0  0  0  0  0  0  0  0  0  0
   28.8182  -18.4017  -17.1219 N   0  0  0  0  0  0  0  0  0  0  0  0
   27.5232  -18.6138  -17.7206 C   0  0  0  0  0  0  0  0  0  0  0  0
   26.3837  -18.0977  -16.8501 C   0  0  0  0  0  0  0  0  0  0  0  0
   26.1722  -19.1146  -15.7631 C   0  0  0  0  0  0  0  0  0  0  0  0
   25.0744  -18.7639  -14.8070 C   0  0  2  0  0  0  0  0  0  0  0  0
   24.8874  -19.8094  -13.8321 N   0  0  0  0  0  0  0  0  0  0  0  0
   23.8099  -18.4002  -15.4330 C   0  0  0  0  0  0  0  0  0  0  0  0
   22.9836  -19.3125  -15.6964 O   0  0  0  0  0  0  0  0  0  0  0  0
   23.4260  -17.1173  -15.7716 O   0  0  0  0  0  0  0  0  0  0  0  0
  2  1  1  0
  2  3  1  0
  4  3  1  0
  4  5  1  0
  5  6  1  1
  7  5  1  0
  7  8  2  0
 10  9  1  1
 10 11  1  0
 10 12  1  0
 11  7  1  0
 12 22  1  0
 13 12  2  0
 14 15  1  0
 15 16  2  0
 17 15  1  0
 17 18  1  0
 19 18  1  0
 20 19  1  0
 21 23  1  0
 21 20  1  6
 22 21  1  0
 23 24  2  0
 23 25  1  0
M  END
$$$$
