MAR.pdb
     RDKit          3D

 25 24  0  0  1  0  0  0  0  0999 V2000
   29.2061  -18.9656  -11.7524 C   0  0  0  0  0  0  0  0  0  0  0  0
   29.5853  -20.0343  -13.1603 S   0  0  0  0  0  0  0  0  0  0  0  0
   28.4439  -21.4147  -13.2060 C   0  0  0  0  0  0  0  0  0  0  0  0
   27.0002  -20.9566  -13.3960 C   0  0  0  0  0  0  0  0  0  0  0  0
   26.0857  -22.1680  -13.2207 C   0  0  2  0  0  0  0  0  0  0  0  0
   26.3060  -23.1365  -14.2737 N   0  0  0  0  0  0  0  0  0  0  0  0
   24.6683  -21.7951  -13.1969 C   0  0  0  0  0  0  0  0  0  0  0  0
   24.0566  -21.8254  -14.3198 O   0  0  0  0  0  0  0  0  0  0  0  0
   22.1774  -20.6194  -10.6632 C   0  0  0  0  0  0  0  0  0  0  0  0
   22.5291  -20.9880  -12.1106 C   0  0  2  0  0  0  0  0  0  0  0  0
   23.9149  -21.4094  -12.0756 N   0  0  0  0  0  0  0  0  0  0  0  0
   22.4160  -19.8079  -12.9968 C   0  0  0  0  0  0  0  0  0  0  0  0
   23.1966  -18.8596  -12.8618 O   0  0  0  0  0  0  0  0  0  0  0  0
   22.9822  -15.6818  -19.6807 N   0  0  0  0  0  0  0  0  0  0  0  0
   24.1224  -16.3911  -19.2106 C   0  0  0  0  0  0  0  0  0  0  0  0
   25.3124  -15.9060  -19.3168 N   0  0  0  0  0  0  0  0  0  0  0  0
   23.9406  -17.6634  -18.6098 N   0  0  0  0  0  0  0  0  0  0  0  0
   22.5960  -18.1610  -18.4522 C   0  0  0  0  0  0  0  0  0  0  0  0
   21.9457  -17.6915  -17.1564 C   0  0  0  0  0  0  0  0  0  0  0  0
   21.9809  -18.8557  -16.2057 C   0  0  0  0  0  0  0  0  0  0  0  0
   21.3038  -18.5928  -14.8963 C   0  0  2  0  0  0  0  0  0  0  0  0
   21.4067  -19.7367  -14.0249 N   0  0  0  0  0  0  0  0  0  0  0  0
   19.9236  -18.1375  -15.0010 C   0  0  0  0  0  0  0  0  0  0  0  0
   19.6980  -17.0120  -15.5177 O   0  0  0  0  0  0  0  0  0  0  0  0
   18.8151  -18.8433  -14.5757 O   0  0  0  0  0  0  0  0  0  0  0  0
  2  1  1  0
  2  3  1  0
  4  3  1  0
  4  5  1  0
  5  6  1  6
  7  5  1  0
  7  8  2  0
 10  9  1  1
 10 11  1  0
 10 12  1  0
 11  7  1  0
 12 22  1  0
 13 12  2  0
 14 15  1  0
 15 16  2  0
 17 15  1  0
 17 18  1  0
 19 18  1  0
 20 19  1  0
 21 23  1  0
 21 20  1  6
 22 21  1  0
 23 24  2  0
 23 25  1  0
M  END
$$$$
