MAR.pdb
     RDKit          3D

 25 24  0  0  1  0  0  0  0  0999 V2000
   31.7552  -21.8498   -8.1780 C   0  0  0  0  0  0  0  0  0  0  0  0
   31.8213  -21.4335   -9.9359 S   0  0  0  0  0  0  0  0  0  0  0  0
   30.2254  -21.7282  -10.6954 C   0  0  0  0  0  0  0  0  0  0  0  0
   29.1300  -20.8628  -10.0779 C   0  0  0  0  0  0  0  0  0  0  0  0
   27.8073  -21.2021  -10.7632 C   0  0  2  0  0  0  0  0  0  0  0  0
   27.8374  -22.5440  -11.3052 N   0  0  0  0  0  0  0  0  0  0  0  0
   27.4777  -20.2566  -11.8337 C   0  0  0  0  0  0  0  0  0  0  0  0
   26.8502  -19.1992  -11.4809 O   0  0  0  0  0  0  0  0  0  0  0  0
   28.4220  -19.5765  -15.3355 C   0  0  0  0  0  0  0  0  0  0  0  0
   27.3575  -19.4672  -14.2357 C   0  0  2  0  0  0  0  0  0  0  0  0
   27.7769  -20.3894  -13.1999 N   0  0  0  0  0  0  0  0  0  0  0  0
   26.0331  -19.8938  -14.7406 C   0  0  0  0  0  0  0  0  0  0  0  0
   25.7404  -21.0940  -14.7635 O   0  0  0  0  0  0  0  0  0  0  0  0
   18.8052  -20.3730  -13.7825 N   0  0  0  0  0  0  0  0  0  0  0  0
   19.1690  -21.6641  -13.3085 C   0  0  0  0  0  0  0  0  0  0  0  0
   18.3635  -22.6676  -13.3922 N   0  0  0  0  0  0  0  0  0  0  0  0
   20.4516  -21.8477  -12.7306 N   0  0  0  0  0  0  0  0  0  0  0  0
   21.3437  -20.7161  -12.6687 C   0  0  0  0  0  0  0  0  0  0  0  0
   21.6886  -20.1657  -14.0473 C   0  0  0  0  0  0  0  0  0  0  0  0
   23.1539  -19.8295  -14.0269 C   0  0  0  0  0  0  0  0  0  0  0  0
   23.6672  -19.2672  -15.3163 C   0  0  2  0  0  0  0  0  0  0  0  0
   25.0657  -18.9330  -15.2116 N   0  0  0  0  0  0  0  0  0  0  0  0
   22.8998  -18.1469  -15.8446 C   0  0  0  0  0  0  0  0  0  0  0  0
   23.2610  -16.9773  -15.5508 O   0  0  0  0  0  0  0  0  0  0  0  0
   21.7873  -18.2526  -16.6564 O   0  0  0  0  0  0  0  0  0  0  0  0
  2  1  1  0
  2  3  1  0
  4  3  1  0
  4  5  1  0
  5  6  1  6
  7  5  1  0
  7  8  2  0
 10  9  1  6
 10 11  1  0
 10 12  1  0
 11  7  1  0
 12 22  1  0
 13 12  2  0
 14 15  1  0
 15 16  2  0
 17 15  1  0
 17 18  1  0
 19 18  1  0
 20 19  1  0
 21 23  1  0
 21 20  1  1
 22 21  1  0
 23 24  2  0
 23 25  1  0
M  END
$$$$
