MAR.pdb
     RDKit          3D

 25 24  0  0  1  0  0  0  0  0999 V2000
   27.1482  -18.3812   -8.6092 C   0  0  0  0  0  0  0  0  0  0  0  0
   26.4993  -19.8439   -7.7682 S   0  0  0  0  0  0  0  0  0  0  0  0
   26.0645  -21.0991   -8.9706 C   0  0  0  0  0  0  0  0  0  0  0  0
   25.4221  -20.4976  -10.2179 C   0  0  0  0  0  0  0  0  0  0  0  0
   25.2632  -21.6060  -11.2575 C   0  0  2  0  0  0  0  0  0  0  0  0
   26.5410  -22.2150  -11.5605 N   0  0  0  0  0  0  0  0  0  0  0  0
   24.6539  -21.1200  -12.4988 C   0  0  0  0  0  0  0  0  0  0  0  0
   25.4622  -20.7501  -13.4186 O   0  0  0  0  0  0  0  0  0  0  0  0
   21.2915  -21.0143  -14.0777 C   0  0  0  0  0  0  0  0  0  0  0  0
   22.7244  -20.4703  -14.0030 C   0  0  2  0  0  0  0  0  0  0  0  0
   23.2818  -21.0180  -12.7829 N   0  0  0  0  0  0  0  0  0  0  0  0
   22.7223  -18.9937  -13.9006 C   0  0  0  0  0  0  0  0  0  0  0  0
   22.9360  -18.4519  -12.8109 O   0  0  0  0  0  0  0  0  0  0  0  0
   27.2533  -20.9501  -14.2628 N   0  0  0  0  0  0  0  0  0  0  0  0
   28.0130  -20.2263  -15.2237 C   0  0  0  0  0  0  0  0  0  0  0  0
   28.6615  -20.8247  -16.1639 N   0  0  0  0  0  0  0  0  0  0  0  0
   28.0544  -18.8105  -15.1419 N   0  0  0  0  0  0  0  0  0  0  0  0
   26.9447  -18.1271  -14.5240 C   0  0  0  0  0  0  0  0  0  0  0  0
   25.7577  -17.9663  -15.4661 C   0  0  0  0  0  0  0  0  0  0  0  0
   24.6862  -17.2455  -14.6961 C   0  0  0  0  0  0  0  0  0  0  0  0
   23.3895  -17.1159  -15.4337 C   0  0  2  0  0  0  0  0  0  0  0  0
   22.4743  -18.1630  -15.0535 N   0  0  0  0  0  0  0  0  0  0  0  0
   23.5149  -17.0315  -16.8829 C   0  0  0  0  0  0  0  0  0  0  0  0
   22.5055  -17.2856  -17.5909 O   0  0  0  0  0  0  0  0  0  0  0  0
   24.6656  -16.6907  -17.5667 O   0  0  0  0  0  0  0  0  0  0  0  0
  2  1  1  0
  2  3  1  0
  4  3  1  0
  4  5  1  0
  5  6  1  6
  7  5  1  0
  7  8  2  0
 10  9  1  1
 10 11  1  0
 10 12  1  0
 11  7  1  0
 12 22  1  0
 13 12  2  0
 14 15  1  0
 15 16  2  0
 17 15  1  0
 17 18  1  0
 19 18  1  0
 20 19  1  0
 21 23  1  0
 21 20  1  1
 22 21  1  0
 23 24  2  0
 23 25  1  0
M  END
$$$$
