MAR.pdb
     RDKit          3D

 25 24  0  0  1  0  0  0  0  0999 V2000
   26.7355  -10.6763  -14.9631 C   0  0  0  0  0  0  0  0  0  0  0  0
   25.5426  -11.7558  -15.7875 S   0  0  0  0  0  0  0  0  0  0  0  0
   24.0908  -10.8172  -16.2584 C   0  0  0  0  0  0  0  0  0  0  0  0
   23.5461   -9.9870  -15.0990 C   0  0  0  0  0  0  0  0  0  0  0  0
   22.3108   -9.2325  -15.5882 C   0  0  2  0  0  0  0  0  0  0  0  0
   22.5500   -8.6398  -16.8870 N   0  0  0  0  0  0  0  0  0  0  0  0
   21.8911   -8.1869  -14.6506 C   0  0  0  0  0  0  0  0  0  0  0  0
   21.4826   -8.5848  -13.5055 O   0  0  0  0  0  0  0  0  0  0  0  0
   22.1024   -4.4803  -14.4184 C   0  0  0  0  0  0  0  0  0  0  0  0
   21.5159   -5.7993  -13.8981 C   0  0  2  0  0  0  0  0  0  0  0  0
   21.8899   -6.8004  -14.8766 N   0  0  0  0  0  0  0  0  0  0  0  0
   20.0388   -5.7297  -13.8340 C   0  0  0  0  0  0  0  0  0  0  0  0
   19.3666   -5.9744  -14.8414 O   0  0  0  0  0  0  0  0  0  0  0  0
   14.9430   -6.8227   -7.2253 N   0  0  0  0  0  0  0  0  0  0  0  0
   14.6139   -7.5062   -8.4288 C   0  0  0  0  0  0  0  0  0  0  0  0
   13.8703   -8.5597   -8.4273 N   0  0  0  0  0  0  0  0  0  0  0  0
   15.1181   -7.0123   -9.6596 N   0  0  0  0  0  0  0  0  0  0  0  0
   15.4660   -5.6153   -9.7463 C   0  0  0  0  0  0  0  0  0  0  0  0
   15.8791   -5.2006  -11.1533 C   0  0  0  0  0  0  0  0  0  0  0  0
   17.3247   -5.5820  -11.3120 C   0  0  0  0  0  0  0  0  0  0  0  0
   17.9410   -5.1120  -12.5933 C   0  0  2  0  0  0  0  0  0  0  0  0
   19.3575   -5.3796  -12.6117 N   0  0  0  0  0  0  0  0  0  0  0  0
   17.6669   -3.7212  -12.9308 C   0  0  0  0  0  0  0  0  0  0  0  0
   18.5736   -2.8671  -12.7487 O   0  0  0  0  0  0  0  0  0  0  0  0
   16.4769   -3.2432  -13.4436 O   0  0  0  0  0  0  0  0  0  0  0  0
  2  1  1  0
  2  3  1  0
  4  3  1  0
  4  5  1  0
  5  6  1  6
  7  5  1  0
  7  8  2  0
 10  9  1  6
 10 11  1  0
 10 12  1  0
 11  7  1  0
 12 22  1  0
 13 12  2  0
 14 15  1  0
 15 16  2  0
 17 15  1  0
 17 18  1  0
 19 18  1  0
 20 19  1  0
 21 23  1  0
 21 20  1  1
 22 21  1  0
 23 24  2  0
 23 25  1  0
M  END
$$$$
