MAR.pdb
     RDKit          3D

 25 24  0  0  1  0  0  0  0  0999 V2000
   15.5589  -14.3813  -18.5632 C   0  0  0  0  0  0  0  0  0  0  0  0
   16.7122  -15.5443  -17.7982 S   0  0  0  0  0  0  0  0  0  0  0  0
   18.3324  -14.7933  -17.6520 C   0  0  0  0  0  0  0  0  0  0  0  0
   18.3281  -13.6078  -16.6904 C   0  0  0  0  0  0  0  0  0  0  0  0
   19.7326  -13.0068  -16.6638 C   0  0  2  0  0  0  0  0  0  0  0  0
   20.6426  -13.8566  -15.9254 N   0  0  0  0  0  0  0  0  0  0  0  0
   19.7501  -11.6612  -16.0827 C   0  0  0  0  0  0  0  0  0  0  0  0
   19.6582  -11.5942  -14.8086 O   0  0  0  0  0  0  0  0  0  0  0  0
   20.2649   -8.1547  -17.2573 C   0  0  0  0  0  0  0  0  0  0  0  0
   19.8259   -9.1322  -16.1590 C   0  0  2  0  0  0  0  0  0  0  0  0
   19.8563  -10.4434  -16.7749 N   0  0  0  0  0  0  0  0  0  0  0  0
   18.4405   -8.8467  -15.7231 C   0  0  0  0  0  0  0  0  0  0  0  0
   17.5233   -9.6078  -16.0492 O   0  0  0  0  0  0  0  0  0  0  0  0
   13.4348  -11.6125  -10.8255 N   0  0  0  0  0  0  0  0  0  0  0  0
   12.5455  -10.5648  -11.1938 C   0  0  0  0  0  0  0  0  0  0  0  0
   11.3069  -10.5710  -10.8355 N   0  0  0  0  0  0  0  0  0  0  0  0
   13.0387   -9.4875  -11.9743 N   0  0  0  0  0  0  0  0  0  0  0  0
   14.3819   -9.5753  -12.4924 C   0  0  0  0  0  0  0  0  0  0  0  0
   14.8141   -8.3067  -13.2178 C   0  0  0  0  0  0  0  0  0  0  0  0
   16.2022   -8.5555  -13.7389 C   0  0  0  0  0  0  0  0  0  0  0  0
   16.7805   -7.4051  -14.5034 C   0  0  2  0  0  0  0  0  0  0  0  0
   18.1314   -7.6901  -14.9186 N   0  0  0  0  0  0  0  0  0  0  0  0
   16.7022   -6.1177  -13.8253 C   0  0  0  0  0  0  0  0  0  0  0  0
   17.7521   -5.6350  -13.3258 O   0  0  0  0  0  0  0  0  0  0  0  0
   15.5561   -5.3614  -13.6767 O   0  0  0  0  0  0  0  0  0  0  0  0
  2  1  1  0
  2  3  1  0
  4  3  1  0
  4  5  1  0
  5  6  1  1
  7  5  1  0
  7  8  2  0
 10  9  1  6
 10 11  1  0
 10 12  1  0
 11  7  1  0
 12 22  1  0
 13 12  2  0
 14 15  1  0
 15 16  2  0
 17 15  1  0
 17 18  1  0
 19 18  1  0
 20 19  1  0
 21 23  1  0
 21 20  1  1
 22 21  1  0
 23 24  2  0
 23 25  1  0
M  END
$$$$
