MAR.pdb
     RDKit          3D

 25 24  0  0  1  0  0  0  0  0999 V2000
   32.8038  -13.0904  -18.5224 C   0  0  0  0  0  0  0  0  0  0  0  0
   31.0235  -12.7983  -18.6376 S   0  0  0  0  0  0  0  0  0  0  0  0
   30.1299  -14.3025  -18.2514 C   0  0  0  0  0  0  0  0  0  0  0  0
   28.6208  -14.0765  -18.2108 C   0  0  0  0  0  0  0  0  0  0  0  0
   27.9455  -15.4058  -17.8774 C   0  0  2  0  0  0  0  0  0  0  0  0
   28.1348  -16.3624  -18.9473 N   0  0  0  0  0  0  0  0  0  0  0  0
   26.5114  -15.2505  -17.6171 C   0  0  0  0  0  0  0  0  0  0  0  0
   25.7473  -15.2492  -18.6429 O   0  0  0  0  0  0  0  0  0  0  0  0
   24.2533  -15.1980  -14.6487 C   0  0  0  0  0  0  0  0  0  0  0  0
   24.4622  -14.9883  -16.1544 C   0  0  2  0  0  0  0  0  0  0  0  0
   25.8911  -15.1032  -16.3652 N   0  0  0  0  0  0  0  0  0  0  0  0
   24.0317  -13.6320  -16.5618 C   0  0  0  0  0  0  0  0  0  0  0  0
   24.7690  -12.6630  -16.3516 O   0  0  0  0  0  0  0  0  0  0  0  0
   18.3344   -9.6726  -19.9431 N   0  0  0  0  0  0  0  0  0  0  0  0
   19.1005   -9.0638  -20.9759 C   0  0  0  0  0  0  0  0  0  0  0  0
   18.7597   -7.9338  -21.4950 N   0  0  0  0  0  0  0  0  0  0  0  0
   20.2687   -9.7199  -21.4426 N   0  0  0  0  0  0  0  0  0  0  0  0
   20.6523  -10.9624  -20.8188 C   0  0  0  0  0  0  0  0  0  0  0  0
   21.2143  -10.7648  -19.4161 C   0  0  0  0  0  0  0  0  0  0  0  0
   21.6903  -12.1108  -18.9449 C   0  0  0  0  0  0  0  0  0  0  0  0
   22.3357  -12.0893  -17.5939 C   0  0  2  0  0  0  0  0  0  0  0  0
   22.7595  -13.4112  -17.2049 N   0  0  0  0  0  0  0  0  0  0  0  0
   21.5401  -11.4652  -16.5448 C   0  0  0  0  0  0  0  0  0  0  0  0
   20.8651  -12.2035  -15.7807 O   0  0  0  0  0  0  0  0  0  0  0  0
   21.4565  -10.1073  -16.3064 O   0  0  0  0  0  0  0  0  0  0  0  0
  2  1  1  0
  2  3  1  0
  4  3  1  0
  4  5  1  0
  5  6  1  6
  7  5  1  0
  7  8  2  0
 10  9  1  1
 10 11  1  0
 10 12  1  0
 11  7  1  0
 12 22  1  0
 13 12  2  0
 14 15  1  0
 15 16  2  0
 17 15  1  0
 17 18  1  0
 19 18  1  0
 20 19  1  0
 21 23  1  0
 21 20  1  6
 22 21  1  0
 23 24  2  0
 23 25  1  0
M  END
$$$$
