MLY.pdb
     RDKit          3D

 29 29  0  0  1  0  0  0  0  0999 V2000
   20.6776  -10.8451  -20.4405 C   0  0  0  0  0  0  0  0  0  0  0  0
   21.5064  -10.0558  -21.8358 S   0  0  0  0  0  0  0  0  0  0  0  0
   23.2353  -10.6274  -21.8538 C   0  0  0  0  0  0  0  0  0  0  0  0
   23.3926  -11.8651  -21.0177 C   0  0  0  0  0  0  0  0  0  0  0  0
   24.7998  -12.3219  -20.9172 C   0  0  2  0  0  0  0  0  0  0  0  0
   25.3251  -12.6704  -22.2460 N   0  0  0  0  0  0  0  0  0  0  0  0
   25.0115  -13.5080  -20.0283 C   0  0  0  0  0  0  0  0  0  0  0  0
   25.1344  -14.6537  -20.5297 O   0  0  0  0  0  0  0  0  0  0  0  0
   28.4237  -14.1400  -17.2228 C   0  0  0  0  0  0  0  0  0  0  0  0
   27.3492  -13.4436  -16.4421 C   0  0  2  0  0  0  0  0  0  0  0  0
   27.8453  -12.9119  -15.1451 C   0  0  0  0  0  0  0  0  0  0  0  0
   26.0094  -14.0271  -16.4565 C   0  0  0  0  0  0  0  0  0  0  0  0
   25.3570  -14.4831  -17.6865 C   0  0  2  0  0  0  0  0  0  0  0  0
   25.0792  -13.3814  -18.6197 N   0  0  0  0  0  0  0  0  0  0  0  0
   24.1832  -15.3232  -17.4760 C   0  0  0  0  0  0  0  0  0  0  0  0
   24.2631  -16.4123  -16.8760 O   0  0  0  0  0  0  0  0  0  0  0  0
   15.8397  -18.2854  -17.2390 O   0  0  0  0  0  0  0  0  0  0  0  0
   17.0033  -17.5233  -17.2040 C   0  0  0  0  0  0  0  0  0  0  0  0
   17.2595  -16.6492  -18.2249 C   0  0  0  0  0  0  0  0  0  0  0  0
   18.4039  -15.8944  -18.1982 C   0  0  0  0  0  0  0  0  0  0  0  0
   19.3492  -15.9599  -17.1725 C   0  0  0  0  0  0  0  0  0  0  0  0
   20.5683  -15.1451  -17.1959 C   0  0  0  0  0  0  0  0  0  0  0  0
   21.7623  -15.8708  -17.7392 C   0  0  2  0  0  0  0  0  0  0  0  0
   22.8697  -14.9559  -17.9424 N   0  0  0  0  0  0  0  0  0  0  0  0
   21.4231  -16.5884  -18.9818 C   0  0  0  0  0  0  0  0  0  0  0  0
   20.5908  -17.5565  -18.9457 O   0  0  0  0  0  0  0  0  0  0  0  0
   19.0388  -16.8626  -16.1635 C   0  0  0  0  0  0  0  0  0  0  0  0
   17.8997  -17.6326  -16.1627 C   0  0  0  0  0  0  0  0  0  0  0  0
   21.9483  -16.2881  -20.2227 O   0  0  0  0  0  0  0  0  0  0  0  0
  2  1  1  0
  3  2  1  0
  4  3  1  0
  5  4  1  0
  5  6  1  6
  7  8  2  0
  7  5  1  0
 10 11  1  1
 10  9  1  0
 12 10  1  0
 13 12  1  1
 13 14  1  0
 14  7  1  0
 15 13  1  0
 15 16  2  0
 18 17  1  0
 19 18  2  0
 20 19  1  0
 21 20  2  0
 21 27  1  0
 22 21  1  0
 23 22  1  6
 23 24  1  0
 24 15  1  0
 25 23  1  0
 26 25  2  0
 27 28  2  0
 28 18  1  0
 29 25  1  0
M  END
$$$$
