MLY.pdb
     RDKit          3D

 29 29  0  0  1  0  0  0  0  0999 V2000
   17.6892  -19.4059  -14.4864 C   0  0  0  0  0  0  0  0  0  0  0  0
   17.3886  -20.9173  -13.5471 S   0  0  0  0  0  0  0  0  0  0  0  0
   18.2025  -22.2901  -14.4240 C   0  0  0  0  0  0  0  0  0  0  0  0
   17.9046  -23.5992  -13.7509 C   0  0  0  0  0  0  0  0  0  0  0  0
   18.8272  -23.8976  -12.6289 C   0  0  2  0  0  0  0  0  0  0  0  0
   20.2035  -24.0589  -13.1219 N   0  0  0  0  0  0  0  0  0  0  0  0
   18.4859  -25.1282  -11.8473 C   0  0  0  0  0  0  0  0  0  0  0  0
   17.3063  -25.3165  -11.4571 O   0  0  0  0  0  0  0  0  0  0  0  0
   21.8605  -29.9257  -11.7408 C   0  0  0  0  0  0  0  0  0  0  0  0
   20.5342  -29.2308  -11.6578 C   0  0  2  0  0  0  0  0  0  0  0  0
   19.9447  -28.9730  -12.9983 C   0  0  0  0  0  0  0  0  0  0  0  0
   20.3727  -28.1894  -10.6452 C   0  0  0  0  0  0  0  0  0  0  0  0
   19.2434  -27.2559  -10.6419 C   0  0  2  0  0  0  0  0  0  0  0  0
   19.4619  -26.1028  -11.5276 N   0  0  0  0  0  0  0  0  0  0  0  0
   18.8007  -26.8430   -9.3148 C   0  0  0  0  0  0  0  0  0  0  0  0
   19.1221  -25.7379   -8.8374 O   0  0  0  0  0  0  0  0  0  0  0  0
   13.4840  -23.7464   -3.4212 O   0  0  0  0  0  0  0  0  0  0  0  0
   14.2322  -24.2595   -4.4760 C   0  0  0  0  0  0  0  0  0  0  0  0
   13.7408  -25.3182   -5.1900 C   0  0  0  0  0  0  0  0  0  0  0  0
   14.4718  -25.8298   -6.2310 C   0  0  0  0  0  0  0  0  0  0  0  0
   15.7159  -25.3299   -6.6212 C   0  0  0  0  0  0  0  0  0  0  0  0
   16.4698  -25.9218   -7.7310 C   0  0  0  0  0  0  0  0  0  0  0  0
   17.3166  -27.0897   -7.3231 C   0  0  2  0  0  0  0  0  0  0  0  0
   17.9737  -27.6745   -8.4768 N   0  0  0  0  0  0  0  0  0  0  0  0
   16.5175  -28.0919   -6.5944 C   0  0  0  0  0  0  0  0  0  0  0  0
   15.8711  -28.9801   -7.2458 O   0  0  0  0  0  0  0  0  0  0  0  0
   16.1660  -24.2568   -5.8628 C   0  0  0  0  0  0  0  0  0  0  0  0
   15.4558  -23.7223   -4.8138 C   0  0  0  0  0  0  0  0  0  0  0  0
   16.4089  -28.1512   -5.2195 O   0  0  0  0  0  0  0  0  0  0  0  0
  2  1  1  0
  3  2  1  0
  4  3  1  0
  5  4  1  0
  5  6  1  6
  7  8  2  0
  7  5  1  0
 10 11  1  6
 10  9  1  0
 12 10  1  0
 13 12  1  1
 13 14  1  0
 14  7  1  0
 15 13  1  0
 15 16  2  0
 18 17  1  0
 19 18  2  0
 20 19  1  0
 21 20  2  0
 21 27  1  0
 22 21  1  0
 23 22  1  6
 23 24  1  0
 24 15  1  0
 25 23  1  0
 26 25  2  0
 27 28  2  0
 28 18  1  0
 29 25  1  0
M  END
$$$$
