MLY.pdb
     RDKit          3D

 29 29  0  0  1  0  0  0  0  0999 V2000
   20.8940  -15.4412  -14.8523 C   0  0  0  0  0  0  0  0  0  0  0  0
   19.9455  -14.8743  -16.2792 S   0  0  0  0  0  0  0  0  0  0  0  0
   20.2726  -16.0191  -17.6570 C   0  0  0  0  0  0  0  0  0  0  0  0
   21.3405  -17.0067  -17.2830 C   0  0  0  0  0  0  0  0  0  0  0  0
   22.5391  -16.9215  -18.1519 C   0  0  2  0  0  0  0  0  0  0  0  0
   22.1945  -17.2613  -19.5408 N   0  0  0  0  0  0  0  0  0  0  0  0
   23.6735  -17.8093  -17.7434 C   0  0  0  0  0  0  0  0  0  0  0  0
   23.6803  -19.0176  -18.0886 O   0  0  0  0  0  0  0  0  0  0  0  0
   27.8048  -18.0717  -18.9357 C   0  0  0  0  0  0  0  0  0  0  0  0
   27.7932  -17.0538  -17.8345 C   0  0  2  0  0  0  0  0  0  0  0  0
   29.0633  -16.2840  -17.7611 C   0  0  0  0  0  0  0  0  0  0  0  0
   27.1630  -17.4255  -16.5694 C   0  0  0  0  0  0  0  0  0  0  0  0
   25.8868  -18.1417  -16.5004 C   0  0  2  0  0  0  0  0  0  0  0  0
   24.7564  -17.3268  -16.9692 N   0  0  0  0  0  0  0  0  0  0  0  0
   25.6080  -18.7631  -15.2104 C   0  0  0  0  0  0  0  0  0  0  0  0
   25.0825  -18.1217  -14.2805 O   0  0  0  0  0  0  0  0  0  0  0  0
   24.6464  -21.4762   -7.3085 O   0  0  0  0  0  0  0  0  0  0  0  0
   24.8648  -21.0168   -8.6035 C   0  0  0  0  0  0  0  0  0  0  0  0
   26.1287  -21.0669   -9.1251 C   0  0  0  0  0  0  0  0  0  0  0  0
   26.3527  -20.6163  -10.4006 C   0  0  0  0  0  0  0  0  0  0  0  0
   25.3515  -20.0965  -11.2237 C   0  0  0  0  0  0  0  0  0  0  0  0
   25.6422  -19.6098  -12.5761 C   0  0  0  0  0  0  0  0  0  0  0  0
   25.6082  -20.6861  -13.6192 C   0  0  2  0  0  0  0  0  0  0  0  0
   25.9184  -20.1420  -14.9278 N   0  0  0  0  0  0  0  0  0  0  0  0
   24.3067  -21.3791  -13.6201 C   0  0  0  0  0  0  0  0  0  0  0  0
   23.3390  -20.9059  -14.3062 O   0  0  0  0  0  0  0  0  0  0  0  0
   24.0895  -20.0692  -10.6441 C   0  0  0  0  0  0  0  0  0  0  0  0
   23.8342  -20.5138   -9.3683 C   0  0  0  0  0  0  0  0  0  0  0  0
   24.0407  -22.5373  -12.9174 O   0  0  0  0  0  0  0  0  0  0  0  0
  2  1  1  0
  3  2  1  0
  4  3  1  0
  5  4  1  0
  5  6  1  6
  7  8  2  0
  7  5  1  0
 10 11  1  1
 10  9  1  0
 12 10  1  0
 13 12  1  1
 13 14  1  0
 14  7  1  0
 15 13  1  0
 15 16  2  0
 18 17  1  0
 19 18  2  0
 20 19  1  0
 21 20  2  0
 21 27  1  0
 22 21  1  0
 23 22  1  1
 23 24  1  0
 24 15  1  0
 25 23  1  0
 26 25  2  0
 27 28  2  0
 28 18  1  0
 29 25  1  0
M  END
$$$$
