MLY.pdb
     RDKit          3D

 29 29  0  0  1  0  0  0  0  0999 V2000
   18.5256  -18.8216  -12.5821 C   0  0  0  0  0  0  0  0  0  0  0  0
   18.2242  -17.0479  -12.7229 S   0  0  0  0  0  0  0  0  0  0  0  0
   19.3456  -16.3911  -13.9985 C   0  0  0  0  0  0  0  0  0  0  0  0
   20.2853  -17.4597  -14.4788 C   0  0  0  0  0  0  0  0  0  0  0  0
   21.2309  -16.9777  -15.5144 C   0  0  2  0  0  0  0  0  0  0  0  0
   20.4993  -16.4834  -16.6908 N   0  0  0  0  0  0  0  0  0  0  0  0
   22.2092  -18.0038  -15.9959 C   0  0  0  0  0  0  0  0  0  0  0  0
   22.1116  -18.4660  -17.1603 O   0  0  0  0  0  0  0  0  0  0  0  0
   26.4552  -17.4853  -16.5349 C   0  0  0  0  0  0  0  0  0  0  0  0
   26.3236  -18.0173  -15.1390 C   0  0  2  0  0  0  0  0  0  0  0  0
   27.5765  -17.8628  -14.3533 C   0  0  0  0  0  0  0  0  0  0  0  0
   25.5633  -19.2508  -14.9487 C   0  0  0  0  0  0  0  0  0  0  0  0
   24.2570  -19.4804  -15.5712 C   0  0  2  0  0  0  0  0  0  0  0  0
   23.2576  -18.4790  -15.1713 N   0  0  0  0  0  0  0  0  0  0  0  0
   23.7476  -20.8400  -15.4303 C   0  0  0  0  0  0  0  0  0  0  0  0
   24.3821  -21.8197  -15.8661 O   0  0  0  0  0  0  0  0  0  0  0  0
   20.6591  -28.5562  -12.9821 O   0  0  0  0  0  0  0  0  0  0  0  0
   21.1154  -27.2530  -13.1536 C   0  0  0  0  0  0  0  0  0  0  0  0
   22.1050  -26.7794  -12.3361 C   0  0  0  0  0  0  0  0  0  0  0  0
   22.5604  -25.4963  -12.4983 C   0  0  0  0  0  0  0  0  0  0  0  0
   22.0691  -24.6184  -13.4668 C   0  0  0  0  0  0  0  0  0  0  0  0
   22.5754  -23.2478  -13.5912 C   0  0  0  0  0  0  0  0  0  0  0  0
   22.0122  -22.5066  -14.7664 C   0  0  2  0  0  0  0  0  0  0  0  0
   22.4924  -21.1378  -14.7874 N   0  0  0  0  0  0  0  0  0  0  0  0
   20.5387  -22.5594  -14.7667 C   0  0  0  0  0  0  0  0  0  0  0  0
   19.8770  -21.7489  -14.0343 O   0  0  0  0  0  0  0  0  0  0  0  0
   21.0670  -25.1509  -14.2677 C   0  0  0  0  0  0  0  0  0  0  0  0
   20.5901  -26.4330  -14.1290 C   0  0  0  0  0  0  0  0  0  0  0  0
   19.7912  -23.4419  -15.5205 O   0  0  0  0  0  0  0  0  0  0  0  0
  2  1  1  0
  3  2  1  0
  4  3  1  0
  5  4  1  0
  5  6  1  6
  7  8  2  0
  7  5  1  0
 10 11  1  6
 10  9  1  0
 12 10  1  0
 13 12  1  1
 13 14  1  0
 14  7  1  0
 15 13  1  0
 15 16  2  0
 18 17  1  0
 19 18  2  0
 20 19  1  0
 21 20  2  0
 21 27  1  0
 22 21  1  0
 23 22  1  1
 23 24  1  0
 24 15  1  0
 25 23  1  0
 26 25  2  0
 27 28  2  0
 28 18  1  0
 29 25  1  0
M  END
$$$$
