MLY.pdb
     RDKit          3D

 29 29  0  0  1  0  0  0  0  0999 V2000
   29.9870  -11.6047  -22.4907 C   0  0  0  0  0  0  0  0  0  0  0  0
   30.7991  -13.1840  -22.8121 S   0  0  0  0  0  0  0  0  0  0  0  0
   29.5025  -14.4440  -23.0294 C   0  0  0  0  0  0  0  0  0  0  0  0
   28.2429  -14.0355  -22.3208 C   0  0  0  0  0  0  0  0  0  0  0  0
   27.7780  -15.0432  -21.3373 C   0  0  2  0  0  0  0  0  0  0  0  0
   27.4693  -16.3149  -22.0087 N   0  0  0  0  0  0  0  0  0  0  0  0
   26.5638  -14.6440  -20.5574 C   0  0  0  0  0  0  0  0  0  0  0  0
   25.4450  -14.5827  -21.1261 O   0  0  0  0  0  0  0  0  0  0  0  0
   24.9735  -16.6206  -16.8139 C   0  0  0  0  0  0  0  0  0  0  0  0
   25.9183  -15.5426  -16.3731 C   0  0  2  0  0  0  0  0  0  0  0  0
   26.2646  -15.6476  -14.9309 C   0  0  0  0  0  0  0  0  0  0  0  0
   25.7226  -14.2004  -16.9173 C   0  0  0  0  0  0  0  0  0  0  0  0
   25.4863  -13.9496  -18.3413 C   0  0  2  0  0  0  0  0  0  0  0  0
   26.6339  -14.3281  -19.1789 N   0  0  0  0  0  0  0  0  0  0  0  0
   25.0101  -12.6060  -18.6506 C   0  0  0  0  0  0  0  0  0  0  0  0
   25.7931  -11.7062  -19.0106 O   0  0  0  0  0  0  0  0  0  0  0  0
   22.0142   -5.6557  -22.5078 O   0  0  0  0  0  0  0  0  0  0  0  0
   22.3908   -6.8975  -22.0060 C   0  0  0  0  0  0  0  0  0  0  0  0
   23.4876   -6.9840  -21.1926 C   0  0  0  0  0  0  0  0  0  0  0  0
   23.8656   -8.2039  -20.6938 C   0  0  0  0  0  0  0  0  0  0  0  0
   23.1886   -9.3942  -20.9674 C   0  0  0  0  0  0  0  0  0  0  0  0
   23.6410  -10.6793  -20.4249 C   0  0  0  0  0  0  0  0  0  0  0  0
   23.2081  -10.9165  -19.0093 C   0  0  2  0  0  0  0  0  0  0  0  0
   23.6207  -12.2330  -18.5606 N   0  0  0  0  0  0  0  0  0  0  0  0
   21.7526  -10.7311  -18.8645 C   0  0  0  0  0  0  0  0  0  0  0  0
   20.9890  -11.7525  -18.7951 O   0  0  0  0  0  0  0  0  0  0  0  0
   22.0845   -9.2481  -21.7972 C   0  0  0  0  0  0  0  0  0  0  0  0
   21.6812   -8.0388  -22.3124 C   0  0  0  0  0  0  0  0  0  0  0  0
   21.1273   -9.5024  -18.7939 O   0  0  0  0  0  0  0  0  0  0  0  0
  2  1  1  0
  3  2  1  0
  4  3  1  0
  5  4  1  0
  5  6  1  6
  7  8  2  0
  7  5  1  0
 10 11  1  1
 10  9  1  0
 12 10  1  0
 13 12  1  1
 13 14  1  0
 14  7  1  0
 15 13  1  0
 15 16  2  0
 18 17  1  0
 19 18  2  0
 20 19  1  0
 21 20  2  0
 21 27  1  0
 22 21  1  0
 23 22  1  6
 23 24  1  0
 24 15  1  0
 25 23  1  0
 26 25  2  0
 27 28  2  0
 28 18  1  0
 29 25  1  0
M  END
$$$$
