MLY.pdb
     RDKit          3D

 29 29  0  0  1  0  0  0  0  0999 V2000
   23.3044  -19.4397  -20.6435 C   0  0  0  0  0  0  0  0  0  0  0  0
   24.6395  -18.9897  -21.7713 S   0  0  0  0  0  0  0  0  0  0  0  0
   26.2184  -19.3063  -20.9211 C   0  0  0  0  0  0  0  0  0  0  0  0
   26.0139  -20.2203  -19.7471 C   0  0  0  0  0  0  0  0  0  0  0  0
   27.2520  -20.4409  -18.9613 C   0  0  2  0  0  0  0  0  0  0  0  0
   28.2462  -21.1732  -19.7603 N   0  0  0  0  0  0  0  0  0  0  0  0
   27.0575  -21.2001  -17.6856 C   0  0  0  0  0  0  0  0  0  0  0  0
   27.4092  -22.4043  -17.6123 O   0  0  0  0  0  0  0  0  0  0  0  0
   28.3267  -21.3287  -12.5585 C   0  0  0  0  0  0  0  0  0  0  0  0
   27.8275  -19.9888  -13.0107 C   0  0  2  0  0  0  0  0  0  0  0  0
   27.0061  -19.3106  -11.9733 C   0  0  0  0  0  0  0  0  0  0  0  0
   27.3921  -19.8569  -14.3996 C   0  0  0  0  0  0  0  0  0  0  0  0
   26.7925  -20.9630  -15.1503 C   0  0  2  0  0  0  0  0  0  0  0  0
   26.4818  -20.5985  -16.5403 N   0  0  0  0  0  0  0  0  0  0  0  0
   25.6577  -21.5999  -14.4910 C   0  0  0  0  0  0  0  0  0  0  0  0
   25.7721  -22.1305  -13.3695 O   0  0  0  0  0  0  0  0  0  0  0  0
   20.5800  -22.2823   -8.9175 O   0  0  0  0  0  0  0  0  0  0  0  0
   21.3457  -21.7645   -9.9573 C   0  0  0  0  0  0  0  0  0  0  0  0
   21.3483  -22.4041  -11.1668 C   0  0  0  0  0  0  0  0  0  0  0  0
   22.1002  -21.9004  -12.1969 C   0  0  0  0  0  0  0  0  0  0  0  0
   22.8832  -20.7491  -12.0912 C   0  0  0  0  0  0  0  0  0  0  0  0
   23.6854  -20.2577  -13.2162 C   0  0  0  0  0  0  0  0  0  0  0  0
   23.2811  -20.8386  -14.5378 C   0  0  2  0  0  0  0  0  0  0  0  0
   24.3456  -21.6586  -15.0848 N   0  0  0  0  0  0  0  0  0  0  0  0
   22.8816  -19.7775  -15.4805 C   0  0  0  0  0  0  0  0  0  0  0  0
   23.6762  -19.4345  -16.4198 O   0  0  0  0  0  0  0  0  0  0  0  0
   22.8434  -20.1412  -10.8430 C   0  0  0  0  0  0  0  0  0  0  0  0
   22.0994  -20.6224   -9.7916 C   0  0  0  0  0  0  0  0  0  0  0  0
   21.6780  -19.1035  -15.4298 O   0  0  0  0  0  0  0  0  0  0  0  0
  2  1  1  0
  3  2  1  0
  4  3  1  0
  5  4  1  0
  5  6  1  6
  7  8  2  0
  7  5  1  0
 10 11  1  1
 10  9  1  0
 12 10  1  0
 13 12  1  1
 13 14  1  0
 14  7  1  0
 15 13  1  0
 15 16  2  0
 18 17  1  0
 19 18  2  0
 20 19  1  0
 21 20  2  0
 21 27  1  0
 22 21  1  0
 23 22  1  1
 23 24  1  0
 24 15  1  0
 25 23  1  0
 26 25  2  0
 27 28  2  0
 28 18  1  0
 29 25  1  0
M  END
$$$$
