MLY.pdb
     RDKit          3D

 29 29  0  0  1  0  0  0  0  0999 V2000
   29.5918  -29.2795  -19.5165 C   0  0  0  0  0  0  0  0  0  0  0  0
   30.8004  -28.7398  -18.2897 S   0  0  0  0  0  0  0  0  0  0  0  0
   30.8835  -30.0132  -16.9907 C   0  0  0  0  0  0  0  0  0  0  0  0
   29.6430  -30.8598  -16.9988 C   0  0  0  0  0  0  0  0  0  0  0  0
   29.6368  -31.8896  -15.9318 C   0  0  2  0  0  0  0  0  0  0  0  0
   30.6536  -32.9176  -16.2012 N   0  0  0  0  0  0  0  0  0  0  0  0
   28.3281  -32.5936  -15.7480 C   0  0  0  0  0  0  0  0  0  0  0  0
   28.0286  -33.5643  -16.4876 O   0  0  0  0  0  0  0  0  0  0  0  0
   25.6297  -35.5408  -13.1880 C   0  0  0  0  0  0  0  0  0  0  0  0
   25.9856  -34.2891  -12.4426 C   0  0  2  0  0  0  0  0  0  0  0  0
   25.6189  -34.3630  -11.0035 C   0  0  0  0  0  0  0  0  0  0  0  0
   25.7796  -33.0106  -13.1199 C   0  0  0  0  0  0  0  0  0  0  0  0
   26.0816  -32.8082  -14.5392 C   0  0  2  0  0  0  0  0  0  0  0  0
   27.4015  -32.1969  -14.7536 N   0  0  0  0  0  0  0  0  0  0  0  0
   25.0376  -32.1197  -15.2902 C   0  0  0  0  0  0  0  0  0  0  0  0
   24.6904  -30.9578  -15.0039 O   0  0  0  0  0  0  0  0  0  0  0  0
   19.3324  -29.3504  -21.3700 O   0  0  0  0  0  0  0  0  0  0  0  0
   20.3645  -29.9732  -20.6754 C   0  0  0  0  0  0  0  0  0  0  0  0
   20.3922  -31.3393  -20.6046 C   0  0  0  0  0  0  0  0  0  0  0  0
   21.4058  -31.9611  -19.9221 C   0  0  0  0  0  0  0  0  0  0  0  0
   22.4380  -31.2759  -19.2779 C   0  0  0  0  0  0  0  0  0  0  0  0
   23.4920  -31.9841  -18.5444 C   0  0  0  0  0  0  0  0  0  0  0  0
   23.2820  -31.9975  -17.0601 C   0  0  2  0  0  0  0  0  0  0  0  0
   24.3458  -32.7289  -16.3982 N   0  0  0  0  0  0  0  0  0  0  0  0
   21.9578  -32.5494  -16.7195 C   0  0  0  0  0  0  0  0  0  0  0  0
   21.8330  -33.8005  -16.4953 O   0  0  0  0  0  0  0  0  0  0  0  0
   22.3602  -29.8930  -19.3817 C   0  0  0  0  0  0  0  0  0  0  0  0
   21.3567  -29.2413  -20.0590 C   0  0  0  0  0  0  0  0  0  0  0  0
   20.8038  -31.7985  -16.6183 O   0  0  0  0  0  0  0  0  0  0  0  0
  2  1  1  0
  3  2  1  0
  4  3  1  0
  5  4  1  0
  5  6  1  6
  7  8  2  0
  7  5  1  0
 10 11  1  1
 10  9  1  0
 12 10  1  0
 13 12  1  1
 13 14  1  0
 14  7  1  0
 15 13  1  0
 15 16  2  0
 18 17  1  0
 19 18  2  0
 20 19  1  0
 21 20  2  0
 21 27  1  0
 22 21  1  0
 23 22  1  6
 23 24  1  0
 24 15  1  0
 25 23  1  0
 26 25  2  0
 27 28  2  0
 28 18  1  0
 29 25  1  0
M  END
$$$$
