MLY.pdb
     RDKit          3D

 29 29  0  0  1  0  0  0  0  0999 V2000
   26.4992  -14.9045  -15.0606 C   0  0  0  0  0  0  0  0  0  0  0  0
   27.6073  -15.7737  -16.1891 S   0  0  0  0  0  0  0  0  0  0  0  0
   27.2312  -17.5521  -16.0808 C   0  0  0  0  0  0  0  0  0  0  0  0
   25.7639  -17.7698  -15.8461 C   0  0  0  0  0  0  0  0  0  0  0  0
   25.3930  -19.2043  -15.7851 C   0  0  2  0  0  0  0  0  0  0  0  0
   26.0417  -19.9514  -16.8732 N   0  0  0  0  0  0  0  0  0  0  0  0
   23.9230  -19.4756  -15.8717 C   0  0  0  0  0  0  0  0  0  0  0  0
   23.1351  -18.9284  -15.0600 O   0  0  0  0  0  0  0  0  0  0  0  0
   21.3332  -18.4640  -19.4344 C   0  0  0  0  0  0  0  0  0  0  0  0
   21.9439  -19.8301  -19.5335 C   0  0  2  0  0  0  0  0  0  0  0  0
   21.9848  -20.3323  -20.9324 C   0  0  0  0  0  0  0  0  0  0  0  0
   21.6242  -20.7971  -18.4854 C   0  0  0  0  0  0  0  0  0  0  0  0
   21.9461  -20.5712  -17.0740 C   0  0  2  0  0  0  0  0  0  0  0  0
   23.3813  -20.3414  -16.8524 N   0  0  0  0  0  0  0  0  0  0  0  0
   21.4113  -21.5752  -16.1608 C   0  0  0  0  0  0  0  0  0  0  0  0
   21.9481  -22.6928  -16.0376 O   0  0  0  0  0  0  0  0  0  0  0  0
   18.4364  -26.2061   -9.4975 O   0  0  0  0  0  0  0  0  0  0  0  0
   18.9654  -25.3018  -10.4130 C   0  0  0  0  0  0  0  0  0  0  0  0
   18.4981  -24.0160  -10.4273 C   0  0  0  0  0  0  0  0  0  0  0  0
   19.0141  -23.1185  -11.3263 C   0  0  0  0  0  0  0  0  0  0  0  0
   20.0100  -23.4373  -12.2518 C   0  0  0  0  0  0  0  0  0  0  0  0
   20.5189  -22.4476  -13.2068 C   0  0  0  0  0  0  0  0  0  0  0  0
   19.7511  -22.4085  -14.4938 C   0  0  2  0  0  0  0  0  0  0  0  0
   20.2410  -21.3458  -15.3512 N   0  0  0  0  0  0  0  0  0  0  0  0
   18.3048  -22.2718  -14.2414 C   0  0  0  0  0  0  0  0  0  0  0  0
   17.5641  -23.3121  -14.2294 O   0  0  0  0  0  0  0  0  0  0  0  0
   20.4468  -24.7545  -12.1931 C   0  0  0  0  0  0  0  0  0  0  0  0
   19.9488  -25.6767  -11.3031 C   0  0  0  0  0  0  0  0  0  0  0  0
   17.6652  -21.0709  -14.0078 O   0  0  0  0  0  0  0  0  0  0  0  0
  2  1  1  0
  3  2  1  0
  4  3  1  0
  5  4  1  0
  5  6  1  6
  7  8  2  0
  7  5  1  0
 10 11  1  6
 10  9  1  0
 12 10  1  0
 13 12  1  6
 13 14  1  0
 14  7  1  0
 15 13  1  0
 15 16  2  0
 18 17  1  0
 19 18  2  0
 20 19  1  0
 21 20  2  0
 21 27  1  0
 22 21  1  0
 23 22  1  1
 23 24  1  0
 24 15  1  0
 25 23  1  0
 26 25  2  0
 27 28  2  0
 28 18  1  0
 29 25  1  0
M  END
$$$$
