MLY.pdb
     RDKit          3D

 29 29  0  0  1  0  0  0  0  0999 V2000
   25.8955  -20.1902   -7.6617 C   0  0  0  0  0  0  0  0  0  0  0  0
   25.0230  -21.2740   -8.8110 S   0  0  0  0  0  0  0  0  0  0  0  0
   26.2262  -21.8640  -10.0440 C   0  0  0  0  0  0  0  0  0  0  0  0
   26.4615  -20.8190  -11.0967 C   0  0  0  0  0  0  0  0  0  0  0  0
   25.4168  -20.8106  -12.1492 C   0  0  2  0  0  0  0  0  0  0  0  0
   25.3849  -22.1009  -12.8544 N   0  0  0  0  0  0  0  0  0  0  0  0
   25.5782  -19.7403  -13.1837 C   0  0  0  0  0  0  0  0  0  0  0  0
   25.5063  -18.5306  -12.8513 O   0  0  0  0  0  0  0  0  0  0  0  0
   28.7009  -17.6516  -15.9309 C   0  0  0  0  0  0  0  0  0  0  0  0
   28.3911  -19.0478  -16.3822 C   0  0  2  0  0  0  0  0  0  0  0  0
   29.3716  -19.5513  -17.3803 C   0  0  0  0  0  0  0  0  0  0  0  0
   26.9881  -19.4028  -16.5857 C   0  0  0  0  0  0  0  0  0  0  0  0
   25.9365  -19.0589  -15.6252 C   0  0  2  0  0  0  0  0  0  0  0  0
   25.8128  -20.0491  -14.5455 N   0  0  0  0  0  0  0  0  0  0  0  0
   24.6438  -18.7480  -16.2254 C   0  0  0  0  0  0  0  0  0  0  0  0
   24.5254  -17.8556  -17.0868 O   0  0  0  0  0  0  0  0  0  0  0  0
   20.3425  -25.1013  -15.3656 O   0  0  0  0  0  0  0  0  0  0  0  0
   20.7085  -23.8648  -15.8879 C   0  0  0  0  0  0  0  0  0  0  0  0
   19.7724  -22.8700  -15.9667 C   0  0  0  0  0  0  0  0  0  0  0  0
   20.1247  -21.6485  -16.4802 C   0  0  0  0  0  0  0  0  0  0  0  0
   21.4078  -21.3442  -16.9398 C   0  0  0  0  0  0  0  0  0  0  0  0
   21.7335  -20.0277  -17.4978 C   0  0  0  0  0  0  0  0  0  0  0  0
   22.1760  -19.0338  -16.4663 C   0  0  2  0  0  0  0  0  0  0  0  0
   23.4325  -19.4419  -15.8667 N   0  0  0  0  0  0  0  0  0  0  0  0
   21.1324  -18.8343  -15.4439 C   0  0  0  0  0  0  0  0  0  0  0  0
   19.9932  -18.3691  -15.7859 O   0  0  0  0  0  0  0  0  0  0  0  0
   22.3166  -22.3894  -16.8365 C   0  0  0  0  0  0  0  0  0  0  0  0
   21.9930  -23.6244  -16.3263 C   0  0  0  0  0  0  0  0  0  0  0  0
   21.2912  -19.1205  -14.1028 O   0  0  0  0  0  0  0  0  0  0  0  0
  2  1  1  0
  3  2  1  0
  4  3  1  0
  5  4  1  0
  5  6  1  6
  7  8  2  0
  7  5  1  0
 10 11  1  6
 10  9  1  0
 12 10  1  0
 13 12  1  6
 13 14  1  0
 14  7  1  0
 15 13  1  0
 15 16  2  0
 18 17  1  0
 19 18  2  0
 20 19  1  0
 21 20  2  0
 21 27  1  0
 22 21  1  0
 23 22  1  6
 23 24  1  0
 24 15  1  0
 25 23  1  0
 26 25  2  0
 27 28  2  0
 28 18  1  0
 29 25  1  0
M  END
$$$$
