MLY.pdb
     RDKit          3D

 29 29  0  0  1  0  0  0  0  0999 V2000
   22.1578  -20.8626  -22.4137 C   0  0  0  0  0  0  0  0  0  0  0  0
   22.2635  -22.1630  -21.1668 S   0  0  0  0  0  0  0  0  0  0  0  0
   23.7881  -23.1097  -21.4760 C   0  0  0  0  0  0  0  0  0  0  0  0
   23.9009  -24.2601  -20.5171 C   0  0  0  0  0  0  0  0  0  0  0  0
   25.1818  -24.9964  -20.6430 C   0  0  2  0  0  0  0  0  0  0  0  0
   25.1651  -25.8607  -21.8330 N   0  0  0  0  0  0  0  0  0  0  0  0
   25.5263  -25.8597  -19.4691 C   0  0  0  0  0  0  0  0  0  0  0  0
   24.9078  -26.9370  -19.2796 O   0  0  0  0  0  0  0  0  0  0  0  0
   28.3125  -28.8192  -18.5462 C   0  0  0  0  0  0  0  0  0  0  0  0
   28.9677  -27.4953  -18.2875 C   0  0  2  0  0  0  0  0  0  0  0  0
   30.4511  -27.5934  -18.2582 C   0  0  0  0  0  0  0  0  0  0  0  0
   28.3379  -26.6010  -17.3183 C   0  0  0  0  0  0  0  0  0  0  0  0
   26.9109  -26.2711  -17.3554 C   0  0  2  0  0  0  0  0  0  0  0  0
   26.5413  -25.4984  -18.5504 N   0  0  0  0  0  0  0  0  0  0  0  0
   26.3970  -25.6595  -16.1349 C   0  0  0  0  0  0  0  0  0  0  0  0
   26.4275  -26.2611  -15.0443 O   0  0  0  0  0  0  0  0  0  0  0  0
   23.7305  -20.1978   -9.7859 O   0  0  0  0  0  0  0  0  0  0  0  0
   24.2055  -20.7433  -10.9744 C   0  0  0  0  0  0  0  0  0  0  0  0
   25.3758  -21.4520  -10.9628 C   0  0  0  0  0  0  0  0  0  0  0  0
   25.8509  -21.9930  -12.1296 C   0  0  0  0  0  0  0  0  0  0  0  0
   25.2037  -21.8657  -13.3604 C   0  0  0  0  0  0  0  0  0  0  0  0
   25.7597  -22.4472  -14.5865 C   0  0  0  0  0  0  0  0  0  0  0  0
   25.2598  -23.8315  -14.8718 C   0  0  2  0  0  0  0  0  0  0  0  0
   25.8258  -24.3364  -16.1086 N   0  0  0  0  0  0  0  0  0  0  0  0
   23.7860  -23.8646  -14.9023 C   0  0  0  0  0  0  0  0  0  0  0  0
   23.1350  -24.0368  -13.8171 O   0  0  0  0  0  0  0  0  0  0  0  0
   24.0219  -21.1373  -13.3141 C   0  0  0  0  0  0  0  0  0  0  0  0
   23.5206  -20.5833  -12.1599 C   0  0  0  0  0  0  0  0  0  0  0  0
   23.0273  -23.7180  -16.0463 O   0  0  0  0  0  0  0  0  0  0  0  0
  2  1  1  0
  3  2  1  0
  4  3  1  0
  5  4  1  0
  5  6  1  6
  7  8  2  0
  7  5  1  0
 10 11  1  1
 10  9  1  0
 12 10  1  0
 13 12  1  1
 13 14  1  0
 14  7  1  0
 15 13  1  0
 15 16  2  0
 18 17  1  0
 19 18  2  0
 20 19  1  0
 21 20  2  0
 21 27  1  0
 22 21  1  0
 23 22  1  6
 23 24  1  0
 24 15  1  0
 25 23  1  0
 26 25  2  0
 27 28  2  0
 28 18  1  0
 29 25  1  0
M  END
$$$$
