MLY.pdb
     RDKit          3D

 29 29  0  0  1  0  0  0  0  0999 V2000
   30.9026  -23.7027  -15.9162 C   0  0  0  0  0  0  0  0  0  0  0  0
   29.9107  -23.4092  -17.3949 S   0  0  0  0  0  0  0  0  0  0  0  0
   28.1562  -23.4730  -16.9115 C   0  0  0  0  0  0  0  0  0  0  0  0
   27.9215  -22.6729  -15.6624 C   0  0  0  0  0  0  0  0  0  0  0  0
   26.8303  -21.6792  -15.8067 C   0  0  2  0  0  0  0  0  0  0  0  0
   27.3766  -20.3140  -15.8376 N   0  0  0  0  0  0  0  0  0  0  0  0
   25.7967  -21.7220  -14.7242 C   0  0  0  0  0  0  0  0  0  0  0  0
   24.9864  -22.6809  -14.6680 O   0  0  0  0  0  0  0  0  0  0  0  0
   25.5667  -19.6400   -8.9988 C   0  0  0  0  0  0  0  0  0  0  0  0
   25.2273  -20.5336  -10.1544 C   0  0  2  0  0  0  0  0  0  0  0  0
   25.8524  -21.8774  -10.0341 C   0  0  0  0  0  0  0  0  0  0  0  0
   25.1792  -19.9357  -11.4870 C   0  0  0  0  0  0  0  0  0  0  0  0
   24.7027  -20.6642  -12.6655 C   0  0  2  0  0  0  0  0  0  0  0  0
   25.6992  -20.7031  -13.7459 N   0  0  0  0  0  0  0  0  0  0  0  0
   23.3934  -20.2430  -13.1515 C   0  0  0  0  0  0  0  0  0  0  0  0
   23.2484  -19.1850  -13.7934 O   0  0  0  0  0  0  0  0  0  0  0  0
   20.7912  -26.2245  -16.3181 O   0  0  0  0  0  0  0  0  0  0  0  0
   20.8117  -24.8785  -15.9667 C   0  0  0  0  0  0  0  0  0  0  0  0
   19.6849  -24.3091  -15.4396 C   0  0  0  0  0  0  0  0  0  0  0  0
   19.6966  -22.9832  -15.0905 C   0  0  0  0  0  0  0  0  0  0  0  0
   20.8103  -22.1542  -15.2408 C   0  0  0  0  0  0  0  0  0  0  0  0
   20.7702  -20.7361  -14.8694 C   0  0  0  0  0  0  0  0  0  0  0  0
   20.9228  -20.4990  -13.3970 C   0  0  2  0  0  0  0  0  0  0  0  0
   22.1951  -21.0111  -12.9242 N   0  0  0  0  0  0  0  0  0  0  0  0
   19.7958  -21.0854  -12.6485 C   0  0  0  0  0  0  0  0  0  0  0  0
   20.0231  -21.9623  -11.7482 O   0  0  0  0  0  0  0  0  0  0  0  0
   21.9249  -22.7836  -15.7800 C   0  0  0  0  0  0  0  0  0  0  0  0
   21.9433  -24.1106  -16.1393 C   0  0  0  0  0  0  0  0  0  0  0  0
   18.4712  -20.7515  -12.8473 O   0  0  0  0  0  0  0  0  0  0  0  0
  2  1  1  0
  3  2  1  0
  4  3  1  0
  5  4  1  0
  5  6  1  1
  7  8  2  0
  7  5  1  0
 10 11  1  6
 10  9  1  0
 12 10  1  0
 13 12  1  1
 13 14  1  0
 14  7  1  0
 15 13  1  0
 15 16  2  0
 18 17  1  0
 19 18  2  0
 20 19  1  0
 21 20  2  0
 21 27  1  0
 22 21  1  0
 23 22  1  6
 23 24  1  0
 24 15  1  0
 25 23  1  0
 26 25  2  0
 27 28  2  0
 28 18  1  0
 29 25  1  0
M  END
$$$$
