MLY.pdb
     RDKit          3D

 29 29  0  0  1  0  0  0  0  0999 V2000
    8.4842  -10.1371  -14.1742 C   0  0  0  0  0  0  0  0  0  0  0  0
    9.4861   -8.6972  -13.7501 S   0  0  0  0  0  0  0  0  0  0  0  0
   11.1448   -9.2887  -13.2866 C   0  0  0  0  0  0  0  0  0  0  0  0
   11.9697   -8.1661  -12.7253 C   0  0  0  0  0  0  0  0  0  0  0  0
   13.3534   -8.5770  -12.3856 C   0  0  2  0  0  0  0  0  0  0  0  0
   13.3483   -9.5277  -11.2633 N   0  0  0  0  0  0  0  0  0  0  0  0
   14.2677   -7.4514  -12.0129 C   0  0  0  0  0  0  0  0  0  0  0  0
   14.4981   -6.5312  -12.8370 O   0  0  0  0  0  0  0  0  0  0  0  0
   13.8867   -4.0301   -9.2845 C   0  0  0  0  0  0  0  0  0  0  0  0
   14.3265   -5.2217   -8.4872 C   0  0  2  0  0  0  0  0  0  0  0  0
   14.1242   -5.0320   -7.0264 C   0  0  0  0  0  0  0  0  0  0  0  0
   15.5431   -5.9127   -8.9093 C   0  0  0  0  0  0  0  0  0  0  0  0
   15.7876   -6.3095  -10.2983 C   0  0  2  0  0  0  0  0  0  0  0  0
   14.8916   -7.3868  -10.7435 N   0  0  0  0  0  0  0  0  0  0  0  0
   17.1824   -6.6020  -10.6098 C   0  0  0  0  0  0  0  0  0  0  0  0
   17.8110   -7.4902  -10.0029 O   0  0  0  0  0  0  0  0  0  0  0  0
   23.4491  -10.1389  -15.1782 O   0  0  0  0  0  0  0  0  0  0  0  0
   22.3364   -9.5836  -14.5543 C   0  0  0  0  0  0  0  0  0  0  0  0
   21.3646   -8.9987  -15.3194 C   0  0  0  0  0  0  0  0  0  0  0  0
   20.2648   -8.4492  -14.7125 C   0  0  0  0  0  0  0  0  0  0  0  0
   20.0652   -8.4466  -13.3304 C   0  0  0  0  0  0  0  0  0  0  0  0
   18.8802   -7.8304  -12.7248 C   0  0  0  0  0  0  0  0  0  0  0  0
   19.1405   -6.4697  -12.1520 C   0  0  2  0  0  0  0  0  0  0  0  0
   17.9179   -5.8922  -11.6261 N   0  0  0  0  0  0  0  0  0  0  0  0
   19.7647   -5.5860  -13.1537 C   0  0  0  0  0  0  0  0  0  0  0  0
   19.0269   -4.8960  -13.9352 O   0  0  0  0  0  0  0  0  0  0  0  0
   21.0816   -9.0526  -12.6032 C   0  0  0  0  0  0  0  0  0  0  0  0
   22.1957   -9.6120  -13.1834 C   0  0  0  0  0  0  0  0  0  0  0  0
   21.1271   -5.4377  -13.3202 O   0  0  0  0  0  0  0  0  0  0  0  0
  2  1  1  0
  3  2  1  0
  4  3  1  0
  5  4  1  0
  5  6  1  1
  7  8  2  0
  7  5  1  0
 10 11  1  1
 10  9  1  0
 12 10  1  0
 13 12  1  1
 13 14  1  0
 14  7  1  0
 15 13  1  0
 15 16  2  0
 18 17  1  0
 19 18  2  0
 20 19  1  0
 21 20  2  0
 21 27  1  0
 22 21  1  0
 23 22  1  6
 23 24  1  0
 24 15  1  0
 25 23  1  0
 26 25  2  0
 27 28  2  0
 28 18  1  0
 29 25  1  0
M  END
$$$$
