MLY.pdb
     RDKit          3D

 29 29  0  0  1  0  0  0  0  0999 V2000
   29.4350  -13.7805  -15.9388 C   0  0  0  0  0  0  0  0  0  0  0  0
   28.8904  -12.0602  -15.9131 S   0  0  0  0  0  0  0  0  0  0  0  0
   27.0851  -12.0430  -16.1515 C   0  0  0  0  0  0  0  0  0  0  0  0
   26.5606  -10.6360  -16.1237 C   0  0  0  0  0  0  0  0  0  0  0  0
   25.0844  -10.5650  -16.2456 C   0  0  2  0  0  0  0  0  0  0  0  0
   24.6456  -11.1255  -17.5326 N   0  0  0  0  0  0  0  0  0  0  0  0
   24.5128   -9.1850  -16.1415 C   0  0  0  0  0  0  0  0  0  0  0  0
   24.7147   -8.4985  -15.1086 O   0  0  0  0  0  0  0  0  0  0  0  0
   24.8964   -5.4754  -18.9212 C   0  0  0  0  0  0  0  0  0  0  0  0
   23.7876   -6.3505  -19.4249 C   0  0  2  0  0  0  0  0  0  0  0  0
   23.3209   -5.9509  -20.7789 C   0  0  0  0  0  0  0  0  0  0  0  0
   22.7708   -6.7809  -18.4675 C   0  0  0  0  0  0  0  0  0  0  0  0
   23.1029   -7.2936  -17.1358 C   0  0  2  0  0  0  0  0  0  0  0  0
   23.7401   -8.6177  -17.1836 N   0  0  0  0  0  0  0  0  0  0  0  0
   22.0024   -7.2566  -16.1789 C   0  0  0  0  0  0  0  0  0  0  0  0
   21.0027   -7.9884  -16.3103 O   0  0  0  0  0  0  0  0  0  0  0  0
   16.7281   -6.9669   -9.2844 O   0  0  0  0  0  0  0  0  0  0  0  0
   17.7883   -7.0394  -10.1825 C   0  0  0  0  0  0  0  0  0  0  0  0
   18.6943   -6.0152  -10.2296 C   0  0  0  0  0  0  0  0  0  0  0  0
   19.7420   -6.0787  -11.1117 C   0  0  0  0  0  0  0  0  0  0  0  0
   19.9515   -7.1460  -11.9875 C   0  0  0  0  0  0  0  0  0  0  0  0
   21.0777   -7.1616  -12.9266 C   0  0  0  0  0  0  0  0  0  0  0  0
   20.8338   -6.3547  -14.1663 C   0  0  2  0  0  0  0  0  0  0  0  0
   21.9968   -6.3821  -15.0331 N   0  0  0  0  0  0  0  0  0  0  0  0
   20.4477   -4.9723  -13.8286 C   0  0  0  0  0  0  0  0  0  0  0  0
   21.3532   -4.0985  -13.6102 O   0  0  0  0  0  0  0  0  0  0  0  0
   19.0027   -8.1564  -11.8972 C   0  0  0  0  0  0  0  0  0  0  0  0
   17.9420   -8.1209  -11.0231 C   0  0  0  0  0  0  0  0  0  0  0  0
   19.1437   -4.5305  -13.7276 O   0  0  0  0  0  0  0  0  0  0  0  0
  2  1  1  0
  3  2  1  0
  4  3  1  0
  5  4  1  0
  5  6  1  6
  7  8  2  0
  7  5  1  0
 10 11  1  6
 10  9  1  0
 12 10  1  0
 13 12  1  6
 13 14  1  0
 14  7  1  0
 15 13  1  0
 15 16  2  0
 18 17  1  0
 19 18  2  0
 20 19  1  0
 21 20  2  0
 21 27  1  0
 22 21  1  0
 23 22  1  1
 23 24  1  0
 24 15  1  0
 25 23  1  0
 26 25  2  0
 27 28  2  0
 28 18  1  0
 29 25  1  0
M  END
$$$$
