MLY.pdb
     RDKit          3D

 29 29  0  0  1  0  0  0  0  0999 V2000
   27.2882  -17.0798  -17.1388 C   0  0  0  0  0  0  0  0  0  0  0  0
   26.4357  -17.7665  -15.7041 S   0  0  0  0  0  0  0  0  0  0  0  0
   25.9602  -19.4781  -16.1042 C   0  0  0  0  0  0  0  0  0  0  0  0
   25.2031  -20.0977  -14.9646 C   0  0  0  0  0  0  0  0  0  0  0  0
   26.0825  -20.5334  -13.8530 C   0  0  2  0  0  0  0  0  0  0  0  0
   27.0689  -21.5147  -14.3300 N   0  0  0  0  0  0  0  0  0  0  0  0
   25.3658  -21.1493  -12.6916 C   0  0  0  0  0  0  0  0  0  0  0  0
   24.8913  -22.3087  -12.7904 O   0  0  0  0  0  0  0  0  0  0  0  0
   27.0263  -21.4402   -8.5462 C   0  0  0  0  0  0  0  0  0  0  0  0
   26.2068  -20.1876   -8.6384 C   0  0  2  0  0  0  0  0  0  0  0  0
   26.4992  -19.2367   -7.5331 C   0  0  0  0  0  0  0  0  0  0  0  0
   24.8133  -20.3143   -9.0598 C   0  0  0  0  0  0  0  0  0  0  0  0
   24.4215  -20.9500  -10.3204 C   0  0  2  0  0  0  0  0  0  0  0  0
   25.2016  -20.4595  -11.4660 N   0  0  0  0  0  0  0  0  0  0  0  0
   22.9884  -20.9279  -10.5921 C   0  0  0  0  0  0  0  0  0  0  0  0
   22.4223  -19.8996  -11.0098 O   0  0  0  0  0  0  0  0  0  0  0  0
   14.8159  -22.5650  -13.1487 O   0  0  0  0  0  0  0  0  0  0  0  0
   16.1759  -22.5619  -12.8553 C   0  0  0  0  0  0  0  0  0  0  0  0
   16.9491  -21.5183  -13.2856 C   0  0  0  0  0  0  0  0  0  0  0  0
   18.2902  -21.5075  -13.0007 C   0  0  0  0  0  0  0  0  0  0  0  0
   18.9361  -22.5160  -12.2824 C   0  0  0  0  0  0  0  0  0  0  0  0
   20.3776  -22.4698  -12.0170 C   0  0  0  0  0  0  0  0  0  0  0  0
   20.7176  -21.9623  -10.6479 C   0  0  2  0  0  0  0  0  0  0  0  0
   22.1418  -22.0780  -10.3972 N   0  0  0  0  0  0  0  0  0  0  0  0
   19.9315  -22.6624   -9.6154 C   0  0  0  0  0  0  0  0  0  0  0  0
   20.4255  -23.6838   -9.0291 O   0  0  0  0  0  0  0  0  0  0  0  0
   18.1043  -23.5493  -11.8709 C   0  0  0  0  0  0  0  0  0  0  0  0
   16.7567  -23.5879  -12.1412 C   0  0  0  0  0  0  0  0  0  0  0  0
   18.6634  -22.2902   -9.2164 O   0  0  0  0  0  0  0  0  0  0  0  0
  2  1  1  0
  3  2  1  0
  4  3  1  0
  5  4  1  0
  5  6  1  6
  7  8  2  0
  7  5  1  0
 10 11  1  1
 10  9  1  0
 12 10  1  0
 13 12  1  1
 13 14  1  0
 14  7  1  0
 15 13  1  0
 15 16  2  0
 18 17  1  0
 19 18  2  0
 20 19  1  0
 21 20  2  0
 21 27  1  0
 22 21  1  0
 23 22  1  6
 23 24  1  0
 24 15  1  0
 25 23  1  0
 26 25  2  0
 27 28  2  0
 28 18  1  0
 29 25  1  0
M  END
$$$$
