MLY.pdb
     RDKit          3D

 29 29  0  0  1  0  0  0  0  0999 V2000
   19.3956  -20.3337   -0.9851 C   0  0  0  0  0  0  0  0  0  0  0  0
   19.2426  -19.3976    0.5501 S   0  0  0  0  0  0  0  0  0  0  0  0
   17.7617  -19.9971    1.4239 C   0  0  0  0  0  0  0  0  0  0  0  0
   17.5536  -19.2326    2.6997 C   0  0  0  0  0  0  0  0  0  0  0  0
   16.3794  -19.7038    3.4731 C   0  0  2  0  0  0  0  0  0  0  0  0
   15.1368  -19.4568    2.7260 N   0  0  0  0  0  0  0  0  0  0  0  0
   16.2226  -19.0719    4.8215 C   0  0  0  0  0  0  0  0  0  0  0  0
   15.4596  -18.0840    4.9664 O   0  0  0  0  0  0  0  0  0  0  0  0
   17.4469  -20.5525   10.7834 C   0  0  0  0  0  0  0  0  0  0  0  0
   16.9772  -19.5386    9.7831 C   0  0  2  0  0  0  0  0  0  0  0  0
   15.7993  -18.7702   10.2657 C   0  0  0  0  0  0  0  0  0  0  0  0
   16.9970  -19.9145    8.3710 C   0  0  0  0  0  0  0  0  0  0  0  0
   16.8930  -18.9329    7.2883 C   0  0  2  0  0  0  0  0  0  0  0  0
   16.9155  -19.5567    5.9571 N   0  0  0  0  0  0  0  0  0  0  0  0
   17.8350  -17.8231    7.3821 C   0  0  0  0  0  0  0  0  0  0  0  0
   19.0423  -17.9713    7.1122 O   0  0  0  0  0  0  0  0  0  0  0  0
   22.1243  -10.2743    6.8637 O   0  0  0  0  0  0  0  0  0  0  0  0
   21.2314  -11.3409    6.8318 C   0  0  0  0  0  0  0  0  0  0  0  0
   20.0349  -11.1907    6.1855 C   0  0  0  0  0  0  0  0  0  0  0  0
   19.1494  -12.2368    6.1495 C   0  0  0  0  0  0  0  0  0  0  0  0
   19.3933  -13.4769    6.7434 C   0  0  0  0  0  0  0  0  0  0  0  0
   18.4076  -14.5615    6.6938 C   0  0  0  0  0  0  0  0  0  0  0  0
   18.4433  -15.4574    7.8953 C   0  0  2  0  0  0  0  0  0  0  0  0
   17.4384  -16.4984    7.7889 N   0  0  0  0  0  0  0  0  0  0  0  0
   18.2826  -14.6803    9.1380 C   0  0  0  0  0  0  0  0  0  0  0  0
   17.1126  -14.3542    9.5328 O   0  0  0  0  0  0  0  0  0  0  0  0
   20.6214  -13.5735    7.3850 C   0  0  0  0  0  0  0  0  0  0  0  0
   21.5295  -12.5425    7.4378 C   0  0  0  0  0  0  0  0  0  0  0  0
   19.3286  -14.2639    9.9370 O   0  0  0  0  0  0  0  0  0  0  0  0
  2  1  1  0
  3  2  1  0
  4  3  1  0
  5  4  1  0
  5  6  1  6
  7  8  2  0
  7  5  1  0
 10 11  1  1
 10  9  1  0
 12 10  1  0
 13 12  1  1
 13 14  1  0
 14  7  1  0
 15 13  1  0
 15 16  2  0
 18 17  1  0
 19 18  2  0
 20 19  1  0
 21 20  2  0
 21 27  1  0
 22 21  1  0
 23 22  1  6
 23 24  1  0
 24 15  1  0
 25 23  1  0
 26 25  2  0
 27 28  2  0
 28 18  1  0
 29 25  1  0
M  END
$$$$
