KLW.pdb
     RDKit          3D

 32 33  0  0  1  0  0  0  0  0999 V2000
   26.1780  -18.5842  -16.3089 N   0  0  0  0  0  0  0  0  0  0  0  0
   25.4815  -19.7945  -16.7158 C   0  0  1  0  0  0  0  0  0  0  0  0
   25.9243  -20.2815  -18.0342 C   0  0  0  0  0  0  0  0  0  0  0  0
   25.7869  -19.4646  -19.2376 C   0  0  0  0  0  0  0  0  0  0  0  0
   24.4777  -18.8917  -19.5532 C   0  0  0  0  0  0  0  0  0  0  0  0
   24.2769  -18.1320  -20.8009 C   0  0  0  0  0  0  0  0  0  0  0  0
   22.9516  -17.5340  -20.8951 N   0  0  0  0  0  0  0  0  0  0  0  0
   25.8559  -20.9084  -15.7295 C   0  0  0  0  0  0  0  0  0  0  0  0
   25.5036  -22.0922  -15.9513 O   0  0  0  0  0  0  0  0  0  0  0  0
   30.4876  -20.2547  -12.7736 C   0  0  0  0  0  0  0  0  0  0  0  0
   29.3749  -20.6041  -13.8200 C   0  0  1  0  0  0  0  0  0  0  0  0
   30.0631  -21.5182  -14.7789 C   0  0  0  0  0  0  0  0  0  0  0  0
   28.2942  -21.1758  -13.0048 C   0  0  0  0  0  0  0  0  0  0  0  0
   26.9913  -21.5408  -13.5855 C   0  0  2  0  0  0  0  0  0  0  0  0
   26.5956  -20.5238  -14.5967 N   0  0  0  0  0  0  0  0  0  0  0  0
   25.8263  -21.6583  -12.6876 C   0  0  0  0  0  0  0  0  0  0  0  0
   25.3452  -22.7442  -12.2619 O   0  0  0  0  0  0  0  0  0  0  0  0
   25.1192  -20.4988  -12.2090 N   0  0  0  0  0  0  0  0  0  0  0  0
   24.0394  -20.5528  -11.2418 C   0  0  1  0  0  0  0  0  0  0  0  0
   24.2095  -19.5765  -10.1489 C   0  0  0  0  0  0  0  0  0  0  0  0
   24.6929  -20.2036   -8.9084 C   0  0  0  0  0  0  0  0  0  0  0  0
   24.1841  -21.3312   -8.2588 C   0  0  0  0  0  0  0  0  0  0  0  0
   24.8618  -21.5762   -7.1260 N   0  0  0  0  0  0  0  0  0  0  0  0
   25.8113  -20.6314   -7.0136 C   0  0  0  0  0  0  0  0  0  0  0  0
   26.7868  -20.4454   -6.0375 C   0  0  0  0  0  0  0  0  0  0  0  0
   27.6488  -19.3831   -6.2101 C   0  0  0  0  0  0  0  0  0  0  0  0
   27.5757  -18.5306   -7.2817 C   0  0  0  0  0  0  0  0  0  0  0  0
   26.6102  -18.7179   -8.2422 C   0  0  0  0  0  0  0  0  0  0  0  0
   25.7354  -19.7803   -8.0837 C   0  0  0  0  0  0  0  0  0  0  0  0
   22.7114  -20.5872  -11.8330 C   0  0  0  0  0  0  0  0  0  0  0  0
   22.4676  -20.4675  -13.0371 O   0  0  0  0  0  0  0  0  0  0  0  0
   21.6227  -20.7704  -10.9699 O   0  0  0  0  0  0  0  0  0  0  0  0
  2  1  1  1
  2  3  1  0
  3  4  1  0
  5  4  1  0
  6  5  1  0
  7  6  1  0
  8  2  1  0
  9  8  2  0
 11 10  1  1
 11 13  1  0
 12 11  1  0
 14 13  1  1
 14 16  1  0
 14 15  1  0
 15  8  1  0
 16 17  2  0
 18 16  1  0
 18 19  1  0
 19 20  1  1
 20 21  1  0
 21 29  1  0
 22 21  2  0
 22 23  1  0
 23 24  1  0
 24 25  2  0
 25 26  1  0
 27 26  2  0
 28 27  1  0
 29 28  2  0
 29 24  1  0
 30 32  1  0
 30 19  1  0
 31 30  2  0
M  END
$$$$
