KLW.pdb
     RDKit          3D

 32 33  0  0  1  0  0  0  0  0999 V2000
   22.6593  -20.6425  -15.6411 N   0  0  0  0  0  0  0  0  0  0  0  0
   23.1708  -20.0448  -14.4177 C   0  0  1  0  0  0  0  0  0  0  0  0
   22.1914  -20.0905  -13.3177 C   0  0  0  0  0  0  0  0  0  0  0  0
   20.9646  -19.2979  -13.3518 C   0  0  0  0  0  0  0  0  0  0  0  0
   20.8766  -18.1779  -14.2898 C   0  0  0  0  0  0  0  0  0  0  0  0
   19.6717  -17.3288  -14.3270 C   0  0  0  0  0  0  0  0  0  0  0  0
   19.7595  -16.2603  -15.3136 N   0  0  0  0  0  0  0  0  0  0  0  0
   24.3547  -20.8940  -13.9371 C   0  0  0  0  0  0  0  0  0  0  0  0
   24.3024  -22.1458  -14.0064 O   0  0  0  0  0  0  0  0  0  0  0  0
   29.4020  -18.6747  -14.6362 C   0  0  0  0  0  0  0  0  0  0  0  0
   28.1785  -19.6391  -14.8039 C   0  0  1  0  0  0  0  0  0  0  0  0
   28.6744  -20.6808  -15.7513 C   0  0  0  0  0  0  0  0  0  0  0  0
   27.8793  -20.0679  -13.4306 C   0  0  0  0  0  0  0  0  0  0  0  0
   26.7238  -20.9251  -13.1174 C   0  0  2  0  0  0  0  0  0  0  0  0
   25.4652  -20.1959  -13.4294 N   0  0  0  0  0  0  0  0  0  0  0  0
   26.5540  -21.4022  -11.7316 C   0  0  0  0  0  0  0  0  0  0  0  0
   27.2144  -22.3366  -11.2000 O   0  0  0  0  0  0  0  0  0  0  0  0
   25.5833  -20.8175  -10.8430 N   0  0  0  0  0  0  0  0  0  0  0  0
   25.6349  -20.9369   -9.3982 C   0  0  1  0  0  0  0  0  0  0  0  0
   26.9026  -20.4359   -8.8341 C   0  0  0  0  0  0  0  0  0  0  0  0
   26.9198  -20.4871   -7.3634 C   0  0  0  0  0  0  0  0  0  0  0  0
   26.0027  -21.1098   -6.5129 C   0  0  0  0  0  0  0  0  0  0  0  0
   26.3266  -20.9016   -5.2267 N   0  0  0  0  0  0  0  0  0  0  0  0
   27.4426  -20.1527   -5.2096 C   0  0  0  0  0  0  0  0  0  0  0  0
   28.1940  -19.6790   -4.1373 C   0  0  0  0  0  0  0  0  0  0  0  0
   29.3212  -18.9447   -4.4401 C   0  0  0  0  0  0  0  0  0  0  0  0
   29.7118  -18.6756   -5.7268 C   0  0  0  0  0  0  0  0  0  0  0  0
   28.9660  -19.1446   -6.7820 C   0  0  0  0  0  0  0  0  0  0  0  0
   27.8298  -19.8835   -6.4953 C   0  0  0  0  0  0  0  0  0  0  0  0
   24.4354  -20.4738   -8.7192 C   0  0  0  0  0  0  0  0  0  0  0  0
   24.2461  -20.5233   -7.5006 O   0  0  0  0  0  0  0  0  0  0  0  0
   23.4138  -19.9287   -9.5087 O   0  0  0  0  0  0  0  0  0  0  0  0
  2  1  1  6
  2  3  1  0
  3  4  1  0
  5  4  1  0
  6  5  1  0
  7  6  1  0
  8  2  1  0
  9  8  2  0
 11 10  1  1
 11 13  1  0
 12 11  1  0
 14 13  1  1
 14 16  1  0
 14 15  1  0
 15  8  1  0
 16 17  2  0
 18 16  1  0
 18 19  1  0
 19 20  1  1
 20 21  1  0
 21 29  1  0
 22 21  2  0
 22 23  1  0
 23 24  1  0
 24 25  2  0
 25 26  1  0
 27 26  2  0
 28 27  1  0
 29 28  2  0
 29 24  1  0
 30 32  1  0
 30 19  1  0
 31 30  2  0
M  END
$$$$
