KLW.pdb
     RDKit          3D

 32 33  0  0  1  0  0  0  0  0999 V2000
   28.5487  -21.4728  -15.9713 N   0  0  0  0  0  0  0  0  0  0  0  0
   27.8662  -20.4287  -15.2234 C   0  0  1  0  0  0  0  0  0  0  0  0
   26.6817  -19.9125  -15.9319 C   0  0  0  0  0  0  0  0  0  0  0  0
   26.8068  -19.0605  -17.1121 C   0  0  0  0  0  0  0  0  0  0  0  0
   28.1361  -18.5874  -17.5005 C   0  0  0  0  0  0  0  0  0  0  0  0
   28.3005  -17.6960  -18.6634 C   0  0  0  0  0  0  0  0  0  0  0  0
   27.4056  -18.0270  -19.7644 N   0  0  0  0  0  0  0  0  0  0  0  0
   27.3216  -21.0527  -13.9319 C   0  0  0  0  0  0  0  0  0  0  0  0
   26.5481  -22.0393  -13.9854 O   0  0  0  0  0  0  0  0  0  0  0  0
   30.3571  -20.6700   -9.3269 C   0  0  0  0  0  0  0  0  0  0  0  0
   29.6087  -21.2269  -10.5858 C   0  0  1  0  0  0  0  0  0  0  0  0
   29.8915  -22.6923  -10.5480 C   0  0  0  0  0  0  0  0  0  0  0  0
   28.2158  -20.8060  -10.3804 C   0  0  0  0  0  0  0  0  0  0  0  0
   27.1943  -20.9576  -11.4299 C   0  0  2  0  0  0  0  0  0  0  0  0
   27.7345  -20.4616  -12.7243 N   0  0  0  0  0  0  0  0  0  0  0  0
   25.9037  -20.2620  -11.2644 C   0  0  0  0  0  0  0  0  0  0  0  0
   25.7524  -19.0097  -11.2405 O   0  0  0  0  0  0  0  0  0  0  0  0
   24.6680  -20.9852  -11.1101 N   0  0  0  0  0  0  0  0  0  0  0  0
   23.4547  -20.6779  -11.8434 C   0  0  1  0  0  0  0  0  0  0  0  0
   23.6976  -20.4923  -13.2866 C   0  0  0  0  0  0  0  0  0  0  0  0
   22.4925  -20.0469  -14.0043 C   0  0  0  0  0  0  0  0  0  0  0  0
   21.9145  -18.7748  -14.0095 C   0  0  0  0  0  0  0  0  0  0  0  0
   20.7929  -18.7629  -14.7475 N   0  0  0  0  0  0  0  0  0  0  0  0
   20.6178  -20.0043  -15.2322 C   0  0  0  0  0  0  0  0  0  0  0  0
   19.6250  -20.5154  -16.0640 C   0  0  0  0  0  0  0  0  0  0  0  0
   19.7279  -21.8447  -16.4162 C   0  0  0  0  0  0  0  0  0  0  0  0
   20.7480  -22.6530  -15.9842 C   0  0  0  0  0  0  0  0  0  0  0  0
   21.7253  -22.1439  -15.1624 C   0  0  0  0  0  0  0  0  0  0  0  0
   21.6363  -20.8102  -14.7983 C   0  0  0  0  0  0  0  0  0  0  0  0
   22.3275  -21.5361  -11.5159 C   0  0  0  0  0  0  0  0  0  0  0  0
   21.2677  -21.1538  -11.0119 O   0  0  0  0  0  0  0  0  0  0  0  0
   22.4528  -22.9040  -11.7935 O   0  0  0  0  0  0  0  0  0  0  0  0
  2  1  1  6
  2  3  1  0
  3  4  1  0
  5  4  1  0
  6  5  1  0
  7  6  1  0
  8  2  1  0
  9  8  2  0
 11 10  1  1
 11 13  1  0
 12 11  1  0
 14 13  1  1
 14 16  1  0
 14 15  1  0
 15  8  1  0
 16 17  2  0
 18 16  1  0
 18 19  1  0
 19 20  1  6
 20 21  1  0
 21 29  1  0
 22 21  2  0
 22 23  1  0
 23 24  1  0
 24 25  2  0
 25 26  1  0
 27 26  2  0
 28 27  1  0
 29 28  2  0
 29 24  1  0
 30 32  1  0
 30 19  1  0
 31 30  2  0
M  END
$$$$
