KLW.pdb
     RDKit          3D

 32 33  0  0  1  0  0  0  0  0999 V2000
   27.9532  -21.7770  -15.5296 N   0  0  0  0  0  0  0  0  0  0  0  0
   27.0072  -20.6749  -15.6083 C   0  0  1  0  0  0  0  0  0  0  0  0
   26.5922  -20.3882  -16.9929 C   0  0  0  0  0  0  0  0  0  0  0  0
   27.5231  -19.8302  -17.9709 C   0  0  0  0  0  0  0  0  0  0  0  0
   28.6491  -20.6510  -18.4184 C   0  0  0  0  0  0  0  0  0  0  0  0
   29.6015  -20.1306  -19.4165 C   0  0  0  0  0  0  0  0  0  0  0  0
   28.9494  -19.4159  -20.5058 N   0  0  0  0  0  0  0  0  0  0  0  0
   25.7238  -21.1025  -14.8845 C   0  0  0  0  0  0  0  0  0  0  0  0
   25.0256  -22.0405  -15.3395 O   0  0  0  0  0  0  0  0  0  0  0  0
   25.8057  -20.3324   -9.3521 C   0  0  0  0  0  0  0  0  0  0  0  0
   25.8901  -20.9599  -10.7854 C   0  0  1  0  0  0  0  0  0  0  0  0
   26.0710  -22.4186  -10.5246 C   0  0  0  0  0  0  0  0  0  0  0  0
   24.6347  -20.5426  -11.4252 C   0  0  0  0  0  0  0  0  0  0  0  0
   24.3176  -20.8943  -12.8194 C   0  0  2  0  0  0  0  0  0  0  0  0
   25.3944  -20.3933  -13.7154 N   0  0  0  0  0  0  0  0  0  0  0  0
   23.0644  -20.3847  -13.4083 C   0  0  0  0  0  0  0  0  0  0  0  0
   22.6564  -19.1936  -13.3269 O   0  0  0  0  0  0  0  0  0  0  0  0
   22.1738  -21.2394  -14.1499 N   0  0  0  0  0  0  0  0  0  0  0  0
   20.8809  -20.8166  -14.6538 C   0  0  1  0  0  0  0  0  0  0  0  0
   20.6705  -21.1988  -16.0631 C   0  0  0  0  0  0  0  0  0  0  0  0
   19.3987  -20.6868  -16.5981 C   0  0  0  0  0  0  0  0  0  0  0  0
   18.9794  -19.3576  -16.6974 C   0  0  0  0  0  0  0  0  0  0  0  0
   17.7357  -19.2854  -17.1981 N   0  0  0  0  0  0  0  0  0  0  0  0
   17.3237  -20.5430  -17.4332 C   0  0  0  0  0  0  0  0  0  0  0  0
   16.1264  -21.0147  -17.9651 C   0  0  0  0  0  0  0  0  0  0  0  0
   16.0025  -22.3803  -18.1111 C   0  0  0  0  0  0  0  0  0  0  0  0
   16.9933  -23.2603  -17.7586 C   0  0  0  0  0  0  0  0  0  0  0  0
   18.1732  -22.7897  -17.2331 C   0  0  0  0  0  0  0  0  0  0  0  0
   18.3138  -21.4202  -17.0788 C   0  0  0  0  0  0  0  0  0  0  0  0
   19.7691  -21.1133  -13.7648 C   0  0  0  0  0  0  0  0  0  0  0  0
   18.9034  -20.3051  -13.4173 O   0  0  0  0  0  0  0  0  0  0  0  0
   19.6719  -22.4180  -13.2625 O   0  0  0  0  0  0  0  0  0  0  0  0
  2  1  1  6
  2  3  1  0
  3  4  1  0
  5  4  1  0
  6  5  1  0
  7  6  1  0
  8  2  1  0
  9  8  2  0
 11 10  1  1
 11 13  1  0
 12 11  1  0
 14 13  1  1
 14 16  1  0
 14 15  1  0
 15  8  1  0
 16 17  2  0
 18 16  1  0
 18 19  1  0
 19 20  1  6
 20 21  1  0
 21 29  1  0
 22 21  2  0
 22 23  1  0
 23 24  1  0
 24 25  2  0
 25 26  1  0
 27 26  2  0
 28 27  1  0
 29 28  2  0
 29 24  1  0
 30 32  1  0
 30 19  1  0
 31 30  2  0
M  END
$$$$
