KLW.pdb
     RDKit          3D

 32 33  0  0  1  0  0  0  0  0999 V2000
   24.2532  -22.3310  -16.1899 N   0  0  0  0  0  0  0  0  0  0  0  0
   24.7906  -23.4101  -15.3762 C   0  0  1  0  0  0  0  0  0  0  0  0
   25.1358  -24.5987  -16.1759 C   0  0  0  0  0  0  0  0  0  0  0  0
   24.1173  -25.5533  -16.6069 C   0  0  0  0  0  0  0  0  0  0  0  0
   23.5193  -26.4421  -15.6098 C   0  0  0  0  0  0  0  0  0  0  0  0
   22.4714  -27.4033  -15.9999 C   0  0  0  0  0  0  0  0  0  0  0  0
   21.9816  -27.1910  -17.3555 N   0  0  0  0  0  0  0  0  0  0  0  0
   26.1182  -22.9310  -14.7748 C   0  0  0  0  0  0  0  0  0  0  0  0
   27.0220  -23.7577  -14.5021 O   0  0  0  0  0  0  0  0  0  0  0  0
   26.0989  -18.3476  -14.6840 C   0  0  0  0  0  0  0  0  0  0  0  0
   27.4273  -19.0941  -15.0490 C   0  0  1  0  0  0  0  0  0  0  0  0
   28.3468  -17.9967  -15.4722 C   0  0  0  0  0  0  0  0  0  0  0  0
   27.7704  -19.8209  -13.8188 C   0  0  0  0  0  0  0  0  0  0  0  0
   27.0614  -21.0469  -13.4160 C   0  0  2  0  0  0  0  0  0  0  0  0
   26.2476  -21.5476  -14.5563 N   0  0  0  0  0  0  0  0  0  0  0  0
   26.1230  -20.9786  -12.2795 C   0  0  0  0  0  0  0  0  0  0  0  0
   25.0902  -20.2553  -12.2340 O   0  0  0  0  0  0  0  0  0  0  0  0
   26.3199  -21.7611  -11.0868 N   0  0  0  0  0  0  0  0  0  0  0  0
   26.1338  -21.2472   -9.7430 C   0  0  1  0  0  0  0  0  0  0  0  0
   27.3926  -21.2028   -8.9750 C   0  0  0  0  0  0  0  0  0  0  0  0
   27.2277  -20.5479   -7.6674 C   0  0  0  0  0  0  0  0  0  0  0  0
   26.0403  -20.1511   -7.0469 C   0  0  0  0  0  0  0  0  0  0  0  0
   26.2928  -19.5440   -5.8764 N   0  0  0  0  0  0  0  0  0  0  0  0
   27.6266  -19.5322   -5.7096 C   0  0  0  0  0  0  0  0  0  0  0  0
   28.3994  -19.0412   -4.6605 C   0  0  0  0  0  0  0  0  0  0  0  0
   29.7655  -19.1979   -4.7642 C   0  0  0  0  0  0  0  0  0  0  0  0
   30.3667  -19.8043   -5.8373 C   0  0  0  0  0  0  0  0  0  0  0  0
   29.5993  -20.2866   -6.8708 C   0  0  0  0  0  0  0  0  0  0  0  0
   28.2249  -20.1365   -6.7829 C   0  0  0  0  0  0  0  0  0  0  0  0
   25.3296  -20.0377   -9.6741 C   0  0  0  0  0  0  0  0  0  0  0  0
   25.6781  -18.9293  -10.0905 O   0  0  0  0  0  0  0  0  0  0  0  0
   24.0598  -20.1367   -9.0895 O   0  0  0  0  0  0  0  0  0  0  0  0
  2  1  1  6
  2  3  1  0
  3  4  1  0
  5  4  1  0
  6  5  1  0
  7  6  1  0
  8  2  1  0
  9  8  2  0
 11 10  1  1
 11 13  1  0
 12 11  1  0
 14 13  1  6
 14 16  1  0
 14 15  1  0
 15  8  1  0
 16 17  2  0
 18 16  1  0
 18 19  1  0
 19 20  1  6
 20 21  1  0
 21 29  1  0
 22 21  2  0
 22 23  1  0
 23 24  1  0
 24 25  2  0
 25 26  1  0
 27 26  2  0
 28 27  1  0
 29 28  2  0
 29 24  1  0
 30 32  1  0
 30 19  1  0
 31 30  2  0
M  END
$$$$
