KLW.pdb
     RDKit          3D

 32 33  0  0  1  0  0  0  0  0999 V2000
   23.9722  -18.4921  -14.9800 N   0  0  0  0  0  0  0  0  0  0  0  0
   23.1836  -19.0805  -13.9087 C   0  0  1  0  0  0  0  0  0  0  0  0
   21.9145  -19.6514  -14.3934 C   0  0  0  0  0  0  0  0  0  0  0  0
   20.9718  -18.8616  -15.1821 C   0  0  0  0  0  0  0  0  0  0  0  0
   20.5304  -17.5671  -14.6614 C   0  0  0  0  0  0  0  0  0  0  0  0
   19.5547  -16.7547  -15.4112 C   0  0  0  0  0  0  0  0  0  0  0  0
   19.2663  -15.4783  -14.7706 N   0  0  0  0  0  0  0  0  0  0  0  0
   23.9696  -20.2706  -13.3435 C   0  0  0  0  0  0  0  0  0  0  0  0
   23.3691  -21.3179  -13.0013 O   0  0  0  0  0  0  0  0  0  0  0  0
   28.5964  -22.1030  -15.5117 C   0  0  0  0  0  0  0  0  0  0  0  0
   27.1405  -21.8563  -14.9878 C   0  0  1  0  0  0  0  0  0  0  0  0
   26.4451  -23.1515  -15.2474 C   0  0  0  0  0  0  0  0  0  0  0  0
   27.3343  -21.4676  -13.5839 C   0  0  0  0  0  0  0  0  0  0  0  0
   26.1979  -21.2113  -12.6835 C   0  0  2  0  0  0  0  0  0  0  0  0
   25.3631  -20.1116  -13.2377 N   0  0  0  0  0  0  0  0  0  0  0  0
   26.4769  -20.8127  -11.2906 C   0  0  0  0  0  0  0  0  0  0  0  0
   27.3685  -19.9938  -10.9351 O   0  0  0  0  0  0  0  0  0  0  0  0
   25.7257  -21.3480  -10.1848 N   0  0  0  0  0  0  0  0  0  0  0  0
   26.0058  -21.0435   -8.7944 C   0  0  1  0  0  0  0  0  0  0  0  0
   26.2908  -19.6127   -8.5750 C   0  0  0  0  0  0  0  0  0  0  0  0
   27.5572  -19.3979   -7.8568 C   0  0  0  0  0  0  0  0  0  0  0  0
   28.8058  -19.0711   -8.3921 C   0  0  0  0  0  0  0  0  0  0  0  0
   29.7360  -19.0016   -7.4265 N   0  0  0  0  0  0  0  0  0  0  0  0
   29.1259  -19.2757   -6.2605 C   0  0  0  0  0  0  0  0  0  0  0  0
   29.6343  -19.3156   -4.9648 C   0  0  0  0  0  0  0  0  0  0  0  0
   28.7439  -19.6071   -3.9530 C   0  0  0  0  0  0  0  0  0  0  0  0
   27.4135  -19.8514   -4.1786 C   0  0  0  0  0  0  0  0  0  0  0  0
   26.9167  -19.8117   -5.4598 C   0  0  0  0  0  0  0  0  0  0  0  0
   27.7981  -19.5211   -6.4883 C   0  0  0  0  0  0  0  0  0  0  0  0
   25.0663  -21.6335   -7.8545 C   0  0  0  0  0  0  0  0  0  0  0  0
   24.7354  -22.8225   -7.8341 O   0  0  0  0  0  0  0  0  0  0  0  0
   24.4908  -20.7876   -6.8968 O   0  0  0  0  0  0  0  0  0  0  0  0
  2  1  1  6
  2  3  1  0
  3  4  1  0
  5  4  1  0
  6  5  1  0
  7  6  1  0
  8  2  1  0
  9  8  2  0
 11 10  1  1
 11 13  1  0
 12 11  1  0
 14 13  1  6
 14 16  1  0
 14 15  1  0
 15  8  1  0
 16 17  2  0
 18 16  1  0
 18 19  1  0
 19 20  1  6
 20 21  1  0
 21 29  1  0
 22 21  2  0
 22 23  1  0
 23 24  1  0
 24 25  2  0
 25 26  1  0
 27 26  2  0
 28 27  1  0
 29 28  2  0
 29 24  1  0
 30 32  1  0
 30 19  1  0
 31 30  2  0
M  END
$$$$
