KLW.pdb
     RDKit          3D

 32 33  0  0  1  0  0  0  0  0999 V2000
   28.7897  -20.3205  -16.5166 N   0  0  0  0  0  0  0  0  0  0  0  0
   29.0749  -19.0450  -15.8783 C   0  0  1  0  0  0  0  0  0  0  0  0
   28.8353  -17.9012  -16.7760 C   0  0  0  0  0  0  0  0  0  0  0  0
   29.3642  -17.8730  -18.1375 C   0  0  0  0  0  0  0  0  0  0  0  0
   30.7853  -18.1535  -18.3462 C   0  0  0  0  0  0  0  0  0  0  0  0
   31.3763  -18.0503  -19.6931 C   0  0  0  0  0  0  0  0  0  0  0  0
   32.7599  -18.5040  -19.7431 N   0  0  0  0  0  0  0  0  0  0  0  0
   28.0824  -18.8636  -14.7226 C   0  0  0  0  0  0  0  0  0  0  0  0
   27.9883  -17.7564  -14.1398 O   0  0  0  0  0  0  0  0  0  0  0  0
   23.3628  -19.1198  -12.3548 C   0  0  0  0  0  0  0  0  0  0  0  0
   23.8147  -20.4761  -12.9962 C   0  0  1  0  0  0  0  0  0  0  0  0
   22.5863  -20.9697  -13.6862 C   0  0  0  0  0  0  0  0  0  0  0  0
   24.9557  -20.1006  -13.8428 C   0  0  0  0  0  0  0  0  0  0  0  0
   26.3014  -19.8868  -13.2849 C   0  0  2  0  0  0  0  0  0  0  0  0
   27.3117  -19.9869  -14.3724 N   0  0  0  0  0  0  0  0  0  0  0  0
   26.7828  -20.8022  -12.2326 C   0  0  0  0  0  0  0  0  0  0  0  0
   27.2425  -21.9599  -12.4327 O   0  0  0  0  0  0  0  0  0  0  0  0
   26.7643  -20.4325  -10.8409 N   0  0  0  0  0  0  0  0  0  0  0  0
   26.5101  -21.3660   -9.7600 C   0  0  1  0  0  0  0  0  0  0  0  0
   27.6694  -21.5194   -8.8606 C   0  0  0  0  0  0  0  0  0  0  0  0
   27.6826  -20.5124   -7.7876 C   0  0  0  0  0  0  0  0  0  0  0  0
   26.9888  -19.3007   -7.7355 C   0  0  0  0  0  0  0  0  0  0  0  0
   27.2888  -18.6264   -6.6140 N   0  0  0  0  0  0  0  0  0  0  0  0
   28.1686  -19.3701   -5.9214 C   0  0  0  0  0  0  0  0  0  0  0  0
   28.7751  -19.1351   -4.6902 C   0  0  0  0  0  0  0  0  0  0  0  0
   29.6282  -20.1100   -4.2177 C   0  0  0  0  0  0  0  0  0  0  0  0
   29.8888  -21.2684   -4.9038 C   0  0  0  0  0  0  0  0  0  0  0  0
   29.2882  -21.4953   -6.1193 C   0  0  0  0  0  0  0  0  0  0  0  0
   28.4288  -20.5254   -6.6090 C   0  0  0  0  0  0  0  0  0  0  0  0
   25.2350  -21.1679   -9.0896 C   0  0  0  0  0  0  0  0  0  0  0  0
   24.4712  -20.2181   -9.2842 O   0  0  0  0  0  0  0  0  0  0  0  0
   24.8416  -22.1294   -8.1491 O   0  0  0  0  0  0  0  0  0  0  0  0
  2  1  1  6
  2  3  1  0
  3  4  1  0
  5  4  1  0
  6  5  1  0
  7  6  1  0
  8  2  1  0
  9  8  2  0
 11 10  1  6
 11 13  1  0
 12 11  1  0
 14 13  1  6
 14 16  1  0
 14 15  1  0
 15  8  1  0
 16 17  2  0
 18 16  1  0
 18 19  1  0
 19 20  1  1
 20 21  1  0
 21 29  1  0
 22 21  2  0
 22 23  1  0
 23 24  1  0
 24 25  2  0
 25 26  1  0
 27 26  2  0
 28 27  1  0
 29 28  2  0
 29 24  1  0
 30 32  1  0
 30 19  1  0
 31 30  2  0
M  END
$$$$
