KLW.pdb
     RDKit          3D

 32 33  0  0  1  0  0  0  0  0999 V2000
   24.3952  -19.4728  -15.3059 N   0  0  0  0  0  0  0  0  0  0  0  0
   24.2455  -19.4119  -13.8604 C   0  0  1  0  0  0  0  0  0  0  0  0
   22.8634  -19.6826  -13.4266 C   0  0  0  0  0  0  0  0  0  0  0  0
   21.7140  -19.1768  -14.1733 C   0  0  0  0  0  0  0  0  0  0  0  0
   21.6420  -17.7454  -14.4694 C   0  0  0  0  0  0  0  0  0  0  0  0
   20.4771  -17.1885  -15.1814 C   0  0  0  0  0  0  0  0  0  0  0  0
   19.5227  -18.2086  -15.5949 N   0  0  0  0  0  0  0  0  0  0  0  0
   25.0863  -20.5414  -13.2512 C   0  0  0  0  0  0  0  0  0  0  0  0
   24.8132  -21.7393  -13.5063 O   0  0  0  0  0  0  0  0  0  0  0  0
   30.3739  -19.6068  -12.7718 C   0  0  0  0  0  0  0  0  0  0  0  0
   28.8676  -19.8999  -13.0886 C   0  0  1  0  0  0  0  0  0  0  0  0
   28.9005  -20.4844  -14.4619 C   0  0  0  0  0  0  0  0  0  0  0  0
   28.4443  -20.7828  -11.9928 C   0  0  0  0  0  0  0  0  0  0  0  0
   27.0390  -21.1855  -11.8168 C   0  0  2  0  0  0  0  0  0  0  0  0
   26.1482  -20.1545  -12.4139 N   0  0  0  0  0  0  0  0  0  0  0  0
   26.5278  -21.3833  -10.4469 C   0  0  0  0  0  0  0  0  0  0  0  0
   26.9720  -22.2279   -9.6217 O   0  0  0  0  0  0  0  0  0  0  0  0
   25.4392  -20.5986   -9.9243 N   0  0  0  0  0  0  0  0  0  0  0  0
   24.8375  -20.8171   -8.6226 C   0  0  1  0  0  0  0  0  0  0  0  0
   25.0032  -19.6608   -7.7215 C   0  0  0  0  0  0  0  0  0  0  0  0
   26.4178  -19.3698   -7.4386 C   0  0  0  0  0  0  0  0  0  0  0  0
   27.3185  -18.6377   -8.2165 C   0  0  0  0  0  0  0  0  0  0  0  0
   28.5368  -18.6256   -7.6524 N   0  0  0  0  0  0  0  0  0  0  0  0
   28.4593  -19.3359   -6.5139 C   0  0  0  0  0  0  0  0  0  0  0  0
   29.4309  -19.6107   -5.5551 C   0  0  0  0  0  0  0  0  0  0  0  0
   29.0391  -20.3585   -4.4648 C   0  0  0  0  0  0  0  0  0  0  0  0
   27.7599  -20.8252   -4.3023 C   0  0  0  0  0  0  0  0  0  0  0  0
   26.8045  -20.5519   -5.2522 C   0  0  0  0  0  0  0  0  0  0  0  0
   27.1818  -19.8025   -6.3545 C   0  0  0  0  0  0  0  0  0  0  0  0
   23.4929  -21.3684   -8.6730 C   0  0  0  0  0  0  0  0  0  0  0  0
   22.6007  -20.9934   -9.4390 O   0  0  0  0  0  0  0  0  0  0  0  0
   23.1846  -22.4061   -7.7831 O   0  0  0  0  0  0  0  0  0  0  0  0
  2  1  1  6
  2  3  1  0
  3  4  1  0
  5  4  1  0
  6  5  1  0
  7  6  1  0
  8  2  1  0
  9  8  2  0
 11 10  1  1
 11 13  1  0
 12 11  1  0
 14 13  1  1
 14 16  1  0
 14 15  1  0
 15  8  1  0
 16 17  2  0
 18 16  1  0
 18 19  1  0
 19 20  1  6
 20 21  1  0
 21 29  1  0
 22 21  2  0
 22 23  1  0
 23 24  1  0
 24 25  2  0
 25 26  1  0
 27 26  2  0
 28 27  1  0
 29 28  2  0
 29 24  1  0
 30 32  1  0
 30 19  1  0
 31 30  2  0
M  END
$$$$
