KLW.pdb
     RDKit          3D

 32 33  0  0  1  0  0  0  0  0999 V2000
   27.5663  -22.4391  -17.8462 N   0  0  0  0  0  0  0  0  0  0  0  0
   26.8019  -21.2706  -17.4390 C   0  0  1  0  0  0  0  0  0  0  0  0
   25.5994  -21.0692  -18.2667 C   0  0  0  0  0  0  0  0  0  0  0  0
   25.6920  -20.6307  -19.6572 C   0  0  0  0  0  0  0  0  0  0  0  0
   26.7550  -19.6968  -20.0310 C   0  0  0  0  0  0  0  0  0  0  0  0
   27.3103  -19.7063  -21.3969 C   0  0  0  0  0  0  0  0  0  0  0  0
   26.8278  -18.6009  -22.2143 N   0  0  0  0  0  0  0  0  0  0  0  0
   26.2755  -21.5223  -16.0201 C   0  0  0  0  0  0  0  0  0  0  0  0
   25.8344  -22.6532  -15.7023 O   0  0  0  0  0  0  0  0  0  0  0  0
   28.9667  -19.2747  -11.8375 C   0  0  0  0  0  0  0  0  0  0  0  0
   28.2998  -20.3641  -12.7449 C   0  0  1  0  0  0  0  0  0  0  0  0
   28.5750  -21.6429  -12.0255 C   0  0  0  0  0  0  0  0  0  0  0  0
   26.8979  -19.9335  -12.8370 C   0  0  0  0  0  0  0  0  0  0  0  0
   25.9285  -20.6202  -13.7068 C   0  0  2  0  0  0  0  0  0  0  0  0
   26.3190  -20.4340  -15.1302 N   0  0  0  0  0  0  0  0  0  0  0  0
   24.5117  -20.2129  -13.6443 C   0  0  0  0  0  0  0  0  0  0  0  0
   24.0674  -19.0795  -13.9758 O   0  0  0  0  0  0  0  0  0  0  0  0
   23.4854  -21.1106  -13.1813 N   0  0  0  0  0  0  0  0  0  0  0  0
   22.1144  -20.7095  -12.9287 C   0  0  1  0  0  0  0  0  0  0  0  0
   21.1614  -21.3285  -13.8695 C   0  0  0  0  0  0  0  0  0  0  0  0
   21.3574  -20.8632  -15.2518 C   0  0  0  0  0  0  0  0  0  0  0  0
   22.1484  -21.4384  -16.2498 C   0  0  0  0  0  0  0  0  0  0  0  0
   22.1115  -20.7021  -17.3719 N   0  0  0  0  0  0  0  0  0  0  0  0
   21.3094  -19.6497  -17.1357 C   0  0  0  0  0  0  0  0  0  0  0  0
   20.9244  -18.6044  -17.9711 C   0  0  0  0  0  0  0  0  0  0  0  0
   20.0575  -17.6703  -17.4444 C   0  0  0  0  0  0  0  0  0  0  0  0
   19.5784  -17.7385  -16.1612 C   0  0  0  0  0  0  0  0  0  0  0  0
   19.9624  -18.7720  -15.3401 C   0  0  0  0  0  0  0  0  0  0  0  0
   20.8337  -19.7187  -15.8535 C   0  0  0  0  0  0  0  0  0  0  0  0
   21.7239  -20.7719  -11.5294 C   0  0  0  0  0  0  0  0  0  0  0  0
   22.4328  -21.1979  -10.6133 O   0  0  0  0  0  0  0  0  0  0  0  0
   20.4431  -20.3130  -11.1934 O   0  0  0  0  0  0  0  0  0  0  0  0
  2  1  1  6
  2  3  1  0
  3  4  1  0
  5  4  1  0
  6  5  1  0
  7  6  1  0
  8  2  1  0
  9  8  2  0
 11 10  1  1
 11 13  1  0
 12 11  1  0
 14 13  1  1
 14 16  1  0
 14 15  1  0
 15  8  1  0
 16 17  2  0
 18 16  1  0
 18 19  1  0
 19 20  1  6
 20 21  1  0
 21 29  1  0
 22 21  2  0
 22 23  1  0
 23 24  1  0
 24 25  2  0
 25 26  1  0
 27 26  2  0
 28 27  1  0
 29 28  2  0
 29 24  1  0
 30 32  1  0
 30 19  1  0
 31 30  2  0
M  END
$$$$
