KLW.pdb
     RDKit          3D

 32 33  0  0  1  0  0  0  0  0999 V2000
   34.5089  -29.1333  -18.8523 N   0  0  0  0  0  0  0  0  0  0  0  0
   33.5985  -30.2675  -18.8328 C   0  0  1  0  0  0  0  0  0  0  0  0
   33.5844  -30.9545  -17.5293 C   0  0  0  0  0  0  0  0  0  0  0  0
   34.2940  -32.2144  -17.3205 C   0  0  0  0  0  0  0  0  0  0  0  0
   33.5759  -33.3331  -16.7083 C   0  0  0  0  0  0  0  0  0  0  0  0
   34.2540  -34.6237  -16.4877 C   0  0  0  0  0  0  0  0  0  0  0  0
   33.3759  -35.6371  -15.9179 N   0  0  0  0  0  0  0  0  0  0  0  0
   32.1732  -29.7314  -19.0200 C   0  0  0  0  0  0  0  0  0  0  0  0
   31.8695  -28.5878  -18.6024 O   0  0  0  0  0  0  0  0  0  0  0  0
   28.2970  -28.5831  -22.1219 C   0  0  0  0  0  0  0  0  0  0  0  0
   28.2320  -30.1389  -21.9475 C   0  0  1  0  0  0  0  0  0  0  0  0
   27.9547  -30.6397  -23.3263 C   0  0  0  0  0  0  0  0  0  0  0  0
   29.5342  -30.4803  -21.3581 C   0  0  0  0  0  0  0  0  0  0  0  0
   29.8869  -30.1032  -19.9792 C   0  0  2  0  0  0  0  0  0  0  0  0
   31.2607  -30.5825  -19.6691 N   0  0  0  0  0  0  0  0  0  0  0  0
   29.0494  -30.6065  -18.8736 C   0  0  0  0  0  0  0  0  0  0  0  0
   27.8161  -30.3790  -18.7363 O   0  0  0  0  0  0  0  0  0  0  0  0
   29.5947  -31.4274  -17.8237 N   0  0  0  0  0  0  0  0  0  0  0  0
   28.8346  -31.8793  -16.6738 C   0  0  1  0  0  0  0  0  0  0  0  0
   29.1809  -33.2560  -16.2723 C   0  0  0  0  0  0  0  0  0  0  0  0
   28.8584  -34.2415  -17.3166 C   0  0  0  0  0  0  0  0  0  0  0  0
   28.0466  -34.0702  -18.4408 C   0  0  0  0  0  0  0  0  0  0  0  0
   27.9533  -35.2120  -19.1409 N   0  0  0  0  0  0  0  0  0  0  0  0
   28.6896  -36.1368  -18.5012 C   0  0  0  0  0  0  0  0  0  0  0  0
   28.9393  -37.4689  -18.8204 C   0  0  0  0  0  0  0  0  0  0  0  0
   29.7683  -38.1704  -17.9706 C   0  0  0  0  0  0  0  0  0  0  0  0
   30.3365  -37.6116  -16.8546 C   0  0  0  0  0  0  0  0  0  0  0  0
   30.0861  -36.2963  -16.5432 C   0  0  0  0  0  0  0  0  0  0  0  0
   29.2545  -35.5773  -17.3862 C   0  0  0  0  0  0  0  0  0  0  0  0
   28.7755  -30.9185  -15.5839 C   0  0  0  0  0  0  0  0  0  0  0  0
   29.1430  -29.7423  -15.6544 O   0  0  0  0  0  0  0  0  0  0  0  0
   28.2617  -31.3610  -14.3575 O   0  0  0  0  0  0  0  0  0  0  0  0
  2  1  1  1
  2  3  1  0
  3  4  1  0
  5  4  1  0
  6  5  1  0
  7  6  1  0
  8  2  1  0
  9  8  2  0
 11 10  1  6
 11 13  1  0
 12 11  1  0
 14 13  1  6
 14 16  1  0
 14 15  1  0
 15  8  1  0
 16 17  2  0
 18 16  1  0
 18 19  1  0
 19 20  1  1
 20 21  1  0
 21 29  1  0
 22 21  2  0
 22 23  1  0
 23 24  1  0
 24 25  2  0
 25 26  1  0
 27 26  2  0
 28 27  1  0
 29 28  2  0
 29 24  1  0
 30 32  1  0
 30 19  1  0
 31 30  2  0
M  END
$$$$
