KLW.pdb
     RDKit          3D

 32 33  0  0  1  0  0  0  0  0999 V2000
   28.8937  -20.2079  -15.8180 N   0  0  0  0  0  0  0  0  0  0  0  0
   28.2581  -19.5685  -14.6766 C   0  0  1  0  0  0  0  0  0  0  0  0
   27.0001  -18.8924  -15.0397 C   0  0  0  0  0  0  0  0  0  0  0  0
   26.9729  -17.7888  -15.9966 C   0  0  0  0  0  0  0  0  0  0  0  0
   27.3762  -16.4563  -15.5454 C   0  0  0  0  0  0  0  0  0  0  0  0
   27.3278  -15.3090  -16.4702 C   0  0  0  0  0  0  0  0  0  0  0  0
   26.7235  -15.6390  -17.7542 N   0  0  0  0  0  0  0  0  0  0  0  0
   27.8522  -20.6674  -13.6860 C   0  0  0  0  0  0  0  0  0  0  0  0
   27.4789  -21.7892  -14.1064 O   0  0  0  0  0  0  0  0  0  0  0  0
   30.1710  -20.5189   -8.5130 C   0  0  0  0  0  0  0  0  0  0  0  0
   29.8813  -21.0280   -9.9662 C   0  0  1  0  0  0  0  0  0  0  0  0
   30.5646  -22.3542  -10.0210 C   0  0  0  0  0  0  0  0  0  0  0  0
   28.4144  -21.0241  -10.0532 C   0  0  0  0  0  0  0  0  0  0  0  0
   27.7073  -21.3935  -11.2907 C   0  0  2  0  0  0  0  0  0  0  0  0
   27.9239  -20.3411  -12.3197 N   0  0  0  0  0  0  0  0  0  0  0  0
   26.2446  -21.5802  -11.2390 C   0  0  0  0  0  0  0  0  0  0  0  0
   25.6385  -22.3433  -10.4377 O   0  0  0  0  0  0  0  0  0  0  0  0
   25.3598  -20.8801  -12.1339 N   0  0  0  0  0  0  0  0  0  0  0  0
   23.9223  -21.0724  -12.1636 C   0  0  1  0  0  0  0  0  0  0  0  0
   23.1790  -19.8181  -11.9384 C   0  0  0  0  0  0  0  0  0  0  0  0
   21.7229  -20.0289  -11.9035 C   0  0  0  0  0  0  0  0  0  0  0  0
   20.9158  -20.2799  -10.7909 C   0  0  0  0  0  0  0  0  0  0  0  0
   19.6379  -20.4631  -11.1595 N   0  0  0  0  0  0  0  0  0  0  0  0
   19.5835  -20.3371  -12.4967 C   0  0  0  0  0  0  0  0  0  0  0  0
   18.4989  -20.4168  -13.3662 C   0  0  0  0  0  0  0  0  0  0  0  0
   18.7560  -20.2160  -14.7060 C   0  0  0  0  0  0  0  0  0  0  0  0
   20.0101  -19.9486  -15.1921 C   0  0  0  0  0  0  0  0  0  0  0  0
   21.0778  -19.8718  -14.3297 C   0  0  0  0  0  0  0  0  0  0  0  0
   20.8370  -20.0719  -12.9802 C   0  0  0  0  0  0  0  0  0  0  0  0
   23.4515  -21.8725  -13.2828 C   0  0  0  0  0  0  0  0  0  0  0  0
   23.9080  -21.8277  -14.4286 O   0  0  0  0  0  0  0  0  0  0  0  0
   22.3973  -22.7643  -13.0432 O   0  0  0  0  0  0  0  0  0  0  0  0
  2  1  1  6
  2  3  1  0
  3  4  1  0
  5  4  1  0
  6  5  1  0
  7  6  1  0
  8  2  1  0
  9  8  2  0
 11 10  1  1
 11 13  1  0
 12 11  1  0
 14 13  1  1
 14 16  1  0
 14 15  1  0
 15  8  1  0
 16 17  2  0
 18 16  1  0
 18 19  1  0
 19 20  1  6
 20 21  1  0
 21 29  1  0
 22 21  2  0
 22 23  1  0
 23 24  1  0
 24 25  2  0
 25 26  1  0
 27 26  2  0
 28 27  1  0
 29 28  2  0
 29 24  1  0
 30 32  1  0
 30 19  1  0
 31 30  2  0
M  END
$$$$
