KLW.pdb
     RDKit          3D

 32 33  0  0  1  0  0  0  0  0999 V2000
   25.7631  -18.4669  -13.6955 N   0  0  0  0  0  0  0  0  0  0  0  0
   25.3648  -19.8335  -13.9940 C   0  0  1  0  0  0  0  0  0  0  0  0
   25.5225  -20.1659  -15.4210 C   0  0  0  0  0  0  0  0  0  0  0  0
   24.8854  -19.3698  -16.4672 C   0  0  0  0  0  0  0  0  0  0  0  0
   23.4273  -19.4055  -16.5888 C   0  0  0  0  0  0  0  0  0  0  0  0
   22.7501  -18.6617  -17.6669 C   0  0  0  0  0  0  0  0  0  0  0  0
   22.9650  -19.2477  -18.9834 N   0  0  0  0  0  0  0  0  0  0  0  0
   26.3223  -20.7762  -13.2537 C   0  0  0  0  0  0  0  0  0  0  0  0
   26.4083  -21.9814  -13.5922 O   0  0  0  0  0  0  0  0  0  0  0  0
   30.5030  -22.5893  -10.9821 C   0  0  0  0  0  0  0  0  0  0  0  0
   30.2208  -21.2103  -10.2936 C   0  0  1  0  0  0  0  0  0  0  0  0
   31.5675  -20.5709  -10.2137 C   0  0  0  0  0  0  0  0  0  0  0  0
   29.2275  -20.5767  -11.1719 C   0  0  0  0  0  0  0  0  0  0  0  0
   27.8549  -21.0953  -11.2954 C   0  0  2  0  0  0  0  0  0  0  0  0
   27.0712  -20.2153  -12.2035 N   0  0  0  0  0  0  0  0  0  0  0  0
   27.0325  -21.2131  -10.0760 C   0  0  0  0  0  0  0  0  0  0  0  0
   27.2220  -22.0503   -9.1513 O   0  0  0  0  0  0  0  0  0  0  0  0
   25.9053  -20.3496   -9.8366 N   0  0  0  0  0  0  0  0  0  0  0  0
   24.7979  -20.6894   -8.9634 C   0  0  1  0  0  0  0  0  0  0  0  0
   24.8904  -20.0269   -7.6485 C   0  0  0  0  0  0  0  0  0  0  0  0
   26.2565  -19.5706   -7.3464 C   0  0  0  0  0  0  0  0  0  0  0  0
   27.0559  -18.6965   -8.0876 C   0  0  0  0  0  0  0  0  0  0  0  0
   28.2631  -18.5537   -7.5176 N   0  0  0  0  0  0  0  0  0  0  0  0
   28.2777  -19.3171   -6.4113 C   0  0  0  0  0  0  0  0  0  0  0  0
   29.2772  -19.5073   -5.4607 C   0  0  0  0  0  0  0  0  0  0  0  0
   28.9847  -20.3457   -4.4057 C   0  0  0  0  0  0  0  0  0  0  0  0
   27.7756  -20.9783   -4.2697 C   0  0  0  0  0  0  0  0  0  0  0  0
   26.7925  -20.7879   -5.2115 C   0  0  0  0  0  0  0  0  0  0  0  0
   27.0702  -19.9492   -6.2784 C   0  0  0  0  0  0  0  0  0  0  0  0
   23.4926  -20.6121   -9.5993 C   0  0  0  0  0  0  0  0  0  0  0  0
   23.2894  -20.2440  -10.7598 O   0  0  0  0  0  0  0  0  0  0  0  0
   22.3774  -20.9841   -8.8364 O   0  0  0  0  0  0  0  0  0  0  0  0
  2  1  1  6
  2  3  1  0
  3  4  1  0
  5  4  1  0
  6  5  1  0
  7  6  1  0
  8  2  1  0
  9  8  2  0
 11 10  1  6
 11 13  1  0
 12 11  1  0
 14 13  1  1
 14 16  1  0
 14 15  1  0
 15  8  1  0
 16 17  2  0
 18 16  1  0
 18 19  1  0
 19 20  1  1
 20 21  1  0
 21 29  1  0
 22 21  2  0
 22 23  1  0
 23 24  1  0
 24 25  2  0
 25 26  1  0
 27 26  2  0
 28 27  1  0
 29 28  2  0
 29 24  1  0
 30 32  1  0
 30 19  1  0
 31 30  2  0
M  END
$$$$
