KLW.pdb
     RDKit          3D

 32 33  0  0  1  0  0  0  0  0999 V2000
   27.7087  -19.4109  -13.5941 N   0  0  0  0  0  0  0  0  0  0  0  0
   26.7552  -20.4943  -13.7745 C   0  0  1  0  0  0  0  0  0  0  0  0
   27.3127  -21.6084  -14.5616 C   0  0  0  0  0  0  0  0  0  0  0  0
   28.5181  -21.4459  -15.3709 C   0  0  0  0  0  0  0  0  0  0  0  0
   28.5892  -22.1167  -16.6696 C   0  0  0  0  0  0  0  0  0  0  0  0
   29.5607  -23.2025  -16.8963 C   0  0  0  0  0  0  0  0  0  0  0  0
   29.4033  -23.8441  -18.1948 N   0  0  0  0  0  0  0  0  0  0  0  0
   26.4515  -21.0902  -12.3938 C   0  0  0  0  0  0  0  0  0  0  0  0
   26.2753  -22.3258  -12.2649 O   0  0  0  0  0  0  0  0  0  0  0  0
   27.8122  -18.9736   -7.2828 C   0  0  0  0  0  0  0  0  0  0  0  0
   27.6266  -20.0796   -8.3771 C   0  0  1  0  0  0  0  0  0  0  0  0
   27.7993  -21.3571   -7.6242 C   0  0  0  0  0  0  0  0  0  0  0  0
   26.2950  -19.8025   -8.9334 C   0  0  0  0  0  0  0  0  0  0  0  0
   25.7357  -20.5919  -10.0433 C   0  0  2  0  0  0  0  0  0  0  0  0
   26.3853  -20.1858  -11.3186 N   0  0  0  0  0  0  0  0  0  0  0  0
   24.2870  -20.5071  -10.3100 C   0  0  0  0  0  0  0  0  0  0  0  0
   23.5014  -19.6684   -9.7891 O   0  0  0  0  0  0  0  0  0  0  0  0
   23.6304  -21.4099  -11.2196 N   0  0  0  0  0  0  0  0  0  0  0  0
   22.6544  -20.9929  -12.2085 C   0  0  1  0  0  0  0  0  0  0  0  0
   23.1584  -19.9159  -13.0817 C   0  0  0  0  0  0  0  0  0  0  0  0
   22.1693  -19.5043  -14.0906 C   0  0  0  0  0  0  0  0  0  0  0  0
   20.7765  -19.5841  -14.0135 C   0  0  0  0  0  0  0  0  0  0  0  0
   20.2096  -19.1526  -15.1515 N   0  0  0  0  0  0  0  0  0  0  0  0
   21.2021  -18.7873  -15.9812 C   0  0  0  0  0  0  0  0  0  0  0  0
   21.1521  -18.2575  -17.2679 C   0  0  0  0  0  0  0  0  0  0  0  0
   22.3571  -17.9546  -17.8662 C   0  0  0  0  0  0  0  0  0  0  0  0
   23.5658  -18.1539  -17.2500 C   0  0  0  0  0  0  0  0  0  0  0  0
   23.6098  -18.6780  -15.9799 C   0  0  0  0  0  0  0  0  0  0  0  0
   22.4081  -18.9888  -15.3647 C   0  0  0  0  0  0  0  0  0  0  0  0
   22.0032  -22.0920  -12.9028 C   0  0  0  0  0  0  0  0  0  0  0  0
   20.7825  -22.2401  -13.0093 O   0  0  0  0  0  0  0  0  0  0  0  0
   22.8243  -23.0594  -13.4978 O   0  0  0  0  0  0  0  0  0  0  0  0
  2  1  1  1
  2  3  1  0
  3  4  1  0
  5  4  1  0
  6  5  1  0
  7  6  1  0
  8  2  1  0
  9  8  2  0
 11 10  1  1
 11 13  1  0
 12 11  1  0
 14 13  1  1
 14 16  1  0
 14 15  1  0
 15  8  1  0
 16 17  2  0
 18 16  1  0
 18 19  1  0
 19 20  1  6
 20 21  1  0
 21 29  1  0
 22 21  2  0
 22 23  1  0
 23 24  1  0
 24 25  2  0
 25 26  1  0
 27 26  2  0
 28 27  1  0
 29 28  2  0
 29 24  1  0
 30 32  1  0
 30 19  1  0
 31 30  2  0
M  END
$$$$
