KLW.pdb
     RDKit          3D

 32 33  0  0  1  0  0  0  0  0999 V2000
   28.4345  -20.6339  -16.9597 N   0  0  0  0  0  0  0  0  0  0  0  0
   27.7428  -20.0654  -15.8134 C   0  0  1  0  0  0  0  0  0  0  0  0
   26.2772  -20.1258  -15.9547 C   0  0  0  0  0  0  0  0  0  0  0  0
   25.5543  -19.2071  -16.8308 C   0  0  0  0  0  0  0  0  0  0  0  0
   25.9697  -17.8045  -16.8759 C   0  0  0  0  0  0  0  0  0  0  0  0
   25.0301  -16.7622  -17.3286 C   0  0  0  0  0  0  0  0  0  0  0  0
   24.4122  -17.0722  -18.6111 N   0  0  0  0  0  0  0  0  0  0  0  0
   28.0647  -20.9336  -14.5901 C   0  0  0  0  0  0  0  0  0  0  0  0
   27.7819  -22.1561  -14.5922 O   0  0  0  0  0  0  0  0  0  0  0  0
   30.6662  -20.1642   -9.2684 C   0  0  0  0  0  0  0  0  0  0  0  0
   31.0393  -20.9199  -10.5893 C   0  0  1  0  0  0  0  0  0  0  0  0
   30.7896  -22.3546  -10.2606 C   0  0  0  0  0  0  0  0  0  0  0  0
   30.1730  -20.3024  -11.6031 C   0  0  0  0  0  0  0  0  0  0  0  0
   29.1634  -21.0793  -12.3413 C   0  0  2  0  0  0  0  0  0  0  0  0
   28.6771  -20.2860  -13.5021 N   0  0  0  0  0  0  0  0  0  0  0  0
   27.9415  -21.5036  -11.6314 C   0  0  0  0  0  0  0  0  0  0  0  0
   27.9095  -22.3058  -10.6582 O   0  0  0  0  0  0  0  0  0  0  0  0
   26.6394  -21.0177  -12.0084 N   0  0  0  0  0  0  0  0  0  0  0  0
   25.7185  -20.3766  -11.0889 C   0  0  1  0  0  0  0  0  0  0  0  0
   24.9554  -19.2843  -11.7221 C   0  0  0  0  0  0  0  0  0  0  0  0
   23.7449  -19.7694  -12.4042 C   0  0  0  0  0  0  0  0  0  0  0  0
   22.4716  -19.9648  -11.8629 C   0  0  0  0  0  0  0  0  0  0  0  0
   21.6321  -20.4628  -12.7848 N   0  0  0  0  0  0  0  0  0  0  0  0
   22.3262  -20.6001  -13.9277 C   0  0  0  0  0  0  0  0  0  0  0  0
   21.9198  -21.0530  -15.1801 C   0  0  0  0  0  0  0  0  0  0  0  0
   22.8683  -21.0571  -16.1811 C   0  0  0  0  0  0  0  0  0  0  0  0
   24.1602  -20.6411  -15.9851 C   0  0  0  0  0  0  0  0  0  0  0  0
   24.5567  -20.1957  -14.7465 C   0  0  0  0  0  0  0  0  0  0  0  0
   23.6163  -20.1860  -13.7293 C   0  0  0  0  0  0  0  0  0  0  0  0
   24.9235  -21.3035  -10.2994 C   0  0  0  0  0  0  0  0  0  0  0  0
   24.1378  -20.9800   -9.4042 O   0  0  0  0  0  0  0  0  0  0  0  0
   25.0591  -22.6708  -10.5752 O   0  0  0  0  0  0  0  0  0  0  0  0
  2  1  1  6
  2  3  1  0
  3  4  1  0
  5  4  1  0
  6  5  1  0
  7  6  1  0
  8  2  1  0
  9  8  2  0
 11 10  1  1
 11 13  1  0
 12 11  1  0
 14 13  1  1
 14 16  1  0
 14 15  1  0
 15  8  1  0
 16 17  2  0
 18 16  1  0
 18 19  1  0
 19 20  1  6
 20 21  1  0
 21 29  1  0
 22 21  2  0
 22 23  1  0
 23 24  1  0
 24 25  2  0
 25 26  1  0
 27 26  2  0
 28 27  1  0
 29 28  2  0
 29 24  1  0
 30 32  1  0
 30 19  1  0
 31 30  2  0
M  END
$$$$
