KLW.pdb
     RDKit          3D

 32 33  0  0  1  0  0  0  0  0999 V2000
   29.0710  -20.1377  -16.4019 N   0  0  0  0  0  0  0  0  0  0  0  0
   28.3329  -19.6137  -15.2634 C   0  0  1  0  0  0  0  0  0  0  0  0
   26.9634  -19.2043  -15.6217 C   0  0  0  0  0  0  0  0  0  0  0  0
   26.4834  -19.2615  -17.0004 C   0  0  0  0  0  0  0  0  0  0  0  0
   25.1113  -18.8398  -17.2856 C   0  0  0  0  0  0  0  0  0  0  0  0
   24.5414  -19.0169  -18.6340 C   0  0  0  0  0  0  0  0  0  0  0  0
   23.1748  -18.5237  -18.7427 N   0  0  0  0  0  0  0  0  0  0  0  0
   28.1598  -20.7518  -14.2493 C   0  0  0  0  0  0  0  0  0  0  0  0
   27.9236  -21.9189  -14.6450 O   0  0  0  0  0  0  0  0  0  0  0  0
   31.2550  -20.6568   -9.6924 C   0  0  0  0  0  0  0  0  0  0  0  0
   30.6338  -21.3160  -10.9710 C   0  0  1  0  0  0  0  0  0  0  0  0
   31.1765  -22.7066  -10.9533 C   0  0  0  0  0  0  0  0  0  0  0  0
   29.1856  -21.1576  -10.7787 C   0  0  0  0  0  0  0  0  0  0  0  0
   28.2205  -21.4664  -11.8470 C   0  0  2  0  0  0  0  0  0  0  0  0
   28.2789  -20.4079  -12.8907 N   0  0  0  0  0  0  0  0  0  0  0  0
   26.7915  -21.5774  -11.4967 C   0  0  0  0  0  0  0  0  0  0  0  0
   26.3203  -22.3322  -10.6023 O   0  0  0  0  0  0  0  0  0  0  0  0
   25.7834  -20.8041  -12.1746 N   0  0  0  0  0  0  0  0  0  0  0  0
   24.3648  -20.8945  -11.8852 C   0  0  1  0  0  0  0  0  0  0  0  0
   23.8681  -19.7338  -11.1219 C   0  0  0  0  0  0  0  0  0  0  0  0
   22.4681  -19.8992  -10.6995 C   0  0  0  0  0  0  0  0  0  0  0  0
   21.9881  -20.4158   -9.4933 C   0  0  0  0  0  0  0  0  0  0  0  0
   20.6459  -20.4513   -9.4894 N   0  0  0  0  0  0  0  0  0  0  0  0
   20.2279  -19.9665  -10.6714 C   0  0  0  0  0  0  0  0  0  0  0  0
   18.9389  -19.7731  -11.1612 C   0  0  0  0  0  0  0  0  0  0  0  0
   18.8250  -19.2257  -12.4217 C   0  0  0  0  0  0  0  0  0  0  0  0
   19.9107  -18.8771  -13.1835 C   0  0  0  0  0  0  0  0  0  0  0  0
   21.1812  -19.0710  -12.6958 C   0  0  0  0  0  0  0  0  0  0  0  0
   21.3134  -19.6209  -11.4312 C   0  0  0  0  0  0  0  0  0  0  0  0
   23.5473  -21.2743  -13.0261 C   0  0  0  0  0  0  0  0  0  0  0  0
   23.7787  -20.9663  -14.1987 O   0  0  0  0  0  0  0  0  0  0  0  0
   22.4075  -22.0505  -12.7764 O   0  0  0  0  0  0  0  0  0  0  0  0
  2  1  1  6
  2  3  1  0
  3  4  1  0
  5  4  1  0
  6  5  1  0
  7  6  1  0
  8  2  1  0
  9  8  2  0
 11 10  1  1
 11 13  1  0
 12 11  1  0
 14 13  1  1
 14 16  1  0
 14 15  1  0
 15  8  1  0
 16 17  2  0
 18 16  1  0
 18 19  1  0
 19 20  1  6
 20 21  1  0
 21 29  1  0
 22 21  2  0
 22 23  1  0
 23 24  1  0
 24 25  2  0
 25 26  1  0
 27 26  2  0
 28 27  1  0
 29 28  2  0
 29 24  1  0
 30 32  1  0
 30 19  1  0
 31 30  2  0
M  END
$$$$
