YNG.pdb
     RDKit          3D

 25 25  0  0  1  0  0  0  0  0999 V2000
   28.7684  -19.7867   -3.4383 O   0  0  0  0  0  0  0  0  0  0  0  0
   28.4207  -19.6650   -4.7756 C   0  0  0  0  0  0  0  0  0  0  0  0
   27.4201  -20.4246   -5.3303 C   0  0  0  0  0  0  0  0  0  0  0  0
   27.0890  -20.2910   -6.6554 C   0  0  0  0  0  0  0  0  0  0  0  0
   27.7412  -19.3919   -7.4920 C   0  0  0  0  0  0  0  0  0  0  0  0
   27.3562  -19.2730   -8.9264 C   0  0  0  0  0  0  0  0  0  0  0  0
   26.7429  -20.5971   -9.3445 C   0  0  2  0  0  0  0  0  0  0  0  0
   27.8044  -21.5855   -9.3563 N   0  0  0  0  0  0  0  0  0  0  0  0
   26.1553  -20.5342  -10.6984 C   0  0  0  0  0  0  0  0  0  0  0  0
   26.8831  -20.1851  -11.6593 O   0  0  0  0  0  0  0  0  0  0  0  0
   28.7484  -18.6353   -6.9094 C   0  0  0  0  0  0  0  0  0  0  0  0
   29.0780  -18.7745   -5.5721 C   0  0  0  0  0  0  0  0  0  0  0  0
   25.1236  -21.9029  -15.4988 N   0  0  0  0  0  0  0  0  0  0  0  0
   24.3549  -22.3095  -14.3937 C   0  0  0  0  0  0  0  0  0  0  0  0
   23.2240  -22.7990  -14.5664 O   0  0  0  0  0  0  0  0  0  0  0  0
   24.8849  -22.1579  -13.0303 C   0  0  0  0  0  0  0  0  0  0  0  0
   24.2743  -20.9675  -12.3145 C   0  0  2  0  0  0  0  0  0  0  0  0
   24.7986  -20.8524  -10.9630 N   0  0  0  0  0  0  0  0  0  0  0  0
   22.8112  -21.0279  -12.2683 C   0  0  0  0  0  0  0  0  0  0  0  0
   22.2388  -21.6837  -11.3745 O   0  0  0  0  0  0  0  0  0  0  0  0
   22.0438  -20.3458  -13.2334 N   0  0  0  0  0  0  0  0  0  0  0  0
   20.8390  -19.6183  -12.9447 C   0  0  0  0  0  0  0  0  0  0  0  0
   19.6869  -20.5434  -12.9518 C   0  0  0  0  0  0  0  0  0  0  0  0
   18.4530  -20.0946  -12.5002 O   0  0  0  0  0  0  0  0  0  0  0  0
   19.7665  -21.7339  -13.3516 O   0  0  0  0  0  0  0  0  0  0  0  0
  2  3  2  0
  2  1  1  0
  4  3  1  0
  5  4  2  0
  6  5  1  0
  6  7  1  0
  7  8  1  6
  9 18  1  0
  9  7  1  0
 10  9  2  0
 11  5  1  0
 11 12  2  0
 12  2  1  0
 14 13  1  0
 15 14  2  0
 16 14  1  0
 17 16  1  1
 17 19  1  0
 17 18  1  0
 19 20  2  0
 21 22  1  0
 21 19  1  0
 22 23  1  0
 23 25  2  0
 23 24  1  0
M  END
$$$$
