YNG.pdb
     RDKit          3D

 25 25  0  0  1  0  0  0  0  0999 V2000
   29.5233  -25.9716  -17.8555 O   0  0  0  0  0  0  0  0  0  0  0  0
   28.7373  -25.1790  -17.0321 C   0  0  0  0  0  0  0  0  0  0  0  0
   29.0957  -23.8911  -16.7185 C   0  0  0  0  0  0  0  0  0  0  0  0
   28.3059  -23.1207  -15.9023 C   0  0  0  0  0  0  0  0  0  0  0  0
   27.1187  -23.5992  -15.3590 C   0  0  0  0  0  0  0  0  0  0  0  0
   26.2854  -22.7354  -14.4762 C   0  0  0  0  0  0  0  0  0  0  0  0
   25.2892  -22.0072  -15.3603 C   0  0  2  0  0  0  0  0  0  0  0  0
   25.9897  -20.9049  -15.9912 N   0  0  0  0  0  0  0  0  0  0  0  0
   24.1598  -21.4538  -14.5855 C   0  0  0  0  0  0  0  0  0  0  0  0
   24.3944  -20.5936  -13.7023 O   0  0  0  0  0  0  0  0  0  0  0  0
   26.7769  -24.9030  -15.6899 C   0  0  0  0  0  0  0  0  0  0  0  0
   27.5778  -25.6753  -16.5136 C   0  0  0  0  0  0  0  0  0  0  0  0
   22.2981  -18.3282  -14.3173 N   0  0  0  0  0  0  0  0  0  0  0  0
   21.7097  -19.2378  -15.2138 C   0  0  0  0  0  0  0  0  0  0  0  0
   21.8826  -19.1069  -16.4391 O   0  0  0  0  0  0  0  0  0  0  0  0
   20.8882  -20.3472  -14.7064 C   0  0  0  0  0  0  0  0  0  0  0  0
   21.7214  -21.3754  -13.9642 C   0  0  2  0  0  0  0  0  0  0  0  0
   22.8149  -21.8523  -14.7958 N   0  0  0  0  0  0  0  0  0  0  0  0
   20.9266  -22.5152  -13.4998 C   0  0  0  0  0  0  0  0  0  0  0  0
   20.7498  -23.5009  -14.2440 O   0  0  0  0  0  0  0  0  0  0  0  0
   20.3582  -22.5033  -12.2104 N   0  0  0  0  0  0  0  0  0  0  0  0
   19.4789  -23.5198  -11.7028 C   0  0  0  0  0  0  0  0  0  0  0  0
   18.2352  -23.5437  -12.5003 C   0  0  0  0  0  0  0  0  0  0  0  0
   17.2517  -24.4755  -12.1964 O   0  0  0  0  0  0  0  0  0  0  0  0
   18.0175  -22.7523  -13.4540 O   0  0  0  0  0  0  0  0  0  0  0  0
  2  3  2  0
  2  1  1  0
  4  3  1  0
  5  4  2  0
  6  5  1  0
  6  7  1  0
  7  8  1  1
  9 18  1  0
  9  7  1  0
 10  9  2  0
 11  5  1  0
 11 12  2  0
 12  2  1  0
 14 13  1  0
 15 14  2  0
 16 14  1  0
 17 16  1  6
 17 19  1  0
 17 18  1  0
 19 20  2  0
 21 22  1  0
 21 19  1  0
 22 23  1  0
 23 25  2  0
 23 24  1  0
M  END
$$$$
