YNG.pdb
     RDKit          3D

 25 25  0  0  1  0  0  0  0  0999 V2000
   16.7703  -13.7762  -19.1132 O   0  0  0  0  0  0  0  0  0  0  0  0
   17.1878  -12.8302  -18.1886 C   0  0  0  0  0  0  0  0  0  0  0  0
   17.6252  -13.1913  -16.9381 C   0  0  0  0  0  0  0  0  0  0  0  0
   18.0350  -12.2420  -16.0357 C   0  0  0  0  0  0  0  0  0  0  0  0
   18.0280  -10.8848  -16.3382 C   0  0  0  0  0  0  0  0  0  0  0  0
   18.4795   -9.8809  -15.3341 C   0  0  0  0  0  0  0  0  0  0  0  0
   19.8686   -9.4232  -15.7405 C   0  0  2  0  0  0  0  0  0  0  0  0
   20.8018  -10.4638  -15.3529 N   0  0  0  0  0  0  0  0  0  0  0  0
   20.2626   -8.1726  -15.0601 C   0  0  0  0  0  0  0  0  0  0  0  0
   20.9693   -8.2423  -14.0253 O   0  0  0  0  0  0  0  0  0  0  0  0
   17.5822  -10.5438  -17.6076 C   0  0  0  0  0  0  0  0  0  0  0  0
   17.1700  -11.5060  -18.5135 C   0  0  0  0  0  0  0  0  0  0  0  0
   22.1100   -4.0030  -13.0033 N   0  0  0  0  0  0  0  0  0  0  0  0
   22.3969   -4.3809  -14.3270 C   0  0  0  0  0  0  0  0  0  0  0  0
   23.0912   -3.6436  -15.0500 O   0  0  0  0  0  0  0  0  0  0  0  0
   21.8776   -5.6489  -14.8615 C   0  0  0  0  0  0  0  0  0  0  0  0
   20.3614   -5.6611  -14.9175 C   0  0  2  0  0  0  0  0  0  0  0  0
   19.8766   -6.8897  -15.5260 N   0  0  0  0  0  0  0  0  0  0  0  0
   19.8152   -4.5090  -15.6391 C   0  0  0  0  0  0  0  0  0  0  0  0
   20.4930   -3.9425  -16.5203 O   0  0  0  0  0  0  0  0  0  0  0  0
   18.5220   -4.0353  -15.3410 N   0  0  0  0  0  0  0  0  0  0  0  0
   18.2439   -2.7562  -14.7489 C   0  0  0  0  0  0  0  0  0  0  0  0
   18.9566   -1.6984  -15.4948 C   0  0  0  0  0  0  0  0  0  0  0  0
   18.8804   -1.6763  -16.8810 O   0  0  0  0  0  0  0  0  0  0  0  0
   19.6388   -0.8037  -14.9315 O   0  0  0  0  0  0  0  0  0  0  0  0
  2  3  2  0
  2  1  1  0
  4  3  1  0
  5  4  2  0
  6  5  1  0
  6  7  1  0
  7  8  1  1
  9 18  1  0
  9  7  1  0
 10  9  2  0
 11  5  1  0
 11 12  2  0
 12  2  1  0
 14 13  1  0
 15 14  2  0
 16 14  1  0
 17 16  1  6
 17 19  1  0
 17 18  1  0
 19 20  2  0
 21 22  1  0
 21 19  1  0
 22 23  1  0
 23 25  2  0
 23 24  1  0
M  END
$$$$
