YNG.pdb
     RDKit          3D

 25 25  0  0  1  0  0  0  0  0999 V2000
   14.8762  -13.7241  -16.1425 O   0  0  0  0  0  0  0  0  0  0  0  0
   15.8537  -12.7452  -16.0417 C   0  0  0  0  0  0  0  0  0  0  0  0
   16.1334  -12.1288  -14.8469 C   0  0  0  0  0  0  0  0  0  0  0  0
   17.1042  -11.1622  -14.7652 C   0  0  0  0  0  0  0  0  0  0  0  0
   17.8438  -10.7638  -15.8733 C   0  0  0  0  0  0  0  0  0  0  0  0
   18.8904   -9.7107  -15.7488 C   0  0  0  0  0  0  0  0  0  0  0  0
   20.1900  -10.2964  -16.2704 C   0  0  2  0  0  0  0  0  0  0  0  0
   20.5294  -11.4263  -15.4266 N   0  0  0  0  0  0  0  0  0  0  0  0
   21.3010   -9.3247  -16.2099 C   0  0  0  0  0  0  0  0  0  0  0  0
   21.8624   -9.1137  -15.1075 O   0  0  0  0  0  0  0  0  0  0  0  0
   17.5438  -11.4006  -17.0695 C   0  0  0  0  0  0  0  0  0  0  0  0
   16.5632  -12.3748  -17.1457 C   0  0  0  0  0  0  0  0  0  0  0  0
   24.2270   -9.8137  -18.4129 N   0  0  0  0  0  0  0  0  0  0  0  0
   24.1436   -8.6479  -19.1949 C   0  0  0  0  0  0  0  0  0  0  0  0
   24.6445   -8.6232  -20.3337 O   0  0  0  0  0  0  0  0  0  0  0  0
   23.4640   -7.4540  -18.6697 C   0  0  0  0  0  0  0  0  0  0  0  0
   22.8872   -7.6932  -17.2868 C   0  0  2  0  0  0  0  0  0  0  0  0
   21.7647   -8.6156  -17.3475 N   0  0  0  0  0  0  0  0  0  0  0  0
   22.4666   -6.4530  -16.6299 C   0  0  0  0  0  0  0  0  0  0  0  0
   21.5102   -5.7949  -17.0868 O   0  0  0  0  0  0  0  0  0  0  0  0
   23.1406   -5.9978  -15.4791 N   0  0  0  0  0  0  0  0  0  0  0  0
   22.8221   -4.7836  -14.7804 C   0  0  0  0  0  0  0  0  0  0  0  0
   21.7050   -5.0279  -13.8446 C   0  0  0  0  0  0  0  0  0  0  0  0
   21.9658   -5.6192  -12.6157 O   0  0  0  0  0  0  0  0  0  0  0  0
   20.5125   -4.7237  -14.1068 O   0  0  0  0  0  0  0  0  0  0  0  0
  2  3  2  0
  2  1  1  0
  4  3  1  0
  5  4  2  0
  6  5  1  0
  6  7  1  0
  7  8  1  1
  9 18  1  0
  9  7  1  0
 10  9  2  0
 11  5  1  0
 11 12  2  0
 12  2  1  0
 14 13  1  0
 15 14  2  0
 16 14  1  0
 17 16  1  6
 17 19  1  0
 17 18  1  0
 19 20  2  0
 21 22  1  0
 21 19  1  0
 22 23  1  0
 23 25  2  0
 23 24  1  0
M  END
$$$$
