YNG.pdb
     RDKit          3D

 25 25  0  0  1  0  0  0  0  0999 V2000
   29.0038  -21.0329   -7.6386 O   0  0  0  0  0  0  0  0  0  0  0  0
   28.2177  -20.7907   -8.7554 C   0  0  0  0  0  0  0  0  0  0  0  0
   28.7504  -20.7803  -10.0210 C   0  0  0  0  0  0  0  0  0  0  0  0
   27.9578  -20.5391  -11.1151 C   0  0  0  0  0  0  0  0  0  0  0  0
   26.5935  -20.2965  -10.9988 C   0  0  0  0  0  0  0  0  0  0  0  0
   25.7626  -20.0379  -12.2082 C   0  0  0  0  0  0  0  0  0  0  0  0
   24.9204  -21.2764  -12.4553 C   0  0  2  0  0  0  0  0  0  0  0  0
   25.7759  -22.2692  -13.0769 N   0  0  0  0  0  0  0  0  0  0  0  0
   23.7892  -21.0061  -13.3661 C   0  0  0  0  0  0  0  0  0  0  0  0
   23.9591  -21.1455  -14.6017 O   0  0  0  0  0  0  0  0  0  0  0  0
   26.0777  -20.3122   -9.7104 C   0  0  0  0  0  0  0  0  0  0  0  0
   26.8823  -20.5559   -8.6106 C   0  0  0  0  0  0  0  0  0  0  0  0
   20.1645  -23.2986  -13.7971 N   0  0  0  0  0  0  0  0  0  0  0  0
   20.1531  -22.3209  -12.7865 C   0  0  0  0  0  0  0  0  0  0  0  0
   20.1914  -22.6597  -11.5898 O   0  0  0  0  0  0  0  0  0  0  0  0
   20.0960  -20.8945  -13.1403 C   0  0  0  0  0  0  0  0  0  0  0  0
   21.3788  -20.4228  -13.7993 C   0  0  2  0  0  0  0  0  0  0  0  0
   22.5126  -20.5943  -12.9049 N   0  0  0  0  0  0  0  0  0  0  0  0
   21.3070  -19.0262  -14.2361 C   0  0  0  0  0  0  0  0  0  0  0  0
   20.9270  -18.1404  -13.4439 O   0  0  0  0  0  0  0  0  0  0  0  0
   21.6665  -18.6771  -15.5532 N   0  0  0  0  0  0  0  0  0  0  0  0
   20.7422  -18.2095  -16.5487 C   0  0  0  0  0  0  0  0  0  0  0  0
   20.1242  -16.9455  -16.0973 C   0  0  0  0  0  0  0  0  0  0  0  0
   19.0129  -16.9921  -15.2662 O   0  0  0  0  0  0  0  0  0  0  0  0
   20.5585  -15.8128  -16.4315 O   0  0  0  0  0  0  0  0  0  0  0  0
  2  3  2  0
  2  1  1  0
  4  3  1  0
  5  4  2  0
  6  5  1  0
  6  7  1  0
  7  8  1  6
  9 18  1  0
  9  7  1  0
 10  9  2  0
 11  5  1  0
 11 12  2  0
 12  2  1  0
 14 13  1  0
 15 14  2  0
 16 14  1  0
 17 16  1  1
 17 19  1  0
 17 18  1  0
 19 20  2  0
 21 22  1  0
 21 19  1  0
 22 23  1  0
 23 25  2  0
 23 24  1  0
M  END
$$$$
