YNG.pdb
     RDKit          3D

 25 25  0  0  1  0  0  0  0  0999 V2000
   28.5893  -19.6502   -6.3070 O   0  0  0  0  0  0  0  0  0  0  0  0
   28.0889  -19.8078   -7.5911 C   0  0  0  0  0  0  0  0  0  0  0  0
   26.7703  -19.5605   -7.8843 C   0  0  0  0  0  0  0  0  0  0  0  0
   26.2921  -19.7214   -9.1605 C   0  0  0  0  0  0  0  0  0  0  0  0
   27.1077  -20.1374  -10.2071 C   0  0  0  0  0  0  0  0  0  0  0  0
   26.5552  -20.3021  -11.5809 C   0  0  0  0  0  0  0  0  0  0  0  0
   25.4618  -21.3526  -11.5091 C   0  0  2  0  0  0  0  0  0  0  0  0
   26.0974  -22.6522  -11.6138 N   0  0  0  0  0  0  0  0  0  0  0  0
   24.4924  -21.2219  -12.6161 C   0  0  0  0  0  0  0  0  0  0  0  0
   24.7950  -21.6813  -13.7441 O   0  0  0  0  0  0  0  0  0  0  0  0
   28.4361  -20.3811   -9.8870 C   0  0  0  0  0  0  0  0  0  0  0  0
   28.9126  -20.2171   -8.5977 C   0  0  0  0  0  0  0  0  0  0  0  0
   20.8120  -22.6299  -12.6374 N   0  0  0  0  0  0  0  0  0  0  0  0
   20.2124  -21.3651  -12.5026 C   0  0  0  0  0  0  0  0  0  0  0  0
   19.1090  -21.2546  -11.9382 O   0  0  0  0  0  0  0  0  0  0  0  0
   20.8873  -20.1687  -13.0279 C   0  0  0  0  0  0  0  0  0  0  0  0
   22.2748  -20.4861  -13.5535 C   0  0  2  0  0  0  0  0  0  0  0  0
   23.2282  -20.5977  -12.4611 N   0  0  0  0  0  0  0  0  0  0  0  0
   22.7518  -19.4935  -14.5198 C   0  0  0  0  0  0  0  0  0  0  0  0
   23.1618  -18.3827  -14.1267 O   0  0  0  0  0  0  0  0  0  0  0  0
   22.7493  -19.7890  -15.8976 N   0  0  0  0  0  0  0  0  0  0  0  0
   23.1856  -18.8810  -16.9220 C   0  0  0  0  0  0  0  0  0  0  0  0
   24.6520  -18.7157  -16.8471 C   0  0  0  0  0  0  0  0  0  0  0  0
   25.1946  -17.4387  -16.8961 O   0  0  0  0  0  0  0  0  0  0  0  0
   25.4462  -19.6858  -16.7395 O   0  0  0  0  0  0  0  0  0  0  0  0
  2  3  2  0
  2  1  1  0
  4  3  1  0
  5  4  2  0
  6  5  1  0
  6  7  1  0
  7  8  1  6
  9 18  1  0
  9  7  1  0
 10  9  2  0
 11  5  1  0
 11 12  2  0
 12  2  1  0
 14 13  1  0
 15 14  2  0
 16 14  1  0
 17 16  1  1
 17 19  1  0
 17 18  1  0
 19 20  2  0
 21 22  1  0
 21 19  1  0
 22 23  1  0
 23 25  2  0
 23 24  1  0
M  END
$$$$
