YNG.pdb
     RDKit          3D

 25 25  0  0  1  0  0  0  0  0999 V2000
   28.5807  -20.3561   -3.5105 O   0  0  0  0  0  0  0  0  0  0  0  0
   28.1013  -20.0664   -4.7795 C   0  0  0  0  0  0  0  0  0  0  0  0
   27.0796  -20.7894   -5.3444 C   0  0  0  0  0  0  0  0  0  0  0  0
   26.6174  -20.4888   -6.6012 C   0  0  0  0  0  0  0  0  0  0  0  0
   27.1532  -19.4509   -7.3557 C   0  0  0  0  0  0  0  0  0  0  0  0
   26.6274  -19.1522   -8.7174 C   0  0  0  0  0  0  0  0  0  0  0  0
   26.1599  -20.4634   -9.3228 C   0  0  2  0  0  0  0  0  0  0  0  0
   27.3177  -21.3298   -9.4349 N   0  0  0  0  0  0  0  0  0  0  0  0
   25.5882  -20.2794  -10.6724 C   0  0  0  0  0  0  0  0  0  0  0  0
   25.5174  -19.1202  -11.1478 O   0  0  0  0  0  0  0  0  0  0  0  0
   28.1843  -18.7344   -6.7643 C   0  0  0  0  0  0  0  0  0  0  0  0
   28.6464  -19.0424   -5.4962 C   0  0  0  0  0  0  0  0  0  0  0  0
   27.9653  -21.7521  -13.7130 N   0  0  0  0  0  0  0  0  0  0  0  0
   26.7369  -21.1604  -14.0570 C   0  0  0  0  0  0  0  0  0  0  0  0
   26.7116  -20.0234  -14.5620 O   0  0  0  0  0  0  0  0  0  0  0  0
   25.4779  -21.8832  -13.8215 C   0  0  0  0  0  0  0  0  0  0  0  0
   24.5993  -21.1747  -12.8074 C   0  0  2  0  0  0  0  0  0  0  0  0
   25.1133  -21.3595  -11.4597 N   0  0  0  0  0  0  0  0  0  0  0  0
   23.2040  -21.6178  -12.8641 C   0  0  0  0  0  0  0  0  0  0  0  0
   22.8568  -22.6704  -12.2912 O   0  0  0  0  0  0  0  0  0  0  0  0
   22.2478  -20.8573  -13.5662 N   0  0  0  0  0  0  0  0  0  0  0  0
   20.8671  -21.2264  -13.7124 C   0  0  0  0  0  0  0  0  0  0  0  0
   20.2020  -21.1926  -12.3934 C   0  0  0  0  0  0  0  0  0  0  0  0
   19.6592  -22.3614  -11.8766 O   0  0  0  0  0  0  0  0  0  0  0  0
   20.1003  -20.1449  -11.7040 O   0  0  0  0  0  0  0  0  0  0  0  0
  2  3  2  0
  2  1  1  0
  4  3  1  0
  5  4  2  0
  6  5  1  0
  6  7  1  0
  7  8  1  6
  9 18  1  0
  9  7  1  0
 10  9  2  0
 11  5  1  0
 11 12  2  0
 12  2  1  0
 14 13  1  0
 15 14  2  0
 16 14  1  0
 17 16  1  6
 17 19  1  0
 17 18  1  0
 19 20  2  0
 21 22  1  0
 21 19  1  0
 22 23  1  0
 23 25  2  0
 23 24  1  0
M  END
$$$$
