YNG.pdb
     RDKit          3D

 25 25  0  0  1  0  0  0  0  0999 V2000
   27.8924  -33.8413   -5.1314 O   0  0  0  0  0  0  0  0  0  0  0  0
   27.0680  -33.3541   -6.1348 C   0  0  0  0  0  0  0  0  0  0  0  0
   27.4027  -33.4726   -7.4613 C   0  0  0  0  0  0  0  0  0  0  0  0
   26.5748  -32.9849   -8.4412 C   0  0  0  0  0  0  0  0  0  0  0  0
   25.3715  -32.3546   -8.1443 C   0  0  0  0  0  0  0  0  0  0  0  0
   24.4968  -31.8364   -9.2335 C   0  0  0  0  0  0  0  0  0  0  0  0
   23.6021  -32.9780   -9.6810 C   0  0  2  0  0  0  0  0  0  0  0  0
   22.7900  -32.4913  -10.7798 N   0  0  0  0  0  0  0  0  0  0  0  0
   22.6982  -33.4304   -8.6037 C   0  0  0  0  0  0  0  0  0  0  0  0
   21.7694  -32.6720   -8.2333 O   0  0  0  0  0  0  0  0  0  0  0  0
   25.0542  -32.2465   -6.7974 C   0  0  0  0  0  0  0  0  0  0  0  0
   25.8935  -32.7403   -5.8134 C   0  0  0  0  0  0  0  0  0  0  0  0
   19.3492  -35.1745   -7.6996 N   0  0  0  0  0  0  0  0  0  0  0  0
   19.9905  -36.4193   -7.5701 C   0  0  0  0  0  0  0  0  0  0  0  0
   19.3728  -37.4690   -7.8246 O   0  0  0  0  0  0  0  0  0  0  0  0
   21.3934  -36.4848   -7.1337 C   0  0  0  0  0  0  0  0  0  0  0  0
   21.9699  -35.1059   -6.8716 C   0  0  2  0  0  0  0  0  0  0  0  0
   22.8329  -34.6901   -7.9656 N   0  0  0  0  0  0  0  0  0  0  0  0
   22.7111  -35.0359   -5.6098 C   0  0  0  0  0  0  0  0  0  0  0  0
   22.1230  -35.2260   -4.5260 O   0  0  0  0  0  0  0  0  0  0  0  0
   24.0916  -34.7532   -5.6146 N   0  0  0  0  0  0  0  0  0  0  0  0
   24.8903  -34.5937   -4.4311 C   0  0  0  0  0  0  0  0  0  0  0  0
   25.4449  -35.9022   -4.0266 C   0  0  0  0  0  0  0  0  0  0  0  0
   26.3474  -35.9606   -2.9730 O   0  0  0  0  0  0  0  0  0  0  0  0
   25.1377  -36.9819   -4.5950 O   0  0  0  0  0  0  0  0  0  0  0  0
  2  3  2  0
  2  1  1  0
  4  3  1  0
  5  4  2  0
  6  5  1  0
  6  7  1  0
  7  8  1  6
  9 18  1  0
  9  7  1  0
 10  9  2  0
 11  5  1  0
 11 12  2  0
 12  2  1  0
 14 13  1  0
 15 14  2  0
 16 14  1  0
 17 16  1  6
 17 19  1  0
 17 18  1  0
 19 20  2  0
 21 22  1  0
 21 19  1  0
 22 23  1  0
 23 25  2  0
 23 24  1  0
M  END
$$$$
