YNG.pdb
     RDKit          3D

 25 25  0  0  1  0  0  0  0  0999 V2000
   22.3444  -14.5582  -24.4737 O   0  0  0  0  0  0  0  0  0  0  0  0
   21.7516  -13.9424  -23.3813 C   0  0  0  0  0  0  0  0  0  0  0  0
   20.8826  -14.6171  -22.5596 C   0  0  0  0  0  0  0  0  0  0  0  0
   20.3052  -13.9922  -21.4827 C   0  0  0  0  0  0  0  0  0  0  0  0
   20.5676  -12.6621  -21.1736 C   0  0  0  0  0  0  0  0  0  0  0  0
   19.9228  -12.0148  -19.9966 C   0  0  0  0  0  0  0  0  0  0  0  0
   20.9817  -11.8722  -18.9185 C   0  0  2  0  0  0  0  0  0  0  0  0
   21.2618  -13.1989  -18.4033 N   0  0  0  0  0  0  0  0  0  0  0  0
   20.5218  -11.0286  -17.7964 C   0  0  0  0  0  0  0  0  0  0  0  0
   19.7190  -11.5138  -16.9627 O   0  0  0  0  0  0  0  0  0  0  0  0
   21.4487  -12.0008  -22.0177 C   0  0  0  0  0  0  0  0  0  0  0  0
   22.0279  -12.6365  -23.1026 C   0  0  0  0  0  0  0  0  0  0  0  0
   19.7387   -7.5304  -14.2148 N   0  0  0  0  0  0  0  0  0  0  0  0
   21.0625   -8.0021  -14.2654 C   0  0  0  0  0  0  0  0  0  0  0  0
   21.8623   -7.7157  -13.3562 O   0  0  0  0  0  0  0  0  0  0  0  0
   21.5063   -8.8358  -15.3928 C   0  0  0  0  0  0  0  0  0  0  0  0
   20.4843   -8.8626  -16.5139 C   0  0  2  0  0  0  0  0  0  0  0  0
   20.9490   -9.6879  -17.6173 N   0  0  0  0  0  0  0  0  0  0  0  0
   20.1562   -7.5232  -17.0090 C   0  0  0  0  0  0  0  0  0  0  0  0
   20.9755   -6.8962  -17.7105 O   0  0  0  0  0  0  0  0  0  0  0  0
   18.9138   -6.9372  -16.6948 N   0  0  0  0  0  0  0  0  0  0  0  0
   18.4786   -5.6544  -17.1735 C   0  0  0  0  0  0  0  0  0  0  0  0
   19.1997   -4.5849  -16.4527 C   0  0  0  0  0  0  0  0  0  0  0  0
   20.3234   -4.0130  -17.0339 O   0  0  0  0  0  0  0  0  0  0  0  0
   18.8435   -4.1591  -15.3235 O   0  0  0  0  0  0  0  0  0  0  0  0
  2  3  2  0
  2  1  1  0
  4  3  1  0
  5  4  2  0
  6  5  1  0
  6  7  1  0
  7  8  1  1
  9 18  1  0
  9  7  1  0
 10  9  2  0
 11  5  1  0
 11 12  2  0
 12  2  1  0
 14 13  1  0
 15 14  2  0
 16 14  1  0
 17 16  1  1
 17 19  1  0
 17 18  1  0
 19 20  2  0
 21 22  1  0
 21 19  1  0
 22 23  1  0
 23 25  2  0
 23 24  1  0
M  END
$$$$
