YNG.pdb
     RDKit          3D

 25 25  0  0  1  0  0  0  0  0999 V2000
   20.1337  -22.7833   -7.3923 O   0  0  0  0  0  0  0  0  0  0  0  0
   20.9367  -22.1441   -8.3254 C   0  0  0  0  0  0  0  0  0  0  0  0
   21.9706  -21.3250   -7.9434 C   0  0  0  0  0  0  0  0  0  0  0  0
   22.7553  -20.7005   -8.8802 C   0  0  0  0  0  0  0  0  0  0  0  0
   22.5459  -20.8635  -10.2452 C   0  0  0  0  0  0  0  0  0  0  0  0
   23.4170  -20.1699  -11.2351 C   0  0  0  0  0  0  0  0  0  0  0  0
   24.4351  -21.1801  -11.7324 C   0  0  2  0  0  0  0  0  0  0  0  0
   25.4411  -21.3312  -10.6985 N   0  0  0  0  0  0  0  0  0  0  0  0
   25.1070  -20.7291  -12.9683 C   0  0  0  0  0  0  0  0  0  0  0  0
   26.1265  -20.0034  -12.8736 O   0  0  0  0  0  0  0  0  0  0  0  0
   21.4958  -21.6957  -10.6073 C   0  0  0  0  0  0  0  0  0  0  0  0
   20.7075  -22.3228   -9.6577 C   0  0  0  0  0  0  0  0  0  0  0  0
   28.6213  -22.4203  -16.3342 N   0  0  0  0  0  0  0  0  0  0  0  0
   27.6265  -21.4442  -16.1469 C   0  0  0  0  0  0  0  0  0  0  0  0
   27.9318  -20.2381  -16.1255 O   0  0  0  0  0  0  0  0  0  0  0  0
   26.2219  -21.8452  -15.9759 C   0  0  0  0  0  0  0  0  0  0  0  0
   25.3633  -20.7000  -15.4725 C   0  0  2  0  0  0  0  0  0  0  0  0
   24.6500  -21.0812  -14.2640 N   0  0  0  0  0  0  0  0  0  0  0  0
   24.4068  -20.2293  -16.4775 C   0  0  0  0  0  0  0  0  0  0  0  0
   23.5179  -20.9943  -16.9036 O   0  0  0  0  0  0  0  0  0  0  0  0
   24.4865  -18.9106  -16.9676 N   0  0  0  0  0  0  0  0  0  0  0  0
   23.6071  -18.3608  -17.9618 C   0  0  0  0  0  0  0  0  0  0  0  0
   22.2559  -18.1892  -17.3889 C   0  0  0  0  0  0  0  0  0  0  0  0
   21.1502  -18.5951  -18.1241 O   0  0  0  0  0  0  0  0  0  0  0  0
   22.0519  -17.6873  -16.2532 O   0  0  0  0  0  0  0  0  0  0  0  0
  2  3  2  0
  2  1  1  0
  4  3  1  0
  5  4  2  0
  6  5  1  0
  6  7  1  0
  7  8  1  1
  9 18  1  0
  9  7  1  0
 10  9  2  0
 11  5  1  0
 11 12  2  0
 12  2  1  0
 14 13  1  0
 15 14  2  0
 16 14  1  0
 17 16  1  6
 17 19  1  0
 17 18  1  0
 19 20  2  0
 21 22  1  0
 21 19  1  0
 22 23  1  0
 23 25  2  0
 23 24  1  0
M  END
$$$$
