YNG.pdb
     RDKit          3D

 25 25  0  0  1  0  0  0  0  0999 V2000
   15.6168  -16.2192  -15.6036 O   0  0  0  0  0  0  0  0  0  0  0  0
   16.6733  -15.3218  -15.6542 C   0  0  0  0  0  0  0  0  0  0  0  0
   16.4628  -13.9677  -15.7425 C   0  0  0  0  0  0  0  0  0  0  0  0
   17.5200  -13.0939  -15.7914 C   0  0  0  0  0  0  0  0  0  0  0  0
   18.8399  -13.5300  -15.7545 C   0  0  0  0  0  0  0  0  0  0  0  0
   19.9638  -12.5534  -15.8099 C   0  0  0  0  0  0  0  0  0  0  0  0
   20.0332  -12.0190  -17.2290 C   0  0  2  0  0  0  0  0  0  0  0  0
   20.7810  -12.9774  -18.0203 N   0  0  0  0  0  0  0  0  0  0  0  0
   20.7299  -10.7183  -17.2991 C   0  0  0  0  0  0  0  0  0  0  0  0
   21.9843  -10.7000  -17.2655 O   0  0  0  0  0  0  0  0  0  0  0  0
   19.0280  -14.9022  -15.6650 C   0  0  0  0  0  0  0  0  0  0  0  0
   17.9575  -15.7786  -15.6162 C   0  0  0  0  0  0  0  0  0  0  0  0
   21.5496   -5.6684  -19.5591 N   0  0  0  0  0  0  0  0  0  0  0  0
   20.6540   -5.9490  -18.5120 C   0  0  0  0  0  0  0  0  0  0  0  0
   20.4127   -5.0858  -17.6489 O   0  0  0  0  0  0  0  0  0  0  0  0
   19.9991   -7.2636  -18.4334 C   0  0  0  0  0  0  0  0  0  0  0  0
   20.7371   -8.2092  -17.5042 C   0  0  2  0  0  0  0  0  0  0  0  0
   20.0418   -9.4824  -17.4038 N   0  0  0  0  0  0  0  0  0  0  0  0
   20.9267   -7.6481  -16.1642 C   0  0  0  0  0  0  0  0  0  0  0  0
   19.9832   -7.6420  -15.3479 O   0  0  0  0  0  0  0  0  0  0  0  0
   22.1757   -7.1125  -15.7913 N   0  0  0  0  0  0  0  0  0  0  0  0
   22.4684   -6.5646  -14.4959 C   0  0  0  0  0  0  0  0  0  0  0  0
   21.9180   -5.1967  -14.3997 C   0  0  0  0  0  0  0  0  0  0  0  0
   22.1529   -4.4495  -13.2533 O   0  0  0  0  0  0  0  0  0  0  0  0
   21.2379   -4.6658  -15.3156 O   0  0  0  0  0  0  0  0  0  0  0  0
  2  3  2  0
  2  1  1  0
  4  3  1  0
  5  4  2  0
  6  5  1  0
  6  7  1  0
  7  8  1  6
  9 18  1  0
  9  7  1  0
 10  9  2  0
 11  5  1  0
 11 12  2  0
 12  2  1  0
 14 13  1  0
 15 14  2  0
 16 14  1  0
 17 16  1  6
 17 19  1  0
 17 18  1  0
 19 20  2  0
 21 22  1  0
 21 19  1  0
 22 23  1  0
 23 25  2  0
 23 24  1  0
M  END
$$$$
