YNG.pdb
     RDKit          3D

 25 25  0  0  1  0  0  0  0  0999 V2000
   34.2121  -32.2167   -9.4270 O   0  0  0  0  0  0  0  0  0  0  0  0
   33.8647  -33.0720   -8.3917 C   0  0  0  0  0  0  0  0  0  0  0  0
   33.2017  -32.6200   -7.2774 C   0  0  0  0  0  0  0  0  0  0  0  0
   32.8655  -33.4803   -6.2624 C   0  0  0  0  0  0  0  0  0  0  0  0
   33.1751  -34.8351   -6.3107 C   0  0  0  0  0  0  0  0  0  0  0  0
   32.7952  -35.7410   -5.1904 C   0  0  0  0  0  0  0  0  0  0  0  0
   34.0427  -35.9884   -4.3617 C   0  0  2  0  0  0  0  0  0  0  0  0
   34.8422  -36.9765   -5.0606 N   0  0  0  0  0  0  0  0  0  0  0  0
   33.7225  -36.5180   -3.0204 C   0  0  0  0  0  0  0  0  0  0  0  0
   33.6361  -37.7602   -2.8640 O   0  0  0  0  0  0  0  0  0  0  0  0
   33.8449  -35.2689   -7.4462 C   0  0  0  0  0  0  0  0  0  0  0  0
   34.1815  -34.3962   -8.4667 C   0  0  0  0  0  0  0  0  0  0  0  0
   36.1848  -36.0571    1.2025 N   0  0  0  0  0  0  0  0  0  0  0  0
   35.3489  -35.3380    0.3298 C   0  0  0  0  0  0  0  0  0  0  0  0
   35.8420  -34.6625   -0.5915 O   0  0  0  0  0  0  0  0  0  0  0  0
   33.8891  -35.3819    0.5028 C   0  0  0  0  0  0  0  0  0  0  0  0
   33.2161  -36.2134   -0.5732 C   0  0  2  0  0  0  0  0  0  0  0  0
   33.5075  -35.6818   -1.8950 N   0  0  0  0  0  0  0  0  0  0  0  0
   31.7652  -36.3029   -0.3907 C   0  0  0  0  0  0  0  0  0  0  0  0
   31.0284  -35.3648   -0.7564 O   0  0  0  0  0  0  0  0  0  0  0  0
   31.1954  -37.4490    0.1988 N   0  0  0  0  0  0  0  0  0  0  0  0
   29.7843  -37.6529    0.3759 C   0  0  0  0  0  0  0  0  0  0  0  0
   29.2643  -36.6892    1.3680 C   0  0  0  0  0  0  0  0  0  0  0  0
   30.1216  -35.7379    1.9045 O   0  0  0  0  0  0  0  0  0  0  0  0
   28.0679  -36.6855    1.7578 O   0  0  0  0  0  0  0  0  0  0  0  0
  2  3  2  0
  2  1  1  0
  4  3  1  0
  5  4  2  0
  6  5  1  0
  6  7  1  0
  7  8  1  6
  9 18  1  0
  9  7  1  0
 10  9  2  0
 11  5  1  0
 11 12  2  0
 12  2  1  0
 14 13  1  0
 15 14  2  0
 16 14  1  0
 17 16  1  1
 17 19  1  0
 17 18  1  0
 19 20  2  0
 21 22  1  0
 21 19  1  0
 22 23  1  0
 23 25  2  0
 23 24  1  0
M  END
$$$$
