YNG.pdb
     RDKit          3D

 25 25  0  0  1  0  0  0  0  0999 V2000
   19.7992  -16.4077  -17.7712 O   0  0  0  0  0  0  0  0  0  0  0  0
   19.9247  -15.0629  -17.4553 C   0  0  0  0  0  0  0  0  0  0  0  0
   21.1367  -14.4201  -17.5164 C   0  0  0  0  0  0  0  0  0  0  0  0
   21.2427  -13.0887  -17.2006 C   0  0  0  0  0  0  0  0  0  0  0  0
   20.1429  -12.3337  -16.8082 C   0  0  0  0  0  0  0  0  0  0  0  0
   20.2941  -10.8901  -16.4720 C   0  0  0  0  0  0  0  0  0  0  0  0
   19.6298  -10.0926  -17.5797 C   0  0  2  0  0  0  0  0  0  0  0  0
   20.4516  -10.2267  -18.7673 N   0  0  0  0  0  0  0  0  0  0  0  0
   19.5297   -8.6568  -17.2470 C   0  0  0  0  0  0  0  0  0  0  0  0
   20.3968   -7.8686  -17.6962 O   0  0  0  0  0  0  0  0  0  0  0  0
   18.9290  -13.0044  -16.7539 C   0  0  0  0  0  0  0  0  0  0  0  0
   18.8284  -14.3476  -17.0735 C   0  0  0  0  0  0  0  0  0  0  0  0
   14.7238   -7.2543  -16.9258 N   0  0  0  0  0  0  0  0  0  0  0  0
   15.9932   -6.6831  -17.1250 C   0  0  0  0  0  0  0  0  0  0  0  0
   16.3940   -6.4394  -18.2776 O   0  0  0  0  0  0  0  0  0  0  0  0
   16.8516   -6.3717  -15.9721 C   0  0  0  0  0  0  0  0  0  0  0  0
   18.3082   -6.6959  -16.2466 C   0  0  2  0  0  0  0  0  0  0  0  0
   18.4921   -8.1256  -16.4388 N   0  0  0  0  0  0  0  0  0  0  0  0
   19.1997   -6.2265  -15.1829 C   0  0  0  0  0  0  0  0  0  0  0  0
   19.2959   -6.8679  -14.1171 O   0  0  0  0  0  0  0  0  0  0  0  0
   19.9524   -5.0483  -15.3589 N   0  0  0  0  0  0  0  0  0  0  0  0
   20.8891   -4.5339  -14.3987 C   0  0  0  0  0  0  0  0  0  0  0  0
   22.1811   -5.2369  -14.5398 C   0  0  0  0  0  0  0  0  0  0  0  0
   23.2583   -4.8410  -13.7584 O   0  0  0  0  0  0  0  0  0  0  0  0
   22.3587   -6.1893  -15.3427 O   0  0  0  0  0  0  0  0  0  0  0  0
  2  3  2  0
  2  1  1  0
  4  3  1  0
  5  4  2  0
  6  5  1  0
  6  7  1  0
  7  8  1  6
  9 18  1  0
  9  7  1  0
 10  9  2  0
 11  5  1  0
 11 12  2  0
 12  2  1  0
 14 13  1  0
 15 14  2  0
 16 14  1  0
 17 16  1  1
 17 19  1  0
 17 18  1  0
 19 20  2  0
 21 22  1  0
 21 19  1  0
 22 23  1  0
 23 25  2  0
 23 24  1  0
M  END
$$$$
