SMR.pdb
     RDKit          3D

 26 25  0  0  1  0  0  0  0  0999 V2000
   25.7322  -24.1081  -13.8339 O   0  0  0  0  0  0  0  0  0  0  0  0
   24.9884  -22.9300  -13.8639 C   0  0  0  0  0  0  0  0  0  0  0  0
   25.6654  -21.9113  -12.9940 C   0  0  2  0  0  0  0  0  0  0  0  0
   25.5870  -22.3153  -11.6137 N   0  0  0  0  0  0  0  0  0  0  0  0
   25.0081  -20.5952  -13.1999 C   0  0  0  0  0  0  0  0  0  0  0  0
   24.2017  -20.1666  -12.3364 O   0  0  0  0  0  0  0  0  0  0  0  0
   27.7118  -16.1603  -16.6873 C   0  0  0  0  0  0  0  0  0  0  0  0
   26.0857  -15.4058  -16.7427 S   0  0  0  0  0  0  0  0  0  0  0  0
   25.0048  -16.2942  -15.5653 C   0  0  0  0  0  0  0  0  0  0  0  0
   25.5473  -17.6839  -15.4304 C   0  0  0  0  0  0  0  0  0  0  0  0
   24.6921  -18.5111  -14.4709 C   0  0  2  0  0  0  0  0  0  0  0  0
   25.2813  -19.8086  -14.3689 N   0  0  0  0  0  0  0  0  0  0  0  0
   23.3456  -18.6168  -15.0837 C   0  0  0  0  0  0  0  0  0  0  0  0
   23.1512  -19.5039  -15.9629 O   0  0  0  0  0  0  0  0  0  0  0  0
   18.4907  -22.2930  -12.2637 N   0  0  0  0  0  0  0  0  0  0  0  0
   17.4591  -21.9998  -13.2098 C   0  0  0  0  0  0  0  0  0  0  0  0
   16.7451  -22.9704  -13.6969 N   0  0  0  0  0  0  0  0  0  0  0  0
   17.1748  -20.6985  -13.6484 N   0  0  0  0  0  0  0  0  0  0  0  0
   17.9580  -19.5660  -13.1023 C   0  0  0  0  0  0  0  0  0  0  0  0
   18.7068  -19.0001  -14.2372 C   0  0  0  0  0  0  0  0  0  0  0  0
   20.1268  -18.6859  -14.1209 C   0  0  0  0  0  0  0  0  0  0  0  0
   20.8564  -18.0873  -15.2328 C   0  0  2  0  0  0  0  0  0  0  0  0
   22.2557  -17.8032  -14.7620 N   0  0  0  0  0  0  0  0  0  0  0  0
   20.3959  -16.8326  -15.7554 C   0  0  0  0  0  0  0  0  0  0  0  0
   19.2784  -16.7973  -16.6185 O   0  0  0  0  0  0  0  0  0  0  0  0
   20.9018  -15.7319  -15.5168 O   0  0  0  0  0  0  0  0  0  0  0  0
  2  3  1  0
  2  1  1  0
  3  4  1  1
  5 12  1  0
  5  3  1  0
  6  5  2  0
  7  8  1  0
  8  9  1  0
  9 10  1  0
 11 10  1  6
 11 12  1  0
 13 11  1  0
 14 13  2  0
 16 15  1  0
 17 16  2  0
 18 16  1  0
 19 18  1  0
 20 19  1  0
 21 20  1  0
 22 21  1  1
 22 24  1  0
 22 23  1  0
 23 13  1  0
 24 25  1  0
 26 24  2  0
M  END
$$$$
