SMR.pdb
     RDKit          3D

 26 25  0  0  1  0  0  0  0  0999 V2000
   28.4904  -23.4152  -19.3591 O   0  0  0  0  0  0  0  0  0  0  0  0
   27.5897  -22.8532  -18.4564 C   0  0  0  0  0  0  0  0  0  0  0  0
   28.0651  -23.1386  -17.0617 C   0  0  2  0  0  0  0  0  0  0  0  0
   27.8338  -24.5230  -16.7384 N   0  0  0  0  0  0  0  0  0  0  0  0
   27.3434  -22.2457  -16.1192 C   0  0  0  0  0  0  0  0  0  0  0  0
   26.8149  -22.7342  -15.0888 O   0  0  0  0  0  0  0  0  0  0  0  0
   28.2940  -16.0045  -16.2317 C   0  0  0  0  0  0  0  0  0  0  0  0
   26.8463  -15.9283  -15.1757 S   0  0  0  0  0  0  0  0  0  0  0  0
   26.4283  -17.6316  -14.6580 C   0  0  0  0  0  0  0  0  0  0  0  0
   27.0011  -18.5584  -15.6859 C   0  0  0  0  0  0  0  0  0  0  0  0
   26.6337  -20.0092  -15.3754 C   0  0  2  0  0  0  0  0  0  0  0  0
   27.2422  -20.8359  -16.3690 N   0  0  0  0  0  0  0  0  0  0  0  0
   25.1570  -20.1055  -15.4763 C   0  0  0  0  0  0  0  0  0  0  0  0
   24.6282  -20.0804  -16.6241 O   0  0  0  0  0  0  0  0  0  0  0  0
   19.2664  -23.2221  -11.3167 N   0  0  0  0  0  0  0  0  0  0  0  0
   18.4765  -23.1232  -12.5048 C   0  0  0  0  0  0  0  0  0  0  0  0
   17.1828  -23.2145  -12.4206 N   0  0  0  0  0  0  0  0  0  0  0  0
   19.0344  -22.9320  -13.7771 N   0  0  0  0  0  0  0  0  0  0  0  0
   20.5080  -22.8751  -13.9173 C   0  0  0  0  0  0  0  0  0  0  0  0
   20.9267  -21.5914  -13.3293 C   0  0  0  0  0  0  0  0  0  0  0  0
   22.3149  -21.1479  -13.3998 C   0  0  0  0  0  0  0  0  0  0  0  0
   22.8013  -20.3835  -14.5427 C   0  0  2  0  0  0  0  0  0  0  0  0
   24.2884  -20.2253  -14.3881 N   0  0  0  0  0  0  0  0  0  0  0  0
   22.3186  -19.0443  -14.7240 C   0  0  0  0  0  0  0  0  0  0  0  0
   21.2766  -18.7901  -15.6430 O   0  0  0  0  0  0  0  0  0  0  0  0
   22.7425  -18.0472  -14.1319 O   0  0  0  0  0  0  0  0  0  0  0  0
  2  3  1  0
  2  1  1  0
  3  4  1  1
  5 12  1  0
  5  3  1  0
  6  5  2  0
  7  8  1  0
  8  9  1  0
  9 10  1  0
 11 10  1  6
 11 12  1  0
 13 11  1  0
 14 13  2  0
 16 15  1  0
 17 16  2  0
 18 16  1  0
 19 18  1  0
 20 19  1  0
 21 20  1  0
 22 21  1  1
 22 24  1  0
 22 23  1  0
 23 13  1  0
 24 25  1  0
 26 24  2  0
M  END
$$$$
