SMR.pdb
     RDKit          3D

 26 25  0  0  1  0  0  0  0  0999 V2000
   22.3386  -20.2438  -20.2104 O   0  0  0  0  0  0  0  0  0  0  0  0
   23.5590  -20.9119  -20.2900 C   0  0  0  0  0  0  0  0  0  0  0  0
   23.5641  -22.0261  -19.2844 C   0  0  2  0  0  0  0  0  0  0  0  0
   22.4514  -22.9085  -19.5246 N   0  0  0  0  0  0  0  0  0  0  0  0
   23.4918  -21.4397  -17.9216 C   0  0  0  0  0  0  0  0  0  0  0  0
   22.7697  -21.9883  -17.0514 O   0  0  0  0  0  0  0  0  0  0  0  0
   26.9888  -16.4275  -15.7564 C   0  0  0  0  0  0  0  0  0  0  0  0
   27.4342  -17.8091  -14.7031 S   0  0  0  0  0  0  0  0  0  0  0  0
   26.0995  -19.0552  -14.8028 C   0  0  0  0  0  0  0  0  0  0  0  0
   25.3346  -18.7827  -16.0616 C   0  0  0  0  0  0  0  0  0  0  0  0
   24.1986  -19.7902  -16.2368 C   0  0  2  0  0  0  0  0  0  0  0  0
   24.2341  -20.2580  -17.5862 N   0  0  0  0  0  0  0  0  0  0  0  0
   22.9345  -19.0536  -15.9929 C   0  0  0  0  0  0  0  0  0  0  0  0
   22.3644  -18.4937  -16.9723 O   0  0  0  0  0  0  0  0  0  0  0  0
   18.4896  -14.9568  -19.7656 N   0  0  0  0  0  0  0  0  0  0  0  0
   17.8355  -15.7779  -18.7943 C   0  0  0  0  0  0  0  0  0  0  0  0
   16.6135  -16.1667  -19.0061 N   0  0  0  0  0  0  0  0  0  0  0  0
   18.4532  -16.1901  -17.6048 N   0  0  0  0  0  0  0  0  0  0  0  0
   19.8494  -15.7750  -17.3357 C   0  0  0  0  0  0  0  0  0  0  0  0
   20.1951  -16.3299  -16.0160 C   0  0  0  0  0  0  0  0  0  0  0  0
   20.5629  -17.7334  -15.8620 C   0  0  0  0  0  0  0  0  0  0  0  0
   20.9746  -18.2635  -14.5672 C   0  0  2  0  0  0  0  0  0  0  0  0
   22.3114  -18.9271  -14.7484 N   0  0  0  0  0  0  0  0  0  0  0  0
   20.1588  -19.2704  -13.9508 C   0  0  0  0  0  0  0  0  0  0  0  0
   19.1114  -18.8928  -13.0817 O   0  0  0  0  0  0  0  0  0  0  0  0
   20.2871  -20.4880  -14.1098 O   0  0  0  0  0  0  0  0  0  0  0  0
  2  3  1  0
  2  1  1  0
  3  4  1  6
  5 12  1  0
  5  3  1  0
  6  5  2  0
  7  8  1  0
  8  9  1  0
  9 10  1  0
 11 10  1  6
 11 12  1  0
 13 11  1  0
 14 13  2  0
 16 15  1  0
 17 16  2  0
 18 16  1  0
 19 18  1  0
 20 19  1  0
 21 20  1  0
 22 21  1  6
 22 24  1  0
 22 23  1  0
 23 13  1  0
 24 25  1  0
 26 24  2  0
M  END
$$$$
