SMR.pdb
     RDKit          3D

 26 25  0  0  1  0  0  0  0  0999 V2000
   28.3219  -18.0131  -15.5877 O   0  0  0  0  0  0  0  0  0  0  0  0
   27.4091  -18.5972  -14.7115 C   0  0  0  0  0  0  0  0  0  0  0  0
   27.9491  -19.9260  -14.2694 C   0  0  2  0  0  0  0  0  0  0  0  0
   28.3439  -20.7013  -15.4173 N   0  0  0  0  0  0  0  0  0  0  0  0
   26.9012  -20.6311  -13.4877 C   0  0  0  0  0  0  0  0  0  0  0  0
   26.2307  -21.5419  -14.0357 O   0  0  0  0  0  0  0  0  0  0  0  0
   25.7524  -19.5597   -7.3009 C   0  0  0  0  0  0  0  0  0  0  0  0
   27.2443  -20.4670   -7.7105 S   0  0  0  0  0  0  0  0  0  0  0  0
   27.0249  -21.2054   -9.3690 C   0  0  0  0  0  0  0  0  0  0  0  0
   25.7510  -20.6545   -9.9324 C   0  0  0  0  0  0  0  0  0  0  0  0
   25.6209  -20.9941  -11.4170 C   0  0  2  0  0  0  0  0  0  0  0  0
   26.6452  -20.2868  -12.1180 N   0  0  0  0  0  0  0  0  0  0  0  0
   24.2879  -20.5088  -11.8498 C   0  0  0  0  0  0  0  0  0  0  0  0
   24.0708  -19.2636  -11.8512 O   0  0  0  0  0  0  0  0  0  0  0  0
   22.5546  -16.7280  -16.1111 N   0  0  0  0  0  0  0  0  0  0  0  0
   21.8433  -17.4572  -17.1149 C   0  0  0  0  0  0  0  0  0  0  0  0
   21.1189  -16.8119  -17.9798 N   0  0  0  0  0  0  0  0  0  0  0  0
   21.8854  -18.8554  -17.2148 N   0  0  0  0  0  0  0  0  0  0  0  0
   22.6484  -19.6278  -16.2071 C   0  0  0  0  0  0  0  0  0  0  0  0
   21.6546  -20.4063  -15.4485 C   0  0  0  0  0  0  0  0  0  0  0  0
   22.0587  -21.2728  -14.3464 C   0  0  0  0  0  0  0  0  0  0  0  0
   22.0152  -20.8016  -12.9668 C   0  0  2  0  0  0  0  0  0  0  0  0
   23.2352  -21.3293  -12.2643 N   0  0  0  0  0  0  0  0  0  0  0  0
   20.9203  -21.2170  -12.1374 C   0  0  0  0  0  0  0  0  0  0  0  0
   19.7489  -20.4305  -12.0721 O   0  0  0  0  0  0  0  0  0  0  0  0
   20.8989  -22.2376  -11.4429 O   0  0  0  0  0  0  0  0  0  0  0  0
  2  3  1  0
  2  1  1  0
  3  4  1  6
  5 12  1  0
  5  3  1  0
  6  5  2  0
  7  8  1  0
  8  9  1  0
  9 10  1  0
 11 10  1  1
 11 12  1  0
 13 11  1  0
 14 13  2  0
 16 15  1  0
 17 16  2  0
 18 16  1  0
 19 18  1  0
 20 19  1  0
 21 20  1  0
 22 21  1  6
 22 24  1  0
 22 23  1  0
 23 13  1  0
 24 25  1  0
 26 24  2  0
M  END
$$$$
