SMR.pdb
     RDKit          3D

 26 25  0  0  1  0  0  0  0  0999 V2000
   27.1180  -11.3433  -23.7487 O   0  0  0  0  0  0  0  0  0  0  0  0
   25.8131  -11.7831  -23.5344 C   0  0  0  0  0  0  0  0  0  0  0  0
   25.7038  -12.2984  -22.1290 C   0  0  2  0  0  0  0  0  0  0  0  0
   26.2811  -11.3492  -21.2123 N   0  0  0  0  0  0  0  0  0  0  0  0
   26.3998  -13.6080  -22.0451 C   0  0  0  0  0  0  0  0  0  0  0  0
   25.9987  -14.5662  -22.7525 O   0  0  0  0  0  0  0  0  0  0  0  0
   32.5583  -17.5847  -19.2457 C   0  0  0  0  0  0  0  0  0  0  0  0
   31.7931  -15.9948  -19.5669 S   0  0  0  0  0  0  0  0  0  0  0  0
   30.1002  -16.2927  -20.1910 C   0  0  0  0  0  0  0  0  0  0  0  0
   29.4648  -14.9524  -20.4003 C   0  0  0  0  0  0  0  0  0  0  0  0
   28.0933  -15.0975  -21.0591 C   0  0  2  0  0  0  0  0  0  0  0  0
   27.5217  -13.7929  -21.1692 N   0  0  0  0  0  0  0  0  0  0  0  0
   27.2704  -15.9322  -20.1503 C   0  0  0  0  0  0  0  0  0  0  0  0
   26.9731  -15.4708  -19.0116 O   0  0  0  0  0  0  0  0  0  0  0  0
   19.7653  -17.6541  -18.6389 N   0  0  0  0  0  0  0  0  0  0  0  0
   20.1815  -19.0151  -18.4982 C   0  0  0  0  0  0  0  0  0  0  0  0
   19.5352  -19.7998  -17.6884 N   0  0  0  0  0  0  0  0  0  0  0  0
   21.2700  -19.5553  -19.1981 N   0  0  0  0  0  0  0  0  0  0  0  0
   22.0936  -18.6655  -20.0490 C   0  0  0  0  0  0  0  0  0  0  0  0
   23.4556  -18.7090  -19.4903 C   0  0  0  0  0  0  0  0  0  0  0  0
   24.5379  -17.9304  -20.0828 C   0  0  0  0  0  0  0  0  0  0  0  0
   25.8881  -17.9836  -19.5341 C   0  0  2  0  0  0  0  0  0  0  0  0
   26.7876  -17.2077  -20.4557 N   0  0  0  0  0  0  0  0  0  0  0  0
   26.5252  -19.2635  -19.4105 C   0  0  0  0  0  0  0  0  0  0  0  0
   26.2752  -20.0675  -18.2765 O   0  0  0  0  0  0  0  0  0  0  0  0
   27.3059  -19.7538  -20.2318 O   0  0  0  0  0  0  0  0  0  0  0  0
  2  3  1  0
  2  1  1  0
  3  4  1  1
  5 12  1  0
  5  3  1  0
  6  5  2  0
  7  8  1  0
  8  9  1  0
  9 10  1  0
 11 10  1  1
 11 12  1  0
 13 11  1  0
 14 13  2  0
 16 15  1  0
 17 16  2  0
 18 16  1  0
 19 18  1  0
 20 19  1  0
 21 20  1  0
 22 21  1  6
 22 24  1  0
 22 23  1  0
 23 13  1  0
 24 25  1  0
 26 24  2  0
M  END
$$$$
