SMR.pdb
     RDKit          3D

 26 25  0  0  1  0  0  0  0  0999 V2000
   26.7764  -18.9854  -15.6267 O   0  0  0  0  0  0  0  0  0  0  0  0
   27.9172  -19.1241  -14.8385 C   0  0  0  0  0  0  0  0  0  0  0  0
   28.1006  -20.5769  -14.5089 C   0  0  2  0  0  0  0  0  0  0  0  0
   28.2698  -21.3370  -15.7206 N   0  0  0  0  0  0  0  0  0  0  0  0
   26.9146  -21.0475  -13.7485 C   0  0  0  0  0  0  0  0  0  0  0  0
   26.2262  -21.9953  -14.2037 O   0  0  0  0  0  0  0  0  0  0  0  0
   27.5016  -20.9012   -6.7488 C   0  0  0  0  0  0  0  0  0  0  0  0
   26.3137  -20.1442   -7.8590 S   0  0  0  0  0  0  0  0  0  0  0  0
   26.3861  -21.0267   -9.4590 C   0  0  0  0  0  0  0  0  0  0  0  0
   25.4377  -20.3337  -10.3885 C   0  0  0  0  0  0  0  0  0  0  0  0
   25.4525  -20.9893  -11.7692 C   0  0  2  0  0  0  0  0  0  0  0  0
   26.5455  -20.4355  -12.5038 N   0  0  0  0  0  0  0  0  0  0  0  0
   24.1718  -20.6296  -12.4252 C   0  0  0  0  0  0  0  0  0  0  0  0
   24.0658  -19.4869  -12.9550 O   0  0  0  0  0  0  0  0  0  0  0  0
   17.8702  -26.1012  -14.8484 N   0  0  0  0  0  0  0  0  0  0  0  0
   19.2584  -25.7843  -14.9826 C   0  0  0  0  0  0  0  0  0  0  0  0
   20.0808  -26.6913  -15.4188 N   0  0  0  0  0  0  0  0  0  0  0  0
   19.7874  -24.5263  -14.6604 N   0  0  0  0  0  0  0  0  0  0  0  0
   18.8727  -23.4547  -14.2030 C   0  0  0  0  0  0  0  0  0  0  0  0
   19.6973  -22.2422  -14.0661 C   0  0  0  0  0  0  0  0  0  0  0  0
   21.0199  -22.2963  -13.4523 C   0  0  0  0  0  0  0  0  0  0  0  0
   21.7996  -21.0819  -13.2416 C   0  0  2  0  0  0  0  0  0  0  0  0
   23.0548  -21.4654  -12.5082 N   0  0  0  0  0  0  0  0  0  0  0  0
   21.2290  -20.0334  -12.4451 C   0  0  0  0  0  0  0  0  0  0  0  0
   20.4281  -19.0427  -13.0549 O   0  0  0  0  0  0  0  0  0  0  0  0
   21.3755  -19.9038  -11.2260 O   0  0  0  0  0  0  0  0  0  0  0  0
  2  3  1  0
  2  1  1  0
  3  4  1  6
  5 12  1  0
  5  3  1  0
  6  5  2  0
  7  8  1  0
  8  9  1  0
  9 10  1  0
 11 10  1  1
 11 12  1  0
 13 11  1  0
 14 13  2  0
 16 15  1  0
 17 16  2  0
 18 16  1  0
 19 18  1  0
 20 19  1  0
 21 20  1  0
 22 21  1  1
 22 24  1  0
 22 23  1  0
 23 13  1  0
 24 25  1  0
 26 24  2  0
M  END
$$$$
