SMR.pdb
     RDKit          3D

 26 25  0  0  1  0  0  0  0  0999 V2000
   26.0560  -19.4543  -16.4060 O   0  0  0  0  0  0  0  0  0  0  0  0
   27.3029  -19.4128  -15.7851 C   0  0  0  0  0  0  0  0  0  0  0  0
   27.6552  -20.7958  -15.3204 C   0  0  2  0  0  0  0  0  0  0  0  0
   27.7491  -21.6838  -16.4506 N   0  0  0  0  0  0  0  0  0  0  0  0
   26.6148  -21.2586  -14.3667 C   0  0  0  0  0  0  0  0  0  0  0  0
   25.9987  -22.3294  -14.5977 O   0  0  0  0  0  0  0  0  0  0  0  0
   24.5248  -21.0869   -6.8734 C   0  0  0  0  0  0  0  0  0  0  0  0
   25.4769  -20.3392   -8.1967 S   0  0  0  0  0  0  0  0  0  0  0  0
   24.9144  -21.0592   -9.7806 C   0  0  0  0  0  0  0  0  0  0  0  0
   25.7471  -20.4463  -10.8645 C   0  0  0  0  0  0  0  0  0  0  0  0
   25.4250  -21.0754  -12.2197 C   0  0  2  0  0  0  0  0  0  0  0  0
   26.3046  -20.5010  -13.1878 N   0  0  0  0  0  0  0  0  0  0  0  0
   24.0223  -20.7113  -12.5358 C   0  0  0  0  0  0  0  0  0  0  0  0
   23.7839  -19.5468  -12.9655 O   0  0  0  0  0  0  0  0  0  0  0  0
   19.5491  -24.0779   -7.9569 N   0  0  0  0  0  0  0  0  0  0  0  0
   18.6152  -24.3385   -9.0082 C   0  0  0  0  0  0  0  0  0  0  0  0
   18.0832  -25.5198   -9.1111 N   0  0  0  0  0  0  0  0  0  0  0  0
   18.2394  -23.3706   -9.9508 N   0  0  0  0  0  0  0  0  0  0  0  0
   18.9993  -22.1012  -10.0234 C   0  0  0  0  0  0  0  0  0  0  0  0
   19.8549  -22.2030  -11.2177 C   0  0  0  0  0  0  0  0  0  0  0  0
   20.7086  -21.0937  -11.6294 C   0  0  0  0  0  0  0  0  0  0  0  0
   21.5350  -21.1873  -12.8274 C   0  0  2  0  0  0  0  0  0  0  0  0
   22.9249  -21.5653  -12.3963 N   0  0  0  0  0  0  0  0  0  0  0  0
   21.7187  -20.0082  -13.6244 C   0  0  0  0  0  0  0  0  0  0  0  0
   21.6740  -20.0970  -15.0333 O   0  0  0  0  0  0  0  0  0  0  0  0
   21.9222  -18.8734  -13.1826 O   0  0  0  0  0  0  0  0  0  0  0  0
  2  3  1  0
  2  1  1  0
  3  4  1  6
  5 12  1  0
  5  3  1  0
  6  5  2  0
  7  8  1  0
  8  9  1  0
  9 10  1  0
 11 10  1  1
 11 12  1  0
 13 11  1  0
 14 13  2  0
 16 15  1  0
 17 16  2  0
 18 16  1  0
 19 18  1  0
 20 19  1  0
 21 20  1  0
 22 21  1  1
 22 24  1  0
 22 23  1  0
 23 13  1  0
 24 25  1  0
 26 24  2  0
M  END
$$$$
