SMR.pdb
     RDKit          3D

 26 25  0  0  1  0  0  0  0  0999 V2000
   26.7519  -18.5334  -15.8604 O   0  0  0  0  0  0  0  0  0  0  0  0
   27.7380  -18.5609  -14.8761 C   0  0  0  0  0  0  0  0  0  0  0  0
   28.1353  -19.9877  -14.6328 C   0  0  2  0  0  0  0  0  0  0  0  0
   28.5203  -20.6080  -15.8744 N   0  0  0  0  0  0  0  0  0  0  0  0
   26.9899  -20.7036  -14.0146 C   0  0  0  0  0  0  0  0  0  0  0  0
   26.5814  -21.7748  -14.5296 O   0  0  0  0  0  0  0  0  0  0  0  0
   24.5570  -20.4829   -7.7701 C   0  0  0  0  0  0  0  0  0  0  0  0
   26.3091  -20.5915   -8.1374 S   0  0  0  0  0  0  0  0  0  0  0  0
   26.4954  -21.2002   -9.8517 C   0  0  0  0  0  0  0  0  0  0  0  0
   25.4173  -20.5561  -10.6682 C   0  0  0  0  0  0  0  0  0  0  0  0
   25.4633  -21.0478  -12.1148 C   0  0  2  0  0  0  0  0  0  0  0  0
   26.3453  -20.1893  -12.8399 N   0  0  0  0  0  0  0  0  0  0  0  0
   24.0860  -20.9229  -12.6510 C   0  0  0  0  0  0  0  0  0  0  0  0
   23.6764  -19.7792  -13.0001 O   0  0  0  0  0  0  0  0  0  0  0  0
   17.2106  -26.7724  -13.9462 N   0  0  0  0  0  0  0  0  0  0  0  0
   16.8678  -25.4589  -14.3963 C   0  0  0  0  0  0  0  0  0  0  0  0
   15.6850  -25.2415  -14.8891 N   0  0  0  0  0  0  0  0  0  0  0  0
   17.7568  -24.3762  -14.3348 N   0  0  0  0  0  0  0  0  0  0  0  0
   19.0983  -24.5772  -13.7397 C   0  0  0  0  0  0  0  0  0  0  0  0
   19.7790  -23.2732  -13.8125 C   0  0  0  0  0  0  0  0  0  0  0  0
   21.1571  -23.1167  -13.3597 C   0  0  0  0  0  0  0  0  0  0  0  0
   21.7976  -21.8066  -13.3442 C   0  0  2  0  0  0  0  0  0  0  0  0
   23.1900  -21.9842  -12.8057 N   0  0  0  0  0  0  0  0  0  0  0  0
   21.2277  -20.7774  -12.5225 C   0  0  0  0  0  0  0  0  0  0  0  0
   20.3517  -19.8267  -13.0916 O   0  0  0  0  0  0  0  0  0  0  0  0
   21.4365  -20.6320  -11.3143 O   0  0  0  0  0  0  0  0  0  0  0  0
  2  3  1  0
  2  1  1  0
  3  4  1  6
  5 12  1  0
  5  3  1  0
  6  5  2  0
  7  8  1  0
  8  9  1  0
  9 10  1  0
 11 10  1  1
 11 12  1  0
 13 11  1  0
 14 13  2  0
 16 15  1  0
 17 16  2  0
 18 16  1  0
 19 18  1  0
 20 19  1  0
 21 20  1  0
 22 21  1  1
 22 24  1  0
 22 23  1  0
 23 13  1  0
 24 25  1  0
 26 24  2  0
M  END
$$$$
