SMR.pdb
     RDKit          3D

 26 25  0  0  1  0  0  0  0  0999 V2000
   27.0257  -18.4096  -15.5212 O   0  0  0  0  0  0  0  0  0  0  0  0
   27.8342  -18.4579  -14.3872 C   0  0  0  0  0  0  0  0  0  0  0  0
   28.2618  -19.8788  -14.1613 C   0  0  2  0  0  0  0  0  0  0  0  0
   28.6766  -20.4700  -15.4075 N   0  0  0  0  0  0  0  0  0  0  0  0
   27.1260  -20.6308  -13.5691 C   0  0  0  0  0  0  0  0  0  0  0  0
   26.6411  -21.6082  -14.1929 O   0  0  0  0  0  0  0  0  0  0  0  0
   26.3441  -19.2070   -7.4597 C   0  0  0  0  0  0  0  0  0  0  0  0
   26.0567  -20.9649   -7.6688 S   0  0  0  0  0  0  0  0  0  0  0  0
   26.4145  -21.3978   -9.4091 C   0  0  0  0  0  0  0  0  0  0  0  0
   25.4065  -20.6849  -10.2574 C   0  0  0  0  0  0  0  0  0  0  0  0
   25.5562  -21.0784  -11.7268 C   0  0  2  0  0  0  0  0  0  0  0  0
   26.5766  -20.2570  -12.2969 N   0  0  0  0  0  0  0  0  0  0  0  0
   24.2557  -20.7908  -12.3794 C   0  0  0  0  0  0  0  0  0  0  0  0
   23.9805  -19.5926  -12.6733 O   0  0  0  0  0  0  0  0  0  0  0  0
   19.7602  -23.6882  -18.5791 N   0  0  0  0  0  0  0  0  0  0  0  0
   18.6298  -23.4030  -17.7508 C   0  0  0  0  0  0  0  0  0  0  0  0
   17.5023  -23.0669  -18.3033 N   0  0  0  0  0  0  0  0  0  0  0  0
   18.6757  -23.4657  -16.3507 N   0  0  0  0  0  0  0  0  0  0  0  0
   19.9514  -23.8193  -15.6860 C   0  0  0  0  0  0  0  0  0  0  0  0
   20.3887  -22.6101  -14.9679 C   0  0  0  0  0  0  0  0  0  0  0  0
   21.6072  -22.6100  -14.1654 C   0  0  0  0  0  0  0  0  0  0  0  0
   22.0187  -21.4221  -13.4262 C   0  0  2  0  0  0  0  0  0  0  0  0
   23.2945  -21.7525  -12.7026 N   0  0  0  0  0  0  0  0  0  0  0  0
   21.1489  -20.9200  -12.4012 C   0  0  0  0  0  0  0  0  0  0  0  0
   20.1297  -19.9997  -12.7317 O   0  0  0  0  0  0  0  0  0  0  0  0
   21.2053  -21.2241  -11.2059 O   0  0  0  0  0  0  0  0  0  0  0  0
  2  3  1  0
  2  1  1  0
  3  4  1  6
  5 12  1  0
  5  3  1  0
  6  5  2  0
  7  8  1  0
  8  9  1  0
  9 10  1  0
 11 10  1  1
 11 12  1  0
 13 11  1  0
 14 13  2  0
 16 15  1  0
 17 16  2  0
 18 16  1  0
 19 18  1  0
 20 19  1  0
 21 20  1  0
 22 21  1  1
 22 24  1  0
 22 23  1  0
 23 13  1  0
 24 25  1  0
 26 24  2  0
M  END
$$$$
