SMR.pdb
     RDKit          3D

 26 25  0  0  1  0  0  0  0  0999 V2000
   26.2557  -21.9356  -15.1988 O   0  0  0  0  0  0  0  0  0  0  0  0
   27.4808  -21.3010  -15.0028 C   0  0  0  0  0  0  0  0  0  0  0  0
   27.4303  -20.5476  -13.7057 C   0  0  2  0  0  0  0  0  0  0  0  0
   27.2838  -21.4694  -12.6086 N   0  0  0  0  0  0  0  0  0  0  0  0
   26.2935  -19.5927  -13.7520 C   0  0  0  0  0  0  0  0  0  0  0  0
   25.3910  -19.6652  -12.8803 O   0  0  0  0  0  0  0  0  0  0  0  0
   27.3042  -12.8413  -15.3950 C   0  0  0  0  0  0  0  0  0  0  0  0
   26.3308  -14.1114  -16.2048 S   0  0  0  0  0  0  0  0  0  0  0  0
   26.0535  -15.4664  -15.0085 C   0  0  0  0  0  0  0  0  0  0  0  0
   25.3717  -16.5759  -15.7488 C   0  0  0  0  0  0  0  0  0  0  0  0
   25.0622  -17.7444  -14.8133 C   0  0  2  0  0  0  0  0  0  0  0  0
   26.2125  -18.5908  -14.7765 N   0  0  0  0  0  0  0  0  0  0  0  0
   23.9181  -18.4760  -15.4097 C   0  0  0  0  0  0  0  0  0  0  0  0
   24.1551  -19.3498  -16.2918 O   0  0  0  0  0  0  0  0  0  0  0  0
   18.1884  -24.3990  -13.4286 N   0  0  0  0  0  0  0  0  0  0  0  0
   19.6129  -24.3280  -13.5334 C   0  0  0  0  0  0  0  0  0  0  0  0
   20.3044  -25.4271  -13.5890 N   0  0  0  0  0  0  0  0  0  0  0  0
   20.3142  -23.1144  -13.5776 N   0  0  0  0  0  0  0  0  0  0  0  0
   19.5598  -21.8421  -13.4983 C   0  0  0  0  0  0  0  0  0  0  0  0
   20.0153  -21.0237  -14.6348 C   0  0  0  0  0  0  0  0  0  0  0  0
   21.1220  -20.0839  -14.4904 C   0  0  0  0  0  0  0  0  0  0  0  0
   21.4675  -19.1606  -15.5651 C   0  0  2  0  0  0  0  0  0  0  0  0
   22.5775  -18.2759  -15.0694 N   0  0  0  0  0  0  0  0  0  0  0  0
   20.4639  -18.2454  -16.0283 C   0  0  0  0  0  0  0  0  0  0  0  0
   19.4714  -18.6870  -16.9311 O   0  0  0  0  0  0  0  0  0  0  0  0
   20.3777  -17.0573  -15.7035 O   0  0  0  0  0  0  0  0  0  0  0  0
  2  3  1  0
  2  1  1  0
  3  4  1  1
  5 12  1  0
  5  3  1  0
  6  5  2  0
  7  8  1  0
  8  9  1  0
  9 10  1  0
 11 10  1  6
 11 12  1  0
 13 11  1  0
 14 13  2  0
 16 15  1  0
 17 16  2  0
 18 16  1  0
 19 18  1  0
 20 19  1  0
 21 20  1  0
 22 21  1  1
 22 24  1  0
 22 23  1  0
 23 13  1  0
 24 25  1  0
 26 24  2  0
M  END
$$$$
