SMR.pdb
     RDKit          3D

 26 25  0  0  1  0  0  0  0  0999 V2000
   27.0493  -19.3652  -16.8874 O   0  0  0  0  0  0  0  0  0  0  0  0
   27.7421  -19.3961  -15.6787 C   0  0  0  0  0  0  0  0  0  0  0  0
   28.0309  -20.8261  -15.3260 C   0  0  2  0  0  0  0  0  0  0  0  0
   28.0613  -21.6294  -16.5212 N   0  0  0  0  0  0  0  0  0  0  0  0
   26.9834  -21.3078  -14.3894 C   0  0  0  0  0  0  0  0  0  0  0  0
   26.6193  -22.5098  -14.4365 O   0  0  0  0  0  0  0  0  0  0  0  0
   26.8960  -20.9298   -7.6562 C   0  0  0  0  0  0  0  0  0  0  0  0
   25.6709  -19.8852   -8.4464 S   0  0  0  0  0  0  0  0  0  0  0  0
   25.0889  -20.7330   -9.9585 C   0  0  0  0  0  0  0  0  0  0  0  0
   25.9518  -20.2616  -11.0886 C   0  0  0  0  0  0  0  0  0  0  0  0
   25.5895  -20.9821  -12.3870 C   0  0  2  0  0  0  0  0  0  0  0  0
   26.3833  -20.4208  -13.4338 N   0  0  0  0  0  0  0  0  0  0  0  0
   24.1544  -20.7065  -12.6409 C   0  0  0  0  0  0  0  0  0  0  0  0
   23.8038  -19.5182  -12.8918 O   0  0  0  0  0  0  0  0  0  0  0  0
   17.4464  -23.4004  -15.2398 N   0  0  0  0  0  0  0  0  0  0  0  0
   18.2748  -24.4012  -15.8375 C   0  0  0  0  0  0  0  0  0  0  0  0
   17.9845  -24.8448  -17.0242 N   0  0  0  0  0  0  0  0  0  0  0  0
   19.4011  -24.9395  -15.1986 N   0  0  0  0  0  0  0  0  0  0  0  0
   19.7065  -24.5294  -13.8084 C   0  0  0  0  0  0  0  0  0  0  0  0
   20.3993  -23.2334  -13.9059 C   0  0  0  0  0  0  0  0  0  0  0  0
   20.9276  -22.5707  -12.7183 C   0  0  0  0  0  0  0  0  0  0  0  0
   21.6902  -21.3322  -12.8268 C   0  0  2  0  0  0  0  0  0  0  0  0
   23.1416  -21.6694  -12.6265 N   0  0  0  0  0  0  0  0  0  0  0  0
   21.4341  -20.2870  -11.8774 C   0  0  0  0  0  0  0  0  0  0  0  0
   20.6756  -19.1587  -12.2604 O   0  0  0  0  0  0  0  0  0  0  0  0
   21.8290  -20.2736  -10.7077 O   0  0  0  0  0  0  0  0  0  0  0  0
  2  3  1  0
  2  1  1  0
  3  4  1  6
  5 12  1  0
  5  3  1  0
  6  5  2  0
  7  8  1  0
  8  9  1  0
  9 10  1  0
 11 10  1  1
 11 12  1  0
 13 11  1  0
 14 13  2  0
 16 15  1  0
 17 16  2  0
 18 16  1  0
 19 18  1  0
 20 19  1  0
 21 20  1  0
 22 21  1  1
 22 24  1  0
 22 23  1  0
 23 13  1  0
 24 25  1  0
 26 24  2  0
M  END
$$$$
