SMR.pdb
     RDKit          3D

 26 25  0  0  1  0  0  0  0  0999 V2000
   26.8958  -18.8066  -15.6296 O   0  0  0  0  0  0  0  0  0  0  0  0
   28.1000  -19.0939  -14.9898 C   0  0  0  0  0  0  0  0  0  0  0  0
   28.1811  -20.5749  -14.7595 C   0  0  2  0  0  0  0  0  0  0  0  0
   28.0712  -21.2730  -16.0146 N   0  0  0  0  0  0  0  0  0  0  0  0
   27.0911  -20.9744  -13.8328 C   0  0  0  0  0  0  0  0  0  0  0  0
   26.1345  -21.6645  -14.2666 O   0  0  0  0  0  0  0  0  0  0  0  0
   27.5479  -20.3186   -7.4513 C   0  0  0  0  0  0  0  0  0  0  0  0
   25.7589  -20.3207   -7.5785 S   0  0  0  0  0  0  0  0  0  0  0  0
   25.3052  -20.9781   -9.2234 C   0  0  0  0  0  0  0  0  0  0  0  0
   26.3506  -20.5107  -10.1891 C   0  0  0  0  0  0  0  0  0  0  0  0
   26.0684  -21.0405  -11.5949 C   0  0  2  0  0  0  0  0  0  0  0  0
   27.1161  -20.5836  -12.4520 N   0  0  0  0  0  0  0  0  0  0  0  0
   24.7763  -20.4501  -12.0211 C   0  0  0  0  0  0  0  0  0  0  0  0
   24.7328  -19.2122  -12.2729 O   0  0  0  0  0  0  0  0  0  0  0  0
   18.0450  -21.6983  -15.5224 N   0  0  0  0  0  0  0  0  0  0  0  0
   18.3454  -20.6168  -16.4086 C   0  0  0  0  0  0  0  0  0  0  0  0
   17.3750  -19.9035  -16.8971 N   0  0  0  0  0  0  0  0  0  0  0  0
   19.6538  -20.2819  -16.7861 N   0  0  0  0  0  0  0  0  0  0  0  0
   20.7859  -21.0603  -16.2323 C   0  0  0  0  0  0  0  0  0  0  0  0
   21.0026  -20.5540  -14.8664 C   0  0  0  0  0  0  0  0  0  0  0  0
   22.0964  -21.0562  -14.0418 C   0  0  0  0  0  0  0  0  0  0  0  0
   22.3197  -20.5402  -12.6961 C   0  0  2  0  0  0  0  0  0  0  0  0
   23.5835  -21.1628  -12.1710 N   0  0  0  0  0  0  0  0  0  0  0  0
   21.3396  -20.8201  -11.6859 C   0  0  0  0  0  0  0  0  0  0  0  0
   20.2085  -19.9848  -11.5521 O   0  0  0  0  0  0  0  0  0  0  0  0
   21.3886  -21.7587  -10.8853 O   0  0  0  0  0  0  0  0  0  0  0  0
  2  3  1  0
  2  1  1  0
  3  4  1  6
  5 12  1  0
  5  3  1  0
  6  5  2  0
  7  8  1  0
  8  9  1  0
  9 10  1  0
 11 10  1  1
 11 12  1  0
 13 11  1  0
 14 13  2  0
 16 15  1  0
 17 16  2  0
 18 16  1  0
 19 18  1  0
 20 19  1  0
 21 20  1  0
 22 21  1  6
 22 24  1  0
 22 23  1  0
 23 13  1  0
 24 25  1  0
 26 24  2  0
M  END
$$$$
