RGD.pdb
     RDKit          3D

 24 23  0  0  1  0  0  0  0  0999 V2000
    9.2370  -11.4563   19.1127 N   0  0  0  0  0  0  0  0  0  0  0  0
    8.9726  -12.7623   19.5807 C   0  0  0  0  0  0  0  0  0  0  0  0
    9.6919  -13.7756   19.1893 N   0  0  0  0  0  0  0  0  0  0  0  0
    7.8892  -12.9329   20.5000 N   0  0  0  0  0  0  0  0  0  0  0  0
    7.8311  -14.0756   21.3433 C   0  0  0  0  0  0  0  0  0  0  0  0
    7.4549  -15.3565   20.6430 C   0  0  0  0  0  0  0  0  0  0  0  0
    7.3263  -16.5344   21.5829 C   0  0  0  0  0  0  0  0  0  0  0  0
    8.6569  -16.6738   22.2905 C   0  0  2  0  0  0  0  0  0  0  0  0
    9.4333  -17.6671   21.6010 N   0  0  0  0  0  0  0  0  0  0  0  0
    8.4375  -16.9993   23.7121 C   0  0  0  0  0  0  0  0  0  0  0  0
    7.8295  -16.2153   24.4846 O   0  0  0  0  0  0  0  0  0  0  0  0
    9.4231  -14.7236   19.5253 N   0  0  0  0  0  0  0  0  0  0  0  0
    8.9532  -18.2666   24.1972 C   0  0  0  0  0  0  0  0  0  0  0  0
    8.7999  -18.4916   25.6093 C   0  0  0  0  0  0  0  0  0  0  0  0
    9.7658  -17.7122   26.3800 O   0  0  0  0  0  0  0  0  0  0  0  0
   10.8282  -17.3628   25.7477 N   0  0  0  0  0  0  0  0  0  0  0  0
    9.6631  -17.3082   27.7207 C   0  0  1  0  0  0  0  0  0  0  0  0
   10.7379  -16.4984   28.3112 C   0  0  0  0  0  0  0  0  0  0  0  0
   10.1102  -15.3184   29.0521 C   0  0  0  0  0  0  0  0  0  0  0  0
    9.5082  -14.3998   28.0917 O   0  0  0  0  0  0  0  0  0  0  0  0
    9.5455  -14.6809   26.8629 C   0  0  0  0  0  0  0  0  0  0  0  0
   11.5167  -17.3064   29.2640 O   0  0  0  0  0  0  0  0  0  0  0  0
   11.2038  -18.6433   29.5021 O   0  0  0  0  0  0  0  0  0  0  0  0
    8.8795  -13.2058   28.4413 O   0  0  0  0  0  0  0  0  0  0  0  0
  1  2  1  0
  2  3  2  0
  4  5  1  0
  4  2  1  0
  6  7  1  0
  6  5  1  0
  7  8  1  0
  8  9  1  6
 10  8  1  0
 10 12  1  0
 11 10  2  0
 12 13  1  0
 13 14  1  0
 14 15  2  0
 14 16  1  0
 16 17  1  0
 17 21  1  0
 17 18  1  1
 18 19  1  0
 19 23  1  0
 20 19  2  0
 21 24  2  0
 21 22  1  0
M  END
$$$$
