RGD.pdb
     RDKit          3D

 24 23  0  0  1  0  0  0  0  0999 V2000
    7.9756  -13.6595   15.9031 N   0  0  0  0  0  0  0  0  0  0  0  0
    8.4382  -13.4305   17.2177 C   0  0  0  0  0  0  0  0  0  0  0  0
    9.6833  -13.1248   17.4491 N   0  0  0  0  0  0  0  0  0  0  0  0
    7.4917  -13.5442   18.2851 N   0  0  0  0  0  0  0  0  0  0  0  0
    7.5654  -14.6270   19.2030 C   0  0  0  0  0  0  0  0  0  0  0  0
    6.4768  -14.6438   20.2456 C   0  0  0  0  0  0  0  0  0  0  0  0
    6.9924  -14.4198   21.6497 C   0  0  0  0  0  0  0  0  0  0  0  0
    7.9586  -15.5471   21.9435 C   0  0  2  0  0  0  0  0  0  0  0  0
    7.2435  -16.7902   21.8519 N   0  0  0  0  0  0  0  0  0  0  0  0
    8.5859  -15.3396   23.2619 C   0  0  0  0  0  0  0  0  0  0  0  0
    9.2186  -14.2881   23.5359 O   0  0  0  0  0  0  0  0  0  0  0  0
    9.9982  -13.0775   18.4403 N   0  0  0  0  0  0  0  0  0  0  0  0
    8.4499  -16.4002   24.2437 C   0  0  0  0  0  0  0  0  0  0  0  0
    9.1105  -16.1632   25.4989 C   0  0  0  0  0  0  0  0  0  0  0  0
   10.2149  -17.0974   25.7034 O   0  0  0  0  0  0  0  0  0  0  0  0
   10.9028  -16.9181   26.7736 N   0  0  0  0  0  0  0  0  0  0  0  0
   10.6041  -18.1571   24.8686 C   0  0  2  0  0  0  0  0  0  0  0  0
   11.9322  -18.7607   25.0459 C   0  0  0  0  0  0  0  0  0  0  0  0
   12.9917  -17.6762   24.8537 C   0  0  0  0  0  0  0  0  0  0  0  0
   13.7723  -17.9596   23.6542 O   0  0  0  0  0  0  0  0  0  0  0  0
   14.4940  -18.9932   23.6182 C   0  0  0  0  0  0  0  0  0  0  0  0
   12.0574  -19.3219   26.4011 O   0  0  0  0  0  0  0  0  0  0  0  0
   11.1244  -20.2313   26.8953 O   0  0  0  0  0  0  0  0  0  0  0  0
   13.7789  -17.1524   22.5178 O   0  0  0  0  0  0  0  0  0  0  0  0
  1  2  1  0
  2  3  2  0
  4  5  1  0
  4  2  1  0
  6  7  1  0
  6  5  1  0
  7  8  1  0
  8  9  1  1
 10  8  1  0
 10 12  1  0
 11 10  2  0
 12 13  1  0
 13 14  1  0
 14 15  2  0
 14 16  1  0
 16 17  1  0
 17 21  1  0
 17 18  1  6
 18 19  1  0
 19 23  1  0
 20 19  2  0
 21 24  2  0
 21 22  1  0
M  END
$$$$
