RGD.pdb
     RDKit          3D

 24 23  0  0  1  0  0  0  0  0999 V2000
    9.6515  -12.7660   18.9291 N   0  0  0  0  0  0  0  0  0  0  0  0
    8.4282  -13.3586   18.5457 C   0  0  0  0  0  0  0  0  0  0  0  0
    7.9671  -13.2262   17.3345 N   0  0  0  0  0  0  0  0  0  0  0  0
    7.7148  -14.1099   19.5329 N   0  0  0  0  0  0  0  0  0  0  0  0
    8.3444  -14.4806   20.7522 C   0  0  0  0  0  0  0  0  0  0  0  0
    7.4525  -15.2085   21.7255 C   0  0  0  0  0  0  0  0  0  0  0  0
    8.0112  -16.5446   22.1616 C   0  0  0  0  0  0  0  0  0  0  0  0
    8.7035  -16.3149   23.4877 C   0  0  2  0  0  0  0  0  0  0  0  0
    8.9875  -14.9116   23.6119 N   0  0  0  0  0  0  0  0  0  0  0  0
    9.9113  -17.1565   23.5757 C   0  0  0  0  0  0  0  0  0  0  0  0
    9.8473  -18.4119   23.5414 O   0  0  0  0  0  0  0  0  0  0  0  0
    7.0361  -13.6393   17.1188 N   0  0  0  0  0  0  0  0  0  0  0  0
   11.1903  -16.4826   23.7064 C   0  0  0  0  0  0  0  0  0  0  0  0
   12.3430  -17.3419   23.6755 C   0  0  0  0  0  0  0  0  0  0  0  0
   12.6871  -17.8187   25.0128 O   0  0  0  0  0  0  0  0  0  0  0  0
   12.9171  -16.9047   25.8860 N   0  0  0  0  0  0  0  0  0  0  0  0
   12.7941  -19.1504   25.4445 C   0  0  1  0  0  0  0  0  0  0  0  0
   13.2464  -19.4271   26.8151 C   0  0  0  0  0  0  0  0  0  0  0  0
   12.4629  -20.6222   27.3566 C   0  0  0  0  0  0  0  0  0  0  0  0
   11.3567  -20.1505   28.1826 O   0  0  0  0  0  0  0  0  0  0  0  0
   11.2678  -18.9214   28.4507 C   0  0  0  0  0  0  0  0  0  0  0  0
   14.6826  -19.7504   26.8197 O   0  0  0  0  0  0  0  0  0  0  0  0
   15.3755  -19.9782   25.6323 O   0  0  0  0  0  0  0  0  0  0  0  0
   10.3669  -20.9786   28.7095 O   0  0  0  0  0  0  0  0  0  0  0  0
  1  2  1  0
  2  3  2  0
  4  5  1  0
  4  2  1  0
  6  7  1  0
  6  5  1  0
  7  8  1  0
  8  9  1  6
 10  8  1  0
 10 12  1  0
 11 10  2  0
 12 13  1  0
 13 14  1  0
 14 15  2  0
 14 16  1  0
 16 17  1  0
 17 21  1  0
 17 18  1  1
 18 19  1  0
 19 23  1  0
 20 19  2  0
 21 24  2  0
 21 22  1  0
M  END
$$$$
