RGD.pdb
     RDKit          3D

 24 23  0  0  1  0  0  0  0  0999 V2000
    8.0870  -14.7389   21.5660 N   0  0  0  0  0  0  0  0  0  0  0  0
    7.8956  -13.5462   20.8342 C   0  0  0  0  0  0  0  0  0  0  0  0
    7.4090  -12.4794   21.4020 N   0  0  0  0  0  0  0  0  0  0  0  0
    8.2561  -13.5504   19.4493 N   0  0  0  0  0  0  0  0  0  0  0  0
    7.4672  -14.2556   18.5002 C   0  0  0  0  0  0  0  0  0  0  0  0
    7.9842  -14.1988   17.0853 C   0  0  0  0  0  0  0  0  0  0  0  0
    8.8089  -15.4076   16.7028 C   0  0  0  0  0  0  0  0  0  0  0  0
    7.8882  -16.6060   16.7842 C   0  0  2  0  0  0  0  0  0  0  0  0
    6.6451  -16.1818   17.3674 N   0  0  0  0  0  0  0  0  0  0  0  0
    8.5402  -17.6891   17.5436 C   0  0  0  0  0  0  0  0  0  0  0  0
    9.5907  -18.2455   17.1336 O   0  0  0  0  0  0  0  0  0  0  0  0
    7.1785  -11.6655   20.7951 N   0  0  0  0  0  0  0  0  0  0  0  0
    7.9232  -18.0985   18.7921 C   0  0  0  0  0  0  0  0  0  0  0  0
    8.6243  -19.1243   19.5161 C   0  0  0  0  0  0  0  0  0  0  0  0
    9.6730  -18.5572   20.3605 O   0  0  0  0  0  0  0  0  0  0  0  0
   10.7979  -18.3408   19.7787 N   0  0  0  0  0  0  0  0  0  0  0  0
    9.5889  -18.2270   21.7226 C   0  0  1  0  0  0  0  0  0  0  0  0
   10.7677  -17.6703   22.4009 C   0  0  0  0  0  0  0  0  0  0  0  0
   10.2970  -16.6789   23.4642 C   0  0  0  0  0  0  0  0  0  0  0  0
   11.4518  -16.0311   24.0769 O   0  0  0  0  0  0  0  0  0  0  0  0
   12.6121  -16.3796   23.7266 C   0  0  0  0  0  0  0  0  0  0  0  0
   11.5341  -18.7462   23.0507 O   0  0  0  0  0  0  0  0  0  0  0  0
   11.0944  -20.0681   23.0172 O   0  0  0  0  0  0  0  0  0  0  0  0
   11.3645  -15.0310   25.0440 O   0  0  0  0  0  0  0  0  0  0  0  0
  1  2  1  0
  2  3  2  0
  4  5  1  0
  4  2  1  0
  6  7  1  0
  6  5  1  0
  7  8  1  0
  8  9  1  1
 10  8  1  0
 10 12  1  0
 11 10  2  0
 12 13  1  0
 13 14  1  0
 14 15  2  0
 14 16  1  0
 16 17  1  0
 17 21  1  0
 17 18  1  1
 18 19  1  0
 19 23  1  0
 20 19  2  0
 21 24  2  0
 21 22  1  0
M  END
$$$$
