RGD.pdb
     RDKit          3D

 24 23  0  0  1  0  0  0  0  0999 V2000
    7.6990  -14.2773   16.2707 N   0  0  0  0  0  0  0  0  0  0  0  0
    7.8292  -13.3247   17.3053 C   0  0  0  0  0  0  0  0  0  0  0  0
    8.9075  -12.6031   17.4234 N   0  0  0  0  0  0  0  0  0  0  0  0
    6.7358  -13.1792   18.2169 N   0  0  0  0  0  0  0  0  0  0  0  0
    6.8713  -13.5743   19.5756 C   0  0  0  0  0  0  0  0  0  0  0  0
    7.1368  -15.0441   19.7803 C   0  0  0  0  0  0  0  0  0  0  0  0
    7.1538  -15.4496   21.2373 C   0  0  0  0  0  0  0  0  0  0  0  0
    8.2981  -14.6996   21.8845 C   0  0  2  0  0  0  0  0  0  0  0  0
    9.4089  -14.6961   20.9727 N   0  0  0  0  0  0  0  0  0  0  0  0
    8.6246  -15.3091   23.1871 C   0  0  0  0  0  0  0  0  0  0  0  0
    7.7783  -15.3828   24.1142 O   0  0  0  0  0  0  0  0  0  0  0  0
    8.9437  -11.9019   18.1921 N   0  0  0  0  0  0  0  0  0  0  0  0
    9.9692  -15.8253   23.3678 C   0  0  0  0  0  0  0  0  0  0  0  0
   10.2443  -16.3806   24.6655 C   0  0  0  0  0  0  0  0  0  0  0  0
   11.6007  -16.9184   24.7373 O   0  0  0  0  0  0  0  0  0  0  0  0
   11.9538  -17.3836   25.8817 N   0  0  0  0  0  0  0  0  0  0  0  0
   12.5511  -16.9815   23.7057 C   0  0  1  0  0  0  0  0  0  0  0  0
   13.8526  -17.6124   23.9658 C   0  0  0  0  0  0  0  0  0  0  0  0
   14.3383  -18.2794   22.6795 C   0  0  0  0  0  0  0  0  0  0  0  0
   15.6616  -18.8550   22.8943 O   0  0  0  0  0  0  0  0  0  0  0  0
   16.1766  -18.8046   24.0444 C   0  0  0  0  0  0  0  0  0  0  0  0
   14.8341  -16.5974   24.3824 O   0  0  0  0  0  0  0  0  0  0  0  0
   15.9351  -16.9362   25.1665 O   0  0  0  0  0  0  0  0  0  0  0  0
   16.4164  -19.4715   21.8977 O   0  0  0  0  0  0  0  0  0  0  0  0
  1  2  1  0
  2  3  2  0
  4  5  1  0
  4  2  1  0
  6  7  1  0
  6  5  1  0
  7  8  1  0
  8  9  1  6
 10  8  1  0
 10 12  1  0
 11 10  2  0
 12 13  1  0
 13 14  1  0
 14 15  2  0
 14 16  1  0
 16 17  1  0
 17 21  1  0
 17 18  1  1
 18 19  1  0
 19 23  1  0
 20 19  2  0
 21 24  2  0
 21 22  1  0
M  END
$$$$
