RGD.pdb
     RDKit          3D

 24 23  0  0  1  0  0  0  0  0999 V2000
    9.4796  -12.6005   20.5022 N   0  0  0  0  0  0  0  0  0  0  0  0
    8.4858  -11.6602   20.1516 C   0  0  0  0  0  0  0  0  0  0  0  0
    8.4336  -10.4913   20.7246 N   0  0  0  0  0  0  0  0  0  0  0  0
    7.5404  -12.0356   19.1450 N   0  0  0  0  0  0  0  0  0  0  0  0
    7.5236  -13.3597   18.6283 C   0  0  0  0  0  0  0  0  0  0  0  0
    7.3849  -14.4404   19.6702 C   0  0  0  0  0  0  0  0  0  0  0  0
    7.2319  -15.8236   19.0778 C   0  0  0  0  0  0  0  0  0  0  0  0
    8.3792  -16.6545   19.6107 C   0  0  2  0  0  0  0  0  0  0  0  0
    8.6659  -16.2219   20.9508 N   0  0  0  0  0  0  0  0  0  0  0  0
    9.5408  -16.5431   18.7090 C   0  0  0  0  0  0  0  0  0  0  0  0
    9.4211  -16.6361   17.4607 O   0  0  0  0  0  0  0  0  0  0  0  0
    7.6796   -9.8366   20.4300 N   0  0  0  0  0  0  0  0  0  0  0  0
   10.8413  -16.3221   19.3147 C   0  0  0  0  0  0  0  0  0  0  0  0
   11.7865  -15.6108   18.4971 C   0  0  0  0  0  0  0  0  0  0  0  0
   13.0670  -15.4500   19.1817 O   0  0  0  0  0  0  0  0  0  0  0  0
   13.5424  -14.2565   19.1971 N   0  0  0  0  0  0  0  0  0  0  0  0
   13.8278  -16.4446   19.8168 C   0  0  1  0  0  0  0  0  0  0  0  0
   14.8977  -16.0486   20.7431 C   0  0  0  0  0  0  0  0  0  0  0  0
   14.4440  -16.3490   22.1711 C   0  0  0  0  0  0  0  0  0  0  0  0
   15.4927  -15.9661   23.1103 O   0  0  0  0  0  0  0  0  0  0  0  0
   16.5061  -15.3479   22.6844 C   0  0  0  0  0  0  0  0  0  0  0  0
   16.1242  -16.8108   20.4569 O   0  0  0  0  0  0  0  0  0  0  0  0
   17.3773  -16.2020   20.4898 O   0  0  0  0  0  0  0  0  0  0  0  0
   15.4557  -16.2399   24.4765 O   0  0  0  0  0  0  0  0  0  0  0  0
  1  2  1  0
  2  3  2  0
  4  5  1  0
  4  2  1  0
  6  7  1  0
  6  5  1  0
  7  8  1  0
  8  9  1  1
 10  8  1  0
 10 12  1  0
 11 10  2  0
 12 13  1  0
 13 14  1  0
 14 15  2  0
 14 16  1  0
 16 17  1  0
 17 21  1  0
 17 18  1  6
 18 19  1  0
 19 23  1  0
 20 19  2  0
 21 24  2  0
 21 22  1  0
M  END
$$$$
