RGD.pdb
     RDKit          3D

 24 23  0  0  1  0  0  0  0  0999 V2000
    9.3247  -14.0208   17.8042 N   0  0  0  0  0  0  0  0  0  0  0  0
    8.1753  -13.6600   17.0672 C   0  0  0  0  0  0  0  0  0  0  0  0
    8.1248  -13.8253   15.7759 N   0  0  0  0  0  0  0  0  0  0  0  0
    7.0688  -13.1087   17.7881 N   0  0  0  0  0  0  0  0  0  0  0  0
    7.0897  -13.0499   19.2082 C   0  0  0  0  0  0  0  0  0  0  0  0
    7.2486  -14.3843   19.8913 C   0  0  0  0  0  0  0  0  0  0  0  0
    8.5115  -14.4846   20.7174 C   0  0  0  0  0  0  0  0  0  0  0  0
    8.5258  -15.8711   21.3240 C   0  0  2  0  0  0  0  0  0  0  0  0
    7.2827  -16.0743   22.0157 N   0  0  0  0  0  0  0  0  0  0  0  0
    9.7030  -16.0240   22.1990 C   0  0  0  0  0  0  0  0  0  0  0  0
   10.8722  -15.8417   21.7735 O   0  0  0  0  0  0  0  0  0  0  0  0
    7.2939  -13.4562   15.2687 N   0  0  0  0  0  0  0  0  0  0  0  0
    9.4670  -16.3974   23.5817 C   0  0  0  0  0  0  0  0  0  0  0  0
   10.6376  -16.4335   24.4163 C   0  0  0  0  0  0  0  0  0  0  0  0
   10.8234  -17.7529   25.0152 O   0  0  0  0  0  0  0  0  0  0  0  0
    9.7457  -18.4063   25.2645 N   0  0  0  0  0  0  0  0  0  0  0  0
   12.0360  -18.3787   25.3459 C   0  0  1  0  0  0  0  0  0  0  0  0
   12.0102  -19.6880   26.0127 C   0  0  0  0  0  0  0  0  0  0  0  0
   13.4278  -20.2586   26.0245 C   0  0  0  0  0  0  0  0  0  0  0  0
   13.8959  -20.4390   24.6545 O   0  0  0  0  0  0  0  0  0  0  0  0
   13.1632  -20.0655   23.6984 C   0  0  0  0  0  0  0  0  0  0  0  0
   11.5381  -19.5417   27.3994 O   0  0  0  0  0  0  0  0  0  0  0  0
   11.2187  -20.6545   28.1749 O   0  0  0  0  0  0  0  0  0  0  0  0
   15.1231  -21.0071   24.3169 O   0  0  0  0  0  0  0  0  0  0  0  0
  1  2  1  0
  2  3  2  0
  4  5  1  0
  4  2  1  0
  6  7  1  0
  6  5  1  0
  7  8  1  0
  8  9  1  1
 10  8  1  0
 10 12  1  0
 11 10  2  0
 12 13  1  0
 13 14  1  0
 14 15  2  0
 14 16  1  0
 16 17  1  0
 17 21  1  0
 17 18  1  1
 18 19  1  0
 19 23  1  0
 20 19  2  0
 21 24  2  0
 21 22  1  0
M  END
$$$$
