RGD.pdb
     RDKit          3D

 24 23  0  0  1  0  0  0  0  0999 V2000
    8.9767  -12.4328   13.4969 N   0  0  0  0  0  0  0  0  0  0  0  0
    8.2518  -13.6045   13.8076 C   0  0  0  0  0  0  0  0  0  0  0  0
    8.6608  -14.7746   13.4068 N   0  0  0  0  0  0  0  0  0  0  0  0
    7.0547  -13.4612   14.5785 N   0  0  0  0  0  0  0  0  0  0  0  0
    7.0933  -13.5564   15.9962 C   0  0  0  0  0  0  0  0  0  0  0  0
    7.4836  -14.9128   16.5257 C   0  0  0  0  0  0  0  0  0  0  0  0
    7.5102  -14.9780   18.0365 C   0  0  0  0  0  0  0  0  0  0  0  0
    8.9287  -14.6643   18.4608 C   0  0  2  0  0  0  0  0  0  0  0  0
    9.7616  -15.7831   18.1147 N   0  0  0  0  0  0  0  0  0  0  0  0
    8.9630  -14.3446   19.9000 C   0  0  0  0  0  0  0  0  0  0  0  0
    8.3262  -13.3709   20.3772 O   0  0  0  0  0  0  0  0  0  0  0  0
    8.0783  -15.6036   13.6463 N   0  0  0  0  0  0  0  0  0  0  0  0
    9.7653  -15.1977   20.7576 C   0  0  0  0  0  0  0  0  0  0  0  0
    9.7663  -14.8410   22.1507 C   0  0  0  0  0  0  0  0  0  0  0  0
   10.6387  -15.7209   22.9246 O   0  0  0  0  0  0  0  0  0  0  0  0
   10.6733  -15.4965   24.1891 N   0  0  0  0  0  0  0  0  0  0  0  0
   11.4356  -16.7725   22.4445 C   0  0  1  0  0  0  0  0  0  0  0  0
   12.2889  -17.5137   23.3837 C   0  0  0  0  0  0  0  0  0  0  0  0
   12.2232  -19.0002   23.0352 C   0  0  0  0  0  0  0  0  0  0  0  0
   10.8601  -19.4874   23.2175 O   0  0  0  0  0  0  0  0  0  0  0  0
    9.9718  -18.6935   23.6313 C   0  0  0  0  0  0  0  0  0  0  0  0
   13.6831  -17.0541   23.2733 O   0  0  0  0  0  0  0  0  0  0  0  0
   14.0578  -16.1053   22.3239 O   0  0  0  0  0  0  0  0  0  0  0  0
   10.4580  -20.7972   22.9614 O   0  0  0  0  0  0  0  0  0  0  0  0
  1  2  1  0
  2  3  2  0
  4  5  1  0
  4  2  1  0
  6  7  1  0
  6  5  1  0
  7  8  1  0
  8  9  1  1
 10  8  1  0
 10 12  1  0
 11 10  2  0
 12 13  1  0
 13 14  1  0
 14 15  2  0
 14 16  1  0
 16 17  1  0
 17 21  1  0
 17 18  1  1
 18 19  1  0
 19 23  1  0
 20 19  2  0
 21 24  2  0
 21 22  1  0
M  END
$$$$
