RGD.pdb
     RDKit          3D

 24 23  0  0  1  0  0  0  0  0999 V2000
    7.9428  -13.9845   19.9670 N   0  0  0  0  0  0  0  0  0  0  0  0
    7.3651  -13.0964   19.0331 C   0  0  0  0  0  0  0  0  0  0  0  0
    7.0499  -11.8779   19.3695 N   0  0  0  0  0  0  0  0  0  0  0  0
    7.1401  -13.5810   17.7055 N   0  0  0  0  0  0  0  0  0  0  0  0
    7.7101  -14.8117   17.2801 C   0  0  0  0  0  0  0  0  0  0  0  0
    9.0408  -14.6819   16.5838 C   0  0  0  0  0  0  0  0  0  0  0  0
   10.1161  -15.5596   17.1845 C   0  0  0  0  0  0  0  0  0  0  0  0
   11.0018  -14.6561   18.0151 C   0  0  2  0  0  0  0  0  0  0  0  0
   11.6416  -13.7175   17.1348 N   0  0  0  0  0  0  0  0  0  0  0  0
   11.9613  -15.4665   18.7880 C   0  0  0  0  0  0  0  0  0  0  0  0
   11.5829  -16.2705   19.6777 O   0  0  0  0  0  0  0  0  0  0  0  0
    6.6506  -11.2567   18.6356 N   0  0  0  0  0  0  0  0  0  0  0  0
   13.3720  -15.3035   18.4873 C   0  0  0  0  0  0  0  0  0  0  0  0
   14.2652  -16.1054   19.2794 C   0  0  0  0  0  0  0  0  0  0  0  0
   14.9881  -15.2918   20.2538 O   0  0  0  0  0  0  0  0  0  0  0  0
   14.9396  -14.0223   20.0622 N   0  0  0  0  0  0  0  0  0  0  0  0
   15.7226  -15.7387   21.3638 C   0  0  1  0  0  0  0  0  0  0  0  0
   16.4375  -14.7590   22.1937 C   0  0  0  0  0  0  0  0  0  0  0  0
   16.0001  -14.9376   23.6470 C   0  0  0  0  0  0  0  0  0  0  0  0
   16.2172  -16.3203   24.0587 O   0  0  0  0  0  0  0  0  0  0  0  0
   16.1740  -17.2356   23.1921 C   0  0  0  0  0  0  0  0  0  0  0  0
   17.8902  -14.9767   22.0975 O   0  0  0  0  0  0  0  0  0  0  0  0
   18.7928  -14.1089   22.7094 O   0  0  0  0  0  0  0  0  0  0  0  0
   16.4753  -16.7133   25.3709 O   0  0  0  0  0  0  0  0  0  0  0  0
  1  2  1  0
  2  3  2  0
  4  5  1  0
  4  2  1  0
  6  7  1  0
  6  5  1  0
  7  8  1  0
  8  9  1  6
 10  8  1  0
 10 12  1  0
 11 10  2  0
 12 13  1  0
 13 14  1  0
 14 15  2  0
 14 16  1  0
 16 17  1  0
 17 21  1  0
 17 18  1  1
 18 19  1  0
 19 23  1  0
 20 19  2  0
 21 24  2  0
 21 22  1  0
M  END
$$$$
