RGD.pdb
     RDKit          3D

 24 23  0  0  1  0  0  0  0  0999 V2000
    8.8201  -15.2722   17.2156 N   0  0  0  0  0  0  0  0  0  0  0  0
    8.0164  -14.1120   17.2682 C   0  0  0  0  0  0  0  0  0  0  0  0
    7.9697  -13.2800   16.2668 N   0  0  0  0  0  0  0  0  0  0  0  0
    7.2549  -13.8837   18.4582 N   0  0  0  0  0  0  0  0  0  0  0  0
    7.8972  -13.4779   19.6595 C   0  0  0  0  0  0  0  0  0  0  0  0
    6.9614  -13.1678   20.8000 C   0  0  0  0  0  0  0  0  0  0  0  0
    6.9276  -14.2512   21.8548 C   0  0  0  0  0  0  0  0  0  0  0  0
    8.3079  -14.8712   21.8863 C   0  0  2  0  0  0  0  0  0  0  0  0
    8.4321  -15.7544   20.7595 N   0  0  0  0  0  0  0  0  0  0  0  0
    8.5232  -15.5512   23.1771 C   0  0  0  0  0  0  0  0  0  0  0  0
    8.5112  -14.9230   24.2663 O   0  0  0  0  0  0  0  0  0  0  0  0
    7.4279  -12.3994   16.3887 N   0  0  0  0  0  0  0  0  0  0  0  0
    8.7539  -16.9841   23.1501 C   0  0  0  0  0  0  0  0  0  0  0  0
    9.0772  -17.5779   24.4193 C   0  0  0  0  0  0  0  0  0  0  0  0
   10.4614  -18.0438   24.4515 O   0  0  0  0  0  0  0  0  0  0  0  0
   10.6291  -19.3007   24.2452 N   0  0  0  0  0  0  0  0  0  0  0  0
   11.6160  -17.2785   24.6813 C   0  0  1  0  0  0  0  0  0  0  0  0
   12.9312  -17.9328   24.6402 C   0  0  0  0  0  0  0  0  0  0  0  0
   13.9653  -16.9209   24.1481 C   0  0  0  0  0  0  0  0  0  0  0  0
   13.7838  -16.6889   22.7192 O   0  0  0  0  0  0  0  0  0  0  0  0
   13.0274  -17.4542   22.0615 C   0  0  0  0  0  0  0  0  0  0  0  0
   13.3106  -18.3938   25.9858 O   0  0  0  0  0  0  0  0  0  0  0  0
   14.4825  -19.1174   26.1977 O   0  0  0  0  0  0  0  0  0  0  0  0
   14.3997  -15.6584   22.0109 O   0  0  0  0  0  0  0  0  0  0  0  0
  1  2  1  0
  2  3  2  0
  4  5  1  0
  4  2  1  0
  6  7  1  0
  6  5  1  0
  7  8  1  0
  8  9  1  6
 10  8  1  0
 10 12  1  0
 11 10  2  0
 12 13  1  0
 13 14  1  0
 14 15  2  0
 14 16  1  0
 16 17  1  0
 17 21  1  0
 17 18  1  1
 18 19  1  0
 19 23  1  0
 20 19  2  0
 21 24  2  0
 21 22  1  0
M  END
$$$$
