VSQ.pdb
     RDKit          3D

 23 22  0  0  1  0  0  0  0  0999 V2000
    8.2929  -11.9330   20.0519 C   0  0  0  0  0  0  0  0  0  0  0  0
    8.7230  -12.8735   18.9561 C   0  0  2  0  0  0  0  0  0  0  0  0
    7.5416  -13.6550   18.4448 C   0  0  0  0  0  0  0  0  0  0  0  0
    9.8569  -13.7736   19.3841 C   0  0  2  0  0  0  0  0  0  0  0  0
   10.2640  -14.5080   18.1756 N   0  0  0  0  0  0  0  0  0  0  0  0
    9.4196  -14.7954   20.3664 C   0  0  0  0  0  0  0  0  0  0  0  0
    8.3675  -15.4345   20.1187 O   0  0  0  0  0  0  0  0  0  0  0  0
    9.3690  -18.3088   21.0259 O   0  0  0  0  0  0  0  0  0  0  0  0
   10.4327  -17.4622   21.2567 C   0  0  0  0  0  0  0  0  0  0  0  0
   10.0304  -16.3891   22.2187 C   0  0  2  0  0  0  0  0  0  0  0  0
   10.1054  -15.1056   21.5708 N   0  0  0  0  0  0  0  0  0  0  0  0
   10.8168  -16.4291   23.4792 C   0  0  0  0  0  0  0  0  0  0  0  0
   12.0476  -16.1651   23.4452 O   0  0  0  0  0  0  0  0  0  0  0  0
   10.3610  -14.1977   30.4249 N   0  0  0  0  0  0  0  0  0  0  0  0
   10.0852  -14.3357   29.0362 C   0  0  0  0  0  0  0  0  0  0  0  0
    9.1856  -13.6174   28.5691 O   0  0  0  0  0  0  0  0  0  0  0  0
   10.8185  -15.2779   28.1823 C   0  0  0  0  0  0  0  0  0  0  0  0
   10.1618  -15.5944   26.8725 C   0  0  0  0  0  0  0  0  0  0  0  0
   10.9124  -16.5498   26.0130 C   0  0  2  0  0  0  0  0  0  0  0  0
   10.2389  -16.7543   24.7310 N   0  0  0  0  0  0  0  0  0  0  0  0
   11.2253  -17.8417   26.6587 C   0  0  0  0  0  0  0  0  0  0  0  0
   10.4386  -18.8144   26.4134 O   0  0  0  0  0  0  0  0  0  0  0  0
   12.2693  -18.0981   27.4872 O   0  0  0  0  0  0  0  0  0  0  0  0
  2  1  1  1
  2  3  1  0
  4  5  1  6
  4  2  1  0
  4  6  1  0
  6 11  1  0
  7  6  2  0
  9  8  1  0
 10  9  1  6
 11 10  1  0
 12 20  1  0
 12 10  1  0
 13 12  2  0
 14 15  1  0
 15 16  2  0
 15 17  1  0
 17 18  1  0
 19 18  1  1
 19 20  1  0
 19 21  1  0
 21 23  1  0
 22 21  2  0
M  END
$$$$
