VSQ.pdb
     RDKit          3D

 23 22  0  0  1  0  0  0  0  0999 V2000
    8.9013  -22.3368   17.7047 C   0  0  0  0  0  0  0  0  0  0  0  0
    9.2629  -21.6416   18.9915 C   0  0  2  0  0  0  0  0  0  0  0  0
    9.6360  -22.6518   20.0442 C   0  0  0  0  0  0  0  0  0  0  0  0
    8.1769  -20.7049   19.4631 C   0  0  2  0  0  0  0  0  0  0  0  0
    7.9812  -19.7364   18.3726 N   0  0  0  0  0  0  0  0  0  0  0  0
    8.5929  -19.9189   20.6503 C   0  0  0  0  0  0  0  0  0  0  0  0
    9.6830  -19.2984   20.5902 O   0  0  0  0  0  0  0  0  0  0  0  0
    6.2653  -19.4083   24.1246 O   0  0  0  0  0  0  0  0  0  0  0  0
    7.2212  -18.4868   23.7522 C   0  0  0  0  0  0  0  0  0  0  0  0
    8.3447  -19.1759   23.0441 C   0  0  2  0  0  0  0  0  0  0  0  0
    7.8468  -19.8158   21.8543 N   0  0  0  0  0  0  0  0  0  0  0  0
    9.0797  -20.1209   23.9248 C   0  0  0  0  0  0  0  0  0  0  0  0
    9.1343  -21.3391   23.6105 O   0  0  0  0  0  0  0  0  0  0  0  0
   13.5425  -22.5999   23.5789 N   0  0  0  0  0  0  0  0  0  0  0  0
   13.6393  -21.2070   23.8517 C   0  0  0  0  0  0  0  0  0  0  0  0
   14.6038  -20.6037   23.3523 O   0  0  0  0  0  0  0  0  0  0  0  0
   12.6559  -20.5018   24.6823 C   0  0  0  0  0  0  0  0  0  0  0  0
   11.5301  -21.3487   25.1944 C   0  0  0  0  0  0  0  0  0  0  0  0
   10.4980  -20.6108   25.9723 C   0  0  2  0  0  0  0  0  0  0  0  0
    9.7289  -19.7097   25.1148 N   0  0  0  0  0  0  0  0  0  0  0  0
   11.0158  -19.8988   27.1591 C   0  0  0  0  0  0  0  0  0  0  0  0
   11.5955  -20.6054   28.0480 O   0  0  0  0  0  0  0  0  0  0  0  0
   10.9379  -18.5651   27.3982 O   0  0  0  0  0  0  0  0  0  0  0  0
  2  1  1  6
  2  3  1  0
  4  5  1  6
  4  2  1  0
  4  6  1  0
  6 11  1  0
  7  6  2  0
  9  8  1  0
 10  9  1  1
 11 10  1  0
 12 20  1  0
 12 10  1  0
 13 12  2  0
 14 15  1  0
 15 16  2  0
 15 17  1  0
 17 18  1  0
 19 18  1  6
 19 20  1  0
 19 21  1  0
 21 23  1  0
 22 21  2  0
M  END
$$$$
