VSQ.pdb
     RDKit          3D

 23 22  0  0  1  0  0  0  0  0999 V2000
   13.0558  -20.2428   17.5757 C   0  0  0  0  0  0  0  0  0  0  0  0
   11.9974  -20.0439   18.6294 C   0  0  2  0  0  0  0  0  0  0  0  0
   11.2146  -21.3147   18.8301 C   0  0  0  0  0  0  0  0  0  0  0  0
   11.1014  -18.8667   18.3285 C   0  0  2  0  0  0  0  0  0  0  0  0
   11.5074  -18.3832   16.9991 N   0  0  0  0  0  0  0  0  0  0  0  0
   11.3230  -17.7406   19.2682 C   0  0  0  0  0  0  0  0  0  0  0  0
   12.3441  -17.0292   19.1005 O   0  0  0  0  0  0  0  0  0  0  0  0
    8.6908  -16.6220   22.4042 O   0  0  0  0  0  0  0  0  0  0  0  0
    9.5102  -15.7176   21.7620 C   0  0  0  0  0  0  0  0  0  0  0  0
   10.7708  -16.3939   21.3237 C   0  0  2  0  0  0  0  0  0  0  0  0
   10.4626  -17.4061   20.3474 N   0  0  0  0  0  0  0  0  0  0  0  0
   11.5548  -16.9340   22.4650 C   0  0  0  0  0  0  0  0  0  0  0  0
   11.4281  -18.1468   22.7793 O   0  0  0  0  0  0  0  0  0  0  0  0
   17.3842  -15.5303   24.1231 N   0  0  0  0  0  0  0  0  0  0  0  0
   16.6865  -15.9885   22.9711 C   0  0  0  0  0  0  0  0  0  0  0  0
   17.3383  -16.0701   21.9165 O   0  0  0  0  0  0  0  0  0  0  0  0
   15.2646  -16.3505   23.0095 C   0  0  0  0  0  0  0  0  0  0  0  0
   14.6076  -16.2111   24.3497 C   0  0  0  0  0  0  0  0  0  0  0  0
   13.1799  -16.6290   24.3911 C   0  0  2  0  0  0  0  0  0  0  0  0
   12.4478  -16.1384   23.2239 N   0  0  0  0  0  0  0  0  0  0  0  0
   12.4745  -16.2826   25.6426 C   0  0  0  0  0  0  0  0  0  0  0  0
   12.9764  -16.7237   26.7283 O   0  0  0  0  0  0  0  0  0  0  0  0
   11.3444  -15.5391   25.7531 O   0  0  0  0  0  0  0  0  0  0  0  0
  2  1  1  6
  2  3  1  0
  4  5  1  6
  4  2  1  0
  4  6  1  0
  6 11  1  0
  7  6  2  0
  9  8  1  0
 10  9  1  1
 11 10  1  0
 12 20  1  0
 12 10  1  0
 13 12  2  0
 14 15  1  0
 15 16  2  0
 15 17  1  0
 17 18  1  0
 19 18  1  1
 19 20  1  0
 19 21  1  0
 21 23  1  0
 22 21  2  0
M  END
$$$$
