VSQ.pdb
     RDKit          3D

 23 22  0  0  1  0  0  0  0  0999 V2000
    9.0419  -11.8237   19.1167 C   0  0  0  0  0  0  0  0  0  0  0  0
    8.1847  -13.0587   19.0151 C   0  0  2  0  0  0  0  0  0  0  0  0
    7.1819  -13.0924   20.1381 C   0  0  0  0  0  0  0  0  0  0  0  0
    9.0058  -14.3238   18.9490 C   0  0  2  0  0  0  0  0  0  0  0  0
    8.0429  -15.4162   18.7364 N   0  0  0  0  0  0  0  0  0  0  0  0
    9.6901  -14.6141   20.2326 C   0  0  0  0  0  0  0  0  0  0  0  0
   10.8110  -14.0844   20.4324 O   0  0  0  0  0  0  0  0  0  0  0  0
    8.4334  -17.5018   22.9361 O   0  0  0  0  0  0  0  0  0  0  0  0
    8.8649  -16.3086   23.4762 C   0  0  0  0  0  0  0  0  0  0  0  0
    9.8099  -15.6342   22.5324 C   0  0  2  0  0  0  0  0  0  0  0  0
    9.1696  -15.4499   21.2561 N   0  0  0  0  0  0  0  0  0  0  0  0
   11.1057  -16.3521   22.4125 C   0  0  0  0  0  0  0  0  0  0  0  0
   11.2205  -17.2775   21.5662 O   0  0  0  0  0  0  0  0  0  0  0  0
   15.6087  -14.9776   19.2298 N   0  0  0  0  0  0  0  0  0  0  0  0
   15.2508  -14.7166   20.5816 C   0  0  0  0  0  0  0  0  0  0  0  0
   15.8981  -13.8364   21.1731 O   0  0  0  0  0  0  0  0  0  0  0  0
   14.1716  -15.4442   21.2602 C   0  0  0  0  0  0  0  0  0  0  0  0
   14.5675  -16.1293   22.5334 C   0  0  0  0  0  0  0  0  0  0  0  0
   13.4589  -16.8325   23.2343 C   0  0  2  0  0  0  0  0  0  0  0  0
   12.2301  -16.0398   23.2156 N   0  0  0  0  0  0  0  0  0  0  0  0
   13.7827  -17.2751   24.6065 C   0  0  0  0  0  0  0  0  0  0  0  0
   13.0598  -16.8099   25.5480 O   0  0  0  0  0  0  0  0  0  0  0  0
   14.7733  -18.1302   24.9664 O   0  0  0  0  0  0  0  0  0  0  0  0
  2  1  1  1
  2  3  1  0
  4  5  1  1
  4  2  1  0
  4  6  1  0
  6 11  1  0
  7  6  2  0
  9  8  1  0
 10  9  1  1
 11 10  1  0
 12 20  1  0
 12 10  1  0
 13 12  2  0
 14 15  1  0
 15 16  2  0
 15 17  1  0
 17 18  1  0
 19 18  1  1
 19 20  1  0
 19 21  1  0
 21 23  1  0
 22 21  2  0
M  END
$$$$
