VSQ.pdb
     RDKit          3D

 23 22  0  0  1  0  0  0  0  0999 V2000
    9.5926  -15.3334   16.1615 C   0  0  0  0  0  0  0  0  0  0  0  0
    8.0986  -15.4520   16.3163 C   0  0  2  0  0  0  0  0  0  0  0  0
    7.4469  -15.6357   14.9711 C   0  0  0  0  0  0  0  0  0  0  0  0
    7.5065  -14.2924   17.0804 C   0  0  2  0  0  0  0  0  0  0  0  0
    7.7827  -13.0953   16.2701 N   0  0  0  0  0  0  0  0  0  0  0  0
    8.1809  -14.0790   18.3841 C   0  0  0  0  0  0  0  0  0  0  0  0
    9.3415  -13.5996   18.3725 O   0  0  0  0  0  0  0  0  0  0  0  0
    6.9117  -15.8820   22.0033 O   0  0  0  0  0  0  0  0  0  0  0  0
    7.4392  -14.6083   22.0321 C   0  0  0  0  0  0  0  0  0  0  0  0
    8.3659  -14.4142   20.8736 C   0  0  2  0  0  0  0  0  0  0  0  0
    7.6091  -14.3777   19.6494 N   0  0  0  0  0  0  0  0  0  0  0  0
    9.4500  -15.4301   20.8340 C   0  0  0  0  0  0  0  0  0  0  0  0
    9.5372  -16.1985   19.8402 O   0  0  0  0  0  0  0  0  0  0  0  0
   15.6262  -15.6669   18.4919 N   0  0  0  0  0  0  0  0  0  0  0  0
   14.4892  -15.1125   19.1427 C   0  0  0  0  0  0  0  0  0  0  0  0
   14.0597  -14.0343   18.6994 O   0  0  0  0  0  0  0  0  0  0  0  0
   13.8433  -15.7697   20.2853 C   0  0  0  0  0  0  0  0  0  0  0  0
   12.4052  -15.4054   20.5004 C   0  0  0  0  0  0  0  0  0  0  0  0
   11.7615  -16.0683   21.6670 C   0  0  2  0  0  0  0  0  0  0  0  0
   10.4002  -15.5754   21.8745 N   0  0  0  0  0  0  0  0  0  0  0  0
   12.5442  -16.0046   22.9188 C   0  0  0  0  0  0  0  0  0  0  0  0
   12.1128  -15.2237   23.8294 O   0  0  0  0  0  0  0  0  0  0  0  0
   13.6779  -16.6966   23.1981 O   0  0  0  0  0  0  0  0  0  0  0  0
  2  1  1  6
  2  3  1  0
  4  5  1  6
  4  2  1  0
  4  6  1  0
  6 11  1  0
  7  6  2  0
  9  8  1  0
 10  9  1  1
 11 10  1  0
 12 20  1  0
 12 10  1  0
 13 12  2  0
 14 15  1  0
 15 16  2  0
 15 17  1  0
 17 18  1  0
 19 18  1  6
 19 20  1  0
 19 21  1  0
 21 23  1  0
 22 21  2  0
M  END
$$$$
