VSQ.pdb
     RDKit          3D

 23 22  0  0  1  0  0  0  0  0999 V2000
    6.5334  -13.8117   19.9957 C   0  0  0  0  0  0  0  0  0  0  0  0
    7.9121  -13.2043   19.9792 C   0  0  2  0  0  0  0  0  0  0  0  0
    8.2270  -12.6601   18.6107 C   0  0  0  0  0  0  0  0  0  0  0  0
    8.9694  -14.1664   20.4647 C   0  0  2  0  0  0  0  0  0  0  0  0
    9.0629  -15.2129   19.4343 N   0  0  0  0  0  0  0  0  0  0  0  0
    8.5700  -14.8498   21.7191 C   0  0  0  0  0  0  0  0  0  0  0  0
    8.4388  -14.1488   22.7527 O   0  0  0  0  0  0  0  0  0  0  0  0
    8.6191  -19.0524   22.3683 O   0  0  0  0  0  0  0  0  0  0  0  0
    7.5638  -18.2932   22.8283 C   0  0  0  0  0  0  0  0  0  0  0  0
    8.0190  -16.8916   23.0872 C   0  0  2  0  0  0  0  0  0  0  0  0
    8.3240  -16.2435   21.8382 N   0  0  0  0  0  0  0  0  0  0  0  0
    9.1536  -16.8281   24.0451 C   0  0  0  0  0  0  0  0  0  0  0  0
   10.3184  -16.6354   23.6072 O   0  0  0  0  0  0  0  0  0  0  0  0
    8.5773  -12.5657   27.9910 N   0  0  0  0  0  0  0  0  0  0  0  0
    9.4392  -13.6772   28.2038 C   0  0  0  0  0  0  0  0  0  0  0  0
    9.8819  -13.8313   29.3544 O   0  0  0  0  0  0  0  0  0  0  0  0
    9.7993  -14.6063   27.1259 C   0  0  0  0  0  0  0  0  0  0  0  0
    9.8549  -16.0509   27.5221 C   0  0  0  0  0  0  0  0  0  0  0  0
   10.0906  -16.9975   26.3982 C   0  0  2  0  0  0  0  0  0  0  0  0
    8.9829  -16.9761   25.4435 N   0  0  0  0  0  0  0  0  0  0  0  0
   10.4038  -18.3802   26.8149 C   0  0  0  0  0  0  0  0  0  0  0  0
    9.5213  -19.2685   26.5756 O   0  0  0  0  0  0  0  0  0  0  0  0
   11.5398  -18.8012   27.4269 O   0  0  0  0  0  0  0  0  0  0  0  0
  2  1  1  6
  2  3  1  0
  4  5  1  6
  4  2  1  0
  4  6  1  0
  6 11  1  0
  7  6  2  0
  9  8  1  0
 10  9  1  6
 11 10  1  0
 12 20  1  0
 12 10  1  0
 13 12  2  0
 14 15  1  0
 15 16  2  0
 15 17  1  0
 17 18  1  0
 19 18  1  1
 19 20  1  0
 19 21  1  0
 21 23  1  0
 22 21  2  0
M  END
$$$$
