VSQ.pdb
     RDKit          3D

 23 22  0  0  1  0  0  0  0  0999 V2000
    7.8248  -12.6985   26.9074 C   0  0  0  0  0  0  0  0  0  0  0  0
    7.0422  -12.4229   25.6497 C   0  0  2  0  0  0  0  0  0  0  0  0
    6.0832  -11.2829   25.8703 C   0  0  0  0  0  0  0  0  0  0  0  0
    6.3472  -13.6557   25.1241 C   0  0  2  0  0  0  0  0  0  0  0  0
    5.4424  -14.0949   26.1984 N   0  0  0  0  0  0  0  0  0  0  0  0
    7.2930  -14.7744   24.8912 C   0  0  0  0  0  0  0  0  0  0  0  0
    7.6000  -15.4965   25.8715 O   0  0  0  0  0  0  0  0  0  0  0  0
    9.8039  -15.2402   21.5375 O   0  0  0  0  0  0  0  0  0  0  0  0
    9.0937  -16.3351   21.9829 C   0  0  0  0  0  0  0  0  0  0  0  0
    8.7909  -16.1874   23.4407 C   0  0  2  0  0  0  0  0  0  0  0  0
    7.8791  -15.0905   23.6368 N   0  0  0  0  0  0  0  0  0  0  0  0
   10.0186  -16.0523   24.2675 C   0  0  0  0  0  0  0  0  0  0  0  0
   10.4246  -14.9028   24.5828 O   0  0  0  0  0  0  0  0  0  0  0  0
   12.1935  -16.5985   29.6210 N   0  0  0  0  0  0  0  0  0  0  0  0
   10.9247  -17.0032   29.1210 C   0  0  0  0  0  0  0  0  0  0  0  0
   10.1118  -17.4479   29.9486 O   0  0  0  0  0  0  0  0  0  0  0  0
   10.5772  -16.9077   27.6981 C   0  0  0  0  0  0  0  0  0  0  0  0
   11.6317  -16.2981   26.8243 C   0  0  0  0  0  0  0  0  0  0  0  0
   11.9364  -17.0655   25.5862 C   0  0  2  0  0  0  0  0  0  0  0  0
   10.7611  -17.1697   24.7221 N   0  0  0  0  0  0  0  0  0  0  0  0
   12.5413  -18.3934   25.8197 C   0  0  0  0  0  0  0  0  0  0  0  0
   11.8600  -19.4088   25.4590 O   0  0  0  0  0  0  0  0  0  0  0  0
   13.7526  -18.6416   26.3793 O   0  0  0  0  0  0  0  0  0  0  0  0
  2  1  1  1
  2  3  1  0
  4  5  1  1
  4  2  1  0
  4  6  1  0
  6 11  1  0
  7  6  2  0
  9  8  1  0
 10  9  1  6
 11 10  1  0
 12 20  1  0
 12 10  1  0
 13 12  2  0
 14 15  1  0
 15 16  2  0
 15 17  1  0
 17 18  1  0
 19 18  1  1
 19 20  1  0
 19 21  1  0
 21 23  1  0
 22 21  2  0
M  END
$$$$
