VSQ.pdb
     RDKit          3D

 23 22  0  0  1  0  0  0  0  0999 V2000
    9.5835  -14.6065   17.6323 C   0  0  0  0  0  0  0  0  0  0  0  0
    8.1200  -14.6523   17.9875 C   0  0  2  0  0  0  0  0  0  0  0  0
    7.2769  -14.4489   16.7563 C   0  0  0  0  0  0  0  0  0  0  0  0
    7.7648  -13.6794   19.0858 C   0  0  2  0  0  0  0  0  0  0  0  0
    8.0641  -12.3421   18.5493 N   0  0  0  0  0  0  0  0  0  0  0  0
    8.6229  -13.8505   20.2836 C   0  0  0  0  0  0  0  0  0  0  0  0
    9.7606  -13.3192   20.2707 O   0  0  0  0  0  0  0  0  0  0  0  0
    7.9140  -16.7413   23.2589 O   0  0  0  0  0  0  0  0  0  0  0  0
    8.4264  -15.5210   23.6462 C   0  0  0  0  0  0  0  0  0  0  0  0
    9.1707  -14.8965   22.5084 C   0  0  2  0  0  0  0  0  0  0  0  0
    8.2517  -14.5735   21.4482 N   0  0  0  0  0  0  0  0  0  0  0  0
   10.3007  -15.7382   22.0356 C   0  0  0  0  0  0  0  0  0  0  0  0
   10.2802  -16.1925   20.8613 O   0  0  0  0  0  0  0  0  0  0  0  0
   14.1876  -14.8639   18.2254 N   0  0  0  0  0  0  0  0  0  0  0  0
   14.8427  -14.9145   19.4871 C   0  0  0  0  0  0  0  0  0  0  0  0
   15.7978  -14.1377   19.6545 O   0  0  0  0  0  0  0  0  0  0  0  0
   14.4236  -15.8354   20.5505 C   0  0  0  0  0  0  0  0  0  0  0  0
   13.1094  -15.5097   21.1940 C   0  0  0  0  0  0  0  0  0  0  0  0
   12.7351  -16.3943   22.3307 C   0  0  2  0  0  0  0  0  0  0  0  0
   11.4120  -16.0565   22.8543 N   0  0  0  0  0  0  0  0  0  0  0  0
   13.7349  -16.4548   23.4171 C   0  0  0  0  0  0  0  0  0  0  0  0
   14.7728  -17.1645   23.2067 O   0  0  0  0  0  0  0  0  0  0  0  0
   13.6603  -15.8281   24.6187 O   0  0  0  0  0  0  0  0  0  0  0  0
  2  1  1  6
  2  3  1  0
  4  5  1  6
  4  2  1  0
  4  6  1  0
  6 11  1  0
  7  6  2  0
  9  8  1  0
 10  9  1  1
 11 10  1  0
 12 20  1  0
 12 10  1  0
 13 12  2  0
 14 15  1  0
 15 16  2  0
 15 17  1  0
 17 18  1  0
 19 18  1  6
 19 20  1  0
 19 21  1  0
 21 23  1  0
 22 21  2  0
M  END
$$$$
