VSQ.pdb
     RDKit          3D

 23 22  0  0  1  0  0  0  0  0999 V2000
    8.9966  -20.3358   19.7511 C   0  0  0  0  0  0  0  0  0  0  0  0
    8.1926  -20.1337   18.4930 C   0  0  2  0  0  0  0  0  0  0  0  0
    8.6196  -21.1179   17.4362 C   0  0  0  0  0  0  0  0  0  0  0  0
    8.2495  -18.7086   17.9979 C   0  0  2  0  0  0  0  0  0  0  0  0
    9.3616  -18.6626   17.0352 N   0  0  0  0  0  0  0  0  0  0  0  0
    8.5937  -17.7540   19.0797 C   0  0  0  0  0  0  0  0  0  0  0  0
    9.7996  -17.6599   19.4170 O   0  0  0  0  0  0  0  0  0  0  0  0
    5.8086  -15.7445   21.6341 O   0  0  0  0  0  0  0  0  0  0  0  0
    6.9062  -15.0950   21.1097 C   0  0  0  0  0  0  0  0  0  0  0  0
    8.0094  -16.0755   20.8645 C   0  0  2  0  0  0  0  0  0  0  0  0
    7.6569  -16.9354   19.7648 N   0  0  0  0  0  0  0  0  0  0  0  0
    8.3719  -16.8432   22.0844 C   0  0  0  0  0  0  0  0  0  0  0  0
    8.2567  -18.0972   22.0791 O   0  0  0  0  0  0  0  0  0  0  0  0
   14.2963  -17.5282   21.8460 N   0  0  0  0  0  0  0  0  0  0  0  0
   13.3374  -17.9226   22.8199 C   0  0  0  0  0  0  0  0  0  0  0  0
   13.1809  -19.1432   22.9904 O   0  0  0  0  0  0  0  0  0  0  0  0
   12.5608  -16.9467   23.5940 C   0  0  0  0  0  0  0  0  0  0  0  0
   11.2439  -16.5590   22.9921 C   0  0  0  0  0  0  0  0  0  0  0  0
   10.0924  -16.5951   23.9343 C   0  0  2  0  0  0  0  0  0  0  0  0
    8.8462  -16.2222   23.2659 N   0  0  0  0  0  0  0  0  0  0  0  0
   10.2857  -15.8096   25.1709 C   0  0  0  0  0  0  0  0  0  0  0  0
   10.1041  -14.5504   25.0884 O   0  0  0  0  0  0  0  0  0  0  0  0
   10.6363  -16.2948   26.3890 O   0  0  0  0  0  0  0  0  0  0  0  0
  2  1  1  1
  2  3  1  0
  4  5  1  6
  4  2  1  0
  4  6  1  0
  6 11  1  0
  7  6  2  0
  9  8  1  0
 10  9  1  1
 11 10  1  0
 12 20  1  0
 12 10  1  0
 13 12  2  0
 14 15  1  0
 15 16  2  0
 15 17  1  0
 17 18  1  0
 19 18  1  6
 19 20  1  0
 19 21  1  0
 21 23  1  0
 22 21  2  0
M  END
$$$$
