VSQ.pdb
     RDKit          3D

 23 22  0  0  1  0  0  0  0  0999 V2000
    4.9699  -24.6642   18.3709 C   0  0  0  0  0  0  0  0  0  0  0  0
    4.4130  -23.2643   18.3891 C   0  0  2  0  0  0  0  0  0  0  0  0
    4.3083  -22.7254   16.9867 C   0  0  0  0  0  0  0  0  0  0  0  0
    5.1988  -22.3454   19.2931 C   0  0  2  0  0  0  0  0  0  0  0  0
    4.4662  -21.0691   19.3024 N   0  0  0  0  0  0  0  0  0  0  0  0
    6.5480  -22.0487   18.7527 C   0  0  0  0  0  0  0  0  0  0  0  0
    7.3651  -22.9978   18.6620 O   0  0  0  0  0  0  0  0  0  0  0  0
    7.7924  -18.2114   17.6598 O   0  0  0  0  0  0  0  0  0  0  0  0
    8.3067  -19.2908   16.9728 C   0  0  0  0  0  0  0  0  0  0  0  0
    8.3190  -20.4983   17.8563 C   0  0  2  0  0  0  0  0  0  0  0  0
    6.9856  -20.7658   18.3288 N   0  0  0  0  0  0  0  0  0  0  0  0
    9.2967  -20.3805   18.9695 C   0  0  0  0  0  0  0  0  0  0  0  0
    8.8925  -20.0268   20.1085 O   0  0  0  0  0  0  0  0  0  0  0  0
   14.0773  -23.4377   23.2579 N   0  0  0  0  0  0  0  0  0  0  0  0
   13.3028  -23.2591   22.0780 C   0  0  0  0  0  0  0  0  0  0  0  0
   12.9282  -24.2887   21.4921 O   0  0  0  0  0  0  0  0  0  0  0  0
   12.9553  -21.9291   21.5635 C   0  0  0  0  0  0  0  0  0  0  0  0
   12.0222  -21.9237   20.3903 C   0  0  0  0  0  0  0  0  0  0  0  0
   11.6538  -20.5705   19.8923 C   0  0  2  0  0  0  0  0  0  0  0  0
   10.6776  -20.6508   18.8064 N   0  0  0  0  0  0  0  0  0  0  0  0
   12.8024  -19.7229   19.5103 C   0  0  0  0  0  0  0  0  0  0  0  0
   13.0139  -19.5667   18.2628 O   0  0  0  0  0  0  0  0  0  0  0  0
   13.6559  -19.0910   20.3554 O   0  0  0  0  0  0  0  0  0  0  0  0
  2  1  1  6
  2  3  1  0
  4  5  1  6
  4  2  1  0
  4  6  1  0
  6 11  1  0
  7  6  2  0
  9  8  1  0
 10  9  1  1
 11 10  1  0
 12 20  1  0
 12 10  1  0
 13 12  2  0
 14 15  1  0
 15 16  2  0
 15 17  1  0
 17 18  1  0
 19 18  1  6
 19 20  1  0
 19 21  1  0
 21 23  1  0
 22 21  2  0
M  END
$$$$
