VSQ.pdb
     RDKit          3D

 23 22  0  0  1  0  0  0  0  0999 V2000
    9.7258  -20.4711   14.8740 C   0  0  0  0  0  0  0  0  0  0  0  0
    8.3910  -20.6943   14.2117 C   0  0  2  0  0  0  0  0  0  0  0  0
    8.5706  -20.9013   12.7308 C   0  0  0  0  0  0  0  0  0  0  0  0
    7.4074  -19.5901   14.5154 C   0  0  2  0  0  0  0  0  0  0  0  0
    7.8471  -18.4317   13.7213 N   0  0  0  0  0  0  0  0  0  0  0  0
    7.4620  -19.1676   15.9362 C   0  0  0  0  0  0  0  0  0  0  0  0
    8.3431  -18.3365   16.2674 O   0  0  0  0  0  0  0  0  0  0  0  0
    4.7999  -20.5281   18.8703 O   0  0  0  0  0  0  0  0  0  0  0  0
    5.3945  -19.2915   19.0069 C   0  0  0  0  0  0  0  0  0  0  0  0
    6.7362  -19.2952   18.3447 C   0  0  2  0  0  0  0  0  0  0  0  0
    6.5883  -19.6352   16.9535 N   0  0  0  0  0  0  0  0  0  0  0  0
    7.7119  -20.1764   19.0379 C   0  0  0  0  0  0  0  0  0  0  0  0
    7.9266  -21.3320   18.5859 O   0  0  0  0  0  0  0  0  0  0  0  0
   13.1737  -20.7554   19.8654 N   0  0  0  0  0  0  0  0  0  0  0  0
   12.8737  -21.3080   21.1414 C   0  0  0  0  0  0  0  0  0  0  0  0
   13.7423  -22.0310   21.6575 O   0  0  0  0  0  0  0  0  0  0  0  0
   11.6029  -21.0474   21.8283 C   0  0  0  0  0  0  0  0  0  0  0  0
   10.6532  -20.1510   21.0925 C   0  0  0  0  0  0  0  0  0  0  0  0
    9.2617  -20.6682   20.9873 C   0  0  2  0  0  0  0  0  0  0  0  0
    8.4193  -19.7716   20.1965 N   0  0  0  0  0  0  0  0  0  0  0  0
    8.6255  -20.9876   22.2822 C   0  0  0  0  0  0  0  0  0  0  0  0
    8.9951  -22.0643   22.8562 O   0  0  0  0  0  0  0  0  0  0  0  0
    7.6864  -20.2476   22.9246 O   0  0  0  0  0  0  0  0  0  0  0  0
  2  1  1  6
  2  3  1  0
  4  5  1  6
  4  2  1  0
  4  6  1  0
  6 11  1  0
  7  6  2  0
  9  8  1  0
 10  9  1  1
 11 10  1  0
 12 20  1  0
 12 10  1  0
 13 12  2  0
 14 15  1  0
 15 16  2  0
 15 17  1  0
 17 18  1  0
 19 18  1  1
 19 20  1  0
 19 21  1  0
 21 23  1  0
 22 21  2  0
M  END
$$$$
