VSQ.pdb
     RDKit          3D

 23 22  0  0  1  0  0  0  0  0999 V2000
    7.2759  -13.0640   20.7528 C   0  0  0  0  0  0  0  0  0  0  0  0
    8.4220  -13.4599   19.8585 C   0  0  2  0  0  0  0  0  0  0  0  0
    8.2705  -12.8231   18.5022 C   0  0  0  0  0  0  0  0  0  0  0  0
    8.5884  -14.9575   19.7671 C   0  0  2  0  0  0  0  0  0  0  0  0
    7.4852  -15.4325   18.9167 N   0  0  0  0  0  0  0  0  0  0  0  0
    8.4168  -15.6206   21.0828 C   0  0  0  0  0  0  0  0  0  0  0  0
    7.2500  -15.9089   21.4465 O   0  0  0  0  0  0  0  0  0  0  0  0
   11.3706  -17.6675   23.0508 O   0  0  0  0  0  0  0  0  0  0  0  0
   10.0277  -17.8950   23.2663 C   0  0  0  0  0  0  0  0  0  0  0  0
    9.2802  -16.5992   23.2371 C   0  0  2  0  0  0  0  0  0  0  0  0
    9.4785  -15.9548   21.9649 N   0  0  0  0  0  0  0  0  0  0  0  0
    9.6311  -15.7125   24.3770 C   0  0  0  0  0  0  0  0  0  0  0  0
   10.5724  -14.8861   24.2466 O   0  0  0  0  0  0  0  0  0  0  0  0
    6.3777  -11.0512   25.7980 N   0  0  0  0  0  0  0  0  0  0  0  0
    6.7605  -12.1862   26.5655 C   0  0  0  0  0  0  0  0  0  0  0  0
    6.0613  -12.4543   27.5569 O   0  0  0  0  0  0  0  0  0  0  0  0
    7.9237  -13.0108   26.2171 C   0  0  0  0  0  0  0  0  0  0  0  0
    8.2945  -14.0504   27.2314 C   0  0  0  0  0  0  0  0  0  0  0  0
    9.3598  -14.9943   26.7966 C   0  0  2  0  0  0  0  0  0  0  0  0
    8.9479  -15.7546   25.6171 N   0  0  0  0  0  0  0  0  0  0  0  0
    9.8554  -15.8932   27.8596 C   0  0  0  0  0  0  0  0  0  0  0  0
    9.5865  -17.1334   27.7377 O   0  0  0  0  0  0  0  0  0  0  0  0
   10.5712  -15.5310   28.9544 O   0  0  0  0  0  0  0  0  0  0  0  0
  2  1  1  1
  2  3  1  0
  4  5  1  6
  4  2  1  0
  4  6  1  0
  6 11  1  0
  7  6  2  0
  9  8  1  0
 10  9  1  6
 11 10  1  0
 12 20  1  0
 12 10  1  0
 13 12  2  0
 14 15  1  0
 15 16  2  0
 15 17  1  0
 17 18  1  0
 19 18  1  1
 19 20  1  0
 19 21  1  0
 21 23  1  0
 22 21  2  0
M  END
$$$$
