VSQ.pdb
     RDKit          3D

 23 22  0  0  1  0  0  0  0  0999 V2000
   13.4164  -16.5836   18.0810 C   0  0  0  0  0  0  0  0  0  0  0  0
   12.7188  -15.2599   17.9039 C   0  0  2  0  0  0  0  0  0  0  0  0
   13.7279  -14.1456   17.8126 C   0  0  0  0  0  0  0  0  0  0  0  0
   11.6882  -15.0057   18.9774 C   0  0  2  0  0  0  0  0  0  0  0  0
   11.0092  -13.7576   18.5940 N   0  0  0  0  0  0  0  0  0  0  0  0
   12.3093  -14.7540   20.3007 C   0  0  0  0  0  0  0  0  0  0  0  0
   12.9668  -13.6944   20.4478 O   0  0  0  0  0  0  0  0  0  0  0  0
   11.7101  -17.1639   23.6698 O   0  0  0  0  0  0  0  0  0  0  0  0
   12.0225  -15.8272   23.8014 C   0  0  0  0  0  0  0  0  0  0  0  0
   12.8945  -15.3935   22.6655 C   0  0  2  0  0  0  0  0  0  0  0  0
   12.2148  -15.6260   21.4177 N   0  0  0  0  0  0  0  0  0  0  0  0
   14.2369  -16.0304   22.7015 C   0  0  0  0  0  0  0  0  0  0  0  0
   14.4469  -17.0625   22.0113 O   0  0  0  0  0  0  0  0  0  0  0  0
   21.5267  -15.2019   23.4896 N   0  0  0  0  0  0  0  0  0  0  0  0
   20.1617  -14.8184   23.3735 C   0  0  0  0  0  0  0  0  0  0  0  0
   19.9168  -13.6008   23.4059 O   0  0  0  0  0  0  0  0  0  0  0  0
   19.0823  -15.8017   23.2233 C   0  0  0  0  0  0  0  0  0  0  0  0
   17.6996  -15.2259   23.1642 C   0  0  0  0  0  0  0  0  0  0  0  0
   16.6166  -16.1601   23.5755 C   0  0  2  0  0  0  0  0  0  0  0  0
   15.3027  -15.5241   23.4852 N   0  0  0  0  0  0  0  0  0  0  0  0
   16.8133  -16.7833   24.9008 C   0  0  0  0  0  0  0  0  0  0  0  0
   17.6780  -17.7170   24.9763 O   0  0  0  0  0  0  0  0  0  0  0  0
   16.1659  -16.4600   26.0491 O   0  0  0  0  0  0  0  0  0  0  0  0
  2  1  1  1
  2  3  1  0
  4  5  1  6
  4  2  1  0
  4  6  1  0
  6 11  1  0
  7  6  2  0
  9  8  1  0
 10  9  1  1
 11 10  1  0
 12 20  1  0
 12 10  1  0
 13 12  2  0
 14 15  1  0
 15 16  2  0
 15 17  1  0
 17 18  1  0
 19 18  1  1
 19 20  1  0
 19 21  1  0
 21 23  1  0
 22 21  2  0
M  END
$$$$
