VSQ.pdb
     RDKit          3D

 23 22  0  0  1  0  0  0  0  0999 V2000
    7.4950  -12.6684   20.6373 C   0  0  0  0  0  0  0  0  0  0  0  0
    8.4991  -13.0684   19.5876 C   0  0  2  0  0  0  0  0  0  0  0  0
    7.9587  -12.7815   18.2115 C   0  0  0  0  0  0  0  0  0  0  0  0
    8.9435  -14.5036   19.7351 C   0  0  2  0  0  0  0  0  0  0  0  0
    7.8222  -15.3227   19.2477 N   0  0  0  0  0  0  0  0  0  0  0  0
    9.1510  -14.8817   21.1543 C   0  0  0  0  0  0  0  0  0  0  0  0
   10.1885  -14.4657   21.7263 O   0  0  0  0  0  0  0  0  0  0  0  0
    7.5032  -16.8522   25.2471 O   0  0  0  0  0  0  0  0  0  0  0  0
    7.2574  -16.5116   23.9337 C   0  0  0  0  0  0  0  0  0  0  0  0
    8.5342  -16.1135   23.2629 C   0  0  2  0  0  0  0  0  0  0  0  0
    8.2597  -15.6825   21.9169 N   0  0  0  0  0  0  0  0  0  0  0  0
    9.5621  -17.1858   23.3110 C   0  0  0  0  0  0  0  0  0  0  0  0
    9.5880  -18.0547   22.3999 O   0  0  0  0  0  0  0  0  0  0  0  0
   16.2721  -18.3492   23.0807 N   0  0  0  0  0  0  0  0  0  0  0  0
   14.9539  -18.6040   22.6104 C   0  0  0  0  0  0  0  0  0  0  0  0
   14.7757  -18.5457   21.3822 O   0  0  0  0  0  0  0  0  0  0  0  0
   13.8460  -18.9210   23.5196 C   0  0  0  0  0  0  0  0  0  0  0  0
   12.6780  -17.9839   23.4515 C   0  0  0  0  0  0  0  0  0  0  0  0
   11.5704  -18.2979   24.3946 C   0  0  2  0  0  0  0  0  0  0  0  0
   10.5248  -17.2764   24.3462 N   0  0  0  0  0  0  0  0  0  0  0  0
   12.0008  -18.5495   25.7857 C   0  0  0  0  0  0  0  0  0  0  0  0
   12.9007  -19.4357   25.9594 O   0  0  0  0  0  0  0  0  0  0  0  0
   11.5350  -17.9295   26.8996 O   0  0  0  0  0  0  0  0  0  0  0  0
  2  1  1  1
  2  3  1  0
  4  5  1  1
  4  2  1  0
  4  6  1  0
  6 11  1  0
  7  6  2  0
  9  8  1  0
 10  9  1  6
 11 10  1  0
 12 20  1  0
 12 10  1  0
 13 12  2  0
 14 15  1  0
 15 16  2  0
 15 17  1  0
 17 18  1  0
 19 18  1  6
 19 20  1  0
 19 21  1  0
 21 23  1  0
 22 21  2  0
M  END
$$$$
