CAW.pdb
     RDKit          3D

 26 27  0  0  1  0  0  0  0  0999 V2000
    7.7547  -19.1171   18.8001 N   0  0  0  0  0  0  0  0  0  0  0  0
    7.4187  -18.5872   20.1037 C   0  0  1  0  0  0  0  0  0  0  0  0
    7.6760  -19.5784   21.1942 C   0  0  0  0  0  0  0  0  0  0  0  0
    7.0798  -19.0654   22.8083 S   0  0  0  0  0  0  0  0  0  0  0  0
    8.1107  -17.2889   20.3479 C   0  0  0  0  0  0  0  0  0  0  0  0
    9.3266  -17.2274   20.0240 O   0  0  0  0  0  0  0  0  0  0  0  0
    7.1157  -13.8116   21.0392 C   0  0  0  0  0  0  0  0  0  0  0  0
    8.1007  -14.9218   21.1258 C   0  0  2  0  0  0  0  0  0  0  0  0
    7.4271  -16.1824   20.9172 N   0  0  0  0  0  0  0  0  0  0  0  0
    8.9164  -14.9245   22.3599 C   0  0  0  0  0  0  0  0  0  0  0  0
    9.6012  -13.8919   22.6125 O   0  0  0  0  0  0  0  0  0  0  0  0
    8.9845  -15.9874   23.2683 N   0  0  0  0  0  0  0  0  0  0  0  0
    9.8355  -15.9943   24.4552 C   0  0  1  0  0  0  0  0  0  0  0  0
    9.0309  -16.1930   25.6852 C   0  0  0  0  0  0  0  0  0  0  0  0
    7.8191  -15.4073   25.8394 C   0  0  0  0  0  0  0  0  0  0  0  0
    6.5142  -15.8980   25.7191 C   0  0  0  0  0  0  0  0  0  0  0  0
    5.6876  -14.8631   25.9014 N   0  0  0  0  0  0  0  0  0  0  0  0
    6.3882  -13.7406   26.1320 C   0  0  0  0  0  0  0  0  0  0  0  0
    6.0293  -12.4293   26.3917 C   0  0  0  0  0  0  0  0  0  0  0  0
    6.9360  -11.4246   26.6191 C   0  0  0  0  0  0  0  0  0  0  0  0
    8.2783  -11.7411   26.5863 C   0  0  0  0  0  0  0  0  0  0  0  0
    8.6680  -13.0302   26.3310 C   0  0  0  0  0  0  0  0  0  0  0  0
    7.7423  -14.0377   26.1020 C   0  0  0  0  0  0  0  0  0  0  0  0
   11.0035  -16.8328   24.3292 C   0  0  0  0  0  0  0  0  0  0  0  0
   11.9449  -16.8274   25.3775 O   0  0  0  0  0  0  0  0  0  0  0  0
   11.2049  -17.5547   23.3328 O   0  0  0  0  0  0  0  0  0  0  0  0
  2  1  1  6
  2  3  1  0
  4  3  1  0
  5  6  2  0
  5  2  1  0
  8  7  1  1
  8  9  1  0
  8 10  1  0
  9  5  1  0
 10 11  2  0
 12 10  1  0
 12 13  1  0
 13 14  1  1
 15 16  2  0
 15 14  1  0
 17 16  1  0
 18 23  2  0
 18 17  1  0
 19 18  1  0
 20 19  2  0
 20 21  1  0
 21 22  2  0
 22 23  1  0
 23 15  1  0
 24 25  1  0
 24 13  1  0
 26 24  2  0
M  END
$$$$
