CAW.pdb
     RDKit          3D

 26 27  0  0  1  0  0  0  0  0999 V2000
    9.1675  -18.3737   18.0633 N   0  0  0  0  0  0  0  0  0  0  0  0
    8.1107  -17.9262   18.9442 C   0  0  1  0  0  0  0  0  0  0  0  0
    7.4594  -19.0661   19.6614 C   0  0  0  0  0  0  0  0  0  0  0  0
    8.5348  -19.9129   20.8234 S   0  0  0  0  0  0  0  0  0  0  0  0
    8.6052  -16.8787   19.8837 C   0  0  0  0  0  0  0  0  0  0  0  0
    9.8395  -16.8836   20.1358 O   0  0  0  0  0  0  0  0  0  0  0  0
    7.1839  -13.8508   21.5234 C   0  0  0  0  0  0  0  0  0  0  0  0
    8.2157  -14.9083   21.3581 C   0  0  2  0  0  0  0  0  0  0  0  0
    7.7232  -15.9274   20.4607 N   0  0  0  0  0  0  0  0  0  0  0  0
    8.7184  -15.4797   22.6265 C   0  0  0  0  0  0  0  0  0  0  0  0
    8.3465  -16.6495   22.9310 O   0  0  0  0  0  0  0  0  0  0  0  0
    9.5764  -14.8194   23.5139 N   0  0  0  0  0  0  0  0  0  0  0  0
   10.0053  -15.3693   24.7971 C   0  0  1  0  0  0  0  0  0  0  0  0
    8.8769  -16.0314   25.4958 C   0  0  0  0  0  0  0  0  0  0  0  0
    7.6300  -15.2971   25.6213 C   0  0  0  0  0  0  0  0  0  0  0  0
    6.3565  -15.8106   25.3527 C   0  0  0  0  0  0  0  0  0  0  0  0
    5.4824  -14.8202   25.5594 N   0  0  0  0  0  0  0  0  0  0  0  0
    6.1233  -13.7047   25.9452 C   0  0  0  0  0  0  0  0  0  0  0  0
    5.6996  -12.4333   26.2914 C   0  0  0  0  0  0  0  0  0  0  0  0
    6.5501  -11.4289   26.6801 C   0  0  0  0  0  0  0  0  0  0  0  0
    7.9012  -11.7037   26.7276 C   0  0  0  0  0  0  0  0  0  0  0  0
    8.3545  -12.9526   26.3904 C   0  0  0  0  0  0  0  0  0  0  0  0
    7.4852  -13.9601   25.9982 C   0  0  0  0  0  0  0  0  0  0  0  0
   11.2293  -16.1307   24.7241 C   0  0  0  0  0  0  0  0  0  0  0  0
   11.7130  -16.7308   25.9036 O   0  0  0  0  0  0  0  0  0  0  0  0
   11.8667  -16.2732   23.6621 O   0  0  0  0  0  0  0  0  0  0  0  0
  2  1  1  1
  2  3  1  0
  4  3  1  0
  5  6  2  0
  5  2  1  0
  8  7  1  1
  8  9  1  0
  8 10  1  0
  9  5  1  0
 10 11  2  0
 12 10  1  0
 12 13  1  0
 13 14  1  6
 15 16  2  0
 15 14  1  0
 17 16  1  0
 18 23  2  0
 18 17  1  0
 19 18  1  0
 20 19  2  0
 20 21  1  0
 21 22  2  0
 22 23  1  0
 23 15  1  0
 24 25  1  0
 24 13  1  0
 26 24  2  0
M  END
$$$$
