CAW.pdb
     RDKit          3D

 26 27  0  0  1  0  0  0  0  0999 V2000
    7.6447  -18.7740   18.4332 N   0  0  0  0  0  0  0  0  0  0  0  0
    7.3494  -18.3404   19.7815 C   0  0  1  0  0  0  0  0  0  0  0  0
    7.6832  -19.3908   20.7931 C   0  0  0  0  0  0  0  0  0  0  0  0
    7.2888  -18.9332   22.4840 S   0  0  0  0  0  0  0  0  0  0  0  0
    8.0122  -17.0385   20.0819 C   0  0  0  0  0  0  0  0  0  0  0  0
    9.2258  -16.9352   19.7599 O   0  0  0  0  0  0  0  0  0  0  0  0
    6.9039  -13.6273   20.9542 C   0  0  0  0  0  0  0  0  0  0  0  0
    7.9374  -14.6956   20.9262 C   0  0  2  0  0  0  0  0  0  0  0  0
    7.3045  -15.9740   20.6997 N   0  0  0  0  0  0  0  0  0  0  0  0
    8.8299  -14.7179   22.1058 C   0  0  0  0  0  0  0  0  0  0  0  0
    9.5828  -13.7188   22.2907 O   0  0  0  0  0  0  0  0  0  0  0  0
    8.9010  -15.7650   23.0322 N   0  0  0  0  0  0  0  0  0  0  0  0
    9.8718  -15.8274   24.1216 C   0  0  1  0  0  0  0  0  0  0  0  0
    9.1946  -16.0226   25.4266 C   0  0  0  0  0  0  0  0  0  0  0  0
    7.9473  -15.3152   25.6581 C   0  0  0  0  0  0  0  0  0  0  0  0
    6.6683  -15.8738   25.5588 C   0  0  0  0  0  0  0  0  0  0  0  0
    5.7925  -14.8972   25.8170 N   0  0  0  0  0  0  0  0  0  0  0  0
    6.4375  -13.7479   26.0762 C   0  0  0  0  0  0  0  0  0  0  0  0
    6.0159  -12.4722   26.4090 C   0  0  0  0  0  0  0  0  0  0  0  0
    6.8729  -11.4285   26.6526 C   0  0  0  0  0  0  0  0  0  0  0  0
    8.2287  -11.6659   26.5599 C   0  0  0  0  0  0  0  0  0  0  0  0
    8.6800  -12.9179   26.2316 C   0  0  0  0  0  0  0  0  0  0  0  0
    7.8041  -13.9654   25.9869 C   0  0  0  0  0  0  0  0  0  0  0  0
   10.9870  -16.7049   23.8578 C   0  0  0  0  0  0  0  0  0  0  0  0
   12.0939  -16.6570   24.7283 O   0  0  0  0  0  0  0  0  0  0  0  0
   11.0030  -17.4960   22.8943 O   0  0  0  0  0  0  0  0  0  0  0  0
  2  1  1  6
  2  3  1  0
  4  3  1  0
  5  6  2  0
  5  2  1  0
  8  7  1  1
  8  9  1  0
  8 10  1  0
  9  5  1  0
 10 11  2  0
 12 10  1  0
 12 13  1  0
 13 14  1  1
 15 16  2  0
 15 14  1  0
 17 16  1  0
 18 23  2  0
 18 17  1  0
 19 18  1  0
 20 19  2  0
 20 21  1  0
 21 22  2  0
 22 23  1  0
 23 15  1  0
 24 25  1  0
 24 13  1  0
 26 24  2  0
M  END
$$$$
