CAW.pdb
     RDKit          3D

 26 27  0  0  1  0  0  0  0  0999 V2000
    6.5872  -19.6908   19.8196 N   0  0  0  0  0  0  0  0  0  0  0  0
    6.4788  -18.8257   20.9741 C   0  0  1  0  0  0  0  0  0  0  0  0
    6.6972  -19.5695   22.2535 C   0  0  0  0  0  0  0  0  0  0  0  0
    6.5981  -18.5448   23.7246 S   0  0  0  0  0  0  0  0  0  0  0  0
    7.3840  -17.6473   20.8463 C   0  0  0  0  0  0  0  0  0  0  0  0
    8.4977  -17.8482   20.2928 O   0  0  0  0  0  0  0  0  0  0  0  0
    7.0607  -14.0020   20.9565 C   0  0  0  0  0  0  0  0  0  0  0  0
    7.8758  -15.2265   21.1720 C   0  0  2  0  0  0  0  0  0  0  0  0
    7.0027  -16.3667   21.3265 N   0  0  0  0  0  0  0  0  0  0  0  0
    8.8580  -15.1248   22.2735 C   0  0  0  0  0  0  0  0  0  0  0  0
    9.7155  -14.1974   22.2109 O   0  0  0  0  0  0  0  0  0  0  0  0
    8.9065  -15.9806   23.3802 N   0  0  0  0  0  0  0  0  0  0  0  0
    9.8963  -15.8783   24.4493 C   0  0  1  0  0  0  0  0  0  0  0  0
    9.2404  -15.8345   25.7787 C   0  0  0  0  0  0  0  0  0  0  0  0
    7.9499  -15.1756   25.8790 C   0  0  0  0  0  0  0  0  0  0  0  0
    6.7067  -15.8032   25.7437 C   0  0  0  0  0  0  0  0  0  0  0  0
    5.7725  -14.8555   25.8731 N   0  0  0  0  0  0  0  0  0  0  0  0
    6.3465  -13.6596   26.0840 C   0  0  0  0  0  0  0  0  0  0  0  0
    5.8467  -12.3859   26.2930 C   0  0  0  0  0  0  0  0  0  0  0  0
    6.6378  -11.2857   26.5094 C   0  0  0  0  0  0  0  0  0  0  0  0
    8.0061  -11.4610   26.5185 C   0  0  0  0  0  0  0  0  0  0  0  0
    8.5342  -12.7093   26.3140 C   0  0  0  0  0  0  0  0  0  0  0  0
    7.7244  -13.8143   26.0956 C   0  0  0  0  0  0  0  0  0  0  0  0
   10.9898  -16.8116   24.3214 C   0  0  0  0  0  0  0  0  0  0  0  0
   12.0462  -16.7329   25.2504 O   0  0  0  0  0  0  0  0  0  0  0  0
   11.0300  -17.6768   23.4245 O   0  0  0  0  0  0  0  0  0  0  0  0
  2  1  1  6
  2  3  1  0
  4  3  1  0
  5  6  2  0
  5  2  1  0
  8  7  1  1
  8  9  1  0
  8 10  1  0
  9  5  1  0
 10 11  2  0
 12 10  1  0
 12 13  1  0
 13 14  1  1
 15 16  2  0
 15 14  1  0
 17 16  1  0
 18 23  2  0
 18 17  1  0
 19 18  1  0
 20 19  2  0
 20 21  1  0
 21 22  2  0
 22 23  1  0
 23 15  1  0
 24 25  1  0
 24 13  1  0
 26 24  2  0
M  END
$$$$
