CAW.pdb
     RDKit          3D

 26 27  0  0  1  0  0  0  0  0999 V2000
    6.5503  -14.2477   18.8471 N   0  0  0  0  0  0  0  0  0  0  0  0
    7.9284  -14.4618   19.2318 C   0  0  1  0  0  0  0  0  0  0  0  0
    8.6402  -13.1746   19.5038 C   0  0  0  0  0  0  0  0  0  0  0  0
    8.1280  -12.3582   21.0188 S   0  0  0  0  0  0  0  0  0  0  0  0
    8.0222  -15.4105   20.3788 C   0  0  0  0  0  0  0  0  0  0  0  0
    7.0383  -15.4452   21.1648 O   0  0  0  0  0  0  0  0  0  0  0  0
    9.9152  -18.4109   21.2123 C   0  0  0  0  0  0  0  0  0  0  0  0
    9.2313  -17.1703   21.6631 C   0  0  2  0  0  0  0  0  0  0  0  0
    9.1661  -16.2299   20.5688 N   0  0  0  0  0  0  0  0  0  0  0  0
    9.8028  -16.5631   22.8850 C   0  0  0  0  0  0  0  0  0  0  0  0
   10.6934  -15.6773   22.7384 O   0  0  0  0  0  0  0  0  0  0  0  0
    9.4287  -16.8978   24.1917 N   0  0  0  0  0  0  0  0  0  0  0  0
   10.0809  -16.3724   25.3882 C   0  0  1  0  0  0  0  0  0  0  0  0
    9.0995  -16.1631   26.4803 C   0  0  0  0  0  0  0  0  0  0  0  0
    7.8981  -15.4046   26.1788 C   0  0  0  0  0  0  0  0  0  0  0  0
    6.6957  -15.9441   25.7085 C   0  0  0  0  0  0  0  0  0  0  0  0
    5.8513  -14.9231   25.5289 N   0  0  0  0  0  0  0  0  0  0  0  0
    6.4438  -13.7635   25.8579 C   0  0  0  0  0  0  0  0  0  0  0  0
    6.0196  -12.4460   25.8699 C   0  0  0  0  0  0  0  0  0  0  0  0
    6.8093  -11.3976   26.2704 C   0  0  0  0  0  0  0  0  0  0  0  0
    8.0962  -11.6741   26.6831 C   0  0  0  0  0  0  0  0  0  0  0  0
    8.5484  -12.9681   26.6827 C   0  0  0  0  0  0  0  0  0  0  0  0
    7.7411  -14.0201   26.2751 C   0  0  0  0  0  0  0  0  0  0  0  0
   11.2832  -17.0819   25.7549 C   0  0  0  0  0  0  0  0  0  0  0  0
   12.1580  -16.4785   26.6801 O   0  0  0  0  0  0  0  0  0  0  0  0
   11.5705  -18.2001   25.2841 O   0  0  0  0  0  0  0  0  0  0  0  0
  2  1  1  1
  2  3  1  0
  4  3  1  0
  5  6  2  0
  5  2  1  0
  8  7  1  6
  8  9  1  0
  8 10  1  0
  9  5  1  0
 10 11  2  0
 12 10  1  0
 12 13  1  0
 13 14  1  1
 15 16  2  0
 15 14  1  0
 17 16  1  0
 18 23  2  0
 18 17  1  0
 19 18  1  0
 20 19  2  0
 20 21  1  0
 21 22  2  0
 22 23  1  0
 23 15  1  0
 24 25  1  0
 24 13  1  0
 26 24  2  0
M  END
$$$$
