CAW.pdb
     RDKit          3D

 26 27  0  0  1  0  0  0  0  0999 V2000
    7.9664  -19.6752   19.5437 N   0  0  0  0  0  0  0  0  0  0  0  0
    7.3446  -18.9466   20.6280 C   0  0  1  0  0  0  0  0  0  0  0  0
    7.4327  -19.6886   21.9240 C   0  0  0  0  0  0  0  0  0  0  0  0
    8.9121  -19.3300   22.8762 S   0  0  0  0  0  0  0  0  0  0  0  0
    7.8981  -17.5656   20.7311 C   0  0  0  0  0  0  0  0  0  0  0  0
    9.0887  -17.4047   20.3521 O   0  0  0  0  0  0  0  0  0  0  0  0
    6.5471  -14.1680   21.3316 C   0  0  0  0  0  0  0  0  0  0  0  0
    7.6586  -15.1552   21.3149 C   0  0  2  0  0  0  0  0  0  0  0  0
    7.1164  -16.4914   21.2321 N   0  0  0  0  0  0  0  0  0  0  0  0
    8.6225  -15.0139   22.4281 C   0  0  0  0  0  0  0  0  0  0  0  0
    9.2699  -13.9306   22.5095 O   0  0  0  0  0  0  0  0  0  0  0  0
    8.8694  -15.9926   23.3981 N   0  0  0  0  0  0  0  0  0  0  0  0
    9.8836  -15.8706   24.4419 C   0  0  1  0  0  0  0  0  0  0  0  0
    9.2657  -15.9024   25.7898 C   0  0  0  0  0  0  0  0  0  0  0  0
    8.0220  -15.1780   25.9851 C   0  0  0  0  0  0  0  0  0  0  0  0
    6.7392  -15.7262   25.8767 C   0  0  0  0  0  0  0  0  0  0  0  0
    5.8691  -14.7357   26.0989 N   0  0  0  0  0  0  0  0  0  0  0  0
    6.5213  -13.5874   26.3438 C   0  0  0  0  0  0  0  0  0  0  0  0
    6.1071  -12.3007   26.6417 C   0  0  0  0  0  0  0  0  0  0  0  0
    6.9705  -11.2602   26.8767 C   0  0  0  0  0  0  0  0  0  0  0  0
    8.3251  -11.5127   26.8119 C   0  0  0  0  0  0  0  0  0  0  0  0
    8.7692  -12.7759   26.5185 C   0  0  0  0  0  0  0  0  0  0  0  0
    7.8869  -13.8200   26.2821 C   0  0  0  0  0  0  0  0  0  0  0  0
   11.0201  -16.7403   24.2538 C   0  0  0  0  0  0  0  0  0  0  0  0
   12.1155  -16.6053   25.1296 O   0  0  0  0  0  0  0  0  0  0  0  0
   11.0639  -17.5985   23.3505 O   0  0  0  0  0  0  0  0  0  0  0  0
  2  1  1  6
  2  3  1  0
  4  3  1  0
  5  6  2  0
  5  2  1  0
  8  7  1  1
  8  9  1  0
  8 10  1  0
  9  5  1  0
 10 11  2  0
 12 10  1  0
 12 13  1  0
 13 14  1  1
 15 16  2  0
 15 14  1  0
 17 16  1  0
 18 23  2  0
 18 17  1  0
 19 18  1  0
 20 19  2  0
 20 21  1  0
 21 22  2  0
 22 23  1  0
 23 15  1  0
 24 25  1  0
 24 13  1  0
 26 24  2  0
M  END
$$$$
