CAW.pdb
     RDKit          3D

 26 27  0  0  1  0  0  0  0  0999 V2000
    6.5793  -14.8770   19.0519 N   0  0  0  0  0  0  0  0  0  0  0  0
    7.7104  -14.4765   19.8601 C   0  0  1  0  0  0  0  0  0  0  0  0
    7.5219  -13.1155   20.4516 C   0  0  0  0  0  0  0  0  0  0  0  0
    8.8930  -12.5611   21.4697 S   0  0  0  0  0  0  0  0  0  0  0  0
    8.0172  -15.5037   20.8970 C   0  0  0  0  0  0  0  0  0  0  0  0
    7.0495  -15.9080   21.5950 O   0  0  0  0  0  0  0  0  0  0  0  0
   10.6110  -17.9757   21.5157 C   0  0  0  0  0  0  0  0  0  0  0  0
    9.6149  -17.0180   22.0642 C   0  0  2  0  0  0  0  0  0  0  0  0
    9.3360  -15.9961   21.0823 N   0  0  0  0  0  0  0  0  0  0  0  0
    9.9748  -16.4429   23.3787 C   0  0  0  0  0  0  0  0  0  0  0  0
   10.7552  -15.4478   23.3897 O   0  0  0  0  0  0  0  0  0  0  0  0
    9.5137  -16.9203   24.6112 N   0  0  0  0  0  0  0  0  0  0  0  0
   10.0119  -16.4588   25.9042 C   0  0  1  0  0  0  0  0  0  0  0  0
    8.8966  -16.2456   26.8584 C   0  0  0  0  0  0  0  0  0  0  0  0
    7.7722  -15.4370   26.4206 C   0  0  0  0  0  0  0  0  0  0  0  0
    6.5806  -15.9315   25.8790 C   0  0  0  0  0  0  0  0  0  0  0  0
    5.8178  -14.8751   25.5793 N   0  0  0  0  0  0  0  0  0  0  0  0
    6.4523  -13.7352   25.8986 C   0  0  0  0  0  0  0  0  0  0  0  0
    6.1104  -12.3969   25.8101 C   0  0  0  0  0  0  0  0  0  0  0  0
    6.9284  -11.3752   26.2226 C   0  0  0  0  0  0  0  0  0  0  0  0
    8.1586  -11.7022   26.7543 C   0  0  0  0  0  0  0  0  0  0  0  0
    8.5288  -13.0181   26.8557 C   0  0  0  0  0  0  0  0  0  0  0  0
    7.6936  -14.0427   26.4347 C   0  0  0  0  0  0  0  0  0  0  0  0
   11.1267  -17.2260   26.4060 C   0  0  0  0  0  0  0  0  0  0  0  0
   11.5241  -18.3723   25.6894 O   0  0  0  0  0  0  0  0  0  0  0  0
   11.7435  -16.9111   27.4428 O   0  0  0  0  0  0  0  0  0  0  0  0
  2  1  1  1
  2  3  1  0
  4  3  1  0
  5  6  2  0
  5  2  1  0
  8  7  1  6
  8  9  1  0
  8 10  1  0
  9  5  1  0
 10 11  2  0
 12 10  1  0
 12 13  1  0
 13 14  1  1
 15 16  2  0
 15 14  1  0
 17 16  1  0
 18 23  2  0
 18 17  1  0
 19 18  1  0
 20 19  2  0
 20 21  1  0
 21 22  2  0
 22 23  1  0
 23 15  1  0
 24 25  1  0
 24 13  1  0
 26 24  2  0
M  END
$$$$
