CAW.pdb
     RDKit          3D

 26 27  0  0  1  0  0  0  0  0999 V2000
    6.5806  -19.5620   19.4433 N   0  0  0  0  0  0  0  0  0  0  0  0
    6.5550  -18.8129   20.6807 C   0  0  1  0  0  0  0  0  0  0  0  0
    6.9498  -19.6543   21.8528 C   0  0  0  0  0  0  0  0  0  0  0  0
    6.8750  -18.7984   23.4295 S   0  0  0  0  0  0  0  0  0  0  0  0
    7.3792  -17.5745   20.5734 C   0  0  0  0  0  0  0  0  0  0  0  0
    8.4758  -17.6774   19.9618 O   0  0  0  0  0  0  0  0  0  0  0  0
    6.8213  -13.9713   20.8506 C   0  0  0  0  0  0  0  0  0  0  0  0
    7.7278  -15.1420   20.9846 C   0  0  2  0  0  0  0  0  0  0  0  0
    6.9434  -16.3454   21.1347 N   0  0  0  0  0  0  0  0  0  0  0  0
    8.7507  -15.0088   22.0449 C   0  0  0  0  0  0  0  0  0  0  0  0
    9.5457  -14.0279   21.9731 O   0  0  0  0  0  0  0  0  0  0  0  0
    8.9018  -15.8897   23.1222 N   0  0  0  0  0  0  0  0  0  0  0  0
    9.9437  -15.7666   24.1383 C   0  0  1  0  0  0  0  0  0  0  0  0
    9.3673  -15.8422   25.5028 C   0  0  0  0  0  0  0  0  0  0  0  0
    8.0628  -15.2431   25.7242 C   0  0  0  0  0  0  0  0  0  0  0  0
    6.8376  -15.9129   25.6350 C   0  0  0  0  0  0  0  0  0  0  0  0
    5.8796  -15.0126   25.8785 N   0  0  0  0  0  0  0  0  0  0  0  0
    6.4215  -13.8074   26.1187 C   0  0  0  0  0  0  0  0  0  0  0  0
    5.8897  -12.5684   26.4316 C   0  0  0  0  0  0  0  0  0  0  0  0
    6.6520  -11.4499   26.6577 C   0  0  0  0  0  0  0  0  0  0  0  0
    8.0234  -11.5693   26.5676 C   0  0  0  0  0  0  0  0  0  0  0  0
    8.5827  -12.7820   26.2588 C   0  0  0  0  0  0  0  0  0  0  0  0
    7.8018  -13.9059   26.0316 C   0  0  0  0  0  0  0  0  0  0  0  0
   11.0936  -16.6049   23.8974 C   0  0  0  0  0  0  0  0  0  0  0  0
   12.2532  -16.3839   24.6667 O   0  0  0  0  0  0  0  0  0  0  0  0
   11.0947  -17.5093   23.0391 O   0  0  0  0  0  0  0  0  0  0  0  0
  2  1  1  6
  2  3  1  0
  4  3  1  0
  5  6  2  0
  5  2  1  0
  8  7  1  1
  8  9  1  0
  8 10  1  0
  9  5  1  0
 10 11  2  0
 12 10  1  0
 12 13  1  0
 13 14  1  1
 15 16  2  0
 15 14  1  0
 17 16  1  0
 18 23  2  0
 18 17  1  0
 19 18  1  0
 20 19  2  0
 20 21  1  0
 21 22  2  0
 22 23  1  0
 23 15  1  0
 24 25  1  0
 24 13  1  0
 26 24  2  0
M  END
$$$$
