CAW.pdb
     RDKit          3D

 26 27  0  0  1  0  0  0  0  0999 V2000
    6.9446  -14.6483   18.6286 N   0  0  0  0  0  0  0  0  0  0  0  0
    7.9149  -14.2955   19.6421 C   0  0  1  0  0  0  0  0  0  0  0  0
    7.5763  -13.0033   20.3155 C   0  0  0  0  0  0  0  0  0  0  0  0
    8.6757  -12.5698   21.6673 S   0  0  0  0  0  0  0  0  0  0  0  0
    8.0975  -15.4083   20.6181 C   0  0  0  0  0  0  0  0  0  0  0  0
    7.0489  -15.9327   21.0791 O   0  0  0  0  0  0  0  0  0  0  0  0
   10.4672  -17.9531   21.3856 C   0  0  0  0  0  0  0  0  0  0  0  0
    9.5558  -16.9247   21.9530 C   0  0  2  0  0  0  0  0  0  0  0  0
    9.3911  -15.8488   21.0034 N   0  0  0  0  0  0  0  0  0  0  0  0
    9.9451  -16.4303   23.2917 C   0  0  0  0  0  0  0  0  0  0  0  0
   10.7901  -15.4910   23.3472 O   0  0  0  0  0  0  0  0  0  0  0  0
    9.4455  -16.9268   24.5015 N   0  0  0  0  0  0  0  0  0  0  0  0
    9.9604  -16.5483   25.8148 C   0  0  1  0  0  0  0  0  0  0  0  0
    8.8522  -16.2746   26.7617 C   0  0  0  0  0  0  0  0  0  0  0  0
    7.7236  -15.4968   26.2812 C   0  0  0  0  0  0  0  0  0  0  0  0
    6.5733  -16.0223   25.6825 C   0  0  0  0  0  0  0  0  0  0  0  0
    5.7918  -14.9870   25.3583 N   0  0  0  0  0  0  0  0  0  0  0  0
    6.3754  -13.8313   25.7159 C   0  0  0  0  0  0  0  0  0  0  0  0
    5.9960  -12.5034   25.6241 C   0  0  0  0  0  0  0  0  0  0  0  0
    6.7624  -11.4611   26.0818 C   0  0  0  0  0  0  0  0  0  0  0  0
    7.9774  -11.7554   26.6652 C   0  0  0  0  0  0  0  0  0  0  0  0
    8.3838  -13.0602   26.7713 C   0  0  0  0  0  0  0  0  0  0  0  0
    7.6007  -14.1057   26.3043 C   0  0  0  0  0  0  0  0  0  0  0  0
   11.0016  -17.4195   26.3049 C   0  0  0  0  0  0  0  0  0  0  0  0
   11.6944  -17.0402   27.4718 O   0  0  0  0  0  0  0  0  0  0  0  0
   11.3053  -18.4861   25.7352 O   0  0  0  0  0  0  0  0  0  0  0  0
  2  1  1  6
  2  3  1  0
  4  3  1  0
  5  6  2  0
  5  2  1  0
  8  7  1  6
  8  9  1  0
  8 10  1  0
  9  5  1  0
 10 11  2  0
 12 10  1  0
 12 13  1  0
 13 14  1  1
 15 16  2  0
 15 14  1  0
 17 16  1  0
 18 23  2  0
 18 17  1  0
 19 18  1  0
 20 19  2  0
 20 21  1  0
 21 22  2  0
 22 23  1  0
 23 15  1  0
 24 25  1  0
 24 13  1  0
 26 24  2  0
M  END
$$$$
