CAW.pdb
     RDKit          3D

 26 27  0  0  1  0  0  0  0  0999 V2000
    7.4705  -15.7734   17.3685 N   0  0  0  0  0  0  0  0  0  0  0  0
    8.3379  -14.9143   18.1447 C   0  0  1  0  0  0  0  0  0  0  0  0
    7.6448  -13.6603   18.5746 C   0  0  0  0  0  0  0  0  0  0  0  0
    8.6456  -12.5855   19.6076 S   0  0  0  0  0  0  0  0  0  0  0  0
    8.9309  -15.6531   19.2966 C   0  0  0  0  0  0  0  0  0  0  0  0
    8.1268  -16.2640   20.0498 O   0  0  0  0  0  0  0  0  0  0  0  0
   12.3494  -16.6176   20.3927 C   0  0  0  0  0  0  0  0  0  0  0  0
   10.8975  -16.4032   20.6300 C   0  0  2  0  0  0  0  0  0  0  0  0
   10.3320  -15.6629   19.5262 N   0  0  0  0  0  0  0  0  0  0  0  0
   10.5725  -15.7893   21.9361 C   0  0  0  0  0  0  0  0  0  0  0  0
   10.5373  -14.5267   21.9981 O   0  0  0  0  0  0  0  0  0  0  0  0
   10.3009  -16.5050   23.1080 N   0  0  0  0  0  0  0  0  0  0  0  0
    9.5662  -15.9598   24.2465 C   0  0  1  0  0  0  0  0  0  0  0  0
    8.2810  -15.3604   23.8121 C   0  0  0  0  0  0  0  0  0  0  0  0
    7.3647  -14.8977   24.8397 C   0  0  0  0  0  0  0  0  0  0  0  0
    6.2667  -15.6141   25.3288 C   0  0  0  0  0  0  0  0  0  0  0  0
    5.6654  -14.8388   26.2370 N   0  0  0  0  0  0  0  0  0  0  0  0
    6.3157  -13.6698   26.3572 C   0  0  0  0  0  0  0  0  0  0  0  0
    6.1241  -12.5491   27.1466 C   0  0  0  0  0  0  0  0  0  0  0  0
    6.9431  -11.4485   27.1145 C   0  0  0  0  0  0  0  0  0  0  0  0
    8.0157  -11.4619   26.2472 C   0  0  0  0  0  0  0  0  0  0  0  0
    8.2339  -12.5559   25.4507 C   0  0  0  0  0  0  0  0  0  0  0  0
    7.3987  -13.6628   25.4912 C   0  0  0  0  0  0  0  0  0  0  0  0
    9.4884  -16.8583   25.3733 C   0  0  0  0  0  0  0  0  0  0  0  0
    9.6176  -16.3175   26.6680 O   0  0  0  0  0  0  0  0  0  0  0  0
    9.3125  -18.0854   25.2401 O   0  0  0  0  0  0  0  0  0  0  0  0
  2  1  1  1
  2  3  1  0
  4  3  1  0
  5  6  2  0
  5  2  1  0
  8  7  1  6
  8  9  1  0
  8 10  1  0
  9  5  1  0
 10 11  2  0
 12 10  1  0
 12 13  1  0
 13 14  1  6
 15 16  2  0
 15 14  1  0
 17 16  1  0
 18 23  2  0
 18 17  1  0
 19 18  1  0
 20 19  2  0
 20 21  1  0
 21 22  2  0
 22 23  1  0
 23 15  1  0
 24 25  1  0
 24 13  1  0
 26 24  2  0
M  END
$$$$
