DQM.pdb
     RDKit          3D

 26 25  0  0  1  0  0  0  0  0999 V2000
   11.8995  -19.7469   16.0396 N   0  0  0  0  0  0  0  0  0  0  0  0
   12.2396  -18.6801   16.9332 C   0  0  1  0  0  0  0  0  0  0  0  0
   12.3724  -17.3878   16.1460 C   0  0  0  0  0  0  0  0  0  0  0  0
   13.6324  -17.3577   15.3662 C   0  0  0  0  0  0  0  0  0  0  0  0
   14.4666  -18.2948   15.3238 O   0  0  0  0  0  0  0  0  0  0  0  0
   11.3400  -18.5342   18.0779 C   0  0  0  0  0  0  0  0  0  0  0  0
   10.1814  -18.1050   17.8876 O   0  0  0  0  0  0  0  0  0  0  0  0
   13.9149  -16.2196   14.6313 O   0  0  0  0  0  0  0  0  0  0  0  0
   11.4766  -22.1226   23.0122 N   0  0  0  0  0  0  0  0  0  0  0  0
   10.9315  -22.4225   21.7398 C   0  0  0  0  0  0  0  0  0  0  0  0
   10.7249  -23.5897   21.3787 O   0  0  0  0  0  0  0  0  0  0  0  0
   10.5999  -21.3080   20.8166 C   0  0  0  0  0  0  0  0  0  0  0  0
   10.8500  -19.9603   21.4670 C   0  0  0  0  0  0  0  0  0  0  0  0
   10.8161  -18.8198   20.5345 C   0  0  2  0  0  0  0  0  0  0  0  0
   11.6712  -18.8434   19.4178 N   0  0  0  0  0  0  0  0  0  0  0  0
   10.9629  -17.5623   21.3314 C   0  0  0  0  0  0  0  0  0  0  0  0
   12.1079  -17.0859   21.6004 O   0  0  0  0  0  0  0  0  0  0  0  0
    7.5899  -12.0516   19.3683 C   0  0  0  0  0  0  0  0  0  0  0  0
    7.5732  -12.9219   20.9579 S   0  0  0  0  0  0  0  0  0  0  0  0
    9.0201  -14.0026   21.1281 C   0  0  0  0  0  0  0  0  0  0  0  0
    8.9159  -14.7174   22.4481 C   0  0  0  0  0  0  0  0  0  0  0  0
   10.0619  -15.6746   22.7003 C   0  0  2  0  0  0  0  0  0  0  0  0
    9.8552  -16.8247   21.8348 N   0  0  0  0  0  0  0  0  0  0  0  0
    9.9131  -16.0980   24.1414 C   0  0  0  0  0  0  0  0  0  0  0  0
    9.3911  -17.1961   24.4606 O   0  0  0  0  0  0  0  0  0  0  0  0
   10.3531  -15.2784   25.1710 O   0  0  0  0  0  0  0  0  0  0  0  0
  2  1  1  6
  2  3  1  0
  4  3  1  0
  4  8  1  0
  5  4  2  0
  6  2  1  0
  7  6  2  0
  9 10  1  0
 10 12  1  0
 11 10  2  0
 12 13  1  0
 14 13  1  1
 14 15  1  0
 15  6  1  0
 16 23  1  0
 16 14  1  0
 17 16  2  0
 18 19  1  0
 19 20  1  0
 21 20  1  0
 22 21  1  6
 22 23  1  0
 24 22  1  0
 24 26  1  0
 25 24  2  0
M  END
$$$$
