DQM.pdb
     RDKit          3D

 26 25  0  0  1  0  0  0  0  0999 V2000
    7.2236  -17.8676   18.1440 N   0  0  0  0  0  0  0  0  0  0  0  0
    8.2083  -17.0365   18.7702 C   0  0  1  0  0  0  0  0  0  0  0  0
    8.0439  -15.6074   18.2823 C   0  0  0  0  0  0  0  0  0  0  0  0
    8.3886  -15.4842   16.8461 C   0  0  0  0  0  0  0  0  0  0  0  0
    8.8584  -16.4128   16.1440 O   0  0  0  0  0  0  0  0  0  0  0  0
    8.2335  -17.1171   20.2310 C   0  0  0  0  0  0  0  0  0  0  0  0
    7.2236  -16.7597   20.8754 O   0  0  0  0  0  0  0  0  0  0  0  0
    8.1803  -14.2626   16.2301 O   0  0  0  0  0  0  0  0  0  0  0  0
   12.0797  -20.5721   23.9676 N   0  0  0  0  0  0  0  0  0  0  0  0
   11.2527  -19.9209   24.9151 C   0  0  0  0  0  0  0  0  0  0  0  0
   11.3084  -20.1916   26.1231 O   0  0  0  0  0  0  0  0  0  0  0  0
   10.2950  -18.8876   24.4467 C   0  0  0  0  0  0  0  0  0  0  0  0
   10.3252  -18.7521   22.9359 C   0  0  0  0  0  0  0  0  0  0  0  0
    9.3651  -17.7746   22.3939 C   0  0  2  0  0  0  0  0  0  0  0  0
    9.3272  -17.5756   21.0018 N   0  0  0  0  0  0  0  0  0  0  0  0
    9.5344  -16.4909   23.1432 C   0  0  0  0  0  0  0  0  0  0  0  0
   10.5379  -15.7409   22.9415 O   0  0  0  0  0  0  0  0  0  0  0  0
    5.9879  -10.8178   27.3389 C   0  0  0  0  0  0  0  0  0  0  0  0
    5.9514  -12.3786   26.4184 S   0  0  0  0  0  0  0  0  0  0  0  0
    7.6293  -12.9833   26.0879 C   0  0  0  0  0  0  0  0  0  0  0  0
    7.5200  -14.2263   25.2468 C   0  0  0  0  0  0  0  0  0  0  0  0
    8.8647  -14.8118   24.8699 C   0  0  2  0  0  0  0  0  0  0  0  0
    8.6042  -16.0269   24.1148 N   0  0  0  0  0  0  0  0  0  0  0  0
    9.5223  -15.1672   26.1811 C   0  0  0  0  0  0  0  0  0  0  0  0
    9.9060  -14.2867   26.9920 O   0  0  0  0  0  0  0  0  0  0  0  0
    9.7261  -16.4929   26.5364 O   0  0  0  0  0  0  0  0  0  0  0  0
  2  1  1  1
  2  3  1  0
  4  3  1  0
  4  8  1  0
  5  4  2  0
  6  2  1  0
  7  6  2  0
  9 10  1  0
 10 12  1  0
 11 10  2  0
 12 13  1  0
 14 13  1  6
 14 15  1  0
 15  6  1  0
 16 23  1  0
 16 14  1  0
 17 16  2  0
 18 19  1  0
 19 20  1  0
 21 20  1  0
 22 21  1  1
 22 23  1  0
 24 22  1  0
 24 26  1  0
 25 24  2  0
M  END
$$$$
