DQM.pdb
     RDKit          3D

 26 25  0  0  1  0  0  0  0  0999 V2000
    8.7193  -18.8209   18.2375 N   0  0  0  0  0  0  0  0  0  0  0  0
    9.5179  -18.6905   19.4197 C   0  0  1  0  0  0  0  0  0  0  0  0
   10.6175  -17.6718   19.1739 C   0  0  0  0  0  0  0  0  0  0  0  0
   11.5114  -18.0978   18.0711 C   0  0  0  0  0  0  0  0  0  0  0  0
   11.7575  -17.4128   17.0484 O   0  0  0  0  0  0  0  0  0  0  0  0
    8.7608  -18.3963   20.6368 C   0  0  0  0  0  0  0  0  0  0  0  0
    7.9786  -17.4211   20.6433 O   0  0  0  0  0  0  0  0  0  0  0  0
   12.1205  -19.3366   18.1699 O   0  0  0  0  0  0  0  0  0  0  0  0
    5.4042  -21.4046   24.5939 N   0  0  0  0  0  0  0  0  0  0  0  0
    6.2379  -20.8225   25.5798 C   0  0  0  0  0  0  0  0  0  0  0  0
    6.2461  -21.2311   26.7496 O   0  0  0  0  0  0  0  0  0  0  0  0
    7.1243  -19.6937   25.1995 C   0  0  0  0  0  0  0  0  0  0  0  0
    7.9469  -20.0288   23.9696 C   0  0  0  0  0  0  0  0  0  0  0  0
    8.1133  -18.9092   23.0261 C   0  0  2  0  0  0  0  0  0  0  0  0
    8.8353  -19.1358   21.8402 N   0  0  0  0  0  0  0  0  0  0  0  0
    8.6342  -17.7318   23.7878 C   0  0  0  0  0  0  0  0  0  0  0  0
    9.8659  -17.6288   24.0750 O   0  0  0  0  0  0  0  0  0  0  0  0
    6.6700  -10.7877   27.1557 C   0  0  0  0  0  0  0  0  0  0  0  0
    6.2407  -12.2651   26.1976 S   0  0  0  0  0  0  0  0  0  0  0  0
    7.6492  -13.4021   26.0809 C   0  0  0  0  0  0  0  0  0  0  0  0
    7.2483  -14.5525   25.1976 C   0  0  0  0  0  0  0  0  0  0  0  0
    8.3779  -15.5268   24.9375 C   0  0  2  0  0  0  0  0  0  0  0  0
    7.8060  -16.6651   24.2361 N   0  0  0  0  0  0  0  0  0  0  0  0
    8.8456  -15.9634   26.3046 C   0  0  0  0  0  0  0  0  0  0  0  0
    9.6194  -15.2568   26.9989 O   0  0  0  0  0  0  0  0  0  0  0  0
    8.4308  -17.1727   26.8439 O   0  0  0  0  0  0  0  0  0  0  0  0
  2  1  1  6
  2  3  1  0
  4  3  1  0
  4  8  1  0
  5  4  2  0
  6  2  1  0
  7  6  2  0
  9 10  1  0
 10 12  1  0
 11 10  2  0
 12 13  1  0
 14 13  1  1
 14 15  1  0
 15  6  1  0
 16 23  1  0
 16 14  1  0
 17 16  2  0
 18 19  1  0
 19 20  1  0
 21 20  1  0
 22 21  1  1
 22 23  1  0
 24 22  1  0
 24 26  1  0
 25 24  2  0
M  END
$$$$
