DQM.pdb
     RDKit          3D

 26 25  0  0  1  0  0  0  0  0999 V2000
    8.9930  -17.0811   19.4099 N   0  0  0  0  0  0  0  0  0  0  0  0
    9.8831  -17.0276   20.5311 C   0  0  1  0  0  0  0  0  0  0  0  0
   10.9776  -16.0108   20.2562 C   0  0  0  0  0  0  0  0  0  0  0  0
   11.8933  -16.4787   19.1888 C   0  0  0  0  0  0  0  0  0  0  0  0
   12.3111  -15.7644   18.2449 O   0  0  0  0  0  0  0  0  0  0  0  0
    9.2279  -16.7926   21.8182 C   0  0  0  0  0  0  0  0  0  0  0  0
    8.3605  -15.8962   21.9022 O   0  0  0  0  0  0  0  0  0  0  0  0
   12.3213  -17.7941   19.2301 O   0  0  0  0  0  0  0  0  0  0  0  0
    7.5315  -20.9766   26.0847 N   0  0  0  0  0  0  0  0  0  0  0  0
    7.2778  -19.7851   26.8071 C   0  0  0  0  0  0  0  0  0  0  0  0
    6.7054  -19.7993   27.9060 O   0  0  0  0  0  0  0  0  0  0  0  0
    7.7098  -18.4868   26.2309 C   0  0  0  0  0  0  0  0  0  0  0  0
    8.4020  -18.6795   24.8947 C   0  0  0  0  0  0  0  0  0  0  0  0
    8.7943  -17.4259   24.2269 C   0  0  2  0  0  0  0  0  0  0  0  0
    9.4940  -17.5075   23.0093 N   0  0  0  0  0  0  0  0  0  0  0  0
    9.5004  -16.5666   25.2273 C   0  0  0  0  0  0  0  0  0  0  0  0
   10.7492  -16.6783   25.4229 O   0  0  0  0  0  0  0  0  0  0  0  0
    5.5892  -11.0761   26.1226 C   0  0  0  0  0  0  0  0  0  0  0  0
    6.4498  -12.1760   27.2778 S   0  0  0  0  0  0  0  0  0  0  0  0
    7.9291  -12.8980   26.5158 C   0  0  0  0  0  0  0  0  0  0  0  0
    8.6077  -13.7636   27.5428 C   0  0  0  0  0  0  0  0  0  0  0  0
    9.5882  -14.7475   26.9397 C   0  0  2  0  0  0  0  0  0  0  0  0
    8.8392  -15.5833   26.0150 N   0  0  0  0  0  0  0  0  0  0  0  0
   10.0684  -15.5871   28.0985 C   0  0  0  0  0  0  0  0  0  0  0  0
   10.7446  -15.0974   29.0382 O   0  0  0  0  0  0  0  0  0  0  0  0
    9.7749  -16.9416   28.1630 O   0  0  0  0  0  0  0  0  0  0  0  0
  2  1  1  6
  2  3  1  0
  4  3  1  0
  4  8  1  0
  5  4  2  0
  6  2  1  0
  7  6  2  0
  9 10  1  0
 10 12  1  0
 11 10  2  0
 12 13  1  0
 14 13  1  1
 14 15  1  0
 15  6  1  0
 16 23  1  0
 16 14  1  0
 17 16  2  0
 18 19  1  0
 19 20  1  0
 21 20  1  0
 22 21  1  1
 22 23  1  0
 24 22  1  0
 24 26  1  0
 25 24  2  0
M  END
$$$$
