DQM.pdb
     RDKit          3D

 26 25  0  0  1  0  0  0  0  0999 V2000
   12.0280  -17.7194   19.3868 N   0  0  0  0  0  0  0  0  0  0  0  0
   12.5542  -16.5131   19.9529 C   0  0  1  0  0  0  0  0  0  0  0  0
   13.4611  -15.8360   18.9397 C   0  0  0  0  0  0  0  0  0  0  0  0
   14.6620  -16.6571   18.6566 C   0  0  0  0  0  0  0  0  0  0  0  0
   14.8992  -17.7752   19.1757 O   0  0  0  0  0  0  0  0  0  0  0  0
   11.5432  -15.5969   20.4815 C   0  0  0  0  0  0  0  0  0  0  0  0
   11.9085  -14.4992   20.9554 O   0  0  0  0  0  0  0  0  0  0  0  0
   15.5907  -16.1621   17.7578 O   0  0  0  0  0  0  0  0  0  0  0  0
    8.1246  -12.6968   19.4038 N   0  0  0  0  0  0  0  0  0  0  0  0
    7.8656  -13.7355   18.4765 C   0  0  0  0  0  0  0  0  0  0  0  0
    7.8118  -13.5214   17.2572 O   0  0  0  0  0  0  0  0  0  0  0  0
    7.6534  -15.1158   18.9807 C   0  0  0  0  0  0  0  0  0  0  0  0
    7.7704  -15.1747   20.4922 C   0  0  0  0  0  0  0  0  0  0  0  0
    9.1419  -15.0028   21.0029 C   0  0  2  0  0  0  0  0  0  0  0  0
   10.1513  -15.8471   20.5056 N   0  0  0  0  0  0  0  0  0  0  0  0
    9.0865  -15.0090   22.4978 C   0  0  0  0  0  0  0  0  0  0  0  0
    9.7475  -15.8541   23.1754 O   0  0  0  0  0  0  0  0  0  0  0  0
    5.0227  -11.6510   27.9945 C   0  0  0  0  0  0  0  0  0  0  0  0
    6.5540  -11.2913   27.0943 S   0  0  0  0  0  0  0  0  0  0  0  0
    7.4430  -12.8168   26.6786 C   0  0  0  0  0  0  0  0  0  0  0  0
    7.5617  -12.8941   25.1805 C   0  0  0  0  0  0  0  0  0  0  0  0
    8.3565  -14.0926   24.7061 C   0  0  2  0  0  0  0  0  0  0  0  0
    8.3066  -14.0890   23.2527 N   0  0  0  0  0  0  0  0  0  0  0  0
    7.6096  -15.2947   25.2307 C   0  0  0  0  0  0  0  0  0  0  0  0
    6.7141  -15.8658   24.5583 O   0  0  0  0  0  0  0  0  0  0  0  0
    7.8917  -15.8129   26.4865 O   0  0  0  0  0  0  0  0  0  0  0  0
  2  1  1  6
  2  3  1  0
  4  3  1  0
  4  8  1  0
  5  4  2  0
  6  2  1  0
  7  6  2  0
  9 10  1  0
 10 12  1  0
 11 10  2  0
 12 13  1  0
 14 13  1  6
 14 15  1  0
 15  6  1  0
 16 23  1  0
 16 14  1  0
 17 16  2  0
 18 19  1  0
 19 20  1  0
 21 20  1  0
 22 21  1  1
 22 23  1  0
 24 22  1  0
 24 26  1  0
 25 24  2  0
M  END
$$$$
