DQM.pdb
     RDKit          3D

 26 25  0  0  1  0  0  0  0  0999 V2000
    8.3600  -18.3764   20.1234 N   0  0  0  0  0  0  0  0  0  0  0  0
    9.6502  -17.7863   19.9246 C   0  0  1  0  0  0  0  0  0  0  0  0
   10.0475  -17.9260   18.4652 C   0  0  0  0  0  0  0  0  0  0  0  0
   10.0421  -19.3451   18.0377 C   0  0  0  0  0  0  0  0  0  0  0  0
    9.6839  -20.3060   18.7617 O   0  0  0  0  0  0  0  0  0  0  0  0
    9.7674  -16.4056   20.3944 C   0  0  0  0  0  0  0  0  0  0  0  0
   10.8957  -15.9635   20.7017 O   0  0  0  0  0  0  0  0  0  0  0  0
   10.4601  -19.6381   16.7513 O   0  0  0  0  0  0  0  0  0  0  0  0
    9.2602  -12.3017   18.4048 N   0  0  0  0  0  0  0  0  0  0  0  0
    8.2403  -13.2391   18.1098 C   0  0  0  0  0  0  0  0  0  0  0  0
    8.2251  -13.8709   17.0439 O   0  0  0  0  0  0  0  0  0  0  0  0
    7.1627  -13.4691   19.1049 C   0  0  0  0  0  0  0  0  0  0  0  0
    7.6630  -13.2494   20.5202 C   0  0  0  0  0  0  0  0  0  0  0  0
    8.7571  -14.1497   20.9247 C   0  0  2  0  0  0  0  0  0  0  0  0
    8.6902  -15.5001   20.5363 N   0  0  0  0  0  0  0  0  0  0  0  0
    8.9662  -13.9958   22.3980 C   0  0  0  0  0  0  0  0  0  0  0  0
    9.2087  -12.8609   22.9113 O   0  0  0  0  0  0  0  0  0  0  0  0
    6.7518  -11.2760   27.5598 C   0  0  0  0  0  0  0  0  0  0  0  0
    6.1564  -12.8684   26.9319 S   0  0  0  0  0  0  0  0  0  0  0  0
    7.5331  -14.0116   26.6352 C   0  0  0  0  0  0  0  0  0  0  0  0
    7.6634  -14.2092   25.1491 C   0  0  0  0  0  0  0  0  0  0  0  0
    8.9726  -14.8546   24.7457 C   0  0  2  0  0  0  0  0  0  0  0  0
    8.9099  -15.0854   23.3113 N   0  0  0  0  0  0  0  0  0  0  0  0
    8.9980  -16.1805   25.4665 C   0  0  0  0  0  0  0  0  0  0  0  0
    8.9113  -17.2730   24.8509 O   0  0  0  0  0  0  0  0  0  0  0  0
    9.1194  -16.2351   26.8476 O   0  0  0  0  0  0  0  0  0  0  0  0
  2  1  1  6
  2  3  1  0
  4  3  1  0
  4  8  1  0
  5  4  2  0
  6  2  1  0
  7  6  2  0
  9 10  1  0
 10 12  1  0
 11 10  2  0
 12 13  1  0
 14 13  1  1
 14 15  1  0
 15  6  1  0
 16 23  1  0
 16 14  1  0
 17 16  2  0
 18 19  1  0
 19 20  1  0
 21 20  1  0
 22 21  1  1
 22 23  1  0
 24 22  1  0
 24 26  1  0
 25 24  2  0
M  END
$$$$
