DQM.pdb
     RDKit          3D

 26 25  0  0  1  0  0  0  0  0999 V2000
   12.1305  -15.9927   18.0788 N   0  0  0  0  0  0  0  0  0  0  0  0
   12.2896  -15.6276   19.4549 C   0  0  1  0  0  0  0  0  0  0  0  0
   12.7203  -14.1736   19.5428 C   0  0  0  0  0  0  0  0  0  0  0  0
   14.1143  -13.9942   19.0725 C   0  0  0  0  0  0  0  0  0  0  0  0
   14.4389  -13.3948   18.0184 O   0  0  0  0  0  0  0  0  0  0  0  0
   11.1261  -15.9061   20.2974 C   0  0  0  0  0  0  0  0  0  0  0  0
   10.0143  -15.4377   19.9698 O   0  0  0  0  0  0  0  0  0  0  0  0
   15.1340  -14.5220   19.8451 O   0  0  0  0  0  0  0  0  0  0  0  0
    9.7357  -20.9700   23.7123 N   0  0  0  0  0  0  0  0  0  0  0  0
   10.9171  -20.2797   24.0779 C   0  0  0  0  0  0  0  0  0  0  0  0
   11.7909  -20.8102   24.7783 O   0  0  0  0  0  0  0  0  0  0  0  0
   11.1115  -18.8846   23.6087 C   0  0  0  0  0  0  0  0  0  0  0  0
    9.9408  -18.4189   22.7635 C   0  0  0  0  0  0  0  0  0  0  0  0
   10.0482  -17.0276   22.2903 C   0  0  2  0  0  0  0  0  0  0  0  0
   11.1454  -16.6790   21.4818 N   0  0  0  0  0  0  0  0  0  0  0  0
    9.9075  -16.1214   23.4723 C   0  0  0  0  0  0  0  0  0  0  0  0
   10.9266  -15.6903   24.0934 O   0  0  0  0  0  0  0  0  0  0  0  0
    7.1503  -10.6404   26.4673 C   0  0  0  0  0  0  0  0  0  0  0  0
    6.1033  -12.0620   26.0580 S   0  0  0  0  0  0  0  0  0  0  0  0
    6.8841  -13.6183   26.5666 C   0  0  0  0  0  0  0  0  0  0  0  0
    7.1289  -14.4428   25.3318 C   0  0  0  0  0  0  0  0  0  0  0  0
    8.5744  -14.8653   25.1734 C   0  0  2  0  0  0  0  0  0  0  0  0
    8.6498  -15.6862   23.9755 N   0  0  0  0  0  0  0  0  0  0  0  0
    8.8721  -15.7161   26.3841 C   0  0  0  0  0  0  0  0  0  0  0  0
    9.0723  -15.2112   27.5178 O   0  0  0  0  0  0  0  0  0  0  0  0
    8.9349  -17.0984   26.2820 O   0  0  0  0  0  0  0  0  0  0  0  0
  2  1  1  6
  2  3  1  0
  4  3  1  0
  4  8  1  0
  5  4  2  0
  6  2  1  0
  7  6  2  0
  9 10  1  0
 10 12  1  0
 11 10  2  0
 12 13  1  0
 14 13  1  1
 14 15  1  0
 15  6  1  0
 16 23  1  0
 16 14  1  0
 17 16  2  0
 18 19  1  0
 19 20  1  0
 21 20  1  0
 22 21  1  1
 22 23  1  0
 24 22  1  0
 24 26  1  0
 25 24  2  0
M  END
$$$$
