QSY.pdb
     RDKit          3D

 28 28  0  0  1  0  0  0  0  0999 V2000
   12.8750  -19.5350   16.4751 N   0  0  0  0  0  0  0  0  0  0  0  0
   12.1102  -18.3477   16.4262 C   0  0  0  0  0  0  0  0  0  0  0  0
   12.6102  -17.2064   16.3267 O   0  0  0  0  0  0  0  0  0  0  0  0
   10.6222  -18.4726   16.4980 C   0  0  0  0  0  0  0  0  0  0  0  0
   10.1047  -17.4309   17.4350 C   0  0  0  0  0  0  0  0  0  0  0  0
    9.6781  -18.0800   18.7501 C   0  0  2  0  0  0  0  0  0  0  0  0
    8.5290  -18.9327   18.3487 N   0  0  0  0  0  0  0  0  0  0  0  0
    9.1697  -17.1211   19.7296 C   0  0  0  0  0  0  0  0  0  0  0  0
    9.9407  -16.2127   20.1687 O   0  0  0  0  0  0  0  0  0  0  0  0
    5.6068  -17.5944   21.8698 O   0  0  0  0  0  0  0  0  0  0  0  0
    5.9934  -16.2957   21.5462 C   0  0  0  0  0  0  0  0  0  0  0  0
    7.5099  -16.2158   21.3700 C   0  0  2  0  0  0  0  0  0  0  0  0
    7.8434  -17.0920   20.2652 N   0  0  0  0  0  0  0  0  0  0  0  0
    8.2162  -16.4773   22.6146 C   0  0  0  0  0  0  0  0  0  0  0  0
    8.8020  -17.6001   22.7153 O   0  0  0  0  0  0  0  0  0  0  0  0
    4.9435  -11.6467   26.9119 O   0  0  0  0  0  0  0  0  0  0  0  0
    6.0574  -12.4338   26.6515 C   0  0  0  0  0  0  0  0  0  0  0  0
    6.5506  -13.3326   27.5702 C   0  0  0  0  0  0  0  0  0  0  0  0
    7.6627  -14.0914   27.2595 C   0  0  0  0  0  0  0  0  0  0  0  0
    8.3327  -14.0075   26.0564 C   0  0  0  0  0  0  0  0  0  0  0  0
    9.5279  -14.7926   25.6942 C   0  0  0  0  0  0  0  0  0  0  0  0
    9.1455  -15.9957   24.9094 C   0  0  2  0  0  0  0  0  0  0  0  0
    8.3309  -15.6226   23.7374 N   0  0  0  0  0  0  0  0  0  0  0  0
    8.3435  -16.9199   25.7209 C   0  0  0  0  0  0  0  0  0  0  0  0
    7.1069  -17.0726   25.4430 O   0  0  0  0  0  0  0  0  0  0  0  0
    7.8056  -13.0839   25.1434 C   0  0  0  0  0  0  0  0  0  0  0  0
    6.6977  -12.3209   25.4393 C   0  0  0  0  0  0  0  0  0  0  0  0
    8.8392  -17.6528   26.7820 O   0  0  0  0  0  0  0  0  0  0  0  0
  2  1  1  0
  3  2  2  0
  4  2  1  0
  5  6  1  0
  5  4  1  0
  6  8  1  0
  6  7  1  6
  8  9  2  0
 10 11  1  0
 12 11  1  1
 13 12  1  0
 13  8  1  0
 14 12  1  0
 14 15  2  0
 16 17  1  0
 17 27  2  0
 17 18  1  0
 18 19  2  0
 19 20  1  0
 20 21  1  0
 22 21  1  1
 22 23  1  0
 22 24  1  0
 23 14  1  0
 24 28  1  0
 25 24  2  0
 26 20  2  0
 27 26  1  0
M  END
$$$$
