QSY.pdb
     RDKit          3D

 28 28  0  0  1  0  0  0  0  0999 V2000
    6.9792  -12.7978   18.3855 N   0  0  0  0  0  0  0  0  0  0  0  0
    8.2827  -13.0871   18.8482 C   0  0  0  0  0  0  0  0  0  0  0  0
    9.1429  -12.2117   19.0848 O   0  0  0  0  0  0  0  0  0  0  0  0
    8.6444  -14.5216   19.0640 C   0  0  0  0  0  0  0  0  0  0  0  0
    8.3673  -14.8700   20.4897 C   0  0  0  0  0  0  0  0  0  0  0  0
    8.7001  -16.3395   20.7400 C   0  0  2  0  0  0  0  0  0  0  0  0
    7.5790  -17.0571   20.0792 N   0  0  0  0  0  0  0  0  0  0  0  0
    8.6611  -16.7080   22.1543 C   0  0  0  0  0  0  0  0  0  0  0  0
    7.5741  -16.5854   22.7992 O   0  0  0  0  0  0  0  0  0  0  0  0
   11.6324  -18.8577   24.1009 O   0  0  0  0  0  0  0  0  0  0  0  0
   10.2855  -18.9845   24.4333 C   0  0  0  0  0  0  0  0  0  0  0  0
    9.5694  -17.6412   24.2920 C   0  0  2  0  0  0  0  0  0  0  0  0
    9.7579  -17.2158   22.9197 N   0  0  0  0  0  0  0  0  0  0  0  0
    9.9926  -16.6902   25.3083 C   0  0  0  0  0  0  0  0  0  0  0  0
   11.0072  -15.9755   25.0365 O   0  0  0  0  0  0  0  0  0  0  0  0
    6.2242  -11.0644   25.1645 O   0  0  0  0  0  0  0  0  0  0  0  0
    6.9445  -11.9772   25.9236 C   0  0  0  0  0  0  0  0  0  0  0  0
    8.2716  -12.2484   25.6786 C   0  0  0  0  0  0  0  0  0  0  0  0
    8.9413  -13.1662   26.4649 C   0  0  0  0  0  0  0  0  0  0  0  0
    8.3537  -13.8499   27.5092 C   0  0  0  0  0  0  0  0  0  0  0  0
    9.0332  -14.8434   28.3620 C   0  0  0  0  0  0  0  0  0  0  0  0
   10.0488  -15.5967   27.5804 C   0  0  2  0  0  0  0  0  0  0  0  0
    9.4035  -16.4626   26.5753 N   0  0  0  0  0  0  0  0  0  0  0  0
   10.8475  -16.4647   28.4547 C   0  0  0  0  0  0  0  0  0  0  0  0
   10.7490  -17.7310   28.3254 O   0  0  0  0  0  0  0  0  0  0  0  0
    7.0026  -13.5512   27.7325 C   0  0  0  0  0  0  0  0  0  0  0  0
    6.3225  -12.6385   26.9570 C   0  0  0  0  0  0  0  0  0  0  0  0
   11.7167  -16.0028   29.4241 O   0  0  0  0  0  0  0  0  0  0  0  0
  2  1  1  0
  3  2  2  0
  4  2  1  0
  5  6  1  0
  5  4  1  0
  6  8  1  0
  6  7  1  6
  8  9  2  0
 10 11  1  0
 12 11  1  6
 13 12  1  0
 13  8  1  0
 14 12  1  0
 14 15  2  0
 16 17  1  0
 17 27  2  0
 17 18  1  0
 18 19  2  0
 19 20  1  0
 20 21  1  0
 22 21  1  1
 22 23  1  0
 22 24  1  0
 23 14  1  0
 24 28  1  0
 25 24  2  0
 26 20  2  0
 27 26  1  0
M  END
$$$$
