QSY.pdb
     RDKit          3D

 28 28  0  0  1  0  0  0  0  0999 V2000
    5.1834  -17.5499   21.6439 N   0  0  0  0  0  0  0  0  0  0  0  0
    5.7897  -16.5504   22.4378 C   0  0  0  0  0  0  0  0  0  0  0  0
    5.4482  -16.2991   23.6136 O   0  0  0  0  0  0  0  0  0  0  0  0
    6.8998  -15.7544   21.8301 C   0  0  0  0  0  0  0  0  0  0  0  0
    7.0520  -16.1677   20.4029 C   0  0  0  0  0  0  0  0  0  0  0  0
    8.4804  -15.8995   19.9333 C   0  0  2  0  0  0  0  0  0  0  0  0
    8.4822  -16.4217   18.5420 N   0  0  0  0  0  0  0  0  0  0  0  0
    9.4845  -16.6637   20.6718 C   0  0  0  0  0  0  0  0  0  0  0  0
    9.1952  -17.1253   21.8189 O   0  0  0  0  0  0  0  0  0  0  0  0
   13.5776  -16.4857   20.0667 O   0  0  0  0  0  0  0  0  0  0  0  0
   13.0591  -17.7557   20.3094 C   0  0  0  0  0  0  0  0  0  0  0  0
   11.7440  -17.6593   21.0830 C   0  0  2  0  0  0  0  0  0  0  0  0
   10.8093  -16.9630   20.2221 N   0  0  0  0  0  0  0  0  0  0  0  0
   11.9320  -17.0806   22.4044 C   0  0  0  0  0  0  0  0  0  0  0  0
   12.1358  -15.8277   22.4568 O   0  0  0  0  0  0  0  0  0  0  0  0
    9.6434  -14.0817   30.1748 O   0  0  0  0  0  0  0  0  0  0  0  0
    9.9432  -14.5679   28.9092 C   0  0  0  0  0  0  0  0  0  0  0  0
   11.2388  -14.7057   28.4651 C   0  0  0  0  0  0  0  0  0  0  0  0
   11.4811  -15.1950   27.1957 C   0  0  0  0  0  0  0  0  0  0  0  0
   10.4842  -15.5654   26.3169 C   0  0  0  0  0  0  0  0  0  0  0  0
   10.7044  -16.0806   24.9523 C   0  0  0  0  0  0  0  0  0  0  0  0
   11.8643  -17.0099   24.9247 C   0  0  2  0  0  0  0  0  0  0  0  0
   11.9140  -17.7520   23.6506 N   0  0  0  0  0  0  0  0  0  0  0  0
   11.7692  -18.0018   26.0031 C   0  0  0  0  0  0  0  0  0  0  0  0
   12.0425  -17.6441   27.1978 O   0  0  0  0  0  0  0  0  0  0  0  0
    9.1770  -15.4131   26.7993 C   0  0  0  0  0  0  0  0  0  0  0  0
    8.9206  -14.9270   28.0622 C   0  0  0  0  0  0  0  0  0  0  0  0
   11.3959  -19.3189   25.8166 O   0  0  0  0  0  0  0  0  0  0  0  0
  2  1  1  0
  3  2  2  0
  4  2  1  0
  5  6  1  0
  5  4  1  0
  6  8  1  0
  6  7  1  6
  8  9  2  0
 10 11  1  0
 12 11  1  6
 13 12  1  0
 13  8  1  0
 14 12  1  0
 14 15  2  0
 16 17  1  0
 17 27  2  0
 17 18  1  0
 18 19  2  0
 19 20  1  0
 20 21  1  0
 22 21  1  6
 22 23  1  0
 22 24  1  0
 23 14  1  0
 24 28  1  0
 25 24  2  0
 26 20  2  0
 27 26  1  0
M  END
$$$$
