QSY.pdb
     RDKit          3D

 28 28  0  0  1  0  0  0  0  0999 V2000
    7.4077  -12.9817   17.0840 N   0  0  0  0  0  0  0  0  0  0  0  0
    8.2244  -13.8343   16.3076 C   0  0  0  0  0  0  0  0  0  0  0  0
    8.3196  -13.7570   15.0637 O   0  0  0  0  0  0  0  0  0  0  0  0
    9.0148  -14.8837   17.0212 C   0  0  0  0  0  0  0  0  0  0  0  0
    8.5146  -14.9796   18.4253 C   0  0  0  0  0  0  0  0  0  0  0  0
    9.2361  -16.1086   19.1585 C   0  0  2  0  0  0  0  0  0  0  0  0
    8.7901  -17.3241   18.4291 N   0  0  0  0  0  0  0  0  0  0  0  0
    8.8025  -16.2665   20.5458 C   0  0  0  0  0  0  0  0  0  0  0  0
    7.5798  -16.5051   20.7918 O   0  0  0  0  0  0  0  0  0  0  0  0
    9.3374  -18.8104   22.5515 O   0  0  0  0  0  0  0  0  0  0  0  0
    8.4266  -17.8275   22.9323 C   0  0  0  0  0  0  0  0  0  0  0  0
    9.1138  -16.4649   23.0215 C   0  0  2  0  0  0  0  0  0  0  0  0
    9.6410  -16.1818   21.7018 N   0  0  0  0  0  0  0  0  0  0  0  0
   10.0796  -16.4134   24.1081 C   0  0  0  0  0  0  0  0  0  0  0  0
   10.8888  -17.3883   24.2015 O   0  0  0  0  0  0  0  0  0  0  0  0
    6.0866  -10.4206   26.5603 O   0  0  0  0  0  0  0  0  0  0  0  0
    6.6437  -11.6917   26.6051 C   0  0  0  0  0  0  0  0  0  0  0  0
    7.3336  -12.1511   27.7042 C   0  0  0  0  0  0  0  0  0  0  0  0
    7.8681  -13.4253   27.6960 C   0  0  0  0  0  0  0  0  0  0  0  0
    7.7548  -14.2941   26.6303 C   0  0  0  0  0  0  0  0  0  0  0  0
    8.3208  -15.6554   26.5816 C   0  0  0  0  0  0  0  0  0  0  0  0
    9.8029  -15.6026   26.4804 C   0  0  2  0  0  0  0  0  0  0  0  0
   10.2281  -15.3973   25.0828 N   0  0  0  0  0  0  0  0  0  0  0  0
   10.4065  -16.8601   26.9391 C   0  0  0  0  0  0  0  0  0  0  0  0
   10.3572  -17.8833   26.1771 O   0  0  0  0  0  0  0  0  0  0  0  0
    7.0470  -13.7964   25.5277 C   0  0  0  0  0  0  0  0  0  0  0  0
    6.5086  -12.5287   25.5218 C   0  0  0  0  0  0  0  0  0  0  0  0
   11.0383  -17.0198   28.1572 O   0  0  0  0  0  0  0  0  0  0  0  0
  2  1  1  0
  3  2  2  0
  4  2  1  0
  5  6  1  0
  5  4  1  0
  6  8  1  0
  6  7  1  6
  8  9  2  0
 10 11  1  0
 12 11  1  6
 13 12  1  0
 13  8  1  0
 14 12  1  0
 14 15  2  0
 16 17  1  0
 17 27  2  0
 17 18  1  0
 18 19  2  0
 19 20  1  0
 20 21  1  0
 22 21  1  6
 22 23  1  0
 22 24  1  0
 23 14  1  0
 24 28  1  0
 25 24  2  0
 26 20  2  0
 27 26  1  0
M  END
$$$$
