QSY.pdb
     RDKit          3D

 28 28  0  0  1  0  0  0  0  0999 V2000
    8.2596  -12.0701   18.4271 N   0  0  0  0  0  0  0  0  0  0  0  0
    8.8657  -13.2661   18.8734 C   0  0  0  0  0  0  0  0  0  0  0  0
   10.0668  -13.3496   19.2090 O   0  0  0  0  0  0  0  0  0  0  0  0
    8.0163  -14.4944   18.9450 C   0  0  0  0  0  0  0  0  0  0  0  0
    7.7496  -14.8019   20.3820 C   0  0  0  0  0  0  0  0  0  0  0  0
    7.5849  -16.3088   20.5695 C   0  0  2  0  0  0  0  0  0  0  0  0
    6.2328  -16.5727   20.0123 N   0  0  0  0  0  0  0  0  0  0  0  0
    7.5492  -16.7160   21.9733 C   0  0  0  0  0  0  0  0  0  0  0  0
    6.5156  -16.4659   22.6673 O   0  0  0  0  0  0  0  0  0  0  0  0
    9.9292  -19.5800   23.6559 O   0  0  0  0  0  0  0  0  0  0  0  0
    8.6824  -19.2473   24.1808 C   0  0  0  0  0  0  0  0  0  0  0  0
    8.4406  -17.7414   24.0755 C   0  0  2  0  0  0  0  0  0  0  0  0
    8.5930  -17.3963   22.6764 N   0  0  0  0  0  0  0  0  0  0  0  0
    9.2741  -16.9910   25.0020 C   0  0  0  0  0  0  0  0  0  0  0  0
   10.3668  -16.5312   24.5454 O   0  0  0  0  0  0  0  0  0  0  0  0
    5.7548  -11.7499   24.8675 O   0  0  0  0  0  0  0  0  0  0  0  0
    6.5660  -12.5455   25.6657 C   0  0  0  0  0  0  0  0  0  0  0  0
    6.0696  -13.2610   26.7318 C   0  0  0  0  0  0  0  0  0  0  0  0
    6.9215  -14.0374   27.4937 C   0  0  0  0  0  0  0  0  0  0  0  0
    8.2753  -14.1478   27.2525 C   0  0  0  0  0  0  0  0  0  0  0  0
    9.2161  -14.9571   28.0500 C   0  0  0  0  0  0  0  0  0  0  0  0
    9.9488  -15.9152   27.1812 C   0  0  2  0  0  0  0  0  0  0  0  0
    9.0108  -16.7081   26.3639 N   0  0  0  0  0  0  0  0  0  0  0  0
   10.7326  -16.8611   27.9855 C   0  0  0  0  0  0  0  0  0  0  0  0
   10.4337  -18.1016   27.9462 O   0  0  0  0  0  0  0  0  0  0  0  0
    8.7489  -13.4075   26.1606 C   0  0  0  0  0  0  0  0  0  0  0  0
    7.9115  -12.6295   25.3922 C   0  0  0  0  0  0  0  0  0  0  0  0
   11.7922  -16.5005   28.7955 O   0  0  0  0  0  0  0  0  0  0  0  0
  2  1  1  0
  3  2  2  0
  4  2  1  0
  5  6  1  0
  5  4  1  0
  6  8  1  0
  6  7  1  1
  8  9  2  0
 10 11  1  0
 12 11  1  6
 13 12  1  0
 13  8  1  0
 14 12  1  0
 14 15  2  0
 16 17  1  0
 17 27  2  0
 17 18  1  0
 18 19  2  0
 19 20  1  0
 20 21  1  0
 22 21  1  1
 22 23  1  0
 22 24  1  0
 23 14  1  0
 24 28  1  0
 25 24  2  0
 26 20  2  0
 27 26  1  0
M  END
$$$$
