QSY.pdb
     RDKit          3D

 28 28  0  0  1  0  0  0  0  0999 V2000
    6.3710  -20.1871   22.8601 N   0  0  0  0  0  0  0  0  0  0  0  0
    6.6045  -21.4064   22.1851 C   0  0  0  0  0  0  0  0  0  0  0  0
    5.8353  -22.3897   22.2469 O   0  0  0  0  0  0  0  0  0  0  0  0
    7.8420  -21.5179   21.3535 C   0  0  0  0  0  0  0  0  0  0  0  0
    8.5464  -20.2010   21.3748 C   0  0  0  0  0  0  0  0  0  0  0  0
    7.9708  -19.2859   20.2958 C   0  0  2  0  0  0  0  0  0  0  0  0
    8.7160  -19.6919   19.0759 N   0  0  0  0  0  0  0  0  0  0  0  0
    8.2667  -17.8716   20.5195 C   0  0  0  0  0  0  0  0  0  0  0  0
    9.3580  -17.3885   20.0856 O   0  0  0  0  0  0  0  0  0  0  0  0
    5.4908  -15.2476   21.4443 O   0  0  0  0  0  0  0  0  0  0  0  0
    6.7006  -14.6639   21.0752 C   0  0  0  0  0  0  0  0  0  0  0  0
    7.8705  -15.5780   21.4400 C   0  0  2  0  0  0  0  0  0  0  0  0
    7.4244  -16.9352   21.1978 N   0  0  0  0  0  0  0  0  0  0  0  0
    8.3716  -15.3110   22.7794 C   0  0  0  0  0  0  0  0  0  0  0  0
    7.9883  -14.2318   23.3294 O   0  0  0  0  0  0  0  0  0  0  0  0
    5.9748  -10.7178   26.5029 O   0  0  0  0  0  0  0  0  0  0  0  0
    6.5493  -11.9705   26.3330 C   0  0  0  0  0  0  0  0  0  0  0  0
    7.8682  -12.2193   26.6387 C   0  0  0  0  0  0  0  0  0  0  0  0
    8.3896  -13.4850   26.4504 C   0  0  0  0  0  0  0  0  0  0  0  0
    7.6576  -14.5476   25.9624 C   0  0  0  0  0  0  0  0  0  0  0  0
    8.1825  -15.9079   25.7383 C   0  0  0  0  0  0  0  0  0  0  0  0
    9.4637  -15.8570   24.9864 C   0  0  2  0  0  0  0  0  0  0  0  0
    9.2425  -16.1173   23.5512 N   0  0  0  0  0  0  0  0  0  0  0  0
   10.4008  -16.8767   25.4745 C   0  0  0  0  0  0  0  0  0  0  0  0
   10.5697  -17.9399   24.7884 O   0  0  0  0  0  0  0  0  0  0  0  0
    6.3189  -14.2615   25.6612 C   0  0  0  0  0  0  0  0  0  0  0  0
    5.7857  -13.0048   25.8439 C   0  0  0  0  0  0  0  0  0  0  0  0
   11.1292  -16.7665   26.6432 O   0  0  0  0  0  0  0  0  0  0  0  0
  2  1  1  0
  3  2  2  0
  4  2  1  0
  5  6  1  0
  5  4  1  0
  6  8  1  0
  6  7  1  6
  8  9  2  0
 10 11  1  0
 12 11  1  1
 13 12  1  0
 13  8  1  0
 14 12  1  0
 14 15  2  0
 16 17  1  0
 17 27  2  0
 17 18  1  0
 18 19  2  0
 19 20  1  0
 20 21  1  0
 22 21  1  1
 22 23  1  0
 22 24  1  0
 23 14  1  0
 24 28  1  0
 25 24  2  0
 26 20  2  0
 27 26  1  0
M  END
$$$$
