QSY.pdb
     RDKit          3D

 28 28  0  0  1  0  0  0  0  0999 V2000
    8.5881  -12.1803   18.0287 N   0  0  0  0  0  0  0  0  0  0  0  0
    8.4216  -13.3597   17.2683 C   0  0  0  0  0  0  0  0  0  0  0  0
    9.1884  -13.6993   16.3414 O   0  0  0  0  0  0  0  0  0  0  0  0
    7.2620  -14.2442   17.5972 C   0  0  0  0  0  0  0  0  0  0  0  0
    7.0125  -14.1699   19.0680 C   0  0  0  0  0  0  0  0  0  0  0  0
    8.2898  -14.5167   19.8303 C   0  0  2  0  0  0  0  0  0  0  0  0
    8.8218  -15.6862   19.0835 N   0  0  0  0  0  0  0  0  0  0  0  0
    8.0415  -14.9678   21.1987 C   0  0  0  0  0  0  0  0  0  0  0  0
    7.3001  -14.2708   21.9584 O   0  0  0  0  0  0  0  0  0  0  0  0
    8.2200  -18.8496   22.8296 O   0  0  0  0  0  0  0  0  0  0  0  0
    7.4393  -17.7498   23.1783 C   0  0  0  0  0  0  0  0  0  0  0  0
    8.2817  -16.4740   23.1834 C   0  0  2  0  0  0  0  0  0  0  0  0
    8.5611  -16.1589   21.7969 N   0  0  0  0  0  0  0  0  0  0  0  0
    9.4460  -16.5950   24.0471 C   0  0  0  0  0  0  0  0  0  0  0  0
   10.1217  -17.6665   23.9502 O   0  0  0  0  0  0  0  0  0  0  0  0
    6.0311  -10.5546   26.7944 O   0  0  0  0  0  0  0  0  0  0  0  0
    6.6020  -11.8203   26.7855 C   0  0  0  0  0  0  0  0  0  0  0  0
    7.9595  -12.0128   26.9081 C   0  0  0  0  0  0  0  0  0  0  0  0
    8.4753  -13.2946   26.8931 C   0  0  0  0  0  0  0  0  0  0  0  0
    7.7004  -14.4280   26.7593 C   0  0  0  0  0  0  0  0  0  0  0  0
    8.2161  -15.8097   26.7280 C   0  0  0  0  0  0  0  0  0  0  0  0
    9.6736  -15.8177   26.4357 C   0  0  2  0  0  0  0  0  0  0  0  0
    9.9216  -15.6530   24.9908 N   0  0  0  0  0  0  0  0  0  0  0  0
   10.2841  -17.0904   26.8401 C   0  0  0  0  0  0  0  0  0  0  0  0
   10.7719  -17.1960   28.0152 O   0  0  0  0  0  0  0  0  0  0  0  0
    6.3232  -14.1980   26.6368 C   0  0  0  0  0  0  0  0  0  0  0  0
    5.7950  -12.9260   26.6504 C   0  0  0  0  0  0  0  0  0  0  0  0
   10.3686  -18.2045   26.0275 O   0  0  0  0  0  0  0  0  0  0  0  0
  2  1  1  0
  3  2  2  0
  4  2  1  0
  5  6  1  0
  5  4  1  0
  6  8  1  0
  6  7  1  6
  8  9  2  0
 10 11  1  0
 12 11  1  6
 13 12  1  0
 13  8  1  0
 14 12  1  0
 14 15  2  0
 16 17  1  0
 17 27  2  0
 17 18  1  0
 18 19  2  0
 19 20  1  0
 20 21  1  0
 22 21  1  6
 22 23  1  0
 22 24  1  0
 23 14  1  0
 24 28  1  0
 25 24  2  0
 26 20  2  0
 27 26  1  0
M  END
$$$$
