QSY.pdb
     RDKit          3D

 28 28  0  0  1  0  0  0  0  0999 V2000
   16.2062  -18.4633   19.6573 N   0  0  0  0  0  0  0  0  0  0  0  0
   15.2378  -19.4768   19.8356 C   0  0  0  0  0  0  0  0  0  0  0  0
   15.5153  -20.6932   19.9110 O   0  0  0  0  0  0  0  0  0  0  0  0
   13.8049  -19.0628   19.9388 C   0  0  0  0  0  0  0  0  0  0  0  0
   13.3853  -18.4803   18.6290 C   0  0  0  0  0  0  0  0  0  0  0  0
   11.8751  -18.6274   18.4543 C   0  0  2  0  0  0  0  0  0  0  0  0
   11.6249  -17.9962   17.1325 N   0  0  0  0  0  0  0  0  0  0  0  0
   11.1032  -17.8683   19.4369 C   0  0  0  0  0  0  0  0  0  0  0  0
   11.2200  -16.6044   19.4776 O   0  0  0  0  0  0  0  0  0  0  0  0
    8.1242  -19.4980   21.8738 O   0  0  0  0  0  0  0  0  0  0  0  0
    7.9990  -18.2268   21.3179 C   0  0  0  0  0  0  0  0  0  0  0  0
    9.3662  -17.5511   21.2110 C   0  0  2  0  0  0  0  0  0  0  0  0
   10.1912  -18.4169   20.3929 N   0  0  0  0  0  0  0  0  0  0  0  0
    9.9104  -17.2159   22.5178 C   0  0  0  0  0  0  0  0  0  0  0  0
   10.7464  -18.0324   23.0163 O   0  0  0  0  0  0  0  0  0  0  0  0
   10.9580  -14.6616   30.8525 O   0  0  0  0  0  0  0  0  0  0  0  0
   10.5885  -14.6665   29.5140 C   0  0  0  0  0  0  0  0  0  0  0  0
    9.2723  -14.5965   29.1169 C   0  0  0  0  0  0  0  0  0  0  0  0
    8.9600  -14.6050   27.7709 C   0  0  0  0  0  0  0  0  0  0  0  0
    9.9044  -14.6814   26.7683 C   0  0  0  0  0  0  0  0  0  0  0  0
    9.6081  -14.7037   25.3234 C   0  0  0  0  0  0  0  0  0  0  0  0
   10.0259  -15.9980   24.7235 C   0  0  2  0  0  0  0  0  0  0  0  0
    9.6183  -16.0781   23.3079 N   0  0  0  0  0  0  0  0  0  0  0  0
    9.3996  -17.1278   25.4216 C   0  0  0  0  0  0  0  0  0  0  0  0
   10.0950  -17.8029   26.2526 O   0  0  0  0  0  0  0  0  0  0  0  0
   11.2342  -14.7511   27.2055 C   0  0  0  0  0  0  0  0  0  0  0  0
   11.5604  -14.7435   28.5437 C   0  0  0  0  0  0  0  0  0  0  0  0
    8.0868  -17.5197   25.2438 O   0  0  0  0  0  0  0  0  0  0  0  0
  2  1  1  0
  3  2  2  0
  4  2  1  0
  5  6  1  0
  5  4  1  0
  6  8  1  0
  6  7  1  6
  8  9  2  0
 10 11  1  0
 12 11  1  1
 13 12  1  0
 13  8  1  0
 14 12  1  0
 14 15  2  0
 16 17  1  0
 17 27  2  0
 17 18  1  0
 18 19  2  0
 19 20  1  0
 20 21  1  0
 22 21  1  1
 22 23  1  0
 22 24  1  0
 23 14  1  0
 24 28  1  0
 25 24  2  0
 26 20  2  0
 27 26  1  0
M  END
$$$$
