IGY.pdb
     RDKit          3D

 25 25  0  0  1  0  0  0  0  0999 V2000
    7.0552  -12.3705   18.0013 C   0  0  0  0  0  0  0  0  0  0  0  0
    8.0593  -13.4758   18.2507 C   0  0  0  0  0  0  0  0  0  0  0  0
    7.7814  -14.1270   19.5876 C   0  0  2  0  0  0  0  0  0  0  0  0
    7.8398  -13.1211   20.6999 C   0  0  0  0  0  0  0  0  0  0  0  0
    8.8043  -15.2423   19.7973 C   0  0  2  0  0  0  0  0  0  0  0  0
    8.6344  -16.2378   18.7765 N   0  0  0  0  0  0  0  0  0  0  0  0
    8.6450  -15.8188   21.1668 C   0  0  0  0  0  0  0  0  0  0  0  0
    8.9594  -15.1192   22.1608 O   0  0  0  0  0  0  0  0  0  0  0  0
    8.1530  -17.1233   21.3790 N   0  0  0  0  0  0  0  0  0  0  0  0
    7.8531  -17.6102   22.7078 C   0  0  0  0  0  0  0  0  0  0  0  0
    8.9309  -17.2874   23.6696 C   0  0  0  0  0  0  0  0  0  0  0  0
   10.1199  -17.4411   23.3113 O   0  0  0  0  0  0  0  0  0  0  0  0
    5.4351  -11.8739   26.7707 O   0  0  0  0  0  0  0  0  0  0  0  0
    6.5845  -12.6398   26.5660 C   0  0  0  0  0  0  0  0  0  0  0  0
    6.7270  -13.3632   25.4088 C   0  0  0  0  0  0  0  0  0  0  0  0
    7.8753  -14.1281   25.2048 C   0  0  0  0  0  0  0  0  0  0  0  0
    8.8829  -14.1789   26.1432 C   0  0  0  0  0  0  0  0  0  0  0  0
   10.0665  -15.0007   25.8731 C   0  0  0  0  0  0  0  0  0  0  0  0
    9.7692  -16.4831   25.8328 C   0  0  2  0  0  0  0  0  0  0  0  0
    8.6738  -16.8122   24.9777 N   0  0  0  0  0  0  0  0  0  0  0  0
    9.4397  -16.8965   27.2135 C   0  0  0  0  0  0  0  0  0  0  0  0
   10.4057  -16.7686   28.1918 O   0  0  0  0  0  0  0  0  0  0  0  0
    8.7065  -13.4410   27.2919 C   0  0  0  0  0  0  0  0  0  0  0  0
    7.5741  -12.6747   27.5147 C   0  0  0  0  0  0  0  0  0  0  0  0
    8.3218  -17.3630   27.5583 O   0  0  0  0  0  0  0  0  0  0  0  0
  2  1  1  0
  2  3  1  0
  3  4  1  1
  5  3  1  0
  5  6  1  6
  7  5  1  0
  7  9  1  0
  8  7  2  0
 10  9  1  0
 11 10  1  0
 12 11  2  0
 13 14  1  0
 14 24  2  0
 14 15  1  0
 15 16  2  0
 16 17  1  0
 17 18  1  0
 19 18  1  1
 19 20  1  0
 20 11  1  0
 21 22  1  0
 21 19  1  0
 23 17  2  0
 24 23  1  0
 25 21  2  0
M  END
$$$$
