IGY.pdb
     RDKit          3D

 25 25  0  0  1  0  0  0  0  0999 V2000
    7.0042  -12.2278   27.7618 C   0  0  0  0  0  0  0  0  0  0  0  0
    6.3741  -13.3646   26.9854 C   0  0  0  0  0  0  0  0  0  0  0  0
    7.3118  -13.8152   25.8872 C   0  0  2  0  0  0  0  0  0  0  0  0
    7.7096  -12.6634   25.0112 C   0  0  0  0  0  0  0  0  0  0  0  0
    6.6118  -14.9071   25.0798 C   0  0  2  0  0  0  0  0  0  0  0  0
    6.3295  -16.0229   25.9385 N   0  0  0  0  0  0  0  0  0  0  0  0
    7.4685  -15.3019   23.9206 C   0  0  0  0  0  0  0  0  0  0  0  0
    7.7317  -14.4460   23.0405 O   0  0  0  0  0  0  0  0  0  0  0  0
    7.9909  -16.6045   23.7831 N   0  0  0  0  0  0  0  0  0  0  0  0
    8.8547  -16.9588   22.6780 C   0  0  0  0  0  0  0  0  0  0  0  0
   10.2856  -16.8191   23.0301 C   0  0  0  0  0  0  0  0  0  0  0  0
   11.1446  -17.0443   22.1485 O   0  0  0  0  0  0  0  0  0  0  0  0
    9.4789  -15.6206   30.3659 O   0  0  0  0  0  0  0  0  0  0  0  0
   10.1924  -15.4956   29.1723 C   0  0  0  0  0  0  0  0  0  0  0  0
   11.3238  -16.2452   28.9701 C   0  0  0  0  0  0  0  0  0  0  0  0
   12.0360  -16.1199   27.7776 C   0  0  0  0  0  0  0  0  0  0  0  0
   11.6316  -15.2546   26.7846 C   0  0  0  0  0  0  0  0  0  0  0  0
   12.4211  -15.1660   25.5525 C   0  0  0  0  0  0  0  0  0  0  0  0
   12.1204  -16.2743   24.5682 C   0  0  2  0  0  0  0  0  0  0  0  0
   10.7237  -16.4416   24.3218 N   0  0  0  0  0  0  0  0  0  0  0  0
   12.6577  -17.5245   25.1461 C   0  0  0  0  0  0  0  0  0  0  0  0
   11.7836  -18.5587   25.4164 O   0  0  0  0  0  0  0  0  0  0  0  0
   10.4926  -14.5185   27.0213 C   0  0  0  0  0  0  0  0  0  0  0  0
    9.7702  -14.6274   28.1983 C   0  0  0  0  0  0  0  0  0  0  0  0
   13.8752  -17.7087   25.4104 O   0  0  0  0  0  0  0  0  0  0  0  0
  2  1  1  0
  2  3  1  0
  3  4  1  6
  5  3  1  0
  5  6  1  1
  7  5  1  0
  7  9  1  0
  8  7  2  0
 10  9  1  0
 11 10  1  0
 12 11  2  0
 13 14  1  0
 14 24  2  0
 14 15  1  0
 15 16  2  0
 16 17  1  0
 17 18  1  0
 19 18  1  1
 19 20  1  0
 20 11  1  0
 21 22  1  0
 21 19  1  0
 23 17  2  0
 24 23  1  0
 25 21  2  0
M  END
$$$$
