IGY.pdb
     RDKit          3D

 25 25  0  0  1  0  0  0  0  0999 V2000
    6.7852  -12.4286   26.6674 C   0  0  0  0  0  0  0  0  0  0  0  0
    6.6763  -13.4933   25.5966 C   0  0  0  0  0  0  0  0  0  0  0  0
    8.0569  -13.8631   25.1008 C   0  0  2  0  0  0  0  0  0  0  0  0
    8.8018  -12.6502   24.6251 C   0  0  0  0  0  0  0  0  0  0  0  0
    7.9028  -14.8910   23.9811 C   0  0  2  0  0  0  0  0  0  0  0  0
    6.8748  -15.8282   24.3377 N   0  0  0  0  0  0  0  0  0  0  0  0
    9.2121  -15.5692   23.7383 C   0  0  0  0  0  0  0  0  0  0  0  0
   10.1725  -14.8942   23.2930 O   0  0  0  0  0  0  0  0  0  0  0  0
    9.4041  -16.9428   23.9930 N   0  0  0  0  0  0  0  0  0  0  0  0
   10.7129  -17.5523   23.9004 C   0  0  0  0  0  0  0  0  0  0  0  0
   11.3397  -17.7170   25.2311 C   0  0  0  0  0  0  0  0  0  0  0  0
   12.5429  -18.0559   25.2892 O   0  0  0  0  0  0  0  0  0  0  0  0
    8.4327  -11.9252   27.3275 O   0  0  0  0  0  0  0  0  0  0  0  0
    8.9963  -13.1488   27.6946 C   0  0  0  0  0  0  0  0  0  0  0  0
    8.1843  -14.2170   27.9817 C   0  0  0  0  0  0  0  0  0  0  0  0
    8.7479  -15.4389   28.3483 C   0  0  0  0  0  0  0  0  0  0  0  0
   10.1129  -15.6064   28.4316 C   0  0  0  0  0  0  0  0  0  0  0  0
   10.6471  -16.9146   28.8224 C   0  0  0  0  0  0  0  0  0  0  0  0
   11.3219  -17.6492   27.6855 C   0  0  2  0  0  0  0  0  0  0  0  0
   10.6360  -17.5075   26.4410 N   0  0  0  0  0  0  0  0  0  0  0  0
   11.3549  -19.0807   28.0537 C   0  0  0  0  0  0  0  0  0  0  0  0
   10.5742  -19.9670   27.3384 O   0  0  0  0  0  0  0  0  0  0  0  0
   10.8969  -14.5139   28.1368 C   0  0  0  0  0  0  0  0  0  0  0  0
   10.3581  -13.2914   27.7706 C   0  0  0  0  0  0  0  0  0  0  0  0
   12.0573  -19.5486   28.9884 O   0  0  0  0  0  0  0  0  0  0  0  0
  2  1  1  0
  2  3  1  0
  3  4  1  6
  5  3  1  0
  5  6  1  1
  7  5  1  0
  7  9  1  0
  8  7  2  0
 10  9  1  0
 11 10  1  0
 12 11  2  0
 13 14  1  0
 14 24  2  0
 14 15  1  0
 15 16  2  0
 16 17  1  0
 17 18  1  0
 19 18  1  1
 19 20  1  0
 20 11  1  0
 21 22  1  0
 21 19  1  0
 23 17  2  0
 24 23  1  0
 25 21  2  0
M  END
$$$$
