IGY.pdb
     RDKit          3D

 25 25  0  0  1  0  0  0  0  0999 V2000
    7.6585  -12.1009   19.7230 C   0  0  0  0  0  0  0  0  0  0  0  0
    7.9497  -13.4120   20.4219 C   0  0  0  0  0  0  0  0  0  0  0  0
    8.1800  -14.4987   19.3950 C   0  0  2  0  0  0  0  0  0  0  0  0
    6.9939  -14.6427   18.4868 C   0  0  0  0  0  0  0  0  0  0  0  0
    8.4694  -15.8028   20.1364 C   0  0  2  0  0  0  0  0  0  0  0  0
    7.3318  -16.1524   20.9400 N   0  0  0  0  0  0  0  0  0  0  0  0
    9.7054  -15.6474   20.9620 C   0  0  0  0  0  0  0  0  0  0  0  0
   10.8163  -15.9354   20.4527 O   0  0  0  0  0  0  0  0  0  0  0  0
    9.6646  -15.1880   22.2946 N   0  0  0  0  0  0  0  0  0  0  0  0
   10.8517  -15.1622   23.1211 C   0  0  0  0  0  0  0  0  0  0  0  0
   10.6390  -15.8526   24.4130 C   0  0  0  0  0  0  0  0  0  0  0  0
   11.5985  -15.9390   25.2116 O   0  0  0  0  0  0  0  0  0  0  0  0
    6.6636  -10.9701   26.1935 O   0  0  0  0  0  0  0  0  0  0  0  0
    6.9650  -12.3265   26.3305 C   0  0  0  0  0  0  0  0  0  0  0  0
    6.5024  -13.2267   25.4039 C   0  0  0  0  0  0  0  0  0  0  0  0
    6.8037  -14.5815   25.5412 C   0  0  0  0  0  0  0  0  0  0  0  0
    7.5615  -15.0478   26.5932 C   0  0  0  0  0  0  0  0  0  0  0  0
    7.8456  -16.4831   26.6847 C   0  0  0  0  0  0  0  0  0  0  0  0
    9.1995  -16.8619   26.1271 C   0  0  2  0  0  0  0  0  0  0  0  0
    9.3963  -16.4193   24.7837 N   0  0  0  0  0  0  0  0  0  0  0  0
    9.2852  -18.3375   26.1623 C   0  0  0  0  0  0  0  0  0  0  0  0
    9.2275  -18.9755   27.3856 O   0  0  0  0  0  0  0  0  0  0  0  0
    8.0088  -14.1171   27.5036 C   0  0  0  0  0  0  0  0  0  0  0  0
    7.7213  -12.7670   27.3863 C   0  0  0  0  0  0  0  0  0  0  0  0
    9.4087  -19.0577   25.1367 O   0  0  0  0  0  0  0  0  0  0  0  0
  2  1  1  0
  2  3  1  0
  3  4  1  1
  5  3  1  0
  5  6  1  1
  7  5  1  0
  7  9  1  0
  8  7  2  0
 10  9  1  0
 11 10  1  0
 12 11  2  0
 13 14  1  0
 14 24  2  0
 14 15  1  0
 15 16  2  0
 16 17  1  0
 17 18  1  0
 19 18  1  6
 19 20  1  0
 20 11  1  0
 21 22  1  0
 21 19  1  0
 23 17  2  0
 24 23  1  0
 25 21  2  0
M  END
$$$$
