IGY.pdb
     RDKit          3D

 25 25  0  0  1  0  0  0  0  0999 V2000
    7.6141  -13.4590   16.3466 C   0  0  0  0  0  0  0  0  0  0  0  0
    7.8568  -14.6903   17.1935 C   0  0  0  0  0  0  0  0  0  0  0  0
    8.3487  -14.2796   18.5638 C   0  0  2  0  0  0  0  0  0  0  0  0
    9.6189  -13.4863   18.4656 C   0  0  0  0  0  0  0  0  0  0  0  0
    8.5502  -15.5438   19.3976 C   0  0  2  0  0  0  0  0  0  0  0  0
    7.2964  -16.2325   19.5230 N   0  0  0  0  0  0  0  0  0  0  0  0
    9.1197  -15.1807   20.7307 C   0  0  0  0  0  0  0  0  0  0  0  0
   10.3556  -14.9834   20.8300 O   0  0  0  0  0  0  0  0  0  0  0  0
    8.3140  -15.0526   21.8810 N   0  0  0  0  0  0  0  0  0  0  0  0
    8.8507  -14.5493   23.1266 C   0  0  0  0  0  0  0  0  0  0  0  0
    9.1687  -15.6430   24.0718 C   0  0  0  0  0  0  0  0  0  0  0  0
    8.6366  -16.7617   23.8951 O   0  0  0  0  0  0  0  0  0  0  0  0
    6.0633  -10.9866   26.8571 O   0  0  0  0  0  0  0  0  0  0  0  0
    6.6448  -12.2560   26.8551 C   0  0  0  0  0  0  0  0  0  0  0  0
    5.9892  -13.3075   26.2657 C   0  0  0  0  0  0  0  0  0  0  0  0
    6.5705  -14.5753   26.2640 C   0  0  0  0  0  0  0  0  0  0  0  0
    7.7989  -14.8051   26.8440 C   0  0  0  0  0  0  0  0  0  0  0  0
    8.3595  -16.1594   26.8111 C   0  0  0  0  0  0  0  0  0  0  0  0
    9.8079  -16.1970   26.3769 C   0  0  2  0  0  0  0  0  0  0  0  0
   10.0494  -15.4775   25.1672 N   0  0  0  0  0  0  0  0  0  0  0  0
   10.1607  -17.6174   26.1677 C   0  0  0  0  0  0  0  0  0  0  0  0
   10.1186  -18.4766   27.2478 O   0  0  0  0  0  0  0  0  0  0  0  0
    8.4280  -13.7277   27.4259 C   0  0  0  0  0  0  0  0  0  0  0  0
    7.8687  -12.4604   27.4389 C   0  0  0  0  0  0  0  0  0  0  0  0
   10.5009  -18.0992   25.0550 O   0  0  0  0  0  0  0  0  0  0  0  0
  2  1  1  0
  2  3  1  0
  3  4  1  6
  5  3  1  0
  5  6  1  1
  7  5  1  0
  7  9  1  0
  8  7  2  0
 10  9  1  0
 11 10  1  0
 12 11  2  0
 13 14  1  0
 14 24  2  0
 14 15  1  0
 15 16  2  0
 16 17  1  0
 17 18  1  0
 19 18  1  6
 19 20  1  0
 20 11  1  0
 21 22  1  0
 21 19  1  0
 23 17  2  0
 24 23  1  0
 25 21  2  0
M  END
$$$$
