IGY.pdb
     RDKit          3D

 25 25  0  0  1  0  0  0  0  0999 V2000
    0.5066  -19.8975   22.4411 C   0  0  0  0  0  0  0  0  0  0  0  0
    1.9892  -20.0964   22.2080 C   0  0  0  0  0  0  0  0  0  0  0  0
    2.5136  -19.0103   21.2949 C   0  0  2  0  0  0  0  0  0  0  0  0
    1.8353  -19.0565   19.9569 C   0  0  0  0  0  0  0  0  0  0  0  0
    4.0240  -19.1920   21.1549 C   0  0  2  0  0  0  0  0  0  0  0  0
    4.3000  -20.5274   20.7050 N   0  0  0  0  0  0  0  0  0  0  0  0
    4.6884  -18.8979   22.4609 C   0  0  0  0  0  0  0  0  0  0  0  0
    5.2178  -19.8407   23.0989 O   0  0  0  0  0  0  0  0  0  0  0  0
    4.7399  -17.5959   23.0000 N   0  0  0  0  0  0  0  0  0  0  0  0
    5.3902  -17.3272   24.2640 C   0  0  0  0  0  0  0  0  0  0  0  0
    6.8141  -16.9647   24.0854 C   0  0  0  0  0  0  0  0  0  0  0  0
    7.3159  -17.0512   22.9423 O   0  0  0  0  0  0  0  0  0  0  0  0
    5.2464  -11.8121   27.7344 O   0  0  0  0  0  0  0  0  0  0  0  0
    6.2276  -12.5286   27.0464 C   0  0  0  0  0  0  0  0  0  0  0  0
    7.4698  -12.6963   27.6047 C   0  0  0  0  0  0  0  0  0  0  0  0
    8.4494  -13.4120   26.9169 C   0  0  0  0  0  0  0  0  0  0  0  0
    8.2030  -13.9623   25.6780 C   0  0  0  0  0  0  0  0  0  0  0  0
    9.2722  -14.7043   25.0032 C   0  0  0  0  0  0  0  0  0  0  0  0
    8.9969  -16.1878   24.8982 C   0  0  2  0  0  0  0  0  0  0  0  0
    7.6326  -16.5242   25.1526 N   0  0  0  0  0  0  0  0  0  0  0  0
    9.8505  -16.8588   25.9016 C   0  0  0  0  0  0  0  0  0  0  0  0
   11.2221  -16.7891   25.7578 O   0  0  0  0  0  0  0  0  0  0  0  0
    6.9463  -13.7745   25.1483 C   0  0  0  0  0  0  0  0  0  0  0  0
    5.9587  -13.0671   25.8142 C   0  0  0  0  0  0  0  0  0  0  0  0
    9.4018  -17.4971   26.8902 O   0  0  0  0  0  0  0  0  0  0  0  0
  2  1  1  0
  2  3  1  0
  3  4  1  6
  5  3  1  0
  5  6  1  1
  7  5  1  0
  7  9  1  0
  8  7  2  0
 10  9  1  0
 11 10  1  0
 12 11  2  0
 13 14  1  0
 14 24  2  0
 14 15  1  0
 15 16  2  0
 16 17  1  0
 17 18  1  0
 19 18  1  1
 19 20  1  0
 20 11  1  0
 21 22  1  0
 21 19  1  0
 23 17  2  0
 24 23  1  0
 25 21  2  0
M  END
$$$$
