IGY.pdb
     RDKit          3D

 25 25  0  0  1  0  0  0  0  0999 V2000
    7.4090  -12.3011   20.1262 C   0  0  0  0  0  0  0  0  0  0  0  0
    7.1350  -13.6421   20.7732 C   0  0  0  0  0  0  0  0  0  0  0  0
    8.4395  -14.2847   21.1903 C   0  0  2  0  0  0  0  0  0  0  0  0
    9.3985  -14.3554   20.0380 C   0  0  0  0  0  0  0  0  0  0  0  0
    8.1320  -15.6769   21.7392 C   0  0  2  0  0  0  0  0  0  0  0  0
    7.1981  -15.5619   22.8239 N   0  0  0  0  0  0  0  0  0  0  0  0
    9.4012  -16.3395   22.1675 C   0  0  0  0  0  0  0  0  0  0  0  0
   10.0470  -17.0148   21.3288 O   0  0  0  0  0  0  0  0  0  0  0  0
    9.8973  -16.2309   23.4830 N   0  0  0  0  0  0  0  0  0  0  0  0
   11.1728  -16.8010   23.8585 C   0  0  0  0  0  0  0  0  0  0  0  0
   11.4721  -16.5860   25.2921 C   0  0  0  0  0  0  0  0  0  0  0  0
   12.5842  -16.9521   25.7338 O   0  0  0  0  0  0  0  0  0  0  0  0
    5.5904  -12.7130   25.5763 O   0  0  0  0  0  0  0  0  0  0  0  0
    6.8149  -13.0694   26.1448 C   0  0  0  0  0  0  0  0  0  0  0  0
    7.9482  -13.0882   25.3714 C   0  0  0  0  0  0  0  0  0  0  0  0
    9.1710  -13.4442   25.9397 C   0  0  0  0  0  0  0  0  0  0  0  0
    9.2752  -13.7817   27.2714 C   0  0  0  0  0  0  0  0  0  0  0  0
   10.5878  -14.1475   27.8125 C   0  0  0  0  0  0  0  0  0  0  0  0
   11.0015  -15.5623   27.4737 C   0  0  2  0  0  0  0  0  0  0  0  0
   10.5538  -15.9839   26.1849 N   0  0  0  0  0  0  0  0  0  0  0  0
   10.4066  -16.4451   28.4997 C   0  0  0  0  0  0  0  0  0  0  0  0
    9.6201  -17.5028   28.0883 O   0  0  0  0  0  0  0  0  0  0  0  0
    8.1185  -13.7521   28.0172 C   0  0  0  0  0  0  0  0  0  0  0  0
    6.8938  -13.4015   27.4730 C   0  0  0  0  0  0  0  0  0  0  0  0
   10.5731  -16.2923   29.7386 O   0  0  0  0  0  0  0  0  0  0  0  0
  2  1  1  0
  2  3  1  0
  3  4  1  6
  5  3  1  0
  5  6  1  1
  7  5  1  0
  7  9  1  0
  8  7  2  0
 10  9  1  0
 11 10  1  0
 12 11  2  0
 13 14  1  0
 14 24  2  0
 14 15  1  0
 15 16  2  0
 16 17  1  0
 17 18  1  0
 19 18  1  1
 19 20  1  0
 20 11  1  0
 21 22  1  0
 21 19  1  0
 23 17  2  0
 24 23  1  0
 25 21  2  0
M  END
$$$$
