IGY.pdb
     RDKit          3D

 25 25  0  0  1  0  0  0  0  0999 V2000
    7.0911  -12.7688   17.8153 C   0  0  0  0  0  0  0  0  0  0  0  0
    8.1999  -13.7182   18.2169 C   0  0  0  0  0  0  0  0  0  0  0  0
    7.8997  -14.3091   19.5767 C   0  0  2  0  0  0  0  0  0  0  0  0
    7.8650  -13.2429   20.6323 C   0  0  0  0  0  0  0  0  0  0  0  0
    8.9652  -15.3591   19.8870 C   0  0  2  0  0  0  0  0  0  0  0  0
    8.9259  -16.3841   18.8821 N   0  0  0  0  0  0  0  0  0  0  0  0
    8.7392  -15.9148   21.2557 C   0  0  0  0  0  0  0  0  0  0  0  0
    8.9177  -15.1702   22.2507 O   0  0  0  0  0  0  0  0  0  0  0  0
    8.3318  -17.2483   21.4661 N   0  0  0  0  0  0  0  0  0  0  0  0
    7.9902  -17.7344   22.7851 C   0  0  0  0  0  0  0  0  0  0  0  0
    9.0274  -17.3927   23.7843 C   0  0  0  0  0  0  0  0  0  0  0  0
   10.1841  -17.8428   23.6255 O   0  0  0  0  0  0  0  0  0  0  0  0
    5.3600  -11.7282   26.7506 O   0  0  0  0  0  0  0  0  0  0  0  0
    6.5152  -12.4790   26.5242 C   0  0  0  0  0  0  0  0  0  0  0  0
    7.5118  -12.5016   27.4671 C   0  0  0  0  0  0  0  0  0  0  0  0
    8.6655  -13.2518   27.2404 C   0  0  0  0  0  0  0  0  0  0  0  0
    8.8355  -13.9796   26.0829 C   0  0  0  0  0  0  0  0  0  0  0  0
   10.0700  -14.7491   25.9007 C   0  0  0  0  0  0  0  0  0  0  0  0
    9.8360  -16.2397   25.7957 C   0  0  2  0  0  0  0  0  0  0  0  0
    8.7665  -16.5784   24.9120 N   0  0  0  0  0  0  0  0  0  0  0  0
    9.5064  -16.7231   27.1535 C   0  0  0  0  0  0  0  0  0  0  0  0
   10.4571  -16.6046   28.1479 O   0  0  0  0  0  0  0  0  0  0  0  0
    7.8158  -13.9340   25.1592 C   0  0  0  0  0  0  0  0  0  0  0  0
    6.6617  -13.1956   25.3641 C   0  0  0  0  0  0  0  0  0  0  0  0
    8.4018  -17.2419   27.4645 O   0  0  0  0  0  0  0  0  0  0  0  0
  2  1  1  0
  2  3  1  0
  3  4  1  1
  5  3  1  0
  5  6  1  6
  7  5  1  0
  7  9  1  0
  8  7  2  0
 10  9  1  0
 11 10  1  0
 12 11  2  0
 13 14  1  0
 14 24  2  0
 14 15  1  0
 15 16  2  0
 16 17  1  0
 17 18  1  0
 19 18  1  1
 19 20  1  0
 20 11  1  0
 21 22  1  0
 21 19  1  0
 23 17  2  0
 24 23  1  0
 25 21  2  0
M  END
$$$$
