IGY.pdb
     RDKit          3D

 25 25  0  0  1  0  0  0  0  0999 V2000
    7.6794  -12.3359   22.3341 C   0  0  0  0  0  0  0  0  0  0  0  0
    7.9150  -13.8271   22.4478 C   0  0  0  0  0  0  0  0  0  0  0  0
    7.8293  -14.4641   21.0784 C   0  0  2  0  0  0  0  0  0  0  0  0
    6.4272  -14.4112   20.5457 C   0  0  0  0  0  0  0  0  0  0  0  0
    8.3235  -15.9055   21.1904 C   0  0  2  0  0  0  0  0  0  0  0  0
    7.4133  -16.6551   22.0099 N   0  0  0  0  0  0  0  0  0  0  0  0
    9.7106  -15.9190   21.7463 C   0  0  0  0  0  0  0  0  0  0  0  0
   10.6112  -15.2811   21.1476 O   0  0  0  0  0  0  0  0  0  0  0  0
   10.0411  -16.6249   22.9214 N   0  0  0  0  0  0  0  0  0  0  0  0
   11.3370  -16.4828   23.5485 C   0  0  0  0  0  0  0  0  0  0  0  0
   11.2383  -16.4875   25.0254 C   0  0  0  0  0  0  0  0  0  0  0  0
   12.2791  -16.3075   25.6963 O   0  0  0  0  0  0  0  0  0  0  0  0
    6.6979  -11.3854   25.6688 O   0  0  0  0  0  0  0  0  0  0  0  0
    7.1981  -12.5822   26.1855 C   0  0  0  0  0  0  0  0  0  0  0  0
    6.6308  -13.7760   25.8171 C   0  0  0  0  0  0  0  0  0  0  0  0
    7.1308  -14.9712   26.3335 C   0  0  0  0  0  0  0  0  0  0  0  0
    8.1908  -14.9879   27.2137 C   0  0  0  0  0  0  0  0  0  0  0  0
    8.6728  -16.2753   27.7231 C   0  0  0  0  0  0  0  0  0  0  0  0
   10.0054  -16.6888   27.1392 C   0  0  2  0  0  0  0  0  0  0  0  0
   10.0165  -16.6869   25.7112 N   0  0  0  0  0  0  0  0  0  0  0  0
   10.2815  -18.0600   27.6183 C   0  0  0  0  0  0  0  0  0  0  0  0
   10.3559  -19.0826   26.6934 O   0  0  0  0  0  0  0  0  0  0  0  0
    8.7352  -13.7722   27.5613 C   0  0  0  0  0  0  0  0  0  0  0  0
    8.2542  -12.5736   27.0602 C   0  0  0  0  0  0  0  0  0  0  0  0
   10.4550  -18.3583   28.8294 O   0  0  0  0  0  0  0  0  0  0  0  0
  2  1  1  0
  2  3  1  0
  3  4  1  1
  5  3  1  0
  5  6  1  1
  7  5  1  0
  7  9  1  0
  8  7  2  0
 10  9  1  0
 11 10  1  0
 12 11  2  0
 13 14  1  0
 14 24  2  0
 14 15  1  0
 15 16  2  0
 16 17  1  0
 17 18  1  0
 19 18  1  6
 19 20  1  0
 20 11  1  0
 21 22  1  0
 21 19  1  0
 23 17  2  0
 24 23  1  0
 25 21  2  0
M  END
$$$$
