IGY.pdb
     RDKit          3D

 25 25  0  0  1  0  0  0  0  0999 V2000
    8.7363  -12.6083   20.4012 C   0  0  0  0  0  0  0  0  0  0  0  0
    8.6302  -13.7126   21.4314 C   0  0  0  0  0  0  0  0  0  0  0  0
    7.9112  -14.9020   20.8338 C   0  0  2  0  0  0  0  0  0  0  0  0
    6.4882  -14.5604   20.5010 C   0  0  0  0  0  0  0  0  0  0  0  0
    7.9831  -16.0551   21.8334 C   0  0  2  0  0  0  0  0  0  0  0  0
    7.1783  -15.7382   22.9797 N   0  0  0  0  0  0  0  0  0  0  0  0
    9.4077  -16.3069   22.2080 C   0  0  0  0  0  0  0  0  0  0  0  0
   10.0560  -17.1794   21.5796 O   0  0  0  0  0  0  0  0  0  0  0  0
   10.0477  -15.5964   23.2444 N   0  0  0  0  0  0  0  0  0  0  0  0
   11.4449  -15.8081   23.5542 C   0  0  0  0  0  0  0  0  0  0  0  0
   11.6721  -15.9458   25.0103 C   0  0  0  0  0  0  0  0  0  0  0  0
   12.8368  -16.1524   25.4184 O   0  0  0  0  0  0  0  0  0  0  0  0
    5.5768  -12.5599   25.9007 O   0  0  0  0  0  0  0  0  0  0  0  0
    6.7649  -13.0748   26.4230 C   0  0  0  0  0  0  0  0  0  0  0  0
    7.6181  -12.2552   27.1182 C   0  0  0  0  0  0  0  0  0  0  0  0
    8.8047  -12.7701   27.6397 C   0  0  0  0  0  0  0  0  0  0  0  0
    9.1492  -14.0939   27.4750 C   0  0  0  0  0  0  0  0  0  0  0  0
   10.4098  -14.5778   28.0459 C   0  0  0  0  0  0  0  0  0  0  0  0
   10.9469  -15.8099   27.3522 C   0  0  2  0  0  0  0  0  0  0  0  0
   10.6277  -15.8539   25.9610 N   0  0  0  0  0  0  0  0  0  0  0  0
   10.3409  -16.9817   28.0197 C   0  0  0  0  0  0  0  0  0  0  0  0
   10.6150  -17.1984   29.3556 O   0  0  0  0  0  0  0  0  0  0  0  0
    8.2701  -14.8870   26.7726 C   0  0  0  0  0  0  0  0  0  0  0  0
    7.0863  -14.3962   26.2462 C   0  0  0  0  0  0  0  0  0  0  0  0
    9.5824  -17.8040   27.4414 O   0  0  0  0  0  0  0  0  0  0  0  0
  2  1  1  0
  2  3  1  0
  3  4  1  1
  5  3  1  0
  5  6  1  1
  7  5  1  0
  7  9  1  0
  8  7  2  0
 10  9  1  0
 11 10  1  0
 12 11  2  0
 13 14  1  0
 14 24  2  0
 14 15  1  0
 15 16  2  0
 16 17  1  0
 17 18  1  0
 19 18  1  1
 19 20  1  0
 20 11  1  0
 21 22  1  0
 21 19  1  0
 23 17  2  0
 24 23  1  0
 25 21  2  0
M  END
$$$$
