IGY.pdb
     RDKit          3D

 25 25  0  0  1  0  0  0  0  0999 V2000
    7.9362  -12.1705   19.2018 C   0  0  0  0  0  0  0  0  0  0  0  0
    7.6786  -13.2806   20.1984 C   0  0  0  0  0  0  0  0  0  0  0  0
    8.1159  -14.6052   19.6129 C   0  0  2  0  0  0  0  0  0  0  0  0
    7.3847  -14.8978   18.3354 C   0  0  0  0  0  0  0  0  0  0  0  0
    7.8650  -15.6940   20.6548 C   0  0  2  0  0  0  0  0  0  0  0  0
    6.4582  -15.7662   20.9340 N   0  0  0  0  0  0  0  0  0  0  0  0
    8.6608  -15.4040   21.8860 C   0  0  0  0  0  0  0  0  0  0  0  0
    8.1195  -14.7682   22.8236 O   0  0  0  0  0  0  0  0  0  0  0  0
   10.0002  -15.8213   22.0291 N   0  0  0  0  0  0  0  0  0  0  0  0
   10.8778  -15.2201   23.0096 C   0  0  0  0  0  0  0  0  0  0  0  0
   10.6119  -15.7299   24.3735 C   0  0  0  0  0  0  0  0  0  0  0  0
   11.4955  -15.5905   25.2485 O   0  0  0  0  0  0  0  0  0  0  0  0
    6.6562  -10.8055   26.6011 O   0  0  0  0  0  0  0  0  0  0  0  0
    6.9145  -12.1772   26.5682 C   0  0  0  0  0  0  0  0  0  0  0  0
    7.5811  -12.7727   27.6093 C   0  0  0  0  0  0  0  0  0  0  0  0
    7.8388  -14.1429   27.5759 C   0  0  0  0  0  0  0  0  0  0  0  0
    7.4386  -14.9254   26.5148 C   0  0  0  0  0  0  0  0  0  0  0  0
    7.7380  -16.3604   26.5358 C   0  0  0  0  0  0  0  0  0  0  0  0
    9.1500  -16.6835   26.1006 C   0  0  2  0  0  0  0  0  0  0  0  0
    9.4003  -16.3684   24.7304 N   0  0  0  0  0  0  0  0  0  0  0  0
    9.3437  -18.1354   26.3011 C   0  0  0  0  0  0  0  0  0  0  0  0
    9.3069  -18.6374   27.5869 O   0  0  0  0  0  0  0  0  0  0  0  0
    6.7726  -14.2950   25.4881 C   0  0  0  0  0  0  0  0  0  0  0  0
    6.5062  -12.9356   25.5010 C   0  0  0  0  0  0  0  0  0  0  0  0
    9.5422  -18.9527   25.3638 O   0  0  0  0  0  0  0  0  0  0  0  0
  2  1  1  0
  2  3  1  0
  3  4  1  6
  5  3  1  0
  5  6  1  1
  7  5  1  0
  7  9  1  0
  8  7  2  0
 10  9  1  0
 11 10  1  0
 12 11  2  0
 13 14  1  0
 14 24  2  0
 14 15  1  0
 15 16  2  0
 16 17  1  0
 17 18  1  0
 19 18  1  6
 19 20  1  0
 20 11  1  0
 21 22  1  0
 21 19  1  0
 23 17  2  0
 24 23  1  0
 25 21  2  0
M  END
$$$$
