VHM.pdb
     RDKit          3D

 26 26  0  0  1  0  0  0  0  0999 V2000
   28.9929  -17.9636  -18.4153 C   0  0  0  0  0  0  0  0  0  0  0  0
   28.2423  -18.0117  -17.1192 C   0  0  1  0  0  0  0  0  0  0  0  0
   28.5493  -16.8046  -16.2469 C   0  0  0  0  0  0  0  0  0  0  0  0
   26.7708  -18.1392  -17.3573 C   0  0  2  0  0  0  0  0  0  0  0  0
   26.2763  -16.9164  -18.0357 N   0  0  0  0  0  0  0  0  0  0  0  0
   25.9723  -18.2804  -16.1193 C   0  0  0  0  0  0  0  0  0  0  0  0
   25.7446  -17.2257  -15.4190 O   0  0  0  0  0  0  0  0  0  0  0  0
   25.4209  -19.4689  -15.6164 N   0  0  0  0  0  0  0  0  0  0  0  0
   24.6389  -19.4562  -14.3486 C   0  0  1  0  0  0  0  0  0  0  0  0
   23.3288  -20.0559  -14.7280 C   0  0  0  0  0  0  0  0  0  0  0  0
   22.3718  -19.2046  -15.4189 C   0  0  0  0  0  0  0  0  0  0  0  0
   22.4554  -17.8768  -15.7593 C   0  0  0  0  0  0  0  0  0  0  0  0
   21.3262  -17.4652  -16.3711 N   0  0  0  0  0  0  0  0  0  0  0  0
   20.5187  -18.5399  -16.4196 C   0  0  0  0  0  0  0  0  0  0  0  0
   21.1322  -19.5776  -15.8561 N   0  0  0  0  0  0  0  0  0  0  0  0
   25.4400  -20.1757  -13.3632 C   0  0  0  0  0  0  0  0  0  0  0  0
   26.0663  -21.2152  -13.6820 O   0  0  0  0  0  0  0  0  0  0  0  0
   29.0971  -19.0511   -7.3776 C   0  0  0  0  0  0  0  0  0  0  0  0
   27.3607  -19.4215   -7.2277 S   0  0  0  0  0  0  0  0  0  0  0  0
   26.7144  -20.4530   -8.5224 C   0  0  0  0  0  0  0  0  0  0  0  0
   26.2834  -19.7736   -9.7701 C   0  0  0  0  0  0  0  0  0  0  0  0
   26.0795  -20.6244  -10.9796 C   0  0  2  0  0  0  0  0  0  0  0  0
   25.5597  -19.7503  -12.0266 N   0  0  0  0  0  0  0  0  0  0  0  0
   25.2442  -21.7849  -10.6843 C   0  0  0  0  0  0  0  0  0  0  0  0
   23.8902  -21.8249  -10.8948 O   0  0  0  0  0  0  0  0  0  0  0  0
   25.7696  -22.8228  -10.2107 O   0  0  0  0  0  0  0  0  0  0  0  0
  2  4  1  0
  2  1  1  6
  3  2  1  0
  4  6  1  0
  4  5  1  1
  6  7  2  0
  8  9  1  0
  8  6  1  0
  9 16  1  0
 10 11  1  0
  9 10  1  6
 11 15  1  0
 12 11  2  0
 12 13  1  0
 13 14  1  0
 15 14  2  0
 16 17  2  0
 18 19  1  0
 19 20  1  0
 20 21  1  0
 22 21  1  1
 22 24  1  0
 23 22  1  0
 23 16  1  0
 24 26  2  0
 24 25  1  0
M  END
$$$$
