VHM.pdb
     RDKit          3D

 26 26  0  0  1  0  0  0  0  0999 V2000
   22.7985  -13.0702  -20.8434 C   0  0  0  0  0  0  0  0  0  0  0  0
   21.8847  -12.1422  -20.1020 C   0  0  1  0  0  0  0  0  0  0  0  0
   20.6856  -12.8773  -19.5241 C   0  0  0  0  0  0  0  0  0  0  0  0
   22.6252  -11.4030  -19.0327 C   0  0  2  0  0  0  0  0  0  0  0  0
   23.2704  -12.3778  -18.1197 N   0  0  0  0  0  0  0  0  0  0  0  0
   21.7630  -10.5479  -18.1868 C   0  0  0  0  0  0  0  0  0  0  0  0
   21.1409   -9.5702  -18.7453 O   0  0  0  0  0  0  0  0  0  0  0  0
   21.5429  -10.6940  -16.8085 N   0  0  0  0  0  0  0  0  0  0  0  0
   20.5957   -9.7891  -16.0994 C   0  0  1  0  0  0  0  0  0  0  0  0
   19.8788  -10.6893  -15.1528 C   0  0  0  0  0  0  0  0  0  0  0  0
   18.5135  -11.0679  -15.4849 C   0  0  0  0  0  0  0  0  0  0  0  0
   17.7169  -10.6729  -16.5315 C   0  0  0  0  0  0  0  0  0  0  0  0
   16.4980  -11.2442  -16.4504 N   0  0  0  0  0  0  0  0  0  0  0  0
   16.5201  -12.0082  -15.3435 C   0  0  0  0  0  0  0  0  0  0  0  0
   17.7139  -11.9092  -14.7638 N   0  0  0  0  0  0  0  0  0  0  0  0
   21.4031   -8.7204  -15.5194 C   0  0  0  0  0  0  0  0  0  0  0  0
   22.4841   -8.9778  -14.9368 O   0  0  0  0  0  0  0  0  0  0  0  0
   23.6218   -1.8863  -17.2279 C   0  0  0  0  0  0  0  0  0  0  0  0
   22.1108   -2.4156  -16.4458 S   0  0  0  0  0  0  0  0  0  0  0  0
   22.2877   -3.8315  -15.3869 C   0  0  0  0  0  0  0  0  0  0  0  0
   21.5953   -5.0755  -15.8077 C   0  0  0  0  0  0  0  0  0  0  0  0
   21.8439   -6.3062  -15.0003 C   0  0  2  0  0  0  0  0  0  0  0  0
   21.0269   -7.3653  -15.5844 N   0  0  0  0  0  0  0  0  0  0  0  0
   21.6107   -6.0708  -13.5783 C   0  0  0  0  0  0  0  0  0  0  0  0
   22.5737   -5.6268  -12.7096 O   0  0  0  0  0  0  0  0  0  0  0  0
   20.4700   -6.2767  -13.0945 O   0  0  0  0  0  0  0  0  0  0  0  0
  2  4  1  0
  2  1  1  1
  3  2  1  0
  4  6  1  0
  4  5  1  1
  6  7  2  0
  8  9  1  0
  8  6  1  0
  9 16  1  0
 10 11  1  0
  9 10  1  1
 11 15  1  0
 12 11  2  0
 12 13  1  0
 13 14  1  0
 15 14  2  0
 16 17  2  0
 18 19  1  0
 19 20  1  0
 20 21  1  0
 22 21  1  6
 22 24  1  0
 23 22  1  0
 23 16  1  0
 24 26  2  0
 24 25  1  0
M  END
$$$$
