VHM.pdb
     RDKit          3D

 26 26  0  0  1  0  0  0  0  0999 V2000
   29.4235  -19.3505  -18.3918 C   0  0  0  0  0  0  0  0  0  0  0  0
   28.6052  -18.9590  -17.1990 C   0  0  1  0  0  0  0  0  0  0  0  0
   28.7823  -17.4886  -16.8542 C   0  0  0  0  0  0  0  0  0  0  0  0
   27.1612  -19.2890  -17.4090 C   0  0  2  0  0  0  0  0  0  0  0  0
   26.6499  -18.5310  -18.5770 N   0  0  0  0  0  0  0  0  0  0  0  0
   26.2912  -18.9304  -16.2667 C   0  0  0  0  0  0  0  0  0  0  0  0
   25.8180  -17.7354  -16.2144 O   0  0  0  0  0  0  0  0  0  0  0  0
   25.9151  -19.7748  -15.2108 N   0  0  0  0  0  0  0  0  0  0  0  0
   24.9223  -19.3158  -14.1995 C   0  0  1  0  0  0  0  0  0  0  0  0
   23.6720  -19.1200  -14.9860 C   0  0  0  0  0  0  0  0  0  0  0  0
   23.3834  -17.7789  -15.4717 C   0  0  0  0  0  0  0  0  0  0  0  0
   24.0605  -16.6013  -15.2692 C   0  0  0  0  0  0  0  0  0  0  0  0
   23.4331  -15.5750  -15.8789 N   0  0  0  0  0  0  0  0  0  0  0  0
   22.3489  -16.1045  -16.4735 C   0  0  0  0  0  0  0  0  0  0  0  0
   22.3118  -17.4134  -16.2364 N   0  0  0  0  0  0  0  0  0  0  0  0
   24.8984  -20.3340  -13.1540 C   0  0  0  0  0  0  0  0  0  0  0  0
   24.8260  -21.5519  -13.4468 O   0  0  0  0  0  0  0  0  0  0  0  0
   27.1844  -18.8575   -7.1036 C   0  0  0  0  0  0  0  0  0  0  0  0
   27.7018  -20.3746   -7.8817 S   0  0  0  0  0  0  0  0  0  0  0  0
   26.4032  -21.2508   -8.7205 C   0  0  0  0  0  0  0  0  0  0  0  0
   25.4386  -20.4358   -9.5012 C   0  0  0  0  0  0  0  0  0  0  0  0
   24.8803  -21.0397  -10.7470 C   0  0  2  0  0  0  0  0  0  0  0  0
   24.9607  -20.0158  -11.7840 N   0  0  0  0  0  0  0  0  0  0  0  0
   23.5420  -21.5807  -10.5274 C   0  0  0  0  0  0  0  0  0  0  0  0
   23.2971  -22.8350  -10.0312 O   0  0  0  0  0  0  0  0  0  0  0  0
   22.5368  -20.8778  -10.7980 O   0  0  0  0  0  0  0  0  0  0  0  0
  2  4  1  0
  2  1  1  6
  3  2  1  0
  4  6  1  0
  4  5  1  6
  6  7  2  0
  8  9  1  0
  8  6  1  0
  9 16  1  0
 10 11  1  0
  9 10  1  6
 11 15  1  0
 12 11  2  0
 12 13  1  0
 13 14  1  0
 15 14  2  0
 16 17  2  0
 18 19  1  0
 19 20  1  0
 20 21  1  0
 22 21  1  1
 22 24  1  0
 23 22  1  0
 23 16  1  0
 24 26  2  0
 24 25  1  0
M  END
$$$$
