VHM.pdb
     RDKit          3D

 26 26  0  0  1  0  0  0  0  0999 V2000
   13.8225   -9.9614  -13.0119 C   0  0  0  0  0  0  0  0  0  0  0  0
   14.4849  -11.2744  -13.3002 C   0  0  1  0  0  0  0  0  0  0  0  0
   13.7007  -12.0878  -14.3179 C   0  0  0  0  0  0  0  0  0  0  0  0
   15.8976  -11.0739  -13.7497 C   0  0  2  0  0  0  0  0  0  0  0  0
   16.5905  -12.3848  -13.7881 N   0  0  0  0  0  0  0  0  0  0  0  0
   16.6954  -10.2072  -12.8539 C   0  0  0  0  0  0  0  0  0  0  0  0
   17.1700  -10.7214  -11.7745 O   0  0  0  0  0  0  0  0  0  0  0  0
   17.0001   -8.8531  -13.0615 N   0  0  0  0  0  0  0  0  0  0  0  0
   17.7438   -8.0835  -12.0254 C   0  0  1  0  0  0  0  0  0  0  0  0
   18.7728   -7.3363  -12.8019 C   0  0  0  0  0  0  0  0  0  0  0  0
   19.8696   -8.0998  -13.3779 C   0  0  0  0  0  0  0  0  0  0  0  0
   20.1799   -9.4318  -13.2533 C   0  0  0  0  0  0  0  0  0  0  0  0
   21.3063   -9.7288  -13.9329 N   0  0  0  0  0  0  0  0  0  0  0  0
   21.7150   -8.5764  -14.4937 C   0  0  0  0  0  0  0  0  0  0  0  0
   20.8671   -7.6036  -14.1689 N   0  0  0  0  0  0  0  0  0  0  0  0
   16.7493   -7.2937  -11.3059 C   0  0  0  0  0  0  0  0  0  0  0  0
   15.5816   -7.1754  -11.7495 O   0  0  0  0  0  0  0  0  0  0  0  0
   11.4090   -6.6790   -6.4562 C   0  0  0  0  0  0  0  0  0  0  0  0
   12.6950   -7.4118   -7.4482 S   0  0  0  0  0  0  0  0  0  0  0  0
   13.9638   -6.2784   -7.9614 C   0  0  0  0  0  0  0  0  0  0  0  0
   15.0392   -6.8221   -8.8286 C   0  0  0  0  0  0  0  0  0  0  0  0
   16.0299   -5.8528   -9.3829 C   0  0  2  0  0  0  0  0  0  0  0  0
   17.0346   -6.6374  -10.0935 N   0  0  0  0  0  0  0  0  0  0  0  0
   16.5636   -4.9778   -8.3429 C   0  0  0  0  0  0  0  0  0  0  0  0
   15.9365   -3.8397   -7.9061 O   0  0  0  0  0  0  0  0  0  0  0  0
   17.6589   -5.2602   -7.7967 O   0  0  0  0  0  0  0  0  0  0  0  0
  2  4  1  0
  2  1  1  6
  3  2  1  0
  4  6  1  0
  4  5  1  1
  6  7  2  0
  8  9  1  0
  8  6  1  0
  9 16  1  0
 10 11  1  0
  9 10  1  6
 11 15  1  0
 12 11  2  0
 12 13  1  0
 13 14  1  0
 15 14  2  0
 16 17  2  0
 18 19  1  0
 19 20  1  0
 20 21  1  0
 22 21  1  1
 22 24  1  0
 23 22  1  0
 23 16  1  0
 24 26  2  0
 24 25  1  0
M  END
$$$$
