VHM.pdb
     RDKit          3D

 26 26  0  0  1  0  0  0  0  0999 V2000
   19.5160  -15.6708  -20.9073 C   0  0  0  0  0  0  0  0  0  0  0  0
   19.6176  -14.1799  -20.7951 C   0  0  1  0  0  0  0  0  0  0  0  0
   18.3615  -13.4912  -21.3051 C   0  0  0  0  0  0  0  0  0  0  0  0
   19.9199  -13.7684  -19.3889 C   0  0  2  0  0  0  0  0  0  0  0  0
   18.8510  -14.2697  -18.4909 N   0  0  0  0  0  0  0  0  0  0  0  0
   19.9764  -12.3028  -19.1913 C   0  0  0  0  0  0  0  0  0  0  0  0
   20.9460  -11.6532  -19.7321 O   0  0  0  0  0  0  0  0  0  0  0  0
   19.0624  -11.5261  -18.4625 N   0  0  0  0  0  0  0  0  0  0  0  0
   19.2549  -10.0537  -18.3446 C   0  0  1  0  0  0  0  0  0  0  0  0
   17.8688   -9.5167  -18.2434 C   0  0  0  0  0  0  0  0  0  0  0  0
   17.7135   -8.1066  -17.9192 C   0  0  0  0  0  0  0  0  0  0  0  0
   18.6635   -7.1525  -17.6485 C   0  0  0  0  0  0  0  0  0  0  0  0
   18.0871   -5.9663  -17.3667 N   0  0  0  0  0  0  0  0  0  0  0  0
   16.7604   -6.1682  -17.4589 C   0  0  0  0  0  0  0  0  0  0  0  0
   16.5297   -7.4371  -17.7866 N   0  0  0  0  0  0  0  0  0  0  0  0
   20.1354   -9.8438  -17.1995 C   0  0  0  0  0  0  0  0  0  0  0  0
   20.0684  -10.5912  -16.1939 O   0  0  0  0  0  0  0  0  0  0  0  0
   27.0156  -10.4296  -14.4706 C   0  0  0  0  0  0  0  0  0  0  0  0
   25.7821  -10.3911  -15.7558 S   0  0  0  0  0  0  0  0  0  0  0  0
   24.3213   -9.4664  -15.3455 C   0  0  0  0  0  0  0  0  0  0  0  0
   23.2162   -9.4818  -16.3369 C   0  0  0  0  0  0  0  0  0  0  0  0
   22.0114   -8.6540  -16.0347 C   0  0  2  0  0  0  0  0  0  0  0  0
   21.0962   -8.8156  -17.1601 N   0  0  0  0  0  0  0  0  0  0  0  0
   22.3721   -7.2709  -15.7364 C   0  0  0  0  0  0  0  0  0  0  0  0
   22.6201   -6.8018  -14.4724 O   0  0  0  0  0  0  0  0  0  0  0  0
   22.4705   -6.4399  -16.6731 O   0  0  0  0  0  0  0  0  0  0  0  0
  2  4  1  0
  2  1  1  1
  3  2  1  0
  4  6  1  0
  4  5  1  1
  6  7  2  0
  8  9  1  0
  8  6  1  0
  9 16  1  0
 10 11  1  0
  9 10  1  1
 11 15  1  0
 12 11  2  0
 12 13  1  0
 13 14  1  0
 15 14  2  0
 16 17  2  0
 18 19  1  0
 19 20  1  0
 20 21  1  0
 22 21  1  6
 22 24  1  0
 23 22  1  0
 23 16  1  0
 24 26  2  0
 24 25  1  0
M  END
$$$$
