VHM.pdb
     RDKit          3D

 26 26  0  0  1  0  0  0  0  0999 V2000
   25.0884  -15.9529  -16.2700 C   0  0  0  0  0  0  0  0  0  0  0  0
   25.5566  -17.3448  -15.9713 C   0  0  1  0  0  0  0  0  0  0  0  0
   27.0003  -17.5561  -16.3994 C   0  0  0  0  0  0  0  0  0  0  0  0
   25.3751  -17.6711  -14.5226 C   0  0  2  0  0  0  0  0  0  0  0  0
   26.1777  -16.7302  -13.7038 N   0  0  0  0  0  0  0  0  0  0  0  0
   25.8240  -19.0320  -14.1529 C   0  0  0  0  0  0  0  0  0  0  0  0
   25.2069  -20.0366  -14.6674 O   0  0  0  0  0  0  0  0  0  0  0  0
   26.8777  -19.3525  -13.2832 N   0  0  0  0  0  0  0  0  0  0  0  0
   27.2044  -20.7764  -12.9922 C   0  0  1  0  0  0  0  0  0  0  0  0
   28.5921  -20.9400  -13.5095 C   0  0  0  0  0  0  0  0  0  0  0  0
   28.7587  -21.1495  -14.9400 C   0  0  0  0  0  0  0  0  0  0  0  0
   27.8153  -21.2813  -15.9293 C   0  0  0  0  0  0  0  0  0  0  0  0
   28.3998  -21.4923  -17.1261 N   0  0  0  0  0  0  0  0  0  0  0  0
   29.7251  -21.4948  -16.8956 C   0  0  0  0  0  0  0  0  0  0  0  0
   29.9470  -21.2918  -15.5992 N   0  0  0  0  0  0  0  0  0  0  0  0
   27.0024  -20.9608  -11.5585 C   0  0  0  0  0  0  0  0  0  0  0  0
   27.8959  -21.4800  -10.8468 O   0  0  0  0  0  0  0  0  0  0  0  0
   28.9019  -20.8070   -5.4377 C   0  0  0  0  0  0  0  0  0  0  0  0
   27.9068  -19.6112   -6.3064 S   0  0  0  0  0  0  0  0  0  0  0  0
   26.5609  -20.3090   -7.2333 C   0  0  0  0  0  0  0  0  0  0  0  0
   26.6802  -20.2838   -8.7130 C   0  0  0  0  0  0  0  0  0  0  0  0
   25.5682  -20.8917   -9.5017 C   0  0  2  0  0  0  0  0  0  0  0  0
   25.8200  -20.5688  -10.9026 N   0  0  0  0  0  0  0  0  0  0  0  0
   24.2630  -20.4672   -9.0036 C   0  0  0  0  0  0  0  0  0  0  0  0
   23.7481  -20.8461   -7.7909 O   0  0  0  0  0  0  0  0  0  0  0  0
   23.5484  -19.7086   -9.7046 O   0  0  0  0  0  0  0  0  0  0  0  0
  2  4  1  0
  2  1  1  1
  3  2  1  0
  4  6  1  0
  4  5  1  1
  6  7  2  0
  8  9  1  0
  8  6  1  0
  9 16  1  0
 10 11  1  0
  9 10  1  1
 11 15  1  0
 12 11  2  0
 12 13  1  0
 13 14  1  0
 15 14  2  0
 16 17  2  0
 18 19  1  0
 19 20  1  0
 20 21  1  0
 22 21  1  1
 22 24  1  0
 23 22  1  0
 23 16  1  0
 24 26  2  0
 24 25  1  0
M  END
$$$$
