VHM.pdb
     RDKit          3D

 26 26  0  0  1  0  0  0  0  0999 V2000
   31.8478  -34.2174  -16.1001 C   0  0  0  0  0  0  0  0  0  0  0  0
   32.5579  -33.0618  -16.7372 C   0  0  1  0  0  0  0  0  0  0  0  0
   33.7548  -33.5199  -17.5557 C   0  0  0  0  0  0  0  0  0  0  0  0
   31.6182  -32.2504  -17.5718 C   0  0  2  0  0  0  0  0  0  0  0  0
   32.3355  -31.0686  -18.1093 N   0  0  0  0  0  0  0  0  0  0  0  0
   30.4526  -31.7261  -16.8257 C   0  0  0  0  0  0  0  0  0  0  0  0
   30.1714  -30.4758  -16.9373 O   0  0  0  0  0  0  0  0  0  0  0  0
   29.5984  -32.4642  -15.9919 N   0  0  0  0  0  0  0  0  0  0  0  0
   28.2738  -31.9104  -15.5949 C   0  0  1  0  0  0  0  0  0  0  0  0
   27.5910  -31.6458  -16.8925 C   0  0  0  0  0  0  0  0  0  0  0  0
   26.2169  -31.1689  -16.8469 C   0  0  0  0  0  0  0  0  0  0  0  0
   25.3948  -30.9448  -15.7698 C   0  0  0  0  0  0  0  0  0  0  0  0
   24.1771  -30.5281  -16.1727 N   0  0  0  0  0  0  0  0  0  0  0  0
   24.2257  -30.4872  -17.5164 C   0  0  0  0  0  0  0  0  0  0  0  0
   25.4340  -30.8664  -17.9251 N   0  0  0  0  0  0  0  0  0  0  0  0
   27.6629  -32.8977  -14.7103 C   0  0  0  0  0  0  0  0  0  0  0  0
   27.7292  -34.1226  -14.9741 O   0  0  0  0  0  0  0  0  0  0  0  0
   23.8717  -31.6728   -8.8069 C   0  0  0  0  0  0  0  0  0  0  0  0
   25.2583  -32.7862   -8.6948 S   0  0  0  0  0  0  0  0  0  0  0  0
   25.6339  -33.6471  -10.2032 C   0  0  0  0  0  0  0  0  0  0  0  0
   26.1317  -32.8287  -11.3374 C   0  0  0  0  0  0  0  0  0  0  0  0
   26.4548  -33.5417  -12.6085 C   0  0  2  0  0  0  0  0  0  0  0  0
   26.9834  -32.5409  -13.5301 N   0  0  0  0  0  0  0  0  0  0  0  0
   25.3049  -34.2871  -13.1124 C   0  0  0  0  0  0  0  0  0  0  0  0
   25.2164  -35.6550  -13.1003 O   0  0  0  0  0  0  0  0  0  0  0  0
   24.3232  -33.6652  -13.5891 O   0  0  0  0  0  0  0  0  0  0  0  0
  2  4  1  0
  2  1  1  6
  3  2  1  0
  4  6  1  0
  4  5  1  1
  6  7  2  0
  8  9  1  0
  8  6  1  0
  9 16  1  0
 10 11  1  0
  9 10  1  6
 11 15  1  0
 12 11  2  0
 12 13  1  0
 13 14  1  0
 15 14  2  0
 16 17  2  0
 18 19  1  0
 19 20  1  0
 20 21  1  0
 22 21  1  1
 22 24  1  0
 23 22  1  0
 23 16  1  0
 24 26  2  0
 24 25  1  0
M  END
$$$$
