VHM.pdb
     RDKit          3D

 26 26  0  0  1  0  0  0  0  0999 V2000
   12.5218  -10.5087  -13.5847 C   0  0  0  0  0  0  0  0  0  0  0  0
   12.9146  -11.9524  -13.5008 C   0  0  1  0  0  0  0  0  0  0  0  0
   11.8794  -12.8553  -14.1531 C   0  0  0  0  0  0  0  0  0  0  0  0
   14.2690  -12.1741  -14.0964 C   0  0  2  0  0  0  0  0  0  0  0  0
   14.6947  -13.5715  -13.8397 N   0  0  0  0  0  0  0  0  0  0  0  0
   15.3242  -11.3062  -13.5276 C   0  0  0  0  0  0  0  0  0  0  0  0
   15.8465  -11.6425  -12.4012 O   0  0  0  0  0  0  0  0  0  0  0  0
   15.8310  -10.1293  -14.0999 N   0  0  0  0  0  0  0  0  0  0  0  0
   16.8360   -9.3102  -13.3666 C   0  0  1  0  0  0  0  0  0  0  0  0
   17.9673   -9.1834  -14.3279 C   0  0  0  0  0  0  0  0  0  0  0  0
   19.0726   -8.3119  -13.9581 C   0  0  0  0  0  0  0  0  0  0  0  0
   20.1110   -8.5243  -13.0848 C   0  0  0  0  0  0  0  0  0  0  0  0
   20.9075   -7.4385  -13.0117 N   0  0  0  0  0  0  0  0  0  0  0  0
   20.3709   -6.5290  -13.8449 C   0  0  0  0  0  0  0  0  0  0  0  0
   19.2804   -7.0398  -14.4113 N   0  0  0  0  0  0  0  0  0  0  0  0
   16.1564   -8.0800  -12.9723 C   0  0  0  0  0  0  0  0  0  0  0  0
   15.3038   -7.5495  -13.7245 O   0  0  0  0  0  0  0  0  0  0  0  0
   13.8575   -3.6792   -6.8198 C   0  0  0  0  0  0  0  0  0  0  0  0
   14.6160   -5.1340   -7.5149 S   0  0  0  0  0  0  0  0  0  0  0  0
   14.8572   -5.0684   -9.2742 C   0  0  0  0  0  0  0  0  0  0  0  0
   15.4923   -6.2504   -9.9095 C   0  0  0  0  0  0  0  0  0  0  0  0
   15.7452   -6.1867  -11.3793 C   0  0  2  0  0  0  0  0  0  0  0  0
   16.4080   -7.4339  -11.7471 N   0  0  0  0  0  0  0  0  0  0  0  0
   16.4764   -4.9771  -11.7456 C   0  0  0  0  0  0  0  0  0  0  0  0
   15.8758   -3.7782  -12.0304 O   0  0  0  0  0  0  0  0  0  0  0  0
   17.7305   -5.0060  -11.8096 O   0  0  0  0  0  0  0  0  0  0  0  0
  2  4  1  0
  2  1  1  6
  3  2  1  0
  4  6  1  0
  4  5  1  1
  6  7  2  0
  8  9  1  0
  8  6  1  0
  9 16  1  0
 10 11  1  0
  9 10  1  6
 11 15  1  0
 12 11  2  0
 12 13  1  0
 13 14  1  0
 15 14  2  0
 16 17  2  0
 18 19  1  0
 19 20  1  0
 20 21  1  0
 22 21  1  1
 22 24  1  0
 23 22  1  0
 23 16  1  0
 24 26  2  0
 24 25  1  0
M  END
$$$$
