VHM.pdb
     RDKit          3D

 26 26  0  0  1  0  0  0  0  0999 V2000
   20.1136  -15.6888  -16.6339 C   0  0  0  0  0  0  0  0  0  0  0  0
   20.0302  -14.1932  -16.6776 C   0  0  1  0  0  0  0  0  0  0  0  0
   20.6190  -13.6350  -17.9637 C   0  0  0  0  0  0  0  0  0  0  0  0
   18.6202  -13.7300  -16.4895 C   0  0  2  0  0  0  0  0  0  0  0  0
   17.7890  -14.2197  -17.6162 N   0  0  0  0  0  0  0  0  0  0  0  0
   18.4694  -12.2579  -16.4699 C   0  0  0  0  0  0  0  0  0  0  0  0
   18.4205  -11.6366  -17.5952 O   0  0  0  0  0  0  0  0  0  0  0  0
   18.3685  -11.4475  -15.3286 N   0  0  0  0  0  0  0  0  0  0  0  0
   18.3418   -9.9640  -15.4612 C   0  0  1  0  0  0  0  0  0  0  0  0
   17.1217   -9.5575  -14.7089 C   0  0  0  0  0  0  0  0  0  0  0  0
   15.8396   -9.6779  -15.3868 C   0  0  0  0  0  0  0  0  0  0  0  0
   15.5527  -10.0728  -16.6705 C   0  0  0  0  0  0  0  0  0  0  0  0
   14.2262  -10.0144  -16.9065 N   0  0  0  0  0  0  0  0  0  0  0  0
   13.6658   -9.5789  -15.7638 C   0  0  0  0  0  0  0  0  0  0  0  0
   14.6173   -9.3764  -14.8558 N   0  0  0  0  0  0  0  0  0  0  0  0
   19.6249   -9.4824  -14.9589 C   0  0  0  0  0  0  0  0  0  0  0  0
   20.1795  -10.0381  -13.9802 O   0  0  0  0  0  0  0  0  0  0  0  0
   26.6597  -10.3903  -14.8725 C   0  0  0  0  0  0  0  0  0  0  0  0
   24.9903  -10.5043  -15.4850 S   0  0  0  0  0  0  0  0  0  0  0  0
   23.9663   -9.1058  -15.0933 C   0  0  0  0  0  0  0  0  0  0  0  0
   22.5299   -9.2028  -15.4557 C   0  0  0  0  0  0  0  0  0  0  0  0
   21.6618   -8.0299  -15.1409 C   0  0  2  0  0  0  0  0  0  0  0  0
   20.3043   -8.3926  -15.5358 N   0  0  0  0  0  0  0  0  0  0  0  0
   22.1692   -6.8069  -15.7563 C   0  0  0  0  0  0  0  0  0  0  0  0
   23.1191   -6.0011  -15.1840 O   0  0  0  0  0  0  0  0  0  0  0  0
   21.7294   -6.4478  -16.8767 O   0  0  0  0  0  0  0  0  0  0  0  0
  2  4  1  0
  2  1  1  6
  3  2  1  0
  4  6  1  0
  4  5  1  6
  6  7  2  0
  8  9  1  0
  8  6  1  0
  9 16  1  0
 10 11  1  0
  9 10  1  1
 11 15  1  0
 12 11  2  0
 12 13  1  0
 13 14  1  0
 15 14  2  0
 16 17  2  0
 18 19  1  0
 19 20  1  0
 20 21  1  0
 22 21  1  6
 22 24  1  0
 23 22  1  0
 23 16  1  0
 24 26  2  0
 24 25  1  0
M  END
$$$$
