VHM.pdb
     RDKit          3D

 26 26  0  0  1  0  0  0  0  0999 V2000
   20.3466  -11.2700    5.4344 C   0  0  0  0  0  0  0  0  0  0  0  0
   19.9029  -12.6515    5.8090 C   0  0  1  0  0  0  0  0  0  0  0  0
   20.2804  -12.9937    7.2417 C   0  0  0  0  0  0  0  0  0  0  0  0
   18.4328  -12.8197    5.5884 C   0  0  2  0  0  0  0  0  0  0  0  0
   17.6918  -11.9915    6.5707 N   0  0  0  0  0  0  0  0  0  0  0  0
   17.9537  -14.2083    5.7691 C   0  0  0  0  0  0  0  0  0  0  0  0
   17.5010  -14.5500    6.9236 O   0  0  0  0  0  0  0  0  0  0  0  0
   17.9367  -15.2158    4.7922 N   0  0  0  0  0  0  0  0  0  0  0  0
   17.4788  -16.5902    5.1391 C   0  0  1  0  0  0  0  0  0  0  0  0
   16.9468  -17.1269    3.8550 C   0  0  0  0  0  0  0  0  0  0  0  0
   16.4429  -18.4921    3.8515 C   0  0  0  0  0  0  0  0  0  0  0  0
   16.4439  -19.4367    4.8484 C   0  0  0  0  0  0  0  0  0  0  0  0
   15.9006  -20.5928    4.4160 N   0  0  0  0  0  0  0  0  0  0  0  0
   15.5519  -20.3813    3.1342 C   0  0  0  0  0  0  0  0  0  0  0  0
   15.8706  -19.1357    2.7908 N   0  0  0  0  0  0  0  0  0  0  0  0
   18.6303  -17.2736    5.7201 C   0  0  0  0  0  0  0  0  0  0  0  0
   19.7854  -17.0788    5.2703 O   0  0  0  0  0  0  0  0  0  0  0  0
   23.9068  -16.8059    9.2851 C   0  0  0  0  0  0  0  0  0  0  0  0
   22.3641  -17.2296   10.0697 S   0  0  0  0  0  0  0  0  0  0  0  0
   21.3998  -18.4366    9.1917 C   0  0  0  0  0  0  0  0  0  0  0  0
   20.2586  -17.9295    8.3888 C   0  0  0  0  0  0  0  0  0  0  0  0
   19.6744  -18.8495    7.3687 C   0  0  2  0  0  0  0  0  0  0  0  0
   18.5153  -18.1678    6.8013 N   0  0  0  0  0  0  0  0  0  0  0  0
   19.3910  -20.1658    7.9335 C   0  0  0  0  0  0  0  0  0  0  0  0
   20.3575  -21.0840    8.2534 O   0  0  0  0  0  0  0  0  0  0  0  0
   18.2012  -20.5038    8.1520 O   0  0  0  0  0  0  0  0  0  0  0  0
  2  4  1  0
  2  1  1  1
  3  2  1  0
  4  6  1  0
  4  5  1  1
  6  7  2  0
  8  9  1  0
  8  6  1  0
  9 16  1  0
 10 11  1  0
  9 10  1  6
 11 15  1  0
 12 11  2  0
 12 13  1  0
 13 14  1  0
 15 14  2  0
 16 17  2  0
 18 19  1  0
 19 20  1  0
 20 21  1  0
 22 21  1  1
 22 24  1  0
 23 22  1  0
 23 16  1  0
 24 26  2  0
 24 25  1  0
M  END
$$$$
