VHM.pdb
     RDKit          3D

 26 26  0  0  1  0  0  0  0  0999 V2000
   23.4439  -13.4251  -21.2951 C   0  0  0  0  0  0  0  0  0  0  0  0
   23.6392  -13.5834  -19.8177 C   0  0  1  0  0  0  0  0  0  0  0  0
   24.7629  -12.6984  -19.3015 C   0  0  0  0  0  0  0  0  0  0  0  0
   22.3662  -13.3177  -19.0780 C   0  0  2  0  0  0  0  0  0  0  0  0
   21.2874  -14.1679  -19.6378 N   0  0  0  0  0  0  0  0  0  0  0  0
   21.8916  -11.9199  -19.1829 C   0  0  0  0  0  0  0  0  0  0  0  0
   21.0013  -11.6449  -20.0697 O   0  0  0  0  0  0  0  0  0  0  0  0
   22.3158  -10.8365  -18.3981 N   0  0  0  0  0  0  0  0  0  0  0  0
   21.6805   -9.4988  -18.5587 C   0  0  1  0  0  0  0  0  0  0  0  0
   20.2453   -9.7417  -18.2402 C   0  0  0  0  0  0  0  0  0  0  0  0
   19.3773   -8.5809  -18.1098 C   0  0  0  0  0  0  0  0  0  0  0  0
   19.6703   -7.2430  -18.2104 C   0  0  0  0  0  0  0  0  0  0  0  0
   18.5715   -6.4923  -17.9915 N   0  0  0  0  0  0  0  0  0  0  0  0
   17.5725   -7.3601  -17.7498 C   0  0  0  0  0  0  0  0  0  0  0  0
   18.0426   -8.6031  -17.8181 N   0  0  0  0  0  0  0  0  0  0  0  0
   22.4117   -8.5878  -17.6836 C   0  0  0  0  0  0  0  0  0  0  0  0
   22.8527   -8.9788  -16.5759 O   0  0  0  0  0  0  0  0  0  0  0  0
   27.1157   -2.2960  -17.2648 C   0  0  0  0  0  0  0  0  0  0  0  0
   26.2054   -3.5228  -18.1819 S   0  0  0  0  0  0  0  0  0  0  0  0
   25.0597   -4.4691  -17.2075 C   0  0  0  0  0  0  0  0  0  0  0  0
   24.2613   -5.4977  -17.9206 C   0  0  0  0  0  0  0  0  0  0  0  0
   23.3196   -6.3218  -17.1067 C   0  0  2  0  0  0  0  0  0  0  0  0
   22.6653   -7.2463  -18.0272 N   0  0  0  0  0  0  0  0  0  0  0  0
   22.4072   -5.4855  -16.3321 C   0  0  0  0  0  0  0  0  0  0  0  0
   22.6491   -5.0801  -15.0450 O   0  0  0  0  0  0  0  0  0  0  0  0
   21.3307   -5.0976  -16.8499 O   0  0  0  0  0  0  0  0  0  0  0  0
  2  4  1  0
  2  1  1  6
  3  2  1  0
  4  6  1  0
  4  5  1  6
  6  7  2  0
  8  9  1  0
  8  6  1  0
  9 16  1  0
 10 11  1  0
  9 10  1  1
 11 15  1  0
 12 11  2  0
 12 13  1  0
 13 14  1  0
 15 14  2  0
 16 17  2  0
 18 19  1  0
 19 20  1  0
 20 21  1  0
 22 21  1  6
 22 24  1  0
 23 22  1  0
 23 16  1  0
 24 26  2  0
 24 25  1  0
M  END
$$$$
