VHM.pdb
     RDKit          3D

 26 26  0  0  1  0  0  0  0  0999 V2000
   22.1799  -11.8171  -22.1557 C   0  0  0  0  0  0  0  0  0  0  0  0
   21.4773  -10.8985  -21.2027 C   0  0  1  0  0  0  0  0  0  0  0  0
   20.2258  -11.5395  -20.6239 C   0  0  0  0  0  0  0  0  0  0  0  0
   22.4001  -10.4484  -20.1146 C   0  0  2  0  0  0  0  0  0  0  0  0
   22.9210  -11.6344  -19.3919 N   0  0  0  0  0  0  0  0  0  0  0  0
   21.7541   -9.5908  -19.0961 C   0  0  0  0  0  0  0  0  0  0  0  0
   21.2836   -8.4531  -19.4689 O   0  0  0  0  0  0  0  0  0  0  0  0
   21.5927   -9.8935  -17.7353 N   0  0  0  0  0  0  0  0  0  0  0  0
   20.8686   -8.9511  -16.8372 C   0  0  1  0  0  0  0  0  0  0  0  0
   20.2575   -9.8353  -15.8054 C   0  0  0  0  0  0  0  0  0  0  0  0
   19.5440   -9.1989  -14.7082 C   0  0  0  0  0  0  0  0  0  0  0  0
   19.3465   -7.8670  -14.4375 C   0  0  0  0  0  0  0  0  0  0  0  0
   18.6482   -7.7070  -13.2949 N   0  0  0  0  0  0  0  0  0  0  0  0
   18.4002   -8.9469  -12.8358 C   0  0  0  0  0  0  0  0  0  0  0  0
   18.9291   -9.8391  -13.6696 N   0  0  0  0  0  0  0  0  0  0  0  0
   21.8554   -7.9776  -16.3799 C   0  0  0  0  0  0  0  0  0  0  0  0
   23.0026   -8.3446  -16.0284 O   0  0  0  0  0  0  0  0  0  0  0  0
   26.9394   -3.6723  -17.6931 C   0  0  0  0  0  0  0  0  0  0  0  0
   25.2375   -3.5763  -18.2120 S   0  0  0  0  0  0  0  0  0  0  0  0
   24.0560   -3.8313  -16.9094 C   0  0  0  0  0  0  0  0  0  0  0  0
   23.0751   -4.9297  -17.0980 C   0  0  0  0  0  0  0  0  0  0  0  0
   22.5879   -5.6325  -15.8745 C   0  0  2  0  0  0  0  0  0  0  0  0
   21.5852   -6.5975  -16.3142 N   0  0  0  0  0  0  0  0  0  0  0  0
   22.1221   -4.6878  -14.8632 C   0  0  0  0  0  0  0  0  0  0  0  0
   22.9573   -3.9525  -14.0625 O   0  0  0  0  0  0  0  0  0  0  0  0
   20.8891   -4.5164  -14.6958 O   0  0  0  0  0  0  0  0  0  0  0  0
  2  4  1  0
  2  1  1  6
  3  2  1  0
  4  6  1  0
  4  5  1  1
  6  7  2  0
  8  9  1  0
  8  6  1  0
  9 16  1  0
 10 11  1  0
  9 10  1  1
 11 15  1  0
 12 11  2  0
 12 13  1  0
 13 14  1  0
 15 14  2  0
 16 17  2  0
 18 19  1  0
 19 20  1  0
 20 21  1  0
 22 21  1  6
 22 24  1  0
 23 22  1  0
 23 16  1  0
 24 26  2  0
 24 25  1  0
M  END
$$$$
