VHM.pdb
     RDKit          3D

 26 26  0  0  1  0  0  0  0  0999 V2000
   16.1764  -16.0556  -16.8916 C   0  0  0  0  0  0  0  0  0  0  0  0
   17.1785  -14.9523  -17.0469 C   0  0  1  0  0  0  0  0  0  0  0  0
   17.7004  -14.4738  -15.7012 C   0  0  0  0  0  0  0  0  0  0  0  0
   18.3040  -15.3731  -17.9382 C   0  0  2  0  0  0  0  0  0  0  0  0
   18.9675  -16.5668  -17.3596 N   0  0  0  0  0  0  0  0  0  0  0  0
   19.3585  -14.3472  -18.0985 C   0  0  0  0  0  0  0  0  0  0  0  0
   20.4380  -14.4719  -17.4101 O   0  0  0  0  0  0  0  0  0  0  0  0
   19.3080  -13.2277  -18.9434 N   0  0  0  0  0  0  0  0  0  0  0  0
   20.4652  -12.2930  -19.0212 C   0  0  1  0  0  0  0  0  0  0  0  0
   20.4840  -11.8617  -20.4473 C   0  0  0  0  0  0  0  0  0  0  0  0
   21.5011  -10.9013  -20.8484 C   0  0  0  0  0  0  0  0  0  0  0  0
   22.4874  -10.2977  -20.1074 C   0  0  0  0  0  0  0  0  0  0  0  0
   23.2040   -9.4434  -20.8659 N   0  0  0  0  0  0  0  0  0  0  0  0
   22.6688   -9.5044  -22.0985 C   0  0  0  0  0  0  0  0  0  0  0  0
   21.6565  -10.3683  -22.0969 N   0  0  0  0  0  0  0  0  0  0  0  0
   20.2294  -11.2607  -18.0166 C   0  0  0  0  0  0  0  0  0  0  0  0
   19.0628  -10.8923  -17.7378 O   0  0  0  0  0  0  0  0  0  0  0  0
   22.3103   -8.6832  -10.9925 C   0  0  0  0  0  0  0  0  0  0  0  0
   22.6302   -9.6562  -12.4506 S   0  0  0  0  0  0  0  0  0  0  0  0
   21.7110   -9.1541  -13.8860 C   0  0  0  0  0  0  0  0  0  0  0  0
   21.7978  -10.0321  -15.0800 C   0  0  0  0  0  0  0  0  0  0  0  0
   21.0240   -9.6242  -16.2897 C   0  0  2  0  0  0  0  0  0  0  0  0
   21.2753  -10.6359  -17.3113 N   0  0  0  0  0  0  0  0  0  0  0  0
   21.3421   -8.2578  -16.6941 C   0  0  0  0  0  0  0  0  0  0  0  0
   22.3724   -7.9309  -17.5373 O   0  0  0  0  0  0  0  0  0  0  0  0
   20.6469   -7.3052  -16.2615 O   0  0  0  0  0  0  0  0  0  0  0  0
  2  4  1  0
  2  1  1  1
  3  2  1  0
  4  6  1  0
  4  5  1  1
  6  7  2  0
  8  9  1  0
  8  6  1  0
  9 16  1  0
 10 11  1  0
  9 10  1  6
 11 15  1  0
 12 11  2  0
 12 13  1  0
 13 14  1  0
 15 14  2  0
 16 17  2  0
 18 19  1  0
 19 20  1  0
 20 21  1  0
 22 21  1  1
 22 24  1  0
 23 22  1  0
 23 16  1  0
 24 26  2  0
 24 25  1  0
M  END
$$$$
