VHM.pdb
     RDKit          3D

 26 26  0  0  1  0  0  0  0  0999 V2000
   25.9959  -13.5817  -15.2381 C   0  0  0  0  0  0  0  0  0  0  0  0
   25.2135  -14.8537  -15.3633 C   0  0  1  0  0  0  0  0  0  0  0  0
   24.0731  -14.7161  -16.3596 C   0  0  0  0  0  0  0  0  0  0  0  0
   26.1064  -15.9977  -15.7269 C   0  0  2  0  0  0  0  0  0  0  0  0
   26.6495  -15.7815  -17.0901 N   0  0  0  0  0  0  0  0  0  0  0  0
   25.4208  -17.3090  -15.7549 C   0  0  0  0  0  0  0  0  0  0  0  0
   24.8883  -17.6933  -16.8610 O   0  0  0  0  0  0  0  0  0  0  0  0
   25.2885  -18.2013  -14.6798 N   0  0  0  0  0  0  0  0  0  0  0  0
   24.6329  -19.5240  -14.8784 C   0  0  1  0  0  0  0  0  0  0  0  0
   25.6344  -20.5021  -14.3678 C   0  0  0  0  0  0  0  0  0  0  0  0
   26.6924  -20.9204  -15.2752 C   0  0  0  0  0  0  0  0  0  0  0  0
   26.9073  -20.5941  -16.5918 C   0  0  0  0  0  0  0  0  0  0  0  0
   27.9964  -21.2277  -17.0726 N   0  0  0  0  0  0  0  0  0  0  0  0
   28.4773  -21.9625  -16.0536 C   0  0  0  0  0  0  0  0  0  0  0  0
   27.7083  -21.7857  -14.9820 N   0  0  0  0  0  0  0  0  0  0  0  0
   23.3521  -19.4578  -14.1817 C   0  0  0  0  0  0  0  0  0  0  0  0
   23.2604  -18.9027  -13.0601 O   0  0  0  0  0  0  0  0  0  0  0  0
   21.2540  -15.3949  -15.4242 C   0  0  0  0  0  0  0  0  0  0  0  0
   19.8008  -15.9198  -14.5367 S   0  0  0  0  0  0  0  0  0  0  0  0
   19.9495  -17.5099  -13.7575 C   0  0  0  0  0  0  0  0  0  0  0  0
   20.2033  -18.6720  -14.6459 C   0  0  0  0  0  0  0  0  0  0  0  0
   20.8798  -19.8597  -14.0460 C   0  0  2  0  0  0  0  0  0  0  0  0
   22.1675  -19.9958  -14.7195 N   0  0  0  0  0  0  0  0  0  0  0  0
   20.0321  -21.0470  -14.1064 C   0  0  0  0  0  0  0  0  0  0  0  0
   18.9798  -21.2782  -13.2587 O   0  0  0  0  0  0  0  0  0  0  0  0
   20.2549  -21.9245  -14.9771 O   0  0  0  0  0  0  0  0  0  0  0  0
  2  4  1  0
  2  1  1  6
  3  2  1  0
  4  6  1  0
  4  5  1  6
  6  7  2  0
  8  9  1  0
  8  6  1  0
  9 16  1  0
 10 11  1  0
  9 10  1  1
 11 15  1  0
 12 11  2  0
 12 13  1  0
 13 14  1  0
 15 14  2  0
 16 17  2  0
 18 19  1  0
 19 20  1  0
 20 21  1  0
 22 21  1  6
 22 24  1  0
 23 22  1  0
 23 16  1  0
 24 26  2  0
 24 25  1  0
M  END
$$$$
