SSQ.pdb
     RDKit          3D

 22 21  0  0  1  0  0  0  0  0999 V2000
   15.1820  -11.2378  -15.4677 O   0  0  0  0  0  0  0  0  0  0  0  0
   16.0884  -12.0683  -16.1232 C   0  0  0  0  0  0  0  0  0  0  0  0
   17.5230  -11.7091  -15.7543 C   0  0  2  0  0  0  0  0  0  0  0  0
   17.7670  -11.8515  -14.3507 N   0  0  0  0  0  0  0  0  0  0  0  0
   17.8363  -10.3258  -16.2200 C   0  0  0  0  0  0  0  0  0  0  0  0
   17.7917   -9.9985  -17.4272 O   0  0  0  0  0  0  0  0  0  0  0  0
   17.4194   -5.8056  -15.1897 O   0  0  0  0  0  0  0  0  0  0  0  0
   17.2650   -7.1696  -15.0020 C   0  0  0  0  0  0  0  0  0  0  0  0
   18.3704   -7.9741  -15.6538 C   0  0  2  0  0  0  0  0  0  0  0  0
   18.1950   -9.3577  -15.2570 N   0  0  0  0  0  0  0  0  0  0  0  0
   19.6519   -7.5017  -15.0172 C   0  0  0  0  0  0  0  0  0  0  0  0
   19.9416   -7.9180  -13.8668 O   0  0  0  0  0  0  0  0  0  0  0  0
   24.6889   -6.1537  -18.0583 N   0  0  0  0  0  0  0  0  0  0  0  0
   24.3495   -7.4410  -17.5571 C   0  0  0  0  0  0  0  0  0  0  0  0
   24.9366   -8.4225  -18.0516 O   0  0  0  0  0  0  0  0  0  0  0  0
   23.3288   -7.6043  -16.4802 C   0  0  0  0  0  0  0  0  0  0  0  0
   22.8297   -6.2470  -16.1040 C   0  0  0  0  0  0  0  0  0  0  0  0
   21.7911   -6.2787  -15.0174 C   0  0  2  0  0  0  0  0  0  0  0  0
   20.5330   -6.6197  -15.6512 N   0  0  0  0  0  0  0  0  0  0  0  0
   21.6261   -5.0345  -14.2737 C   0  0  0  0  0  0  0  0  0  0  0  0
   22.4065   -4.6167  -13.3802 O   0  0  0  0  0  0  0  0  0  0  0  0
   20.5364   -4.2210  -14.5438 O   0  0  0  0  0  0  0  0  0  0  0  0
  2  1  1  0
  3  2  1  0
  3  4  1  1
  5  3  1  0
  5 10  1  0
  6  5  2  0
  9  8  1  1
  8  7  1  0
  9 10  1  0
  9 11  1  0
 11 19  1  0
 11 12  2  0
 14 16  1  0
 14 13  1  0
 15 14  2  0
 18 17  1  6
 17 16  1  0
 18 20  1  0
 19 18  1  0
 20 22  1  0
 21 20  2  0
M  END
$$$$
