SSQ.pdb
     RDKit          3D

 22 21  0  0  1  0  0  0  0  0999 V2000
   14.6304  -13.8035  -13.3526 O   0  0  0  0  0  0  0  0  0  0  0  0
   15.4833  -12.9449  -14.0427 C   0  0  0  0  0  0  0  0  0  0  0  0
   16.0243  -13.6097  -15.3030 C   0  0  2  0  0  0  0  0  0  0  0  0
   16.7271  -14.8221  -15.0097 N   0  0  0  0  0  0  0  0  0  0  0  0
   16.8893  -12.6508  -16.0520 C   0  0  0  0  0  0  0  0  0  0  0  0
   18.1360  -12.7564  -16.0841 O   0  0  0  0  0  0  0  0  0  0  0  0
   15.8228  -11.4248  -19.6493 O   0  0  0  0  0  0  0  0  0  0  0  0
   16.1215  -10.3720  -18.7997 C   0  0  0  0  0  0  0  0  0  0  0  0
   17.0435  -10.7813  -17.6699 C   0  0  2  0  0  0  0  0  0  0  0  0
   16.2702  -11.5890  -16.7467 N   0  0  0  0  0  0  0  0  0  0  0  0
   17.3915   -9.5083  -16.9426 C   0  0  0  0  0  0  0  0  0  0  0  0
   16.6179   -9.1005  -16.0393 O   0  0  0  0  0  0  0  0  0  0  0  0
   22.0648   -8.7448  -13.9562 N   0  0  0  0  0  0  0  0  0  0  0  0
   21.6863   -7.3744  -13.9106 C   0  0  0  0  0  0  0  0  0  0  0  0
   22.3222   -6.6286  -13.1412 O   0  0  0  0  0  0  0  0  0  0  0  0
   20.5696   -6.8547  -14.7538 C   0  0  0  0  0  0  0  0  0  0  0  0
   19.9927   -8.0017  -15.5184 C   0  0  0  0  0  0  0  0  0  0  0  0
   18.8616   -7.6000  -16.4237 C   0  0  2  0  0  0  0  0  0  0  0  0
   18.5383   -8.7607  -17.2293 N   0  0  0  0  0  0  0  0  0  0  0  0
   19.1377   -6.4716  -17.3063 C   0  0  0  0  0  0  0  0  0  0  0  0
   19.2440   -6.5409  -18.5577 O   0  0  0  0  0  0  0  0  0  0  0  0
   19.3023   -5.2073  -16.7616 O   0  0  0  0  0  0  0  0  0  0  0  0
  2  1  1  0
  3  2  1  0
  3  4  1  1
  5  3  1  0
  5 10  1  0
  6  5  2  0
  9  8  1  6
  8  7  1  0
  9 10  1  0
  9 11  1  0
 11 19  1  0
 11 12  2  0
 14 16  1  0
 14 13  1  0
 15 14  2  0
 18 17  1  6
 17 16  1  0
 18 20  1  0
 19 18  1  0
 20 22  1  0
 21 20  2  0
M  END
$$$$
