SSQ.pdb
     RDKit          3D

 22 21  0  0  1  0  0  0  0  0999 V2000
   16.7161  -11.0594  -17.9761 O   0  0  0  0  0  0  0  0  0  0  0  0
   18.0018  -10.7112  -17.5679 C   0  0  0  0  0  0  0  0  0  0  0  0
   18.3944  -11.4623  -16.3011 C   0  0  2  0  0  0  0  0  0  0  0  0
   17.2496  -11.8977  -15.5598 N   0  0  0  0  0  0  0  0  0  0  0  0
   19.2898  -10.6114  -15.4628 C   0  0  0  0  0  0  0  0  0  0  0  0
   18.9054  -10.0806  -14.3966 O   0  0  0  0  0  0  0  0  0  0  0  0
   23.0253   -9.8470  -16.9662 O   0  0  0  0  0  0  0  0  0  0  0  0
   22.9277   -9.8710  -15.5844 C   0  0  0  0  0  0  0  0  0  0  0  0
   21.5201   -9.5971  -15.0970 C   0  0  2  0  0  0  0  0  0  0  0  0
   20.6173  -10.4029  -15.8960 N   0  0  0  0  0  0  0  0  0  0  0  0
   21.2378   -8.1585  -15.4453 C   0  0  0  0  0  0  0  0  0  0  0  0
   20.6468   -7.9058  -16.5259 O   0  0  0  0  0  0  0  0  0  0  0  0
   17.7275   -5.2268  -16.3999 N   0  0  0  0  0  0  0  0  0  0  0  0
   18.2965   -4.0178  -15.9119 C   0  0  0  0  0  0  0  0  0  0  0  0
   17.7319   -2.9514  -16.2224 O   0  0  0  0  0  0  0  0  0  0  0  0
   19.5228   -4.0317  -15.0609 C   0  0  0  0  0  0  0  0  0  0  0  0
   19.9008   -5.4562  -14.8147 C   0  0  0  0  0  0  0  0  0  0  0  0
   21.3607   -5.7298  -15.0481 C   0  0  2  0  0  0  0  0  0  0  0  0
   21.6049   -7.0922  -14.6181 N   0  0  0  0  0  0  0  0  0  0  0  0
   22.2828   -4.8396  -14.3511 C   0  0  0  0  0  0  0  0  0  0  0  0
   22.8395   -5.0911  -13.2516 O   0  0  0  0  0  0  0  0  0  0  0  0
   22.5956   -3.6109  -14.9121 O   0  0  0  0  0  0  0  0  0  0  0  0
  2  1  1  0
  3  2  1  0
  3  4  1  1
  5  3  1  0
  5 10  1  0
  6  5  2  0
  9  8  1  6
  8  7  1  0
  9 10  1  0
  9 11  1  0
 11 19  1  0
 11 12  2  0
 14 16  1  0
 14 13  1  0
 15 14  2  0
 18 17  1  1
 17 16  1  0
 18 20  1  0
 19 18  1  0
 20 22  1  0
 21 20  2  0
M  END
$$$$
