SSQ.pdb
     RDKit          3D

 22 21  0  0  1  0  0  0  0  0999 V2000
   17.8359  -22.6737  -14.9781 O   0  0  0  0  0  0  0  0  0  0  0  0
   18.7083  -21.5928  -15.0851 C   0  0  0  0  0  0  0  0  0  0  0  0
   19.8015  -21.6668  -14.0256 C   0  0  2  0  0  0  0  0  0  0  0  0
   19.2607  -21.7464  -12.7024 N   0  0  0  0  0  0  0  0  0  0  0  0
   20.7230  -20.5005  -14.1640 C   0  0  0  0  0  0  0  0  0  0  0  0
   20.5237  -19.4147  -13.5744 O   0  0  0  0  0  0  0  0  0  0  0  0
   24.2714  -21.1832  -16.0896 O   0  0  0  0  0  0  0  0  0  0  0  0
   24.1892  -20.1376  -15.1844 C   0  0  0  0  0  0  0  0  0  0  0  0
   22.7996  -19.5394  -15.1130 C   0  0  2  0  0  0  0  0  0  0  0  0
   21.8584  -20.6358  -14.9922 N   0  0  0  0  0  0  0  0  0  0  0  0
   22.5554  -18.9072  -16.4589 C   0  0  0  0  0  0  0  0  0  0  0  0
   21.9586  -19.5775  -17.3393 O   0  0  0  0  0  0  0  0  0  0  0  0
   20.2869  -13.7007  -17.4729 N   0  0  0  0  0  0  0  0  0  0  0  0
   21.1880  -13.6405  -18.5719 C   0  0  0  0  0  0  0  0  0  0  0  0
   21.2221  -12.5823  -19.2288 O   0  0  0  0  0  0  0  0  0  0  0  0
   22.0572  -14.8029  -18.9206 C   0  0  0  0  0  0  0  0  0  0  0  0
   21.8095  -15.8843  -17.9196 C   0  0  0  0  0  0  0  0  0  0  0  0
   22.7157  -17.0712  -18.0946 C   0  0  2  0  0  0  0  0  0  0  0  0
   22.9642  -17.6065  -16.7708 N   0  0  0  0  0  0  0  0  0  0  0  0
   23.9933  -16.7925  -18.7414 C   0  0  0  0  0  0  0  0  0  0  0  0
   24.1577  -16.6271  -19.9774 O   0  0  0  0  0  0  0  0  0  0  0  0
   25.1395  -16.6944  -17.9675 O   0  0  0  0  0  0  0  0  0  0  0  0
  2  1  1  0
  3  2  1  0
  3  4  1  1
  5  3  1  0
  5 10  1  0
  6  5  2  0
  9  8  1  6
  8  7  1  0
  9 10  1  0
  9 11  1  0
 11 19  1  0
 11 12  2  0
 14 16  1  0
 14 13  1  0
 15 14  2  0
 18 17  1  1
 17 16  1  0
 18 20  1  0
 19 18  1  0
 20 22  1  0
 21 20  2  0
M  END
$$$$
