SSQ.pdb
     RDKit          3D

 22 21  0  0  1  0  0  0  0  0999 V2000
   16.2766   -6.9329   -8.2121 O   0  0  0  0  0  0  0  0  0  0  0  0
   15.0163   -6.4477   -8.5547 C   0  0  0  0  0  0  0  0  0  0  0  0
   14.1841   -7.5257   -9.2390 C   0  0  2  0  0  0  0  0  0  0  0  0
   13.8557   -8.5962   -8.3468 N   0  0  0  0  0  0  0  0  0  0  0  0
   14.9005   -8.0297  -10.4478 C   0  0  0  0  0  0  0  0  0  0  0  0
   15.4439   -9.1566  -10.4841 O   0  0  0  0  0  0  0  0  0  0  0  0
   14.9476   -5.5681  -13.7772 O   0  0  0  0  0  0  0  0  0  0  0  0
   14.9004   -6.9401  -13.9637 C   0  0  0  0  0  0  0  0  0  0  0  0
   15.5351   -7.7037  -12.8201 C   0  0  2  0  0  0  0  0  0  0  0  0
   14.9626   -7.1985  -11.5874 N   0  0  0  0  0  0  0  0  0  0  0  0
   16.9881   -7.3045  -12.8166 C   0  0  0  0  0  0  0  0  0  0  0  0
   17.3725   -6.4390  -11.9896 O   0  0  0  0  0  0  0  0  0  0  0  0
   21.4689  -10.7582  -15.1747 N   0  0  0  0  0  0  0  0  0  0  0  0
   22.2421   -9.6940  -14.6332 C   0  0  0  0  0  0  0  0  0  0  0  0
   23.4823   -9.8063  -14.6759 O   0  0  0  0  0  0  0  0  0  0  0  0
   21.5882   -8.4915  -14.0379 C   0  0  0  0  0  0  0  0  0  0  0  0
   20.1091   -8.7010  -14.0756 C   0  0  0  0  0  0  0  0  0  0  0  0
   19.3319   -7.5292  -13.5434 C   0  0  2  0  0  0  0  0  0  0  0  0
   17.9277   -7.8555  -13.6939 N   0  0  0  0  0  0  0  0  0  0  0  0
   19.5957   -6.2536  -14.2005 C   0  0  0  0  0  0  0  0  0  0  0  0
   20.5512   -5.4827  -13.9268 O   0  0  0  0  0  0  0  0  0  0  0  0
   18.7500   -5.8220  -15.2108 O   0  0  0  0  0  0  0  0  0  0  0  0
  2  1  1  0
  3  2  1  0
  3  4  1  1
  5  3  1  0
  5 10  1  0
  6  5  2  0
  9  8  1  6
  8  7  1  0
  9 10  1  0
  9 11  1  0
 11 19  1  0
 11 12  2  0
 14 16  1  0
 14 13  1  0
 15 14  2  0
 18 17  1  6
 17 16  1  0
 18 20  1  0
 19 18  1  0
 20 22  1  0
 21 20  2  0
M  END
$$$$
