SSQ.pdb
     RDKit          3D

 22 21  0  0  1  0  0  0  0  0999 V2000
   27.7340  -18.4607  -16.1494 O   0  0  0  0  0  0  0  0  0  0  0  0
   27.0402  -19.6632  -16.0325 C   0  0  0  0  0  0  0  0  0  0  0  0
   27.7831  -20.6359  -15.1241 C   0  0  2  0  0  0  0  0  0  0  0  0
   28.5624  -21.5770  -15.8701 N   0  0  0  0  0  0  0  0  0  0  0  0
   26.8159  -21.3288  -14.2226 C   0  0  0  0  0  0  0  0  0  0  0  0
   26.2736  -22.4145  -14.5284 O   0  0  0  0  0  0  0  0  0  0  0  0
   24.7383  -21.1849   -9.8367 O   0  0  0  0  0  0  0  0  0  0  0  0
   25.7301  -20.7925  -10.7209 C   0  0  0  0  0  0  0  0  0  0  0  0
   25.5071  -21.3299  -12.1192 C   0  0  2  0  0  0  0  0  0  0  0  0
   26.5071  -20.7306  -12.9815 N   0  0  0  0  0  0  0  0  0  0  0  0
   24.1736  -20.7845  -12.5607 C   0  0  0  0  0  0  0  0  0  0  0  0
   24.0595  -19.5452  -12.7392 O   0  0  0  0  0  0  0  0  0  0  0  0
   22.4857  -23.9830  -15.4749 N   0  0  0  0  0  0  0  0  0  0  0  0
   22.6451  -22.7466  -16.1600 C   0  0  0  0  0  0  0  0  0  0  0  0
   23.3343  -22.7504  -17.1981 O   0  0  0  0  0  0  0  0  0  0  0  0
   22.0094  -21.4957  -15.6509 C   0  0  0  0  0  0  0  0  0  0  0  0
   21.3118  -21.8180  -14.3693 C   0  0  0  0  0  0  0  0  0  0  0  0
   21.8056  -21.0035  -13.2060 C   0  0  2  0  0  0  0  0  0  0  0  0
   23.0572  -21.5978  -12.7806 N   0  0  0  0  0  0  0  0  0  0  0  0
   20.9011  -20.9330  -12.0635 C   0  0  0  0  0  0  0  0  0  0  0  0
   21.1441  -21.3941  -10.9187 O   0  0  0  0  0  0  0  0  0  0  0  0
   19.6675  -20.3174  -12.2105 O   0  0  0  0  0  0  0  0  0  0  0  0
  2  1  1  0
  3  2  1  0
  3  4  1  6
  5  3  1  0
  5 10  1  0
  6  5  2  0
  9  8  1  1
  8  7  1  0
  9 10  1  0
  9 11  1  0
 11 19  1  0
 11 12  2  0
 14 16  1  0
 14 13  1  0
 15 14  2  0
 18 17  1  6
 17 16  1  0
 18 20  1  0
 19 18  1  0
 20 22  1  0
 21 20  2  0
M  END
$$$$
