SSQ.pdb
     RDKit          3D

 22 21  0  0  1  0  0  0  0  0999 V2000
   13.4439  -13.0814  -13.0063 O   0  0  0  0  0  0  0  0  0  0  0  0
   14.4674  -12.3192  -13.5652 C   0  0  0  0  0  0  0  0  0  0  0  0
   15.2686  -13.1360  -14.5723 C   0  0  2  0  0  0  0  0  0  0  0  0
   15.7686  -14.3498  -14.0010 N   0  0  0  0  0  0  0  0  0  0  0  0
   16.3755  -12.3063  -15.1335 C   0  0  0  0  0  0  0  0  0  0  0  0
   17.5481  -12.7321  -15.2342 O   0  0  0  0  0  0  0  0  0  0  0  0
   15.2356   -9.0981  -17.3066 O   0  0  0  0  0  0  0  0  0  0  0  0
   16.4766   -9.6761  -17.5191 C   0  0  0  0  0  0  0  0  0  0  0  0
   17.0938  -10.2115  -16.2439 C   0  0  2  0  0  0  0  0  0  0  0  0
   16.0801  -10.9945  -15.5641 N   0  0  0  0  0  0  0  0  0  0  0  0
   17.3601   -9.0064  -15.3794 C   0  0  0  0  0  0  0  0  0  0  0  0
   16.4671   -8.6317  -14.5775 O   0  0  0  0  0  0  0  0  0  0  0  0
   22.8592   -6.6807  -13.9725 N   0  0  0  0  0  0  0  0  0  0  0  0
   22.0281   -5.6427  -13.4671 C   0  0  0  0  0  0  0  0  0  0  0  0
   22.5880   -4.6794  -12.9095 O   0  0  0  0  0  0  0  0  0  0  0  0
   20.5430   -5.7098  -13.6022 C   0  0  0  0  0  0  0  0  0  0  0  0
   20.2046   -6.9204  -14.4101 C   0  0  0  0  0  0  0  0  0  0  0  0
   18.7256   -7.1068  -14.6056 C   0  0  2  0  0  0  0  0  0  0  0  0
   18.5582   -8.2866  -15.4307 N   0  0  0  0  0  0  0  0  0  0  0  0
   18.0317   -5.9869  -15.2322 C   0  0  0  0  0  0  0  0  0  0  0  0
   17.6577   -4.9434  -14.6378 O   0  0  0  0  0  0  0  0  0  0  0  0
   17.7437   -6.0386  -16.5875 O   0  0  0  0  0  0  0  0  0  0  0  0
  2  1  1  0
  3  2  1  0
  3  4  1  1
  5  3  1  0
  5 10  1  0
  6  5  2  0
  9  8  1  6
  8  7  1  0
  9 10  1  0
  9 11  1  0
 11 19  1  0
 11 12  2  0
 14 16  1  0
 14 13  1  0
 15 14  2  0
 18 17  1  6
 17 16  1  0
 18 20  1  0
 19 18  1  0
 20 22  1  0
 21 20  2  0
M  END
$$$$
