SSQ.pdb
     RDKit          3D

 22 21  0  0  1  0  0  0  0  0999 V2000
   13.9820   -8.2594  -12.9478 O   0  0  0  0  0  0  0  0  0  0  0  0
   15.3217   -7.8963  -12.8279 C   0  0  0  0  0  0  0  0  0  0  0  0
   16.1473   -9.0396  -12.2494 C   0  0  2  0  0  0  0  0  0  0  0  0
   15.7348   -9.3798  -10.9214 N   0  0  0  0  0  0  0  0  0  0  0  0
   17.5982   -8.6909  -12.2924 C   0  0  0  0  0  0  0  0  0  0  0  0
   18.1785   -8.1174  -11.3433 O   0  0  0  0  0  0  0  0  0  0  0  0
   20.8544  -10.9206  -13.7878 O   0  0  0  0  0  0  0  0  0  0  0  0
   20.3683   -9.7996  -14.4409 C   0  0  0  0  0  0  0  0  0  0  0  0
   19.7656   -8.7883  -13.4882 C   0  0  2  0  0  0  0  0  0  0  0  0
   18.3353   -9.0237  -13.4497 N   0  0  0  0  0  0  0  0  0  0  0  0
   19.9642   -7.4433  -14.1379 C   0  0  0  0  0  0  0  0  0  0  0  0
   19.1315   -7.0622  -14.9994 O   0  0  0  0  0  0  0  0  0  0  0  0
   17.4941   -3.3343  -13.8064 N   0  0  0  0  0  0  0  0  0  0  0  0
   18.5415   -2.5585  -14.3761 C   0  0  0  0  0  0  0  0  0  0  0  0
   18.3061   -1.3567  -14.6056 O   0  0  0  0  0  0  0  0  0  0  0  0
   19.8697   -3.1656  -14.6851 C   0  0  0  0  0  0  0  0  0  0  0  0
   19.8522   -4.5841  -14.2157 C   0  0  0  0  0  0  0  0  0  0  0  0
   21.1466   -5.3066  -14.4672 C   0  0  2  0  0  0  0  0  0  0  0  0
   21.0353   -6.6005  -13.8237 N   0  0  0  0  0  0  0  0  0  0  0  0
   22.3440   -4.6335  -13.9758 C   0  0  0  0  0  0  0  0  0  0  0  0
   22.9997   -4.9746  -12.9581 O   0  0  0  0  0  0  0  0  0  0  0  0
   22.8291   -3.5271  -14.6562 O   0  0  0  0  0  0  0  0  0  0  0  0
  2  1  1  0
  3  2  1  0
  3  4  1  1
  5  3  1  0
  5 10  1  0
  6  5  2  0
  9  8  1  6
  8  7  1  0
  9 10  1  0
  9 11  1  0
 11 19  1  0
 11 12  2  0
 14 16  1  0
 14 13  1  0
 15 14  2  0
 18 17  1  1
 17 16  1  0
 18 20  1  0
 19 18  1  0
 20 22  1  0
 21 20  2  0
M  END
$$$$
