SSQ.pdb
     RDKit          3D

 22 21  0  0  1  0  0  0  0  0999 V2000
   14.8413  -10.3743  -16.0332 O   0  0  0  0  0  0  0  0  0  0  0  0
   15.1553  -10.0925  -14.7054 C   0  0  0  0  0  0  0  0  0  0  0  0
   16.6393  -10.3132  -14.4368 C   0  0  2  0  0  0  0  0  0  0  0  0
   17.0073  -11.6911  -14.5621 N   0  0  0  0  0  0  0  0  0  0  0  0
   16.9969   -9.7782  -13.0898 C   0  0  0  0  0  0  0  0  0  0  0  0
   16.7395  -10.3966  -12.0326 O   0  0  0  0  0  0  0  0  0  0  0  0
   19.1502   -6.2409  -12.9567 O   0  0  0  0  0  0  0  0  0  0  0  0
   19.2889   -7.1645  -11.9334 C   0  0  0  0  0  0  0  0  0  0  0  0
   18.0377   -7.9921  -11.7248 C   0  0  2  0  0  0  0  0  0  0  0  0
   17.6493   -8.5283  -13.0148 N   0  0  0  0  0  0  0  0  0  0  0  0
   16.9627   -7.0162  -11.3216 C   0  0  0  0  0  0  0  0  0  0  0  0
   16.2963   -6.4482  -12.2239 O   0  0  0  0  0  0  0  0  0  0  0  0
   13.5274   -7.2655   -6.4002 N   0  0  0  0  0  0  0  0  0  0  0  0
   13.0215   -7.5767   -7.6928 C   0  0  0  0  0  0  0  0  0  0  0  0
   12.0112   -8.3034   -7.7540 O   0  0  0  0  0  0  0  0  0  0  0  0
   13.6792   -7.0506   -8.9251 C   0  0  0  0  0  0  0  0  0  0  0  0
   14.8767   -6.2589   -8.5102 C   0  0  0  0  0  0  0  0  0  0  0  0
   15.6643   -5.7237   -9.6737 C   0  0  2  0  0  0  0  0  0  0  0  0
   16.6742   -6.7151   -9.9866 N   0  0  0  0  0  0  0  0  0  0  0  0
   16.3152   -4.4375   -9.4493 C   0  0  0  0  0  0  0  0  0  0  0  0
   17.5501   -4.2718   -9.2770 O   0  0  0  0  0  0  0  0  0  0  0  0
   15.5470   -3.2838   -9.4166 O   0  0  0  0  0  0  0  0  0  0  0  0
  2  1  1  0
  3  2  1  0
  3  4  1  1
  5  3  1  0
  5 10  1  0
  6  5  2  0
  9  8  1  6
  8  7  1  0
  9 10  1  0
  9 11  1  0
 11 19  1  0
 11 12  2  0
 14 16  1  0
 14 13  1  0
 15 14  2  0
 18 17  1  1
 17 16  1  0
 18 20  1  0
 19 18  1  0
 20 22  1  0
 21 20  2  0
M  END
$$$$
