SSQ.pdb
     RDKit          3D

 22 21  0  0  1  0  0  0  0  0999 V2000
   15.4940  -12.1088  -16.3495 O   0  0  0  0  0  0  0  0  0  0  0  0
   16.4232  -11.1974  -16.8465 C   0  0  0  0  0  0  0  0  0  0  0  0
   17.6535  -11.1283  -15.9495 C   0  0  2  0  0  0  0  0  0  0  0  0
   17.5625  -12.0340  -14.8445 N   0  0  0  0  0  0  0  0  0  0  0  0
   17.8642   -9.7258  -15.4834 C   0  0  0  0  0  0  0  0  0  0  0  0
   18.0249   -8.7721  -16.2777 O   0  0  0  0  0  0  0  0  0  0  0  0
   18.1331   -9.0951  -11.4061 O   0  0  0  0  0  0  0  0  0  0  0  0
   17.5338   -8.1039  -12.1661 C   0  0  0  0  0  0  0  0  0  0  0  0
   18.0011   -8.1145  -13.6067 C   0  0  2  0  0  0  0  0  0  0  0  0
   17.8815   -9.4750  -14.0941 N   0  0  0  0  0  0  0  0  0  0  0  0
   19.4741   -7.7998  -13.5627 C   0  0  0  0  0  0  0  0  0  0  0  0
   20.2870   -8.7455  -13.4025 O   0  0  0  0  0  0  0  0  0  0  0  0
   22.9478   -7.7895  -17.3422 N   0  0  0  0  0  0  0  0  0  0  0  0
   22.0458   -6.6944  -17.4461 C   0  0  0  0  0  0  0  0  0  0  0  0
   21.7829   -6.2739  -18.5891 O   0  0  0  0  0  0  0  0  0  0  0  0
   21.4404   -6.0765  -16.2296 C   0  0  0  0  0  0  0  0  0  0  0  0
   21.8946   -6.8557  -15.0382 C   0  0  0  0  0  0  0  0  0  0  0  0
   21.4081   -6.2828  -13.7361 C   0  0  2  0  0  0  0  0  0  0  0  0
   19.9759   -6.5008  -13.6923 N   0  0  0  0  0  0  0  0  0  0  0  0
   21.6784   -4.8629  -13.5379 C   0  0  0  0  0  0  0  0  0  0  0  0
   20.8126   -3.9509  -13.5647 O   0  0  0  0  0  0  0  0  0  0  0  0
   22.9788   -4.4457  -13.2986 O   0  0  0  0  0  0  0  0  0  0  0  0
  2  1  1  0
  3  2  1  0
  3  4  1  1
  5  3  1  0
  5 10  1  0
  6  5  2  0
  9  8  1  1
  8  7  1  0
  9 10  1  0
  9 11  1  0
 11 19  1  0
 11 12  2  0
 14 16  1  0
 14 13  1  0
 15 14  2  0
 18 17  1  6
 17 16  1  0
 18 20  1  0
 19 18  1  0
 20 22  1  0
 21 20  2  0
M  END
$$$$
