SSQ.pdb
     RDKit          3D

 22 21  0  0  1  0  0  0  0  0999 V2000
   27.9585  -18.1354  -15.9568 O   0  0  0  0  0  0  0  0  0  0  0  0
   27.0509  -19.1117  -15.5517 C   0  0  0  0  0  0  0  0  0  0  0  0
   27.7728  -20.3125  -14.9516 C   0  0  2  0  0  0  0  0  0  0  0  0
   28.5718  -20.9973  -15.9223 N   0  0  0  0  0  0  0  0  0  0  0  0
   26.7846  -21.2342  -14.3170 C   0  0  0  0  0  0  0  0  0  0  0  0
   26.3612  -22.2621  -14.8918 O   0  0  0  0  0  0  0  0  0  0  0  0
   25.1873  -20.0151  -10.7299 O   0  0  0  0  0  0  0  0  0  0  0  0
   25.2132  -21.3829  -10.9487 C   0  0  0  0  0  0  0  0  0  0  0  0
   25.2712  -21.7344  -12.4208 C   0  0  2  0  0  0  0  0  0  0  0  0
   26.3158  -20.9276  -13.0210 N   0  0  0  0  0  0  0  0  0  0  0  0
   23.9674  -21.2588  -13.0078 C   0  0  0  0  0  0  0  0  0  0  0  0
   23.8800  -20.0646  -13.3910 O   0  0  0  0  0  0  0  0  0  0  0  0
   19.7119  -24.7725  -15.6132 N   0  0  0  0  0  0  0  0  0  0  0  0
   19.0291  -23.5249  -15.6355 C   0  0  0  0  0  0  0  0  0  0  0  0
   17.9225  -23.4863  -16.2071 O   0  0  0  0  0  0  0  0  0  0  0  0
   19.6196  -22.3115  -14.9973 C   0  0  0  0  0  0  0  0  0  0  0  0
   20.9502  -22.6864  -14.4301 C   0  0  0  0  0  0  0  0  0  0  0  0
   21.6210  -21.5570  -13.6987 C   0  0  2  0  0  0  0  0  0  0  0  0
   22.8502  -22.0890  -13.1448 N   0  0  0  0  0  0  0  0  0  0  0  0
   20.8380  -20.9550  -12.6250 C   0  0  0  0  0  0  0  0  0  0  0  0
   20.9143  -21.2699  -11.4096 O   0  0  0  0  0  0  0  0  0  0  0  0
   19.9274  -19.9541  -12.9270 O   0  0  0  0  0  0  0  0  0  0  0  0
  2  1  1  0
  3  2  1  0
  3  4  1  6
  5  3  1  0
  5 10  1  0
  6  5  2  0
  9  8  1  1
  8  7  1  0
  9 10  1  0
  9 11  1  0
 11 19  1  0
 11 12  2  0
 14 16  1  0
 14 13  1  0
 15 14  2  0
 18 17  1  1
 17 16  1  0
 18 20  1  0
 19 18  1  0
 20 22  1  0
 21 20  2  0
M  END
$$$$
