SSQ.pdb
     RDKit          3D

 22 21  0  0  1  0  0  0  0  0999 V2000
   19.8907  -10.4454  -21.5106 O   0  0  0  0  0  0  0  0  0  0  0  0
   19.8495   -9.9022  -20.2283 C   0  0  0  0  0  0  0  0  0  0  0  0
   20.2498  -10.9375  -19.1839 C   0  0  2  0  0  0  0  0  0  0  0  0
   19.3240  -12.0282  -19.1284 N   0  0  0  0  0  0  0  0  0  0  0  0
   20.3954  -10.2834  -17.8499 C   0  0  0  0  0  0  0  0  0  0  0  0
   19.4128  -10.0235  -17.1196 O   0  0  0  0  0  0  0  0  0  0  0  0
   24.2107   -9.9276  -16.3420 O   0  0  0  0  0  0  0  0  0  0  0  0
   23.1222   -9.9906  -15.4873 C   0  0  0  0  0  0  0  0  0  0  0  0
   21.8769   -9.3709  -16.0866 C   0  0  2  0  0  0  0  0  0  0  0  0
   21.6925   -9.9491  -17.4035 N   0  0  0  0  0  0  0  0  0  0  0  0
   22.2033   -7.9149  -16.2963 C   0  0  0  0  0  0  0  0  0  0  0  0
   22.6839   -7.5591  -17.4022 O   0  0  0  0  0  0  0  0  0  0  0  0
   20.1543   -3.0084  -17.8692 N   0  0  0  0  0  0  0  0  0  0  0  0
   19.3788   -3.7434  -16.9301 C   0  0  0  0  0  0  0  0  0  0  0  0
   18.1995   -3.3826  -16.7523 O   0  0  0  0  0  0  0  0  0  0  0  0
   19.9601   -4.9013  -16.1888 C   0  0  0  0  0  0  0  0  0  0  0  0
   21.3560   -5.1123  -16.6784 C   0  0  0  0  0  0  0  0  0  0  0  0
   22.3019   -5.5542  -15.5966 C   0  0  2  0  0  0  0  0  0  0  0  0
   21.9945   -6.9420  -15.3133 N   0  0  0  0  0  0  0  0  0  0  0  0
   22.2334   -4.7901  -14.3557 C   0  0  0  0  0  0  0  0  0  0  0  0
   21.7740   -5.2190  -13.2662 O   0  0  0  0  0  0  0  0  0  0  0  0
   22.7013   -3.4851  -14.3347 O   0  0  0  0  0  0  0  0  0  0  0  0
  2  1  1  0
  3  2  1  0
  3  4  1  1
  5  3  1  0
  5 10  1  0
  6  5  2  0
  9  8  1  6
  8  7  1  0
  9 10  1  0
  9 11  1  0
 11 19  1  0
 11 12  2  0
 14 16  1  0
 14 13  1  0
 15 14  2  0
 18 17  1  6
 17 16  1  0
 18 20  1  0
 19 18  1  0
 20 22  1  0
 21 20  2  0
M  END
$$$$
