NEQ.pdb
     RDKit          3D

 27 26  0  0  1  0  0  0  0  0999 V2000
   20.8581  -16.8189  -19.6914 N   0  0  0  0  0  0  0  0  0  0  0  0
   21.3980  -15.5070  -19.6882 C   0  0  0  0  0  0  0  0  0  0  0  0
   22.4917  -15.3130  -20.2495 O   0  0  0  0  0  0  0  0  0  0  0  0
   20.6083  -14.4406  -19.0049 C   0  0  0  0  0  0  0  0  0  0  0  0
   21.5180  -13.3909  -18.4012 C   0  0  2  0  0  0  0  0  0  0  0  0
   22.1420  -13.9717  -17.2298 N   0  0  0  0  0  0  0  0  0  0  0  0
   20.6840  -12.2543  -18.0007 C   0  0  0  0  0  0  0  0  0  0  0  0
   20.1164  -11.5622  -18.8879 O   0  0  0  0  0  0  0  0  0  0  0  0
   20.4775  -11.8841  -16.6330 N   0  0  0  0  0  0  0  0  0  0  0  0
   19.6800  -10.7444  -16.3381 C   0  0  1  0  0  0  0  0  0  0  0  0
   18.5532  -11.1307  -15.4106 C   0  0  0  0  0  0  0  0  0  0  0  0
   17.6082  -12.1239  -16.0392 C   0  0  0  0  0  0  0  0  0  0  0  0
   16.5468  -12.4137  -15.0415 C   0  0  0  0  0  0  0  0  0  0  0  0
   16.4613  -11.8124  -13.9392 O   0  0  0  0  0  0  0  0  0  0  0  0
   20.4667   -9.6305  -15.7344 C   0  0  0  0  0  0  0  0  0  0  0  0
   21.4161   -9.9009  -14.9568 O   0  0  0  0  0  0  0  0  0  0  0  0
   15.5796  -13.3963  -15.3080 O   0  0  0  0  0  0  0  0  0  0  0  0
   20.8481   -3.4518  -17.8283 N   0  0  0  0  0  0  0  0  0  0  0  0
   21.5409   -3.5617  -16.5988 C   0  0  0  0  0  0  0  0  0  0  0  0
   22.1314   -2.5027  -16.1807 O   0  0  0  0  0  0  0  0  0  0  0  0
   21.6211   -4.7800  -15.7831 C   0  0  0  0  0  0  0  0  0  0  0  0
   20.8780   -5.9669  -16.2694 C   0  0  0  0  0  0  0  0  0  0  0  0
   21.0131   -7.1688  -15.4304 C   0  0  2  0  0  0  0  0  0  0  0  0
   20.1989   -8.2712  -15.9927 N   0  0  0  0  0  0  0  0  0  0  0  0
   20.6961   -7.1037  -14.0269 C   0  0  0  0  0  0  0  0  0  0  0  0
   21.6475   -6.8188  -13.0230 O   0  0  0  0  0  0  0  0  0  0  0  0
   19.5394   -7.2980  -13.5964 O   0  0  0  0  0  0  0  0  0  0  0  0
  2  3  2  0
  2  1  1  0
  4  2  1  0
  5  4  1  0
  5  6  1  1
  7  8  2  0
  7  5  1  0
  9  7  1  0
 10 11  1  1
 10  9  1  0
 11 12  1  0
 12 13  1  0
 13 17  1  0
 14 13  2  0
 15 24  1  0
 15 10  1  0
 16 15  2  0
 19 18  1  0
 20 19  2  0
 21 19  1  0
 22 21  1  0
 23 22  1  6
 23 24  1  0
 25 26  1  0
 25 23  1  0
 27 25  2  0
M  END
$$$$
