NEQ.pdb
     RDKit          3D

 27 26  0  0  1  0  0  0  0  0999 V2000
   21.0375  -17.6092  -18.3049 N   0  0  0  0  0  0  0  0  0  0  0  0
   20.8551  -17.5168  -16.9011 C   0  0  0  0  0  0  0  0  0  0  0  0
   19.9948  -16.7309  -16.4640 O   0  0  0  0  0  0  0  0  0  0  0  0
   21.7165  -18.3776  -16.0381 C   0  0  0  0  0  0  0  0  0  0  0  0
   22.7138  -19.1577  -16.8692 C   0  0  2  0  0  0  0  0  0  0  0  0
   21.9659  -20.0672  -17.7132 N   0  0  0  0  0  0  0  0  0  0  0  0
   23.5588  -19.9242  -15.9492 C   0  0  0  0  0  0  0  0  0  0  0  0
   23.0208  -20.7297  -15.1428 O   0  0  0  0  0  0  0  0  0  0  0  0
   24.9852  -19.8035  -15.9187 N   0  0  0  0  0  0  0  0  0  0  0  0
   25.7272  -20.6017  -15.0053 C   0  0  1  0  0  0  0  0  0  0  0  0
   27.1738  -20.6627  -15.4326 C   0  0  0  0  0  0  0  0  0  0  0  0
   27.6006  -22.0581  -15.8139 C   0  0  0  0  0  0  0  0  0  0  0  0
   28.8591  -21.9360  -16.5932 C   0  0  0  0  0  0  0  0  0  0  0  0
   29.5096  -22.9325  -17.0029 O   0  0  0  0  0  0  0  0  0  0  0  0
   25.6396  -20.1047  -13.6019 C   0  0  0  0  0  0  0  0  0  0  0  0
   25.3063  -18.9112  -13.3934 O   0  0  0  0  0  0  0  0  0  0  0  0
   29.3740  -20.6672  -16.9043 O   0  0  0  0  0  0  0  0  0  0  0  0
   20.9016  -20.2822  -11.2403 N   0  0  0  0  0  0  0  0  0  0  0  0
   21.6857  -20.0780  -10.0795 C   0  0  0  0  0  0  0  0  0  0  0  0
   21.0557  -19.7159   -9.0227 O   0  0  0  0  0  0  0  0  0  0  0  0
   23.1412  -20.2566  -10.0040 C   0  0  0  0  0  0  0  0  0  0  0  0
   23.8539  -20.5265  -11.2755 C   0  0  0  0  0  0  0  0  0  0  0  0
   25.3130  -20.6738  -11.1483 C   0  0  2  0  0  0  0  0  0  0  0  0
   25.9144  -20.9131  -12.4808 N   0  0  0  0  0  0  0  0  0  0  0  0
   25.8593  -21.6757  -10.2694 C   0  0  0  0  0  0  0  0  0  0  0  0
   26.2183  -21.4259   -8.9267 O   0  0  0  0  0  0  0  0  0  0  0  0
   26.0552  -22.8521  -10.6419 O   0  0  0  0  0  0  0  0  0  0  0  0
  2  3  2  0
  2  1  1  0
  4  2  1  0
  5  4  1  0
  5  6  1  6
  7  8  2  0
  7  5  1  0
  9  7  1  0
 10 11  1  6
 10  9  1  0
 11 12  1  0
 12 13  1  0
 13 17  1  0
 14 13  2  0
 15 24  1  0
 15 10  1  0
 16 15  2  0
 19 18  1  0
 20 19  2  0
 21 19  1  0
 22 21  1  0
 23 22  1  6
 23 24  1  0
 25 26  1  0
 25 23  1  0
 27 25  2  0
M  END
$$$$
