NEQ.pdb
     RDKit          3D

 27 26  0  0  1  0  0  0  0  0999 V2000
   16.3254  -14.4991  -15.6642 N   0  0  0  0  0  0  0  0  0  0  0  0
   16.2454  -13.3141  -14.8882 C   0  0  0  0  0  0  0  0  0  0  0  0
   15.4233  -13.2692  -13.9550 O   0  0  0  0  0  0  0  0  0  0  0  0
   17.1623  -12.1931  -15.2494 C   0  0  0  0  0  0  0  0  0  0  0  0
   17.9083  -12.4913  -16.5333 C   0  0  2  0  0  0  0  0  0  0  0  0
   18.9892  -13.4009  -16.2120 N   0  0  0  0  0  0  0  0  0  0  0  0
   18.4609  -11.2288  -17.0320 C   0  0  0  0  0  0  0  0  0  0  0  0
   19.6416  -10.9091  -16.7284 O   0  0  0  0  0  0  0  0  0  0  0  0
   17.7176  -10.3263  -17.8585 N   0  0  0  0  0  0  0  0  0  0  0  0
   18.3875   -9.2215  -18.4524 C   0  0  1  0  0  0  0  0  0  0  0  0
   17.6860   -8.8190  -19.7272 C   0  0  0  0  0  0  0  0  0  0  0  0
   18.4423   -7.7583  -20.4873 C   0  0  0  0  0  0  0  0  0  0  0  0
   17.4640   -7.0607  -21.3604 C   0  0  0  0  0  0  0  0  0  0  0  0
   17.0348   -5.9027  -21.1181 O   0  0  0  0  0  0  0  0  0  0  0  0
   18.4822   -8.0459  -17.5396 C   0  0  0  0  0  0  0  0  0  0  0  0
   17.5590   -7.8343  -16.7138 O   0  0  0  0  0  0  0  0  0  0  0  0
   16.9756   -7.6925  -22.5154 O   0  0  0  0  0  0  0  0  0  0  0  0
   23.7279   -5.9801  -14.6351 N   0  0  0  0  0  0  0  0  0  0  0  0
   22.5294   -5.6351  -13.9656 C   0  0  0  0  0  0  0  0  0  0  0  0
   22.6504   -5.2182  -12.7588 O   0  0  0  0  0  0  0  0  0  0  0  0
   21.1850   -5.7140  -14.5508 C   0  0  0  0  0  0  0  0  0  0  0  0
   21.0904   -6.1413  -15.9671 C   0  0  0  0  0  0  0  0  0  0  0  0
   19.7381   -6.0751  -16.5450 C   0  0  2  0  0  0  0  0  0  0  0  0
   19.5671   -7.1465  -17.5535 N   0  0  0  0  0  0  0  0  0  0  0  0
   19.2807   -4.8573  -17.1632 C   0  0  0  0  0  0  0  0  0  0  0  0
   18.5896   -3.8400  -16.4693 O   0  0  0  0  0  0  0  0  0  0  0  0
   19.4677   -4.6152  -18.3746 O   0  0  0  0  0  0  0  0  0  0  0  0
  2  3  2  0
  2  1  1  0
  4  2  1  0
  5  4  1  0
  5  6  1  1
  7  8  2  0
  7  5  1  0
  9  7  1  0
 10 11  1  6
 10  9  1  0
 11 12  1  0
 12 13  1  0
 13 17  1  0
 14 13  2  0
 15 24  1  0
 15 10  1  0
 16 15  2  0
 19 18  1  0
 20 19  2  0
 21 19  1  0
 22 21  1  0
 23 22  1  6
 23 24  1  0
 25 26  1  0
 25 23  1  0
 27 25  2  0
M  END
$$$$
