NEQ.pdb
     RDKit          3D

 27 26  0  0  1  0  0  0  0  0999 V2000
   12.3943  -12.0284  -10.4947 N   0  0  0  0  0  0  0  0  0  0  0  0
   12.2727  -11.0944   -9.4338 C   0  0  0  0  0  0  0  0  0  0  0  0
   11.2156  -11.0752   -8.7772 O   0  0  0  0  0  0  0  0  0  0  0  0
   13.4329  -10.1913   -9.1770 C   0  0  0  0  0  0  0  0  0  0  0  0
   14.5726  -10.4835  -10.1308 C   0  0  2  0  0  0  0  0  0  0  0  0
   15.1520  -11.7545   -9.7463 N   0  0  0  0  0  0  0  0  0  0  0  0
   15.5701   -9.4214   -9.9731 C   0  0  0  0  0  0  0  0  0  0  0  0
   16.3485   -9.4477   -8.9823 O   0  0  0  0  0  0  0  0  0  0  0  0
   15.7079   -8.3391  -10.9005 N   0  0  0  0  0  0  0  0  0  0  0  0
   16.7438   -7.3856  -10.7012 C   0  0  1  0  0  0  0  0  0  0  0  0
   17.8030   -7.5464  -11.7649 C   0  0  0  0  0  0  0  0  0  0  0  0
   18.9874   -6.6412  -11.5360 C   0  0  0  0  0  0  0  0  0  0  0  0
   19.9829   -6.9423  -12.5964 C   0  0  0  0  0  0  0  0  0  0  0  0
   20.2873   -8.1154  -12.9358 O   0  0  0  0  0  0  0  0  0  0  0  0
   16.2426   -5.9810  -10.7011 C   0  0  0  0  0  0  0  0  0  0  0  0
   15.5401   -5.5802  -11.6628 O   0  0  0  0  0  0  0  0  0  0  0  0
   20.6319   -5.8952  -13.2703 O   0  0  0  0  0  0  0  0  0  0  0  0
   14.4365   -2.7071   -5.6383 N   0  0  0  0  0  0  0  0  0  0  0  0
   13.7908   -3.5788   -6.5478 C   0  0  0  0  0  0  0  0  0  0  0  0
   12.7193   -4.1464   -6.1300 O   0  0  0  0  0  0  0  0  0  0  0  0
   14.2522   -3.8651   -7.9120 C   0  0  0  0  0  0  0  0  0  0  0  0
   15.5649   -3.3038   -8.3113 C   0  0  0  0  0  0  0  0  0  0  0  0
   16.0110   -3.6740   -9.6643 C   0  0  2  0  0  0  0  0  0  0  0  0
   16.5183   -5.0658   -9.6655 N   0  0  0  0  0  0  0  0  0  0  0  0
   17.0063   -2.8774  -10.3349 C   0  0  0  0  0  0  0  0  0  0  0  0
   16.7904   -1.5459  -10.7527 O   0  0  0  0  0  0  0  0  0  0  0  0
   18.1459   -3.3181  -10.5961 O   0  0  0  0  0  0  0  0  0  0  0  0
  2  3  2  0
  2  1  1  0
  4  2  1  0
  5  4  1  0
  5  6  1  1
  7  8  2  0
  7  5  1  0
  9  7  1  0
 10 11  1  6
 10  9  1  0
 11 12  1  0
 12 13  1  0
 13 17  1  0
 14 13  2  0
 15 24  1  0
 15 10  1  0
 16 15  2  0
 19 18  1  0
 20 19  2  0
 21 19  1  0
 22 21  1  0
 23 22  1  1
 23 24  1  0
 25 26  1  0
 25 23  1  0
 27 25  2  0
M  END
$$$$
