NEQ.pdb
     RDKit          3D

 27 26  0  0  1  0  0  0  0  0999 V2000
   14.5394  -12.4971  -10.3488 N   0  0  0  0  0  0  0  0  0  0  0  0
   15.7639  -12.0729  -10.9261 C   0  0  0  0  0  0  0  0  0  0  0  0
   16.5818  -12.9383  -11.2878 O   0  0  0  0  0  0  0  0  0  0  0  0
   15.9875  -10.6032  -11.0604 C   0  0  0  0  0  0  0  0  0  0  0  0
   14.9207   -9.8201  -10.3239 C   0  0  2  0  0  0  0  0  0  0  0  0
   13.6556  -10.0750  -10.9824 N   0  0  0  0  0  0  0  0  0  0  0  0
   15.2543   -8.3974  -10.4354 C   0  0  0  0  0  0  0  0  0  0  0  0
   14.9130   -7.7625  -11.4692 O   0  0  0  0  0  0  0  0  0  0  0  0
   15.9587   -7.6808   -9.4153 N   0  0  0  0  0  0  0  0  0  0  0  0
   16.2140   -6.2936   -9.5957 C   0  0  1  0  0  0  0  0  0  0  0  0
   15.7116   -5.5183   -8.4018 C   0  0  0  0  0  0  0  0  0  0  0  0
   14.2355   -5.2213   -8.4908 C   0  0  0  0  0  0  0  0  0  0  0  0
   13.8634   -4.4683   -7.2659 C   0  0  0  0  0  0  0  0  0  0  0  0
   14.1490   -3.2545   -7.0958 O   0  0  0  0  0  0  0  0  0  0  0  0
   17.6592   -5.9968   -9.8141 C   0  0  0  0  0  0  0  0  0  0  0  0
   18.5104   -6.4779   -9.0249 O   0  0  0  0  0  0  0  0  0  0  0  0
   13.1614   -5.1087   -6.2320 O   0  0  0  0  0  0  0  0  0  0  0  0
   20.4198   -9.5704  -12.5047 N   0  0  0  0  0  0  0  0  0  0  0  0
   21.2622   -8.4754  -12.8130 C   0  0  0  0  0  0  0  0  0  0  0  0
   22.3860   -8.7580  -13.3626 O   0  0  0  0  0  0  0  0  0  0  0  0
   20.9391   -7.0659  -12.5577 C   0  0  0  0  0  0  0  0  0  0  0  0
   19.6816   -6.7848  -11.8247 C   0  0  0  0  0  0  0  0  0  0  0  0
   19.4662   -5.3689  -11.4848 C   0  0  2  0  0  0  0  0  0  0  0  0
   18.1283   -5.1943  -10.8734 N   0  0  0  0  0  0  0  0  0  0  0  0
   19.5817   -4.3600  -12.5063 C   0  0  0  0  0  0  0  0  0  0  0  0
   18.4745   -3.7988  -13.1795 O   0  0  0  0  0  0  0  0  0  0  0  0
   20.6871   -3.9062  -12.8712 O   0  0  0  0  0  0  0  0  0  0  0  0
  2  3  2  0
  2  1  1  0
  4  2  1  0
  5  4  1  0
  5  6  1  6
  7  8  2  0
  7  5  1  0
  9  7  1  0
 10 11  1  1
 10  9  1  0
 11 12  1  0
 12 13  1  0
 13 17  1  0
 14 13  2  0
 15 24  1  0
 15 10  1  0
 16 15  2  0
 19 18  1  0
 20 19  2  0
 21 19  1  0
 22 21  1  0
 23 22  1  6
 23 24  1  0
 25 26  1  0
 25 23  1  0
 27 25  2  0
M  END
$$$$
