NEQ.pdb
     RDKit          3D

 27 26  0  0  1  0  0  0  0  0999 V2000
   11.9430  -11.9816   -9.2643 N   0  0  0  0  0  0  0  0  0  0  0  0
   12.9445  -12.0552  -10.2663 C   0  0  0  0  0  0  0  0  0  0  0  0
   12.8222  -12.9047  -11.1676 O   0  0  0  0  0  0  0  0  0  0  0  0
   14.0863  -11.0989  -10.1682 C   0  0  0  0  0  0  0  0  0  0  0  0
   14.0965  -10.1402  -11.3408 C   0  0  2  0  0  0  0  0  0  0  0  0
   14.4488  -10.8979  -12.5243 N   0  0  0  0  0  0  0  0  0  0  0  0
   15.1246   -9.1286  -11.0812 C   0  0  0  0  0  0  0  0  0  0  0  0
   15.1551   -8.5528   -9.9605 O   0  0  0  0  0  0  0  0  0  0  0  0
   16.1109   -8.7549  -12.0496 N   0  0  0  0  0  0  0  0  0  0  0  0
   16.9614   -7.6480  -11.7785 C   0  0  1  0  0  0  0  0  0  0  0  0
   17.9905   -7.5091  -12.8743 C   0  0  0  0  0  0  0  0  0  0  0  0
   19.2796   -8.2187  -12.5434 C   0  0  0  0  0  0  0  0  0  0  0  0
   20.1413   -8.1519  -13.7513 C   0  0  0  0  0  0  0  0  0  0  0  0
   21.2129   -7.4930  -13.7917 O   0  0  0  0  0  0  0  0  0  0  0  0
   16.2115   -6.3674  -11.6298 C   0  0  0  0  0  0  0  0  0  0  0  0
   15.1832   -6.1742  -12.3256 O   0  0  0  0  0  0  0  0  0  0  0  0
   19.7737   -8.8427  -14.9173 O   0  0  0  0  0  0  0  0  0  0  0  0
   11.7208   -5.1652   -8.9036 N   0  0  0  0  0  0  0  0  0  0  0  0
   12.7269   -4.5500   -8.1208 C   0  0  0  0  0  0  0  0  0  0  0  0
   12.4148   -4.2709   -6.9085 O   0  0  0  0  0  0  0  0  0  0  0  0
   14.0787   -4.2232   -8.5918 C   0  0  0  0  0  0  0  0  0  0  0  0
   14.4230   -4.6178   -9.9786 C   0  0  0  0  0  0  0  0  0  0  0  0
   15.7488   -4.1728  -10.4381 C   0  0  2  0  0  0  0  0  0  0  0  0
   16.5998   -5.3476  -10.7379 N   0  0  0  0  0  0  0  0  0  0  0  0
   16.5391   -3.2984   -9.6101 C   0  0  0  0  0  0  0  0  0  0  0  0
   16.1567   -1.9806   -9.2768 O   0  0  0  0  0  0  0  0  0  0  0  0
   17.6339   -3.6529   -9.1234 O   0  0  0  0  0  0  0  0  0  0  0  0
  2  3  2  0
  2  1  1  0
  4  2  1  0
  5  4  1  0
  5  6  1  6
  7  8  2  0
  7  5  1  0
  9  7  1  0
 10 11  1  6
 10  9  1  0
 11 12  1  0
 12 13  1  0
 13 17  1  0
 14 13  2  0
 15 24  1  0
 15 10  1  0
 16 15  2  0
 19 18  1  0
 20 19  2  0
 21 19  1  0
 22 21  1  0
 23 22  1  1
 23 24  1  0
 25 26  1  0
 25 23  1  0
 27 25  2  0
M  END
$$$$
