NEQ.pdb
     RDKit          3D

 27 26  0  0  1  0  0  0  0  0999 V2000
   12.3210  -13.0546  -11.8612 N   0  0  0  0  0  0  0  0  0  0  0  0
   13.1546  -13.1873  -10.7209 C   0  0  0  0  0  0  0  0  0  0  0  0
   12.9010  -14.0886   -9.9010 O   0  0  0  0  0  0  0  0  0  0  0  0
   14.2888  -12.2269  -10.5834 C   0  0  0  0  0  0  0  0  0  0  0  0
   14.2236  -11.1506  -11.6470 C   0  0  2  0  0  0  0  0  0  0  0  0
   14.4978  -11.7779  -12.9239 N   0  0  0  0  0  0  0  0  0  0  0  0
   15.2671  -10.1655  -11.3498 C   0  0  0  0  0  0  0  0  0  0  0  0
   15.2163   -9.5196  -10.2688 O   0  0  0  0  0  0  0  0  0  0  0  0
   16.3577   -9.8949  -12.2373 N   0  0  0  0  0  0  0  0  0  0  0  0
   17.2700   -8.8532  -11.9140 C   0  0  1  0  0  0  0  0  0  0  0  0
   18.3333   -8.7509  -12.9808 C   0  0  0  0  0  0  0  0  0  0  0  0
   19.3431   -7.6711  -12.6820 C   0  0  0  0  0  0  0  0  0  0  0  0
   20.3728   -7.7236  -13.7510 C   0  0  0  0  0  0  0  0  0  0  0  0
   20.6321   -6.7458  -14.4998 O   0  0  0  0  0  0  0  0  0  0  0  0
   16.6000   -7.5314  -11.7457 C   0  0  0  0  0  0  0  0  0  0  0  0
   15.6800   -7.2047  -12.5367 O   0  0  0  0  0  0  0  0  0  0  0  0
   21.1083   -8.9009  -13.9627 O   0  0  0  0  0  0  0  0  0  0  0  0
   13.6274   -5.8974   -6.7989 N   0  0  0  0  0  0  0  0  0  0  0  0
   13.7206   -4.6918   -7.5348 C   0  0  0  0  0  0  0  0  0  0  0  0
   13.0394   -3.6996   -7.0917 O   0  0  0  0  0  0  0  0  0  0  0  0
   14.5339   -4.5029   -8.7426 C   0  0  0  0  0  0  0  0  0  0  0  0
   15.3462   -5.6573   -9.1956 C   0  0  0  0  0  0  0  0  0  0  0  0
   16.1358   -5.4187  -10.4147 C   0  0  2  0  0  0  0  0  0  0  0  0
   16.9483   -6.6158  -10.7325 N   0  0  0  0  0  0  0  0  0  0  0  0
   17.0293   -4.2909  -10.4818 C   0  0  0  0  0  0  0  0  0  0  0  0
   16.5941   -2.9475  -10.4787 O   0  0  0  0  0  0  0  0  0  0  0  0
   18.2694   -4.4276  -10.5483 O   0  0  0  0  0  0  0  0  0  0  0  0
  2  3  2  0
  2  1  1  0
  4  2  1  0
  5  4  1  0
  5  6  1  6
  7  8  2  0
  7  5  1  0
  9  7  1  0
 10 11  1  6
 10  9  1  0
 11 12  1  0
 12 13  1  0
 13 17  1  0
 14 13  2  0
 15 24  1  0
 15 10  1  0
 16 15  2  0
 19 18  1  0
 20 19  2  0
 21 19  1  0
 22 21  1  0
 23 22  1  1
 23 24  1  0
 25 26  1  0
 25 23  1  0
 27 25  2  0
M  END
$$$$
