NEQ.pdb
     RDKit          3D

 27 26  0  0  1  0  0  0  0  0999 V2000
   29.5254  -23.8617  -17.0454 N   0  0  0  0  0  0  0  0  0  0  0  0
   28.4124  -22.9874  -17.1414 C   0  0  0  0  0  0  0  0  0  0  0  0
   28.3388  -22.2243  -18.1218 O   0  0  0  0  0  0  0  0  0  0  0  0
   27.3974  -23.0447  -16.0486 C   0  0  0  0  0  0  0  0  0  0  0  0
   26.6841  -21.7172  -15.8971 C   0  0  2  0  0  0  0  0  0  0  0  0
   27.6915  -20.7005  -15.6725 N   0  0  0  0  0  0  0  0  0  0  0  0
   25.8110  -21.8110  -14.7237 C   0  0  0  0  0  0  0  0  0  0  0  0
   24.9290  -22.7102  -14.6809 O   0  0  0  0  0  0  0  0  0  0  0  0
   25.9097  -20.9204  -13.6069 N   0  0  0  0  0  0  0  0  0  0  0  0
   25.0227  -21.0883  -12.5083 C   0  0  1  0  0  0  0  0  0  0  0  0
   25.7216  -20.7205  -11.2216 C   0  0  0  0  0  0  0  0  0  0  0  0
   26.9908  -21.5082  -11.0132 C   0  0  0  0  0  0  0  0  0  0  0  0
   28.1273  -20.5938  -11.2931 C   0  0  0  0  0  0  0  0  0  0  0  0
   27.9709  -19.3920  -11.6326 O   0  0  0  0  0  0  0  0  0  0  0  0
   23.7737  -20.2854  -12.6475 C   0  0  0  0  0  0  0  0  0  0  0  0
   23.8584  -19.0430  -12.8156 O   0  0  0  0  0  0  0  0  0  0  0  0
   29.4479  -21.0583  -11.1836 O   0  0  0  0  0  0  0  0  0  0  0  0
   22.1674  -19.3539  -17.5652 N   0  0  0  0  0  0  0  0  0  0  0  0
   20.9001  -19.1752  -16.9603 C   0  0  0  0  0  0  0  0  0  0  0  0
   19.9674  -18.7217  -17.7148 O   0  0  0  0  0  0  0  0  0  0  0  0
   20.5865  -19.4750  -15.5576 C   0  0  0  0  0  0  0  0  0  0  0  0
   21.6936  -19.9837  -14.7132 C   0  0  0  0  0  0  0  0  0  0  0  0
   21.3243  -20.2783  -13.3190 C   0  0  2  0  0  0  0  0  0  0  0  0
   22.4847  -20.8533  -12.6000 N   0  0  0  0  0  0  0  0  0  0  0  0
   20.2047  -21.1405  -13.0401 C   0  0  0  0  0  0  0  0  0  0  0  0
   20.3351  -22.5013  -12.6863 O   0  0  0  0  0  0  0  0  0  0  0  0
   19.0238  -20.7358  -13.0934 O   0  0  0  0  0  0  0  0  0  0  0  0
  2  3  2  0
  2  1  1  0
  4  2  1  0
  5  4  1  0
  5  6  1  1
  7  8  2  0
  7  5  1  0
  9  7  1  0
 10 11  1  1
 10  9  1  0
 11 12  1  0
 12 13  1  0
 13 17  1  0
 14 13  2  0
 15 24  1  0
 15 10  1  0
 16 15  2  0
 19 18  1  0
 20 19  2  0
 21 19  1  0
 22 21  1  0
 23 22  1  6
 23 24  1  0
 25 26  1  0
 25 23  1  0
 27 25  2  0
M  END
$$$$
