NEQ.pdb
     RDKit          3D

 27 26  0  0  1  0  0  0  0  0999 V2000
   14.3982  -12.5134   -9.7921 N   0  0  0  0  0  0  0  0  0  0  0  0
   15.5749  -12.1813  -10.5116 C   0  0  0  0  0  0  0  0  0  0  0  0
   16.3453  -13.0993  -10.8474 O   0  0  0  0  0  0  0  0  0  0  0  0
   15.8087  -10.7394  -10.8186 C   0  0  0  0  0  0  0  0  0  0  0  0
   14.7946   -9.8612  -10.1155 C   0  0  2  0  0  0  0  0  0  0  0  0
   13.4963  -10.1388  -10.6955 N   0  0  0  0  0  0  0  0  0  0  0  0
   15.1589   -8.4650  -10.3726 C   0  0  0  0  0  0  0  0  0  0  0  0
   15.0028   -7.9893  -11.5291 O   0  0  0  0  0  0  0  0  0  0  0  0
   15.6908   -7.6008   -9.3625 N   0  0  0  0  0  0  0  0  0  0  0  0
   15.9606   -6.2428   -9.6866 C   0  0  1  0  0  0  0  0  0  0  0  0
   15.4359   -5.3395   -8.5967 C   0  0  0  0  0  0  0  0  0  0  0  0
   15.5867   -3.8787   -8.9406 C   0  0  0  0  0  0  0  0  0  0  0  0
   14.9107   -3.1024   -7.8700 C   0  0  0  0  0  0  0  0  0  0  0  0
   14.8462   -1.8455   -7.8730 O   0  0  0  0  0  0  0  0  0  0  0  0
   17.4127   -5.9785   -9.9008 C   0  0  0  0  0  0  0  0  0  0  0  0
   18.2371   -6.3327   -9.0211 O   0  0  0  0  0  0  0  0  0  0  0  0
   14.3062   -3.7689   -6.7919 O   0  0  0  0  0  0  0  0  0  0  0  0
   20.2152   -9.5469  -13.0760 N   0  0  0  0  0  0  0  0  0  0  0  0
   21.1571   -8.4909  -13.0385 C   0  0  0  0  0  0  0  0  0  0  0  0
   22.3410   -8.7685  -13.4464 O   0  0  0  0  0  0  0  0  0  0  0  0
   20.8736   -7.1251  -12.5801 C   0  0  0  0  0  0  0  0  0  0  0  0
   19.5376   -6.8766  -11.9878 C   0  0  0  0  0  0  0  0  0  0  0  0
   19.3171   -5.5012  -11.5121 C   0  0  2  0  0  0  0  0  0  0  0  0
   17.9174   -5.3438  -11.0534 N   0  0  0  0  0  0  0  0  0  0  0  0
   19.5869   -4.3879  -12.3852 C   0  0  0  0  0  0  0  0  0  0  0  0
   20.8729   -3.8358  -12.5736 O   0  0  0  0  0  0  0  0  0  0  0  0
   18.6867   -3.8267  -13.0454 O   0  0  0  0  0  0  0  0  0  0  0  0
  2  3  2  0
  2  1  1  0
  4  2  1  0
  5  4  1  0
  5  6  1  6
  7  8  2  0
  7  5  1  0
  9  7  1  0
 10 11  1  1
 10  9  1  0
 11 12  1  0
 12 13  1  0
 13 17  1  0
 14 13  2  0
 15 24  1  0
 15 10  1  0
 16 15  2  0
 19 18  1  0
 20 19  2  0
 21 19  1  0
 22 21  1  0
 23 22  1  6
 23 24  1  0
 25 26  1  0
 25 23  1  0
 27 25  2  0
M  END
$$$$
