NEQ.pdb
     RDKit          3D

 27 26  0  0  1  0  0  0  0  0999 V2000
   16.3086  -11.0527  -17.1172 N   0  0  0  0  0  0  0  0  0  0  0  0
   15.4666  -10.0496  -16.5718 C   0  0  0  0  0  0  0  0  0  0  0  0
   14.6083   -9.5294  -17.3077 O   0  0  0  0  0  0  0  0  0  0  0  0
   15.6713   -9.6849  -15.1390 C   0  0  0  0  0  0  0  0  0  0  0  0
   16.8891  -10.3813  -14.5681 C   0  0  2  0  0  0  0  0  0  0  0  0
   16.4789  -11.7035  -14.1410 N   0  0  0  0  0  0  0  0  0  0  0  0
   17.3419   -9.6090  -13.4077 C   0  0  0  0  0  0  0  0  0  0  0  0
   16.9332   -9.9251  -12.2582 O   0  0  0  0  0  0  0  0  0  0  0  0
   18.2379   -8.4973  -13.5142 N   0  0  0  0  0  0  0  0  0  0  0  0
   18.6337   -7.8126  -12.3324 C   0  0  1  0  0  0  0  0  0  0  0  0
   19.8219   -6.9280  -12.6236 C   0  0  0  0  0  0  0  0  0  0  0  0
   20.3096   -6.2006  -11.3956 C   0  0  0  0  0  0  0  0  0  0  0  0
   21.4040   -5.2939  -11.8269 C   0  0  0  0  0  0  0  0  0  0  0  0
   21.2181   -4.0802  -12.1032 O   0  0  0  0  0  0  0  0  0  0  0  0
   17.5335   -6.9964  -11.7428 C   0  0  0  0  0  0  0  0  0  0  0  0
   16.7847   -6.3345  -12.5045 O   0  0  0  0  0  0  0  0  0  0  0  0
   22.7165   -5.7797  -11.9420 O   0  0  0  0  0  0  0  0  0  0  0  0
   13.3711   -8.7493   -7.4661 N   0  0  0  0  0  0  0  0  0  0  0  0
   13.2420   -7.3430   -7.5626 C   0  0  0  0  0  0  0  0  0  0  0  0
   12.2655   -6.8150   -6.9203 O   0  0  0  0  0  0  0  0  0  0  0  0
   14.1371   -6.4653   -8.3271 C   0  0  0  0  0  0  0  0  0  0  0  0
   15.2619   -7.1106   -9.0453 C   0  0  0  0  0  0  0  0  0  0  0  0
   16.1391   -6.1854   -9.7811 C   0  0  2  0  0  0  0  0  0  0  0  0
   17.2848   -6.9266  -10.3574 N   0  0  0  0  0  0  0  0  0  0  0  0
   16.6928   -5.0364   -9.1119 C   0  0  0  0  0  0  0  0  0  0  0  0
   15.9690   -3.8481   -8.8706 O   0  0  0  0  0  0  0  0  0  0  0  0
   17.8698   -5.0134   -8.6932 O   0  0  0  0  0  0  0  0  0  0  0  0
  2  3  2  0
  2  1  1  0
  4  2  1  0
  5  4  1  0
  5  6  1  1
  7  8  2  0
  7  5  1  0
  9  7  1  0
 10 11  1  6
 10  9  1  0
 11 12  1  0
 12 13  1  0
 13 17  1  0
 14 13  2  0
 15 24  1  0
 15 10  1  0
 16 15  2  0
 19 18  1  0
 20 19  2  0
 21 19  1  0
 22 21  1  0
 23 22  1  1
 23 24  1  0
 25 26  1  0
 25 23  1  0
 27 25  2  0
M  END
$$$$
