NEQ.pdb
     RDKit          3D

 27 26  0  0  1  0  0  0  0  0999 V2000
   47.2249  -10.1062   -5.7716 N   0  0  0  0  0  0  0  0  0  0  0  0
   46.3053  -11.0119   -6.3602 C   0  0  0  0  0  0  0  0  0  0  0  0
   46.2928  -12.1903   -5.9601 O   0  0  0  0  0  0  0  0  0  0  0  0
   45.4081  -10.4825   -7.4292 C   0  0  0  0  0  0  0  0  0  0  0  0
   44.5579   -9.3411   -6.9112 C   0  0  2  0  0  0  0  0  0  0  0  0
   43.7515   -9.8533   -5.8220 N   0  0  0  0  0  0  0  0  0  0  0  0
   43.6854   -8.9027   -8.0042 C   0  0  0  0  0  0  0  0  0  0  0  0
   44.1629   -8.1898   -8.9271 O   0  0  0  0  0  0  0  0  0  0  0  0
   42.2978   -9.2479   -8.0785 N   0  0  0  0  0  0  0  0  0  0  0  0
   41.5192   -8.7528   -9.1606 C   0  0  1  0  0  0  0  0  0  0  0  0
   40.8306   -9.8968   -9.8650 C   0  0  0  0  0  0  0  0  0  0  0  0
   39.8792   -9.4220  -10.9346 C   0  0  0  0  0  0  0  0  0  0  0  0
   39.4054  -10.6240  -11.6672 C   0  0  0  0  0  0  0  0  0  0  0  0
   39.8193  -11.7857  -11.4160 O   0  0  0  0  0  0  0  0  0  0  0  0
   40.5061   -7.7470   -8.7292 C   0  0  0  0  0  0  0  0  0  0  0  0
   39.8967   -7.9166   -7.6435 O   0  0  0  0  0  0  0  0  0  0  0  0
   38.4536  -10.4943  -12.6915 O   0  0  0  0  0  0  0  0  0  0  0  0
   41.2102   -3.2185   -5.6722 N   0  0  0  0  0  0  0  0  0  0  0  0
   39.9154   -2.9497   -6.1772 C   0  0  0  0  0  0  0  0  0  0  0  0
   39.2638   -2.0066   -5.6020 O   0  0  0  0  0  0  0  0  0  0  0  0
   39.2841   -3.6588   -7.2973 C   0  0  0  0  0  0  0  0  0  0  0  0
   40.0476   -4.7749   -7.9046 C   0  0  0  0  0  0  0  0  0  0  0  0
   39.3379   -5.5044   -8.9680 C   0  0  2  0  0  0  0  0  0  0  0  0
   40.1908   -6.5998   -9.4847 N   0  0  0  0  0  0  0  0  0  0  0  0
   38.8454   -4.7940  -10.1202 C   0  0  0  0  0  0  0  0  0  0  0  0
   37.7708   -3.8791  -10.0739 O   0  0  0  0  0  0  0  0  0  0  0  0
   39.3439   -4.9419  -11.2562 O   0  0  0  0  0  0  0  0  0  0  0  0
  2  3  2  0
  2  1  1  0
  4  2  1  0
  5  4  1  0
  5  6  1  1
  7  8  2  0
  7  5  1  0
  9  7  1  0
 10 11  1  1
 10  9  1  0
 11 12  1  0
 12 13  1  0
 13 17  1  0
 14 13  2  0
 15 24  1  0
 15 10  1  0
 16 15  2  0
 19 18  1  0
 20 19  2  0
 21 19  1  0
 22 21  1  0
 23 22  1  1
 23 24  1  0
 25 26  1  0
 25 23  1  0
 27 25  2  0
M  END
$$$$
