NEQ.pdb
     RDKit          3D

 27 26  0  0  1  0  0  0  0  0999 V2000
   13.9416  -11.9576  -13.0891 N   0  0  0  0  0  0  0  0  0  0  0  0
   13.5560  -11.5724  -11.7793 C   0  0  0  0  0  0  0  0  0  0  0  0
   12.5681  -12.1264  -11.2635 O   0  0  0  0  0  0  0  0  0  0  0  0
   14.3705  -10.5190  -11.1050 C   0  0  0  0  0  0  0  0  0  0  0  0
   15.8511  -10.8147  -11.2252 C   0  0  2  0  0  0  0  0  0  0  0  0
   16.1338  -11.9792  -10.4110 N   0  0  0  0  0  0  0  0  0  0  0  0
   16.5813   -9.6583  -10.6986 C   0  0  0  0  0  0  0  0  0  0  0  0
   16.3474   -9.2627   -9.5251 O   0  0  0  0  0  0  0  0  0  0  0  0
   17.5615   -8.9441  -11.4598 N   0  0  0  0  0  0  0  0  0  0  0  0
   18.1460   -7.7714  -10.9075 C   0  0  1  0  0  0  0  0  0  0  0  0
   19.3693   -7.3828  -11.7021 C   0  0  0  0  0  0  0  0  0  0  0  0
   19.9376   -6.0552  -11.2670 C   0  0  0  0  0  0  0  0  0  0  0  0
   21.1825   -5.8328  -12.0460 C   0  0  0  0  0  0  0  0  0  0  0  0
   21.6367   -6.6738  -12.8647 O   0  0  0  0  0  0  0  0  0  0  0  0
   17.1960   -6.6229  -10.8559 C   0  0  0  0  0  0  0  0  0  0  0  0
   16.5361   -6.3258  -11.8832 O   0  0  0  0  0  0  0  0  0  0  0  0
   21.9096   -4.6422  -11.8862 O   0  0  0  0  0  0  0  0  0  0  0  0
   13.7741   -4.7700   -5.7678 N   0  0  0  0  0  0  0  0  0  0  0  0
   13.6552   -3.7491   -6.7412 C   0  0  0  0  0  0  0  0  0  0  0  0
   12.8807   -2.7697   -6.4482 O   0  0  0  0  0  0  0  0  0  0  0  0
   14.3506   -3.7330   -8.0344 C   0  0  0  0  0  0  0  0  0  0  0  0
   15.2695   -4.8608   -8.3195 C   0  0  0  0  0  0  0  0  0  0  0  0
   15.9654   -4.7805   -9.6142 C   0  0  2  0  0  0  0  0  0  0  0  0
   16.9955   -5.8415   -9.7003 N   0  0  0  0  0  0  0  0  0  0  0  0
   16.6103   -3.5541  -10.0075 C   0  0  0  0  0  0  0  0  0  0  0  0
   17.9730   -3.4681  -10.3675 O   0  0  0  0  0  0  0  0  0  0  0  0
   15.9974   -2.4665  -10.0574 O   0  0  0  0  0  0  0  0  0  0  0  0
  2  3  2  0
  2  1  1  0
  4  2  1  0
  5  4  1  0
  5  6  1  1
  7  8  2  0
  7  5  1  0
  9  7  1  0
 10 11  1  6
 10  9  1  0
 11 12  1  0
 12 13  1  0
 13 17  1  0
 14 13  2  0
 15 24  1  0
 15 10  1  0
 16 15  2  0
 19 18  1  0
 20 19  2  0
 21 19  1  0
 22 21  1  0
 23 22  1  1
 23 24  1  0
 25 26  1  0
 25 23  1  0
 27 25  2  0
M  END
$$$$
