NEQ.pdb
     RDKit          3D

 27 26  0  0  1  0  0  0  0  0999 V2000
   14.2165  -14.3632  -15.2116 N   0  0  0  0  0  0  0  0  0  0  0  0
   15.5772  -14.1033  -14.9057 C   0  0  0  0  0  0  0  0  0  0  0  0
   16.1641  -14.8637  -14.1143 O   0  0  0  0  0  0  0  0  0  0  0  0
   16.2158  -12.9242  -15.5612 C   0  0  0  0  0  0  0  0  0  0  0  0
   15.2172  -12.1659  -16.4109 C   0  0  2  0  0  0  0  0  0  0  0  0
   14.8355  -13.0259  -17.5126 N   0  0  0  0  0  0  0  0  0  0  0  0
   15.8893  -10.9715  -16.9303 C   0  0  0  0  0  0  0  0  0  0  0  0
   16.1625  -10.9021  -18.1586 O   0  0  0  0  0  0  0  0  0  0  0  0
   16.2568   -9.8630  -16.1019 N   0  0  0  0  0  0  0  0  0  0  0  0
   16.7809   -8.6894  -16.7101 C   0  0  1  0  0  0  0  0  0  0  0  0
   15.8116   -8.1684  -17.7436 C   0  0  0  0  0  0  0  0  0  0  0  0
   14.5580   -7.6058  -17.1218 C   0  0  0  0  0  0  0  0  0  0  0  0
   13.7266   -7.0596  -18.2246 C   0  0  0  0  0  0  0  0  0  0  0  0
   12.6592   -7.6033  -18.6106 O   0  0  0  0  0  0  0  0  0  0  0  0
   17.0857   -7.6147  -15.7220 C   0  0  0  0  0  0  0  0  0  0  0  0
   16.2572   -7.3665  -14.8103 O   0  0  0  0  0  0  0  0  0  0  0  0
   14.1198   -5.8859  -18.8878 O   0  0  0  0  0  0  0  0  0  0  0  0
   20.7304   -8.0066  -11.4294 N   0  0  0  0  0  0  0  0  0  0  0  0
   21.2460   -7.8801  -12.7416 C   0  0  0  0  0  0  0  0  0  0  0  0
   22.4036   -8.3910  -12.9508 O   0  0  0  0  0  0  0  0  0  0  0  0
   20.5553   -7.2229  -13.8584 C   0  0  0  0  0  0  0  0  0  0  0  0
   19.2507   -6.5844  -13.5619 C   0  0  0  0  0  0  0  0  0  0  0  0
   18.6333   -5.8806  -14.6979 C   0  0  2  0  0  0  0  0  0  0  0  0
   18.2699   -6.8514  -15.7561 N   0  0  0  0  0  0  0  0  0  0  0  0
   19.3439   -4.8122  -15.3522 C   0  0  0  0  0  0  0  0  0  0  0  0
   19.6115   -4.7853  -16.7385 O   0  0  0  0  0  0  0  0  0  0  0  0
   19.7784   -3.8215  -14.7272 O   0  0  0  0  0  0  0  0  0  0  0  0
  2  3  2  0
  2  1  1  0
  4  2  1  0
  5  4  1  0
  5  6  1  6
  7  8  2  0
  7  5  1  0
  9  7  1  0
 10 11  1  6
 10  9  1  0
 11 12  1  0
 12 13  1  0
 13 17  1  0
 14 13  2  0
 15 24  1  0
 15 10  1  0
 16 15  2  0
 19 18  1  0
 20 19  2  0
 21 19  1  0
 22 21  1  0
 23 22  1  1
 23 24  1  0
 25 26  1  0
 25 23  1  0
 27 25  2  0
M  END
$$$$
