NEQ.pdb
     RDKit          3D

 27 26  0  0  1  0  0  0  0  0999 V2000
   16.4763  -13.3681  -14.0060 N   0  0  0  0  0  0  0  0  0  0  0  0
   15.5649  -12.2954  -13.8299 C   0  0  0  0  0  0  0  0  0  0  0  0
   14.4597  -12.3549  -14.3990 O   0  0  0  0  0  0  0  0  0  0  0  0
   16.0000  -11.1590  -12.9655 C   0  0  0  0  0  0  0  0  0  0  0  0
   17.4148  -11.3651  -12.4657 C   0  0  2  0  0  0  0  0  0  0  0  0
   17.3978  -12.4878  -11.5501 N   0  0  0  0  0  0  0  0  0  0  0  0
   17.8157  -10.1520  -11.7477 C   0  0  0  0  0  0  0  0  0  0  0  0
   17.7176  -10.1172  -10.4917 O   0  0  0  0  0  0  0  0  0  0  0  0
   18.3206   -8.9869  -12.4094 N   0  0  0  0  0  0  0  0  0  0  0  0
   18.6933   -7.8567  -11.6310 C   0  0  1  0  0  0  0  0  0  0  0  0
   19.8458   -7.1365  -12.2884 C   0  0  0  0  0  0  0  0  0  0  0  0
   20.3782   -6.0105  -11.4379 C   0  0  0  0  0  0  0  0  0  0  0  0
   21.5077   -5.3945  -12.1799 C   0  0  0  0  0  0  0  0  0  0  0  0
   22.6178   -5.9670  -12.3348 O   0  0  0  0  0  0  0  0  0  0  0  0
   17.5643   -6.9059  -11.4174 C   0  0  0  0  0  0  0  0  0  0  0  0
   16.9168   -6.4893  -12.4104 O   0  0  0  0  0  0  0  0  0  0  0  0
   21.3647   -4.1178  -12.7467 O   0  0  0  0  0  0  0  0  0  0  0  0
   12.6598   -8.7504   -7.8726 N   0  0  0  0  0  0  0  0  0  0  0  0
   13.6634   -7.7545   -7.8039 C   0  0  0  0  0  0  0  0  0  0  0  0
   13.8911   -7.2538   -6.6453 O   0  0  0  0  0  0  0  0  0  0  0  0
   14.4503   -7.2714   -8.9456 C   0  0  0  0  0  0  0  0  0  0  0  0
   15.2514   -6.0412   -8.7397 C   0  0  0  0  0  0  0  0  0  0  0  0
   15.9947   -5.5807   -9.9239 C   0  0  2  0  0  0  0  0  0  0  0  0
   17.1791   -6.4428  -10.1433 N   0  0  0  0  0  0  0  0  0  0  0  0
   16.4630   -4.2203   -9.9930 C   0  0  0  0  0  0  0  0  0  0  0  0
   15.6107   -3.1081  -10.1677 O   0  0  0  0  0  0  0  0  0  0  0  0
   17.6743   -3.9283   -9.9016 O   0  0  0  0  0  0  0  0  0  0  0  0
  2  3  2  0
  2  1  1  0
  4  2  1  0
  5  4  1  0
  5  6  1  1
  7  8  2  0
  7  5  1  0
  9  7  1  0
 10 11  1  6
 10  9  1  0
 11 12  1  0
 12 13  1  0
 13 17  1  0
 14 13  2  0
 15 24  1  0
 15 10  1  0
 16 15  2  0
 19 18  1  0
 20 19  2  0
 21 19  1  0
 22 21  1  0
 23 22  1  1
 23 24  1  0
 25 26  1  0
 25 23  1  0
 27 25  2  0
M  END
$$$$
