NIG.pdb
     RDKit          3D

 21 20  0  0  1  0  0  0  0  0999 V2000
   22.2516  -13.6908  -21.6894 N   0  0  0  0  0  0  0  0  0  0  0  0
   22.0682  -12.3303  -21.3500 C   0  0  0  0  0  0  0  0  0  0  0  0
   21.5550  -11.5286  -22.1708 O   0  0  0  0  0  0  0  0  0  0  0  0
   22.4743  -11.8311  -20.0328 C   0  0  0  0  0  0  0  0  0  0  0  0
   23.2368  -12.8334  -19.2253 C   0  0  2  0  0  0  0  0  0  0  0  0
   22.5636  -14.0708  -19.0295 N   0  0  0  0  0  0  0  0  0  0  0  0
   23.5273  -12.1791  -17.8893 C   0  0  0  0  0  0  0  0  0  0  0  0
   22.7184  -12.5120  -17.0005 O   0  0  0  0  0  0  0  0  0  0  0  0
   28.3855  -12.5285  -16.1071 C   0  0  0  0  0  0  0  0  0  0  0  0
   26.8586  -12.3458  -16.1084 C   0  0  0  0  0  0  0  0  0  0  0  0
   26.4923  -10.8788  -16.2243 C   0  0  2  0  0  0  0  0  0  0  0  0
   26.9316  -10.1696  -14.9650 C   0  0  0  0  0  0  0  0  0  0  0  0
   25.0383  -10.6582  -16.4815 C   0  0  2  0  0  0  0  0  0  0  0  0
   24.5924  -11.3058  -17.7133 N   0  0  0  0  0  0  0  0  0  0  0  0
   24.5662   -9.2875  -16.4132 C   0  0  0  0  0  0  0  0  0  0  0  0
   24.8561   -8.5167  -17.4152 O   0  0  0  0  0  0  0  0  0  0  0  0
   23.8175   -8.6556  -15.3985 N   0  0  0  0  0  0  0  0  0  0  0  0
   23.3194   -7.2953  -15.6186 C   0  0  0  0  0  0  0  0  0  0  0  0
   21.8587   -7.3018  -15.8461 C   0  0  0  0  0  0  0  0  0  0  0  0
   20.9874   -6.3481  -15.3612 O   0  0  0  0  0  0  0  0  0  0  0  0
   21.3879   -8.2436  -16.5285 O   0  0  0  0  0  0  0  0  0  0  0  0
  2  3  2  0
  2  1  1  0
  4  2  1  0
  5  4  1  0
  5  6  1  1
  7 14  1  0
  7  5  1  0
  8  7  2  0
  9 10  1  0
 10 11  1  0
 11 12  1  1
 11 13  1  0
 13 14  1  6
 15 13  1  0
 15 17  1  0
 16 15  2  0
 18 17  1  0
 18 19  1  0
 19 20  1  0
 21 19  2  0
M  END
$$$$
