NIG.pdb
     RDKit          3D

 21 20  0  0  1  0  0  0  0  0999 V2000
   15.7702  -11.1758  -18.9444 N   0  0  0  0  0  0  0  0  0  0  0  0
   17.1120  -10.8078  -19.1974 C   0  0  0  0  0  0  0  0  0  0  0  0
   17.5336  -10.6926  -20.3758 O   0  0  0  0  0  0  0  0  0  0  0  0
   18.0355  -10.5539  -18.0875 C   0  0  0  0  0  0  0  0  0  0  0  0
   19.3801  -11.1821  -18.2760 C   0  0  2  0  0  0  0  0  0  0  0  0
   19.3673  -12.6035  -18.3252 N   0  0  0  0  0  0  0  0  0  0  0  0
   20.2432  -10.7065  -17.1244 C   0  0  0  0  0  0  0  0  0  0  0  0
   19.7929  -11.0416  -16.0108 O   0  0  0  0  0  0  0  0  0  0  0  0
   24.6453  -10.6452  -14.1697 C   0  0  0  0  0  0  0  0  0  0  0  0
   24.6442   -9.6578  -15.3486 C   0  0  0  0  0  0  0  0  0  0  0  0
   23.6831  -10.1119  -16.4301 C   0  0  2  0  0  0  0  0  0  0  0  0
   24.3109   -9.8456  -17.7781 C   0  0  0  0  0  0  0  0  0  0  0  0
   22.3415   -9.4646  -16.3290 C   0  0  2  0  0  0  0  0  0  0  0  0
   21.4065   -9.9764  -17.3286 N   0  0  0  0  0  0  0  0  0  0  0  0
   22.3203   -8.0139  -16.2903 C   0  0  0  0  0  0  0  0  0  0  0  0
   22.4935   -7.3946  -17.4166 O   0  0  0  0  0  0  0  0  0  0  0  0
   22.1299   -7.1578  -15.1857 N   0  0  0  0  0  0  0  0  0  0  0  0
   22.2461   -5.7095  -15.3747 C   0  0  0  0  0  0  0  0  0  0  0  0
   22.0075   -4.9936  -14.1035 C   0  0  0  0  0  0  0  0  0  0  0  0
   22.1439   -3.6309  -13.9357 O   0  0  0  0  0  0  0  0  0  0  0  0
   21.6571   -5.6812  -13.1141 O   0  0  0  0  0  0  0  0  0  0  0  0
  2  3  2  0
  2  1  1  0
  4  2  1  0
  5  4  1  0
  5  6  1  1
  7 14  1  0
  7  5  1  0
  8  7  2  0
  9 10  1  0
 10 11  1  0
 11 12  1  6
 11 13  1  0
 13 14  1  6
 15 13  1  0
 15 17  1  0
 16 15  2  0
 18 17  1  0
 18 19  1  0
 19 20  1  0
 21 19  2  0
M  END
$$$$
