NIG.pdb
     RDKit          3D

 21 20  0  0  1  0  0  0  0  0999 V2000
   16.2161   -7.5075  -19.4500 N   0  0  0  0  0  0  0  0  0  0  0  0
   17.2105   -8.4502  -19.1002 C   0  0  0  0  0  0  0  0  0  0  0  0
   17.4947   -9.3990  -19.8740 O   0  0  0  0  0  0  0  0  0  0  0  0
   17.9280   -8.3365  -17.8268 C   0  0  0  0  0  0  0  0  0  0  0  0
   18.2487   -9.6584  -17.2039 C   0  0  2  0  0  0  0  0  0  0  0  0
   17.1161  -10.4746  -16.9320 N   0  0  0  0  0  0  0  0  0  0  0  0
   18.9981   -9.3596  -15.9207 C   0  0  0  0  0  0  0  0  0  0  0  0
   18.2709   -9.4205  -14.9095 O   0  0  0  0  0  0  0  0  0  0  0  0
   22.9825  -12.0809  -15.2530 C   0  0  0  0  0  0  0  0  0  0  0  0
   21.9549  -11.1625  -14.5707 C   0  0  0  0  0  0  0  0  0  0  0  0
   22.3714   -9.7091  -14.6869 C   0  0  2  0  0  0  0  0  0  0  0  0
   23.2641   -9.3667  -13.5173 C   0  0  0  0  0  0  0  0  0  0  0  0
   21.2110   -8.7731  -14.7644 C   0  0  2  0  0  0  0  0  0  0  0  0
   20.3525   -9.0541  -15.9132 N   0  0  0  0  0  0  0  0  0  0  0  0
   21.5108   -7.3560  -14.6725 C   0  0  0  0  0  0  0  0  0  0  0  0
   22.0282   -6.9370  -13.5595 O   0  0  0  0  0  0  0  0  0  0  0  0
   21.3235   -6.3442  -15.6372 N   0  0  0  0  0  0  0  0  0  0  0  0
   21.8205   -4.9934  -15.3632 C   0  0  0  0  0  0  0  0  0  0  0  0
   20.7559   -4.1514  -14.7775 C   0  0  0  0  0  0  0  0  0  0  0  0
   20.8932   -2.8107  -14.4814 O   0  0  0  0  0  0  0  0  0  0  0  0
   19.6548   -4.7026  -14.5366 O   0  0  0  0  0  0  0  0  0  0  0  0
  2  3  2  0
  2  1  1  0
  4  2  1  0
  5  4  1  0
  5  6  1  1
  7 14  1  0
  7  5  1  0
  8  7  2  0
  9 10  1  0
 10 11  1  0
 11 12  1  1
 11 13  1  0
 13 14  1  6
 15 13  1  0
 15 17  1  0
 16 15  2  0
 18 17  1  0
 18 19  1  0
 19 20  1  0
 21 19  2  0
M  END
$$$$
