NIG.pdb
     RDKit          3D

 21 20  0  0  1  0  0  0  0  0999 V2000
   20.7657  -13.2644  -20.4416 N   0  0  0  0  0  0  0  0  0  0  0  0
   20.5788  -11.9364  -19.9929 C   0  0  0  0  0  0  0  0  0  0  0  0
   19.7289  -11.1889  -20.5394 O   0  0  0  0  0  0  0  0  0  0  0  0
   21.3746  -11.4082  -18.8807 C   0  0  0  0  0  0  0  0  0  0  0  0
   22.4356  -12.3508  -18.4073 C   0  0  2  0  0  0  0  0  0  0  0  0
   21.9503  -13.6092  -17.9559 N   0  0  0  0  0  0  0  0  0  0  0  0
   23.1729  -11.6427  -17.2882 C   0  0  0  0  0  0  0  0  0  0  0  0
   22.6778  -11.8645  -16.1653 O   0  0  0  0  0  0  0  0  0  0  0  0
   27.0448  -12.5485  -15.5982 C   0  0  0  0  0  0  0  0  0  0  0  0
   26.9507  -11.8856  -16.9826 C   0  0  0  0  0  0  0  0  0  0  0  0
   26.5979  -10.4166  -16.8530 C   0  0  2  0  0  0  0  0  0  0  0  0
   27.4733   -9.8011  -15.7868 C   0  0  0  0  0  0  0  0  0  0  0  0
   25.1530  -10.1866  -16.5555 C   0  0  2  0  0  0  0  0  0  0  0  0
   24.2797  -10.8395  -17.5285 N   0  0  0  0  0  0  0  0  0  0  0  0
   24.7459   -8.8118  -16.3302 C   0  0  0  0  0  0  0  0  0  0  0  0
   25.4174   -7.8921  -16.9510 O   0  0  0  0  0  0  0  0  0  0  0  0
   23.7017   -8.3160  -15.5220 N   0  0  0  0  0  0  0  0  0  0  0  0
   23.5165   -6.8676  -15.4013 C   0  0  0  0  0  0  0  0  0  0  0  0
   22.4786   -6.3913  -16.3402 C   0  0  0  0  0  0  0  0  0  0  0  0
   21.9563   -5.1142  -16.3465 O   0  0  0  0  0  0  0  0  0  0  0  0
   22.0490   -7.2123  -17.1862 O   0  0  0  0  0  0  0  0  0  0  0  0
  2  3  2  0
  2  1  1  0
  4  2  1  0
  5  4  1  0
  5  6  1  1
  7 14  1  0
  7  5  1  0
  8  7  2  0
  9 10  1  0
 10 11  1  0
 11 12  1  1
 11 13  1  0
 13 14  1  6
 15 13  1  0
 15 17  1  0
 16 15  2  0
 18 17  1  0
 18 19  1  0
 19 20  1  0
 21 19  2  0
M  END
$$$$
