NIG.pdb
     RDKit          3D

 21 20  0  0  1  0  0  0  0  0999 V2000
   20.8314  -14.8252  -19.6067 N   0  0  0  0  0  0  0  0  0  0  0  0
   20.4048  -13.4938  -19.3941 C   0  0  0  0  0  0  0  0  0  0  0  0
   19.5977  -12.9452  -20.1861 O   0  0  0  0  0  0  0  0  0  0  0  0
   20.8976  -12.7296  -18.2441 C   0  0  0  0  0  0  0  0  0  0  0  0
   21.8576  -13.4941  -17.3883 C   0  0  2  0  0  0  0  0  0  0  0  0
   21.2890  -14.6084  -16.7118 N   0  0  0  0  0  0  0  0  0  0  0  0
   22.4224  -12.5067  -16.3866 C   0  0  0  0  0  0  0  0  0  0  0  0
   21.7991  -12.5020  -15.3066 O   0  0  0  0  0  0  0  0  0  0  0  0
   27.7826  -11.9854  -16.0164 C   0  0  0  0  0  0  0  0  0  0  0  0
   26.2771  -12.0213  -15.7049 C   0  0  0  0  0  0  0  0  0  0  0  0
   25.6359  -10.6776  -15.9925 C   0  0  2  0  0  0  0  0  0  0  0  0
   26.2619   -9.6399  -15.0906 C   0  0  0  0  0  0  0  0  0  0  0  0
   24.1511  -10.6934  -15.8374 C   0  0  2  0  0  0  0  0  0  0  0  0
   23.5204  -11.7084  -16.6786 N   0  0  0  0  0  0  0  0  0  0  0  0
   23.4703   -9.4177  -15.9614 C   0  0  0  0  0  0  0  0  0  0  0  0
   23.9067   -8.4457  -15.2218 O   0  0  0  0  0  0  0  0  0  0  0  0
   22.3830   -9.0680  -16.7890 N   0  0  0  0  0  0  0  0  0  0  0  0
   21.8183   -7.7192  -16.6965 C   0  0  0  0  0  0  0  0  0  0  0  0
   20.9673   -7.5879  -15.4949 C   0  0  0  0  0  0  0  0  0  0  0  0
   19.7216   -8.1637  -15.3520 O   0  0  0  0  0  0  0  0  0  0  0  0
   21.4174   -6.9036  -14.5443 O   0  0  0  0  0  0  0  0  0  0  0  0
  2  3  2  0
  2  1  1  0
  4  2  1  0
  5  4  1  0
  5  6  1  1
  7 14  1  0
  7  5  1  0
  8  7  2  0
  9 10  1  0
 10 11  1  0
 11 12  1  1
 11 13  1  0
 13 14  1  6
 15 13  1  0
 15 17  1  0
 16 15  2  0
 18 17  1  0
 18 19  1  0
 19 20  1  0
 21 19  2  0
M  END
$$$$
