NIG.pdb
     RDKit          3D

 21 20  0  0  1  0  0  0  0  0999 V2000
   30.0033  -23.7572  -19.5417 N   0  0  0  0  0  0  0  0  0  0  0  0
   30.7257  -23.2742  -18.4261 C   0  0  0  0  0  0  0  0  0  0  0  0
   31.9826  -23.2707  -18.4290 O   0  0  0  0  0  0  0  0  0  0  0  0
   30.0195  -22.7684  -17.2451 C   0  0  0  0  0  0  0  0  0  0  0  0
   28.5549  -23.0736  -17.2509 C   0  0  2  0  0  0  0  0  0  0  0  0
   27.8598  -22.6152  -18.4040 N   0  0  0  0  0  0  0  0  0  0  0  0
   27.9768  -22.4353  -16.0036 C   0  0  0  0  0  0  0  0  0  0  0  0
   28.5964  -22.7480  -14.9676 O   0  0  0  0  0  0  0  0  0  0  0  0
   27.6444  -17.6096  -15.9558 C   0  0  0  0  0  0  0  0  0  0  0  0
   27.6188  -18.9046  -15.1269 C   0  0  0  0  0  0  0  0  0  0  0  0
   26.2110  -19.4616  -15.0421 C   0  0  2  0  0  0  0  0  0  0  0  0
   25.5079  -18.8226  -13.8676 C   0  0  0  0  0  0  0  0  0  0  0  0
   26.1769  -20.9505  -14.9388 C   0  0  2  0  0  0  0  0  0  0  0  0
   26.8718  -21.5958  -16.0507 N   0  0  0  0  0  0  0  0  0  0  0  0
   24.8779  -21.5576  -14.7138 C   0  0  0  0  0  0  0  0  0  0  0  0
   24.0966  -21.6695  -15.7430 O   0  0  0  0  0  0  0  0  0  0  0  0
   24.3279  -22.0599  -13.5160 N   0  0  0  0  0  0  0  0  0  0  0  0
   23.0056  -22.6904  -13.5451 C   0  0  0  0  0  0  0  0  0  0  0  0
   21.9546  -21.7228  -13.1646 C   0  0  0  0  0  0  0  0  0  0  0  0
   20.6050  -22.0076  -13.1299 O   0  0  0  0  0  0  0  0  0  0  0  0
   22.3251  -20.5652  -12.8532 O   0  0  0  0  0  0  0  0  0  0  0  0
  2  3  2  0
  2  1  1  0
  4  2  1  0
  5  4  1  0
  5  6  1  6
  7 14  1  0
  7  5  1  0
  8  7  2  0
  9 10  1  0
 10 11  1  0
 11 12  1  1
 11 13  1  0
 13 14  1  6
 15 13  1  0
 15 17  1  0
 16 15  2  0
 18 17  1  0
 18 19  1  0
 19 20  1  0
 21 19  2  0
M  END
$$$$
