NIG.pdb
     RDKit          3D

 21 20  0  0  1  0  0  0  0  0999 V2000
   26.2661  -12.0124  -16.3566 N   0  0  0  0  0  0  0  0  0  0  0  0
   25.0150  -11.8281  -15.7236 C   0  0  0  0  0  0  0  0  0  0  0  0
   24.6477  -12.5918  -14.7953 O   0  0  0  0  0  0  0  0  0  0  0  0
   24.1236  -10.7413  -16.1401 C   0  0  0  0  0  0  0  0  0  0  0  0
   22.7607  -11.2098  -16.5416 C   0  0  2  0  0  0  0  0  0  0  0  0
   22.7342  -12.0206  -17.7099 N   0  0  0  0  0  0  0  0  0  0  0  0
   21.9212   -9.9651  -16.7498 C   0  0  0  0  0  0  0  0  0  0  0  0
   22.3092   -9.2744  -17.7129 O   0  0  0  0  0  0  0  0  0  0  0  0
   17.4511  -11.2775  -16.4844 C   0  0  0  0  0  0  0  0  0  0  0  0
   18.0875  -10.0060  -17.0704 C   0  0  0  0  0  0  0  0  0  0  0  0
   18.4702   -9.0384  -15.9674 C   0  0  2  0  0  0  0  0  0  0  0  0
   17.5081   -7.8739  -15.9901 C   0  0  0  0  0  0  0  0  0  0  0  0
   19.8826   -8.5656  -16.0689 C   0  0  2  0  0  0  0  0  0  0  0  0
   20.8410   -9.6603  -15.9324 N   0  0  0  0  0  0  0  0  0  0  0  0
   20.2540   -7.4405  -15.2306 C   0  0  0  0  0  0  0  0  0  0  0  0
   20.3798   -7.6717  -13.9606 O   0  0  0  0  0  0  0  0  0  0  0  0
   20.5092   -6.1035  -15.6005 N   0  0  0  0  0  0  0  0  0  0  0  0
   20.8540   -5.1276  -14.5634 C   0  0  0  0  0  0  0  0  0  0  0  0
   22.2688   -5.2695  -14.1590 C   0  0  0  0  0  0  0  0  0  0  0  0
   22.6893   -5.8056  -12.9592 O   0  0  0  0  0  0  0  0  0  0  0  0
   23.1405   -4.8721  -14.9694 O   0  0  0  0  0  0  0  0  0  0  0  0
  2  3  2  0
  2  1  1  0
  4  2  1  0
  5  4  1  0
  5  6  1  6
  7 14  1  0
  7  5  1  0
  8  7  2  0
  9 10  1  0
 10 11  1  0
 11 12  1  6
 11 13  1  0
 13 14  1  1
 15 13  1  0
 15 17  1  0
 16 15  2  0
 18 17  1  0
 18 19  1  0
 19 20  1  0
 21 19  2  0
M  END
$$$$
