NIG.pdb
     RDKit          3D

 21 20  0  0  1  0  0  0  0  0999 V2000
   19.8882  -11.2213  -22.1900 N   0  0  0  0  0  0  0  0  0  0  0  0
   21.0622  -11.5020  -21.4532 C   0  0  0  0  0  0  0  0  0  0  0  0
   22.0413  -12.0700  -21.9995 O   0  0  0  0  0  0  0  0  0  0  0  0
   21.1572  -11.1345  -20.0372 C   0  0  0  0  0  0  0  0  0  0  0  0
   22.1288  -11.9729  -19.2682 C   0  0  2  0  0  0  0  0  0  0  0  0
   21.7502  -13.3364  -19.1256 N   0  0  0  0  0  0  0  0  0  0  0  0
   22.2730  -11.3250  -17.9056 C   0  0  0  0  0  0  0  0  0  0  0  0
   21.4752  -11.7836  -17.0641 O   0  0  0  0  0  0  0  0  0  0  0  0
   26.7993  -11.2606  -15.6361 C   0  0  0  0  0  0  0  0  0  0  0  0
   25.2676  -11.1499  -15.7171 C   0  0  0  0  0  0  0  0  0  0  0  0
   24.8430   -9.7115  -15.9408 C   0  0  2  0  0  0  0  0  0  0  0  0
   25.0459   -8.9420  -14.6568 C   0  0  0  0  0  0  0  0  0  0  0  0
   23.4353   -9.5857  -16.4216 C   0  0  2  0  0  0  0  0  0  0  0  0
   23.2077  -10.3281  -17.6597 N   0  0  0  0  0  0  0  0  0  0  0  0
   22.8969   -8.2411  -16.5141 C   0  0  0  0  0  0  0  0  0  0  0  0
   23.3932   -7.4725  -17.4334 O   0  0  0  0  0  0  0  0  0  0  0  0
   21.8878   -7.6332  -15.7384 N   0  0  0  0  0  0  0  0  0  0  0  0
   21.5296   -6.2364  -15.9979 C   0  0  0  0  0  0  0  0  0  0  0  0
   22.1406   -5.3424  -14.9914 C   0  0  0  0  0  0  0  0  0  0  0  0
   22.0292   -3.9671  -14.9966 O   0  0  0  0  0  0  0  0  0  0  0  0
   22.8044   -5.8806  -14.0726 O   0  0  0  0  0  0  0  0  0  0  0  0
  2  3  2  0
  2  1  1  0
  4  2  1  0
  5  4  1  0
  5  6  1  1
  7 14  1  0
  7  5  1  0
  8  7  2  0
  9 10  1  0
 10 11  1  0
 11 12  1  1
 11 13  1  0
 13 14  1  6
 15 13  1  0
 15 17  1  0
 16 15  2  0
 18 17  1  0
 18 19  1  0
 19 20  1  0
 21 19  2  0
M  END
$$$$
