NIG.pdb
     RDKit          3D

 21 20  0  0  1  0  0  0  0  0999 V2000
   24.8057  -14.4937  -22.4555 N   0  0  0  0  0  0  0  0  0  0  0  0
   23.8697  -13.4720  -22.1729 C   0  0  0  0  0  0  0  0  0  0  0  0
   23.2691  -12.8777  -23.1034 O   0  0  0  0  0  0  0  0  0  0  0  0
   23.5835  -13.0881  -20.7873 C   0  0  0  0  0  0  0  0  0  0  0  0
   24.4049  -13.8313  -19.7816 C   0  0  2  0  0  0  0  0  0  0  0  0
   23.9641  -15.1585  -19.5224 N   0  0  0  0  0  0  0  0  0  0  0  0
   24.3719  -13.0111  -18.5075 C   0  0  0  0  0  0  0  0  0  0  0  0
   23.4411  -13.3379  -17.7447 O   0  0  0  0  0  0  0  0  0  0  0  0
   28.8231  -12.6705  -15.9633 C   0  0  0  0  0  0  0  0  0  0  0  0
   27.3183  -12.6623  -16.2801 C   0  0  0  0  0  0  0  0  0  0  0  0
   26.8200  -11.2454  -16.4887 C   0  0  2  0  0  0  0  0  0  0  0  0
   26.8981  -10.5066  -15.1734 C   0  0  0  0  0  0  0  0  0  0  0  0
   25.4383  -11.1888  -17.0513 C   0  0  2  0  0  0  0  0  0  0  0  0
   25.2988  -12.0091  -18.2527 N   0  0  0  0  0  0  0  0  0  0  0  0
   24.8718   -9.8680  -17.2537 C   0  0  0  0  0  0  0  0  0  0  0  0
   25.6426   -8.9757  -17.7939 O   0  0  0  0  0  0  0  0  0  0  0  0
   23.5765   -9.4009  -16.9479 N   0  0  0  0  0  0  0  0  0  0  0  0
   23.2497   -7.9922  -17.1840 C   0  0  0  0  0  0  0  0  0  0  0  0
   22.7471   -7.3559  -15.9479 C   0  0  0  0  0  0  0  0  0  0  0  0
   22.4972   -6.0060  -15.8091 O   0  0  0  0  0  0  0  0  0  0  0  0
   22.5361   -8.1030  -14.9622 O   0  0  0  0  0  0  0  0  0  0  0  0
  2  3  2  0
  2  1  1  0
  4  2  1  0
  5  4  1  0
  5  6  1  1
  7 14  1  0
  7  5  1  0
  8  7  2  0
  9 10  1  0
 10 11  1  0
 11 12  1  1
 11 13  1  0
 13 14  1  6
 15 13  1  0
 15 17  1  0
 16 15  2  0
 18 17  1  0
 18 19  1  0
 19 20  1  0
 21 19  2  0
M  END
$$$$
