NIG.pdb
     RDKit          3D

 21 20  0  0  1  0  0  0  0  0999 V2000
   28.4847  -19.9275  -18.7649 N   0  0  0  0  0  0  0  0  0  0  0  0
   27.1345  -20.3417  -18.8370 C   0  0  0  0  0  0  0  0  0  0  0  0
   26.4406  -20.0908  -19.8545 O   0  0  0  0  0  0  0  0  0  0  0  0
   26.5202  -21.0721  -17.7241 C   0  0  0  0  0  0  0  0  0  0  0  0
   27.4205  -21.2174  -16.5381 C   0  0  2  0  0  0  0  0  0  0  0  0
   28.4750  -22.1567  -16.7075 N   0  0  0  0  0  0  0  0  0  0  0  0
   26.5384  -21.6257  -15.3751 C   0  0  0  0  0  0  0  0  0  0  0  0
   25.9349  -22.6979  -15.5777 O   0  0  0  0  0  0  0  0  0  0  0  0
   28.9403  -20.6331  -11.2981 C   0  0  0  0  0  0  0  0  0  0  0  0
   27.8280  -21.5841  -11.7706 C   0  0  0  0  0  0  0  0  0  0  0  0
   26.4839  -20.8820  -11.7709 C   0  0  2  0  0  0  0  0  0  0  0  0
   25.7218  -21.2957  -10.5339 C   0  0  0  0  0  0  0  0  0  0  0  0
   25.6854  -21.1489  -13.0038 C   0  0  2  0  0  0  0  0  0  0  0  0
   26.4393  -20.8590  -14.2216 N   0  0  0  0  0  0  0  0  0  0  0  0
   24.3593  -20.5618  -13.0599 C   0  0  0  0  0  0  0  0  0  0  0  0
   24.2536  -19.3173  -12.7107 O   0  0  0  0  0  0  0  0  0  0  0  0
   23.1412  -21.1555  -13.4514 N   0  0  0  0  0  0  0  0  0  0  0  0
   21.9069  -20.3691  -13.3812 C   0  0  0  0  0  0  0  0  0  0  0  0
   20.9930  -20.9173  -12.3567 C   0  0  0  0  0  0  0  0  0  0  0  0
   19.7841  -20.3531  -12.0046 O   0  0  0  0  0  0  0  0  0  0  0  0
   21.3499  -21.9687  -11.7722 O   0  0  0  0  0  0  0  0  0  0  0  0
  2  3  2  0
  2  1  1  0
  4  2  1  0
  5  4  1  0
  5  6  1  6
  7 14  1  0
  7  5  1  0
  8  7  2  0
  9 10  1  0
 10 11  1  0
 11 12  1  1
 11 13  1  0
 13 14  1  6
 15 13  1  0
 15 17  1  0
 16 15  2  0
 18 17  1  0
 18 19  1  0
 19 20  1  0
 21 19  2  0
M  END
$$$$
