NIG.pdb
     RDKit          3D

 21 20  0  0  1  0  0  0  0  0999 V2000
   16.8108  -10.8310  -21.6650 N   0  0  0  0  0  0  0  0  0  0  0  0
   18.0545  -10.9904  -21.0110 C   0  0  0  0  0  0  0  0  0  0  0  0
   19.0593  -11.4103  -21.6384 O   0  0  0  0  0  0  0  0  0  0  0  0
   18.1929  -10.6680  -19.5876 C   0  0  0  0  0  0  0  0  0  0  0  0
   19.1984  -11.5197  -18.8791 C   0  0  2  0  0  0  0  0  0  0  0  0
   18.7706  -12.8520  -18.6245 N   0  0  0  0  0  0  0  0  0  0  0  0
   19.5181  -10.8151  -17.5758 C   0  0  0  0  0  0  0  0  0  0  0  0
   18.6993  -11.0738  -16.6716 O   0  0  0  0  0  0  0  0  0  0  0  0
   22.1383   -9.7687  -13.2247 C   0  0  0  0  0  0  0  0  0  0  0  0
   22.8284   -9.1519  -14.4528 C   0  0  0  0  0  0  0  0  0  0  0  0
   22.3626   -9.8278  -15.7278 C   0  0  2  0  0  0  0  0  0  0  0  0
   23.4577   -9.7163  -16.7623 C   0  0  0  0  0  0  0  0  0  0  0  0
   21.0784   -9.2721  -16.2481 C   0  0  2  0  0  0  0  0  0  0  0  0
   20.6170   -9.9769  -17.4423 N   0  0  0  0  0  0  0  0  0  0  0  0
   21.0207   -7.8342  -16.4370 C   0  0  0  0  0  0  0  0  0  0  0  0
   21.7352   -7.3401  -17.4001 O   0  0  0  0  0  0  0  0  0  0  0  0
   20.2827   -6.8727  -15.7158 N   0  0  0  0  0  0  0  0  0  0  0  0
   20.4270   -5.4554  -16.0585 C   0  0  0  0  0  0  0  0  0  0  0  0
   21.1897   -4.7383  -15.0146 C   0  0  0  0  0  0  0  0  0  0  0  0
   21.5145   -3.3982  -15.0650 O   0  0  0  0  0  0  0  0  0  0  0  0
   21.5632   -5.4025  -14.0178 O   0  0  0  0  0  0  0  0  0  0  0  0
  2  3  2  0
  2  1  1  0
  4  2  1  0
  5  4  1  0
  5  6  1  1
  7 14  1  0
  7  5  1  0
  8  7  2  0
  9 10  1  0
 10 11  1  0
 11 12  1  6
 11 13  1  0
 13 14  1  6
 15 13  1  0
 15 17  1  0
 16 15  2  0
 18 17  1  0
 18 19  1  0
 19 20  1  0
 21 19  2  0
M  END
$$$$
