NIG.pdb
     RDKit          3D

 21 20  0  0  1  0  0  0  0  0999 V2000
   22.5341  -20.1555  -20.2402 N   0  0  0  0  0  0  0  0  0  0  0  0
   21.9104  -18.8866  -20.2143 C   0  0  0  0  0  0  0  0  0  0  0  0
   21.1443  -18.5299  -21.1447 O   0  0  0  0  0  0  0  0  0  0  0  0
   22.1472  -17.9641  -19.0999 C   0  0  0  0  0  0  0  0  0  0  0  0
   23.1062  -18.4944  -18.0813 C   0  0  2  0  0  0  0  0  0  0  0  0
   22.6587  -19.6582  -17.3971 N   0  0  0  0  0  0  0  0  0  0  0  0
   23.3524  -17.3702  -17.0949 C   0  0  0  0  0  0  0  0  0  0  0  0
   22.5763  -17.4028  -16.1194 O   0  0  0  0  0  0  0  0  0  0  0  0
   28.1387  -16.7662  -16.7164 C   0  0  0  0  0  0  0  0  0  0  0  0
   26.9145  -16.4491  -15.8414 C   0  0  0  0  0  0  0  0  0  0  0  0
   26.2258  -15.1847  -16.3174 C   0  0  2  0  0  0  0  0  0  0  0  0
   26.6033  -14.0510  -15.3932 C   0  0  0  0  0  0  0  0  0  0  0  0
   24.7425  -15.3266  -16.4096 C   0  0  2  0  0  0  0  0  0  0  0  0
   24.3479  -16.4225  -17.2922 N   0  0  0  0  0  0  0  0  0  0  0  0
   23.9908  -14.1213  -16.7077 C   0  0  0  0  0  0  0  0  0  0  0  0
   23.7695  -13.3092  -15.7210 O   0  0  0  0  0  0  0  0  0  0  0  0
   23.4573  -13.6893  -17.9398 N   0  0  0  0  0  0  0  0  0  0  0  0
   22.8445  -12.3613  -18.0279 C   0  0  0  0  0  0  0  0  0  0  0  0
   23.6802  -11.4507  -18.8389 C   0  0  0  0  0  0  0  0  0  0  0  0
   23.3508  -10.1443  -19.1371 O   0  0  0  0  0  0  0  0  0  0  0  0
   24.7620  -11.9060  -19.2825 O   0  0  0  0  0  0  0  0  0  0  0  0
  2  3  2  0
  2  1  1  0
  4  2  1  0
  5  4  1  0
  5  6  1  1
  7 14  1  0
  7  5  1  0
  8  7  2  0
  9 10  1  0
 10 11  1  0
 11 12  1  1
 11 13  1  0
 13 14  1  6
 15 13  1  0
 15 17  1  0
 16 15  2  0
 18 17  1  0
 18 19  1  0
 19 20  1  0
 21 19  2  0
M  END
$$$$
