NIG.pdb
     RDKit          3D

 21 20  0  0  1  0  0  0  0  0999 V2000
   20.0431  -20.4397  -13.5004 N   0  0  0  0  0  0  0  0  0  0  0  0
   21.0527  -21.3325  -13.0723 C   0  0  0  0  0  0  0  0  0  0  0  0
   20.8424  -22.5713  -13.0426 O   0  0  0  0  0  0  0  0  0  0  0  0
   22.3642  -20.8274  -12.6550 C   0  0  0  0  0  0  0  0  0  0  0  0
   22.6406  -21.0207  -11.1974 C   0  0  2  0  0  0  0  0  0  0  0  0
   21.6691  -20.4490  -10.3302 N   0  0  0  0  0  0  0  0  0  0  0  0
   24.0022  -20.4099  -10.9324 C   0  0  0  0  0  0  0  0  0  0  0  0
   24.0041  -19.1671  -11.0350 O   0  0  0  0  0  0  0  0  0  0  0  0
   26.6528  -19.3831   -7.4936 C   0  0  0  0  0  0  0  0  0  0  0  0
   26.2526  -20.8293   -7.8298 C   0  0  0  0  0  0  0  0  0  0  0  0
   26.9968  -21.3226   -9.0555 C   0  0  2  0  0  0  0  0  0  0  0  0
   28.4655  -21.0122   -8.8871 C   0  0  0  0  0  0  0  0  0  0  0  0
   26.4722  -20.7462  -10.3289 C   0  0  2  0  0  0  0  0  0  0  0  0
   25.1077  -21.1865  -10.6116 N   0  0  0  0  0  0  0  0  0  0  0  0
   27.3169  -20.8821  -11.5012 C   0  0  0  0  0  0  0  0  0  0  0  0
   28.5402  -20.4647  -11.3942 O   0  0  0  0  0  0  0  0  0  0  0  0
   26.9997  -21.4172  -12.7671 N   0  0  0  0  0  0  0  0  0  0  0  0
   28.0329  -21.4599  -13.8051 C   0  0  0  0  0  0  0  0  0  0  0  0
   27.6175  -20.6815  -14.9913 C   0  0  0  0  0  0  0  0  0  0  0  0
   28.3807  -20.5240  -16.1299 O   0  0  0  0  0  0  0  0  0  0  0  0
   26.4914  -20.1296  -14.9506 O   0  0  0  0  0  0  0  0  0  0  0  0
  2  3  2  0
  2  1  1  0
  4  2  1  0
  5  4  1  0
  5  6  1  1
  7 14  1  0
  7  5  1  0
  8  7  2  0
  9 10  1  0
 10 11  1  0
 11 12  1  1
 11 13  1  0
 13 14  1  6
 15 13  1  0
 15 17  1  0
 16 15  2  0
 18 17  1  0
 18 19  1  0
 19 20  1  0
 21 19  2  0
M  END
$$$$
