NKD.pdb
     RDKit          3D

 26 25  0  0  1  0  0  0  0  0999 V2000
   27.5286  -12.4983  -15.0701 N   0  0  0  0  0  0  0  0  0  0  0  0
   27.6732  -11.3301  -15.8551 C   0  0  0  0  0  0  0  0  0  0  0  0
   28.7665  -11.1325  -16.4878 O   0  0  0  0  0  0  0  0  0  0  0  0
   26.5673  -10.3597  -15.9356 C   0  0  0  0  0  0  0  0  0  0  0  0
   25.5123  -10.9172  -16.8732 C   0  0  2  0  0  0  0  0  0  0  0  0
   26.0736  -10.9965  -18.2110 N   0  0  0  0  0  0  0  0  0  0  0  0
   24.3440  -10.0180  -16.8547 C   0  0  0  0  0  0  0  0  0  0  0  0
   24.3677   -8.9689  -17.5320 O   0  0  0  0  0  0  0  0  0  0  0  0
   23.2199  -10.3602  -16.0728 N   0  0  0  0  0  0  0  0  0  0  0  0
   21.9859   -9.6217  -16.1223 C   0  0  1  0  0  0  0  0  0  0  0  0
   20.8685  -10.4323  -15.5543 C   0  0  0  0  0  0  0  0  0  0  0  0
   19.5407   -9.7610  -15.6213 C   0  0  0  0  0  0  0  0  0  0  0  0
   18.7509  -10.2379  -16.7981 C   0  0  0  0  0  0  0  0  0  0  0  0
   17.3750   -9.6110  -16.8734 C   0  0  0  0  0  0  0  0  0  0  0  0
   16.6391  -10.2653  -17.9466 N   0  0  0  0  0  0  0  0  0  0  0  0
   22.0922   -8.3259  -15.3772 C   0  0  0  0  0  0  0  0  0  0  0  0
   22.6504   -8.3550  -14.2543 O   0  0  0  0  0  0  0  0  0  0  0  0
   21.5939   -7.1240  -15.9010 N   0  0  0  0  0  0  0  0  0  0  0  0
   21.6048   -5.8862  -15.1531 C   0  0  1  0  0  0  0  0  0  0  0  0
   22.1792   -4.7525  -15.9827 C   0  0  0  0  0  0  0  0  0  0  0  0
   22.1258   -3.4752  -15.2539 C   0  0  0  0  0  0  0  0  0  0  0  0
   21.7430   -3.3259  -14.0785 O   0  0  0  0  0  0  0  0  0  0  0  0
   20.1957   -5.4948  -14.7905 C   0  0  0  0  0  0  0  0  0  0  0  0
   19.8636   -5.0201  -13.5306 O   0  0  0  0  0  0  0  0  0  0  0  0
   22.5463   -2.3211  -15.9516 O   0  0  0  0  0  0  0  0  0  0  0  0
   19.2827   -5.5988  -15.6463 O   0  0  0  0  0  0  0  0  0  0  0  0
  2  3  2  0
  2  1  1  0
  4  2  1  0
  5  4  1  0
  5  7  1  0
  5  6  1  6
  7  8  2  0
  9  7  1  0
  9 10  1  0
 10 11  1  1
 11 12  1  0
 13 12  1  0
 14 15  1  0
 14 13  1  0
 16 10  1  0
 16 17  2  0
 18 16  1  0
 19 18  1  0
 20 21  1  0
 19 20  1  6
 21 22  2  0
 23 19  1  0
 24 23  1  0
 25 21  1  0
 26 23  2  0
M  END
$$$$
