NKD.pdb
     RDKit          3D

 26 25  0  0  1  0  0  0  0  0999 V2000
   36.1523   -8.1293  -15.6772 N   0  0  0  0  0  0  0  0  0  0  0  0
   37.2244   -8.8945  -15.1607 C   0  0  0  0  0  0  0  0  0  0  0  0
   38.1487   -9.2899  -15.9505 O   0  0  0  0  0  0  0  0  0  0  0  0
   37.2643   -9.2245  -13.7251 C   0  0  0  0  0  0  0  0  0  0  0  0
   38.5197  -10.0342  -13.4577 C   0  0  2  0  0  0  0  0  0  0  0  0
   38.2483  -11.4283  -13.7636 N   0  0  0  0  0  0  0  0  0  0  0  0
   38.8868   -9.8777  -12.0384 C   0  0  0  0  0  0  0  0  0  0  0  0
   38.0579  -10.1799  -11.1544 O   0  0  0  0  0  0  0  0  0  0  0  0
   40.1689   -9.3907  -11.7050 N   0  0  0  0  0  0  0  0  0  0  0  0
   40.6187   -9.2561  -10.3448 C   0  0  1  0  0  0  0  0  0  0  0  0
   41.8857  -10.0172  -10.1355 C   0  0  0  0  0  0  0  0  0  0  0  0
   42.3495  -10.0405   -8.7204 C   0  0  0  0  0  0  0  0  0  0  0  0
   43.5979  -10.8502   -8.5723 C   0  0  0  0  0  0  0  0  0  0  0  0
   44.0674  -10.9459   -7.1363 C   0  0  0  0  0  0  0  0  0  0  0  0
   45.3328  -11.6671   -7.1223 N   0  0  0  0  0  0  0  0  0  0  0  0
   40.8326   -7.8192   -9.9777 C   0  0  0  0  0  0  0  0  0  0  0  0
   41.4663   -7.1078  -10.7936 O   0  0  0  0  0  0  0  0  0  0  0  0
   40.3499   -7.2787   -8.7767 N   0  0  0  0  0  0  0  0  0  0  0  0
   40.4905   -5.8787   -8.4422 C   0  0  1  0  0  0  0  0  0  0  0  0
   39.1375   -5.1939   -8.3813 C   0  0  0  0  0  0  0  0  0  0  0  0
   39.2775   -3.7545   -8.1086 C   0  0  0  0  0  0  0  0  0  0  0  0
   40.3538   -3.1365   -8.0079 O   0  0  0  0  0  0  0  0  0  0  0  0
   41.1155   -5.7386   -7.0784 C   0  0  0  0  0  0  0  0  0  0  0  0
   42.2333   -4.9483   -6.8575 O   0  0  0  0  0  0  0  0  0  0  0  0
   38.0857   -3.0136   -7.9481 O   0  0  0  0  0  0  0  0  0  0  0  0
   40.6196   -6.3533   -6.1021 O   0  0  0  0  0  0  0  0  0  0  0  0
  2  3  2  0
  2  1  1  0
  4  2  1  0
  5  4  1  0
  5  7  1  0
  5  6  1  1
  7  8  2  0
  9  7  1  0
  9 10  1  0
 10 11  1  6
 11 12  1  0
 13 12  1  0
 14 15  1  0
 14 13  1  0
 16 10  1  0
 16 17  2  0
 18 16  1  0
 19 18  1  0
 20 21  1  0
 19 20  1  1
 21 22  2  0
 23 19  1  0
 24 23  1  0
 25 21  1  0
 26 23  2  0
M  END
$$$$
