NKD.pdb
     RDKit          3D

 26 25  0  0  1  0  0  0  0  0999 V2000
   25.4466  -20.9795   -7.9359 N   0  0  0  0  0  0  0  0  0  0  0  0
   24.1424  -20.8056   -8.4562 C   0  0  0  0  0  0  0  0  0  0  0  0
   23.1372  -20.9076   -7.6729 O   0  0  0  0  0  0  0  0  0  0  0  0
   23.9582  -20.5089   -9.8878 C   0  0  0  0  0  0  0  0  0  0  0  0
   25.2967  -20.6732  -10.5839 C   0  0  2  0  0  0  0  0  0  0  0  0
   26.2621  -19.7916   -9.9500 N   0  0  0  0  0  0  0  0  0  0  0  0
   25.1328  -20.3236  -12.0068 C   0  0  0  0  0  0  0  0  0  0  0  0
   25.1485  -19.1223  -12.3482 O   0  0  0  0  0  0  0  0  0  0  0  0
   24.9627  -21.3532  -12.9570 N   0  0  0  0  0  0  0  0  0  0  0  0
   24.9343  -21.1050  -14.3741 C   0  0  1  0  0  0  0  0  0  0  0  0
   25.7332  -22.1351  -15.1013 C   0  0  0  0  0  0  0  0  0  0  0  0
   27.0963  -21.6782  -15.4905 C   0  0  0  0  0  0  0  0  0  0  0  0
   27.0311  -20.5568  -16.4775 C   0  0  0  0  0  0  0  0  0  0  0  0
   28.3970  -20.1312  -16.9722 C   0  0  0  0  0  0  0  0  0  0  0  0
   28.2318  -18.9254  -17.7722 N   0  0  0  0  0  0  0  0  0  0  0  0
   23.5316  -21.0966  -14.9013 C   0  0  0  0  0  0  0  0  0  0  0  0
   22.8271  -22.1085  -14.6707 O   0  0  0  0  0  0  0  0  0  0  0  0
   23.0149  -20.0105  -15.6227 N   0  0  0  0  0  0  0  0  0  0  0  0
   21.6320  -19.9419  -16.0405 C   0  0  1  0  0  0  0  0  0  0  0  0
   21.0615  -18.5541  -15.8127 C   0  0  0  0  0  0  0  0  0  0  0  0
   19.6470  -18.4842  -16.2129 C   0  0  0  0  0  0  0  0  0  0  0  0
   18.7574  -19.2881  -15.8771 O   0  0  0  0  0  0  0  0  0  0  0  0
   21.5289  -20.2221  -17.5174 C   0  0  0  0  0  0  0  0  0  0  0  0
   20.8118  -21.2997  -18.0148 O   0  0  0  0  0  0  0  0  0  0  0  0
   19.2700  -17.4107  -17.0499 O   0  0  0  0  0  0  0  0  0  0  0  0
   22.1078  -19.4649  -18.3349 O   0  0  0  0  0  0  0  0  0  0  0  0
  2  3  2  0
  2  1  1  0
  4  2  1  0
  5  4  1  0
  5  7  1  0
  5  6  1  1
  7  8  2  0
  9  7  1  0
  9 10  1  0
 10 11  1  6
 11 12  1  0
 13 12  1  0
 14 15  1  0
 14 13  1  0
 16 10  1  0
 16 17  2  0
 18 16  1  0
 19 18  1  0
 20 21  1  0
 19 20  1  6
 21 22  2  0
 23 19  1  0
 24 23  1  0
 25 21  1  0
 26 23  2  0
M  END
$$$$
