NKD.pdb
     RDKit          3D

 26 25  0  0  1  0  0  0  0  0999 V2000
   19.6272  -24.5127   -8.4000 N   0  0  0  0  0  0  0  0  0  0  0  0
   18.4257  -23.8573   -8.0414 C   0  0  0  0  0  0  0  0  0  0  0  0
   18.2102  -22.6700   -8.4636 O   0  0  0  0  0  0  0  0  0  0  0  0
   17.4403  -24.5476   -7.1906 C   0  0  0  0  0  0  0  0  0  0  0  0
   17.9425  -25.9551   -6.9266 C   0  0  2  0  0  0  0  0  0  0  0  0
   17.5247  -26.8116   -8.0232 N   0  0  0  0  0  0  0  0  0  0  0  0
   17.3692  -26.4279   -5.6531 C   0  0  0  0  0  0  0  0  0  0  0  0
   16.1295  -26.4255   -5.5012 O   0  0  0  0  0  0  0  0  0  0  0  0
   18.2320  -26.8759   -4.6299 N   0  0  0  0  0  0  0  0  0  0  0  0
   17.7540  -27.2912   -3.3378 C   0  0  1  0  0  0  0  0  0  0  0  0
   18.7793  -28.1259   -2.6448 C   0  0  0  0  0  0  0  0  0  0  0  0
   18.2060  -29.2273   -1.8223 C   0  0  0  0  0  0  0  0  0  0  0  0
   19.2829  -30.0335   -1.1694 C   0  0  0  0  0  0  0  0  0  0  0  0
   18.7439  -31.2324   -0.4185 C   0  0  0  0  0  0  0  0  0  0  0  0
   19.8770  -31.9906    0.0941 N   0  0  0  0  0  0  0  0  0  0  0  0
   17.4037  -26.1146   -2.4787 C   0  0  0  0  0  0  0  0  0  0  0  0
   18.2946  -25.2496   -2.3011 O   0  0  0  0  0  0  0  0  0  0  0  0
   16.1375  -25.9729   -1.8921 N   0  0  0  0  0  0  0  0  0  0  0  0
   15.7747  -24.8227   -1.0940 C   0  0  1  0  0  0  0  0  0  0  0  0
   14.3773  -24.3396   -1.4369 C   0  0  0  0  0  0  0  0  0  0  0  0
   14.3215  -22.8709   -1.5108 C   0  0  0  0  0  0  0  0  0  0  0  0
   13.3269  -22.1983   -1.8406 O   0  0  0  0  0  0  0  0  0  0  0  0
   15.7646  -25.1952    0.3659 C   0  0  0  0  0  0  0  0  0  0  0  0
   16.1440  -24.3027    1.3570 O   0  0  0  0  0  0  0  0  0  0  0  0
   15.5001  -22.1671   -1.1777 O   0  0  0  0  0  0  0  0  0  0  0  0
   15.4055  -26.3483    0.7100 O   0  0  0  0  0  0  0  0  0  0  0  0
  2  3  2  0
  2  1  1  0
  4  2  1  0
  5  4  1  0
  5  7  1  0
  5  6  1  6
  7  8  2  0
  9  7  1  0
  9 10  1  0
 10 11  1  1
 11 12  1  0
 13 12  1  0
 14 15  1  0
 14 13  1  0
 16 10  1  0
 16 17  2  0
 18 16  1  0
 19 18  1  0
 20 21  1  0
 19 20  1  6
 21 22  2  0
 23 19  1  0
 24 23  1  0
 25 21  1  0
 26 23  2  0
M  END
$$$$
