NKD.pdb
     RDKit          3D

 26 25  0  0  1  0  0  0  0  0999 V2000
   19.9648  -11.0958  -16.3766 N   0  0  0  0  0  0  0  0  0  0  0  0
   19.1937  -11.3684  -15.2221 C   0  0  0  0  0  0  0  0  0  0  0  0
   19.3370  -12.4892  -14.6239 O   0  0  0  0  0  0  0  0  0  0  0  0
   18.2397  -10.3620  -14.7236 C   0  0  0  0  0  0  0  0  0  0  0  0
   17.0758  -11.0894  -14.0760 C   0  0  2  0  0  0  0  0  0  0  0  0
   16.3465  -11.8098  -15.1055 N   0  0  0  0  0  0  0  0  0  0  0  0
   16.2040  -10.0951  -13.4239 C   0  0  0  0  0  0  0  0  0  0  0  0
   15.6059   -9.2517  -14.1245 O   0  0  0  0  0  0  0  0  0  0  0  0
   16.0606  -10.1157  -12.0200 N   0  0  0  0  0  0  0  0  0  0  0  0
   15.1985   -9.2051  -11.3142 C   0  0  1  0  0  0  0  0  0  0  0  0
   14.2187   -9.9566  -10.4755 C   0  0  0  0  0  0  0  0  0  0  0  0
   13.1986   -9.0930   -9.8186 C   0  0  0  0  0  0  0  0  0  0  0  0
   12.2425   -9.9059   -9.0053 C   0  0  0  0  0  0  0  0  0  0  0  0
   11.1224   -9.0761   -8.4151 C   0  0  0  0  0  0  0  0  0  0  0  0
   10.2536   -9.9654   -7.6563 N   0  0  0  0  0  0  0  0  0  0  0  0
   15.9832   -8.2680  -10.4472 C   0  0  0  0  0  0  0  0  0  0  0  0
   16.8190   -8.7776   -9.6630 O   0  0  0  0  0  0  0  0  0  0  0  0
   15.8018   -6.8782  -10.5000 N   0  0  0  0  0  0  0  0  0  0  0  0
   16.4930   -5.9696   -9.6121 C   0  0  1  0  0  0  0  0  0  0  0  0
   16.5395   -4.5685  -10.1936 C   0  0  0  0  0  0  0  0  0  0  0  0
   17.3464   -4.5256  -11.4235 C   0  0  0  0  0  0  0  0  0  0  0  0
   18.1047   -5.4276  -11.8256 O   0  0  0  0  0  0  0  0  0  0  0  0
   15.7569   -5.8766   -8.3007 C   0  0  0  0  0  0  0  0  0  0  0  0
   14.5007   -6.4350   -8.1193 O   0  0  0  0  0  0  0  0  0  0  0  0
   17.2490   -3.3587  -12.2136 O   0  0  0  0  0  0  0  0  0  0  0  0
   16.2855   -5.2751   -7.3333 O   0  0  0  0  0  0  0  0  0  0  0  0
  2  3  2  0
  2  1  1  0
  4  2  1  0
  5  4  1  0
  5  7  1  0
  5  6  1  6
  7  8  2  0
  9  7  1  0
  9 10  1  0
 10 11  1  1
 11 12  1  0
 13 12  1  0
 14 15  1  0
 14 13  1  0
 16 10  1  0
 16 17  2  0
 18 16  1  0
 19 18  1  0
 20 21  1  0
 19 20  1  6
 21 22  2  0
 23 19  1  0
 24 23  1  0
 25 21  1  0
 26 23  2  0
M  END
$$$$
