NKD.pdb
     RDKit          3D

 26 25  0  0  1  0  0  0  0  0999 V2000
   16.6925  -14.0448  -12.5498 N   0  0  0  0  0  0  0  0  0  0  0  0
   16.6681  -13.3803  -13.7987 C   0  0  0  0  0  0  0  0  0  0  0  0
   17.2931  -13.8895  -14.7909 O   0  0  0  0  0  0  0  0  0  0  0  0
   15.9251  -12.1159  -13.9416 C   0  0  0  0  0  0  0  0  0  0  0  0
   15.3042  -11.7745  -12.5995 C   0  0  2  0  0  0  0  0  0  0  0  0
   13.9357  -12.2620  -12.5824 N   0  0  0  0  0  0  0  0  0  0  0  0
   15.3344  -10.3107  -12.4260 C   0  0  0  0  0  0  0  0  0  0  0  0
   14.7226   -9.5849  -13.2377 O   0  0  0  0  0  0  0  0  0  0  0  0
   16.0531   -9.7568  -11.3450 N   0  0  0  0  0  0  0  0  0  0  0  0
   16.0962   -8.3422  -11.0848 C   0  0  1  0  0  0  0  0  0  0  0  0
   15.5031   -8.0382   -9.7490 C   0  0  0  0  0  0  0  0  0  0  0  0
   15.5004   -6.5891   -9.4052 C   0  0  0  0  0  0  0  0  0  0  0  0
   14.7203   -6.3297   -8.1560 C   0  0  0  0  0  0  0  0  0  0  0  0
   14.7053   -4.8666   -7.7676 C   0  0  0  0  0  0  0  0  0  0  0  0
   13.7756   -4.7037   -6.6583 N   0  0  0  0  0  0  0  0  0  0  0  0
   17.4985   -7.8170  -11.1401 C   0  0  0  0  0  0  0  0  0  0  0  0
   18.3692   -8.4388  -10.4856 O   0  0  0  0  0  0  0  0  0  0  0  0
   17.8377   -6.6800  -11.8882 N   0  0  0  0  0  0  0  0  0  0  0  0
   19.1965   -6.3905  -12.2897 C   0  0  1  0  0  0  0  0  0  0  0  0
   19.7691   -7.5176  -13.1295 C   0  0  0  0  0  0  0  0  0  0  0  0
   21.1399   -7.2141  -13.5702 C   0  0  0  0  0  0  0  0  0  0  0  0
   21.4980   -7.0223  -14.7473 O   0  0  0  0  0  0  0  0  0  0  0  0
   19.2246   -5.1491  -13.1432 C   0  0  0  0  0  0  0  0  0  0  0  0
   18.0851   -4.6497  -13.7555 O   0  0  0  0  0  0  0  0  0  0  0  0
   22.1323   -7.1338  -12.5682 O   0  0  0  0  0  0  0  0  0  0  0  0
   20.3084   -4.5385  -13.3156 O   0  0  0  0  0  0  0  0  0  0  0  0
  2  3  2  0
  2  1  1  0
  4  2  1  0
  5  4  1  0
  5  7  1  0
  5  6  1  6
  7  8  2  0
  9  7  1  0
  9 10  1  0
 10 11  1  1
 11 12  1  0
 13 12  1  0
 14 15  1  0
 14 13  1  0
 16 10  1  0
 16 17  2  0
 18 16  1  0
 19 18  1  0
 20 21  1  0
 19 20  1  6
 21 22  2  0
 23 19  1  0
 24 23  1  0
 25 21  1  0
 26 23  2  0
M  END
$$$$
