NKD.pdb
     RDKit          3D

 26 25  0  0  1  0  0  0  0  0999 V2000
   10.7516  -12.5251  -10.8754 N   0  0  0  0  0  0  0  0  0  0  0  0
   11.4853  -12.8308  -12.0459 C   0  0  0  0  0  0  0  0  0  0  0  0
   10.9230  -13.4970  -12.9810 O   0  0  0  0  0  0  0  0  0  0  0  0
   12.8820  -12.3790  -12.1742 C   0  0  0  0  0  0  0  0  0  0  0  0
   13.6277  -13.3779  -13.0398 C   0  0  2  0  0  0  0  0  0  0  0  0
   13.8045  -14.6068  -12.2853 N   0  0  0  0  0  0  0  0  0  0  0  0
   14.9350  -12.8012  -13.4037 C   0  0  0  0  0  0  0  0  0  0  0  0
   15.7355  -12.4800  -12.5004 O   0  0  0  0  0  0  0  0  0  0  0  0
   15.2580  -12.6243  -14.7661 N   0  0  0  0  0  0  0  0  0  0  0  0
   16.5267  -12.1036  -15.2019 C   0  0  1  0  0  0  0  0  0  0  0  0
   17.0145  -12.8498  -16.3992 C   0  0  0  0  0  0  0  0  0  0  0  0
   17.2760  -14.2939  -16.1457 C   0  0  0  0  0  0  0  0  0  0  0  0
   18.6646  -14.5121  -15.6355 C   0  0  0  0  0  0  0  0  0  0  0  0
   18.9689  -15.9710  -15.3698 C   0  0  0  0  0  0  0  0  0  0  0  0
   20.3385  -16.0650  -14.8832 N   0  0  0  0  0  0  0  0  0  0  0  0
   16.4380  -10.6432  -15.5252 C   0  0  0  0  0  0  0  0  0  0  0  0
   15.4959  -10.2771  -16.2681 O   0  0  0  0  0  0  0  0  0  0  0  0
   17.3616   -9.7135  -15.0252 N   0  0  0  0  0  0  0  0  0  0  0  0
   17.3347   -8.3153  -15.3941 C   0  0  1  0  0  0  0  0  0  0  0  0
   17.3884   -7.4259  -14.1655 C   0  0  0  0  0  0  0  0  0  0  0  0
   17.3382   -6.0017  -14.5328 C   0  0  0  0  0  0  0  0  0  0  0  0
   16.3829   -5.4292  -15.0896 O   0  0  0  0  0  0  0  0  0  0  0  0
   18.5435   -7.9831  -16.2299 C   0  0  0  0  0  0  0  0  0  0  0  0
   18.5716   -6.8909  -17.0838 O   0  0  0  0  0  0  0  0  0  0  0  0
   18.4738   -5.2200  -14.2251 O   0  0  0  0  0  0  0  0  0  0  0  0
   19.5643   -8.7115  -16.1625 O   0  0  0  0  0  0  0  0  0  0  0  0
  2  3  2  0
  2  1  1  0
  4  2  1  0
  5  4  1  0
  5  7  1  0
  5  6  1  1
  7  8  2  0
  9  7  1  0
  9 10  1  0
 10 11  1  6
 11 12  1  0
 13 12  1  0
 14 15  1  0
 14 13  1  0
 16 10  1  0
 16 17  2  0
 18 16  1  0
 19 18  1  0
 20 21  1  0
 19 20  1  1
 21 22  2  0
 23 19  1  0
 24 23  1  0
 25 21  1  0
 26 23  2  0
M  END
$$$$
