NKD.pdb
     RDKit          3D

 26 25  0  0  1  0  0  0  0  0999 V2000
   27.3630  -18.8831   -7.0539 N   0  0  0  0  0  0  0  0  0  0  0  0
   26.4396  -19.7990   -7.6109 C   0  0  0  0  0  0  0  0  0  0  0  0
   26.0181  -20.7737   -6.8991 O   0  0  0  0  0  0  0  0  0  0  0  0
   25.9754  -19.6195   -8.9978 C   0  0  0  0  0  0  0  0  0  0  0  0
   26.3477  -20.8602   -9.7886 C   0  0  2  0  0  0  0  0  0  0  0  0
   27.7925  -21.0111   -9.7645 N   0  0  0  0  0  0  0  0  0  0  0  0
   25.8673  -20.6973  -11.1730 C   0  0  0  0  0  0  0  0  0  0  0  0
   26.3766  -19.8175  -11.8985 O   0  0  0  0  0  0  0  0  0  0  0  0
   24.8417  -21.5397  -11.6530 N   0  0  0  0  0  0  0  0  0  0  0  0
   24.4115  -21.5342  -13.0261 C   0  0  1  0  0  0  0  0  0  0  0  0
   24.5447  -22.8968  -13.6211 C   0  0  0  0  0  0  0  0  0  0  0  0
   25.1349  -22.9036  -14.9884 C   0  0  0  0  0  0  0  0  0  0  0  0
   25.2044  -24.2910  -15.5421 C   0  0  0  0  0  0  0  0  0  0  0  0
   25.8934  -24.3508  -16.8887 C   0  0  0  0  0  0  0  0  0  0  0  0
   25.9689  -25.7474  -17.2953 N   0  0  0  0  0  0  0  0  0  0  0  0
   22.9926  -21.0695  -13.1542 C   0  0  0  0  0  0  0  0  0  0  0  0
   22.1995  -21.3916  -12.2374 O   0  0  0  0  0  0  0  0  0  0  0  0
   22.5561  -20.3059  -14.2468 N   0  0  0  0  0  0  0  0  0  0  0  0
   21.1866  -19.8631  -14.3881 C   0  0  1  0  0  0  0  0  0  0  0  0
   21.0186  -18.9948  -15.6215 C   0  0  0  0  0  0  0  0  0  0  0  0
   19.6529  -18.4545  -15.7141 C   0  0  0  0  0  0  0  0  0  0  0  0
   19.1180  -18.0071  -16.7457 O   0  0  0  0  0  0  0  0  0  0  0  0
   20.2792  -21.0534  -14.5622 C   0  0  0  0  0  0  0  0  0  0  0  0
   19.0961  -21.1883  -13.8516 O   0  0  0  0  0  0  0  0  0  0  0  0
   18.8857  -18.4447  -14.5281 O   0  0  0  0  0  0  0  0  0  0  0  0
   20.5933  -21.9605  -15.3717 O   0  0  0  0  0  0  0  0  0  0  0  0
  2  3  2  0
  2  1  1  0
  4  2  1  0
  5  4  1  0
  5  7  1  0
  5  6  1  6
  7  8  2  0
  9  7  1  0
  9 10  1  0
 10 11  1  1
 11 12  1  0
 13 12  1  0
 14 15  1  0
 14 13  1  0
 16 10  1  0
 16 17  2  0
 18 16  1  0
 19 18  1  0
 20 21  1  0
 19 20  1  6
 21 22  2  0
 23 19  1  0
 24 23  1  0
 25 21  1  0
 26 23  2  0
M  END
$$$$
