NKD.pdb
     RDKit          3D

 26 25  0  0  1  0  0  0  0  0999 V2000
   22.1392  -14.0505  -17.8859 N   0  0  0  0  0  0  0  0  0  0  0  0
   21.0229  -13.7048  -17.0882 C   0  0  0  0  0  0  0  0  0  0  0  0
   20.3659  -14.6287  -16.4972 O   0  0  0  0  0  0  0  0  0  0  0  0
   20.6328  -12.2909  -16.9471 C   0  0  0  0  0  0  0  0  0  0  0  0
   19.1305  -12.1906  -17.1374 C   0  0  2  0  0  0  0  0  0  0  0  0
   18.8011  -12.6329  -18.4815 N   0  0  0  0  0  0  0  0  0  0  0  0
   18.7242  -10.7870  -16.9403 C   0  0  0  0  0  0  0  0  0  0  0  0
   19.0748   -9.9251  -17.7733 O   0  0  0  0  0  0  0  0  0  0  0  0
   17.9453  -10.4438  -15.8145 N   0  0  0  0  0  0  0  0  0  0  0  0
   17.4126   -9.1224  -15.6126 C   0  0  1  0  0  0  0  0  0  0  0  0
   16.1137   -9.1888  -14.8798 C   0  0  0  0  0  0  0  0  0  0  0  0
   14.9529   -9.5503  -15.7400 C   0  0  0  0  0  0  0  0  0  0  0  0
   13.6801   -9.5645  -14.9551 C   0  0  0  0  0  0  0  0  0  0  0  0
   12.4791   -9.9484  -15.7929 C   0  0  0  0  0  0  0  0  0  0  0  0
   11.3095   -9.9630  -14.9251 N   0  0  0  0  0  0  0  0  0  0  0  0
   18.3705   -8.2552  -14.8539 C   0  0  0  0  0  0  0  0  0  0  0  0
   19.0634   -8.8075  -13.9661 O   0  0  0  0  0  0  0  0  0  0  0  0
   18.4981   -6.8830  -15.1150 N   0  0  0  0  0  0  0  0  0  0  0  0
   19.4705   -6.0506  -14.4418 C   0  0  1  0  0  0  0  0  0  0  0  0
   20.8845   -6.5179  -14.7344 C   0  0  0  0  0  0  0  0  0  0  0  0
   21.8807   -5.5632  -14.2226 C   0  0  0  0  0  0  0  0  0  0  0  0
   21.6284   -4.5177  -13.5952 O   0  0  0  0  0  0  0  0  0  0  0  0
   19.3642   -4.6330  -14.9413 C   0  0  0  0  0  0  0  0  0  0  0  0
   18.9747   -4.3360  -16.2386 O   0  0  0  0  0  0  0  0  0  0  0  0
   23.2396   -5.8627  -14.4659 O   0  0  0  0  0  0  0  0  0  0  0  0
   19.6362   -3.6807  -14.1694 O   0  0  0  0  0  0  0  0  0  0  0  0
  2  3  2  0
  2  1  1  0
  4  2  1  0
  5  4  1  0
  5  7  1  0
  5  6  1  6
  7  8  2  0
  9  7  1  0
  9 10  1  0
 10 11  1  1
 11 12  1  0
 13 12  1  0
 14 15  1  0
 14 13  1  0
 16 10  1  0
 16 17  2  0
 18 16  1  0
 19 18  1  0
 20 21  1  0
 19 20  1  6
 21 22  2  0
 23 19  1  0
 24 23  1  0
 25 21  1  0
 26 23  2  0
M  END
$$$$
