NKD.pdb
     RDKit          3D

 26 25  0  0  1  0  0  0  0  0999 V2000
   28.7552  -11.6777  -16.6416 N   0  0  0  0  0  0  0  0  0  0  0  0
   27.6485  -11.3306  -15.8314 C   0  0  0  0  0  0  0  0  0  0  0  0
   27.5551  -11.8225  -14.6551 O   0  0  0  0  0  0  0  0  0  0  0  0
   26.6214  -10.4095  -16.3493 C   0  0  0  0  0  0  0  0  0  0  0  0
   25.2714  -11.0946  -16.2443 C   0  0  2  0  0  0  0  0  0  0  0  0
   25.2658  -12.2496  -17.1258 N   0  0  0  0  0  0  0  0  0  0  0  0
   24.2249  -10.1351  -16.6419 C   0  0  0  0  0  0  0  0  0  0  0  0
   24.2564   -9.6332  -17.7851 O   0  0  0  0  0  0  0  0  0  0  0  0
   23.2061   -9.8026  -15.7235 N   0  0  0  0  0  0  0  0  0  0  0  0
   22.1023   -8.9451  -16.0653 C   0  0  1  0  0  0  0  0  0  0  0  0
   20.8106   -9.6841  -15.9484 C   0  0  0  0  0  0  0  0  0  0  0  0
   20.4790  -10.5129  -17.1405 C   0  0  0  0  0  0  0  0  0  0  0  0
   19.1408  -11.1639  -16.9931 C   0  0  0  0  0  0  0  0  0  0  0  0
   18.7862  -12.0479  -18.1697 C   0  0  0  0  0  0  0  0  0  0  0  0
   17.5845  -12.7959  -17.8263 N   0  0  0  0  0  0  0  0  0  0  0  0
   22.0625   -7.7281  -15.1919 C   0  0  0  0  0  0  0  0  0  0  0  0
   22.3888   -7.8750  -13.9897 O   0  0  0  0  0  0  0  0  0  0  0  0
   21.6795   -6.4718  -15.6842 N   0  0  0  0  0  0  0  0  0  0  0  0
   21.5017   -5.3217  -14.8256 C   0  0  1  0  0  0  0  0  0  0  0  0
   22.3892   -4.1712  -15.2640 C   0  0  0  0  0  0  0  0  0  0  0  0
   22.1231   -2.9584  -14.4741 C   0  0  0  0  0  0  0  0  0  0  0  0
   21.5705   -1.9251  -14.8951 O   0  0  0  0  0  0  0  0  0  0  0  0
   20.0782   -4.8350  -14.9102 C   0  0  0  0  0  0  0  0  0  0  0  0
   19.2775   -5.0869  -16.0140 O   0  0  0  0  0  0  0  0  0  0  0  0
   22.5310   -2.9719  -13.1217 O   0  0  0  0  0  0  0  0  0  0  0  0
   19.5893   -4.1772  -13.9588 O   0  0  0  0  0  0  0  0  0  0  0  0
  2  3  2  0
  2  1  1  0
  4  2  1  0
  5  4  1  0
  5  7  1  0
  5  6  1  6
  7  8  2  0
  9  7  1  0
  9 10  1  0
 10 11  1  1
 11 12  1  0
 13 12  1  0
 14 15  1  0
 14 13  1  0
 16 10  1  0
 16 17  2  0
 18 16  1  0
 19 18  1  0
 20 21  1  0
 19 20  1  6
 21 22  2  0
 23 19  1  0
 24 23  1  0
 25 21  1  0
 26 23  2  0
M  END
$$$$
