NKD.pdb
     RDKit          3D

 26 25  0  0  1  0  0  0  0  0999 V2000
   25.3381  -14.3727  -15.5194 N   0  0  0  0  0  0  0  0  0  0  0  0
   26.1388  -13.2063  -15.5331 C   0  0  0  0  0  0  0  0  0  0  0  0
   27.3859  -13.3000  -15.2677 O   0  0  0  0  0  0  0  0  0  0  0  0
   25.5298  -11.9031  -15.8528 C   0  0  0  0  0  0  0  0  0  0  0  0
   24.0485  -12.1185  -16.1024 C   0  0  2  0  0  0  0  0  0  0  0  0
   23.8920  -12.9661  -17.2721 N   0  0  0  0  0  0  0  0  0  0  0  0
   23.4134  -10.8067  -16.3252 C   0  0  0  0  0  0  0  0  0  0  0  0
   24.1303   -9.7899  -16.4354 O   0  0  0  0  0  0  0  0  0  0  0  0
   22.0070  -10.7245  -16.4113 N   0  0  0  0  0  0  0  0  0  0  0  0
   21.3194   -9.5047  -16.7427 C   0  0  1  0  0  0  0  0  0  0  0  0
   19.8975   -9.7865  -17.0992 C   0  0  0  0  0  0  0  0  0  0  0  0
   19.1325   -8.5827  -17.5278 C   0  0  0  0  0  0  0  0  0  0  0  0
   17.7083   -8.9245  -17.8297 C   0  0  0  0  0  0  0  0  0  0  0  0
   16.9095   -7.7330  -18.3132 C   0  0  0  0  0  0  0  0  0  0  0  0
   15.5321   -8.1633  -18.5112 N   0  0  0  0  0  0  0  0  0  0  0  0
   21.3658   -8.5243  -15.6104 C   0  0  0  0  0  0  0  0  0  0  0  0
   21.2445   -8.9837  -14.4496 O   0  0  0  0  0  0  0  0  0  0  0  0
   21.5376   -7.1488  -15.8244 N   0  0  0  0  0  0  0  0  0  0  0  0
   21.6521   -6.2012  -14.7379 C   0  0  1  0  0  0  0  0  0  0  0  0
   22.5655   -5.0487  -15.1131 C   0  0  0  0  0  0  0  0  0  0  0  0
   22.6354   -4.0482  -14.0362 C   0  0  0  0  0  0  0  0  0  0  0  0
   22.8023   -4.2941  -12.8270 O   0  0  0  0  0  0  0  0  0  0  0  0
   20.3011   -5.6088  -14.4309 C   0  0  0  0  0  0  0  0  0  0  0  0
   19.5090   -5.0321  -15.4121 O   0  0  0  0  0  0  0  0  0  0  0  0
   22.5013   -2.6928  -14.4108 O   0  0  0  0  0  0  0  0  0  0  0  0
   19.8674   -5.6294  -13.2526 O   0  0  0  0  0  0  0  0  0  0  0  0
  2  3  2  0
  2  1  1  0
  4  2  1  0
  5  4  1  0
  5  7  1  0
  5  6  1  6
  7  8  2  0
  9  7  1  0
  9 10  1  0
 10 11  1  1
 11 12  1  0
 13 12  1  0
 14 15  1  0
 14 13  1  0
 16 10  1  0
 16 17  2  0
 18 16  1  0
 19 18  1  0
 20 21  1  0
 19 20  1  6
 21 22  2  0
 23 19  1  0
 24 23  1  0
 25 21  1  0
 26 23  2  0
M  END
$$$$
