NKD.pdb
     RDKit          3D

 26 25  0  0  1  0  0  0  0  0999 V2000
   12.6884   -6.3063   -8.4261 N   0  0  0  0  0  0  0  0  0  0  0  0
   13.8933   -6.0529   -7.7290 C   0  0  0  0  0  0  0  0  0  0  0  0
   13.9372   -5.0960   -6.8824 O   0  0  0  0  0  0  0  0  0  0  0  0
   15.0778   -6.8914   -7.9842 C   0  0  0  0  0  0  0  0  0  0  0  0
   14.7058   -7.9386   -9.0176 C   0  0  2  0  0  0  0  0  0  0  0  0
   14.1149   -9.0768   -8.3348 N   0  0  0  0  0  0  0  0  0  0  0  0
   15.9272   -8.3439   -9.7373 C   0  0  0  0  0  0  0  0  0  0  0  0
   16.8364   -8.9340   -9.1169 O   0  0  0  0  0  0  0  0  0  0  0  0
   16.0456   -8.0585  -11.1145 N   0  0  0  0  0  0  0  0  0  0  0  0
   17.1603   -8.5056  -11.9069 C   0  0  1  0  0  0  0  0  0  0  0  0
   16.6884   -9.3525  -13.0420 C   0  0  0  0  0  0  0  0  0  0  0  0
   17.7844   -9.8585  -13.9143 C   0  0  0  0  0  0  0  0  0  0  0  0
   17.2459  -10.6904  -15.0342 C   0  0  0  0  0  0  0  0  0  0  0  0
   18.3277  -11.1814  -15.9723 C   0  0  0  0  0  0  0  0  0  0  0  0
   17.6940  -11.9769  -17.0150 N   0  0  0  0  0  0  0  0  0  0  0  0
   17.9518   -7.3506  -12.4407 C   0  0  0  0  0  0  0  0  0  0  0  0
   17.3094   -6.3409  -12.8163 O   0  0  0  0  0  0  0  0  0  0  0  0
   19.3517   -7.3829  -12.5220 N   0  0  0  0  0  0  0  0  0  0  0  0
   20.1243   -6.2882  -13.0665 C   0  0  1  0  0  0  0  0  0  0  0  0
   21.5977   -6.4437  -12.7374 C   0  0  0  0  0  0  0  0  0  0  0  0
   22.3997   -5.3742  -13.3529 C   0  0  0  0  0  0  0  0  0  0  0  0
   22.2163   -4.1518  -13.2026 O   0  0  0  0  0  0  0  0  0  0  0  0
   20.0086   -6.2776  -14.5688 C   0  0  0  0  0  0  0  0  0  0  0  0
   19.8963   -5.0992  -15.2910 O   0  0  0  0  0  0  0  0  0  0  0  0
   23.4691   -5.7731  -14.1850 O   0  0  0  0  0  0  0  0  0  0  0  0
   20.0106   -7.3635  -15.1994 O   0  0  0  0  0  0  0  0  0  0  0  0
  2  3  2  0
  2  1  1  0
  4  2  1  0
  5  4  1  0
  5  7  1  0
  5  6  1  1
  7  8  2  0
  9  7  1  0
  9 10  1  0
 10 11  1  6
 11 12  1  0
 13 12  1  0
 14 15  1  0
 14 13  1  0
 16 10  1  0
 16 17  2  0
 18 16  1  0
 19 18  1  0
 20 21  1  0
 19 20  1  6
 21 22  2  0
 23 19  1  0
 24 23  1  0
 25 21  1  0
 26 23  2  0
M  END
$$$$
