NKD.pdb
     RDKit          3D

 26 25  0  0  1  0  0  0  0  0999 V2000
   16.6191  -11.0333  -18.6057 N   0  0  0  0  0  0  0  0  0  0  0  0
   16.2058   -9.8737  -17.9083 C   0  0  0  0  0  0  0  0  0  0  0  0
   15.1760   -9.2335  -18.3132 O   0  0  0  0  0  0  0  0  0  0  0  0
   16.9623   -9.4199  -16.7280 C   0  0  0  0  0  0  0  0  0  0  0  0
   18.1475  -10.3481  -16.5366 C   0  0  2  0  0  0  0  0  0  0  0  0
   17.7252  -11.4826  -15.7333 N   0  0  0  0  0  0  0  0  0  0  0  0
   19.2228   -9.6037  -15.8559 C   0  0  0  0  0  0  0  0  0  0  0  0
   19.0203   -9.1433  -14.7127 O   0  0  0  0  0  0  0  0  0  0  0  0
   20.4617   -9.4263  -16.5084 N   0  0  0  0  0  0  0  0  0  0  0  0
   21.5851   -8.7833  -15.8799 C   0  0  1  0  0  0  0  0  0  0  0  0
   22.8596   -9.1973  -16.5376 C   0  0  0  0  0  0  0  0  0  0  0  0
   23.6266  -10.2224  -15.7766 C   0  0  0  0  0  0  0  0  0  0  0  0
   23.7246  -11.5041  -16.5408 C   0  0  0  0  0  0  0  0  0  0  0  0
   24.4280  -12.5969  -15.7645 C   0  0  0  0  0  0  0  0  0  0  0  0
   24.5100  -13.7750  -16.6171 N   0  0  0  0  0  0  0  0  0  0  0  0
   21.4600   -7.2908  -15.9279 C   0  0  0  0  0  0  0  0  0  0  0  0
   21.2765   -6.7674  -17.0529 O   0  0  0  0  0  0  0  0  0  0  0  0
   21.5417   -6.5002  -14.7722 N   0  0  0  0  0  0  0  0  0  0  0  0
   21.4959   -5.0553  -14.8139 C   0  0  1  0  0  0  0  0  0  0  0  0
   20.0690   -4.5512  -14.6983 C   0  0  0  0  0  0  0  0  0  0  0  0
   20.0199   -3.0805  -14.6868 C   0  0  0  0  0  0  0  0  0  0  0  0
   20.7412   -2.3251  -15.3647 O   0  0  0  0  0  0  0  0  0  0  0  0
   22.2590   -4.4851  -13.6465 C   0  0  0  0  0  0  0  0  0  0  0  0
   22.6304   -3.1503  -13.5900 O   0  0  0  0  0  0  0  0  0  0  0  0
   19.0709   -2.4775  -13.8317 O   0  0  0  0  0  0  0  0  0  0  0  0
   22.5771   -5.2318  -12.6883 O   0  0  0  0  0  0  0  0  0  0  0  0
  2  3  2  0
  2  1  1  0
  4  2  1  0
  5  4  1  0
  5  7  1  0
  5  6  1  1
  7  8  2  0
  9  7  1  0
  9 10  1  0
 10 11  1  6
 11 12  1  0
 13 12  1  0
 14 15  1  0
 14 13  1  0
 16 10  1  0
 16 17  2  0
 18 16  1  0
 19 18  1  0
 20 21  1  0
 19 20  1  1
 21 22  2  0
 23 19  1  0
 24 23  1  0
 25 21  1  0
 26 23  2  0
M  END
$$$$
