ARC.pdb
     RDKit          3D

 23 22  0  0  1  0  0  0  0  0999 V2000
   31.1611  -20.1596  -11.6115 C   0  0  0  0  0  0  0  0  0  0  0  0
   30.5247  -21.1965  -10.6957 C   0  0  2  0  0  0  0  0  0  0  0  0
   31.3783  -22.3681  -10.7427 N   0  0  0  0  0  0  0  0  0  0  0  0
   29.1392  -21.5154  -11.1297 C   0  0  0  0  0  0  0  0  0  0  0  0
   28.8926  -22.4112  -11.9762 O   0  0  0  0  0  0  0  0  0  0  0  0
   21.0390  -20.6926  -10.3003 N   0  0  0  0  0  0  0  0  0  0  0  0
   21.3904  -21.3979   -9.1333 C   0  0  0  0  0  0  0  0  0  0  0  0
   20.5439  -22.2640   -8.6818 N   0  0  0  0  0  0  0  0  0  0  0  0
   22.6300  -21.1537   -8.4916 N   0  0  0  0  0  0  0  0  0  0  0  0
   23.5078  -20.1812   -9.0668 C   0  0  0  0  0  0  0  0  0  0  0  0
   24.2978  -20.7277  -10.2381 C   0  0  0  0  0  0  0  0  0  0  0  0
   25.7537  -20.5699   -9.9092 C   0  0  0  0  0  0  0  0  0  0  0  0
   26.6639  -21.0497  -11.0064 C   0  0  2  0  0  0  0  0  0  0  0  0
   28.0151  -20.8168  -10.6041 N   0  0  0  0  0  0  0  0  0  0  0  0
   26.3304  -20.5383  -12.3299 C   0  0  0  0  0  0  0  0  0  0  0  0
   26.4267  -19.3062  -12.5373 O   0  0  0  0  0  0  0  0  0  0  0  0
   20.7056  -22.8474   -7.8530 N   0  0  0  0  0  0  0  0  0  0  0  0
   25.9050  -21.3915  -13.3752 C   0  0  2  0  0  0  0  0  0  0  0  0
   25.5895  -20.9189  -14.7058 C   0  0  0  0  0  0  0  0  0  0  0  0
   25.8229  -21.9782  -15.7612 S   0  0  0  0  0  0  0  0  0  0  0  0
   25.2656  -23.5681  -15.0342 C   0  0  0  0  0  0  0  0  0  0  0  0
   24.1991  -20.3888  -14.7797 O   0  0  0  0  0  0  0  0  0  0  0  0
   23.3189  -20.6953  -13.9374 O   0  0  0  0  0  0  0  0  0  0  0  0
  2  1  1  6
  2  3  1  0
  4 14  1  0
  4  2  1  0
  5  4  2  0
  6  7  1  0
  7  9  1  0
  7  8  2  0
  9 10  1  0
 10 11  1  0
 11 12  1  0
 13 12  1  1
 13 15  1  0
 13 14  1  0
 15 17  1  0
 16 15  2  0
 17 18  1  0
 18 21  1  0
 19 20  1  0
 18 19  1  1
 21 22  2  0
 21 23  1  0
M  END
$$$$
