ARC.pdb
     RDKit          3D

 23 22  0  0  1  0  0  0  0  0999 V2000
   24.8378  -21.5478   -8.3560 C   0  0  0  0  0  0  0  0  0  0  0  0
   26.0231  -20.7871   -8.9350 C   0  0  2  0  0  0  0  0  0  0  0  0
   26.3494  -19.7437   -7.9818 N   0  0  0  0  0  0  0  0  0  0  0  0
   25.6952  -20.2209  -10.2699 C   0  0  0  0  0  0  0  0  0  0  0  0
   24.9602  -19.2105  -10.4059 O   0  0  0  0  0  0  0  0  0  0  0  0
   28.6326  -18.7701  -17.5421 N   0  0  0  0  0  0  0  0  0  0  0  0
   27.3141  -18.3066  -17.3707 C   0  0  0  0  0  0  0  0  0  0  0  0
   26.4875  -18.4835  -18.3484 N   0  0  0  0  0  0  0  0  0  0  0  0
   26.9261  -17.6723  -16.1643 N   0  0  0  0  0  0  0  0  0  0  0  0
   27.2655  -18.3078  -14.9281 C   0  0  0  0  0  0  0  0  0  0  0  0
   27.0608  -19.8083  -14.9671 C   0  0  0  0  0  0  0  0  0  0  0  0
   27.2180  -20.3185  -13.5644 C   0  0  0  0  0  0  0  0  0  0  0  0
   25.9354  -20.2958  -12.7790 C   0  0  2  0  0  0  0  0  0  0  0  0
   26.2014  -20.7995  -11.4685 N   0  0  0  0  0  0  0  0  0  0  0  0
   24.8076  -20.9276  -13.4524 C   0  0  0  0  0  0  0  0  0  0  0  0
   24.9037  -22.1341  -13.7768 O   0  0  0  0  0  0  0  0  0  0  0  0
   25.5067  -18.1816  -18.3335 N   0  0  0  0  0  0  0  0  0  0  0  0
   23.6193  -20.2179  -13.7452 C   0  0  2  0  0  0  0  0  0  0  0  0
   22.4967  -20.8053  -14.4438 C   0  0  0  0  0  0  0  0  0  0  0  0
   21.1681  -20.3551  -13.8755 S   0  0  0  0  0  0  0  0  0  0  0  0
   21.0504  -21.0783  -12.1933 C   0  0  0  0  0  0  0  0  0  0  0  0
   22.5681  -20.5409  -15.9082 O   0  0  0  0  0  0  0  0  0  0  0  0
   21.7256  -21.0063  -16.7156 O   0  0  0  0  0  0  0  0  0  0  0  0
  2  1  1  1
  2  3  1  0
  4 14  1  0
  4  2  1  0
  5  4  2  0
  6  7  1  0
  7  9  1  0
  7  8  2  0
  9 10  1  0
 10 11  1  0
 11 12  1  0
 13 12  1  6
 13 15  1  0
 13 14  1  0
 15 17  1  0
 16 15  2  0
 17 18  1  0
 18 21  1  0
 19 20  1  0
 18 19  1  1
 21 22  2  0
 21 23  1  0
M  END
$$$$
