ARC.pdb
     RDKit          3D

 23 22  0  0  1  0  0  0  0  0999 V2000
   15.7414  -10.9756  -16.0472 C   0  0  0  0  0  0  0  0  0  0  0  0
   17.0901  -10.8584  -15.3500 C   0  0  2  0  0  0  0  0  0  0  0  0
   17.1974  -12.0017  -14.4640 N   0  0  0  0  0  0  0  0  0  0  0  0
   17.1961   -9.5785  -14.6014 C   0  0  0  0  0  0  0  0  0  0  0  0
   17.2361   -8.4647  -15.1825 O   0  0  0  0  0  0  0  0  0  0  0  0
   13.5714   -8.2080   -7.1540 N   0  0  0  0  0  0  0  0  0  0  0  0
   13.8258   -6.8864   -7.5681 C   0  0  0  0  0  0  0  0  0  0  0  0
   13.2422   -5.9344   -6.9173 N   0  0  0  0  0  0  0  0  0  0  0  0
   14.6920   -6.6292   -8.6598 N   0  0  0  0  0  0  0  0  0  0  0  0
   15.3451   -7.7412   -9.2797 C   0  0  0  0  0  0  0  0  0  0  0  0
   16.2080   -7.3306  -10.4551 C   0  0  0  0  0  0  0  0  0  0  0  0
   16.7649   -8.5854  -11.0620 C   0  0  0  0  0  0  0  0  0  0  0  0
   17.4063   -8.3599  -12.4036 C   0  0  2  0  0  0  0  0  0  0  0  0
   17.2581   -9.5510  -13.1790 N   0  0  0  0  0  0  0  0  0  0  0  0
   18.7688   -7.8461  -12.3391 C   0  0  0  0  0  0  0  0  0  0  0  0
   19.6329   -8.5162  -11.7272 O   0  0  0  0  0  0  0  0  0  0  0  0
   13.2985   -4.9429   -7.1762 N   0  0  0  0  0  0  0  0  0  0  0  0
   19.1347   -6.6211  -12.9449 C   0  0  1  0  0  0  0  0  0  0  0  0
   20.5015   -6.1533  -13.0252 C   0  0  0  0  0  0  0  0  0  0  0  0
   21.2840   -6.8524  -14.1159 S   0  0  0  0  0  0  0  0  0  0  0  0
   22.9423   -6.0679  -14.1504 C   0  0  0  0  0  0  0  0  0  0  0  0
   20.5617   -4.6738  -13.1894 O   0  0  0  0  0  0  0  0  0  0  0  0
   19.6769   -4.0311  -13.8077 O   0  0  0  0  0  0  0  0  0  0  0  0
  2  1  1  1
  2  3  1  0
  4 14  1  0
  4  2  1  0
  5  4  2  0
  6  7  1  0
  7  9  1  0
  7  8  2  0
  9 10  1  0
 10 11  1  0
 11 12  1  0
 13 12  1  1
 13 15  1  0
 13 14  1  0
 15 17  1  0
 16 15  2  0
 17 18  1  0
 18 21  1  0
 19 20  1  0
 18 19  1  6
 21 22  2  0
 21 23  1  0
M  END
$$$$
