ARC.pdb
     RDKit          3D

 23 22  0  0  1  0  0  0  0  0999 V2000
   24.0360  -18.0718  -19.1871 C   0  0  0  0  0  0  0  0  0  0  0  0
   25.0315  -18.6195  -18.1732 C   0  0  2  0  0  0  0  0  0  0  0  0
   26.0904  -19.2533  -18.9353 N   0  0  0  0  0  0  0  0  0  0  0  0
   24.3778  -19.5810  -17.2469 C   0  0  0  0  0  0  0  0  0  0  0  0
   24.1961  -20.7865  -17.5527 O   0  0  0  0  0  0  0  0  0  0  0  0
   25.2959  -20.9864   -8.9501 N   0  0  0  0  0  0  0  0  0  0  0  0
   25.9685  -20.8027  -10.1735 C   0  0  0  0  0  0  0  0  0  0  0  0
   27.1729  -21.2622  -10.2672 N   0  0  0  0  0  0  0  0  0  0  0  0
   25.3326  -20.1364  -11.2505 N   0  0  0  0  0  0  0  0  0  0  0  0
   23.9053  -20.0377  -11.2348 C   0  0  0  0  0  0  0  0  0  0  0  0
   23.2731  -20.5062  -12.5292 C   0  0  0  0  0  0  0  0  0  0  0  0
   23.9169  -19.7377  -13.6462 C   0  0  0  0  0  0  0  0  0  0  0  0
   23.3463  -20.0683  -14.9980 C   0  0  2  0  0  0  0  0  0  0  0  0
   23.9220  -19.1807  -15.9586 N   0  0  0  0  0  0  0  0  0  0  0  0
   21.8909  -20.1377  -15.0349 C   0  0  0  0  0  0  0  0  0  0  0  0
   21.2368  -19.0827  -14.8635 O   0  0  0  0  0  0  0  0  0  0  0  0
   27.7745  -21.1338  -11.0887 N   0  0  0  0  0  0  0  0  0  0  0  0
   21.2064  -21.3557  -15.2574 C   0  0  2  0  0  0  0  0  0  0  0  0
   19.7637  -21.4614  -15.2821 C   0  0  0  0  0  0  0  0  0  0  0  0
   19.2966  -22.8649  -15.6024 S   0  0  0  0  0  0  0  0  0  0  0  0
   19.9524  -23.9471  -14.2737 C   0  0  0  0  0  0  0  0  0  0  0  0
   19.1604  -20.9754  -14.0095 O   0  0  0  0  0  0  0  0  0  0  0  0
   18.0008  -20.4948  -13.9577 O   0  0  0  0  0  0  0  0  0  0  0  0
  2  1  1  6
  2  3  1  0
  4 14  1  0
  4  2  1  0
  5  4  2  0
  6  7  1  0
  7  9  1  0
  7  8  2  0
  9 10  1  0
 10 11  1  0
 11 12  1  0
 13 12  1  1
 13 15  1  0
 13 14  1  0
 15 17  1  0
 16 15  2  0
 17 18  1  0
 18 21  1  0
 19 20  1  0
 18 19  1  6
 21 22  2  0
 21 23  1  0
M  END
$$$$
