ARC.pdb
     RDKit          3D

 23 22  0  0  1  0  0  0  0  0999 V2000
   25.7730  -16.6086  -16.7003 C   0  0  0  0  0  0  0  0  0  0  0  0
   26.7440  -17.5177  -15.9590 C   0  0  2  0  0  0  0  0  0  0  0  0
   27.5276  -18.1983  -16.9721 N   0  0  0  0  0  0  0  0  0  0  0  0
   26.0179  -18.4836  -15.0932 C   0  0  0  0  0  0  0  0  0  0  0  0
   25.2739  -18.1101  -14.1515 O   0  0  0  0  0  0  0  0  0  0  0  0
   23.3872  -26.3565  -13.7688 N   0  0  0  0  0  0  0  0  0  0  0  0
   22.7767  -25.7549  -14.8860 C   0  0  0  0  0  0  0  0  0  0  0  0
   21.5143  -25.9684  -15.0633 N   0  0  0  0  0  0  0  0  0  0  0  0
   23.5340  -24.9486  -15.7718 N   0  0  0  0  0  0  0  0  0  0  0  0
   24.8301  -24.5147  -15.3486 C   0  0  0  0  0  0  0  0  0  0  0  0
   24.7761  -23.2762  -14.4781 C   0  0  0  0  0  0  0  0  0  0  0  0
   25.4390  -22.1649  -15.2385 C   0  0  0  0  0  0  0  0  0  0  0  0
   25.4820  -20.8691  -14.4759 C   0  0  2  0  0  0  0  0  0  0  0  0
   26.1303  -19.8895  -15.2895 N   0  0  0  0  0  0  0  0  0  0  0  0
   26.0184  -20.9846  -13.1255 C   0  0  0  0  0  0  0  0  0  0  0  0
   27.2623  -21.0049  -12.9753 O   0  0  0  0  0  0  0  0  0  0  0  0
   20.9736  -25.5950  -15.8517 N   0  0  0  0  0  0  0  0  0  0  0  0
   25.1763  -21.0735  -11.9922 C   0  0  2  0  0  0  0  0  0  0  0  0
   25.6381  -20.8405  -10.6410 C   0  0  0  0  0  0  0  0  0  0  0  0
   26.4095  -19.5446  -10.5137 S   0  0  0  0  0  0  0  0  0  0  0  0
   26.7456  -19.3132   -8.7248 C   0  0  0  0  0  0  0  0  0  0  0  0
   24.5134  -20.8904   -9.6652 O   0  0  0  0  0  0  0  0  0  0  0  0
   23.3502  -20.5209   -9.9630 O   0  0  0  0  0  0  0  0  0  0  0  0
  2  1  1  6
  2  3  1  0
  4 14  1  0
  4  2  1  0
  5  4  2  0
  6  7  1  0
  7  9  1  0
  7  8  2  0
  9 10  1  0
 10 11  1  0
 11 12  1  0
 13 12  1  6
 13 15  1  0
 13 14  1  0
 15 17  1  0
 16 15  2  0
 17 18  1  0
 18 21  1  0
 19 20  1  0
 18 19  1  6
 21 22  2  0
 21 23  1  0
M  END
$$$$
