ARC.pdb
     RDKit          3D

 23 22  0  0  1  0  0  0  0  0999 V2000
   25.6486  -19.4769  -17.2251 C   0  0  0  0  0  0  0  0  0  0  0  0
   25.7258  -20.2422  -15.9108 C   0  0  2  0  0  0  0  0  0  0  0  0
   26.6005  -21.3755  -16.1438 N   0  0  0  0  0  0  0  0  0  0  0  0
   24.3764  -20.6794  -15.4661 C   0  0  0  0  0  0  0  0  0  0  0  0
   23.8064  -21.6890  -15.9514 O   0  0  0  0  0  0  0  0  0  0  0  0
   25.5345  -22.1822  -10.7472 N   0  0  0  0  0  0  0  0  0  0  0  0
   25.4847  -20.8431  -10.3149 C   0  0  0  0  0  0  0  0  0  0  0  0
   26.6090  -20.2459  -10.0914 N   0  0  0  0  0  0  0  0  0  0  0  0
   24.2393  -20.1909  -10.1370 N   0  0  0  0  0  0  0  0  0  0  0  0
   23.0443  -20.9452  -10.3613 C   0  0  0  0  0  0  0  0  0  0  0  0
   22.8701  -21.3462  -11.8116 C   0  0  0  0  0  0  0  0  0  0  0  0
   22.2789  -20.1707  -12.5336 C   0  0  0  0  0  0  0  0  0  0  0  0
   22.3372  -20.3050  -14.0306 C   0  0  2  0  0  0  0  0  0  0  0  0
   23.6581  -19.9708  -14.4612 N   0  0  0  0  0  0  0  0  0  0  0  0
   21.2745  -19.6021  -14.7384 C   0  0  0  0  0  0  0  0  0  0  0  0
   21.2884  -18.3492  -14.7475 O   0  0  0  0  0  0  0  0  0  0  0  0
   26.6902  -19.2696   -9.7857 N   0  0  0  0  0  0  0  0  0  0  0  0
   20.2384  -20.2941  -15.4085 C   0  0  1  0  0  0  0  0  0  0  0  0
   19.1499  -19.6267  -16.0890 C   0  0  0  0  0  0  0  0  0  0  0  0
   18.7429  -20.3418  -17.3593 S   0  0  0  0  0  0  0  0  0  0  0  0
   20.2456  -20.4341  -18.4082 C   0  0  0  0  0  0  0  0  0  0  0  0
   17.9803  -19.4340  -15.1866 O   0  0  0  0  0  0  0  0  0  0  0  0
   16.9481  -18.8165  -15.5491 O   0  0  0  0  0  0  0  0  0  0  0  0
  2  1  1  6
  2  3  1  0
  4 14  1  0
  4  2  1  0
  5  4  2  0
  6  7  1  0
  7  9  1  0
  7  8  2  0
  9 10  1  0
 10 11  1  0
 11 12  1  0
 13 12  1  1
 13 15  1  0
 13 14  1  0
 15 17  1  0
 16 15  2  0
 17 18  1  0
 18 21  1  0
 19 20  1  0
 18 19  1  6
 21 22  2  0
 21 23  1  0
M  END
$$$$
