ARC.pdb
     RDKit          3D

 23 22  0  0  1  0  0  0  0  0999 V2000
   22.5418  -17.1487  -17.3390 C   0  0  0  0  0  0  0  0  0  0  0  0
   23.5910  -18.1376  -16.8487 C   0  0  2  0  0  0  0  0  0  0  0  0
   23.5657  -19.2570  -17.7706 N   0  0  0  0  0  0  0  0  0  0  0  0
   23.3064  -18.5733  -15.4563 C   0  0  0  0  0  0  0  0  0  0  0  0
   23.3193  -17.7715  -14.4884 O   0  0  0  0  0  0  0  0  0  0  0  0
   19.6312  -24.2614  -11.4274 N   0  0  0  0  0  0  0  0  0  0  0  0
   18.6513  -23.2694  -11.6233 C   0  0  0  0  0  0  0  0  0  0  0  0
   17.7782  -23.0996  -10.6855 N   0  0  0  0  0  0  0  0  0  0  0  0
   18.6386  -22.4960  -12.8107 N   0  0  0  0  0  0  0  0  0  0  0  0
   19.8190  -22.4811  -13.6192 C   0  0  0  0  0  0  0  0  0  0  0  0
   21.0123  -21.8867  -12.8999 C   0  0  0  0  0  0  0  0  0  0  0  0
   22.1204  -21.7547  -13.9036 C   0  0  0  0  0  0  0  0  0  0  0  0
   22.8391  -20.4360  -13.8219 C   0  0  2  0  0  0  0  0  0  0  0  0
   23.0029  -19.9300  -15.1482 N   0  0  0  0  0  0  0  0  0  0  0  0
   24.0631  -20.4671  -13.0311 C   0  0  0  0  0  0  0  0  0  0  0  0
   25.1492  -20.6834  -13.6175 O   0  0  0  0  0  0  0  0  0  0  0  0
   17.0158  -22.4138  -10.7276 N   0  0  0  0  0  0  0  0  0  0  0  0
   24.0538  -20.2610  -11.6315 C   0  0  2  0  0  0  0  0  0  0  0  0
   25.2313  -20.3977  -10.8021 C   0  0  0  0  0  0  0  0  0  0  0  0
   24.9045  -20.3288   -9.3259 S   0  0  0  0  0  0  0  0  0  0  0  0
   26.5101  -20.3103   -8.4382 C   0  0  0  0  0  0  0  0  0  0  0  0
   25.9831  -21.6428  -11.1249 O   0  0  0  0  0  0  0  0  0  0  0  0
   25.4151  -22.7568  -11.2462 O   0  0  0  0  0  0  0  0  0  0  0  0
  2  1  1  6
  2  3  1  0
  4 14  1  0
  4  2  1  0
  5  4  2  0
  6  7  1  0
  7  9  1  0
  7  8  2  0
  9 10  1  0
 10 11  1  0
 11 12  1  0
 13 12  1  6
 13 15  1  0
 13 14  1  0
 15 17  1  0
 16 15  2  0
 17 18  1  0
 18 21  1  0
 19 20  1  0
 18 19  1  1
 21 22  2  0
 21 23  1  0
M  END
$$$$
