ARC.pdb
     RDKit          3D

 23 22  0  0  1  0  0  0  0  0999 V2000
    9.8654  -11.5120  -10.8252 C   0  0  0  0  0  0  0  0  0  0  0  0
   10.7471  -12.5722  -11.4714 C   0  0  2  0  0  0  0  0  0  0  0  0
   10.6195  -13.7666  -10.6586 N   0  0  0  0  0  0  0  0  0  0  0  0
   12.1601  -12.1171  -11.5511 C   0  0  0  0  0  0  0  0  0  0  0  0
   12.9354  -12.1655  -10.5630 O   0  0  0  0  0  0  0  0  0  0  0  0
   17.6841  -12.2216  -17.0774 N   0  0  0  0  0  0  0  0  0  0  0  0
   18.5688  -12.1361  -15.9852 C   0  0  0  0  0  0  0  0  0  0  0  0
   19.8342  -12.0890  -16.2445 N   0  0  0  0  0  0  0  0  0  0  0  0
   18.0721  -12.1040  -14.6584 N   0  0  0  0  0  0  0  0  0  0  0  0
   16.6677  -12.2920  -14.4588 C   0  0  0  0  0  0  0  0  0  0  0  0
   15.8740  -11.0169  -14.6559 C   0  0  0  0  0  0  0  0  0  0  0  0
   14.4349  -11.3370  -14.3743 C   0  0  0  0  0  0  0  0  0  0  0  0
   14.0736  -11.2095  -12.9198 C   0  0  2  0  0  0  0  0  0  0  0  0
   12.7086  -11.6004  -12.7593 N   0  0  0  0  0  0  0  0  0  0  0  0
   14.4065   -9.9191  -12.3293 C   0  0  0  0  0  0  0  0  0  0  0  0
   13.6881   -8.9307  -12.6068 O   0  0  0  0  0  0  0  0  0  0  0  0
   20.5647  -12.0071  -15.5284 N   0  0  0  0  0  0  0  0  0  0  0  0
   15.5104   -9.7582  -11.4592 C   0  0  2  0  0  0  0  0  0  0  0  0
   15.9327   -8.4742  -10.9433 C   0  0  0  0  0  0  0  0  0  0  0  0
   16.0690   -8.4782   -9.4359 S   0  0  0  0  0  0  0  0  0  0  0  0
   16.7434   -6.8364   -8.9705 C   0  0  0  0  0  0  0  0  0  0  0  0
   17.1926   -8.0146  -11.5920 O   0  0  0  0  0  0  0  0  0  0  0  0
   18.0923   -8.8144  -11.9516 O   0  0  0  0  0  0  0  0  0  0  0  0
  2  1  1  1
  2  3  1  0
  4 14  1  0
  4  2  1  0
  5  4  2  0
  6  7  1  0
  7  9  1  0
  7  8  2  0
  9 10  1  0
 10 11  1  0
 11 12  1  0
 13 12  1  6
 13 15  1  0
 13 14  1  0
 15 17  1  0
 16 15  2  0
 17 18  1  0
 18 21  1  0
 19 20  1  0
 18 19  1  1
 21 22  2  0
 21 23  1  0
M  END
$$$$
