ARC.pdb
     RDKit          3D

 23 22  0  0  1  0  0  0  0  0999 V2000
   19.2665  -18.3650  -16.7895 C   0  0  0  0  0  0  0  0  0  0  0  0
   20.4917  -19.0198  -17.4132 C   0  0  2  0  0  0  0  0  0  0  0  0
   20.1282  -20.3963  -17.6899 N   0  0  0  0  0  0  0  0  0  0  0  0
   21.6635  -18.9395  -16.5021 C   0  0  0  0  0  0  0  0  0  0  0  0
   22.1542  -17.8411  -16.1382 O   0  0  0  0  0  0  0  0  0  0  0  0
   23.6562  -20.7846   -9.0709 N   0  0  0  0  0  0  0  0  0  0  0  0
   24.9776  -20.8870   -9.5464 C   0  0  0  0  0  0  0  0  0  0  0  0
   25.9330  -20.7632   -8.6848 N   0  0  0  0  0  0  0  0  0  0  0  0
   25.2311  -21.1174  -10.9214 N   0  0  0  0  0  0  0  0  0  0  0  0
   24.1288  -21.0519  -11.8313 C   0  0  0  0  0  0  0  0  0  0  0  0
   24.5377  -21.3213  -13.2647 C   0  0  0  0  0  0  0  0  0  0  0  0
   23.3135  -21.1594  -14.1179 C   0  0  0  0  0  0  0  0  0  0  0  0
   23.4667  -20.1046  -15.1791 C   0  0  2  0  0  0  0  0  0  0  0  0
   22.2923  -20.1114  -15.9931 N   0  0  0  0  0  0  0  0  0  0  0  0
   24.7182  -20.1781  -15.9226 C   0  0  0  0  0  0  0  0  0  0  0  0
   24.8869  -21.1318  -16.7178 O   0  0  0  0  0  0  0  0  0  0  0  0
   26.9304  -20.8155   -8.9213 N   0  0  0  0  0  0  0  0  0  0  0  0
   25.7365  -19.2081  -15.7692 C   0  0  2  0  0  0  0  0  0  0  0  0
   27.0043  -19.2727  -16.4633 C   0  0  0  0  0  0  0  0  0  0  0  0
   27.8573  -18.0473  -16.2153 S   0  0  0  0  0  0  0  0  0  0  0  0
   27.9570  -17.8430  -14.3946 C   0  0  0  0  0  0  0  0  0  0  0  0
   27.7478  -20.5183  -16.1239 O   0  0  0  0  0  0  0  0  0  0  0  0
   27.4492  -21.2282  -15.1313 O   0  0  0  0  0  0  0  0  0  0  0  0
  2  1  1  1
  2  3  1  0
  4 14  1  0
  4  2  1  0
  5  4  2  0
  6  7  1  0
  7  9  1  0
  7  8  2  0
  9 10  1  0
 10 11  1  0
 11 12  1  0
 13 12  1  1
 13 15  1  0
 13 14  1  0
 15 17  1  0
 16 15  2  0
 17 18  1  0
 18 21  1  0
 19 20  1  0
 18 19  1  1
 21 22  2  0
 21 23  1  0
M  END
$$$$
