ARC.pdb
     RDKit          3D

 23 22  0  0  1  0  0  0  0  0999 V2000
   22.1391   -8.7704  -21.7450 C   0  0  0  0  0  0  0  0  0  0  0  0
   22.9273   -8.9268  -20.4515 C   0  0  2  0  0  0  0  0  0  0  0  0
   23.1185  -10.3510  -20.2543 N   0  0  0  0  0  0  0  0  0  0  0  0
   22.2052   -8.3116  -19.3070 C   0  0  0  0  0  0  0  0  0  0  0  0
   21.5655   -7.2356  -19.4200 O   0  0  0  0  0  0  0  0  0  0  0  0
   16.9199  -11.0275  -15.0235 N   0  0  0  0  0  0  0  0  0  0  0  0
   17.2521  -12.1470  -15.8103 C   0  0  0  0  0  0  0  0  0  0  0  0
   16.2814  -12.8876  -16.2344 N   0  0  0  0  0  0  0  0  0  0  0  0
   18.6056  -12.4352  -16.1154 N   0  0  0  0  0  0  0  0  0  0  0  0
   19.6113  -11.5362  -15.6383 C   0  0  0  0  0  0  0  0  0  0  0  0
   19.9101  -10.4206  -16.6185 C   0  0  0  0  0  0  0  0  0  0  0  0
   21.0552   -9.6276  -16.0594 C   0  0  0  0  0  0  0  0  0  0  0  0
   21.4288   -8.4458  -16.9115 C   0  0  2  0  0  0  0  0  0  0  0  0
   22.2027   -8.9152  -18.0173 N   0  0  0  0  0  0  0  0  0  0  0  0
   22.0329   -7.3420  -16.1758 C   0  0  0  0  0  0  0  0  0  0  0  0
   23.2467   -7.4173  -15.8738 O   0  0  0  0  0  0  0  0  0  0  0  0
   16.4103  -13.7446  -16.7841 N   0  0  0  0  0  0  0  0  0  0  0  0
   21.2888   -6.1994  -15.7988 C   0  0  2  0  0  0  0  0  0  0  0  0
   21.8583   -5.0875  -15.0690 C   0  0  0  0  0  0  0  0  0  0  0  0
   21.2916   -3.7572  -15.5162 S   0  0  0  0  0  0  0  0  0  0  0  0
   22.0307   -2.4831  -14.4221 C   0  0  0  0  0  0  0  0  0  0  0  0
   21.7046   -5.2660  -13.5980 O   0  0  0  0  0  0  0  0  0  0  0  0
   20.7153   -5.8534  -13.0934 O   0  0  0  0  0  0  0  0  0  0  0  0
  2  1  1  6
  2  3  1  0
  4 14  1  0
  4  2  1  0
  5  4  2  0
  6  7  1  0
  7  9  1  0
  7  8  2  0
  9 10  1  0
 10 11  1  0
 11 12  1  0
 13 12  1  1
 13 15  1  0
 13 14  1  0
 15 17  1  0
 16 15  2  0
 17 18  1  0
 18 21  1  0
 19 20  1  0
 18 19  1  6
 21 22  2  0
 21 23  1  0
M  END
$$$$
