ARC.pdb
     RDKit          3D

 23 22  0  0  1  0  0  0  0  0999 V2000
   21.4993  -10.9690  -19.7672 C   0  0  0  0  0  0  0  0  0  0  0  0
   20.5431  -11.7798  -18.9027 C   0  0  2  0  0  0  0  0  0  0  0  0
   19.9354  -12.7673  -19.7739 N   0  0  0  0  0  0  0  0  0  0  0  0
   19.5185  -10.9057  -18.2735 C   0  0  0  0  0  0  0  0  0  0  0  0
   19.0172   -9.9224  -18.8750 O   0  0  0  0  0  0  0  0  0  0  0  0
   13.0285  -12.6565  -14.1253 N   0  0  0  0  0  0  0  0  0  0  0  0
   13.8702  -13.7819  -14.2128 C   0  0  0  0  0  0  0  0  0  0  0  0
   13.6477  -14.7585  -13.3960 N   0  0  0  0  0  0  0  0  0  0  0  0
   14.9170  -13.8243  -15.1671 N   0  0  0  0  0  0  0  0  0  0  0  0
   16.1281  -13.1218  -14.8722 C   0  0  0  0  0  0  0  0  0  0  0  0
   16.1564  -11.7301  -15.4696 C   0  0  0  0  0  0  0  0  0  0  0  0
   17.4955  -11.1324  -15.1498 C   0  0  0  0  0  0  0  0  0  0  0  0
   18.0746  -10.3353  -16.2863 C   0  0  2  0  0  0  0  0  0  0  0  0
   19.0511  -11.1410  -16.9492 N   0  0  0  0  0  0  0  0  0  0  0  0
   18.5410   -9.0062  -15.9113 C   0  0  0  0  0  0  0  0  0  0  0  0
   19.7545   -8.8522  -15.6400 O   0  0  0  0  0  0  0  0  0  0  0  0
   14.2016  -15.6221  -13.3684 N   0  0  0  0  0  0  0  0  0  0  0  0
   17.6646   -7.8975  -15.8472 C   0  0  1  0  0  0  0  0  0  0  0  0
   18.1179   -6.5395  -15.6379 C   0  0  0  0  0  0  0  0  0  0  0  0
   19.0906   -6.0883  -16.7060 S   0  0  0  0  0  0  0  0  0  0  0  0
   19.4516   -4.3215  -16.3676 C   0  0  0  0  0  0  0  0  0  0  0  0
   16.9718   -5.5943  -15.5259 O   0  0  0  0  0  0  0  0  0  0  0  0
   15.9142   -5.7411  -16.1879 O   0  0  0  0  0  0  0  0  0  0  0  0
  2  1  1  6
  2  3  1  0
  4 14  1  0
  4  2  1  0
  5  4  2  0
  6  7  1  0
  7  9  1  0
  7  8  2  0
  9 10  1  0
 10 11  1  0
 11 12  1  0
 13 12  1  1
 13 15  1  0
 13 14  1  0
 15 17  1  0
 16 15  2  0
 17 18  1  0
 18 21  1  0
 19 20  1  0
 18 19  1  1
 21 22  2  0
 21 23  1  0
M  END
$$$$
