ARC.pdb
     RDKit          3D

 23 22  0  0  1  0  0  0  0  0999 V2000
   28.1725  -20.3127  -17.7593 C   0  0  0  0  0  0  0  0  0  0  0  0
   28.2174  -21.3638  -16.6583 C   0  0  2  0  0  0  0  0  0  0  0  0
   28.6733  -22.5927  -17.2793 N   0  0  0  0  0  0  0  0  0  0  0  0
   26.8821  -21.5359  -16.0280 C   0  0  0  0  0  0  0  0  0  0  0  0
   26.0026  -22.2879  -16.5185 O   0  0  0  0  0  0  0  0  0  0  0  0
   24.9431  -20.6161   -7.6692 N   0  0  0  0  0  0  0  0  0  0  0  0
   23.6980  -21.0428   -8.1695 C   0  0  0  0  0  0  0  0  0  0  0  0
   22.7701  -21.3115   -7.3108 N   0  0  0  0  0  0  0  0  0  0  0  0
   23.4886  -21.1671   -9.5655 N   0  0  0  0  0  0  0  0  0  0  0  0
   24.5782  -20.8623  -10.4413 C   0  0  0  0  0  0  0  0  0  0  0  0
   24.2188  -21.0344  -11.9028 C   0  0  0  0  0  0  0  0  0  0  0  0
   25.4685  -20.8048  -12.7016 C   0  0  0  0  0  0  0  0  0  0  0  0
   25.2615  -20.9623  -14.1831 C   0  0  2  0  0  0  0  0  0  0  0  0
   26.5314  -20.8525  -14.8290 N   0  0  0  0  0  0  0  0  0  0  0  0
   24.2239  -20.1029  -14.7392 C   0  0  0  0  0  0  0  0  0  0  0  0
   24.4337  -18.8687  -14.7921 O   0  0  0  0  0  0  0  0  0  0  0  0
   21.8167  -21.5943   -7.5646 N   0  0  0  0  0  0  0  0  0  0  0  0
   22.9981  -20.6242  -15.2157 C   0  0  2  0  0  0  0  0  0  0  0  0
   21.9119  -19.7921  -15.6859 C   0  0  0  0  0  0  0  0  0  0  0  0
   21.3962  -20.2322  -17.0391 S   0  0  0  0  0  0  0  0  0  0  0  0
   22.8020  -20.0740  -18.2077 C   0  0  0  0  0  0  0  0  0  0  0  0
   20.8065  -19.7253  -14.6892 O   0  0  0  0  0  0  0  0  0  0  0  0
   20.7928  -20.4373  -13.6543 O   0  0  0  0  0  0  0  0  0  0  0  0
  2  1  1  6
  2  3  1  0
  4 14  1  0
  4  2  1  0
  5  4  2  0
  6  7  1  0
  7  9  1  0
  7  8  2  0
  9 10  1  0
 10 11  1  0
 11 12  1  0
 13 12  1  1
 13 15  1  0
 13 14  1  0
 15 17  1  0
 16 15  2  0
 17 18  1  0
 18 21  1  0
 19 20  1  0
 18 19  1  6
 21 22  2  0
 21 23  1  0
M  END
$$$$
