ARC.pdb
     RDKit          3D

 23 22  0  0  1  0  0  0  0  0999 V2000
   21.8079  -17.3648  -18.9150 C   0  0  0  0  0  0  0  0  0  0  0  0
   22.0584  -18.7921  -18.4470 C   0  0  2  0  0  0  0  0  0  0  0  0
   20.8322  -19.5275  -18.6904 N   0  0  0  0  0  0  0  0  0  0  0  0
   22.4361  -18.8254  -17.0096 C   0  0  0  0  0  0  0  0  0  0  0  0
   23.5060  -18.3189  -16.5870 O   0  0  0  0  0  0  0  0  0  0  0  0
   19.7028  -21.1427  -10.1458 N   0  0  0  0  0  0  0  0  0  0  0  0
   20.3919  -20.0978   -9.5008 C   0  0  0  0  0  0  0  0  0  0  0  0
   20.5392  -20.1817   -8.2195 N   0  0  0  0  0  0  0  0  0  0  0  0
   20.8978  -19.0032  -10.2452 N   0  0  0  0  0  0  0  0  0  0  0  0
   20.5346  -18.9001  -11.6254 C   0  0  0  0  0  0  0  0  0  0  0  0
   20.9278  -20.1245  -12.4259 C   0  0  0  0  0  0  0  0  0  0  0  0
   20.6785  -19.8128  -13.8728 C   0  0  0  0  0  0  0  0  0  0  0  0
   21.9423  -19.5782  -14.6541 C   0  0  2  0  0  0  0  0  0  0  0  0
   21.5985  -19.4370  -16.0339 N   0  0  0  0  0  0  0  0  0  0  0  0
   22.9997  -20.5460  -14.3903 C   0  0  0  0  0  0  0  0  0  0  0  0
   22.8688  -21.7110  -14.8329 O   0  0  0  0  0  0  0  0  0  0  0  0
   21.0142  -19.4736   -7.6482 N   0  0  0  0  0  0  0  0  0  0  0  0
   24.1585  -20.2045  -13.6540 C   0  0  2  0  0  0  0  0  0  0  0  0
   25.1788  -21.1640  -13.2911 C   0  0  0  0  0  0  0  0  0  0  0  0
   26.4662  -20.9501  -14.0576 S   0  0  0  0  0  0  0  0  0  0  0  0
   27.6681  -22.1742  -13.4069 C   0  0  0  0  0  0  0  0  0  0  0  0
   25.4261  -21.1660  -11.8219 O   0  0  0  0  0  0  0  0  0  0  0  0
   25.3354  -20.1246  -11.1251 O   0  0  0  0  0  0  0  0  0  0  0  0
  2  1  1  1
  2  3  1  0
  4 14  1  0
  4  2  1  0
  5  4  2  0
  6  7  1  0
  7  9  1  0
  7  8  2  0
  9 10  1  0
 10 11  1  0
 11 12  1  0
 13 12  1  1
 13 15  1  0
 13 14  1  0
 15 17  1  0
 16 15  2  0
 17 18  1  0
 18 21  1  0
 19 20  1  0
 18 19  1  1
 21 22  2  0
 21 23  1  0
M  END
$$$$
