RDI.pdb
     RDKit          3D

 28 27  0  0  1  0  0  0  0  0999 V2000
   27.5820  -23.0526  -18.9762 N   0  0  0  0  0  0  0  0  0  0  0  0
   27.7504  -22.8726  -17.5771 C   0  0  0  0  0  0  0  0  0  0  0  0
   27.5337  -23.8721  -16.8287 N   0  0  0  0  0  0  0  0  0  0  0  0
   28.1482  -21.6589  -17.0065 N   0  0  0  0  0  0  0  0  0  0  0  0
   27.3527  -20.5198  -16.7034 C   0  0  0  0  0  0  0  0  0  0  0  0
   26.1640  -20.2899  -17.5554 C   0  0  0  0  0  0  0  0  0  0  0  0
   24.8104  -20.3642  -16.9764 C   0  0  0  0  0  0  0  0  0  0  0  0
   24.7258  -20.2018  -15.4809 C   0  0  2  0  0  0  0  0  0  0  0  0
   25.6038  -21.0566  -14.7782 N   0  0  0  0  0  0  0  0  0  0  0  0
   23.2842  -20.3246  -15.0803 C   0  0  0  0  0  0  0  0  0  0  0  0
   22.9055  -21.4285  -14.5755 O   0  0  0  0  0  0  0  0  0  0  0  0
   27.6425  -23.8582  -15.8085 N   0  0  0  0  0  0  0  0  0  0  0  0
   22.3148  -19.3238  -15.2163 C   0  0  1  0  0  0  0  0  0  0  0  0
   20.9751  -19.4299  -14.6645 C   0  0  0  0  0  0  0  0  0  0  0  0
   20.3901  -18.1340  -14.2275 C   0  0  0  0  0  0  0  0  0  0  0  0
   19.0906  -18.2647  -13.5339 O   0  0  0  0  0  0  0  0  0  0  0  0
   18.6138  -19.4068  -13.3361 C   0  0  0  0  0  0  0  0  0  0  0  0
   20.1221  -20.1009  -15.7141 O   0  0  0  0  0  0  0  0  0  0  0  0
   20.1857  -19.7338  -16.9124 O   0  0  0  0  0  0  0  0  0  0  0  0
   18.3803  -17.1352  -13.0922 C   0  0  0  0  0  0  0  0  0  0  0  0
   19.7423  -24.1130  -18.4508 C   0  0  0  0  0  0  0  0  0  0  0  0
   19.8249  -23.5099  -17.0644 C   0  0  1  0  0  0  0  0  0  0  0  0
   18.4466  -23.2138  -16.5035 C   0  0  0  0  0  0  0  0  0  0  0  0
   17.3558  -23.8060  -17.3398 C   0  0  2  0  0  0  0  0  0  0  0  0
   18.2680  -21.7645  -16.2130 N   0  0  0  0  0  0  0  0  0  0  0  0
   19.2367  -21.1525  -15.3747 C   0  0  0  0  0  0  0  0  0  0  0  0
   16.8450  -21.4489  -15.9048 O   0  0  0  0  0  0  0  0  0  0  0  0
   16.4182  -21.3794  -14.6050 O   0  0  0  0  0  0  0  0  0  0  0  0
  2  3  2  0
  2  1  1  0
  4  2  1  0
  5  4  1  0
  6  5  1  0
  7  6  1  0
  8  7  1  0
  8  9  1  1
 10 11  2  0
 10  8  1  0
 12 10  1  0
 13 12  1  0
 13 14  1  6
 15 16  2  0
 15 14  1  0
 17 13  1  0
 18 17  2  0
 19 15  1  0
 20 21  1  0
 21 22  1  0
 22 24  1  0
 22 23  1  1
 24 26  1  0
 24 25  1  6
 25 17  1  0
 26 27  1  0
 28 26  2  0
M  END
$$$$
