RDI.pdb
     RDKit          3D

 28 27  0  0  1  0  0  0  0  0999 V2000
   18.2259  -18.9582  -18.0823 N   0  0  0  0  0  0  0  0  0  0  0  0
   17.7161  -17.8149  -17.4106 C   0  0  0  0  0  0  0  0  0  0  0  0
   16.5617  -17.4093  -17.7405 N   0  0  0  0  0  0  0  0  0  0  0  0
   18.4236  -17.1389  -16.4109 N   0  0  0  0  0  0  0  0  0  0  0  0
   19.7424  -17.3839  -15.9390 C   0  0  0  0  0  0  0  0  0  0  0  0
   19.9493  -18.6168  -15.1459 C   0  0  0  0  0  0  0  0  0  0  0  0
   20.6998  -18.5663  -13.8782 C   0  0  0  0  0  0  0  0  0  0  0  0
   22.1146  -19.0816  -13.9314 C   0  0  2  0  0  0  0  0  0  0  0  0
   22.4422  -19.6802  -15.1683 N   0  0  0  0  0  0  0  0  0  0  0  0
   22.3343  -19.9626  -12.7359 C   0  0  0  0  0  0  0  0  0  0  0  0
   21.8666  -21.1442  -12.7815 O   0  0  0  0  0  0  0  0  0  0  0  0
   16.1087  -16.5812  -17.3383 N   0  0  0  0  0  0  0  0  0  0  0  0
   23.0122  -19.5937  -11.5680 C   0  0  1  0  0  0  0  0  0  0  0  0
   23.2637  -20.5088  -10.4680 C   0  0  0  0  0  0  0  0  0  0  0  0
   24.4406  -20.1502   -9.6320 C   0  0  0  0  0  0  0  0  0  0  0  0
   25.5896  -21.0683   -9.7864 O   0  0  0  0  0  0  0  0  0  0  0  0
   25.4448  -22.1259  -10.4431 C   0  0  0  0  0  0  0  0  0  0  0  0
   21.9961  -20.5678   -9.6501 O   0  0  0  0  0  0  0  0  0  0  0  0
   21.4009  -19.5116   -9.3261 O   0  0  0  0  0  0  0  0  0  0  0  0
   26.8395  -20.7789   -9.2123 C   0  0  0  0  0  0  0  0  0  0  0  0
   16.7146  -23.3009   -8.9329 C   0  0  0  0  0  0  0  0  0  0  0  0
   17.8904  -22.6437   -8.2412 C   0  0  2  0  0  0  0  0  0  0  0  0
   19.1388  -22.6892   -9.1023 C   0  0  0  0  0  0  0  0  0  0  0  0
   19.4425  -24.0724   -9.5866 C   0  0  2  0  0  0  0  0  0  0  0  0
   20.2895  -22.0120   -8.4434 N   0  0  0  0  0  0  0  0  0  0  0  0
   21.4520  -21.8065   -9.2321 C   0  0  0  0  0  0  0  0  0  0  0  0
   20.5170  -22.5492   -7.0726 O   0  0  0  0  0  0  0  0  0  0  0  0
   19.5591  -22.4014   -6.1045 O   0  0  0  0  0  0  0  0  0  0  0  0
  2  3  2  0
  2  1  1  0
  4  2  1  0
  5  4  1  0
  6  5  1  0
  7  6  1  0
  8  7  1  0
  8  9  1  6
 10 11  2  0
 10  8  1  0
 12 10  1  0
 13 12  1  0
 13 14  1  1
 15 16  2  0
 15 14  1  0
 17 13  1  0
 18 17  2  0
 19 15  1  0
 20 21  1  0
 21 22  1  0
 22 24  1  0
 22 23  1  6
 24 26  1  0
 24 25  1  1
 25 17  1  0
 26 27  1  0
 28 26  2  0
M  END
$$$$
