RDI.pdb
     RDKit          3D

 28 27  0  0  1  0  0  0  0  0999 V2000
   25.6753  -21.1032  -21.1852 N   0  0  0  0  0  0  0  0  0  0  0  0
   25.9138  -19.7045  -21.1157 C   0  0  0  0  0  0  0  0  0  0  0  0
   25.4245  -18.9815  -22.0344 N   0  0  0  0  0  0  0  0  0  0  0  0
   26.6468  -19.1059  -20.0855 N   0  0  0  0  0  0  0  0  0  0  0  0
   27.3294  -19.7302  -19.0056 C   0  0  0  0  0  0  0  0  0  0  0  0
   26.5317  -20.0275  -17.7943 C   0  0  0  0  0  0  0  0  0  0  0  0
   26.5059  -19.0741  -16.6703 C   0  0  0  0  0  0  0  0  0  0  0  0
   27.1339  -19.5539  -15.3875 C   0  0  2  0  0  0  0  0  0  0  0  0
   27.7122  -20.8380  -15.4978 N   0  0  0  0  0  0  0  0  0  0  0  0
   26.1149  -19.4221  -14.2929 C   0  0  0  0  0  0  0  0  0  0  0  0
   25.5840  -18.2801  -14.1173 O   0  0  0  0  0  0  0  0  0  0  0  0
   25.5741  -17.9691  -22.1077 N   0  0  0  0  0  0  0  0  0  0  0  0
   25.6970  -20.4531  -13.4431 C   0  0  1  0  0  0  0  0  0  0  0  0
   24.6995  -20.2746  -12.4020 C   0  0  0  0  0  0  0  0  0  0  0  0
   23.3784  -20.8842  -12.7109 C   0  0  0  0  0  0  0  0  0  0  0  0
   22.3483  -20.6415  -11.6779 O   0  0  0  0  0  0  0  0  0  0  0  0
   21.5779  -21.5741  -11.3500 C   0  0  0  0  0  0  0  0  0  0  0  0
   25.2893  -20.8366  -11.1309 O   0  0  0  0  0  0  0  0  0  0  0  0
   25.9285  -21.9163  -11.1518 O   0  0  0  0  0  0  0  0  0  0  0  0
   22.2162  -19.3875  -11.0570 C   0  0  0  0  0  0  0  0  0  0  0  0
   28.1628  -18.2264   -7.4517 C   0  0  0  0  0  0  0  0  0  0  0  0
   27.4752  -19.2537   -8.3261 C   0  0  2  0  0  0  0  0  0  0  0  0
   26.1946  -19.7592   -7.6885 C   0  0  0  0  0  0  0  0  0  0  0  0
   26.4276  -20.3273   -6.3235 C   0  0  2  0  0  0  0  0  0  0  0  0
   25.4429  -20.6644   -8.6008 N   0  0  0  0  0  0  0  0  0  0  0  0
   25.1368  -20.1644   -9.8939 C   0  0  0  0  0  0  0  0  0  0  0  0
   24.3294  -21.3470   -7.8842 O   0  0  0  0  0  0  0  0  0  0  0  0
   24.5887  -22.3998   -7.0470 O   0  0  0  0  0  0  0  0  0  0  0  0
  2  3  2  0
  2  1  1  0
  4  2  1  0
  5  4  1  0
  6  5  1  0
  7  6  1  0
  8  7  1  0
  8  9  1  6
 10 11  2  0
 10  8  1  0
 12 10  1  0
 13 12  1  0
 13 14  1  1
 15 16  2  0
 15 14  1  0
 17 13  1  0
 18 17  2  0
 19 15  1  0
 20 21  1  0
 21 22  1  0
 22 24  1  0
 22 23  1  6
 24 26  1  0
 24 25  1  6
 25 17  1  0
 26 27  1  0
 28 26  2  0
M  END
$$$$
