RDI.pdb
     RDKit          3D

 28 27  0  0  1  0  0  0  0  0999 V2000
   19.3988  -22.7172   -8.5765 N   0  0  0  0  0  0  0  0  0  0  0  0
   20.3131  -22.8390   -7.4960 C   0  0  0  0  0  0  0  0  0  0  0  0
   19.9745  -23.5785   -6.5241 N   0  0  0  0  0  0  0  0  0  0  0  0
   21.5536  -22.1929   -7.4697 N   0  0  0  0  0  0  0  0  0  0  0  0
   22.0072  -21.1132   -8.2763 C   0  0  0  0  0  0  0  0  0  0  0  0
   22.0970  -21.3603   -9.7333 C   0  0  0  0  0  0  0  0  0  0  0  0
   23.3531  -21.0899  -10.4558 C   0  0  0  0  0  0  0  0  0  0  0  0
   23.4842  -19.7127  -11.0527 C   0  0  2  0  0  0  0  0  0  0  0  0
   22.5487  -18.7903  -10.5335 N   0  0  0  0  0  0  0  0  0  0  0  0
   23.4598  -19.8493  -12.5475 C   0  0  0  0  0  0  0  0  0  0  0  0
   24.3986  -20.5105  -13.0937 O   0  0  0  0  0  0  0  0  0  0  0  0
   20.5360  -23.7003   -5.6740 N   0  0  0  0  0  0  0  0  0  0  0  0
   22.4880  -19.3076  -13.3974 C   0  0  1  0  0  0  0  0  0  0  0  0
   22.6121  -19.2929  -14.8448 C   0  0  0  0  0  0  0  0  0  0  0  0
   21.3130  -19.2993  -15.5692 C   0  0  0  0  0  0  0  0  0  0  0  0
   20.5507  -20.5583  -15.4251 O   0  0  0  0  0  0  0  0  0  0  0  0
   21.1606  -21.6141  -15.1355 C   0  0  0  0  0  0  0  0  0  0  0  0
   23.4425  -18.0831  -15.2000 O   0  0  0  0  0  0  0  0  0  0  0  0
   23.5653  -17.1370  -14.3848 O   0  0  0  0  0  0  0  0  0  0  0  0
   19.1573  -20.5945  -15.6060 C   0  0  0  0  0  0  0  0  0  0  0  0
   28.7051  -16.1916  -17.0585 C   0  0  0  0  0  0  0  0  0  0  0  0
   27.2151  -15.9442  -17.1654 C   0  0  2  0  0  0  0  0  0  0  0  0
   26.4176  -17.1767  -16.7821 C   0  0  0  0  0  0  0  0  0  0  0  0
   26.8965  -18.4043  -17.4918 C   0  0  2  0  0  0  0  0  0  0  0  0
   24.9515  -16.9439  -16.8969 N   0  0  0  0  0  0  0  0  0  0  0  0
   24.0980  -17.9875  -16.4515 C   0  0  0  0  0  0  0  0  0  0  0  0
   24.6049  -16.3329  -18.2107 O   0  0  0  0  0  0  0  0  0  0  0  0
   23.7702  -16.9864  -19.0783 O   0  0  0  0  0  0  0  0  0  0  0  0
  2  3  2  0
  2  1  1  0
  4  2  1  0
  5  4  1  0
  6  5  1  0
  7  6  1  0
  8  7  1  0
  8  9  1  1
 10 11  2  0
 10  8  1  0
 12 10  1  0
 13 12  1  0
 13 14  1  6
 15 16  2  0
 15 14  1  0
 17 13  1  0
 18 17  2  0
 19 15  1  0
 20 21  1  0
 21 22  1  0
 22 24  1  0
 22 23  1  1
 24 26  1  0
 24 25  1  6
 25 17  1  0
 26 27  1  0
 28 26  2  0
M  END
$$$$
