RDI.pdb
     RDKit          3D

 28 27  0  0  1  0  0  0  0  0999 V2000
   18.4069  -29.0569  -15.2989 N   0  0  0  0  0  0  0  0  0  0  0  0
   18.7179  -28.0800  -14.3155 C   0  0  0  0  0  0  0  0  0  0  0  0
   18.8131  -28.4700  -13.1135 N   0  0  0  0  0  0  0  0  0  0  0  0
   18.9282  -26.7310  -14.6201 N   0  0  0  0  0  0  0  0  0  0  0  0
   19.6938  -26.1710  -15.6796 C   0  0  0  0  0  0  0  0  0  0  0  0
   20.9543  -26.8636  -16.0306 C   0  0  0  0  0  0  0  0  0  0  0  0
   22.2252  -26.1176  -16.0685 C   0  0  0  0  0  0  0  0  0  0  0  0
   22.4102  -25.0801  -14.9916 C   0  0  2  0  0  0  0  0  0  0  0  0
   21.1901  -24.5658  -14.4995 N   0  0  0  0  0  0  0  0  0  0  0  0
   23.3618  -24.0395  -15.5067 C   0  0  0  0  0  0  0  0  0  0  0  0
   24.5070  -24.4307  -15.8970 O   0  0  0  0  0  0  0  0  0  0  0  0
   19.0070  -27.8461  -12.3223 N   0  0  0  0  0  0  0  0  0  0  0  0
   23.0966  -22.6677  -15.5939 C   0  0  1  0  0  0  0  0  0  0  0  0
   23.9979  -21.7189  -16.2249 C   0  0  0  0  0  0  0  0  0  0  0  0
   23.3806  -20.9271  -17.3223 C   0  0  0  0  0  0  0  0  0  0  0  0
   24.2898  -19.9317  -17.9301 O   0  0  0  0  0  0  0  0  0  0  0  0
   25.5011  -20.2177  -18.0772 C   0  0  0  0  0  0  0  0  0  0  0  0
   24.5334  -20.8294  -15.1287 O   0  0  0  0  0  0  0  0  0  0  0  0
   23.7761  -20.0163  -14.5455 O   0  0  0  0  0  0  0  0  0  0  0  0
   23.8233  -18.6726  -18.3457 C   0  0  0  0  0  0  0  0  0  0  0  0
   26.1003  -21.3118  -10.3195 C   0  0  0  0  0  0  0  0  0  0  0  0
   25.7211  -20.7751  -11.6838 C   0  0  2  0  0  0  0  0  0  0  0  0
   26.9479  -20.4862  -12.5285 C   0  0  0  0  0  0  0  0  0  0  0  0
   27.9395  -19.6248  -11.8109 C   0  0  2  0  0  0  0  0  0  0  0  0
   26.5814  -19.9882  -13.8829 N   0  0  0  0  0  0  0  0  0  0  0  0
   25.8922  -20.8907  -14.7351 C   0  0  0  0  0  0  0  0  0  0  0  0
   27.7082  -19.2362  -14.5028 O   0  0  0  0  0  0  0  0  0  0  0  0
   27.9855  -17.9548  -14.1056 O   0  0  0  0  0  0  0  0  0  0  0  0
  2  3  2  0
  2  1  1  0
  4  2  1  0
  5  4  1  0
  6  5  1  0
  7  6  1  0
  8  7  1  0
  8  9  1  6
 10 11  2  0
 10  8  1  0
 12 10  1  0
 13 12  1  0
 13 14  1  1
 15 16  2  0
 15 14  1  0
 17 13  1  0
 18 17  2  0
 19 15  1  0
 20 21  1  0
 21 22  1  0
 22 24  1  0
 22 23  1  6
 24 26  1  0
 24 25  1  6
 25 17  1  0
 26 27  1  0
 28 26  2  0
M  END
$$$$
