RDI.pdb
     RDKit          3D

 28 27  0  0  1  0  0  0  0  0999 V2000
   15.5651  -18.9395  -15.7021 N   0  0  0  0  0  0  0  0  0  0  0  0
   16.0621  -19.3480  -16.9687 C   0  0  0  0  0  0  0  0  0  0  0  0
   15.6305  -18.7362  -17.9912 N   0  0  0  0  0  0  0  0  0  0  0  0
   16.9994  -20.3745  -17.1255 N   0  0  0  0  0  0  0  0  0  0  0  0
   17.6846  -21.1096  -16.1194 C   0  0  0  0  0  0  0  0  0  0  0  0
   18.4865  -20.3280  -15.1510 C   0  0  0  0  0  0  0  0  0  0  0  0
   19.9150  -20.6331  -14.9532 C   0  0  0  0  0  0  0  0  0  0  0  0
   20.5832  -21.3994  -16.0652 C   0  0  2  0  0  0  0  0  0  0  0  0
   19.8851  -22.5721  -16.4299 N   0  0  0  0  0  0  0  0  0  0  0  0
   22.0169  -21.6227  -15.6803 C   0  0  0  0  0  0  0  0  0  0  0  0
   22.2586  -22.5031  -14.7953 O   0  0  0  0  0  0  0  0  0  0  0  0
   15.8824  -18.9823  -18.9549 N   0  0  0  0  0  0  0  0  0  0  0  0
   23.1172  -20.9409  -16.2136 C   0  0  1  0  0  0  0  0  0  0  0  0
   24.4947  -21.2772  -15.8971 C   0  0  0  0  0  0  0  0  0  0  0  0
   25.4531  -21.0365  -17.0088 C   0  0  0  0  0  0  0  0  0  0  0  0
   26.8636  -21.3053  -16.6550 O   0  0  0  0  0  0  0  0  0  0  0  0
   27.6911  -20.3643  -16.6784 C   0  0  0  0  0  0  0  0  0  0  0  0
   24.8640  -20.4905  -14.6625 O   0  0  0  0  0  0  0  0  0  0  0  0
   24.5444  -19.2811  -14.5623 O   0  0  0  0  0  0  0  0  0  0  0  0
   27.2944  -22.5934  -16.2932 C   0  0  0  0  0  0  0  0  0  0  0  0
   26.0975  -20.3082   -8.7184 C   0  0  0  0  0  0  0  0  0  0  0  0
   26.4676  -19.8864  -10.1248 C   0  0  2  0  0  0  0  0  0  0  0  0
   25.9514  -20.8730  -11.1555 C   0  0  0  0  0  0  0  0  0  0  0  0
   26.3659  -22.2786  -10.8511 C   0  0  2  0  0  0  0  0  0  0  0  0
   26.2650  -20.4363  -12.5439 N   0  0  0  0  0  0  0  0  0  0  0  0
   25.5741  -21.0933  -13.5960 C   0  0  0  0  0  0  0  0  0  0  0  0
   27.7322  -20.2625  -12.7348 O   0  0  0  0  0  0  0  0  0  0  0  0
   28.4112  -19.3005  -12.0346 O   0  0  0  0  0  0  0  0  0  0  0  0
  2  3  2  0
  2  1  1  0
  4  2  1  0
  5  4  1  0
  6  5  1  0
  7  6  1  0
  8  7  1  0
  8  9  1  1
 10 11  2  0
 10  8  1  0
 12 10  1  0
 13 12  1  0
 13 14  1  6
 15 16  2  0
 15 14  1  0
 17 13  1  0
 18 17  2  0
 19 15  1  0
 20 21  1  0
 21 22  1  0
 22 24  1  0
 22 23  1  6
 24 26  1  0
 24 25  1  6
 25 17  1  0
 26 27  1  0
 28 26  2  0
M  END
$$$$
