RDI.pdb
     RDKit          3D

 28 27  0  0  1  0  0  0  0  0999 V2000
   30.7508  -23.2124  -18.0238 N   0  0  0  0  0  0  0  0  0  0  0  0
   30.4043  -22.1937  -18.9513 C   0  0  0  0  0  0  0  0  0  0  0  0
   30.5484  -22.4513  -20.1838 N   0  0  0  0  0  0  0  0  0  0  0  0
   29.9104  -20.9439  -18.5627 N   0  0  0  0  0  0  0  0  0  0  0  0
   29.5697  -20.4929  -17.2578 C   0  0  0  0  0  0  0  0  0  0  0  0
   28.1416  -20.1938  -17.0067 C   0  0  0  0  0  0  0  0  0  0  0  0
   27.7122  -19.6706  -15.6972 C   0  0  0  0  0  0  0  0  0  0  0  0
   27.8680  -20.6115  -14.5307 C   0  0  2  0  0  0  0  0  0  0  0  0
   27.6968  -21.9684  -14.8841 N   0  0  0  0  0  0  0  0  0  0  0  0
   26.9677  -20.1373  -13.4270 C   0  0  0  0  0  0  0  0  0  0  0  0
   26.9910  -18.8989  -13.1393 O   0  0  0  0  0  0  0  0  0  0  0  0
   30.4406  -21.7564  -20.9309 N   0  0  0  0  0  0  0  0  0  0  0  0
   26.1006  -20.9452  -12.6817 C   0  0  1  0  0  0  0  0  0  0  0  0
   25.2211  -20.4297  -11.6467 C   0  0  0  0  0  0  0  0  0  0  0  0
   23.7783  -20.7093  -11.8761 C   0  0  0  0  0  0  0  0  0  0  0  0
   22.8918  -20.2138  -10.8012 O   0  0  0  0  0  0  0  0  0  0  0  0
   23.3230  -19.3519  -10.0000 C   0  0  0  0  0  0  0  0  0  0  0  0
   25.7000  -21.0096  -10.3376 O   0  0  0  0  0  0  0  0  0  0  0  0
   25.8820  -22.2457  -10.2206 O   0  0  0  0  0  0  0  0  0  0  0  0
   21.5766  -20.6893  -10.6603 C   0  0  0  0  0  0  0  0  0  0  0  0
   29.1580  -20.3319   -5.7587 C   0  0  0  0  0  0  0  0  0  0  0  0
   27.6461  -20.3616   -5.8370 C   0  0  2  0  0  0  0  0  0  0  0  0
   27.1410  -19.6871   -7.0987 C   0  0  0  0  0  0  0  0  0  0  0  0
   26.5367  -18.3463   -6.8209 C   0  0  2  0  0  0  0  0  0  0  0  0
   26.2679  -20.5912   -7.8969 N   0  0  0  0  0  0  0  0  0  0  0  0
   25.9537  -20.1794   -9.2188 C   0  0  0  0  0  0  0  0  0  0  0  0
   25.1276  -21.0958   -7.0818 O   0  0  0  0  0  0  0  0  0  0  0  0
   25.3093  -22.1344   -6.2072 O   0  0  0  0  0  0  0  0  0  0  0  0
  2  3  2  0
  2  1  1  0
  4  2  1  0
  5  4  1  0
  6  5  1  0
  7  6  1  0
  8  7  1  0
  8  9  1  6
 10 11  2  0
 10  8  1  0
 12 10  1  0
 13 12  1  0
 13 14  1  1
 15 16  2  0
 15 14  1  0
 17 13  1  0
 18 17  2  0
 19 15  1  0
 20 21  1  0
 21 22  1  0
 22 24  1  0
 22 23  1  6
 24 26  1  0
 24 25  1  1
 25 17  1  0
 26 27  1  0
 28 26  2  0
M  END
$$$$
