RDI.pdb
     RDKit          3D

 28 27  0  0  1  0  0  0  0  0999 V2000
   30.5556  -18.7610  -19.4368 N   0  0  0  0  0  0  0  0  0  0  0  0
   29.1681  -19.0310  -19.2951 C   0  0  0  0  0  0  0  0  0  0  0  0
   28.6077  -19.7070  -20.2089 N   0  0  0  0  0  0  0  0  0  0  0  0
   28.4138  -18.5949  -18.2007 N   0  0  0  0  0  0  0  0  0  0  0  0
   28.8713  -18.0329  -16.9772 C   0  0  0  0  0  0  0  0  0  0  0  0
   28.6087  -18.8115  -15.7456 C   0  0  0  0  0  0  0  0  0  0  0  0
   28.3715  -20.2643  -15.8226 C   0  0  0  0  0  0  0  0  0  0  0  0
   26.9301  -20.6897  -15.9303 C   0  0  2  0  0  0  0  0  0  0  0  0
   26.3163  -20.2748  -17.1330 N   0  0  0  0  0  0  0  0  0  0  0  0
   26.2199  -20.2468  -14.6841 C   0  0  0  0  0  0  0  0  0  0  0  0
   26.0474  -18.9981  -14.5169 O   0  0  0  0  0  0  0  0  0  0  0  0
   27.6030  -19.9139  -20.2344 N   0  0  0  0  0  0  0  0  0  0  0  0
   25.7292  -21.0942  -13.6835 C   0  0  1  0  0  0  0  0  0  0  0  0
   24.7932  -20.6624  -12.6599 C   0  0  0  0  0  0  0  0  0  0  0  0
   23.3771  -21.0253  -12.9348 C   0  0  0  0  0  0  0  0  0  0  0  0
   22.4320  -20.5995  -11.8801 O   0  0  0  0  0  0  0  0  0  0  0  0
   22.6764  -19.5621  -11.2208 C   0  0  0  0  0  0  0  0  0  0  0  0
   25.2746  -21.2460  -11.3533 O   0  0  0  0  0  0  0  0  0  0  0  0
   25.4261  -22.4856  -11.2303 O   0  0  0  0  0  0  0  0  0  0  0  0
   21.2661  -21.3340  -11.6027 C   0  0  0  0  0  0  0  0  0  0  0  0
   28.3624  -19.8208   -6.1933 C   0  0  0  0  0  0  0  0  0  0  0  0
   27.3401  -20.6703   -6.9187 C   0  0  2  0  0  0  0  0  0  0  0  0
   26.7832  -19.9535   -8.1345 C   0  0  0  0  0  0  0  0  0  0  0  0
   26.2040  -18.6176   -7.7882 C   0  0  2  0  0  0  0  0  0  0  0  0
   25.8665  -20.8262   -8.9186 N   0  0  0  0  0  0  0  0  0  0  0  0
   25.5647  -20.4154  -10.2437 C   0  0  0  0  0  0  0  0  0  0  0  0
   24.7086  -21.2698   -8.0928 O   0  0  0  0  0  0  0  0  0  0  0  0
   24.8434  -22.3160   -7.2188 O   0  0  0  0  0  0  0  0  0  0  0  0
  2  3  2  0
  2  1  1  0
  4  2  1  0
  5  4  1  0
  6  5  1  0
  7  6  1  0
  8  7  1  0
  8  9  1  6
 10 11  2  0
 10  8  1  0
 12 10  1  0
 13 12  1  0
 13 14  1  1
 15 16  2  0
 15 14  1  0
 17 13  1  0
 18 17  2  0
 19 15  1  0
 20 21  1  0
 21 22  1  0
 22 24  1  0
 22 23  1  6
 24 26  1  0
 24 25  1  1
 25 17  1  0
 26 27  1  0
 28 26  2  0
M  END
$$$$
