RDI.pdb
     RDKit          3D

 28 27  0  0  1  0  0  0  0  0999 V2000
   17.0942  -19.3097  -17.0283 N   0  0  0  0  0  0  0  0  0  0  0  0
   15.9890  -18.7643  -17.7348 C   0  0  0  0  0  0  0  0  0  0  0  0
   14.9943  -19.5224  -17.9398 N   0  0  0  0  0  0  0  0  0  0  0  0
   15.9545  -17.4439  -18.1956 N   0  0  0  0  0  0  0  0  0  0  0  0
   16.9018  -16.4055  -17.9799 C   0  0  0  0  0  0  0  0  0  0  0  0
   16.5462  -15.3752  -16.9779 C   0  0  0  0  0  0  0  0  0  0  0  0
   17.4791  -14.2722  -16.6846 C   0  0  0  0  0  0  0  0  0  0  0  0
   17.0026  -13.2596  -15.6758 C   0  0  2  0  0  0  0  0  0  0  0  0
   15.5974  -13.2350  -15.5337 N   0  0  0  0  0  0  0  0  0  0  0  0
   17.6166  -11.9340  -16.0214 C   0  0  0  0  0  0  0  0  0  0  0  0
   18.8416  -11.9236  -16.3624 O   0  0  0  0  0  0  0  0  0  0  0  0
   14.1167  -19.2120  -18.3712 N   0  0  0  0  0  0  0  0  0  0  0  0
   16.9540  -10.7010  -15.9997 C   0  0  1  0  0  0  0  0  0  0  0  0
   17.5808   -9.4508  -16.3932 C   0  0  0  0  0  0  0  0  0  0  0  0
   16.6392   -8.3050  -16.5077 C   0  0  0  0  0  0  0  0  0  0  0  0
   15.5573   -8.5125  -17.4943 O   0  0  0  0  0  0  0  0  0  0  0  0
   15.8536   -8.8126  -18.6745 C   0  0  0  0  0  0  0  0  0  0  0  0
   18.6745   -9.1755  -15.3895 O   0  0  0  0  0  0  0  0  0  0  0  0
   18.4460   -9.2751  -14.1596 O   0  0  0  0  0  0  0  0  0  0  0  0
   14.2048   -8.3803  -17.1354 C   0  0  0  0  0  0  0  0  0  0  0  0
   23.2726  -10.5530  -13.1215 C   0  0  0  0  0  0  0  0  0  0  0  0
   23.2701   -9.3385  -14.0259 C   0  0  2  0  0  0  0  0  0  0  0  0
   22.2654   -9.4864  -15.1532 C   0  0  0  0  0  0  0  0  0  0  0  0
   22.9118   -9.4125  -16.5011 C   0  0  2  0  0  0  0  0  0  0  0  0
   21.1074   -8.5656  -14.9856 N   0  0  0  0  0  0  0  0  0  0  0  0
   19.9744   -8.8012  -15.8081 C   0  0  0  0  0  0  0  0  0  0  0  0
   21.5569   -7.1489  -14.8835 O   0  0  0  0  0  0  0  0  0  0  0  0
   21.1710   -6.2317  -15.8250 O   0  0  0  0  0  0  0  0  0  0  0  0
  2  3  2  0
  2  1  1  0
  4  2  1  0
  5  4  1  0
  6  5  1  0
  7  6  1  0
  8  7  1  0
  8  9  1  6
 10 11  2  0
 10  8  1  0
 12 10  1  0
 13 12  1  0
 13 14  1  6
 15 16  2  0
 15 14  1  0
 17 13  1  0
 18 17  2  0
 19 15  1  0
 20 21  1  0
 21 22  1  0
 22 24  1  0
 22 23  1  1
 24 26  1  0
 24 25  1  6
 25 17  1  0
 26 27  1  0
 28 26  2  0
M  END
$$$$
