RDI.pdb
     RDKit          3D

 28 27  0  0  1  0  0  0  0  0999 V2000
   22.8828  -28.2399  -15.3644 N   0  0  0  0  0  0  0  0  0  0  0  0
   21.5378  -28.6325  -15.5991 C   0  0  0  0  0  0  0  0  0  0  0  0
   21.3459  -29.7316  -16.2001 N   0  0  0  0  0  0  0  0  0  0  0  0
   20.4383  -27.8701  -15.1909 N   0  0  0  0  0  0  0  0  0  0  0  0
   20.4297  -26.6087  -14.5345 C   0  0  0  0  0  0  0  0  0  0  0  0
   20.4384  -26.6266  -13.0541 C   0  0  0  0  0  0  0  0  0  0  0  0
   20.3319  -25.3668  -12.2962 C   0  0  0  0  0  0  0  0  0  0  0  0
   19.1487  -24.4963  -12.6318 C   0  0  2  0  0  0  0  0  0  0  0  0
   19.4824  -23.3976  -13.4545 N   0  0  0  0  0  0  0  0  0  0  0  0
   18.4636  -24.1272  -11.3480 C   0  0  0  0  0  0  0  0  0  0  0  0
   18.8645  -23.0812  -10.7463 O   0  0  0  0  0  0  0  0  0  0  0  0
   20.4182  -30.1274  -16.3882 N   0  0  0  0  0  0  0  0  0  0  0  0
   17.4163  -24.8396  -10.7517 C   0  0  2  0  0  0  0  0  0  0  0  0
   16.7389  -24.4012   -9.5436 C   0  0  0  0  0  0  0  0  0  0  0  0
   15.4550  -23.6905   -9.7869 C   0  0  0  0  0  0  0  0  0  0  0  0
   14.7122  -23.3525   -8.5536 O   0  0  0  0  0  0  0  0  0  0  0  0
   15.3430  -22.9412   -7.5518 C   0  0  0  0  0  0  0  0  0  0  0  0
   16.5436  -25.6263   -8.6831 O   0  0  0  0  0  0  0  0  0  0  0  0
   16.1892  -26.7137   -9.1994 O   0  0  0  0  0  0  0  0  0  0  0  0
   13.3146  -23.4829   -8.4825 C   0  0  0  0  0  0  0  0  0  0  0  0
   18.4345  -27.7459   -3.1347 C   0  0  0  0  0  0  0  0  0  0  0  0
   17.5729  -27.8609   -4.3746 C   0  0  2  0  0  0  0  0  0  0  0  0
   17.5001  -26.5444   -5.1254 C   0  0  0  0  0  0  0  0  0  0  0  0
   17.0975  -25.4082   -4.2383 C   0  0  2  0  0  0  0  0  0  0  0  0
   16.6868  -26.6607   -6.3671 N   0  0  0  0  0  0  0  0  0  0  0  0
   16.7542  -25.5785   -7.2836 C   0  0  0  0  0  0  0  0  0  0  0  0
   15.3227  -27.1808   -6.0702 O   0  0  0  0  0  0  0  0  0  0  0  0
   15.1338  -28.5101   -5.7984 O   0  0  0  0  0  0  0  0  0  0  0  0
  2  3  2  0
  2  1  1  0
  4  2  1  0
  5  4  1  0
  6  5  1  0
  7  6  1  0
  8  7  1  0
  8  9  1  1
 10 11  2  0
 10  8  1  0
 12 10  1  0
 13 12  1  0
 13 14  1  6
 15 16  2  0
 15 14  1  0
 17 13  1  0
 18 17  2  0
 19 15  1  0
 20 21  1  0
 21 22  1  0
 22 24  1  0
 22 23  1  6
 24 26  1  0
 24 25  1  1
 25 17  1  0
 26 27  1  0
 28 26  2  0
M  END
$$$$
