FES.pdb
     RDKit          3D

 27 27  0  0  1  0  0  0  0  0999 V2000
   25.2576  -11.3982  -18.4183 N   0  0  0  0  0  0  0  0  0  0  0  0
   24.9727  -10.5082  -17.3468 C   0  0  1  0  0  0  0  0  0  0  0  0
   26.1417   -9.8519  -16.7197 C   0  0  0  0  0  0  0  0  0  0  0  0
   27.2655  -10.7328  -16.3601 C   0  0  0  0  0  0  0  0  0  0  0  0
   27.0459  -11.6897  -15.3907 C   0  0  0  0  0  0  0  0  0  0  0  0
   28.0421  -12.5568  -14.9784 C   0  0  0  0  0  0  0  0  0  0  0  0
   29.2778  -12.4135  -15.5929 C   0  0  0  0  0  0  0  0  0  0  0  0
   29.4958  -11.4570  -16.5611 C   0  0  0  0  0  0  0  0  0  0  0  0
   28.4877  -10.5940  -16.9648 C   0  0  0  0  0  0  0  0  0  0  0  0
   23.9629   -9.4567  -17.7337 C   0  0  0  0  0  0  0  0  0  0  0  0
   23.8010   -9.1815  -18.9361 O   0  0  0  0  0  0  0  0  0  0  0  0
   23.2020   -8.7827  -16.7463 N   0  0  0  0  0  0  0  0  0  0  0  0
   22.1296   -7.8832  -16.9437 C   0  0  1  0  0  0  0  0  0  0  0  0
   21.0357   -7.9760  -15.9357 C   0  0  0  0  0  0  0  0  0  0  0  0
   19.8172   -7.1853  -16.1723 C   0  0  0  0  0  0  0  0  0  0  0  0
   18.7942   -7.3275  -15.1360 C   0  0  0  0  0  0  0  0  0  0  0  0
   18.8780   -6.8355  -13.9890 O   0  0  0  0  0  0  0  0  0  0  0  0
   22.5293   -6.4546  -17.1742 C   0  0  0  0  0  0  0  0  0  0  0  0
   23.1982   -5.7419  -16.4278 O   0  0  0  0  0  0  0  0  0  0  0  0
   17.6112   -8.0598  -15.3931 O   0  0  0  0  0  0  0  0  0  0  0  0
   23.3570   -5.0419  -20.9837 O   0  0  0  0  0  0  0  0  0  0  0  0
   22.4258   -4.3059  -20.2655 C   0  0  0  0  0  0  0  0  0  0  0  0
   22.5825   -4.4990  -18.7620 C   0  0  2  0  0  0  0  0  0  0  0  0
   22.1037   -5.8159  -18.3951 N   0  0  0  0  0  0  0  0  0  0  0  0
   21.6929   -3.5016  -18.1194 C   0  0  0  0  0  0  0  0  0  0  0  0
   20.6081   -3.8919  -17.3519 O   0  0  0  0  0  0  0  0  0  0  0  0
   21.8937   -2.2695  -18.2498 O   0  0  0  0  0  0  0  0  0  0  0  0
  2  1  1  6
  3  2  1  0
  4  9  2  0
  4  3  1  0
  5  4  1  0
  6  7  1  0
  6  5  2  0
  7  8  2  0
  8  9  1  0
 10 12  1  0
 10  2  1  0
 11 10  2  0
 13 12  1  0
 13 14  1  1
 14 15  1  0
 15 16  1  0
 16 17  2  0
 18 19  2  0
 18 13  1  0
 20 16  1  0
 22 21  1  0
 23 22  1  6
 23 24  1  0
 24 18  1  0
 25 23  1  0
 26 25  1  0
 27 25  2  0
M  END
$$$$
