FES.pdb
     RDKit          3D

 27 27  0  0  1  0  0  0  0  0999 V2000
   26.0049  -18.3923   -8.3851 N   0  0  0  0  0  0  0  0  0  0  0  0
   26.4698  -19.6827   -8.7596 C   0  0  1  0  0  0  0  0  0  0  0  0
   26.6004  -20.6690   -7.6637 C   0  0  0  0  0  0  0  0  0  0  0  0
   27.4290  -20.2599   -6.5173 C   0  0  0  0  0  0  0  0  0  0  0  0
   28.7995  -20.3394   -6.6553 C   0  0  0  0  0  0  0  0  0  0  0  0
   29.6605  -19.9871   -5.6312 C   0  0  0  0  0  0  0  0  0  0  0  0
   29.0718  -19.5480   -4.4541 C   0  0  0  0  0  0  0  0  0  0  0  0
   27.7025  -19.4690   -4.3175 C   0  0  0  0  0  0  0  0  0  0  0  0
   26.8510  -19.8258   -5.3528 C   0  0  0  0  0  0  0  0  0  0  0  0
   25.6463  -20.2837   -9.8712 C   0  0  0  0  0  0  0  0  0  0  0  0
   24.4050  -20.2477   -9.7970 O   0  0  0  0  0  0  0  0  0  0  0  0
   26.2695  -20.8862  -10.9923 N   0  0  0  0  0  0  0  0  0  0  0  0
   25.8171  -20.8998  -12.3313 C   0  0  1  0  0  0  0  0  0  0  0  0
   26.8758  -21.1436  -13.3517 C   0  0  0  0  0  0  0  0  0  0  0  0
   26.4592  -21.2498  -14.7592 C   0  0  0  0  0  0  0  0  0  0  0  0
   27.5567  -21.4853  -15.6977 C   0  0  0  0  0  0  0  0  0  0  0  0
   28.6893  -21.9023  -15.3693 O   0  0  0  0  0  0  0  0  0  0  0  0
   24.6130  -21.7583  -12.5894 C   0  0  0  0  0  0  0  0  0  0  0  0
   24.5524  -22.9857  -12.5384 O   0  0  0  0  0  0  0  0  0  0  0  0
   27.3813  -21.2419  -17.0804 O   0  0  0  0  0  0  0  0  0  0  0  0
   21.0606  -19.7163  -13.0612 O   0  0  0  0  0  0  0  0  0  0  0  0
   20.9630  -21.0429  -12.6671 C   0  0  0  0  0  0  0  0  0  0  0  0
   22.1559  -21.8670  -13.1365 C   0  0  2  0  0  0  0  0  0  0  0  0
   23.3727  -21.1079  -12.9337 N   0  0  0  0  0  0  0  0  0  0  0  0
   21.9819  -22.0565  -14.5970 C   0  0  0  0  0  0  0  0  0  0  0  0
   22.8415  -21.4654  -15.5080 O   0  0  0  0  0  0  0  0  0  0  0  0
   21.0491  -22.7595  -15.0564 O   0  0  0  0  0  0  0  0  0  0  0  0
  2  1  1  1
  3  2  1  0
  4  9  2  0
  4  3  1  0
  5  4  1  0
  6  7  1  0
  6  5  2  0
  7  8  2  0
  8  9  1  0
 10 12  1  0
 10  2  1  0
 11 10  2  0
 13 12  1  0
 13 14  1  6
 14 15  1  0
 15 16  1  0
 16 17  2  0
 18 19  2  0
 18 13  1  0
 20 16  1  0
 22 21  1  0
 23 22  1  6
 23 24  1  0
 24 18  1  0
 25 23  1  0
 26 25  1  0
 27 25  2  0
M  END
$$$$
