FES.pdb
     RDKit          3D

 27 27  0  0  1  0  0  0  0  0999 V2000
   24.8519  -12.3588  -18.7726 N   0  0  0  0  0  0  0  0  0  0  0  0
   24.5023  -11.9379  -17.4604 C   0  0  1  0  0  0  0  0  0  0  0  0
   25.6145  -11.8556  -16.4873 C   0  0  0  0  0  0  0  0  0  0  0  0
   26.3403  -13.1093  -16.2230 C   0  0  0  0  0  0  0  0  0  0  0  0
   25.9498  -13.8591  -15.1326 C   0  0  0  0  0  0  0  0  0  0  0  0
   26.5769  -15.0459  -14.7974 C   0  0  0  0  0  0  0  0  0  0  0  0
   27.6225  -15.4442  -15.6179 C   0  0  0  0  0  0  0  0  0  0  0  0
   28.0116  -14.6941  -16.7067 C   0  0  0  0  0  0  0  0  0  0  0  0
   27.3738  -13.5058  -17.0311 C   0  0  0  0  0  0  0  0  0  0  0  0
   23.7493  -10.6310  -17.4637 C   0  0  0  0  0  0  0  0  0  0  0  0
   24.0557   -9.7541  -18.2912 O   0  0  0  0  0  0  0  0  0  0  0  0
   22.7031  -10.3936  -16.5378 N   0  0  0  0  0  0  0  0  0  0  0  0
   21.8878   -9.2442  -16.4282 C   0  0  1  0  0  0  0  0  0  0  0  0
   20.4354   -9.5178  -16.2357 C   0  0  0  0  0  0  0  0  0  0  0  0
   19.5123   -8.3720  -16.2676 C   0  0  0  0  0  0  0  0  0  0  0  0
   18.1032   -8.7267  -16.0960 C   0  0  0  0  0  0  0  0  0  0  0  0
   17.1590   -7.9072  -16.1358 O   0  0  0  0  0  0  0  0  0  0  0  0
   22.3735   -8.2076  -15.4570 C   0  0  0  0  0  0  0  0  0  0  0  0
   22.8216   -8.4010  -14.3281 O   0  0  0  0  0  0  0  0  0  0  0  0
   17.7258  -10.0709  -15.8669 O   0  0  0  0  0  0  0  0  0  0  0  0
   23.9411   -4.7079  -16.8779 O   0  0  0  0  0  0  0  0  0  0  0  0
   23.0548   -4.5092  -15.8293 C   0  0  0  0  0  0  0  0  0  0  0  0
   22.8519   -5.7753  -15.0058 C   0  0  2  0  0  0  0  0  0  0  0  0
   22.3286   -6.8231  -15.8580 N   0  0  0  0  0  0  0  0  0  0  0  0
   21.8127   -5.4540  -13.9978 C   0  0  0  0  0  0  0  0  0  0  0  0
   22.0520   -4.5454  -12.9802 O   0  0  0  0  0  0  0  0  0  0  0  0
   20.6808   -5.9953  -14.0333 O   0  0  0  0  0  0  0  0  0  0  0  0
  2  1  1  6
  3  2  1  0
  4  9  2  0
  4  3  1  0
  5  4  1  0
  6  7  1  0
  6  5  2  0
  7  8  2  0
  8  9  1  0
 10 12  1  0
 10  2  1  0
 11 10  2  0
 13 12  1  0
 13 14  1  1
 14 15  1  0
 15 16  1  0
 16 17  2  0
 18 19  2  0
 18 13  1  0
 20 16  1  0
 22 21  1  0
 23 22  1  6
 23 24  1  0
 24 18  1  0
 25 23  1  0
 26 25  1  0
 27 25  2  0
M  END
$$$$
