FES.pdb
     RDKit          3D

 27 27  0  0  1  0  0  0  0  0999 V2000
   24.3262   -9.5773  -18.4429 N   0  0  0  0  0  0  0  0  0  0  0  0
   24.0645   -8.7114  -17.3460 C   0  0  1  0  0  0  0  0  0  0  0  0
   25.2519   -8.1375  -16.6743 C   0  0  0  0  0  0  0  0  0  0  0  0
   26.3315   -9.0829  -16.3441 C   0  0  0  0  0  0  0  0  0  0  0  0
   26.1191   -9.9604  -15.3007 C   0  0  0  0  0  0  0  0  0  0  0  0
   27.0771  -10.8787  -14.9095 C   0  0  0  0  0  0  0  0  0  0  0  0
   28.2666  -10.8713  -15.6235 C   0  0  0  0  0  0  0  0  0  0  0  0
   28.4776   -9.9940  -16.6655 C   0  0  0  0  0  0  0  0  0  0  0  0
   27.5081   -9.0783  -17.0471 C   0  0  0  0  0  0  0  0  0  0  0  0
   23.1168   -7.5972  -17.7142 C   0  0  0  0  0  0  0  0  0  0  0  0
   23.2451   -7.0270  -18.8124 O   0  0  0  0  0  0  0  0  0  0  0  0
   22.0885   -7.1954  -16.8257 N   0  0  0  0  0  0  0  0  0  0  0  0
   21.0764   -6.2346  -17.0502 C   0  0  1  0  0  0  0  0  0  0  0  0
   19.8129   -6.4617  -16.2930 C   0  0  0  0  0  0  0  0  0  0  0  0
   19.1119   -7.7394  -16.4975 C   0  0  0  0  0  0  0  0  0  0  0  0
   18.8800   -8.5040  -15.2718 C   0  0  0  0  0  0  0  0  0  0  0  0
   18.6537   -7.9926  -14.1529 O   0  0  0  0  0  0  0  0  0  0  0  0
   21.5192   -4.8042  -16.9418 C   0  0  0  0  0  0  0  0  0  0  0  0
   22.1495   -4.2907  -16.0190 O   0  0  0  0  0  0  0  0  0  0  0  0
   18.9018   -9.9185  -15.2950 O   0  0  0  0  0  0  0  0  0  0  0  0
   20.8441   -2.3968  -20.2845 O   0  0  0  0  0  0  0  0  0  0  0  0
   21.8705   -2.0446  -19.4201 C   0  0  0  0  0  0  0  0  0  0  0  0
   21.6048   -2.5173  -17.9959 C   0  0  2  0  0  0  0  0  0  0  0  0
   21.1908   -3.9051  -18.0205 N   0  0  0  0  0  0  0  0  0  0  0  0
   20.4611   -1.7153  -17.4979 C   0  0  0  0  0  0  0  0  0  0  0  0
   20.5782   -0.3531  -17.2763 O   0  0  0  0  0  0  0  0  0  0  0  0
   19.3481   -2.2447  -17.2604 O   0  0  0  0  0  0  0  0  0  0  0  0
  2  1  1  6
  3  2  1  0
  4  9  2  0
  4  3  1  0
  5  4  1  0
  6  7  1  0
  6  5  2  0
  7  8  2  0
  8  9  1  0
 10 12  1  0
 10  2  1  0
 11 10  2  0
 13 12  1  0
 13 14  1  1
 14 15  1  0
 15 16  1  0
 16 17  2  0
 18 19  2  0
 18 13  1  0
 20 16  1  0
 22 21  1  0
 23 22  1  6
 23 24  1  0
 24 18  1  0
 25 23  1  0
 26 25  1  0
 27 25  2  0
M  END
$$$$
