FES.pdb
     RDKit          3D

 27 27  0  0  1  0  0  0  0  0999 V2000
   26.6064  -10.2299  -18.9716 N   0  0  0  0  0  0  0  0  0  0  0  0
   26.0220  -10.1030  -17.6817 C   0  0  1  0  0  0  0  0  0  0  0  0
   26.9677  -10.0051  -16.5474 C   0  0  0  0  0  0  0  0  0  0  0  0
   27.9150  -11.1219  -16.3934 C   0  0  0  0  0  0  0  0  0  0  0  0
   27.4657  -12.2614  -15.7585 C   0  0  0  0  0  0  0  0  0  0  0  0
   28.2839  -13.3590  -15.5578 C   0  0  0  0  0  0  0  0  0  0  0  0
   29.5842  -13.2536  -16.0301 C   0  0  0  0  0  0  0  0  0  0  0  0
   30.0317  -12.1146  -16.6642 C   0  0  0  0  0  0  0  0  0  0  0  0
   29.2004  -11.0213  -16.8585 C   0  0  0  0  0  0  0  0  0  0  0  0
   25.0430   -8.9578  -17.6107 C   0  0  0  0  0  0  0  0  0  0  0  0
   25.3687   -7.8492  -18.0716 O   0  0  0  0  0  0  0  0  0  0  0  0
   23.7637   -9.1314  -17.0263 N   0  0  0  0  0  0  0  0  0  0  0  0
   22.7185   -8.1845  -16.9328 C   0  0  1  0  0  0  0  0  0  0  0  0
   21.3483   -8.7369  -17.1295 C   0  0  0  0  0  0  0  0  0  0  0  0
   21.0449   -9.3726  -18.4217 C   0  0  0  0  0  0  0  0  0  0  0  0
   19.6868   -9.9064  -18.5281 C   0  0  0  0  0  0  0  0  0  0  0  0
   18.6477   -9.2160  -18.4363 O   0  0  0  0  0  0  0  0  0  0  0  0
   22.7713   -7.2929  -15.7261 C   0  0  0  0  0  0  0  0  0  0  0  0
   23.0067   -7.6276  -14.5663 O   0  0  0  0  0  0  0  0  0  0  0  0
   19.4754  -11.2878  -18.7489 O   0  0  0  0  0  0  0  0  0  0  0  0
   21.8169   -3.2207  -16.2661 O   0  0  0  0  0  0  0  0  0  0  0  0
   22.8378   -3.5362  -15.3813 C   0  0  0  0  0  0  0  0  0  0  0  0
   22.6896   -4.9443  -14.8175 C   0  0  2  0  0  0  0  0  0  0  0  0
   22.5283   -5.8832  -15.9086 N   0  0  0  0  0  0  0  0  0  0  0  0
   21.4323   -4.9476  -14.0314 C   0  0  0  0  0  0  0  0  0  0  0  0
   21.3132   -4.2196  -12.8591 O   0  0  0  0  0  0  0  0  0  0  0  0
   20.4333   -5.6107  -14.4024 O   0  0  0  0  0  0  0  0  0  0  0  0
  2  1  1  6
  3  2  1  0
  4  9  2  0
  4  3  1  0
  5  4  1  0
  6  7  1  0
  6  5  2  0
  7  8  2  0
  8  9  1  0
 10 12  1  0
 10  2  1  0
 11 10  2  0
 13 12  1  0
 13 14  1  1
 14 15  1  0
 15 16  1  0
 16 17  2  0
 18 19  2  0
 18 13  1  0
 20 16  1  0
 22 21  1  0
 23 22  1  6
 23 24  1  0
 24 18  1  0
 25 23  1  0
 26 25  1  0
 27 25  2  0
M  END
$$$$
