FES.pdb
     RDKit          3D

 27 27  0  0  1  0  0  0  0  0999 V2000
   25.4513  -21.3367   -7.2105 N   0  0  0  0  0  0  0  0  0  0  0  0
   26.1993  -20.5966   -8.1667 C   0  0  1  0  0  0  0  0  0  0  0  0
   27.6671  -20.5874   -7.9767 C   0  0  0  0  0  0  0  0  0  0  0  0
   28.1508  -20.0866   -6.6792 C   0  0  0  0  0  0  0  0  0  0  0  0
   27.9978  -18.7415   -6.4131 C   0  0  0  0  0  0  0  0  0  0  0  0
   28.4294  -18.1758   -5.2266 C   0  0  0  0  0  0  0  0  0  0  0  0
   29.0261  -19.0348   -4.3149 C   0  0  0  0  0  0  0  0  0  0  0  0
   29.1783  -20.3784   -4.5820 C   0  0  0  0  0  0  0  0  0  0  0  0
   28.7409  -20.9322   -5.7762 C   0  0  0  0  0  0  0  0  0  0  0  0
   25.8856  -21.0144   -9.5816 C   0  0  0  0  0  0  0  0  0  0  0  0
   26.2248  -22.1460   -9.9715 O   0  0  0  0  0  0  0  0  0  0  0  0
   25.2130  -20.1349  -10.4661 N   0  0  0  0  0  0  0  0  0  0  0  0
   24.9810  -20.3082  -11.8496 C   0  0  1  0  0  0  0  0  0  0  0  0
   23.7022  -19.7301  -12.3514 C   0  0  0  0  0  0  0  0  0  0  0  0
   22.6689  -20.6635  -12.8280 C   0  0  0  0  0  0  0  0  0  0  0  0
   21.3374  -20.4267  -12.2697 C   0  0  0  0  0  0  0  0  0  0  0  0
   20.9815  -20.7727  -11.1214 O   0  0  0  0  0  0  0  0  0  0  0  0
   26.1285  -19.9311  -12.7411 C   0  0  0  0  0  0  0  0  0  0  0  0
   26.8958  -18.9802  -12.6004 O   0  0  0  0  0  0  0  0  0  0  0  0
   20.3468  -19.7672  -13.0348 O   0  0  0  0  0  0  0  0  0  0  0  0
   27.7560  -22.8396  -15.0737 O   0  0  0  0  0  0  0  0  0  0  0  0
   28.4342  -21.6501  -14.8505 C   0  0  0  0  0  0  0  0  0  0  0  0
   27.4891  -20.4558  -14.7959 C   0  0  2  0  0  0  0  0  0  0  0  0
   26.3930  -20.7524  -13.8967 N   0  0  0  0  0  0  0  0  0  0  0  0
   26.9253  -20.3086  -16.1595 C   0  0  0  0  0  0  0  0  0  0  0  0
   27.7398  -20.0735  -17.2548 O   0  0  0  0  0  0  0  0  0  0  0  0
   25.6901  -20.3921  -16.3666 O   0  0  0  0  0  0  0  0  0  0  0  0
  2  1  1  1
  3  2  1  0
  4  9  2  0
  4  3  1  0
  5  4  1  0
  6  7  1  0
  6  5  2  0
  7  8  2  0
  8  9  1  0
 10 12  1  0
 10  2  1  0
 11 10  2  0
 13 12  1  0
 13 14  1  6
 14 15  1  0
 15 16  1  0
 16 17  2  0
 18 19  2  0
 18 13  1  0
 20 16  1  0
 22 21  1  0
 23 22  1  6
 23 24  1  0
 24 18  1  0
 25 23  1  0
 26 25  1  0
 27 25  2  0
M  END
$$$$
