FES.pdb
     RDKit          3D

 27 27  0  0  1  0  0  0  0  0999 V2000
   25.8706  -10.5088  -18.6551 N   0  0  0  0  0  0  0  0  0  0  0  0
   25.3501  -10.2643  -17.3548 C   0  0  1  0  0  0  0  0  0  0  0  0
   26.3503  -10.0626  -16.2826 C   0  0  0  0  0  0  0  0  0  0  0  0
   27.3282  -11.1473  -16.0943 C   0  0  0  0  0  0  0  0  0  0  0  0
   28.5810  -10.9852  -16.6491 C   0  0  0  0  0  0  0  0  0  0  0  0
   29.5635  -11.9526  -16.5346 C   0  0  0  0  0  0  0  0  0  0  0  0
   29.2221  -13.0981  -15.8301 C   0  0  0  0  0  0  0  0  0  0  0  0
   27.9702  -13.2587  -15.2764 C   0  0  0  0  0  0  0  0  0  0  0  0
   26.9945  -12.2804  -15.3991 C   0  0  0  0  0  0  0  0  0  0  0  0
   24.3704   -9.1175  -17.3404 C   0  0  0  0  0  0  0  0  0  0  0  0
   24.5343   -8.1671  -18.1262 O   0  0  0  0  0  0  0  0  0  0  0  0
   23.2722   -9.1121  -16.4448 N   0  0  0  0  0  0  0  0  0  0  0  0
   22.2267   -8.1646  -16.3622 C   0  0  1  0  0  0  0  0  0  0  0  0
   20.8774   -8.7370  -16.0917 C   0  0  0  0  0  0  0  0  0  0  0  0
   20.4274   -9.8575  -16.9331 C   0  0  0  0  0  0  0  0  0  0  0  0
   19.5197  -10.7892  -16.2632 C   0  0  0  0  0  0  0  0  0  0  0  0
   18.4010  -11.1281  -16.7084 O   0  0  0  0  0  0  0  0  0  0  0  0
   22.5007   -6.9881  -15.4708 C   0  0  0  0  0  0  0  0  0  0  0  0
   22.9539   -7.0132  -14.3278 O   0  0  0  0  0  0  0  0  0  0  0  0
   19.8797  -11.3759  -15.0270 O   0  0  0  0  0  0  0  0  0  0  0  0
   23.3179   -3.2957  -17.1073 O   0  0  0  0  0  0  0  0  0  0  0  0
   22.3949   -3.2509  -16.0725 C   0  0  0  0  0  0  0  0  0  0  0  0
   22.4754   -4.4852  -15.1822 C   0  0  2  0  0  0  0  0  0  0  0  0
   22.2175   -5.6679  -15.9775 N   0  0  0  0  0  0  0  0  0  0  0  0
   21.3763   -4.3584  -14.1947 C   0  0  0  0  0  0  0  0  0  0  0  0
   20.3388   -5.2748  -14.1494 O   0  0  0  0  0  0  0  0  0  0  0  0
   21.3497   -3.4156  -13.3665 O   0  0  0  0  0  0  0  0  0  0  0  0
  2  1  1  6
  3  2  1  0
  4  9  2  0
  4  3  1  0
  5  4  1  0
  6  7  1  0
  6  5  2  0
  7  8  2  0
  8  9  1  0
 10 12  1  0
 10  2  1  0
 11 10  2  0
 13 12  1  0
 13 14  1  1
 14 15  1  0
 15 16  1  0
 16 17  2  0
 18 19  2  0
 18 13  1  0
 20 16  1  0
 22 21  1  0
 23 22  1  6
 23 24  1  0
 24 18  1  0
 25 23  1  0
 26 25  1  0
 27 25  2  0
M  END
$$$$
