FES.pdb
     RDKit          3D

 27 27  0  0  1  0  0  0  0  0999 V2000
   28.5003  -21.1947   -9.6182 N   0  0  0  0  0  0  0  0  0  0  0  0
   27.1253  -20.8768   -9.4461 C   0  0  1  0  0  0  0  0  0  0  0  0
   26.8275  -19.7661   -8.5142 C   0  0  0  0  0  0  0  0  0  0  0  0
   27.4240  -19.8673   -7.1717 C   0  0  0  0  0  0  0  0  0  0  0  0
   28.7703  -19.5930   -7.0454 C   0  0  0  0  0  0  0  0  0  0  0  0
   29.4224  -19.6706   -5.8277 C   0  0  0  0  0  0  0  0  0  0  0  0
   28.6493  -20.0397   -4.7363 C   0  0  0  0  0  0  0  0  0  0  0  0
   27.3045  -20.3135   -4.8639 C   0  0  0  0  0  0  0  0  0  0  0  0
   26.6634  -20.2319   -6.0913 C   0  0  0  0  0  0  0  0  0  0  0  0
   26.4318  -20.6199  -10.7606 C   0  0  0  0  0  0  0  0  0  0  0  0
   26.9680  -19.8690  -11.5951 O   0  0  0  0  0  0  0  0  0  0  0  0
   25.1822  -21.2213  -11.0520 N   0  0  0  0  0  0  0  0  0  0  0  0
   24.4177  -21.1006  -12.2347 C   0  0  1  0  0  0  0  0  0  0  0  0
   24.2421  -22.3655  -13.0034 C   0  0  0  0  0  0  0  0  0  0  0  0
   25.4437  -22.9883  -13.5813 C   0  0  0  0  0  0  0  0  0  0  0  0
   25.1935  -24.2485  -14.2814 C   0  0  0  0  0  0  0  0  0  0  0  0
   24.0757  -24.8051  -14.3555 O   0  0  0  0  0  0  0  0  0  0  0  0
   23.1101  -20.3798  -12.0785 C   0  0  0  0  0  0  0  0  0  0  0  0
   22.3926  -20.3530  -11.0801 O   0  0  0  0  0  0  0  0  0  0  0  0
   26.2492  -24.9263  -14.9356 O   0  0  0  0  0  0  0  0  0  0  0  0
   20.6804  -18.8298  -15.3826 O   0  0  0  0  0  0  0  0  0  0  0  0
   21.2138  -18.0308  -14.3817 C   0  0  0  0  0  0  0  0  0  0  0  0
   21.4216  -18.8034  -13.0847 C   0  0  2  0  0  0  0  0  0  0  0  0
   22.6107  -19.6224  -13.1996 N   0  0  0  0  0  0  0  0  0  0  0  0
   20.2589  -19.7142  -12.9520 C   0  0  0  0  0  0  0  0  0  0  0  0
   19.0745  -19.2912  -12.3718 O   0  0  0  0  0  0  0  0  0  0  0  0
   20.3095  -20.8996  -13.3613 O   0  0  0  0  0  0  0  0  0  0  0  0
  2  1  1  6
  3  2  1  0
  4  9  2  0
  4  3  1  0
  5  4  1  0
  6  7  1  0
  6  5  2  0
  7  8  2  0
  8  9  1  0
 10 12  1  0
 10  2  1  0
 11 10  2  0
 13 12  1  0
 13 14  1  1
 14 15  1  0
 15 16  1  0
 16 17  2  0
 18 19  2  0
 18 13  1  0
 20 16  1  0
 22 21  1  0
 23 22  1  6
 23 24  1  0
 24 18  1  0
 25 23  1  0
 26 25  1  0
 27 25  2  0
M  END
$$$$
