FES.pdb
     RDKit          3D

 27 27  0  0  1  0  0  0  0  0999 V2000
   14.7201   -9.0584   -8.7685 N   0  0  0  0  0  0  0  0  0  0  0  0
   15.3059   -7.8706   -9.2857 C   0  0  1  0  0  0  0  0  0  0  0  0
   15.6022   -6.8095   -8.2973 C   0  0  0  0  0  0  0  0  0  0  0  0
   14.4391   -6.1051   -7.7323 C   0  0  0  0  0  0  0  0  0  0  0  0
   13.9434   -5.0228   -8.4298 C   0  0  0  0  0  0  0  0  0  0  0  0
   12.8606   -4.2917   -7.9746 C   0  0  0  0  0  0  0  0  0  0  0  0
   12.2971   -4.7052   -6.7761 C   0  0  0  0  0  0  0  0  0  0  0  0
   12.7933   -5.7866   -6.0803 C   0  0  0  0  0  0  0  0  0  0  0  0
   13.8799   -6.5106   -6.5485 C   0  0  0  0  0  0  0  0  0  0  0  0
   16.5466   -8.1539  -10.0953 C   0  0  0  0  0  0  0  0  0  0  0  0
   17.4464   -8.8585   -9.6038 O   0  0  0  0  0  0  0  0  0  0  0  0
   16.6964   -7.6273  -11.4024 N   0  0  0  0  0  0  0  0  0  0  0  0
   17.7456   -7.8686  -12.3183 C   0  0  1  0  0  0  0  0  0  0  0  0
   17.3777   -8.7136  -13.4896 C   0  0  0  0  0  0  0  0  0  0  0  0
   16.7219  -10.0042  -13.2243 C   0  0  0  0  0  0  0  0  0  0  0  0
   16.2554  -10.7022  -14.4226 C   0  0  0  0  0  0  0  0  0  0  0  0
   16.4730  -11.9097  -14.6659 O   0  0  0  0  0  0  0  0  0  0  0  0
   18.5069   -6.6496  -12.7520 C   0  0  0  0  0  0  0  0  0  0  0  0
   18.0613   -5.5144  -12.9111 O   0  0  0  0  0  0  0  0  0  0  0  0
   15.5041  -10.0149  -15.4049 O   0  0  0  0  0  0  0  0  0  0  0  0
   22.3635   -5.8611  -11.7910 O   0  0  0  0  0  0  0  0  0  0  0  0
   22.1631   -5.8793  -13.1637 C   0  0  0  0  0  0  0  0  0  0  0  0
   20.6975   -5.6771  -13.5292 C   0  0  2  0  0  0  0  0  0  0  0  0
   19.9181   -6.7851  -13.0165 N   0  0  0  0  0  0  0  0  0  0  0  0
   20.6275   -5.7246  -15.0097 C   0  0  0  0  0  0  0  0  0  0  0  0
   21.1194   -4.6899  -15.7881 O   0  0  0  0  0  0  0  0  0  0  0  0
   20.1198   -6.7048  -15.6071 O   0  0  0  0  0  0  0  0  0  0  0  0
  2  1  1  1
  3  2  1  0
  4  9  2  0
  4  3  1  0
  5  4  1  0
  6  7  1  0
  6  5  2  0
  7  8  2  0
  8  9  1  0
 10 12  1  0
 10  2  1  0
 11 10  2  0
 13 12  1  0
 13 14  1  6
 14 15  1  0
 15 16  1  0
 16 17  2  0
 18 19  2  0
 18 13  1  0
 20 16  1  0
 22 21  1  0
 23 22  1  6
 23 24  1  0
 24 18  1  0
 25 23  1  0
 26 25  1  0
 27 25  2  0
M  END
$$$$
