FES.pdb
     RDKit          3D

 27 27  0  0  1  0  0  0  0  0999 V2000
   29.1671  -19.3390  -13.2539 N   0  0  0  0  0  0  0  0  0  0  0  0
   28.2339  -20.4017  -13.1082 C   0  0  1  0  0  0  0  0  0  0  0  0
   28.1838  -21.0434  -11.7754 C   0  0  0  0  0  0  0  0  0  0  0  0
   29.4592  -21.5672  -11.2585 C   0  0  0  0  0  0  0  0  0  0  0  0
   29.8786  -21.1274  -10.0198 C   0  0  0  0  0  0  0  0  0  0  0  0
   31.0670  -21.5545   -9.4547 C   0  0  0  0  0  0  0  0  0  0  0  0
   31.8176  -22.4515  -10.2010 C   0  0  0  0  0  0  0  0  0  0  0  0
   31.3975  -22.8900  -11.4384 C   0  0  0  0  0  0  0  0  0  0  0  0
   30.2035  -22.4533  -11.9930 C   0  0  0  0  0  0  0  0  0  0  0  0
   26.8396  -19.9944  -13.5146 C   0  0  0  0  0  0  0  0  0  0  0  0
   26.3641  -18.9314  -13.0768 O   0  0  0  0  0  0  0  0  0  0  0  0
   26.0704  -20.8068  -14.3844 N   0  0  0  0  0  0  0  0  0  0  0  0
   24.7475  -20.5869  -14.8308 C   0  0  1  0  0  0  0  0  0  0  0  0
   24.5287  -20.8110  -16.2880 C   0  0  0  0  0  0  0  0  0  0  0  0
   23.1734  -20.5929  -16.8188 C   0  0  0  0  0  0  0  0  0  0  0  0
   23.1177  -19.7223  -17.9933 C   0  0  0  0  0  0  0  0  0  0  0  0
   23.7025  -19.9564  -19.0740 O   0  0  0  0  0  0  0  0  0  0  0  0
   23.6795  -21.2581  -14.0168 C   0  0  0  0  0  0  0  0  0  0  0  0
   23.7187  -22.3856  -13.5270 O   0  0  0  0  0  0  0  0  0  0  0  0
   22.3679  -18.5229  -17.9610 O   0  0  0  0  0  0  0  0  0  0  0  0
   20.6507  -18.8771  -12.4642 O   0  0  0  0  0  0  0  0  0  0  0  0
   20.9244  -20.1258  -11.9251 C   0  0  0  0  0  0  0  0  0  0  0  0
   21.3843  -21.1175  -12.9870 C   0  0  2  0  0  0  0  0  0  0  0  0
   22.4618  -20.5306  -13.7567 N   0  0  0  0  0  0  0  0  0  0  0  0
   20.2327  -21.3125  -13.9007 C   0  0  0  0  0  0  0  0  0  0  0  0
   19.0864  -21.9697  -13.4856 O   0  0  0  0  0  0  0  0  0  0  0  0
   20.2586  -20.8881  -15.0817 O   0  0  0  0  0  0  0  0  0  0  0  0
  2  1  1  1
  3  2  1  0
  4  9  2  0
  4  3  1  0
  5  4  1  0
  6  7  1  0
  6  5  2  0
  7  8  2  0
  8  9  1  0
 10 12  1  0
 10  2  1  0
 11 10  2  0
 13 12  1  0
 13 14  1  6
 14 15  1  0
 15 16  1  0
 16 17  2  0
 18 19  2  0
 18 13  1  0
 20 16  1  0
 22 21  1  0
 23 22  1  1
 23 24  1  0
 24 18  1  0
 25 23  1  0
 26 25  1  0
 27 25  2  0
M  END
$$$$
