FES.pdb
     RDKit          3D

 27 27  0  0  1  0  0  0  0  0999 V2000
   19.4753  -11.4261  -17.2730 N   0  0  0  0  0  0  0  0  0  0  0  0
   20.0572  -10.3240  -17.9572 C   0  0  1  0  0  0  0  0  0  0  0  0
   19.6529  -10.1505  -19.3704 C   0  0  0  0  0  0  0  0  0  0  0  0
   19.8263  -11.3230  -20.2441 C   0  0  0  0  0  0  0  0  0  0  0  0
   18.6913  -11.9947  -20.6494 C   0  0  0  0  0  0  0  0  0  0  0  0
   18.7528  -13.1127  -21.4621 C   0  0  0  0  0  0  0  0  0  0  0  0
   20.0197  -13.5245  -21.8498 C   0  0  0  0  0  0  0  0  0  0  0  0
   21.1527  -12.8527  -21.4442 C   0  0  0  0  0  0  0  0  0  0  0  0
   21.0763  -11.7329  -20.6290 C   0  0  0  0  0  0  0  0  0  0  0  0
   19.8523   -9.0241  -17.2202 C   0  0  0  0  0  0  0  0  0  0  0  0
   18.7421   -8.7794  -16.7150 O   0  0  0  0  0  0  0  0  0  0  0  0
   20.9058   -8.0841  -17.0994 N   0  0  0  0  0  0  0  0  0  0  0  0
   20.8657   -6.8126  -16.4831 C   0  0  1  0  0  0  0  0  0  0  0  0
   21.6006   -6.7156  -15.1901 C   0  0  0  0  0  0  0  0  0  0  0  0
   21.5546   -5.4326  -14.4706 C   0  0  0  0  0  0  0  0  0  0  0  0
   22.1466   -5.4686  -13.1331 C   0  0  0  0  0  0  0  0  0  0  0  0
   22.5388   -4.4591  -12.5072 O   0  0  0  0  0  0  0  0  0  0  0  0
   21.2017   -5.6575  -17.3811 C   0  0  0  0  0  0  0  0  0  0  0  0
   22.2194   -5.5146  -18.0566 O   0  0  0  0  0  0  0  0  0  0  0  0
   22.3108   -6.6997  -12.4555 O   0  0  0  0  0  0  0  0  0  0  0  0
   19.2636   -1.9361  -19.8234 O   0  0  0  0  0  0  0  0  0  0  0  0
   19.1313   -3.0458  -19.0013 C   0  0  0  0  0  0  0  0  0  0  0  0
   20.4655   -3.4752  -18.4030 C   0  0  2  0  0  0  0  0  0  0  0  0
   20.2491   -4.5804  -17.4921 N   0  0  0  0  0  0  0  0  0  0  0  0
   20.9538   -2.3240  -17.6059 C   0  0  0  0  0  0  0  0  0  0  0  0
   21.2671   -1.1145  -18.2037 O   0  0  0  0  0  0  0  0  0  0  0  0
   21.0996   -2.4075  -16.3621 O   0  0  0  0  0  0  0  0  0  0  0  0
  2  1  1  1
  3  2  1  0
  4  9  2  0
  4  3  1  0
  5  4  1  0
  6  7  1  0
  6  5  2  0
  7  8  2  0
  8  9  1  0
 10 12  1  0
 10  2  1  0
 11 10  2  0
 13 12  1  0
 13 14  1  1
 14 15  1  0
 15 16  1  0
 16 17  2  0
 18 19  2  0
 18 13  1  0
 20 16  1  0
 22 21  1  0
 23 22  1  1
 23 24  1  0
 24 18  1  0
 25 23  1  0
 26 25  1  0
 27 25  2  0
M  END
$$$$
