PVR.pdb
     RDKit          3D

 26 26  0  0  1  0  0  0  0  0999 V2000
   31.4203  -20.7658   -9.3703 N   0  0  0  0  0  0  0  0  0  0  0  0
   32.7580  -21.1895   -9.6536 C   0  0  0  0  0  0  0  0  0  0  0  0
   32.8153  -22.6920   -9.4833 C   0  0  0  0  0  0  0  0  0  0  0  0
   31.5081  -23.0273   -8.8465 C   0  0  0  0  0  0  0  0  0  0  0  0
   30.5942  -21.9353   -9.4226 C   0  0  1  0  0  0  0  0  0  0  0  0
   29.3634  -21.8228   -8.5790 C   0  0  0  0  0  0  0  0  0  0  0  0
   28.4901  -22.7190   -8.5154 O   0  0  0  0  0  0  0  0  0  0  0  0
   27.1654  -19.0653   -5.1449 C   0  0  0  0  0  0  0  0  0  0  0  0
   28.4188  -19.3323   -5.9486 C   0  0  1  0  0  0  0  0  0  0  0  0
   29.4511  -19.9212   -5.0270 C   0  0  0  0  0  0  0  0  0  0  0  0
   28.0338  -20.3134   -7.0525 C   0  0  2  0  0  0  0  0  0  0  0  0
   29.1852  -20.6599   -7.8298 N   0  0  0  0  0  0  0  0  0  0  0  0
   26.9197  -19.7848   -7.8647 C   0  0  0  0  0  0  0  0  0  0  0  0
   26.9762  -18.5640   -8.2008 O   0  0  0  0  0  0  0  0  0  0  0  0
   24.6431  -23.7812  -14.6460 N   0  0  0  0  0  0  0  0  0  0  0  0
   24.5187  -22.4287  -15.0926 C   0  0  0  0  0  0  0  0  0  0  0  0
   23.8055  -22.1486  -16.1248 N   0  0  0  0  0  0  0  0  0  0  0  0
   25.1575  -21.3601  -14.4264 N   0  0  0  0  0  0  0  0  0  0  0  0
   25.8680  -21.4707  -13.1856 C   0  0  0  0  0  0  0  0  0  0  0  0
   25.1925  -20.8721  -11.9981 C   0  0  0  0  0  0  0  0  0  0  0  0
   25.8804  -21.0386  -10.6792 C   0  0  0  0  0  0  0  0  0  0  0  0
   25.1319  -20.3950   -9.5702 C   0  0  2  0  0  0  0  0  0  0  0  0
   25.8063  -20.5508   -8.2820 N   0  0  0  0  0  0  0  0  0  0  0  0
   23.7521  -20.9395   -9.4945 C   0  0  0  0  0  0  0  0  0  0  0  0
   23.3782  -21.6216   -8.3508 O   0  0  0  0  0  0  0  0  0  0  0  0
   22.9247  -20.8108  -10.4046 O   0  0  0  0  0  0  0  0  0  0  0  0
  1  5  1  0
  1  2  1  0
  2  3  1  0
  4  3  1  0
  5  4  1  0
  6  7  2  0
  5  6  1  1
  9 11  1  0
  9  8  1  1
 10  9  1  0
 11 12  1  6
 12  6  1  0
 13 11  1  0
 14 13  2  0
 16 17  2  0
 16 15  1  0
 18 16  1  0
 19 18  1  0
 20 19  1  0
 20 21  1  0
 22 21  1  6
 22 23  1  0
 23 13  1  0
 24 25  1  0
 24 22  1  0
 26 24  2  0
M  END
$$$$
