PVR.pdb
     RDKit          3D

 26 26  0  0  1  0  0  0  0  0999 V2000
   27.4294  -18.4747  -16.0709 N   0  0  0  0  0  0  0  0  0  0  0  0
   28.4805  -17.8894  -16.8467 C   0  0  0  0  0  0  0  0  0  0  0  0
   29.3329  -19.0124  -17.3963 C   0  0  0  0  0  0  0  0  0  0  0  0
   28.8411  -20.2196  -16.6699 C   0  0  0  0  0  0  0  0  0  0  0  0
   27.3666  -19.8594  -16.4339 C   0  0  1  0  0  0  0  0  0  0  0  0
   26.8121  -20.7264  -15.3477 C   0  0  0  0  0  0  0  0  0  0  0  0
   26.6354  -21.9602  -15.4766 O   0  0  0  0  0  0  0  0  0  0  0  0
   26.0711  -21.1399  -10.5797 C   0  0  0  0  0  0  0  0  0  0  0  0
   26.7493  -20.4564  -11.7463 C   0  0  1  0  0  0  0  0  0  0  0  0
   28.1442  -21.0057  -11.8662 C   0  0  0  0  0  0  0  0  0  0  0  0
   25.9181  -20.7729  -12.9866 C   0  0  2  0  0  0  0  0  0  0  0  0
   26.4764  -20.1251  -14.1347 N   0  0  0  0  0  0  0  0  0  0  0  0
   24.4950  -20.4455  -12.7670 C   0  0  0  0  0  0  0  0  0  0  0  0
   24.2070  -19.2304  -12.5500 O   0  0  0  0  0  0  0  0  0  0  0  0
   18.5875  -22.8531  -17.1604 N   0  0  0  0  0  0  0  0  0  0  0  0
   17.7613  -21.9160  -16.4652 C   0  0  0  0  0  0  0  0  0  0  0  0
   16.8486  -21.2639  -17.0932 N   0  0  0  0  0  0  0  0  0  0  0  0
   17.9054  -21.6756  -15.0813 N   0  0  0  0  0  0  0  0  0  0  0  0
   18.7787  -22.4024  -14.2061 C   0  0  0  0  0  0  0  0  0  0  0  0
   19.7273  -21.5750  -13.4061 C   0  0  0  0  0  0  0  0  0  0  0  0
   21.1630  -21.9981  -13.4187 C   0  0  0  0  0  0  0  0  0  0  0  0
   22.0297  -21.0669  -12.6531 C   0  0  2  0  0  0  0  0  0  0  0  0
   23.4484  -21.3968  -12.7821 N   0  0  0  0  0  0  0  0  0  0  0  0
   21.6355  -21.0543  -11.2212 C   0  0  0  0  0  0  0  0  0  0  0  0
   20.6685  -20.1526  -10.8152 O   0  0  0  0  0  0  0  0  0  0  0  0
   22.1309  -21.8113  -10.3779 O   0  0  0  0  0  0  0  0  0  0  0  0
  1  5  1  0
  1  2  1  0
  2  3  1  0
  4  3  1  0
  5  4  1  0
  6  7  2  0
  5  6  1  1
  9 11  1  0
  9  8  1  1
 10  9  1  0
 11 12  1  6
 12  6  1  0
 13 11  1  0
 14 13  2  0
 16 17  2  0
 16 15  1  0
 18 16  1  0
 19 18  1  0
 20 19  1  0
 20 21  1  0
 22 21  1  6
 22 23  1  0
 23 13  1  0
 24 25  1  0
 24 22  1  0
 26 24  2  0
M  END
$$$$
