PVR.pdb
     RDKit          3D

 26 26  0  0  1  0  0  0  0  0999 V2000
   25.4783  -21.6886  -15.7514 N   0  0  0  0  0  0  0  0  0  0  0  0
   26.7632  -21.6038  -16.3766 C   0  0  0  0  0  0  0  0  0  0  0  0
   27.5929  -20.6051  -15.5994 C   0  0  0  0  0  0  0  0  0  0  0  0
   26.6083  -19.9660  -14.6781 C   0  0  0  0  0  0  0  0  0  0  0  0
   25.6121  -21.1122  -14.4465 C   0  0  1  0  0  0  0  0  0  0  0  0
   24.3287  -20.5544  -13.9167 C   0  0  0  0  0  0  0  0  0  0  0  0
   24.2529  -19.8972  -12.8525 O   0  0  0  0  0  0  0  0  0  0  0  0
   19.9755  -18.9296  -15.1430 C   0  0  0  0  0  0  0  0  0  0  0  0
   21.3589  -19.4122  -15.5193 C   0  0  1  0  0  0  0  0  0  0  0  0
   22.2346  -18.2082  -15.7320 C   0  0  0  0  0  0  0  0  0  0  0  0
   21.8591  -20.2660  -14.3574 C   0  0  2  0  0  0  0  0  0  0  0  0
   23.1628  -20.7815  -14.6478 N   0  0  0  0  0  0  0  0  0  0  0  0
   20.8802  -21.3166  -14.0134 C   0  0  0  0  0  0  0  0  0  0  0  0
   20.5762  -22.1453  -14.9230 O   0  0  0  0  0  0  0  0  0  0  0  0
   18.2706  -26.4517   -8.0472 N   0  0  0  0  0  0  0  0  0  0  0  0
   18.6153  -25.1898   -7.4702 C   0  0  0  0  0  0  0  0  0  0  0  0
   18.9772  -25.1159   -6.2388 N   0  0  0  0  0  0  0  0  0  0  0  0
   18.5802  -23.9920   -8.2171 N   0  0  0  0  0  0  0  0  0  0  0  0
   17.5683  -23.6476   -9.1733 C   0  0  0  0  0  0  0  0  0  0  0  0
   18.0148  -23.5914  -10.5953 C   0  0  0  0  0  0  0  0  0  0  0  0
   19.0103  -22.5299  -10.9453 C   0  0  0  0  0  0  0  0  0  0  0  0
   19.2925  -22.4829  -12.4022 C   0  0  2  0  0  0  0  0  0  0  0  0
   20.2679  -21.4488  -12.7453 N   0  0  0  0  0  0  0  0  0  0  0  0
   18.0353  -22.2736  -13.1649 C   0  0  0  0  0  0  0  0  0  0  0  0
   17.4961  -23.3486  -13.8481 O   0  0  0  0  0  0  0  0  0  0  0  0
   17.4503  -21.1852  -13.2166 O   0  0  0  0  0  0  0  0  0  0  0  0
  1  5  1  0
  1  2  1  0
  2  3  1  0
  4  3  1  0
  5  4  1  0
  6  7  2  0
  5  6  1  6
  9 11  1  0
  9  8  1  1
 10  9  1  0
 11 12  1  6
 12  6  1  0
 13 11  1  0
 14 13  2  0
 16 17  2  0
 16 15  1  0
 18 16  1  0
 19 18  1  0
 20 19  1  0
 20 21  1  0
 22 21  1  1
 22 23  1  0
 23 13  1  0
 24 25  1  0
 24 22  1  0
 26 24  2  0
M  END
$$$$
