PVR.pdb
     RDKit          3D

 26 26  0  0  1  0  0  0  0  0999 V2000
   24.4574  -22.5467  -14.9487 N   0  0  0  0  0  0  0  0  0  0  0  0
   25.5626  -22.4475  -15.8531 C   0  0  0  0  0  0  0  0  0  0  0  0
   26.1882  -21.0813  -15.6740 C   0  0  0  0  0  0  0  0  0  0  0  0
   25.2112  -20.3537  -14.8120 C   0  0  0  0  0  0  0  0  0  0  0  0
   24.6163  -21.5012  -13.9820 C   0  0  1  0  0  0  0  0  0  0  0  0
   23.3207  -21.0573  -13.3791 C   0  0  0  0  0  0  0  0  0  0  0  0
   23.2387  -20.1496  -12.5192 O   0  0  0  0  0  0  0  0  0  0  0  0
   19.9595  -22.2146  -15.4792 C   0  0  0  0  0  0  0  0  0  0  0  0
   19.9242  -21.0466  -14.5187 C   0  0  1  0  0  0  0  0  0  0  0  0
   18.5003  -20.8423  -14.0799 C   0  0  0  0  0  0  0  0  0  0  0  0
   20.8217  -21.4170  -13.3411 C   0  0  2  0  0  0  0  0  0  0  0  0
   22.1506  -21.6898  -13.7987 N   0  0  0  0  0  0  0  0  0  0  0  0
   20.2364  -22.5235  -12.5578 C   0  0  0  0  0  0  0  0  0  0  0  0
   20.2160  -23.6693  -13.0994 O   0  0  0  0  0  0  0  0  0  0  0  0
   16.6483  -26.5680   -6.8373 N   0  0  0  0  0  0  0  0  0  0  0  0
   17.8115  -26.4394   -6.0161 C   0  0  0  0  0  0  0  0  0  0  0  0
   18.1943  -27.4172   -5.2744 N   0  0  0  0  0  0  0  0  0  0  0  0
   18.5806  -25.2555   -5.9900 N   0  0  0  0  0  0  0  0  0  0  0  0
   18.3170  -24.0852   -6.7760 C   0  0  0  0  0  0  0  0  0  0  0  0
   18.3928  -24.2686   -8.2542 C   0  0  0  0  0  0  0  0  0  0  0  0
   19.0376  -23.1666   -9.0355 C   0  0  0  0  0  0  0  0  0  0  0  0
   19.0941  -23.4669  -10.4884 C   0  0  2  0  0  0  0  0  0  0  0  0
   19.7017  -22.3807  -11.2561 N   0  0  0  0  0  0  0  0  0  0  0  0
   17.7342  -23.7619  -11.0078 C   0  0  0  0  0  0  0  0  0  0  0  0
   17.3783  -25.0846  -11.1995 O   0  0  0  0  0  0  0  0  0  0  0  0
   16.9080  -22.8814  -11.2754 O   0  0  0  0  0  0  0  0  0  0  0  0
  1  5  1  0
  1  2  1  0
  2  3  1  0
  4  3  1  0
  5  4  1  0
  6  7  2  0
  5  6  1  6
  9 11  1  0
  9  8  1  6
 10  9  1  0
 11 12  1  6
 12  6  1  0
 13 11  1  0
 14 13  2  0
 16 17  2  0
 16 15  1  0
 18 16  1  0
 19 18  1  0
 20 19  1  0
 20 21  1  0
 22 21  1  1
 22 23  1  0
 23 13  1  0
 24 25  1  0
 24 22  1  0
 26 24  2  0
M  END
$$$$
