PVR.pdb
     RDKit          3D

 26 26  0  0  1  0  0  0  0  0999 V2000
   26.5679  -18.5017  -15.5021 N   0  0  0  0  0  0  0  0  0  0  0  0
   27.5926  -17.7374  -16.1462 C   0  0  0  0  0  0  0  0  0  0  0  0
   28.8045  -18.6290  -16.3086 C   0  0  0  0  0  0  0  0  0  0  0  0
   28.4719  -19.8326  -15.4915 C   0  0  0  0  0  0  0  0  0  0  0  0
   26.9418  -19.8799  -15.6191 C   0  0  1  0  0  0  0  0  0  0  0  0
   26.3794  -20.7354  -14.5278 C   0  0  0  0  0  0  0  0  0  0  0  0
   26.4374  -21.9870  -14.5374 O   0  0  0  0  0  0  0  0  0  0  0  0
   25.1382  -20.8097   -9.8530 C   0  0  0  0  0  0  0  0  0  0  0  0
   25.8312  -20.1507  -11.0250 C   0  0  1  0  0  0  0  0  0  0  0  0
   27.2993  -20.4655  -10.9401 C   0  0  0  0  0  0  0  0  0  0  0  0
   25.2091  -20.7348  -12.2903 C   0  0  2  0  0  0  0  0  0  0  0  0
   25.7606  -20.1021  -13.4502 N   0  0  0  0  0  0  0  0  0  0  0  0
   23.7350  -20.6668  -12.2346 C   0  0  0  0  0  0  0  0  0  0  0  0
   23.2045  -19.5187  -12.3191 O   0  0  0  0  0  0  0  0  0  0  0  0
   18.4807  -24.9668   -7.3041 N   0  0  0  0  0  0  0  0  0  0  0  0
   17.5625  -24.2280   -8.1135 C   0  0  0  0  0  0  0  0  0  0  0  0
   16.3329  -24.1092   -7.7575 N   0  0  0  0  0  0  0  0  0  0  0  0
   17.9615  -23.6021   -9.3147 N   0  0  0  0  0  0  0  0  0  0  0  0
   19.2915  -23.6218   -9.8508 C   0  0  0  0  0  0  0  0  0  0  0  0
   19.4527  -23.0133  -11.2029 C   0  0  0  0  0  0  0  0  0  0  0  0
   20.8220  -23.0676  -11.8050 C   0  0  0  0  0  0  0  0  0  0  0  0
   21.4421  -21.7229  -11.9123 C   0  0  2  0  0  0  0  0  0  0  0  0
   22.8916  -21.7932  -12.0919 N   0  0  0  0  0  0  0  0  0  0  0  0
   21.1138  -20.9062  -10.7160 C   0  0  0  0  0  0  0  0  0  0  0  0
   20.1584  -19.9140  -10.8414 O   0  0  0  0  0  0  0  0  0  0  0  0
   21.6539  -21.0727   -9.6159 O   0  0  0  0  0  0  0  0  0  0  0  0
  1  5  1  0
  1  2  1  0
  2  3  1  0
  4  3  1  0
  5  4  1  0
  6  7  2  0
  5  6  1  1
  9 11  1  0
  9  8  1  1
 10  9  1  0
 11 12  1  6
 12  6  1  0
 13 11  1  0
 14 13  2  0
 16 17  2  0
 16 15  1  0
 18 16  1  0
 19 18  1  0
 20 19  1  0
 20 21  1  0
 22 21  1  1
 22 23  1  0
 23 13  1  0
 24 25  1  0
 24 22  1  0
 26 24  2  0
M  END
$$$$
