PVR.pdb
     RDKit          3D

 26 26  0  0  1  0  0  0  0  0999 V2000
   27.8315  -19.2701  -14.8926 N   0  0  0  0  0  0  0  0  0  0  0  0
   29.1542  -18.8764  -15.2734 C   0  0  0  0  0  0  0  0  0  0  0  0
   29.9700  -20.1332  -15.4849 C   0  0  0  0  0  0  0  0  0  0  0  0
   29.0953  -21.2184  -14.9521 C   0  0  0  0  0  0  0  0  0  0  0  0
   27.6949  -20.6544  -15.2360 C   0  0  1  0  0  0  0  0  0  0  0  0
   26.6904  -21.3724  -14.3908 C   0  0  0  0  0  0  0  0  0  0  0  0
   26.4059  -22.5834  -14.5419 O   0  0  0  0  0  0  0  0  0  0  0  0
   24.3311  -21.1852  -10.1285 C   0  0  0  0  0  0  0  0  0  0  0  0
   25.3553  -20.5780  -11.0614 C   0  0  1  0  0  0  0  0  0  0  0  0
   26.7244  -20.9459  -10.5594 C   0  0  0  0  0  0  0  0  0  0  0  0
   25.0937  -21.1655  -12.4456 C   0  0  2  0  0  0  0  0  0  0  0  0
   26.0417  -20.6523  -13.3878 N   0  0  0  0  0  0  0  0  0  0  0  0
   23.6911  -20.9513  -12.8544 C   0  0  0  0  0  0  0  0  0  0  0  0
   23.2858  -19.7526  -12.9281 O   0  0  0  0  0  0  0  0  0  0  0  0
   16.2027  -25.3347  -12.5768 N   0  0  0  0  0  0  0  0  0  0  0  0
   15.9510  -24.4143  -13.6415 C   0  0  0  0  0  0  0  0  0  0  0  0
   14.7515  -24.0277  -13.8958 N   0  0  0  0  0  0  0  0  0  0  0  0
   16.9918  -23.8940  -14.4412 N   0  0  0  0  0  0  0  0  0  0  0  0
   18.3914  -24.1052  -14.2104 C   0  0  0  0  0  0  0  0  0  0  0  0
   19.2007  -22.8749  -13.9744 C   0  0  0  0  0  0  0  0  0  0  0  0
   20.6705  -23.0674  -13.7669 C   0  0  0  0  0  0  0  0  0  0  0  0
   21.3644  -21.7938  -13.4494 C   0  0  2  0  0  0  0  0  0  0  0  0
   22.7844  -21.9924  -13.1620 N   0  0  0  0  0  0  0  0  0  0  0  0
   20.7012  -21.1156  -12.3065 C   0  0  0  0  0  0  0  0  0  0  0  0
   19.8663  -20.0458  -12.5737 O   0  0  0  0  0  0  0  0  0  0  0  0
   20.8607  -21.4631  -11.1304 O   0  0  0  0  0  0  0  0  0  0  0  0
  1  5  1  0
  1  2  1  0
  2  3  1  0
  4  3  1  0
  5  4  1  0
  6  7  2  0
  5  6  1  1
  9 11  1  0
  9  8  1  1
 10  9  1  0
 11 12  1  6
 12  6  1  0
 13 11  1  0
 14 13  2  0
 16 17  2  0
 16 15  1  0
 18 16  1  0
 19 18  1  0
 20 19  1  0
 20 21  1  0
 22 21  1  1
 22 23  1  0
 23 13  1  0
 24 25  1  0
 24 22  1  0
 26 24  2  0
M  END
$$$$
