PVR.pdb
     RDKit          3D

 26 26  0  0  1  0  0  0  0  0999 V2000
   17.6733  -26.0118   -8.3115 N   0  0  0  0  0  0  0  0  0  0  0  0
   18.2310  -25.1014   -9.2651 C   0  0  0  0  0  0  0  0  0  0  0  0
   18.5897  -23.8256   -8.5347 C   0  0  0  0  0  0  0  0  0  0  0  0
   17.9635  -23.9975   -7.1912 C   0  0  0  0  0  0  0  0  0  0  0  0
   18.0280  -25.5219   -7.0126 C   0  0  1  0  0  0  0  0  0  0  0  0
   17.0650  -25.9373   -5.9454 C   0  0  0  0  0  0  0  0  0  0  0  0
   15.8480  -26.1438   -6.1610 O   0  0  0  0  0  0  0  0  0  0  0  0
   17.4594  -28.8389   -3.8905 C   0  0  0  0  0  0  0  0  0  0  0  0
   17.4681  -27.7345   -2.8569 C   0  0  1  0  0  0  0  0  0  0  0  0
   18.8977  -27.4467   -2.4891 C   0  0  0  0  0  0  0  0  0  0  0  0
   16.8046  -26.5212   -3.5026 C   0  0  2  0  0  0  0  0  0  0  0  0
   17.5522  -26.1001   -4.6487 N   0  0  0  0  0  0  0  0  0  0  0  0
   16.5967  -25.4439   -2.5142 C   0  0  0  0  0  0  0  0  0  0  0  0
   17.6046  -24.7416   -2.2023 O   0  0  0  0  0  0  0  0  0  0  0  0
   10.3400  -20.0849   -3.5734 N   0  0  0  0  0  0  0  0  0  0  0  0
   11.5701  -20.2137   -4.2906 C   0  0  0  0  0  0  0  0  0  0  0  0
   11.7074  -19.6700   -5.4474 N   0  0  0  0  0  0  0  0  0  0  0  0
   12.6704  -20.9256   -3.7652 N   0  0  0  0  0  0  0  0  0  0  0  0
   12.6300  -21.7606   -2.5999 C   0  0  0  0  0  0  0  0  0  0  0  0
   13.8629  -22.5558   -2.3312 C   0  0  0  0  0  0  0  0  0  0  0  0
   13.8660  -23.3910   -1.0891 C   0  0  0  0  0  0  0  0  0  0  0  0
   15.1509  -24.1103   -0.8992 C   0  0  2  0  0  0  0  0  0  0  0  0
   15.3550  -25.1555   -1.9014 N   0  0  0  0  0  0  0  0  0  0  0  0
   15.2207  -24.6904    0.4663 C   0  0  0  0  0  0  0  0  0  0  0  0
   15.6221  -23.8721    1.5066 O   0  0  0  0  0  0  0  0  0  0  0  0
   14.9368  -25.8682    0.7148 O   0  0  0  0  0  0  0  0  0  0  0  0
  1  5  1  0
  1  2  1  0
  2  3  1  0
  4  3  1  0
  5  4  1  0
  6  7  2  0
  5  6  1  1
  9 11  1  0
  9  8  1  6
 10  9  1  0
 11 12  1  6
 12  6  1  0
 13 11  1  0
 14 13  2  0
 16 17  2  0
 16 15  1  0
 18 16  1  0
 19 18  1  0
 20 19  1  0
 20 21  1  0
 22 21  1  6
 22 23  1  0
 23 13  1  0
 24 25  1  0
 24 22  1  0
 26 24  2  0
M  END
$$$$
