PVR.pdb
     RDKit          3D

 26 26  0  0  1  0  0  0  0  0999 V2000
   26.5470  -20.3702  -15.8064 N   0  0  0  0  0  0  0  0  0  0  0  0
   27.4652  -21.2617  -16.4478 C   0  0  0  0  0  0  0  0  0  0  0  0
   26.7341  -22.5558  -16.7323 C   0  0  0  0  0  0  0  0  0  0  0  0
   25.4513  -22.4109  -15.9839 C   0  0  0  0  0  0  0  0  0  0  0  0
   25.2323  -20.8913  -16.0365 C   0  0  1  0  0  0  0  0  0  0  0  0
   24.2504  -20.4949  -14.9793 C   0  0  0  0  0  0  0  0  0  0  0  0
   24.5718  -20.2898  -13.7857 O   0  0  0  0  0  0  0  0  0  0  0  0
   19.8644  -18.5005  -14.2976 C   0  0  0  0  0  0  0  0  0  0  0  0
   21.0620  -18.7892  -15.1754 C   0  0  1  0  0  0  0  0  0  0  0  0
   21.8888  -17.5365  -15.2688 C   0  0  0  0  0  0  0  0  0  0  0  0
   21.8380  -19.9194  -14.5047 C   0  0  2  0  0  0  0  0  0  0  0  0
   22.9129  -20.3492  -15.3471 N   0  0  0  0  0  0  0  0  0  0  0  0
   20.9345  -21.0175  -14.1066 C   0  0  0  0  0  0  0  0  0  0  0  0
   20.4325  -21.7198  -15.0347 O   0  0  0  0  0  0  0  0  0  0  0  0
   18.4557  -25.0834   -6.2327 N   0  0  0  0  0  0  0  0  0  0  0  0
   17.8544  -25.7332   -7.3553 C   0  0  0  0  0  0  0  0  0  0  0  0
   17.0903  -26.7526   -7.1831 N   0  0  0  0  0  0  0  0  0  0  0  0
   18.0648  -25.2866   -8.6782 N   0  0  0  0  0  0  0  0  0  0  0  0
   18.9598  -24.2325   -9.0585 C   0  0  0  0  0  0  0  0  0  0  0  0
   18.9088  -23.8270  -10.4929 C   0  0  0  0  0  0  0  0  0  0  0  0
   19.8194  -22.7144  -10.9092 C   0  0  0  0  0  0  0  0  0  0  0  0
   19.7402  -22.4391  -12.3660 C   0  0  2  0  0  0  0  0  0  0  0  0
   20.5990  -21.3257  -12.7676 N   0  0  0  0  0  0  0  0  0  0  0  0
   18.3349  -22.1709  -12.7649 C   0  0  0  0  0  0  0  0  0  0  0  0
   17.6456  -23.1600  -13.4428 O   0  0  0  0  0  0  0  0  0  0  0  0
   17.7546  -21.1068  -12.5190 O   0  0  0  0  0  0  0  0  0  0  0  0
  1  5  1  0
  1  2  1  0
  2  3  1  0
  4  3  1  0
  5  4  1  0
  6  7  2  0
  5  6  1  1
  9 11  1  0
  9  8  1  1
 10  9  1  0
 11 12  1  6
 12  6  1  0
 13 11  1  0
 14 13  2  0
 16 17  2  0
 16 15  1  0
 18 16  1  0
 19 18  1  0
 20 19  1  0
 20 21  1  0
 22 21  1  1
 22 23  1  0
 23 13  1  0
 24 25  1  0
 24 22  1  0
 26 24  2  0
M  END
$$$$
