PVR.pdb
     RDKit          3D

 26 26  0  0  1  0  0  0  0  0999 V2000
   20.1189  -15.1453  -18.4034 N   0  0  0  0  0  0  0  0  0  0  0  0
   19.3829  -15.5446  -19.5645 C   0  0  0  0  0  0  0  0  0  0  0  0
   18.8030  -14.2987  -20.1980 C   0  0  0  0  0  0  0  0  0  0  0  0
   19.0484  -13.2356  -19.1800 C   0  0  0  0  0  0  0  0  0  0  0  0
   20.3412  -13.7345  -18.5171 C   0  0  1  0  0  0  0  0  0  0  0  0
   20.5123  -13.0586  -17.1931 C   0  0  0  0  0  0  0  0  0  0  0  0
   19.8181  -13.3337  -16.1868 O   0  0  0  0  0  0  0  0  0  0  0  0
   23.4544  -12.9747  -15.2769 C   0  0  0  0  0  0  0  0  0  0  0  0
   23.2595  -11.4945  -15.5199 C   0  0  1  0  0  0  0  0  0  0  0  0
   24.1865  -11.0742  -16.6271 C   0  0  0  0  0  0  0  0  0  0  0  0
   21.7979  -11.3012  -15.9144 C   0  0  2  0  0  0  0  0  0  0  0  0
   21.4940  -12.0742  -17.0806 N   0  0  0  0  0  0  0  0  0  0  0  0
   21.4759   -9.8680  -16.0650 C   0  0  0  0  0  0  0  0  0  0  0  0
   21.8942   -9.2871  -17.1110 O   0  0  0  0  0  0  0  0  0  0  0  0
   14.0371   -9.5084  -15.7667 N   0  0  0  0  0  0  0  0  0  0  0  0
   14.6620   -9.0970  -16.9850 C   0  0  0  0  0  0  0  0  0  0  0  0
   14.0765   -9.2909  -18.1130 N   0  0  0  0  0  0  0  0  0  0  0  0
   15.9244   -8.4647  -17.0009 N   0  0  0  0  0  0  0  0  0  0  0  0
   16.7349   -8.2158  -15.8442 C   0  0  0  0  0  0  0  0  0  0  0  0
   18.0624   -7.5890  -16.1077 C   0  0  0  0  0  0  0  0  0  0  0  0
   18.9751   -7.4294  -14.9321 C   0  0  0  0  0  0  0  0  0  0  0  0
   20.3922   -7.7032  -15.2799 C   0  0  2  0  0  0  0  0  0  0  0  0
   20.7397   -9.1147  -15.1210 N   0  0  0  0  0  0  0  0  0  0  0  0
   21.2975   -6.8580  -14.4601 C   0  0  0  0  0  0  0  0  0  0  0  0
   21.3164   -5.4956  -14.6975 O   0  0  0  0  0  0  0  0  0  0  0  0
   22.0327   -7.3157  -13.5772 O   0  0  0  0  0  0  0  0  0  0  0  0
  1  5  1  0
  1  2  1  0
  2  3  1  0
  4  3  1  0
  5  4  1  0
  6  7  2  0
  5  6  1  1
  9 11  1  0
  9  8  1  6
 10  9  1  0
 11 12  1  6
 12  6  1  0
 13 11  1  0
 14 13  2  0
 16 17  2  0
 16 15  1  0
 18 16  1  0
 19 18  1  0
 20 19  1  0
 20 21  1  0
 22 21  1  1
 22 23  1  0
 23 13  1  0
 24 25  1  0
 24 22  1  0
 26 24  2  0
M  END
$$$$
