PVR.pdb
     RDKit          3D

 26 26  0  0  1  0  0  0  0  0999 V2000
   28.3889  -21.7242  -15.6260 N   0  0  0  0  0  0  0  0  0  0  0  0
   29.0470  -21.0863  -16.7257 C   0  0  0  0  0  0  0  0  0  0  0  0
   28.3778  -19.7485  -16.9548 C   0  0  0  0  0  0  0  0  0  0  0  0
   27.1626  -19.8067  -16.0906 C   0  0  0  0  0  0  0  0  0  0  0  0
   27.6414  -20.7098  -14.9440 C   0  0  1  0  0  0  0  0  0  0  0  0
   26.4548  -21.2493  -14.2091 C   0  0  0  0  0  0  0  0  0  0  0  0
   25.7392  -22.1792  -14.6488 O   0  0  0  0  0  0  0  0  0  0  0  0
   26.5887  -21.2380  -10.3471 C   0  0  0  0  0  0  0  0  0  0  0  0
   25.2576  -20.6198  -10.7130 C   0  0  1  0  0  0  0  0  0  0  0  0
   25.3651  -19.1309  -10.5304 C   0  0  0  0  0  0  0  0  0  0  0  0
   24.9884  -20.9837  -12.1706 C   0  0  2  0  0  0  0  0  0  0  0  0
   26.1344  -20.6841  -12.9749 N   0  0  0  0  0  0  0  0  0  0  0  0
   23.7512  -20.3404  -12.6563 C   0  0  0  0  0  0  0  0  0  0  0  0
   23.8224  -19.1165  -12.9780 O   0  0  0  0  0  0  0  0  0  0  0  0
   19.9399  -23.4616  -19.0077 N   0  0  0  0  0  0  0  0  0  0  0  0
   20.6111  -22.2705  -18.5895 C   0  0  0  0  0  0  0  0  0  0  0  0
   21.0485  -21.4318  -19.4601 N   0  0  0  0  0  0  0  0  0  0  0  0
   20.8128  -21.9662  -17.2256 N   0  0  0  0  0  0  0  0  0  0  0  0
   20.4790  -22.8308  -16.1312 C   0  0  0  0  0  0  0  0  0  0  0  0
   20.7451  -22.2828  -14.7697 C   0  0  0  0  0  0  0  0  0  0  0  0
   20.9669  -20.8058  -14.6718 C   0  0  0  0  0  0  0  0  0  0  0  0
   21.2858  -20.3764  -13.2868 C   0  0  2  0  0  0  0  0  0  0  0  0
   22.5067  -21.0012  -12.7795 N   0  0  0  0  0  0  0  0  0  0  0  0
   20.1464  -20.6695  -12.3803 C   0  0  0  0  0  0  0  0  0  0  0  0
   20.3379  -21.5849  -11.3613 O   0  0  0  0  0  0  0  0  0  0  0  0
   19.0376  -20.1337  -12.4945 O   0  0  0  0  0  0  0  0  0  0  0  0
  1  5  1  0
  1  2  1  0
  2  3  1  0
  4  3  1  0
  5  4  1  0
  6  7  2  0
  5  6  1  6
  9 11  1  0
  9  8  1  6
 10  9  1  0
 11 12  1  6
 12  6  1  0
 13 11  1  0
 14 13  2  0
 16 17  2  0
 16 15  1  0
 18 16  1  0
 19 18  1  0
 20 19  1  0
 20 21  1  0
 22 21  1  6
 22 23  1  0
 23 13  1  0
 24 25  1  0
 24 22  1  0
 26 24  2  0
M  END
$$$$
