PVR.pdb
     RDKit          3D

 26 26  0  0  1  0  0  0  0  0999 V2000
   19.9973  -24.0550  -16.2584 N   0  0  0  0  0  0  0  0  0  0  0  0
   20.2479  -22.7681  -16.8334 C   0  0  0  0  0  0  0  0  0  0  0  0
   20.2537  -21.7517  -15.7123 C   0  0  0  0  0  0  0  0  0  0  0  0
   19.7408  -22.5157  -14.5376 C   0  0  0  0  0  0  0  0  0  0  0  0
   20.2374  -23.9351  -14.8510 C   0  0  1  0  0  0  0  0  0  0  0  0
   19.4619  -24.9227  -14.0371 C   0  0  0  0  0  0  0  0  0  0  0  0
   18.3396  -25.3632  -14.3783 O   0  0  0  0  0  0  0  0  0  0  0  0
   19.8405  -28.1814  -10.4133 C   0  0  0  0  0  0  0  0  0  0  0  0
   20.5073  -27.2892  -11.4367 C   0  0  1  0  0  0  0  0  0  0  0  0
   21.0133  -28.1559  -12.5568 C   0  0  0  0  0  0  0  0  0  0  0  0
   19.4443  -26.3102  -11.9274 C   0  0  2  0  0  0  0  0  0  0  0  0
   20.0212  -25.3702  -12.8403 N   0  0  0  0  0  0  0  0  0  0  0  0
   18.7511  -25.6696  -10.7917 C   0  0  0  0  0  0  0  0  0  0  0  0
   19.4379  -24.9035  -10.0515 O   0  0  0  0  0  0  0  0  0  0  0  0
   12.0957  -21.9851   -7.7001 N   0  0  0  0  0  0  0  0  0  0  0  0
   11.7804  -22.6653   -8.9175 C   0  0  0  0  0  0  0  0  0  0  0  0
   11.0255  -22.1078   -9.7961 N   0  0  0  0  0  0  0  0  0  0  0  0
   12.2815  -23.9536   -9.2050 N   0  0  0  0  0  0  0  0  0  0  0  0
   13.0383  -24.7643   -8.2957 C   0  0  0  0  0  0  0  0  0  0  0  0
   14.5193  -24.6021   -8.3639 C   0  0  0  0  0  0  0  0  0  0  0  0
   15.2198  -25.2954   -9.4905 C   0  0  0  0  0  0  0  0  0  0  0  0
   16.6970  -25.2412   -9.3516 C   0  0  2  0  0  0  0  0  0  0  0  0
   17.3837  -25.8604  -10.4844 N   0  0  0  0  0  0  0  0  0  0  0  0
   17.1200  -25.8861   -8.0823 C   0  0  0  0  0  0  0  0  0  0  0  0
   17.5179  -25.0746   -7.0353 O   0  0  0  0  0  0  0  0  0  0  0  0
   17.1324  -27.1120   -7.9192 O   0  0  0  0  0  0  0  0  0  0  0  0
  1  5  1  0
  1  2  1  0
  2  3  1  0
  4  3  1  0
  5  4  1  0
  6  7  2  0
  5  6  1  1
  9 11  1  0
  9  8  1  1
 10  9  1  0
 11 12  1  6
 12  6  1  0
 13 11  1  0
 14 13  2  0
 16 17  2  0
 16 15  1  0
 18 16  1  0
 19 18  1  0
 20 19  1  0
 20 21  1  0
 22 21  1  6
 22 23  1  0
 23 13  1  0
 24 25  1  0
 24 22  1  0
 26 24  2  0
M  END
$$$$
