PVR.pdb
     RDKit          3D

 26 26  0  0  1  0  0  0  0  0999 V2000
   27.3846  -19.0316  -15.3152 N   0  0  0  0  0  0  0  0  0  0  0  0
   28.5787  -18.4454  -15.8442 C   0  0  0  0  0  0  0  0  0  0  0  0
   29.5763  -19.5580  -16.0823 C   0  0  0  0  0  0  0  0  0  0  0  0
   28.9549  -20.7405  -15.4173 C   0  0  0  0  0  0  0  0  0  0  0  0
   27.4581  -20.4373  -15.5827 C   0  0  1  0  0  0  0  0  0  0  0  0
   26.6747  -21.2616  -14.6101 C   0  0  0  0  0  0  0  0  0  0  0  0
   26.6761  -22.5146  -14.6144 O   0  0  0  0  0  0  0  0  0  0  0  0
   25.2359  -19.2460  -11.1548 C   0  0  0  0  0  0  0  0  0  0  0  0
   25.6079  -20.7091  -11.2493 C   0  0  1  0  0  0  0  0  0  0  0  0
   24.9185  -21.4421  -10.1316 C   0  0  0  0  0  0  0  0  0  0  0  0
   25.1299  -21.1983  -12.6137 C   0  0  2  0  0  0  0  0  0  0  0  0
   25.9065  -20.5962  -13.6549 N   0  0  0  0  0  0  0  0  0  0  0  0
   23.6773  -20.9854  -12.7725 C   0  0  0  0  0  0  0  0  0  0  0  0
   23.2518  -19.7958  -12.6715 O   0  0  0  0  0  0  0  0  0  0  0  0
   18.2889  -24.7297   -7.5262 N   0  0  0  0  0  0  0  0  0  0  0  0
   18.6048  -25.2775   -8.8085 C   0  0  0  0  0  0  0  0  0  0  0  0
   18.5603  -26.5479   -9.0008 N   0  0  0  0  0  0  0  0  0  0  0  0
   18.9665  -24.4604   -9.9016 N   0  0  0  0  0  0  0  0  0  0  0  0
   19.0052  -23.0269   -9.8805 C   0  0  0  0  0  0  0  0  0  0  0  0
   19.4961  -22.3749  -11.1288 C   0  0  0  0  0  0  0  0  0  0  0  0
   20.9427  -22.5660  -11.4623 C   0  0  0  0  0  0  0  0  0  0  0  0
   21.3120  -21.9243  -12.7492 C   0  0  2  0  0  0  0  0  0  0  0  0
   22.7449  -22.0186  -13.0250 N   0  0  0  0  0  0  0  0  0  0  0  0
   20.8815  -20.5028  -12.7594 C   0  0  0  0  0  0  0  0  0  0  0  0
   20.0389  -20.0801  -13.7715 O   0  0  0  0  0  0  0  0  0  0  0  0
   21.2408  -19.6825  -11.9065 O   0  0  0  0  0  0  0  0  0  0  0  0
  1  5  1  0
  1  2  1  0
  2  3  1  0
  4  3  1  0
  5  4  1  0
  6  7  2  0
  5  6  1  1
  9 11  1  0
  9  8  1  1
 10  9  1  0
 11 12  1  6
 12  6  1  0
 13 11  1  0
 14 13  2  0
 16 17  2  0
 16 15  1  0
 18 16  1  0
 19 18  1  0
 20 19  1  0
 20 21  1  0
 22 21  1  1
 22 23  1  0
 23 13  1  0
 24 25  1  0
 24 22  1  0
 26 24  2  0
M  END
$$$$
