PVR.pdb
     RDKit          3D

 26 26  0  0  1  0  0  0  0  0999 V2000
   27.7714  -22.1800  -17.9049 N   0  0  0  0  0  0  0  0  0  0  0  0
   28.6430  -22.6029  -18.9588 C   0  0  0  0  0  0  0  0  0  0  0  0
   30.0052  -22.8697  -18.3562 C   0  0  0  0  0  0  0  0  0  0  0  0
   29.8936  -22.3254  -16.9712 C   0  0  0  0  0  0  0  0  0  0  0  0
   28.4030  -22.5450  -16.6717 C   0  0  1  0  0  0  0  0  0  0  0  0
   27.9947  -21.6765  -15.5236 C   0  0  0  0  0  0  0  0  0  0  0  0
   28.4673  -21.7970  -14.3693 O   0  0  0  0  0  0  0  0  0  0  0  0
   25.8731  -17.4356  -14.3780 C   0  0  0  0  0  0  0  0  0  0  0  0
   26.4594  -18.3535  -15.4275 C   0  0  1  0  0  0  0  0  0  0  0  0
   27.8243  -17.8382  -15.7927 C   0  0  0  0  0  0  0  0  0  0  0  0
   26.5383  -19.7438  -14.8028 C   0  0  2  0  0  0  0  0  0  0  0  0
   27.0400  -20.6867  -15.7562 N   0  0  0  0  0  0  0  0  0  0  0  0
   25.2387  -20.1371  -14.2224 C   0  0  0  0  0  0  0  0  0  0  0  0
   24.2571  -20.2416  -15.0174 O   0  0  0  0  0  0  0  0  0  0  0  0
   19.5336  -21.5634   -9.3733 N   0  0  0  0  0  0  0  0  0  0  0  0
   20.2651  -22.2438   -8.3506 C   0  0  0  0  0  0  0  0  0  0  0  0
   19.7209  -23.2052   -7.6931 N   0  0  0  0  0  0  0  0  0  0  0  0
   21.5960  -21.8994   -8.0288 N   0  0  0  0  0  0  0  0  0  0  0  0
   22.3534  -20.8594   -8.6626 C   0  0  0  0  0  0  0  0  0  0  0  0
   22.4351  -20.9337  -10.1500 C   0  0  0  0  0  0  0  0  0  0  0  0
   23.7729  -20.6614  -10.7636 C   0  0  0  0  0  0  0  0  0  0  0  0
   23.7194  -20.6546  -12.2473 C   0  0  2  0  0  0  0  0  0  0  0  0
   25.0276  -20.3983  -12.8484 N   0  0  0  0  0  0  0  0  0  0  0  0
   22.7323  -19.6522  -12.7236 C   0  0  0  0  0  0  0  0  0  0  0  0
   21.5047  -20.1033  -13.1736 O   0  0  0  0  0  0  0  0  0  0  0  0
   22.9573  -18.4361  -12.7358 O   0  0  0  0  0  0  0  0  0  0  0  0
  1  5  1  0
  1  2  1  0
  2  3  1  0
  4  3  1  0
  5  4  1  0
  6  7  2  0
  5  6  1  1
  9 11  1  0
  9  8  1  1
 10  9  1  0
 11 12  1  6
 12  6  1  0
 13 11  1  0
 14 13  2  0
 16 17  2  0
 16 15  1  0
 18 16  1  0
 19 18  1  0
 20 19  1  0
 20 21  1  0
 22 21  1  1
 22 23  1  0
 23 13  1  0
 24 25  1  0
 24 22  1  0
 26 24  2  0
M  END
$$$$
