PVR.pdb
     RDKit          3D

 26 26  0  0  1  0  0  0  0  0999 V2000
   27.5218  -19.4729  -15.1695 N   0  0  0  0  0  0  0  0  0  0  0  0
   28.7862  -19.2486  -15.8022 C   0  0  0  0  0  0  0  0  0  0  0  0
   29.3976  -20.5983  -16.1096 C   0  0  0  0  0  0  0  0  0  0  0  0
   28.5189  -21.5602  -15.3821 C   0  0  0  0  0  0  0  0  0  0  0  0
   27.1647  -20.8365  -15.4263 C   0  0  1  0  0  0  0  0  0  0  0  0
   26.2601  -21.4128  -14.3829 C   0  0  0  0  0  0  0  0  0  0  0  0
   25.7130  -22.5348  -14.4919 O   0  0  0  0  0  0  0  0  0  0  0  0
   24.7549  -20.9337   -9.7475 C   0  0  0  0  0  0  0  0  0  0  0  0
   25.7228  -20.5123  -10.8308 C   0  0  1  0  0  0  0  0  0  0  0  0
   27.0550  -21.1483  -10.5438 C   0  0  0  0  0  0  0  0  0  0  0  0
   25.1445  -21.0050  -12.1546 C   0  0  2  0  0  0  0  0  0  0  0  0
   26.0174  -20.6583  -13.2352 N   0  0  0  0  0  0  0  0  0  0  0  0
   23.7631  -20.5181  -12.3419 C   0  0  0  0  0  0  0  0  0  0  0  0
   23.6009  -19.2664  -12.4582 O   0  0  0  0  0  0  0  0  0  0  0  0
   18.1730  -18.5777  -16.9345 N   0  0  0  0  0  0  0  0  0  0  0  0
   19.4259  -18.5811  -17.6231 C   0  0  0  0  0  0  0  0  0  0  0  0
   19.6880  -17.6773  -18.4990 N   0  0  0  0  0  0  0  0  0  0  0  0
   20.4149  -19.5566  -17.3702 N   0  0  0  0  0  0  0  0  0  0  0  0
   20.3106  -20.6003  -16.3921 C   0  0  0  0  0  0  0  0  0  0  0  0
   20.7494  -20.2402  -15.0129 C   0  0  0  0  0  0  0  0  0  0  0  0
   20.7832  -21.3488  -14.0078 C   0  0  0  0  0  0  0  0  0  0  0  0
   21.2685  -20.8901  -12.6818 C   0  0  2  0  0  0  0  0  0  0  0  0
   22.6249  -21.3559  -12.3960 N   0  0  0  0  0  0  0  0  0  0  0  0
   20.3394  -21.3325  -11.6108 C   0  0  0  0  0  0  0  0  0  0  0  0
   19.4094  -20.4266  -11.1340 O   0  0  0  0  0  0  0  0  0  0  0  0
   20.3591  -22.4708  -11.1277 O   0  0  0  0  0  0  0  0  0  0  0  0
  1  5  1  0
  1  2  1  0
  2  3  1  0
  4  3  1  0
  5  4  1  0
  6  7  2  0
  5  6  1  1
  9 11  1  0
  9  8  1  1
 10  9  1  0
 11 12  1  6
 12  6  1  0
 13 11  1  0
 14 13  2  0
 16 17  2  0
 16 15  1  0
 18 16  1  0
 19 18  1  0
 20 19  1  0
 20 21  1  0
 22 21  1  6
 22 23  1  0
 23 13  1  0
 24 25  1  0
 24 22  1  0
 26 24  2  0
M  END
$$$$
