SDA.pdb
     RDKit          3D

 20 19  0  0  1  0  0  0  0  0999 V2000
    1.5794  -20.6522   22.0203 O   0  0  0  0  0  0  0  0  0  0  0  0
    2.8813  -20.5490   22.4610 C   0  0  0  0  0  0  0  0  0  0  0  0
    3.7800  -19.8182   21.4859 C   0  0  2  0  0  0  0  0  0  0  0  0
    3.8367  -20.5540   20.2632 N   0  0  0  0  0  0  0  0  0  0  0  0
    5.1296  -19.7604   22.0996 C   0  0  0  0  0  0  0  0  0  0  0  0
    5.5084  -20.7500   22.7825 O   0  0  0  0  0  0  0  0  0  0  0  0
    5.9186  -18.6145   21.8938 N   0  0  0  0  0  0  0  0  0  0  0  0
    7.2870  -18.5854   22.4428 C   0  0  1  0  0  0  0  0  0  0  0  0
    8.0306  -17.6197   21.6078 C   0  0  0  0  0  0  0  0  0  0  0  0
    8.2830  -17.9451   20.2197 C   0  0  0  0  0  0  0  0  0  0  0  0
    8.1621  -17.2498   19.2037 O   0  0  0  0  0  0  0  0  0  0  0  0
    7.2369  -18.2627   23.8852 C   0  0  0  0  0  0  0  0  0  0  0  0
    6.7093  -17.1862   24.2404 O   0  0  0  0  0  0  0  0  0  0  0  0
    8.7396  -19.2635   19.9823 O   0  0  0  0  0  0  0  0  0  0  0  0
    6.7268  -19.3229   27.0281 C   0  0  0  0  0  0  0  0  0  0  0  0
    7.8441  -18.6347   26.2477 C   0  0  2  0  0  0  0  0  0  0  0  0
    7.7533  -19.1042   24.8919 N   0  0  0  0  0  0  0  0  0  0  0  0
    9.1545  -18.8749   26.8646 C   0  0  0  0  0  0  0  0  0  0  0  0
   10.1151  -19.4688   26.3103 O   0  0  0  0  0  0  0  0  0  0  0  0
    9.3585  -18.4148   28.1585 O   0  0  0  0  0  0  0  0  0  0  0  0
  2  1  1  0
  3  5  1  0
  3  2  1  0
  3  4  1  6
  5  6  2  0
  7  8  1  0
  7  5  1  0
  9 10  1  0
  8  9  1  6
 10 14  1  0
 11 10  2  0
 12 13  2  0
 12  8  1  0
 16 15  1  1
 16 17  1  0
 16 18  1  0
 17 12  1  0
 18 20  1  0
 19 18  2  0
M  END
$$$$
