SDA.pdb
     RDKit          3D

 20 19  0  0  1  0  0  0  0  0999 V2000
    9.3087  -11.9257   20.3690 O   0  0  0  0  0  0  0  0  0  0  0  0
    9.6285  -13.1978   19.9456 C   0  0  0  0  0  0  0  0  0  0  0  0
    8.4107  -14.0627   19.6980 C   0  0  2  0  0  0  0  0  0  0  0  0
    7.4377  -13.3029   18.9799 N   0  0  0  0  0  0  0  0  0  0  0  0
    7.8703  -14.4416   21.0268 C   0  0  0  0  0  0  0  0  0  0  0  0
    6.8083  -13.8820   21.4115 O   0  0  0  0  0  0  0  0  0  0  0  0
    8.5610  -15.3994   21.7908 N   0  0  0  0  0  0  0  0  0  0  0  0
    7.9923  -15.8221   23.0840 C   0  0  1  0  0  0  0  0  0  0  0  0
    8.2707  -17.2694   23.1875 C   0  0  0  0  0  0  0  0  0  0  0  0
    7.9057  -17.9661   24.4032 C   0  0  0  0  0  0  0  0  0  0  0  0
    6.8404  -17.9662   25.0322 O   0  0  0  0  0  0  0  0  0  0  0  0
    8.5578  -14.9930   24.1703 C   0  0  0  0  0  0  0  0  0  0  0  0
    9.7881  -14.7702   24.1755 O   0  0  0  0  0  0  0  0  0  0  0  0
    8.9228  -18.7747   24.9639 O   0  0  0  0  0  0  0  0  0  0  0  0
    7.4734  -12.5861   26.6759 C   0  0  0  0  0  0  0  0  0  0  0  0
    8.4244  -13.7109   26.2743 C   0  0  2  0  0  0  0  0  0  0  0  0
    7.7851  -14.4344   25.2091 N   0  0  0  0  0  0  0  0  0  0  0  0
    8.7758  -14.5517   27.4254 C   0  0  0  0  0  0  0  0  0  0  0  0
    8.4892  -15.7711   27.5427 O   0  0  0  0  0  0  0  0  0  0  0  0
    9.4782  -13.9648   28.4692 O   0  0  0  0  0  0  0  0  0  0  0  0
  2  1  1  0
  3  5  1  0
  3  2  1  0
  3  4  1  6
  5  6  2  0
  7  8  1  0
  7  5  1  0
  9 10  1  0
  8  9  1  1
 10 14  1  0
 11 10  2  0
 12 13  2  0
 12  8  1  0
 16 15  1  1
 16 17  1  0
 16 18  1  0
 17 12  1  0
 18 20  1  0
 19 18  2  0
M  END
$$$$
