SDA.pdb
     RDKit          3D

 20 19  0  0  1  0  0  0  0  0999 V2000
   -1.7933  -27.7589   31.6410 O   0  0  0  0  0  0  0  0  0  0  0  0
   -3.0352  -27.5066   31.0990 C   0  0  0  0  0  0  0  0  0  0  0  0
   -3.1395  -27.9125   29.6441 C   0  0  2  0  0  0  0  0  0  0  0  0
   -1.8487  -27.8180   29.0403 N   0  0  0  0  0  0  0  0  0  0  0  0
   -4.0691  -26.9569   28.9928 C   0  0  0  0  0  0  0  0  0  0  0  0
   -3.5831  -26.1235   28.1814 O   0  0  0  0  0  0  0  0  0  0  0  0
   -5.4384  -27.0231   29.3070 N   0  0  0  0  0  0  0  0  0  0  0  0
   -6.3671  -26.0928   28.6388 C   0  0  1  0  0  0  0  0  0  0  0  0
   -7.5556  -26.8984   28.2904 C   0  0  0  0  0  0  0  0  0  0  0  0
   -8.7013  -26.2357   27.7030 C   0  0  0  0  0  0  0  0  0  0  0  0
   -8.7529  -25.3225   26.8701 O   0  0  0  0  0  0  0  0  0  0  0  0
   -6.6283  -24.9336   29.5191 C   0  0  0  0  0  0  0  0  0  0  0  0
   -6.8639  -25.1413   30.7293 O   0  0  0  0  0  0  0  0  0  0  0  0
   -9.9614  -26.7017   28.1477 O   0  0  0  0  0  0  0  0  0  0  0  0
   -6.2206  -21.2835   29.4552 C   0  0  0  0  0  0  0  0  0  0  0  0
   -6.9264  -22.5290   29.9856 C   0  0  2  0  0  0  0  0  0  0  0  0
   -6.6275  -23.5967   29.0705 N   0  0  0  0  0  0  0  0  0  0  0  0
   -8.3648  -22.2947   30.1630 C   0  0  0  0  0  0  0  0  0  0  0  0
   -9.2744  -22.8512   29.4954 O   0  0  0  0  0  0  0  0  0  0  0  0
   -8.7611  -21.3914   31.1400 O   0  0  0  0  0  0  0  0  0  0  0  0
  2  1  1  0
  3  5  1  0
  3  2  1  0
  3  4  1  6
  5  6  2  0
  7  8  1  0
  7  5  1  0
  9 10  1  0
  8  9  1  1
 10 14  1  0
 11 10  2  0
 12 13  2  0
 12  8  1  0
 16 15  1  6
 16 17  1  0
 16 18  1  0
 17 12  1  0
 18 20  1  0
 19 18  2  0
M  END
$$$$
