SDA.pdb
     RDKit          3D

 20 19  0  0  1  0  0  0  0  0999 V2000
    8.5345  -11.7526   20.0535 O   0  0  0  0  0  0  0  0  0  0  0  0
    9.2160  -12.8438   19.5590 C   0  0  0  0  0  0  0  0  0  0  0  0
    8.3385  -14.0673   19.4000 C   0  0  2  0  0  0  0  0  0  0  0  0
    7.1504  -13.7006   18.6975 N   0  0  0  0  0  0  0  0  0  0  0  0
    7.9906  -14.5320   20.7655 C   0  0  0  0  0  0  0  0  0  0  0  0
    6.8072  -14.3571   21.1629 O   0  0  0  0  0  0  0  0  0  0  0  0
    8.9878  -15.1413   21.5481 N   0  0  0  0  0  0  0  0  0  0  0  0
    8.6139  -15.7198   22.8520 C   0  0  1  0  0  0  0  0  0  0  0  0
    9.4936  -16.8927   23.0343 C   0  0  0  0  0  0  0  0  0  0  0  0
    9.4239  -17.6321   24.2772 C   0  0  0  0  0  0  0  0  0  0  0  0
    8.4983  -17.7364   25.0913 O   0  0  0  0  0  0  0  0  0  0  0  0
    8.7187  -14.6850   23.9032 C   0  0  0  0  0  0  0  0  0  0  0  0
    9.7914  -14.0529   24.0170 O   0  0  0  0  0  0  0  0  0  0  0  0
   10.5949  -18.3495   24.6191 O   0  0  0  0  0  0  0  0  0  0  0  0
    6.5790  -12.6366   26.0085 C   0  0  0  0  0  0  0  0  0  0  0  0
    7.8849  -13.4102   25.8445 C   0  0  2  0  0  0  0  0  0  0  0  0
    7.6716  -14.3663   24.7923 N   0  0  0  0  0  0  0  0  0  0  0  0
    8.3099  -14.0181   27.1114 C   0  0  0  0  0  0  0  0  0  0  0  0
    8.4324  -15.2537   27.3137 O   0  0  0  0  0  0  0  0  0  0  0  0
    8.6012  -13.1724   28.1732 O   0  0  0  0  0  0  0  0  0  0  0  0
  2  1  1  0
  3  5  1  0
  3  2  1  0
  3  4  1  6
  5  6  2  0
  7  8  1  0
  7  5  1  0
  9 10  1  0
  8  9  1  1
 10 14  1  0
 11 10  2  0
 12 13  2  0
 12  8  1  0
 16 15  1  1
 16 17  1  0
 16 18  1  0
 17 12  1  0
 18 20  1  0
 19 18  2  0
M  END
$$$$
