SDA.pdb
     RDKit          3D

 20 19  0  0  1  0  0  0  0  0999 V2000
    8.5188  -12.2760   21.4312 O   0  0  0  0  0  0  0  0  0  0  0  0
    7.5061  -12.9328   20.7657 C   0  0  0  0  0  0  0  0  0  0  0  0
    7.8499  -14.3697   20.4349 C   0  0  2  0  0  0  0  0  0  0  0  0
    6.7905  -14.9364   19.6627 N   0  0  0  0  0  0  0  0  0  0  0  0
    7.9738  -15.0939   21.7240 C   0  0  0  0  0  0  0  0  0  0  0  0
    6.9175  -15.5233   22.2615 O   0  0  0  0  0  0  0  0  0  0  0  0
    9.2525  -15.2672   22.2832 N   0  0  0  0  0  0  0  0  0  0  0  0
    9.3842  -16.0450   23.5291 C   0  0  1  0  0  0  0  0  0  0  0  0
   10.3611  -17.1125   23.2307 C   0  0  0  0  0  0  0  0  0  0  0  0
   10.7277  -18.0381   24.2821 C   0  0  0  0  0  0  0  0  0  0  0  0
   10.1127  -18.3674   25.3038 O   0  0  0  0  0  0  0  0  0  0  0  0
    9.7569  -15.1435   24.6407 C   0  0  0  0  0  0  0  0  0  0  0  0
   10.7584  -14.4074   24.5052 O   0  0  0  0  0  0  0  0  0  0  0  0
   11.9851  -18.6672   24.1209 O   0  0  0  0  0  0  0  0  0  0  0  0
    8.4533  -13.1685   27.1667 C   0  0  0  0  0  0  0  0  0  0  0  0
    9.5245  -14.2281   26.9203 C   0  0  2  0  0  0  0  0  0  0  0  0
    9.0435  -15.0644   25.8545 N   0  0  0  0  0  0  0  0  0  0  0  0
    9.8389  -14.9675   28.1490 C   0  0  0  0  0  0  0  0  0  0  0  0
    9.6292  -16.1953   28.3262 O   0  0  0  0  0  0  0  0  0  0  0  0
   10.4118  -14.2664   29.2015 O   0  0  0  0  0  0  0  0  0  0  0  0
  2  1  1  0
  3  5  1  0
  3  2  1  0
  3  4  1  6
  5  6  2  0
  7  8  1  0
  7  5  1  0
  9 10  1  0
  8  9  1  6
 10 14  1  0
 11 10  2  0
 12 13  2  0
 12  8  1  0
 16 15  1  1
 16 17  1  0
 16 18  1  0
 17 12  1  0
 18 20  1  0
 19 18  2  0
M  END
$$$$
