SDA.pdb
     RDKit          3D

 20 19  0  0  1  0  0  0  0  0999 V2000
    7.0258  -17.5907   21.3346 O   0  0  0  0  0  0  0  0  0  0  0  0
    6.9414  -17.4035   19.9717 C   0  0  0  0  0  0  0  0  0  0  0  0
    7.7418  -18.4191   19.1842 C   0  0  2  0  0  0  0  0  0  0  0  0
    7.1021  -19.6924   19.2803 N   0  0  0  0  0  0  0  0  0  0  0  0
    9.0879  -18.4860   19.8046 C   0  0  0  0  0  0  0  0  0  0  0  0
    9.3208  -19.4320   20.6046 O   0  0  0  0  0  0  0  0  0  0  0  0
   10.0351  -17.4999   19.4754 N   0  0  0  0  0  0  0  0  0  0  0  0
   11.3711  -17.5617   20.0966 C   0  0  1  0  0  0  0  0  0  0  0  0
   12.2884  -16.9190   19.1330 C   0  0  0  0  0  0  0  0  0  0  0  0
   13.7055  -16.8915   19.4289 C   0  0  0  0  0  0  0  0  0  0  0  0
   14.4598  -15.9309   19.6258 O   0  0  0  0  0  0  0  0  0  0  0  0
   11.3258  -16.9362   21.4359 C   0  0  0  0  0  0  0  0  0  0  0  0
   12.3839  -16.8598   22.0976 O   0  0  0  0  0  0  0  0  0  0  0  0
   14.3305  -18.1589   19.5060 O   0  0  0  0  0  0  0  0  0  0  0  0
    9.0003  -14.8464   23.3857 C   0  0  0  0  0  0  0  0  0  0  0  0
   10.2004  -15.7867   23.3069 C   0  0  2  0  0  0  0  0  0  0  0  0
   10.1502  -16.4165   22.0156 N   0  0  0  0  0  0  0  0  0  0  0  0
   10.2083  -16.7396   24.4238 C   0  0  0  0  0  0  0  0  0  0  0  0
   10.0638  -17.9843   24.3115 O   0  0  0  0  0  0  0  0  0  0  0  0
   10.3884  -16.2379   25.7056 O   0  0  0  0  0  0  0  0  0  0  0  0
  2  1  1  0
  3  5  1  0
  3  2  1  0
  3  4  1  1
  5  6  2  0
  7  8  1  0
  7  5  1  0
  9 10  1  0
  8  9  1  6
 10 14  1  0
 11 10  2  0
 12 13  2  0
 12  8  1  0
 16 15  1  1
 16 17  1  0
 16 18  1  0
 17 12  1  0
 18 20  1  0
 19 18  2  0
M  END
$$$$
