SDA.pdb
     RDKit          3D

 20 19  0  0  1  0  0  0  0  0999 V2000
    7.3380  -11.9897   18.8385 O   0  0  0  0  0  0  0  0  0  0  0  0
    8.2612  -12.9500   19.1925 C   0  0  0  0  0  0  0  0  0  0  0  0
    8.8648  -13.6593   17.9989 C   0  0  2  0  0  0  0  0  0  0  0  0
    7.8405  -14.3922   17.3255 N   0  0  0  0  0  0  0  0  0  0  0  0
    9.8894  -14.5956   18.5232 C   0  0  0  0  0  0  0  0  0  0  0  0
    9.5961  -15.8206   18.5742 O   0  0  0  0  0  0  0  0  0  0  0  0
   11.1308  -14.0792   18.9360 N   0  0  0  0  0  0  0  0  0  0  0  0
   12.1665  -15.0140   19.4135 C   0  0  1  0  0  0  0  0  0  0  0  0
   13.4535  -14.4484   18.9590 C   0  0  0  0  0  0  0  0  0  0  0  0
   14.6733  -15.1791   19.2322 C   0  0  0  0  0  0  0  0  0  0  0  0
   15.8026  -14.7646   19.5209 O   0  0  0  0  0  0  0  0  0  0  0  0
   12.0387  -15.1925   20.8760 C   0  0  0  0  0  0  0  0  0  0  0  0
   12.5914  -14.3635   21.6313 O   0  0  0  0  0  0  0  0  0  0  0  0
   14.5621  -16.5880   19.1587 O   0  0  0  0  0  0  0  0  0  0  0  0
    9.8097  -16.6286   23.2705 C   0  0  0  0  0  0  0  0  0  0  0  0
   11.2686  -16.3649   22.9059 C   0  0  2  0  0  0  0  0  0  0  0  0
   11.3245  -16.2511   21.4739 N   0  0  0  0  0  0  0  0  0  0  0  0
   12.1520  -17.4057   23.4461 C   0  0  0  0  0  0  0  0  0  0  0  0
   12.8488  -18.1916   22.7536 O   0  0  0  0  0  0  0  0  0  0  0  0
   12.2309  -17.5404   24.8256 O   0  0  0  0  0  0  0  0  0  0  0  0
  2  1  1  0
  3  5  1  0
  3  2  1  0
  3  4  1  1
  5  6  2  0
  7  8  1  0
  7  5  1  0
  9 10  1  0
  8  9  1  1
 10 14  1  0
 11 10  2  0
 12 13  2  0
 12  8  1  0
 16 15  1  6
 16 17  1  0
 16 18  1  0
 17 12  1  0
 18 20  1  0
 19 18  2  0
M  END
$$$$
