SDA.pdb
     RDKit          3D

 20 19  0  0  1  0  0  0  0  0999 V2000
    9.1461  -12.1254   18.8109 O   0  0  0  0  0  0  0  0  0  0  0  0
    8.6009  -12.6801   19.9487 C   0  0  0  0  0  0  0  0  0  0  0  0
    8.2209  -14.1353   19.7742 C   0  0  2  0  0  0  0  0  0  0  0  0
    7.0650  -14.2181   18.9394 N   0  0  0  0  0  0  0  0  0  0  0  0
    7.9044  -14.6658   21.1232 C   0  0  0  0  0  0  0  0  0  0  0  0
    6.7040  -14.6228   21.5057 O   0  0  0  0  0  0  0  0  0  0  0  0
    8.9485  -15.1881   21.9076 N   0  0  0  0  0  0  0  0  0  0  0  0
    8.6268  -15.7672   23.2251 C   0  0  1  0  0  0  0  0  0  0  0  0
    9.5788  -16.8811   23.4136 C   0  0  0  0  0  0  0  0  0  0  0  0
    9.5442  -17.6277   24.6538 C   0  0  0  0  0  0  0  0  0  0  0  0
    8.7296  -17.5896   25.5841 O   0  0  0  0  0  0  0  0  0  0  0  0
    8.6811  -14.7110   24.2588 C   0  0  0  0  0  0  0  0  0  0  0  0
    9.7427  -14.0661   24.4014 O   0  0  0  0  0  0  0  0  0  0  0  0
   10.6057  -18.5459   24.8353 O   0  0  0  0  0  0  0  0  0  0  0  0
    6.4120  -12.6259   26.1789 C   0  0  0  0  0  0  0  0  0  0  0  0
    7.7446  -13.3673   26.1043 C   0  0  2  0  0  0  0  0  0  0  0  0
    7.5973  -14.3854   25.1001 N   0  0  0  0  0  0  0  0  0  0  0  0
    8.1397  -13.8919   27.4173 C   0  0  0  0  0  0  0  0  0  0  0  0
    8.3513  -13.1912   28.4405 O   0  0  0  0  0  0  0  0  0  0  0  0
    8.2942  -15.2652   27.5494 O   0  0  0  0  0  0  0  0  0  0  0  0
  2  1  1  0
  3  5  1  0
  3  2  1  0
  3  4  1  6
  5  6  2  0
  7  8  1  0
  7  5  1  0
  9 10  1  0
  8  9  1  1
 10 14  1  0
 11 10  2  0
 12 13  2  0
 12  8  1  0
 16 15  1  1
 16 17  1  0
 16 18  1  0
 17 12  1  0
 18 20  1  0
 19 18  2  0
M  END
$$$$
