SDA.pdb
     RDKit          3D

 20 19  0  0  1  0  0  0  0  0999 V2000
   -2.1658  -26.7419   27.4295 O   0  0  0  0  0  0  0  0  0  0  0  0
   -3.1792  -26.3411   28.2733 C   0  0  0  0  0  0  0  0  0  0  0  0
   -2.7636  -25.2263   29.2097 C   0  0  2  0  0  0  0  0  0  0  0  0
   -1.6785  -25.6791   30.0205 N   0  0  0  0  0  0  0  0  0  0  0  0
   -3.9357  -24.9195   30.0661 C   0  0  0  0  0  0  0  0  0  0  0  0
   -3.8275  -25.1210   31.3058 O   0  0  0  0  0  0  0  0  0  0  0  0
   -5.1043  -24.4223   29.4619 N   0  0  0  0  0  0  0  0  0  0  0  0
   -6.2261  -24.0023   30.3221 C   0  0  1  0  0  0  0  0  0  0  0  0
   -6.6386  -22.6758   29.8191 C   0  0  0  0  0  0  0  0  0  0  0  0
   -7.6462  -21.9343   30.5482 C   0  0  0  0  0  0  0  0  0  0  0  0
   -8.2203  -22.2034   31.6105 O   0  0  0  0  0  0  0  0  0  0  0  0
   -7.2812  -25.0384   30.3039 C   0  0  0  0  0  0  0  0  0  0  0  0
   -7.7758  -25.3707   29.2047 O   0  0  0  0  0  0  0  0  0  0  0  0
   -8.0394  -20.7097   29.9579 O   0  0  0  0  0  0  0  0  0  0  0  0
   -8.4862  -27.7730   32.3355 C   0  0  0  0  0  0  0  0  0  0  0  0
   -8.8246  -26.6470   31.3617 C   0  0  2  0  0  0  0  0  0  0  0  0
   -7.7664  -25.6791   31.4625 N   0  0  0  0  0  0  0  0  0  0  0  0
  -10.1561  -26.0896   31.6294 C   0  0  0  0  0  0  0  0  0  0  0  0
  -11.2443  -26.6771   31.3981 O   0  0  0  0  0  0  0  0  0  0  0  0
  -10.2300  -24.8172   32.1799 O   0  0  0  0  0  0  0  0  0  0  0  0
  2  1  1  0
  3  5  1  0
  3  2  1  0
  3  4  1  1
  5  6  2  0
  7  8  1  0
  7  5  1  0
  9 10  1  0
  8  9  1  6
 10 14  1  0
 11 10  2  0
 12 13  2  0
 12  8  1  0
 16 15  1  1
 16 17  1  0
 16 18  1  0
 17 12  1  0
 18 20  1  0
 19 18  2  0
M  END
$$$$
