SDA.pdb
     RDKit          3D

 20 19  0  0  1  0  0  0  0  0999 V2000
   10.6590  -17.5476   17.0738 O   0  0  0  0  0  0  0  0  0  0  0  0
   10.5762  -18.9026   16.8357 C   0  0  0  0  0  0  0  0  0  0  0  0
    9.2558  -19.5007   17.2730 C   0  0  2  0  0  0  0  0  0  0  0  0
    8.1908  -18.7991   16.6303 N   0  0  0  0  0  0  0  0  0  0  0  0
    9.1622  -19.3177   18.7424 C   0  0  0  0  0  0  0  0  0  0  0  0
    8.3319  -18.4755   19.1788 O   0  0  0  0  0  0  0  0  0  0  0  0
    9.9965  -20.0850   19.5750 N   0  0  0  0  0  0  0  0  0  0  0  0
    9.8603  -19.9499   21.0371 C   0  0  1  0  0  0  0  0  0  0  0  0
   10.4516  -21.1779   21.6073 C   0  0  0  0  0  0  0  0  0  0  0  0
   10.3933  -21.3817   23.0397 C   0  0  0  0  0  0  0  0  0  0  0  0
    9.8880  -20.6799   23.9243 O   0  0  0  0  0  0  0  0  0  0  0  0
   10.4867  -18.6855   21.4798 C   0  0  0  0  0  0  0  0  0  0  0  0
   11.6188  -18.3909   21.0385 O   0  0  0  0  0  0  0  0  0  0  0  0
   11.0088  -22.5677   23.5060 O   0  0  0  0  0  0  0  0  0  0  0  0
    9.4462  -15.5591   23.1020 C   0  0  0  0  0  0  0  0  0  0  0  0
   10.5390  -16.5574   22.7276 C   0  0  2  0  0  0  0  0  0  0  0  0
    9.8775  -17.7848   22.3776 N   0  0  0  0  0  0  0  0  0  0  0  0
   11.5200  -16.7081   23.8093 C   0  0  0  0  0  0  0  0  0  0  0  0
   11.6437  -17.7287   24.5344 O   0  0  0  0  0  0  0  0  0  0  0  0
   12.3815  -15.6483   24.0585 O   0  0  0  0  0  0  0  0  0  0  0  0
  2  1  1  0
  3  5  1  0
  3  2  1  0
  3  4  1  6
  5  6  2  0
  7  8  1  0
  7  5  1  0
  9 10  1  0
  8  9  1  1
 10 14  1  0
 11 10  2  0
 12 13  2  0
 12  8  1  0
 16 15  1  1
 16 17  1  0
 16 18  1  0
 17 12  1  0
 18 20  1  0
 19 18  2  0
M  END
$$$$
