SDA.pdb
     RDKit          3D

 20 19  0  0  1  0  0  0  0  0999 V2000
    7.9018  -19.2062   15.3419 O   0  0  0  0  0  0  0  0  0  0  0  0
    8.1650  -19.9628   16.4635 C   0  0  0  0  0  0  0  0  0  0  0  0
    8.3481  -21.4338   16.1555 C   0  0  2  0  0  0  0  0  0  0  0  0
    7.0989  -21.9798   15.7300 N   0  0  0  0  0  0  0  0  0  0  0  0
    8.7795  -22.0901   17.4143 C   0  0  0  0  0  0  0  0  0  0  0  0
    7.8963  -22.3482   18.2760 O   0  0  0  0  0  0  0  0  0  0  0  0
   10.1421  -22.3921   17.5881 N   0  0  0  0  0  0  0  0  0  0  0  0
   10.5723  -23.0417   18.8401 C   0  0  1  0  0  0  0  0  0  0  0  0
   11.6489  -23.9770   18.4539 C   0  0  0  0  0  0  0  0  0  0  0  0
   12.3004  -24.7569   19.4854 C   0  0  0  0  0  0  0  0  0  0  0  0
   11.8225  -25.3316   20.4711 O   0  0  0  0  0  0  0  0  0  0  0  0
   10.9584  -22.0108   19.8276 C   0  0  0  0  0  0  0  0  0  0  0  0
   11.6152  -21.0217   19.4357 O   0  0  0  0  0  0  0  0  0  0  0  0
   13.7033  -24.8848   19.3495 O   0  0  0  0  0  0  0  0  0  0  0  0
    9.8260  -20.5988   22.8805 C   0  0  0  0  0  0  0  0  0  0  0  0
   11.0578  -21.0412   22.0945 C   0  0  2  0  0  0  0  0  0  0  0  0
   10.6269  -22.0779   21.1966 N   0  0  0  0  0  0  0  0  0  0  0  0
   12.1442  -21.4561   22.9905 C   0  0  0  0  0  0  0  0  0  0  0  0
   12.5257  -22.6429   23.1608 O   0  0  0  0  0  0  0  0  0  0  0  0
   12.8072  -20.4704   23.7090 O   0  0  0  0  0  0  0  0  0  0  0  0
  2  1  1  0
  3  5  1  0
  3  2  1  0
  3  4  1  1
  5  6  2  0
  7  8  1  0
  7  5  1  0
  9 10  1  0
  8  9  1  6
 10 14  1  0
 11 10  2  0
 12 13  2  0
 12  8  1  0
 16 15  1  1
 16 17  1  0
 16 18  1  0
 17 12  1  0
 18 20  1  0
 19 18  2  0
M  END
$$$$
