SDA.pdb
     RDKit          3D

 20 19  0  0  1  0  0  0  0  0999 V2000
    8.4411  -13.5672   19.7446 O   0  0  0  0  0  0  0  0  0  0  0  0
    8.6520  -14.0648   21.0125 C   0  0  0  0  0  0  0  0  0  0  0  0
    8.6467  -15.5780   21.0628 C   0  0  2  0  0  0  0  0  0  0  0  0
    7.3444  -16.0512   20.7168 N   0  0  0  0  0  0  0  0  0  0  0  0
    8.9672  -15.9668   22.4584 C   0  0  0  0  0  0  0  0  0  0  0  0
    8.0060  -16.1654   23.2494 O   0  0  0  0  0  0  0  0  0  0  0  0
   10.3169  -16.0950   22.8327 N   0  0  0  0  0  0  0  0  0  0  0  0
   10.6368  -16.6569   24.1580 C   0  0  1  0  0  0  0  0  0  0  0  0
   11.9386  -17.3372   23.9984 C   0  0  0  0  0  0  0  0  0  0  0  0
   11.9841  -18.6037   23.2981 C   0  0  0  0  0  0  0  0  0  0  0  0
   11.2115  -19.5687   23.3459 O   0  0  0  0  0  0  0  0  0  0  0  0
   10.6086  -15.5822   25.1734 C   0  0  0  0  0  0  0  0  0  0  0  0
   11.4361  -14.6494   25.0819 O   0  0  0  0  0  0  0  0  0  0  0  0
   13.0819  -18.7688   22.4203 O   0  0  0  0  0  0  0  0  0  0  0  0
    8.4625  -13.8415   27.3591 C   0  0  0  0  0  0  0  0  0  0  0  0
    9.8178  -14.5379   27.2646 C   0  0  2  0  0  0  0  0  0  0  0  0
    9.6959  -15.5469   26.2478 N   0  0  0  0  0  0  0  0  0  0  0  0
   10.2402  -15.0667   28.5674 C   0  0  0  0  0  0  0  0  0  0  0  0
   10.4016  -16.2857   28.8334 O   0  0  0  0  0  0  0  0  0  0  0  0
   10.4823  -14.1597   29.5901 O   0  0  0  0  0  0  0  0  0  0  0  0
  2  1  1  0
  3  5  1  0
  3  2  1  0
  3  4  1  1
  5  6  2  0
  7  8  1  0
  7  5  1  0
  9 10  1  0
  8  9  1  6
 10 14  1  0
 11 10  2  0
 12 13  2  0
 12  8  1  0
 16 15  1  1
 16 17  1  0
 16 18  1  0
 17 12  1  0
 18 20  1  0
 19 18  2  0
M  END
$$$$
