SDA.pdb
     RDKit          3D

 20 19  0  0  1  0  0  0  0  0999 V2000
   -5.6161  -21.0201   27.3107 O   0  0  0  0  0  0  0  0  0  0  0  0
   -4.9685  -21.4666   28.4425 C   0  0  0  0  0  0  0  0  0  0  0  0
   -4.2849  -22.8030   28.2448 C   0  0  2  0  0  0  0  0  0  0  0  0
   -3.7621  -22.8671   26.9173 N   0  0  0  0  0  0  0  0  0  0  0  0
   -5.3196  -23.8507   28.4274 C   0  0  0  0  0  0  0  0  0  0  0  0
   -5.6340  -24.5482   27.4256 O   0  0  0  0  0  0  0  0  0  0  0  0
   -5.8979  -24.0171   29.6986 N   0  0  0  0  0  0  0  0  0  0  0  0
   -6.9016  -25.0804   29.8895 C   0  0  1  0  0  0  0  0  0  0  0  0
   -6.2769  -26.0581   30.8043 C   0  0  0  0  0  0  0  0  0  0  0  0
   -7.0398  -27.2187   31.2135 C   0  0  0  0  0  0  0  0  0  0  0  0
   -7.0215  -27.8495   32.2775 O   0  0  0  0  0  0  0  0  0  0  0  0
   -8.1680  -24.4877   30.3711 C   0  0  0  0  0  0  0  0  0  0  0  0
   -8.1248  -23.6636   31.3105 O   0  0  0  0  0  0  0  0  0  0  0  0
   -7.9503  -27.7130   30.2494 O   0  0  0  0  0  0  0  0  0  0  0  0
  -11.7652  -24.5588   29.4262 C   0  0  0  0  0  0  0  0  0  0  0  0
  -10.6158  -24.1768   30.3556 C   0  0  2  0  0  0  0  0  0  0  0  0
   -9.4318  -24.7995   29.8291 N   0  0  0  0  0  0  0  0  0  0  0  0
  -10.9050  -24.5491   31.7460 C   0  0  0  0  0  0  0  0  0  0  0  0
  -10.7471  -25.6982   32.2331 O   0  0  0  0  0  0  0  0  0  0  0  0
  -11.3901  -23.5642   32.5956 O   0  0  0  0  0  0  0  0  0  0  0  0
  2  1  1  0
  3  5  1  0
  3  2  1  0
  3  4  1  6
  5  6  2  0
  7  8  1  0
  7  5  1  0
  9 10  1  0
  8  9  1  1
 10 14  1  0
 11 10  2  0
 12 13  2  0
 12  8  1  0
 16 15  1  6
 16 17  1  0
 16 18  1  0
 17 12  1  0
 18 20  1  0
 19 18  2  0
M  END
$$$$
