SDA.pdb
     RDKit          3D

 20 19  0  0  1  0  0  0  0  0999 V2000
    7.3889  -12.6793   19.2744 O   0  0  0  0  0  0  0  0  0  0  0  0
    8.5055  -12.5156   18.4831 C   0  0  0  0  0  0  0  0  0  0  0  0
    8.7385  -13.6774   17.5406 C   0  0  2  0  0  0  0  0  0  0  0  0
    7.5286  -13.9538   16.8338 N   0  0  0  0  0  0  0  0  0  0  0  0
    9.1095  -14.8461   18.3761 C   0  0  0  0  0  0  0  0  0  0  0  0
    8.2425  -15.7448   18.5489 O   0  0  0  0  0  0  0  0  0  0  0  0
   10.4000  -14.8983   18.9327 N   0  0  0  0  0  0  0  0  0  0  0  0
   10.7573  -16.0410   19.7936 C   0  0  1  0  0  0  0  0  0  0  0  0
   12.0472  -16.5418   19.2756 C   0  0  0  0  0  0  0  0  0  0  0  0
   12.6685  -17.6763   19.9264 C   0  0  0  0  0  0  0  0  0  0  0  0
   13.5781  -17.7145   20.7639 O   0  0  0  0  0  0  0  0  0  0  0  0
   10.7713  -15.6117   21.2087 C   0  0  0  0  0  0  0  0  0  0  0  0
   11.6061  -14.7521   21.5659 O   0  0  0  0  0  0  0  0  0  0  0  0
   12.1594  -18.9417   19.5491 O   0  0  0  0  0  0  0  0  0  0  0  0
    8.6469  -15.4288   24.0949 C   0  0  0  0  0  0  0  0  0  0  0  0
   10.0453  -15.7341   23.5638 C   0  0  2  0  0  0  0  0  0  0  0  0
    9.8916  -16.1186   22.1872 N   0  0  0  0  0  0  0  0  0  0  0  0
   10.7200  -16.7479   24.3837 C   0  0  0  0  0  0  0  0  0  0  0  0
   11.0204  -17.9065   23.9961 O   0  0  0  0  0  0  0  0  0  0  0  0
   11.0561  -16.4114   25.6880 O   0  0  0  0  0  0  0  0  0  0  0  0
  2  1  1  0
  3  5  1  0
  3  2  1  0
  3  4  1  1
  5  6  2  0
  7  8  1  0
  7  5  1  0
  9 10  1  0
  8  9  1  6
 10 14  1  0
 11 10  2  0
 12 13  2  0
 12  8  1  0
 16 15  1  1
 16 17  1  0
 16 18  1  0
 17 12  1  0
 18 20  1  0
 19 18  2  0
M  END
$$$$
