SDA.pdb
     RDKit          3D

 20 19  0  0  1  0  0  0  0  0999 V2000
    6.0153  -14.8353   22.2265 O   0  0  0  0  0  0  0  0  0  0  0  0
    6.8853  -14.1902   21.3742 C   0  0  0  0  0  0  0  0  0  0  0  0
    7.6281  -15.1388   20.4573 C   0  0  2  0  0  0  0  0  0  0  0  0
    6.6812  -15.9439   19.7537 N   0  0  0  0  0  0  0  0  0  0  0  0
    8.4763  -15.9993   21.3185 C   0  0  0  0  0  0  0  0  0  0  0  0
    8.0463  -17.1484   21.6077 O   0  0  0  0  0  0  0  0  0  0  0  0
    9.7109  -15.4988   21.7694 N   0  0  0  0  0  0  0  0  0  0  0  0
   10.5452  -16.3452   22.6425 C   0  0  1  0  0  0  0  0  0  0  0  0
   11.9419  -15.9581   22.3557 C   0  0  0  0  0  0  0  0  0  0  0  0
   13.0133  -16.6447   23.0466 C   0  0  0  0  0  0  0  0  0  0  0  0
   13.0870  -17.8160   23.4377 O   0  0  0  0  0  0  0  0  0  0  0  0
   10.1217  -16.1771   24.0494 C   0  0  0  0  0  0  0  0  0  0  0  0
   10.1141  -15.0269   24.5396 O   0  0  0  0  0  0  0  0  0  0  0  0
   14.1572  -15.8576   23.3195 O   0  0  0  0  0  0  0  0  0  0  0  0
    7.9500  -16.8481   26.4152 C   0  0  0  0  0  0  0  0  0  0  0  0
    9.4604  -17.0186   26.2727 C   0  0  2  0  0  0  0  0  0  0  0  0
    9.7227  -17.2462   24.8777 N   0  0  0  0  0  0  0  0  0  0  0  0
    9.9634  -18.0866   27.1455 C   0  0  0  0  0  0  0  0  0  0  0  0
   10.4816  -19.1611   26.7460 O   0  0  0  0  0  0  0  0  0  0  0  0
    9.8637  -17.9058   28.5184 O   0  0  0  0  0  0  0  0  0  0  0  0
  2  1  1  0
  3  5  1  0
  3  2  1  0
  3  4  1  1
  5  6  2  0
  7  8  1  0
  7  5  1  0
  9 10  1  0
  8  9  1  1
 10 14  1  0
 11 10  2  0
 12 13  2  0
 12  8  1  0
 16 15  1  6
 16 17  1  0
 16 18  1  0
 17 12  1  0
 18 20  1  0
 19 18  2  0
M  END
$$$$
