SDA.pdb
     RDKit          3D

 20 19  0  0  1  0  0  0  0  0999 V2000
    8.2611  -11.8144   20.1576 O   0  0  0  0  0  0  0  0  0  0  0  0
    8.9465  -12.9624   19.8230 C   0  0  0  0  0  0  0  0  0  0  0  0
    8.0516  -14.1801   19.7297 C   0  0  2  0  0  0  0  0  0  0  0  0
    6.7940  -13.7926   19.1746 N   0  0  0  0  0  0  0  0  0  0  0  0
    7.8563  -14.6818   21.1123 C   0  0  0  0  0  0  0  0  0  0  0  0
    6.7337  -14.4929   21.6538 O   0  0  0  0  0  0  0  0  0  0  0  0
    8.9228  -15.3397   21.7509 N   0  0  0  0  0  0  0  0  0  0  0  0
    8.6999  -15.9253   23.0858 C   0  0  1  0  0  0  0  0  0  0  0  0
    9.6444  -17.0569   23.1870 C   0  0  0  0  0  0  0  0  0  0  0  0
    9.7676  -17.7535   24.4504 C   0  0  0  0  0  0  0  0  0  0  0  0
   10.7731  -18.1853   25.0273 O   0  0  0  0  0  0  0  0  0  0  0  0
    8.8571  -14.8797   24.1197 C   0  0  0  0  0  0  0  0  0  0  0  0
    9.9343  -14.2472   24.1733 O   0  0  0  0  0  0  0  0  0  0  0  0
    8.5505  -17.9781   25.1368 O   0  0  0  0  0  0  0  0  0  0  0  0
    6.8254  -12.7493   26.2213 C   0  0  0  0  0  0  0  0  0  0  0  0
    8.1100  -13.5596   26.0659 C   0  0  2  0  0  0  0  0  0  0  0  0
    7.8557  -14.5511   25.0565 N   0  0  0  0  0  0  0  0  0  0  0  0
    8.5436  -14.1270   27.3486 C   0  0  0  0  0  0  0  0  0  0  0  0
    8.6106  -15.3562   27.6083 O   0  0  0  0  0  0  0  0  0  0  0  0
    8.9097  -13.2475   28.3585 O   0  0  0  0  0  0  0  0  0  0  0  0
  2  1  1  0
  3  5  1  0
  3  2  1  0
  3  4  1  1
  5  6  2  0
  7  8  1  0
  7  5  1  0
  9 10  1  0
  8  9  1  1
 10 14  1  0
 11 10  2  0
 12 13  2  0
 12  8  1  0
 16 15  1  1
 16 17  1  0
 16 18  1  0
 17 12  1  0
 18 20  1  0
 19 18  2  0
M  END
$$$$
