CYG.pdb
     RDKit          3D

 23 23  0  0  1  0  0  0  0  0999 V2000
    7.6098  -13.1513   19.6004 N   0  0  0  0  0  0  0  0  0  0  0  0
    7.6029  -14.3597   20.3607 C   0  0  1  0  0  0  0  0  0  0  0  0
    8.1441  -15.5053   19.5398 C   0  0  0  0  0  0  0  0  0  0  0  0
    7.7169  -17.0886   20.2694 S   0  0  0  0  0  0  0  0  0  0  0  0
    8.3438  -14.2671   21.6313 C   0  0  0  0  0  0  0  0  0  0  0  0
    9.2847  -13.4368   21.7085 O   0  0  0  0  0  0  0  0  0  0  0  0
    6.0701  -10.2382   27.5092 O   0  0  0  0  0  0  0  0  0  0  0  0
    6.4513  -11.4412   26.9339 C   0  0  0  0  0  0  0  0  0  0  0  0
    7.7848  -11.6036   26.6443 C   0  0  0  0  0  0  0  0  0  0  0  0
    8.2228  -12.7942   26.0649 C   0  0  0  0  0  0  0  0  0  0  0  0
    7.3511  -13.8206   25.7720 C   0  0  0  0  0  0  0  0  0  0  0  0
    7.8432  -15.0326   25.1446 C   0  0  0  0  0  0  0  0  0  0  0  0
    8.8352  -14.8849   24.0274 C   0  0  2  0  0  0  0  0  0  0  0  0
    8.0668  -15.0528   22.7754 N   0  0  0  0  0  0  0  0  0  0  0  0
    9.7894  -16.0105   24.0883 C   0  0  0  0  0  0  0  0  0  0  0  0
    9.7311  -16.8264   25.0685 O   0  0  0  0  0  0  0  0  0  0  0  0
    6.0184  -13.6301   26.0735 C   0  0  0  0  0  0  0  0  0  0  0  0
    5.5757  -12.4435   26.6519 C   0  0  0  0  0  0  0  0  0  0  0  0
   10.7929  -16.2805   23.1296 N   0  0  0  0  0  0  0  0  0  0  0  0
   11.9451  -17.0862   23.4876 C   0  0  0  0  0  0  0  0  0  0  0  0
   12.9004  -17.2227   22.3807 C   0  0  0  0  0  0  0  0  0  0  0  0
   13.9433  -17.8839   22.5733 O   0  0  0  0  0  0  0  0  0  0  0  0
   12.6438  -16.6298   21.1563 O   0  0  0  0  0  0  0  0  0  0  0  0
  2  5  1  0
  2  1  1  6
  3  2  1  0
  4  3  1  0
  5  6  2  0
  8  7  1  0
  8 18  2  0
  9  8  1  0
 10  9  2  0
 10 11  1  0
 11 17  2  0
 12 11  1  0
 13 12  1  1
 14 13  1  0
 14  5  1  0
 15 19  1  0
 15 13  1  0
 16 15  2  0
 17 18  1  0
 20 21  1  0
 20 19  1  0
 21 23  1  0
 22 21  2  0
M  END
$$$$
