CYG.pdb
     RDKit          3D

 23 23  0  0  1  0  0  0  0  0999 V2000
    6.2465  -15.1358   20.4402 N   0  0  0  0  0  0  0  0  0  0  0  0
    6.7730  -16.0466   21.4054 C   0  0  1  0  0  0  0  0  0  0  0  0
    7.2585  -17.3085   20.7337 C   0  0  0  0  0  0  0  0  0  0  0  0
    6.1662  -18.6909   21.0766 S   0  0  0  0  0  0  0  0  0  0  0  0
    7.8526  -15.4785   22.2322 C   0  0  0  0  0  0  0  0  0  0  0  0
    8.6152  -14.6280   21.7069 O   0  0  0  0  0  0  0  0  0  0  0  0
    5.1242  -10.5756   26.8850 O   0  0  0  0  0  0  0  0  0  0  0  0
    5.9906  -11.6185   26.5932 C   0  0  0  0  0  0  0  0  0  0  0  0
    5.4869  -12.8944   26.6746 C   0  0  0  0  0  0  0  0  0  0  0  0
    6.3151  -13.9803   26.3916 C   0  0  0  0  0  0  0  0  0  0  0  0
    7.6340  -13.8102   26.0298 C   0  0  0  0  0  0  0  0  0  0  0  0
    8.4693  -14.9675   25.7699 C   0  0  0  0  0  0  0  0  0  0  0  0
    9.0783  -15.0938   24.4035 C   0  0  2  0  0  0  0  0  0  0  0  0
    8.0904  -15.8268   23.5831 N   0  0  0  0  0  0  0  0  0  0  0  0
   10.2723  -15.9582   24.4942 C   0  0  0  0  0  0  0  0  0  0  0  0
   11.3128  -15.5250   25.0940 O   0  0  0  0  0  0  0  0  0  0  0  0
    8.1128  -12.5184   25.9562 C   0  0  0  0  0  0  0  0  0  0  0  0
    7.2904  -11.4308   26.2377 C   0  0  0  0  0  0  0  0  0  0  0  0
   10.3740  -17.2652   23.9645 N   0  0  0  0  0  0  0  0  0  0  0  0
   11.5738  -18.0502   24.1862 C   0  0  0  0  0  0  0  0  0  0  0  0
   11.5660  -18.7323   25.4866 C   0  0  0  0  0  0  0  0  0  0  0  0
   10.6077  -18.5243   26.2614 O   0  0  0  0  0  0  0  0  0  0  0  0
   12.5995  -19.5838   25.8377 O   0  0  0  0  0  0  0  0  0  0  0  0
  2  5  1  0
  2  1  1  6
  3  2  1  0
  4  3  1  0
  5  6  2  0
  8  7  1  0
  8 18  2  0
  9  8  1  0
 10  9  2  0
 10 11  1  0
 11 17  2  0
 12 11  1  0
 13 12  1  1
 14 13  1  0
 14  5  1  0
 15 19  1  0
 15 13  1  0
 16 15  2  0
 17 18  1  0
 20 21  1  0
 20 19  1  0
 21 23  1  0
 22 21  2  0
M  END
$$$$
