CYG.pdb
     RDKit          3D

 23 23  0  0  1  0  0  0  0  0999 V2000
    8.0130  -12.7299   19.2539 N   0  0  0  0  0  0  0  0  0  0  0  0
    7.9096  -13.9433   19.9991 C   0  0  1  0  0  0  0  0  0  0  0  0
    8.4432  -15.1053   19.1963 C   0  0  0  0  0  0  0  0  0  0  0  0
    7.3052  -15.5711   17.8887 S   0  0  0  0  0  0  0  0  0  0  0  0
    8.5825  -13.8957   21.3094 C   0  0  0  0  0  0  0  0  0  0  0  0
    9.5103  -13.0622   21.4683 O   0  0  0  0  0  0  0  0  0  0  0  0
    5.7614  -10.7584   27.8145 O   0  0  0  0  0  0  0  0  0  0  0  0
    6.3583  -11.7705   27.0776 C   0  0  0  0  0  0  0  0  0  0  0  0
    5.5357  -12.5493   26.2998 C   0  0  0  0  0  0  0  0  0  0  0  0
    6.0837  -13.5814   25.5384 C   0  0  0  0  0  0  0  0  0  0  0  0
    7.4363  -13.8453   25.5431 C   0  0  0  0  0  0  0  0  0  0  0  0
    7.9628  -14.9455   24.7577 C   0  0  0  0  0  0  0  0  0  0  0  0
    8.9716  -14.6216   23.6940 C   0  0  2  0  0  0  0  0  0  0  0  0
    8.2538  -14.7282   22.4057 N   0  0  0  0  0  0  0  0  0  0  0  0
   10.0072  -15.6744   23.6857 C   0  0  0  0  0  0  0  0  0  0  0  0
   10.6047  -15.9712   24.7742 O   0  0  0  0  0  0  0  0  0  0  0  0
    8.2381  -13.0476   26.3331 C   0  0  0  0  0  0  0  0  0  0  0  0
    7.6963  -12.0160   27.0951 C   0  0  0  0  0  0  0  0  0  0  0  0
   10.4105  -16.4115   22.5486 N   0  0  0  0  0  0  0  0  0  0  0  0
   11.4352  -17.4317   22.6670 C   0  0  0  0  0  0  0  0  0  0  0  0
   11.6253  -18.1837   21.4201 C   0  0  0  0  0  0  0  0  0  0  0  0
   10.9439  -17.8632   20.4226 O   0  0  0  0  0  0  0  0  0  0  0  0
   12.5395  -19.2215   21.3598 O   0  0  0  0  0  0  0  0  0  0  0  0
  2  5  1  0
  2  1  1  6
  3  2  1  0
  4  3  1  0
  5  6  2  0
  8  7  1  0
  8 18  2  0
  9  8  1  0
 10  9  2  0
 10 11  1  0
 11 17  2  0
 12 11  1  0
 13 12  1  1
 14 13  1  0
 14  5  1  0
 15 19  1  0
 15 13  1  0
 16 15  2  0
 17 18  1  0
 20 21  1  0
 20 19  1  0
 21 23  1  0
 22 21  2  0
M  END
$$$$
