CYG.pdb
     RDKit          3D

 23 23  0  0  1  0  0  0  0  0999 V2000
    5.7225  -18.1074   19.8874 N   0  0  0  0  0  0  0  0  0  0  0  0
    6.6782  -18.3516   20.9195 C   0  0  1  0  0  0  0  0  0  0  0  0
    7.8292  -19.1740   20.3920 C   0  0  0  0  0  0  0  0  0  0  0  0
    7.6631  -20.9000   20.8557 S   0  0  0  0  0  0  0  0  0  0  0  0
    7.1949  -17.1258   21.5538 C   0  0  0  0  0  0  0  0  0  0  0  0
    7.4161  -16.1283   20.8210 O   0  0  0  0  0  0  0  0  0  0  0  0
    6.0955  -10.5890   26.9227 O   0  0  0  0  0  0  0  0  0  0  0  0
    6.3742  -11.8642   26.4539 C   0  0  0  0  0  0  0  0  0  0  0  0
    7.6010  -12.0631   25.8676 C   0  0  0  0  0  0  0  0  0  0  0  0
    7.9331  -13.3264   25.3788 C   0  0  0  0  0  0  0  0  0  0  0  0
    7.0605  -14.3894   25.4672 C   0  0  0  0  0  0  0  0  0  0  0  0
    7.4341  -15.6809   24.9221 C   0  0  0  0  0  0  0  0  0  0  0  0
    7.9434  -15.7199   23.5103 C   0  0  2  0  0  0  0  0  0  0  0  0
    7.4600  -16.9946   22.9378 N   0  0  0  0  0  0  0  0  0  0  0  0
    9.4175  -15.8055   23.5398 C   0  0  0  0  0  0  0  0  0  0  0  0
   10.0912  -14.8211   23.9949 O   0  0  0  0  0  0  0  0  0  0  0  0
    5.8362  -14.1609   26.0605 C   0  0  0  0  0  0  0  0  0  0  0  0
    5.4995  -12.9018   26.5500 C   0  0  0  0  0  0  0  0  0  0  0  0
   10.1782  -16.9131   23.0998 N   0  0  0  0  0  0  0  0  0  0  0  0
   11.6146  -16.9375   23.3024 C   0  0  0  0  0  0  0  0  0  0  0  0
   12.2383  -18.1483   22.7534 C   0  0  0  0  0  0  0  0  0  0  0  0
   11.5433  -19.1822   22.6535 O   0  0  0  0  0  0  0  0  0  0  0  0
   13.5651  -18.1359   22.3585 O   0  0  0  0  0  0  0  0  0  0  0  0
  2  5  1  0
  2  1  1  6
  3  2  1  0
  4  3  1  0
  5  6  2  0
  8  7  1  0
  8 18  2  0
  9  8  1  0
 10  9  2  0
 10 11  1  0
 11 17  2  0
 12 11  1  0
 13 12  1  1
 14 13  1  0
 14  5  1  0
 15 19  1  0
 15 13  1  0
 16 15  2  0
 17 18  1  0
 20 21  1  0
 20 19  1  0
 21 23  1  0
 22 21  2  0
M  END
$$$$
