CYG.pdb
     RDKit          3D

 23 23  0  0  1  0  0  0  0  0999 V2000
    7.7690  -12.9923   19.7239 N   0  0  0  0  0  0  0  0  0  0  0  0
    7.7453  -14.2441   20.4102 C   0  0  1  0  0  0  0  0  0  0  0  0
    8.1988  -15.3576   19.4971 C   0  0  0  0  0  0  0  0  0  0  0  0
    7.0054  -16.6979   19.4615 S   0  0  0  0  0  0  0  0  0  0  0  0
    8.5471  -14.2596   21.6467 C   0  0  0  0  0  0  0  0  0  0  0  0
    9.5456  -13.4985   21.7142 O   0  0  0  0  0  0  0  0  0  0  0  0
    5.7111  -10.5013   27.2476 O   0  0  0  0  0  0  0  0  0  0  0  0
    6.2369  -11.6691   26.7154 C   0  0  0  0  0  0  0  0  0  0  0  0
    7.5910  -11.8639   26.8452 C   0  0  0  0  0  0  0  0  0  0  0  0
    8.1722  -13.0214   26.3280 C   0  0  0  0  0  0  0  0  0  0  0  0
    7.4228  -13.9832   25.6857 C   0  0  0  0  0  0  0  0  0  0  0  0
    8.0702  -15.1604   25.1382 C   0  0  0  0  0  0  0  0  0  0  0  0
    9.0492  -14.9591   24.0180 C   0  0  2  0  0  0  0  0  0  0  0  0
    8.2682  -15.0767   22.7681 N   0  0  0  0  0  0  0  0  0  0  0  0
   10.0096  -16.0810   24.0198 C   0  0  0  0  0  0  0  0  0  0  0  0
   10.7240  -16.2900   25.0571 O   0  0  0  0  0  0  0  0  0  0  0  0
    6.0661  -13.7614   25.5699 C   0  0  0  0  0  0  0  0  0  0  0  0
    5.4808  -12.6076   26.0843 C   0  0  0  0  0  0  0  0  0  0  0  0
   10.2172  -16.9774   22.9462 N   0  0  0  0  0  0  0  0  0  0  0  0
   11.0766  -18.1336   23.1178 C   0  0  0  0  0  0  0  0  0  0  0  0
   12.4773  -17.8464   22.7832 C   0  0  0  0  0  0  0  0  0  0  0  0
   12.8188  -16.6545   22.6260 O   0  0  0  0  0  0  0  0  0  0  0  0
   13.3911  -18.8774   22.6471 O   0  0  0  0  0  0  0  0  0  0  0  0
  2  5  1  0
  2  1  1  6
  3  2  1  0
  4  3  1  0
  5  6  2  0
  8  7  1  0
  8 18  2  0
  9  8  1  0
 10  9  2  0
 10 11  1  0
 11 17  2  0
 12 11  1  0
 13 12  1  1
 14 13  1  0
 14  5  1  0
 15 19  1  0
 15 13  1  0
 16 15  2  0
 17 18  1  0
 20 21  1  0
 20 19  1  0
 21 23  1  0
 22 21  2  0
M  END
$$$$
