CYG.pdb
     RDKit          3D

 23 23  0  0  1  0  0  0  0  0999 V2000
    7.3949  -14.5632   19.8493 N   0  0  0  0  0  0  0  0  0  0  0  0
    7.2317  -15.3464   21.0318 C   0  0  1  0  0  0  0  0  0  0  0  0
    7.2512  -16.8189   20.6989 C   0  0  0  0  0  0  0  0  0  0  0  0
    8.8559  -17.3244   20.0737 S   0  0  0  0  0  0  0  0  0  0  0  0
    8.2311  -15.0613   22.0767 C   0  0  0  0  0  0  0  0  0  0  0  0
    9.2149  -14.3395   21.7734 O   0  0  0  0  0  0  0  0  0  0  0  0
    5.7195  -10.2863   26.9582 O   0  0  0  0  0  0  0  0  0  0  0  0
    6.4351  -11.4395   26.6728 C   0  0  0  0  0  0  0  0  0  0  0  0
    5.7653  -12.4497   26.0253 C   0  0  0  0  0  0  0  0  0  0  0  0
    6.4372  -13.6315   25.7140 C   0  0  0  0  0  0  0  0  0  0  0  0
    7.7634  -13.8177   26.0392 C   0  0  0  0  0  0  0  0  0  0  0  0
    8.4182  -15.0727   25.7216 C   0  0  0  0  0  0  0  0  0  0  0  0
    9.1608  -15.1607   24.4198 C   0  0  2  0  0  0  0  0  0  0  0  0
    8.1582  -15.5469   23.4040 N   0  0  0  0  0  0  0  0  0  0  0  0
   10.1278  -16.2741   24.4994 C   0  0  0  0  0  0  0  0  0  0  0  0
   11.1562  -16.1559   25.2467 O   0  0  0  0  0  0  0  0  0  0  0  0
    8.4107  -12.7870   26.6888 C   0  0  0  0  0  0  0  0  0  0  0  0
    7.7447  -11.6051   27.0019 C   0  0  0  0  0  0  0  0  0  0  0  0
   10.0166  -17.5009   23.8054 N   0  0  0  0  0  0  0  0  0  0  0  0
   11.0472  -18.5126   23.9436 C   0  0  0  0  0  0  0  0  0  0  0  0
   10.9983  -19.1894   25.2458 C   0  0  0  0  0  0  0  0  0  0  0  0
   10.0383  -18.9445   26.0076 O   0  0  0  0  0  0  0  0  0  0  0  0
   11.9961  -20.0761   25.6129 O   0  0  0  0  0  0  0  0  0  0  0  0
  2  5  1  0
  2  1  1  6
  3  2  1  0
  4  3  1  0
  5  6  2  0
  8  7  1  0
  8 18  2  0
  9  8  1  0
 10  9  2  0
 10 11  1  0
 11 17  2  0
 12 11  1  0
 13 12  1  1
 14 13  1  0
 14  5  1  0
 15 19  1  0
 15 13  1  0
 16 15  2  0
 17 18  1  0
 20 21  1  0
 20 19  1  0
 21 23  1  0
 22 21  2  0
M  END
$$$$
