CYG.pdb
     RDKit          3D

 23 23  0  0  1  0  0  0  0  0999 V2000
    7.9840  -12.7344   19.2396 N   0  0  0  0  0  0  0  0  0  0  0  0
    7.9103  -14.0055   19.8856 C   0  0  1  0  0  0  0  0  0  0  0  0
    8.4412  -15.0912   18.9808 C   0  0  0  0  0  0  0  0  0  0  0  0
    7.1111  -16.1066   18.3315 S   0  0  0  0  0  0  0  0  0  0  0  0
    8.6091  -14.0552   21.1822 C   0  0  0  0  0  0  0  0  0  0  0  0
    9.5994  -13.2990   21.3500 O   0  0  0  0  0  0  0  0  0  0  0  0
    5.9673  -10.7293   27.7049 O   0  0  0  0  0  0  0  0  0  0  0  0
    6.4773  -11.7608   26.9308 C   0  0  0  0  0  0  0  0  0  0  0  0
    5.6272  -12.7967   26.6267 C   0  0  0  0  0  0  0  0  0  0  0  0
    6.0884  -13.8601   25.8510 C   0  0  0  0  0  0  0  0  0  0  0  0
    7.3817  -13.9030   25.3769 C   0  0  0  0  0  0  0  0  0  0  0  0
    7.8299  -15.0405   24.5959 C   0  0  0  0  0  0  0  0  0  0  0  0
    8.9033  -14.8035   23.5734 C   0  0  2  0  0  0  0  0  0  0  0  0
    8.2394  -14.9000   22.2558 N   0  0  0  0  0  0  0  0  0  0  0  0
    9.8731  -15.9156   23.6370 C   0  0  0  0  0  0  0  0  0  0  0  0
   10.4973  -16.1381   24.7283 O   0  0  0  0  0  0  0  0  0  0  0  0
    8.2130  -12.8498   25.6976 C   0  0  0  0  0  0  0  0  0  0  0  0
    7.7577  -11.7857   26.4716 C   0  0  0  0  0  0  0  0  0  0  0  0
   10.1833  -16.7880   22.5686 N   0  0  0  0  0  0  0  0  0  0  0  0
   11.1410  -17.8612   22.7585 C   0  0  0  0  0  0  0  0  0  0  0  0
   11.3969  -18.6105   21.5218 C   0  0  0  0  0  0  0  0  0  0  0  0
   11.8581  -19.7686   21.6127 O   0  0  0  0  0  0  0  0  0  0  0  0
   11.1306  -18.0401   20.2888 O   0  0  0  0  0  0  0  0  0  0  0  0
  2  5  1  0
  2  1  1  6
  3  2  1  0
  4  3  1  0
  5  6  2  0
  8  7  1  0
  8 18  2  0
  9  8  1  0
 10  9  2  0
 10 11  1  0
 11 17  2  0
 12 11  1  0
 13 12  1  1
 14 13  1  0
 14  5  1  0
 15 19  1  0
 15 13  1  0
 16 15  2  0
 17 18  1  0
 20 21  1  0
 20 19  1  0
 21 23  1  0
 22 21  2  0
M  END
$$$$
