CYG.pdb
     RDKit          3D

 23 23  0  0  1  0  0  0  0  0999 V2000
   -2.2622  -24.1500   23.1951 N   0  0  0  0  0  0  0  0  0  0  0  0
   -3.2857  -24.3147   24.1768 C   0  0  1  0  0  0  0  0  0  0  0  0
   -3.5045  -25.7788   24.4736 C   0  0  0  0  0  0  0  0  0  0  0  0
   -4.3959  -26.5875   23.1420 S   0  0  0  0  0  0  0  0  0  0  0  0
   -3.0280  -23.5876   25.4325 C   0  0  0  0  0  0  0  0  0  0  0  0
   -1.8328  -23.4232   25.7865 O   0  0  0  0  0  0  0  0  0  0  0  0
  -10.1360  -21.8193   27.4361 O   0  0  0  0  0  0  0  0  0  0  0  0
   -8.7642  -21.6267   27.5031 C   0  0  0  0  0  0  0  0  0  0  0  0
   -8.0816  -21.5545   26.3127 C   0  0  0  0  0  0  0  0  0  0  0  0
   -6.7003  -21.3616   26.3223 C   0  0  0  0  0  0  0  0  0  0  0  0
   -5.9943  -21.2404   27.4996 C   0  0  0  0  0  0  0  0  0  0  0  0
   -4.5542  -21.0678   27.4665 C   0  0  0  0  0  0  0  0  0  0  0  0
   -3.7038  -22.3046   27.4968 C   0  0  2  0  0  0  0  0  0  0  0  0
   -4.0388  -23.0597   26.2705 N   0  0  0  0  0  0  0  0  0  0  0  0
   -4.1277  -23.1442   28.6355 C   0  0  0  0  0  0  0  0  0  0  0  0
   -3.9319  -22.7269   29.8261 O   0  0  0  0  0  0  0  0  0  0  0  0
   -6.7052  -21.3168   28.6794 C   0  0  0  0  0  0  0  0  0  0  0  0
   -8.0841  -21.5091   28.6756 C   0  0  0  0  0  0  0  0  0  0  0  0
   -4.7538  -24.4073   28.5277 N   0  0  0  0  0  0  0  0  0  0  0  0
   -5.0218  -25.1920   29.7182 C   0  0  0  0  0  0  0  0  0  0  0  0
   -6.3829  -24.9882   30.2301 C   0  0  0  0  0  0  0  0  0  0  0  0
   -7.1375  -24.2029   29.6169 O   0  0  0  0  0  0  0  0  0  0  0  0
   -6.8119  -25.6540   31.3654 O   0  0  0  0  0  0  0  0  0  0  0  0
  2  5  1  0
  2  1  1  6
  3  2  1  0
  4  3  1  0
  5  6  2  0
  8  7  1  0
  8 18  2  0
  9  8  1  0
 10  9  2  0
 10 11  1  0
 11 17  2  0
 12 11  1  0
 13 12  1  6
 14 13  1  0
 14  5  1  0
 15 19  1  0
 15 13  1  0
 16 15  2  0
 17 18  1  0
 20 21  1  0
 20 19  1  0
 21 23  1  0
 22 21  2  0
M  END
$$$$
