CYG.pdb
     RDKit          3D

 23 23  0  0  1  0  0  0  0  0999 V2000
    7.4569  -18.2607   21.3229 N   0  0  0  0  0  0  0  0  0  0  0  0
    7.9847  -18.2158   22.6488 C   0  0  1  0  0  0  0  0  0  0  0  0
    8.7633  -19.4733   22.9520 C   0  0  0  0  0  0  0  0  0  0  0  0
    9.1800  -19.5774   24.6948 S   0  0  0  0  0  0  0  0  0  0  0  0
    8.8265  -17.0357   22.9142 C   0  0  0  0  0  0  0  0  0  0  0  0
    9.4759  -16.5445   21.9561 O   0  0  0  0  0  0  0  0  0  0  0  0
   10.5514  -15.9787   30.7643 O   0  0  0  0  0  0  0  0  0  0  0  0
   10.1840  -15.6548   29.4668 C   0  0  0  0  0  0  0  0  0  0  0  0
   10.7765  -14.5501   28.9039 C   0  0  0  0  0  0  0  0  0  0  0  0
   10.4433  -14.1794   27.6013 C   0  0  0  0  0  0  0  0  0  0  0  0
    9.5303  -14.8938   26.8562 C   0  0  0  0  0  0  0  0  0  0  0  0
    9.1913  -14.4590   25.5144 C   0  0  0  0  0  0  0  0  0  0  0  0
    9.7948  -15.2128   24.3648 C   0  0  2  0  0  0  0  0  0  0  0  0
    8.9541  -16.4150   24.1797 N   0  0  0  0  0  0  0  0  0  0  0  0
   11.1331  -15.6939   24.7632 C   0  0  0  0  0  0  0  0  0  0  0  0
   11.2967  -16.1920   25.9273 O   0  0  0  0  0  0  0  0  0  0  0  0
    8.9512  -15.9981   27.4465 C   0  0  0  0  0  0  0  0  0  0  0  0
    9.2802  -16.3726   28.7465 C   0  0  0  0  0  0  0  0  0  0  0  0
   12.2880  -15.6566   23.9485 N   0  0  0  0  0  0  0  0  0  0  0  0
   13.5633  -16.1105   24.4706 C   0  0  0  0  0  0  0  0  0  0  0  0
   14.6039  -16.1705   23.4362 C   0  0  0  0  0  0  0  0  0  0  0  0
   15.4156  -15.2237   23.3536 O   0  0  0  0  0  0  0  0  0  0  0  0
   14.6768  -17.2538   22.5774 O   0  0  0  0  0  0  0  0  0  0  0  0
  2  5  1  0
  2  1  1  6
  3  2  1  0
  4  3  1  0
  5  6  2  0
  8  7  1  0
  8 18  2  0
  9  8  1  0
 10  9  2  0
 10 11  1  0
 11 17  2  0
 12 11  1  0
 13 12  1  1
 14 13  1  0
 14  5  1  0
 15 19  1  0
 15 13  1  0
 16 15  2  0
 17 18  1  0
 20 21  1  0
 20 19  1  0
 21 23  1  0
 22 21  2  0
M  END
$$$$
