CYG.pdb
     RDKit          3D

 23 23  0  0  1  0  0  0  0  0999 V2000
    7.6104  -14.0575   19.7466 N   0  0  0  0  0  0  0  0  0  0  0  0
    7.6585  -15.1745   20.6346 C   0  0  1  0  0  0  0  0  0  0  0  0
    8.1160  -16.4135   19.9033 C   0  0  0  0  0  0  0  0  0  0  0  0
    8.0049  -17.8668   20.9508 S   0  0  0  0  0  0  0  0  0  0  0  0
    8.5076  -14.9564   21.8193 C   0  0  0  0  0  0  0  0  0  0  0  0
    9.4973  -14.1893   21.7049 O   0  0  0  0  0  0  0  0  0  0  0  0
    5.9269  -10.4294   27.3958 O   0  0  0  0  0  0  0  0  0  0  0  0
    6.5230  -11.5791   26.8995 C   0  0  0  0  0  0  0  0  0  0  0  0
    5.7395  -12.7046   26.8120 C   0  0  0  0  0  0  0  0  0  0  0  0
    6.2885  -13.8884   26.3198 C   0  0  0  0  0  0  0  0  0  0  0  0
    7.6038  -13.9634   25.9154 C   0  0  0  0  0  0  0  0  0  0  0  0
    8.1436  -15.2212   25.4346 C   0  0  0  0  0  0  0  0  0  0  0  0
    9.0844  -15.1737   24.2656 C   0  0  2  0  0  0  0  0  0  0  0  0
    8.2837  -15.5543   23.0823 N   0  0  0  0  0  0  0  0  0  0  0  0
   10.1069  -16.2256   24.4364 C   0  0  0  0  0  0  0  0  0  0  0  0
   10.8862  -16.1810   25.4467 O   0  0  0  0  0  0  0  0  0  0  0  0
    8.3669  -12.8183   26.0143 C   0  0  0  0  0  0  0  0  0  0  0  0
    7.8238  -11.6339   26.5049 C   0  0  0  0  0  0  0  0  0  0  0  0
   10.3087  -17.3156   23.5588 N   0  0  0  0  0  0  0  0  0  0  0  0
   11.2985  -18.3294   23.8711 C   0  0  0  0  0  0  0  0  0  0  0  0
   11.3474  -19.3956   22.8627 C   0  0  0  0  0  0  0  0  0  0  0  0
   11.0305  -19.1166   21.6864 O   0  0  0  0  0  0  0  0  0  0  0  0
   11.7365  -20.6765   23.2152 O   0  0  0  0  0  0  0  0  0  0  0  0
  2  5  1  0
  2  1  1  6
  3  2  1  0
  4  3  1  0
  5  6  2  0
  8  7  1  0
  8 18  2  0
  9  8  1  0
 10  9  2  0
 10 11  1  0
 11 17  2  0
 12 11  1  0
 13 12  1  1
 14 13  1  0
 14  5  1  0
 15 19  1  0
 15 13  1  0
 16 15  2  0
 17 18  1  0
 20 21  1  0
 20 19  1  0
 21 23  1  0
 22 21  2  0
M  END
$$$$
