CYG.pdb
     RDKit          3D

 23 23  0  0  1  0  0  0  0  0999 V2000
    7.8180  -17.0809   17.6625 N   0  0  0  0  0  0  0  0  0  0  0  0
    7.5994  -17.5757   18.9838 C   0  0  1  0  0  0  0  0  0  0  0  0
    8.2678  -18.9174   19.1644 C   0  0  0  0  0  0  0  0  0  0  0  0
    7.1462  -20.2624   18.7713 S   0  0  0  0  0  0  0  0  0  0  0  0
    8.0428  -16.6543   20.0450 C   0  0  0  0  0  0  0  0  0  0  0  0
    9.1379  -16.0562   19.8899 O   0  0  0  0  0  0  0  0  0  0  0  0
    7.5405  -11.8954   27.6668 O   0  0  0  0  0  0  0  0  0  0  0  0
    7.3484  -12.7366   26.5811 C   0  0  0  0  0  0  0  0  0  0  0  0
    6.9141  -12.1618   25.4109 C   0  0  0  0  0  0  0  0  0  0  0  0
    6.7047  -12.9618   24.2878 C   0  0  0  0  0  0  0  0  0  0  0  0
    6.9221  -14.3223   24.3172 C   0  0  0  0  0  0  0  0  0  0  0  0
    6.6663  -15.1228   23.1346 C   0  0  0  0  0  0  0  0  0  0  0  0
    7.8396  -15.4806   22.2689 C   0  0  2  0  0  0  0  0  0  0  0  0
    7.3167  -16.3958   21.2319 N   0  0  0  0  0  0  0  0  0  0  0  0
    8.8011  -16.2624   23.0722 C   0  0  0  0  0  0  0  0  0  0  0  0
    8.3739  -17.2224   23.7974 O   0  0  0  0  0  0  0  0  0  0  0  0
    7.3578  -14.8723   25.5050 C   0  0  0  0  0  0  0  0  0  0  0  0
    7.5685  -14.0783   26.6291 C   0  0  0  0  0  0  0  0  0  0  0  0
   10.1972  -16.0425   23.1129 N   0  0  0  0  0  0  0  0  0  0  0  0
   11.0327  -16.8251   24.0041 C   0  0  0  0  0  0  0  0  0  0  0  0
   12.1436  -16.0437   24.5624 C   0  0  0  0  0  0  0  0  0  0  0  0
   12.3377  -14.8893   24.1246 O   0  0  0  0  0  0  0  0  0  0  0  0
   12.9517  -16.5808   25.5498 O   0  0  0  0  0  0  0  0  0  0  0  0
  2  5  1  0
  2  1  1  6
  3  2  1  0
  4  3  1  0
  5  6  2  0
  8  7  1  0
  8 18  2  0
  9  8  1  0
 10  9  2  0
 10 11  1  0
 11 17  2  0
 12 11  1  0
 13 12  1  1
 14 13  1  0
 14  5  1  0
 15 19  1  0
 15 13  1  0
 16 15  2  0
 17 18  1  0
 20 21  1  0
 20 19  1  0
 21 23  1  0
 22 21  2  0
M  END
$$$$
