CYG.pdb
     RDKit          3D

 23 23  0  0  1  0  0  0  0  0999 V2000
    8.1708  -13.0605   17.6609 N   0  0  0  0  0  0  0  0  0  0  0  0
    7.9263  -14.1560   18.5433 C   0  0  1  0  0  0  0  0  0  0  0  0
    8.5963  -15.4084   18.0313 C   0  0  0  0  0  0  0  0  0  0  0  0
    8.3029  -16.7990   19.1276 S   0  0  0  0  0  0  0  0  0  0  0  0
    8.3436  -13.9039   19.9341 C   0  0  0  0  0  0  0  0  0  0  0  0
    9.3772  -13.2143   20.1261 O   0  0  0  0  0  0  0  0  0  0  0  0
    7.0391  -12.3117   28.6154 O   0  0  0  0  0  0  0  0  0  0  0  0
    6.9540  -12.7277   27.2952 C   0  0  0  0  0  0  0  0  0  0  0  0
    7.3065  -11.8187   26.3268 C   0  0  0  0  0  0  0  0  0  0  0  0
    7.2395  -12.1847   24.9826 C   0  0  0  0  0  0  0  0  0  0  0  0
    6.8271  -13.4409   24.5939 C   0  0  0  0  0  0  0  0  0  0  0  0
    6.7457  -13.7729   23.1840 C   0  0  0  0  0  0  0  0  0  0  0  0
    8.0346  -13.9602   22.4372 C   0  0  2  0  0  0  0  0  0  0  0  0
    7.6568  -14.3875   21.0731 N   0  0  0  0  0  0  0  0  0  0  0  0
    8.7731  -15.0879   23.0407 C   0  0  0  0  0  0  0  0  0  0  0  0
    9.2532  -14.9619   24.2170 O   0  0  0  0  0  0  0  0  0  0  0  0
    6.4793  -14.3329   25.5872 C   0  0  0  0  0  0  0  0  0  0  0  0
    6.5443  -13.9727   26.9305 C   0  0  0  0  0  0  0  0  0  0  0  0
    9.0035  -16.3366   22.4189 N   0  0  0  0  0  0  0  0  0  0  0  0
    9.7251  -17.3796   23.1235 C   0  0  0  0  0  0  0  0  0  0  0  0
   11.1532  -17.4026   22.7826 C   0  0  0  0  0  0  0  0  0  0  0  0
   11.8369  -18.3816   23.1514 O   0  0  0  0  0  0  0  0  0  0  0  0
   11.7205  -16.3604   22.0695 O   0  0  0  0  0  0  0  0  0  0  0  0
  2  5  1  0
  2  1  1  6
  3  2  1  0
  4  3  1  0
  5  6  2  0
  8  7  1  0
  8 18  2  0
  9  8  1  0
 10  9  2  0
 10 11  1  0
 11 17  2  0
 12 11  1  0
 13 12  1  1
 14 13  1  0
 14  5  1  0
 15 19  1  0
 15 13  1  0
 16 15  2  0
 17 18  1  0
 20 21  1  0
 20 19  1  0
 21 23  1  0
 22 21  2  0
M  END
$$$$
