EDG.pdb
     RDKit          3D

 22 21  0  0  1  0  0  0  0  0999 V2000
   18.4722  -11.6320  -17.2125 N   0  0  0  0  0  0  0  0  0  0  0  0
   17.9150  -11.5064  -15.8911 C   0  0  1  0  0  0  0  0  0  0  0  0
   18.3065  -12.7345  -15.1229 C   0  0  0  0  0  0  0  0  0  0  0  0
   17.6918  -13.9619  -15.7588 C   0  0  0  0  0  0  0  0  0  0  0  0
   16.2330  -14.0392  -15.4928 C   0  0  0  0  0  0  0  0  0  0  0  0
   15.7432  -14.4858  -14.4419 O   0  0  0  0  0  0  0  0  0  0  0  0
   18.3555  -10.2581  -15.2143 C   0  0  0  0  0  0  0  0  0  0  0  0
   17.9501  -10.0112  -14.0336 O   0  0  0  0  0  0  0  0  0  0  0  0
   15.3734  -13.5866  -16.4765 O   0  0  0  0  0  0  0  0  0  0  0  0
   19.2071   -9.3118  -15.8024 N   0  0  0  0  0  0  0  0  0  0  0  0
   19.6821   -8.0906  -15.0478 C   0  0  1  0  0  0  0  0  0  0  0  0
   21.1543   -8.2990  -14.9565 C   0  0  0  0  0  0  0  0  0  0  0  0
   21.9525   -7.2494  -14.3729 C   0  0  0  0  0  0  0  0  0  0  0  0
   21.5538   -6.1591  -13.9969 O   0  0  0  0  0  0  0  0  0  0  0  0
   19.2002   -6.9182  -15.7601 C   0  0  0  0  0  0  0  0  0  0  0  0
   19.3605   -6.9050  -17.0396 O   0  0  0  0  0  0  0  0  0  0  0  0
   23.3415   -7.5075  -14.2185 O   0  0  0  0  0  0  0  0  0  0  0  0
   18.5689   -5.7917  -15.2098 N   0  0  0  0  0  0  0  0  0  0  0  0
   18.2348   -4.6139  -16.0131 C   0  0  0  0  0  0  0  0  0  0  0  0
   17.5806   -3.6204  -15.1265 C   0  0  0  0  0  0  0  0  0  0  0  0
   17.2390   -3.9146  -13.9467 O   0  0  0  0  0  0  0  0  0  0  0  0
   17.3133   -2.3317  -15.5427 O   0  0  0  0  0  0  0  0  0  0  0  0
  2  1  1  6
  2  7  1  0
  3  2  1  0
  4  3  1  0
  5  4  1  0
  5  6  2  0
  7  8  2  0
  9  5  1  0
 10  7  1  0
 10 11  1  0
 11 15  1  0
 12 13  1  0
 11 12  1  6
 13 14  2  0
 13 17  1  0
 15 18  1  0
 15 16  2  0
 18 19  1  0
 19 20  1  0
 20 22  1  0
 21 20  2  0
M  END
$$$$
