EDG.pdb
     RDKit          3D

 22 21  0  0  1  0  0  0  0  0999 V2000
   25.4755   -8.1489  -21.0476 N   0  0  0  0  0  0  0  0  0  0  0  0
   25.7102   -7.3275  -19.8889 C   0  0  1  0  0  0  0  0  0  0  0  0
   25.5703   -5.8970  -20.3200 C   0  0  0  0  0  0  0  0  0  0  0  0
   26.6612   -5.5435  -21.3066 C   0  0  0  0  0  0  0  0  0  0  0  0
   26.5979   -4.1125  -21.6975 C   0  0  0  0  0  0  0  0  0  0  0  0
   27.3514   -3.5893  -22.5355 O   0  0  0  0  0  0  0  0  0  0  0  0
   24.7949   -7.6668  -18.7676 C   0  0  0  0  0  0  0  0  0  0  0  0
   23.6483   -8.1561  -19.0233 O   0  0  0  0  0  0  0  0  0  0  0  0
   25.6424   -3.3197  -21.0894 O   0  0  0  0  0  0  0  0  0  0  0  0
   25.1165   -7.4795  -17.4155 N   0  0  0  0  0  0  0  0  0  0  0  0
   24.1750   -7.8967  -16.3082 C   0  0  1  0  0  0  0  0  0  0  0  0
   24.9713   -8.8975  -15.5443 C   0  0  0  0  0  0  0  0  0  0  0  0
   25.0921  -10.2267  -16.0901 C   0  0  0  0  0  0  0  0  0  0  0  0
   24.5071  -10.6654  -17.0671 O   0  0  0  0  0  0  0  0  0  0  0  0
   23.7474   -6.6912  -15.6168 C   0  0  0  0  0  0  0  0  0  0  0  0
   24.6680   -5.8544  -15.2776 O   0  0  0  0  0  0  0  0  0  0  0  0
   25.9802  -11.1163  -15.4270 O   0  0  0  0  0  0  0  0  0  0  0  0
   22.4342   -6.3280  -15.2792 N   0  0  0  0  0  0  0  0  0  0  0  0
   22.1253   -5.0797  -14.5788 C   0  0  0  0  0  0  0  0  0  0  0  0
   20.6517   -4.9827  -14.4357 C   0  0  0  0  0  0  0  0  0  0  0  0
   19.8898   -4.9977  -15.4427 O   0  0  0  0  0  0  0  0  0  0  0  0
   20.0417   -4.8717  -13.2024 O   0  0  0  0  0  0  0  0  0  0  0  0
  2  1  1  6
  2  7  1  0
  3  2  1  0
  4  3  1  0
  5  4  1  0
  5  6  2  0
  7  8  2  0
  9  5  1  0
 10  7  1  0
 10 11  1  0
 11 15  1  0
 12 13  1  0
 11 12  1  1
 13 14  2  0
 13 17  1  0
 15 18  1  0
 15 16  2  0
 18 19  1  0
 19 20  1  0
 20 22  1  0
 21 20  2  0
M  END
$$$$
