EDG.pdb
     RDKit          3D

 22 21  0  0  1  0  0  0  0  0999 V2000
   17.2262   -9.7535  -16.1425 N   0  0  0  0  0  0  0  0  0  0  0  0
   17.9519  -10.2839  -15.0181 C   0  0  1  0  0  0  0  0  0  0  0  0
   17.9860  -11.7761  -15.1724 C   0  0  0  0  0  0  0  0  0  0  0  0
   16.5773  -12.3217  -15.2518 C   0  0  0  0  0  0  0  0  0  0  0  0
   16.5719  -13.8048  -15.3234 C   0  0  0  0  0  0  0  0  0  0  0  0
   16.9347  -14.4515  -16.3204 O   0  0  0  0  0  0  0  0  0  0  0  0
   19.3149   -9.7009  -14.9062 C   0  0  0  0  0  0  0  0  0  0  0  0
   20.0856  -10.0891  -13.9709 O   0  0  0  0  0  0  0  0  0  0  0  0
   16.1357  -14.5023  -14.2123 O   0  0  0  0  0  0  0  0  0  0  0  0
   19.8209   -8.7291  -15.7815 N   0  0  0  0  0  0  0  0  0  0  0  0
   21.2247   -8.1848  -15.6412 C   0  0  1  0  0  0  0  0  0  0  0  0
   21.6840   -8.0617  -17.0530 C   0  0  0  0  0  0  0  0  0  0  0  0
   21.9017   -9.2739  -17.8029 C   0  0  0  0  0  0  0  0  0  0  0  0
   22.5484  -10.2437  -17.4419 O   0  0  0  0  0  0  0  0  0  0  0  0
   21.1492   -6.9749  -14.8386 C   0  0  0  0  0  0  0  0  0  0  0  0
   20.1792   -6.1642  -15.0932 O   0  0  0  0  0  0  0  0  0  0  0  0
   21.3045   -9.3501  -19.0904 O   0  0  0  0  0  0  0  0  0  0  0  0
   22.0159   -6.5879  -13.8043 N   0  0  0  0  0  0  0  0  0  0  0  0
   21.8495   -5.3281  -13.0768 C   0  0  0  0  0  0  0  0  0  0  0  0
   22.0324   -4.2123  -14.0373 C   0  0  0  0  0  0  0  0  0  0  0  0
   21.5561   -3.0645  -13.8119 O   0  0  0  0  0  0  0  0  0  0  0  0
   22.7279   -4.3701  -15.2191 O   0  0  0  0  0  0  0  0  0  0  0  0
  2  1  1  6
  2  7  1  0
  3  2  1  0
  4  3  1  0
  5  4  1  0
  5  6  2  0
  7  8  2  0
  9  5  1  0
 10  7  1  0
 10 11  1  0
 11 15  1  0
 12 13  1  0
 11 12  1  6
 13 14  2  0
 13 17  1  0
 15 18  1  0
 15 16  2  0
 18 19  1  0
 19 20  1  0
 20 22  1  0
 21 20  2  0
M  END
$$$$
