EDG.pdb
     RDKit          3D

 22 21  0  0  1  0  0  0  0  0999 V2000
   17.0104  -10.1767  -15.7857 N   0  0  0  0  0  0  0  0  0  0  0  0
   17.9001   -9.2705  -16.4636 C   0  0  1  0  0  0  0  0  0  0  0  0
   17.1025   -8.5735  -17.5266 C   0  0  0  0  0  0  0  0  0  0  0  0
   15.8146   -8.0378  -16.9412 C   0  0  0  0  0  0  0  0  0  0  0  0
   14.9941   -7.3505  -17.9703 C   0  0  0  0  0  0  0  0  0  0  0  0
   14.9414   -6.1163  -18.1036 O   0  0  0  0  0  0  0  0  0  0  0  0
   18.5432   -8.3119  -15.5268 C   0  0  0  0  0  0  0  0  0  0  0  0
   18.0043   -8.0862  -14.3963 O   0  0  0  0  0  0  0  0  0  0  0  0
   14.2460   -8.1353  -18.8281 O   0  0  0  0  0  0  0  0  0  0  0  0
   19.7312   -7.6230  -15.8109 N   0  0  0  0  0  0  0  0  0  0  0  0
   20.3549   -6.6683  -14.8179 C   0  0  1  0  0  0  0  0  0  0  0  0
   21.6271   -7.3482  -14.4458 C   0  0  0  0  0  0  0  0  0  0  0  0
   21.6274   -8.1926  -13.2769 C   0  0  0  0  0  0  0  0  0  0  0  0
   20.8192   -8.1661  -12.3630 O   0  0  0  0  0  0  0  0  0  0  0  0
   20.4374   -5.3636  -15.4541 C   0  0  0  0  0  0  0  0  0  0  0  0
   20.7648   -5.3412  -16.7012 O   0  0  0  0  0  0  0  0  0  0  0  0
   22.6710   -9.1522  -13.1766 O   0  0  0  0  0  0  0  0  0  0  0  0
   20.1930   -4.1144  -14.8621 N   0  0  0  0  0  0  0  0  0  0  0  0
   20.2593   -2.8643  -15.6216 C   0  0  0  0  0  0  0  0  0  0  0  0
   19.9353   -1.7467  -14.7012 C   0  0  0  0  0  0  0  0  0  0  0  0
   18.8989   -1.7670  -13.9797 O   0  0  0  0  0  0  0  0  0  0  0  0
   20.7446   -0.6344  -14.5868 O   0  0  0  0  0  0  0  0  0  0  0  0
  2  1  1  1
  2  7  1  0
  3  2  1  0
  4  3  1  0
  5  4  1  0
  5  6  2  0
  7  8  2  0
  9  5  1  0
 10  7  1  0
 10 11  1  0
 11 15  1  0
 12 13  1  0
 11 12  1  6
 13 14  2  0
 13 17  1  0
 15 18  1  0
 15 16  2  0
 18 19  1  0
 19 20  1  0
 20 22  1  0
 21 20  2  0
M  END
$$$$
