EDG.pdb
     RDKit          3D

 22 21  0  0  1  0  0  0  0  0999 V2000
   20.4256  -12.4477  -15.7197 N   0  0  0  0  0  0  0  0  0  0  0  0
   19.4646  -12.0395  -16.7107 C   0  0  1  0  0  0  0  0  0  0  0  0
   18.1212  -12.5330  -16.2598 C   0  0  0  0  0  0  0  0  0  0  0  0
   18.1553  -14.0341  -16.0748 C   0  0  0  0  0  0  0  0  0  0  0  0
   16.9019  -14.5342  -15.4555 C   0  0  0  0  0  0  0  0  0  0  0  0
   15.8959  -13.8309  -15.2628 O   0  0  0  0  0  0  0  0  0  0  0  0
   19.4767  -10.5691  -16.9298 C   0  0  0  0  0  0  0  0  0  0  0  0
   19.0868  -10.1007  -18.0470 O   0  0  0  0  0  0  0  0  0  0  0  0
   16.8574  -15.8616  -15.0719 O   0  0  0  0  0  0  0  0  0  0  0  0
   19.8988   -9.6414  -15.9667 N   0  0  0  0  0  0  0  0  0  0  0  0
   19.8597   -8.1520  -16.2251 C   0  0  1  0  0  0  0  0  0  0  0  0
   18.4050   -7.8356  -16.1694 C   0  0  0  0  0  0  0  0  0  0  0  0
   18.0098   -6.4504  -16.2346 C   0  0  0  0  0  0  0  0  0  0  0  0
   18.7273   -5.5039  -16.5149 O   0  0  0  0  0  0  0  0  0  0  0  0
   20.7359   -7.5141  -15.2559 C   0  0  0  0  0  0  0  0  0  0  0  0
   20.5855   -7.8525  -14.0206 O   0  0  0  0  0  0  0  0  0  0  0  0
   16.6502   -6.1549  -15.9449 O   0  0  0  0  0  0  0  0  0  0  0  0
   21.7403   -6.5682  -15.5144 N   0  0  0  0  0  0  0  0  0  0  0  0
   22.5636   -5.9929  -14.4489 C   0  0  0  0  0  0  0  0  0  0  0  0
   21.8053   -4.8778  -13.8301 C   0  0  0  0  0  0  0  0  0  0  0  0
   20.6430   -4.5753  -14.2204 O   0  0  0  0  0  0  0  0  0  0  0  0
   22.3279   -4.1185  -12.8026 O   0  0  0  0  0  0  0  0  0  0  0  0
  2  1  1  1
  2  7  1  0
  3  2  1  0
  4  3  1  0
  5  4  1  0
  5  6  2  0
  7  8  2  0
  9  5  1  0
 10  7  1  0
 10 11  1  0
 11 15  1  0
 12 13  1  0
 11 12  1  1
 13 14  2  0
 13 17  1  0
 15 18  1  0
 15 16  2  0
 18 19  1  0
 19 20  1  0
 20 22  1  0
 21 20  2  0
M  END
$$$$
