EDG.pdb
     RDKit          3D

 22 21  0  0  1  0  0  0  0  0999 V2000
   26.5833  -37.4128    0.4724 N   0  0  0  0  0  0  0  0  0  0  0  0
   26.6688  -36.0241    0.8417 C   0  0  1  0  0  0  0  0  0  0  0  0
   27.2269  -35.9658    2.2334 C   0  0  0  0  0  0  0  0  0  0  0  0
   26.2625  -36.6076    3.2063 C   0  0  0  0  0  0  0  0  0  0  0  0
   25.3253  -35.6097    3.7810 C   0  0  0  0  0  0  0  0  0  0  0  0
   25.1236  -35.4699    4.9990 O   0  0  0  0  0  0  0  0  0  0  0  0
   27.4832  -35.2378   -0.1220 C   0  0  0  0  0  0  0  0  0  0  0  0
   27.6486  -33.9909    0.0714 O   0  0  0  0  0  0  0  0  0  0  0  0
   24.6385  -34.7906    2.9042 O   0  0  0  0  0  0  0  0  0  0  0  0
   28.0957  -35.7895   -1.2565 N   0  0  0  0  0  0  0  0  0  0  0  0
   28.9521  -34.9564   -2.1833 C   0  0  1  0  0  0  0  0  0  0  0  0
   30.2150  -35.7411   -2.2760 C   0  0  0  0  0  0  0  0  0  0  0  0
   31.1898  -35.5828   -1.2252 C   0  0  0  0  0  0  0  0  0  0  0  0
   31.2402  -34.6726   -0.4139 O   0  0  0  0  0  0  0  0  0  0  0  0
   28.1932  -34.7354   -3.4036 C   0  0  0  0  0  0  0  0  0  0  0  0
   28.3164  -35.6174   -4.3363 O   0  0  0  0  0  0  0  0  0  0  0  0
   32.1922  -36.5849   -1.1212 O   0  0  0  0  0  0  0  0  0  0  0  0
   27.3289  -33.6651   -3.6826 N   0  0  0  0  0  0  0  0  0  0  0  0
   26.6723  -33.5103   -4.9822 C   0  0  0  0  0  0  0  0  0  0  0  0
   26.0144  -32.1809   -5.0120 C   0  0  0  0  0  0  0  0  0  0  0  0
   26.0126  -31.4240   -4.0010 O   0  0  0  0  0  0  0  0  0  0  0  0
   25.3744  -31.7058   -6.1391 O   0  0  0  0  0  0  0  0  0  0  0  0
  2  1  1  6
  2  7  1  0
  3  2  1  0
  4  3  1  0
  5  4  1  0
  5  6  2  0
  7  8  2  0
  9  5  1  0
 10  7  1  0
 10 11  1  0
 11 15  1  0
 12 13  1  0
 11 12  1  6
 13 14  2  0
 13 17  1  0
 15 18  1  0
 15 16  2  0
 18 19  1  0
 19 20  1  0
 20 22  1  0
 21 20  2  0
M  END
$$$$
