EDG.pdb
     RDKit          3D

 22 21  0  0  1  0  0  0  0  0999 V2000
   19.3428  -12.4966  -15.7684 N   0  0  0  0  0  0  0  0  0  0  0  0
   18.2737  -11.7494  -16.3777 C   0  0  1  0  0  0  0  0  0  0  0  0
   17.0376  -12.5968  -16.3029 C   0  0  0  0  0  0  0  0  0  0  0  0
   17.1592  -13.5927  -15.1706 C   0  0  0  0  0  0  0  0  0  0  0  0
   15.9396  -14.4310  -15.0506 C   0  0  0  0  0  0  0  0  0  0  0  0
   14.8429  -14.0052  -14.6508 O   0  0  0  0  0  0  0  0  0  0  0  0
   18.0825  -10.4218  -15.7365 C   0  0  0  0  0  0  0  0  0  0  0  0
   17.1922   -9.6324  -16.1878 O   0  0  0  0  0  0  0  0  0  0  0  0
   16.0357  -15.7636  -15.4055 O   0  0  0  0  0  0  0  0  0  0  0  0
   18.8344   -9.9694  -14.6426 N   0  0  0  0  0  0  0  0  0  0  0  0
   18.5953   -8.6129  -14.0187 C   0  0  1  0  0  0  0  0  0  0  0  0
   18.3101   -8.9399  -12.5936 C   0  0  0  0  0  0  0  0  0  0  0  0
   17.5712   -7.9789  -11.8126 C   0  0  0  0  0  0  0  0  0  0  0  0
   16.9685   -7.0074  -12.2393 O   0  0  0  0  0  0  0  0  0  0  0  0
   19.7532   -7.7837  -14.3116 C   0  0  0  0  0  0  0  0  0  0  0  0
   20.9113   -8.3429  -14.2174 O   0  0  0  0  0  0  0  0  0  0  0  0
   17.5394   -8.1809  -10.4062 O   0  0  0  0  0  0  0  0  0  0  0  0
   19.7539   -6.4333  -14.6949 N   0  0  0  0  0  0  0  0  0  0  0  0
   20.9927   -5.6937  -14.9454 C   0  0  0  0  0  0  0  0  0  0  0  0
   21.5023   -5.1922  -13.6455 C   0  0  0  0  0  0  0  0  0  0  0  0
   20.9088   -5.4511  -12.5612 O   0  0  0  0  0  0  0  0  0  0  0  0
   22.6440   -4.4217  -13.5548 O   0  0  0  0  0  0  0  0  0  0  0  0
  2  1  1  1
  2  7  1  0
  3  2  1  0
  4  3  1  0
  5  4  1  0
  5  6  2  0
  7  8  2  0
  9  5  1  0
 10  7  1  0
 10 11  1  0
 11 15  1  0
 12 13  1  0
 11 12  1  1
 13 14  2  0
 13 17  1  0
 15 18  1  0
 15 16  2  0
 18 19  1  0
 19 20  1  0
 20 22  1  0
 21 20  2  0
M  END
$$$$
