EDG.pdb
     RDKit          3D

 22 21  0  0  1  0  0  0  0  0999 V2000
   18.1019  -12.3925  -17.5786 N   0  0  0  0  0  0  0  0  0  0  0  0
   19.1215  -11.7970  -16.7551 C   0  0  1  0  0  0  0  0  0  0  0  0
   20.4470  -12.2802  -17.2663 C   0  0  0  0  0  0  0  0  0  0  0  0
   20.5950  -13.7627  -17.0038 C   0  0  0  0  0  0  0  0  0  0  0  0
   21.7927  -14.3182  -17.6831 C   0  0  0  0  0  0  0  0  0  0  0  0
   22.5689  -13.6436  -18.3805 O   0  0  0  0  0  0  0  0  0  0  0  0
   19.0337  -10.3130  -16.7410 C   0  0  0  0  0  0  0  0  0  0  0  0
   18.7371   -9.6945  -17.8129 O   0  0  0  0  0  0  0  0  0  0  0  0
   22.0548  -15.6667  -17.5276 O   0  0  0  0  0  0  0  0  0  0  0  0
   19.2611   -9.5299  -15.6002 N   0  0  0  0  0  0  0  0  0  0  0  0
   19.2031   -8.0196  -15.6468 C   0  0  1  0  0  0  0  0  0  0  0  0
   17.8543   -7.7142  -15.0931 C   0  0  0  0  0  0  0  0  0  0  0  0
   16.7073   -7.9476  -15.9352 C   0  0  0  0  0  0  0  0  0  0  0  0
   15.8406   -8.7894  -15.7633 O   0  0  0  0  0  0  0  0  0  0  0  0
   20.3653   -7.5125  -14.9354 C   0  0  0  0  0  0  0  0  0  0  0  0
   20.6519   -8.0729  -13.8099 O   0  0  0  0  0  0  0  0  0  0  0  0
   16.5693   -7.1161  -17.0795 O   0  0  0  0  0  0  0  0  0  0  0  0
   21.2226   -6.4774  -15.3406 N   0  0  0  0  0  0  0  0  0  0  0  0
   22.3583   -6.0406  -14.5260 C   0  0  0  0  0  0  0  0  0  0  0  0
   21.8378   -5.1963  -13.4227 C   0  0  0  0  0  0  0  0  0  0  0  0
   22.6153   -4.6215  -12.6101 O   0  0  0  0  0  0  0  0  0  0  0  0
   20.4858   -4.9968  -13.2287 O   0  0  0  0  0  0  0  0  0  0  0  0
  2  1  1  6
  2  7  1  0
  3  2  1  0
  4  3  1  0
  5  4  1  0
  5  6  2  0
  7  8  2  0
  9  5  1  0
 10  7  1  0
 10 11  1  0
 11 15  1  0
 12 13  1  0
 11 12  1  1
 13 14  2  0
 13 17  1  0
 15 18  1  0
 15 16  2  0
 18 19  1  0
 19 20  1  0
 20 22  1  0
 21 20  2  0
M  END
$$$$
