EDG.pdb
     RDKit          3D

 22 21  0  0  1  0  0  0  0  0999 V2000
   20.7924  -11.5247  -15.5807 N   0  0  0  0  0  0  0  0  0  0  0  0
   21.9261  -10.6464  -15.4559 C   0  0  1  0  0  0  0  0  0  0  0  0
   22.5914  -10.5825  -16.7994 C   0  0  0  0  0  0  0  0  0  0  0  0
   21.5803  -10.2118  -17.8618 C   0  0  0  0  0  0  0  0  0  0  0  0
   22.2235  -10.0433  -19.1894 C   0  0  0  0  0  0  0  0  0  0  0  0
   21.9467  -10.7321  -20.1857 O   0  0  0  0  0  0  0  0  0  0  0  0
   21.5390   -9.3002  -14.9578 C   0  0  0  0  0  0  0  0  0  0  0  0
   22.4457   -8.4466  -14.6953 O   0  0  0  0  0  0  0  0  0  0  0  0
   23.1875   -9.0608  -19.3187 O   0  0  0  0  0  0  0  0  0  0  0  0
   20.2115   -8.8976  -14.7522 N   0  0  0  0  0  0  0  0  0  0  0  0
   19.8703   -7.5336  -14.1959 C   0  0  1  0  0  0  0  0  0  0  0  0
   19.5081   -6.7518  -15.4112 C   0  0  0  0  0  0  0  0  0  0  0  0
   19.1231   -5.3728  -15.2401 C   0  0  0  0  0  0  0  0  0  0  0  0
   19.7357   -4.5208  -14.6171 O   0  0  0  0  0  0  0  0  0  0  0  0
   18.8537   -7.7174  -13.1728 C   0  0  0  0  0  0  0  0  0  0  0  0
   17.9444   -8.6018  -13.4048 O   0  0  0  0  0  0  0  0  0  0  0  0
   17.9108   -4.9618  -15.8575 O   0  0  0  0  0  0  0  0  0  0  0  0
   18.7518   -7.0404  -11.9473 N   0  0  0  0  0  0  0  0  0  0  0  0
   17.6222   -7.2396  -11.0372 C   0  0  0  0  0  0  0  0  0  0  0  0
   17.8777   -6.4541   -9.8048 C   0  0  0  0  0  0  0  0  0  0  0  0
   17.0564   -6.4479   -8.8455 O   0  0  0  0  0  0  0  0  0  0  0  0
   19.0190   -5.6944   -9.6443 O   0  0  0  0  0  0  0  0  0  0  0  0
  2  1  1  6
  2  7  1  0
  3  2  1  0
  4  3  1  0
  5  4  1  0
  5  6  2  0
  7  8  2  0
  9  5  1  0
 10  7  1  0
 10 11  1  0
 11 15  1  0
 12 13  1  0
 11 12  1  6
 13 14  2  0
 13 17  1  0
 15 18  1  0
 15 16  2  0
 18 19  1  0
 19 20  1  0
 20 22  1  0
 21 20  2  0
M  END
$$$$
