EDG.pdb
     RDKit          3D

 22 21  0  0  1  0  0  0  0  0999 V2000
   19.3646   -8.0677  -14.1953 N   0  0  0  0  0  0  0  0  0  0  0  0
   18.0623   -8.0312  -13.5831 C   0  0  1  0  0  0  0  0  0  0  0  0
   17.5044   -9.4232  -13.6372 C   0  0  0  0  0  0  0  0  0  0  0  0
   17.3238   -9.8541  -15.0760 C   0  0  0  0  0  0  0  0  0  0  0  0
   16.9115  -11.2774  -15.1696 C   0  0  0  0  0  0  0  0  0  0  0  0
   15.8276  -11.6548  -15.6456 O   0  0  0  0  0  0  0  0  0  0  0  0
   18.1109   -7.5006  -12.1953 C   0  0  0  0  0  0  0  0  0  0  0  0
   19.2003   -7.0176  -11.7488 O   0  0  0  0  0  0  0  0  0  0  0  0
   17.7892  -12.2353  -14.6970 O   0  0  0  0  0  0  0  0  0  0  0  0
   17.0121   -7.4964  -11.3239 N   0  0  0  0  0  0  0  0  0  0  0  0
   17.0414   -6.7494  -10.0094 C   0  0  1  0  0  0  0  0  0  0  0  0
   17.3884   -5.3590  -10.4165 C   0  0  0  0  0  0  0  0  0  0  0  0
   17.3622   -4.3306   -9.4061 C   0  0  0  0  0  0  0  0  0  0  0  0
   17.1630   -4.4911   -8.2129 O   0  0  0  0  0  0  0  0  0  0  0  0
   15.7649   -6.9703   -9.3493 C   0  0  0  0  0  0  0  0  0  0  0  0
   14.7020   -6.6937  -10.0251 O   0  0  0  0  0  0  0  0  0  0  0  0
   17.5913   -2.9966   -9.8396 O   0  0  0  0  0  0  0  0  0  0  0  0
   15.5554   -7.4608   -8.0509 N   0  0  0  0  0  0  0  0  0  0  0  0
   14.2175   -7.5785   -7.4674 C   0  0  0  0  0  0  0  0  0  0  0  0
   13.4964   -8.6616   -8.1800 C   0  0  0  0  0  0  0  0  0  0  0  0
   14.0151   -9.2632   -9.1619 O   0  0  0  0  0  0  0  0  0  0  0  0
   12.2295   -9.0649   -7.8091 O   0  0  0  0  0  0  0  0  0  0  0  0
  2  1  1  1
  2  7  1  0
  3  2  1  0
  4  3  1  0
  5  4  1  0
  5  6  2  0
  7  8  2  0
  9  5  1  0
 10  7  1  0
 10 11  1  0
 11 15  1  0
 12 13  1  0
 11 12  1  6
 13 14  2  0
 13 17  1  0
 15 18  1  0
 15 16  2  0
 18 19  1  0
 19 20  1  0
 20 22  1  0
 21 20  2  0
M  END
$$$$
