EDG.pdb
     RDKit          3D

 22 21  0  0  1  0  0  0  0  0999 V2000
   27.3694  -33.9929   -5.1899 N   0  0  0  0  0  0  0  0  0  0  0  0
   27.8664  -34.9740   -4.2611 C   0  0  1  0  0  0  0  0  0  0  0  0
   29.2581  -35.3326   -4.6926 C   0  0  0  0  0  0  0  0  0  0  0  0
   29.2235  -36.0096   -6.0450 C   0  0  0  0  0  0  0  0  0  0  0  0
   30.5726  -36.4753   -6.4545 C   0  0  0  0  0  0  0  0  0  0  0  0
   30.8082  -37.0607   -7.5248 O   0  0  0  0  0  0  0  0  0  0  0  0
   27.8230  -34.4878   -2.8569 C   0  0  0  0  0  0  0  0  0  0  0  0
   27.9291  -33.2412   -2.6237 O   0  0  0  0  0  0  0  0  0  0  0  0
   31.6254  -36.2416   -5.5894 O   0  0  0  0  0  0  0  0  0  0  0  0
   27.6698  -35.3291   -1.7454 N   0  0  0  0  0  0  0  0  0  0  0  0
   27.6625  -34.7890   -0.3331 C   0  0  1  0  0  0  0  0  0  0  0  0
   26.3416  -35.2330    0.1936 C   0  0  0  0  0  0  0  0  0  0  0  0
   25.9838  -34.8490    1.5367 C   0  0  0  0  0  0  0  0  0  0  0  0
   25.1637  -35.3987    2.2540 O   0  0  0  0  0  0  0  0  0  0  0  0
   28.8616  -35.2750    0.3300 C   0  0  0  0  0  0  0  0  0  0  0  0
   29.1500  -36.5224    0.1755 O   0  0  0  0  0  0  0  0  0  0  0  0
   26.6512  -33.7191    2.0823 O   0  0  0  0  0  0  0  0  0  0  0  0
   29.7530  -34.5333    1.1211 N   0  0  0  0  0  0  0  0  0  0  0  0
   30.9676  -35.1216    1.6891 C   0  0  0  0  0  0  0  0  0  0  0  0
   30.5897  -35.8699    2.9132 C   0  0  0  0  0  0  0  0  0  0  0  0
   31.4604  -36.4213    3.6433 O   0  0  0  0  0  0  0  0  0  0  0  0
   29.2756  -36.0011    3.3146 O   0  0  0  0  0  0  0  0  0  0  0  0
  2  1  1  6
  2  7  1  0
  3  2  1  0
  4  3  1  0
  5  4  1  0
  5  6  2  0
  7  8  2  0
  9  5  1  0
 10  7  1  0
 10 11  1  0
 11 15  1  0
 12 13  1  0
 11 12  1  1
 13 14  2  0
 13 17  1  0
 15 18  1  0
 15 16  2  0
 18 19  1  0
 19 20  1  0
 20 22  1  0
 21 20  2  0
M  END
$$$$
