EDG.pdb
     RDKit          3D

 22 21  0  0  1  0  0  0  0  0999 V2000
   15.0729  -10.3785  -15.8727 N   0  0  0  0  0  0  0  0  0  0  0  0
   16.3849  -10.6886  -15.3678 C   0  0  1  0  0  0  0  0  0  0  0  0
   16.6331  -12.1444  -15.6339 C   0  0  0  0  0  0  0  0  0  0  0  0
   15.8597  -12.9913  -14.6474 C   0  0  0  0  0  0  0  0  0  0  0  0
   15.9656  -14.4364  -14.9714 C   0  0  0  0  0  0  0  0  0  0  0  0
   15.0946  -15.0741  -15.5866 O   0  0  0  0  0  0  0  0  0  0  0  0
   17.4343   -9.8226  -15.9669 C   0  0  0  0  0  0  0  0  0  0  0  0
   17.6125   -9.8377  -17.2269 O   0  0  0  0  0  0  0  0  0  0  0  0
   17.1025  -15.1075  -14.5611 O   0  0  0  0  0  0  0  0  0  0  0  0
   18.2609   -8.9705  -15.2205 N   0  0  0  0  0  0  0  0  0  0  0  0
   19.3303   -8.1248  -15.8746 C   0  0  1  0  0  0  0  0  0  0  0  0
   18.5737   -7.3544  -16.9009 C   0  0  0  0  0  0  0  0  0  0  0  0
   19.2804   -6.3418  -17.6455 C   0  0  0  0  0  0  0  0  0  0  0  0
   20.4411   -6.3937  -18.0186 O   0  0  0  0  0  0  0  0  0  0  0  0
   20.0078   -7.3823  -14.8241 C   0  0  0  0  0  0  0  0  0  0  0  0
   19.2633   -6.7972  -13.9486 O   0  0  0  0  0  0  0  0  0  0  0  0
   18.5559   -5.1659  -17.9801 O   0  0  0  0  0  0  0  0  0  0  0  0
   21.3926   -7.2336  -14.6487 N   0  0  0  0  0  0  0  0  0  0  0  0
   21.9597   -6.3955  -13.5903 C   0  0  0  0  0  0  0  0  0  0  0  0
   21.9323   -4.9860  -14.0526 C   0  0  0  0  0  0  0  0  0  0  0  0
   22.3655   -4.0466  -13.3281 O   0  0  0  0  0  0  0  0  0  0  0  0
   21.4351   -4.6310  -15.2904 O   0  0  0  0  0  0  0  0  0  0  0  0
  2  1  1  6
  2  7  1  0
  3  2  1  0
  4  3  1  0
  5  4  1  0
  5  6  2  0
  7  8  2  0
  9  5  1  0
 10  7  1  0
 10 11  1  0
 11 15  1  0
 12 13  1  0
 11 12  1  6
 13 14  2  0
 13 17  1  0
 15 18  1  0
 15 16  2  0
 18 19  1  0
 19 20  1  0
 20 22  1  0
 21 20  2  0
M  END
$$$$
