NFQ.pdb
     RDKit          3D

 29 29  0  0  1  0  0  0  0  0999 V2000
   10.6803  -19.2082   19.2271 N   0  0  0  0  0  0  0  0  0  0  0  0
   11.7487  -18.3350   19.5269 C   0  0  0  0  0  0  0  0  0  0  0  0
   12.8564  -18.5204   18.9823 O   0  0  0  0  0  0  0  0  0  0  0  0
   11.5623  -17.2308   20.4605 C   0  0  0  0  0  0  0  0  0  0  0  0
   10.1711  -17.1298   21.0153 C   0  0  2  0  0  0  0  0  0  0  0  0
    9.2846  -16.7136   19.9465 N   0  0  0  0  0  0  0  0  0  0  0  0
   10.0550  -16.2205   22.1556 C   0  0  0  0  0  0  0  0  0  0  0  0
   11.0747  -15.9729   22.8547 O   0  0  0  0  0  0  0  0  0  0  0  0
    8.8505  -15.5756   22.5494 N   0  0  0  0  0  0  0  0  0  0  0  0
    8.6778  -14.7758   23.7244 C   0  0  1  0  0  0  0  0  0  0  0  0
    7.4145  -13.9521   23.6618 C   0  0  0  0  0  0  0  0  0  0  0  0
    7.1556  -13.1430   24.8525 C   0  0  0  0  0  0  0  0  0  0  0  0
    7.8755  -11.9717   25.0710 C   0  0  0  0  0  0  0  0  0  0  0  0
    7.6323  -11.2099   26.1952 C   0  0  0  0  0  0  0  0  0  0  0  0
    6.6874  -11.5600   27.1373 C   0  0  0  0  0  0  0  0  0  0  0  0
    5.9740  -12.7203   26.9212 C   0  0  0  0  0  0  0  0  0  0  0  0
    6.2203  -13.4942   25.7803 C   0  0  0  0  0  0  0  0  0  0  0  0
    8.6569  -15.5483   24.9828 C   0  0  0  0  0  0  0  0  0  0  0  0
    7.9352  -16.5784   24.9951 O   0  0  0  0  0  0  0  0  0  0  0  0
   11.8153  -19.5686   25.5618 N   0  0  0  0  0  0  0  0  0  0  0  0
   12.5021  -18.4053   25.9311 C   0  0  0  0  0  0  0  0  0  0  0  0
   13.7558  -18.3543   25.7760 O   0  0  0  0  0  0  0  0  0  0  0  0
   11.8142  -17.2461   26.4840 C   0  0  0  0  0  0  0  0  0  0  0  0
   10.3553  -17.3464   26.7017 C   0  0  0  0  0  0  0  0  0  0  0  0
    9.6197  -16.1735   27.2319 C   0  0  2  0  0  0  0  0  0  0  0  0
    9.3737  -15.2138   26.1375 N   0  0  0  0  0  0  0  0  0  0  0  0
   10.2040  -15.5231   28.3674 C   0  0  0  0  0  0  0  0  0  0  0  0
   10.4848  -14.2818   28.4350 O   0  0  0  0  0  0  0  0  0  0  0  0
   10.5103  -16.2348   29.5350 O   0  0  0  0  0  0  0  0  0  0  0  0
  1  2  1  0
  2  3  2  0
  4  5  1  0
  4  2  1  0
  5  6  1  6
  7  8  2  0
  7  5  1  0
  9  7  1  0
 10  9  1  0
 11 12  1  0
 10 11  1  6
 12 17  2  0
 12 13  1  0
 13 14  2  0
 14 15  1  0
 16 15  2  0
 17 16  1  0
 18 19  2  0
 18 10  1  0
 21 20  1  0
 22 21  2  0
 23 21  1  0
 25 24  1  6
 24 23  1  0
 25 26  1  0
 26 18  1  0
 27 25  1  0
 28 27  2  0
 29 27  1  0
M  END
$$$$
