NFQ.pdb
     RDKit          3D

 29 29  0  0  1  0  0  0  0  0999 V2000
    8.9436  -18.0783   17.8510 N   0  0  0  0  0  0  0  0  0  0  0  0
    8.8247  -18.7873   19.0663 C   0  0  0  0  0  0  0  0  0  0  0  0
    8.5312  -20.0001   19.0364 O   0  0  0  0  0  0  0  0  0  0  0  0
    9.0416  -18.1131   20.3407 C   0  0  0  0  0  0  0  0  0  0  0  0
    9.2549  -16.6321   20.2183 C   0  0  2  0  0  0  0  0  0  0  0  0
   10.4386  -16.4084   19.4119 N   0  0  0  0  0  0  0  0  0  0  0  0
    9.3781  -15.9453   21.5043 C   0  0  0  0  0  0  0  0  0  0  0  0
   10.4712  -15.9980   22.1306 O   0  0  0  0  0  0  0  0  0  0  0  0
    8.3346  -15.2025   22.1214 N   0  0  0  0  0  0  0  0  0  0  0  0
    8.3997  -14.5861   23.4122 C   0  0  1  0  0  0  0  0  0  0  0  0
    7.2497  -13.6351   23.6386 C   0  0  0  0  0  0  0  0  0  0  0  0
    7.2342  -13.0012   24.9566 C   0  0  0  0  0  0  0  0  0  0  0  0
    8.1978  -12.0521   25.2865 C   0  0  0  0  0  0  0  0  0  0  0  0
    8.1839  -11.4560   26.5306 C   0  0  0  0  0  0  0  0  0  0  0  0
    7.2389  -11.7613   27.4880 C   0  0  0  0  0  0  0  0  0  0  0  0
    6.2842  -12.7015   27.1616 C   0  0  0  0  0  0  0  0  0  0  0  0
    6.2976  -13.3071   25.8990 C   0  0  0  0  0  0  0  0  0  0  0  0
    8.4291  -15.5425   24.5371 C   0  0  0  0  0  0  0  0  0  0  0  0
    7.5820  -16.4717   24.5037 O   0  0  0  0  0  0  0  0  0  0  0  0
   12.3735  -19.1955   23.9906 N   0  0  0  0  0  0  0  0  0  0  0  0
   12.0947  -19.5388   25.3194 C   0  0  0  0  0  0  0  0  0  0  0  0
   12.6260  -20.5745   25.8129 O   0  0  0  0  0  0  0  0  0  0  0  0
   11.2140  -18.7339   26.1555 C   0  0  0  0  0  0  0  0  0  0  0  0
   10.6444  -17.5001   25.5730 C   0  0  0  0  0  0  0  0  0  0  0  0
    9.7227  -16.6729   26.3877 C   0  0  2  0  0  0  0  0  0  0  0  0
    9.3204  -15.4815   25.6144 N   0  0  0  0  0  0  0  0  0  0  0  0
   10.1892  -16.3080   27.6928 C   0  0  0  0  0  0  0  0  0  0  0  0
   10.6482  -15.1627   28.0117 O   0  0  0  0  0  0  0  0  0  0  0  0
   10.1621  -17.2206   28.7559 O   0  0  0  0  0  0  0  0  0  0  0  0
  1  2  1  0
  2  3  2  0
  4  5  1  0
  4  2  1  0
  5  6  1  6
  7  8  2  0
  7  5  1  0
  9  7  1  0
 10  9  1  0
 11 12  1  0
 10 11  1  1
 12 17  2  0
 12 13  1  0
 13 14  2  0
 14 15  1  0
 16 15  2  0
 17 16  1  0
 18 19  2  0
 18 10  1  0
 21 20  1  0
 22 21  2  0
 23 21  1  0
 25 24  1  6
 24 23  1  0
 25 26  1  0
 26 18  1  0
 27 25  1  0
 28 27  2  0
 29 27  1  0
M  END
$$$$
