NFQ.pdb
     RDKit          3D

 29 29  0  0  1  0  0  0  0  0999 V2000
    9.3809  -18.2193   17.6600 N   0  0  0  0  0  0  0  0  0  0  0  0
    9.9121  -16.9154   17.5537 C   0  0  0  0  0  0  0  0  0  0  0  0
   10.3950  -16.5427   16.4647 O   0  0  0  0  0  0  0  0  0  0  0  0
    9.8977  -16.0146   18.7000 C   0  0  0  0  0  0  0  0  0  0  0  0
    9.4489  -16.6617   19.9782 C   0  0  2  0  0  0  0  0  0  0  0  0
    8.0975  -17.1512   19.7897 N   0  0  0  0  0  0  0  0  0  0  0  0
    9.5118  -15.7767   21.1415 C   0  0  0  0  0  0  0  0  0  0  0  0
   10.6080  -15.2325   21.4452 O   0  0  0  0  0  0  0  0  0  0  0  0
    8.4048  -15.4728   21.9804 N   0  0  0  0  0  0  0  0  0  0  0  0
    8.4768  -14.8239   23.2547 C   0  0  1  0  0  0  0  0  0  0  0  0
    7.1873  -14.1190   23.5992 C   0  0  0  0  0  0  0  0  0  0  0  0
    7.1568  -13.5237   24.9348 C   0  0  0  0  0  0  0  0  0  0  0  0
    6.4236  -14.1281   25.9523 C   0  0  0  0  0  0  0  0  0  0  0  0
    6.3936  -13.5651   27.2114 C   0  0  0  0  0  0  0  0  0  0  0  0
    7.0711  -12.4037   27.5201 C   0  0  0  0  0  0  0  0  0  0  0  0
    7.7975  -11.8047   26.5124 C   0  0  0  0  0  0  0  0  0  0  0  0
    7.8285  -12.3756   25.2340 C   0  0  0  0  0  0  0  0  0  0  0  0
    8.8165  -15.7261   24.3733 C   0  0  0  0  0  0  0  0  0  0  0  0
    8.0649  -16.7212   24.5375 O   0  0  0  0  0  0  0  0  0  0  0  0
   14.2455  -17.9472   24.4506 N   0  0  0  0  0  0  0  0  0  0  0  0
   14.0350  -16.5911   24.7300 C   0  0  0  0  0  0  0  0  0  0  0  0
   14.9569  -15.7612   24.4855 O   0  0  0  0  0  0  0  0  0  0  0  0
   12.7807  -16.1044   25.2890 C   0  0  0  0  0  0  0  0  0  0  0  0
   11.7215  -17.0948   25.5773 C   0  0  0  0  0  0  0  0  0  0  0  0
   10.4174  -16.6278   26.1054 C   0  0  2  0  0  0  0  0  0  0  0  0
    9.8982  -15.5477   25.2433 N   0  0  0  0  0  0  0  0  0  0  0  0
   10.3975  -16.2416   27.4854 C   0  0  0  0  0  0  0  0  0  0  0  0
   10.0678  -15.0889   27.9177 O   0  0  0  0  0  0  0  0  0  0  0  0
   10.7437  -17.1458   28.4984 O   0  0  0  0  0  0  0  0  0  0  0  0
  1  2  1  0
  2  3  2  0
  4  5  1  0
  4  2  1  0
  5  6  1  6
  7  8  2  0
  7  5  1  0
  9  7  1  0
 10  9  1  0
 11 12  1  0
 10 11  1  1
 12 17  2  0
 12 13  1  0
 13 14  2  0
 14 15  1  0
 16 15  2  0
 17 16  1  0
 18 19  2  0
 18 10  1  0
 21 20  1  0
 22 21  2  0
 23 21  1  0
 25 24  1  6
 24 23  1  0
 25 26  1  0
 26 18  1  0
 27 25  1  0
 28 27  2  0
 29 27  1  0
M  END
$$$$
