NFQ.pdb
     RDKit          3D

 29 29  0  0  1  0  0  0  0  0999 V2000
    9.0171  -17.2723   16.3708 N   0  0  0  0  0  0  0  0  0  0  0  0
   10.0969  -17.1517   17.2727 C   0  0  0  0  0  0  0  0  0  0  0  0
   11.1295  -17.8254   17.0782 O   0  0  0  0  0  0  0  0  0  0  0  0
   10.0086  -16.2524   18.4169 C   0  0  0  0  0  0  0  0  0  0  0  0
   10.1992  -16.9316   19.7421 C   0  0  2  0  0  0  0  0  0  0  0  0
    9.2235  -17.9983   19.8507 N   0  0  0  0  0  0  0  0  0  0  0  0
   10.0953  -16.0284   20.8884 C   0  0  0  0  0  0  0  0  0  0  0  0
   11.1150  -15.3904   21.2667 O   0  0  0  0  0  0  0  0  0  0  0  0
    8.9031  -15.8065   21.6307 N   0  0  0  0  0  0  0  0  0  0  0  0
    8.8045  -15.0572   22.8468 C   0  0  1  0  0  0  0  0  0  0  0  0
    7.3883  -14.6107   23.1177 C   0  0  0  0  0  0  0  0  0  0  0  0
    7.2326  -13.7636   24.2998 C   0  0  0  0  0  0  0  0  0  0  0  0
    6.5871  -14.2551   25.4311 C   0  0  0  0  0  0  0  0  0  0  0  0
    6.4388  -13.4551   26.5451 C   0  0  0  0  0  0  0  0  0  0  0  0
    6.9101  -12.1595   26.5950 C   0  0  0  0  0  0  0  0  0  0  0  0
    7.5495  -11.6722   25.4746 C   0  0  0  0  0  0  0  0  0  0  0  0
    7.7005  -12.4837   24.3433 C   0  0  0  0  0  0  0  0  0  0  0  0
    9.2922  -15.7769   24.0405 C   0  0  0  0  0  0  0  0  0  0  0  0
    8.7068  -16.8538   24.3226 O   0  0  0  0  0  0  0  0  0  0  0  0
   11.4535  -14.2118   29.5482 N   0  0  0  0  0  0  0  0  0  0  0  0
   10.4989  -15.2264   29.6922 C   0  0  0  0  0  0  0  0  0  0  0  0
    9.9497  -15.4007   30.8175 O   0  0  0  0  0  0  0  0  0  0  0  0
   10.1131  -16.0858   28.5808 C   0  0  0  0  0  0  0  0  0  0  0  0
    9.9786  -15.4690   27.2438 C   0  0  0  0  0  0  0  0  0  0  0  0
   10.7264  -16.0461   26.1013 C   0  0  2  0  0  0  0  0  0  0  0  0
   10.3417  -15.3457   24.8600 N   0  0  0  0  0  0  0  0  0  0  0  0
   10.6360  -17.4674   25.9415 C   0  0  0  0  0  0  0  0  0  0  0  0
   11.6308  -18.2620   25.8863 O   0  0  0  0  0  0  0  0  0  0  0  0
    9.3948  -18.1101   25.8409 O   0  0  0  0  0  0  0  0  0  0  0  0
  1  2  1  0
  2  3  2  0
  4  5  1  0
  4  2  1  0
  5  6  1  1
  7  8  2  0
  7  5  1  0
  9  7  1  0
 10  9  1  0
 11 12  1  0
 10 11  1  1
 12 17  2  0
 12 13  1  0
 13 14  2  0
 14 15  1  0
 16 15  2  0
 17 16  1  0
 18 19  2  0
 18 10  1  0
 21 20  1  0
 22 21  2  0
 23 21  1  0
 25 24  1  1
 24 23  1  0
 25 26  1  0
 26 18  1  0
 27 25  1  0
 28 27  2  0
 29 27  1  0
M  END
$$$$
