NFQ.pdb
     RDKit          3D

 29 29  0  0  1  0  0  0  0  0999 V2000
   11.4489  -18.3081   17.6471 N   0  0  0  0  0  0  0  0  0  0  0  0
   10.6655  -17.1713   17.9430 C   0  0  0  0  0  0  0  0  0  0  0  0
    9.8512  -16.7562   17.0930 O   0  0  0  0  0  0  0  0  0  0  0  0
   10.8047  -16.4897   19.2244 C   0  0  0  0  0  0  0  0  0  0  0  0
    9.8194  -16.9392   20.2640 C   0  0  2  0  0  0  0  0  0  0  0  0
    8.4941  -16.9091   19.6775 N   0  0  0  0  0  0  0  0  0  0  0  0
    9.8511  -16.1425   21.4907 C   0  0  0  0  0  0  0  0  0  0  0  0
   10.9336  -16.0320   22.1278 O   0  0  0  0  0  0  0  0  0  0  0  0
    8.7274  -15.4640   22.0371 N   0  0  0  0  0  0  0  0  0  0  0  0
    8.6625  -14.8710   23.3387 C   0  0  1  0  0  0  0  0  0  0  0  0
    7.4452  -13.9922   23.4950 C   0  0  0  0  0  0  0  0  0  0  0  0
    7.3187  -13.3547   24.8053 C   0  0  0  0  0  0  0  0  0  0  0  0
    6.3733  -13.8149   25.7176 C   0  0  0  0  0  0  0  0  0  0  0  0
    6.2531  -13.2119   26.9525 C   0  0  0  0  0  0  0  0  0  0  0  0
    7.0431  -12.1488   27.3381 C   0  0  0  0  0  0  0  0  0  0  0  0
    7.9798  -11.6925   26.4346 C   0  0  0  0  0  0  0  0  0  0  0  0
    8.1024  -12.3041   25.1807 C   0  0  0  0  0  0  0  0  0  0  0  0
    8.6662  -15.8466   24.4474 C   0  0  0  0  0  0  0  0  0  0  0  0
    7.7747  -16.7333   24.4154 O   0  0  0  0  0  0  0  0  0  0  0  0
   13.8751  -18.1005   25.6271 N   0  0  0  0  0  0  0  0  0  0  0  0
   13.0510  -19.0975   26.1639 C   0  0  0  0  0  0  0  0  0  0  0  0
   13.5808  -20.1004   26.7224 O   0  0  0  0  0  0  0  0  0  0  0  0
   11.5979  -19.0117   26.1045 C   0  0  0  0  0  0  0  0  0  0  0  0
   11.0004  -17.7986   25.5068 C   0  0  0  0  0  0  0  0  0  0  0  0
    9.9437  -17.0705   26.2491 C   0  0  2  0  0  0  0  0  0  0  0  0
    9.5791  -15.8468   25.5082 N   0  0  0  0  0  0  0  0  0  0  0  0
   10.2260  -16.7773   27.6232 C   0  0  0  0  0  0  0  0  0  0  0  0
    9.9311  -17.5313   28.6075 O   0  0  0  0  0  0  0  0  0  0  0  0
   10.8827  -15.5965   27.9946 O   0  0  0  0  0  0  0  0  0  0  0  0
  1  2  1  0
  2  3  2  0
  4  5  1  0
  4  2  1  0
  5  6  1  6
  7  8  2  0
  7  5  1  0
  9  7  1  0
 10  9  1  0
 11 12  1  0
 10 11  1  6
 12 17  2  0
 12 13  1  0
 13 14  2  0
 14 15  1  0
 16 15  2  0
 17 16  1  0
 18 19  2  0
 18 10  1  0
 21 20  1  0
 22 21  2  0
 23 21  1  0
 25 24  1  6
 24 23  1  0
 25 26  1  0
 26 18  1  0
 27 25  1  0
 28 27  2  0
 29 27  1  0
M  END
$$$$
