NFQ.pdb
     RDKit          3D

 29 29  0  0  1  0  0  0  0  0999 V2000
    8.7532  -17.5586   17.5119 N   0  0  0  0  0  0  0  0  0  0  0  0
    8.8273  -16.1618   17.7047 C   0  0  0  0  0  0  0  0  0  0  0  0
    8.8516  -15.4110   16.7078 O   0  0  0  0  0  0  0  0  0  0  0  0
    8.8748  -15.6019   19.0500 C   0  0  0  0  0  0  0  0  0  0  0  0
    9.0570  -16.6275   20.1311 C   0  0  2  0  0  0  0  0  0  0  0  0
    7.9290  -17.5371   20.0894 N   0  0  0  0  0  0  0  0  0  0  0  0
    9.1997  -16.0549   21.4698 C   0  0  0  0  0  0  0  0  0  0  0  0
   10.2905  -15.5136   21.7973 O   0  0  0  0  0  0  0  0  0  0  0  0
    8.1781  -16.0602   22.4588 N   0  0  0  0  0  0  0  0  0  0  0  0
    8.3349  -15.6537   23.8227 C   0  0  1  0  0  0  0  0  0  0  0  0
    7.0119  -15.3052   24.4601 C   0  0  0  0  0  0  0  0  0  0  0  0
    7.0524  -14.1474   25.3530 C   0  0  0  0  0  0  0  0  0  0  0  0
    7.6843  -14.2411   26.5899 C   0  0  0  0  0  0  0  0  0  0  0  0
    7.7206  -13.1494   27.4325 C   0  0  0  0  0  0  0  0  0  0  0  0
    7.1473  -11.9390   27.1020 C   0  0  0  0  0  0  0  0  0  0  0  0
    6.5211  -11.8457   25.8769 C   0  0  0  0  0  0  0  0  0  0  0  0
    6.4839  -12.9535   25.0209 C   0  0  0  0  0  0  0  0  0  0  0  0
    9.0037  -16.6548   24.6779 C   0  0  0  0  0  0  0  0  0  0  0  0
    8.5380  -17.8227   24.6411 O   0  0  0  0  0  0  0  0  0  0  0  0
   14.9514  -17.8708   25.1811 N   0  0  0  0  0  0  0  0  0  0  0  0
   13.9556  -18.5333   24.4526 C   0  0  0  0  0  0  0  0  0  0  0  0
   14.2874  -19.2461   23.4626 O   0  0  0  0  0  0  0  0  0  0  0  0
   12.5455  -18.4316   24.8048 C   0  0  0  0  0  0  0  0  0  0  0  0
   12.1760  -17.5481   25.9313 C   0  0  0  0  0  0  0  0  0  0  0  0
   10.7514  -17.4343   26.3254 C   0  0  2  0  0  0  0  0  0  0  0  0
   10.0989  -16.3919   25.5087 N   0  0  0  0  0  0  0  0  0  0  0  0
   10.4974  -17.2310   27.7211 C   0  0  0  0  0  0  0  0  0  0  0  0
    9.8689  -16.2374   28.2131 O   0  0  0  0  0  0  0  0  0  0  0  0
   10.9317  -18.1548   28.6811 O   0  0  0  0  0  0  0  0  0  0  0  0
  1  2  1  0
  2  3  2  0
  4  5  1  0
  4  2  1  0
  5  6  1  1
  7  8  2  0
  7  5  1  0
  9  7  1  0
 10  9  1  0
 11 12  1  0
 10 11  1  1
 12 17  2  0
 12 13  1  0
 13 14  2  0
 14 15  1  0
 16 15  2  0
 17 16  1  0
 18 19  2  0
 18 10  1  0
 21 20  1  0
 22 21  2  0
 23 21  1  0
 25 24  1  1
 24 23  1  0
 25 26  1  0
 26 18  1  0
 27 25  1  0
 28 27  2  0
 29 27  1  0
M  END
$$$$
