NFQ.pdb
     RDKit          3D

 29 29  0  0  1  0  0  0  0  0999 V2000
   12.2897  -19.2973   18.6816 N   0  0  0  0  0  0  0  0  0  0  0  0
   11.4494  -18.1757   18.8538 C   0  0  0  0  0  0  0  0  0  0  0  0
   10.7552  -17.7832   17.8937 O   0  0  0  0  0  0  0  0  0  0  0  0
   11.3921  -17.4837   20.1358 C   0  0  0  0  0  0  0  0  0  0  0  0
    9.9988  -17.1632   20.5938 C   0  0  2  0  0  0  0  0  0  0  0  0
    9.2738  -16.5899   19.4770 N   0  0  0  0  0  0  0  0  0  0  0  0
    9.9489  -16.2650   21.7476 C   0  0  0  0  0  0  0  0  0  0  0  0
   11.0085  -16.0184   22.3850 O   0  0  0  0  0  0  0  0  0  0  0  0
    8.7678  -15.6303   22.2209 N   0  0  0  0  0  0  0  0  0  0  0  0
    8.6364  -14.9324   23.4642 C   0  0  1  0  0  0  0  0  0  0  0  0
    7.3612  -14.1272   23.5238 C   0  0  0  0  0  0  0  0  0  0  0  0
    7.1509  -13.4119   24.7821 C   0  0  0  0  0  0  0  0  0  0  0  0
    6.1985  -13.8634   25.6915 C   0  0  0  0  0  0  0  0  0  0  0  0
    5.9993  -13.1872   26.8773 C   0  0  0  0  0  0  0  0  0  0  0  0
    6.7150  -12.0574   27.2154 C   0  0  0  0  0  0  0  0  0  0  0  0
    7.6586  -11.6097   26.3148 C   0  0  0  0  0  0  0  0  0  0  0  0
    7.8614  -12.2956   25.1108 C   0  0  0  0  0  0  0  0  0  0  0  0
    8.6807  -15.8056   24.6543 C   0  0  0  0  0  0  0  0  0  0  0  0
    7.7441  -16.6367   24.7736 O   0  0  0  0  0  0  0  0  0  0  0  0
   12.8432  -19.6804   25.6199 N   0  0  0  0  0  0  0  0  0  0  0  0
   13.2049  -18.3603   25.9164 C   0  0  0  0  0  0  0  0  0  0  0  0
   14.4182  -18.0177   25.8221 O   0  0  0  0  0  0  0  0  0  0  0  0
   12.2228  -17.3647   26.3249 C   0  0  0  0  0  0  0  0  0  0  0  0
   10.8026  -17.7729   26.3724 C   0  0  0  0  0  0  0  0  0  0  0  0
    9.7708  -16.7666   26.7193 C   0  0  2  0  0  0  0  0  0  0  0  0
    9.6770  -15.7676   25.6365 N   0  0  0  0  0  0  0  0  0  0  0  0
    9.9129  -16.1319   27.9964 C   0  0  0  0  0  0  0  0  0  0  0  0
    9.9666  -14.8727   28.1855 O   0  0  0  0  0  0  0  0  0  0  0  0
    9.9959  -16.8832   29.1764 O   0  0  0  0  0  0  0  0  0  0  0  0
  1  2  1  0
  2  3  2  0
  4  5  1  0
  4  2  1  0
  5  6  1  6
  7  8  2  0
  7  5  1  0
  9  7  1  0
 10  9  1  0
 11 12  1  0
 10 11  1  6
 12 17  2  0
 12 13  1  0
 13 14  2  0
 14 15  1  0
 16 15  2  0
 17 16  1  0
 18 19  2  0
 18 10  1  0
 21 20  1  0
 22 21  2  0
 23 21  1  0
 25 24  1  6
 24 23  1  0
 25 26  1  0
 26 18  1  0
 27 25  1  0
 28 27  2  0
 29 27  1  0
M  END
$$$$
