NFQ.pdb
     RDKit          3D

 29 29  0  0  1  0  0  0  0  0999 V2000
    8.4299  -18.3247   17.6312 N   0  0  0  0  0  0  0  0  0  0  0  0
    9.0184  -17.0476   17.5032 C   0  0  0  0  0  0  0  0  0  0  0  0
    9.3642  -16.6483   16.3723 O   0  0  0  0  0  0  0  0  0  0  0  0
    9.2203  -16.2049   18.6757 C   0  0  0  0  0  0  0  0  0  0  0  0
    8.9915  -16.9109   19.9806 C   0  0  2  0  0  0  0  0  0  0  0  0
    7.6412  -17.4384   19.9814 N   0  0  0  0  0  0  0  0  0  0  0  0
    9.2082  -16.0656   21.1549 C   0  0  0  0  0  0  0  0  0  0  0  0
   10.3817  -15.7168   21.4571 O   0  0  0  0  0  0  0  0  0  0  0  0
    8.1723  -15.5928   22.0064 N   0  0  0  0  0  0  0  0  0  0  0  0
    8.3613  -14.8943   23.2419 C   0  0  1  0  0  0  0  0  0  0  0  0
    7.0780  -14.2733   23.7376 C   0  0  0  0  0  0  0  0  0  0  0  0
    7.2222  -13.4575   24.9430 C   0  0  0  0  0  0  0  0  0  0  0  0
    8.3769  -12.7065   25.1441 C   0  0  0  0  0  0  0  0  0  0  0  0
    8.5132  -11.9388   26.2822 C   0  0  0  0  0  0  0  0  0  0  0  0
    7.5375  -11.8768   27.2554 C   0  0  0  0  0  0  0  0  0  0  0  0
    6.3934  -12.6207   27.0566 C   0  0  0  0  0  0  0  0  0  0  0  0
    6.2543  -13.4003   25.9016 C   0  0  0  0  0  0  0  0  0  0  0  0
    8.9141  -15.7280   24.3283 C   0  0  0  0  0  0  0  0  0  0  0  0
    8.2480  -16.7466   24.6460 O   0  0  0  0  0  0  0  0  0  0  0  0
   14.2646  -18.0495   22.7875 N   0  0  0  0  0  0  0  0  0  0  0  0
   14.0917  -17.3802   24.0054 C   0  0  0  0  0  0  0  0  0  0  0  0
   14.9676  -16.5499   24.3820 O   0  0  0  0  0  0  0  0  0  0  0  0
   12.9275  -17.6066   24.8515 C   0  0  0  0  0  0  0  0  0  0  0  0
   12.2736  -16.4275   25.4583 C   0  0  0  0  0  0  0  0  0  0  0  0
   10.8294  -16.4892   25.7871 C   0  0  2  0  0  0  0  0  0  0  0  0
   10.1061  -15.4621   25.0119 N   0  0  0  0  0  0  0  0  0  0  0  0
   10.4957  -16.4159   27.1789 C   0  0  0  0  0  0  0  0  0  0  0  0
   10.9448  -17.1962   28.0809 O   0  0  0  0  0  0  0  0  0  0  0  0
    9.6238  -15.4332   27.6666 O   0  0  0  0  0  0  0  0  0  0  0  0
  1  2  1  0
  2  3  2  0
  4  5  1  0
  4  2  1  0
  5  6  1  6
  7  8  2  0
  7  5  1  0
  9  7  1  0
 10  9  1  0
 11 12  1  0
 10 11  1  1
 12 17  2  0
 12 13  1  0
 13 14  2  0
 14 15  1  0
 16 15  2  0
 17 16  1  0
 18 19  2  0
 18 10  1  0
 21 20  1  0
 22 21  2  0
 23 21  1  0
 25 24  1  1
 24 23  1  0
 25 26  1  0
 26 18  1  0
 27 25  1  0
 28 27  2  0
 29 27  1  0
M  END
$$$$
