NFQ.pdb
     RDKit          3D

 29 29  0  0  1  0  0  0  0  0999 V2000
   10.9464  -17.4195   16.9437 N   0  0  0  0  0  0  0  0  0  0  0  0
    9.8365  -17.3566   17.8144 C   0  0  0  0  0  0  0  0  0  0  0  0
    8.8815  -18.1410   17.6395 O   0  0  0  0  0  0  0  0  0  0  0  0
    9.8047  -16.3885   18.9041 C   0  0  0  0  0  0  0  0  0  0  0  0
    9.8235  -17.0086   20.2712 C   0  0  2  0  0  0  0  0  0  0  0  0
    8.7070  -17.9280   20.3687 N   0  0  0  0  0  0  0  0  0  0  0  0
    9.7773  -16.0345   21.3618 C   0  0  0  0  0  0  0  0  0  0  0  0
   10.7824  -15.3059   21.5825 O   0  0  0  0  0  0  0  0  0  0  0  0
    8.6581  -15.8384   22.2166 N   0  0  0  0  0  0  0  0  0  0  0  0
    8.6097  -14.9480   23.3369 C   0  0  1  0  0  0  0  0  0  0  0  0
    7.2045  -14.7844   23.8634 C   0  0  0  0  0  0  0  0  0  0  0  0
    7.0891  -13.9073   25.0282 C   0  0  0  0  0  0  0  0  0  0  0  0
    7.4762  -12.5731   24.9389 C   0  0  0  0  0  0  0  0  0  0  0  0
    7.3688  -11.7468   26.0385 C   0  0  0  0  0  0  0  0  0  0  0  0
    6.8848  -12.1881   27.2526 C   0  0  0  0  0  0  0  0  0  0  0  0
    6.5013  -13.5098   27.3414 C   0  0  0  0  0  0  0  0  0  0  0  0
    6.6099  -14.3492   26.2257 C   0  0  0  0  0  0  0  0  0  0  0  0
    9.4755  -15.3484   24.4642 C   0  0  0  0  0  0  0  0  0  0  0  0
    9.5463  -14.5439   25.4285 O   0  0  0  0  0  0  0  0  0  0  0  0
   10.7218  -17.5752   29.6825 N   0  0  0  0  0  0  0  0  0  0  0  0
    9.8783  -18.3253   28.8537 C   0  0  0  0  0  0  0  0  0  0  0  0
    9.2595  -19.3156   29.3384 O   0  0  0  0  0  0  0  0  0  0  0  0
    9.6857  -17.9954   27.4478 C   0  0  0  0  0  0  0  0  0  0  0  0
   10.3545  -16.7856   26.9233 C   0  0  0  0  0  0  0  0  0  0  0  0
   11.1069  -16.8688   25.6487 C   0  0  2  0  0  0  0  0  0  0  0  0
   10.2065  -16.5403   24.5259 N   0  0  0  0  0  0  0  0  0  0  0  0
   11.8059  -18.0966   25.4078 C   0  0  0  0  0  0  0  0  0  0  0  0
   12.7764  -18.5352   26.1078 O   0  0  0  0  0  0  0  0  0  0  0  0
   11.4490  -18.9403   24.3475 O   0  0  0  0  0  0  0  0  0  0  0  0
  1  2  1  0
  2  3  2  0
  4  5  1  0
  4  2  1  0
  5  6  1  6
  7  8  2  0
  7  5  1  0
  9  7  1  0
 10  9  1  0
 11 12  1  0
 10 11  1  1
 12 17  2  0
 12 13  1  0
 13 14  2  0
 14 15  1  0
 16 15  2  0
 17 16  1  0
 18 19  2  0
 18 10  1  0
 21 20  1  0
 22 21  2  0
 23 21  1  0
 25 24  1  1
 24 23  1  0
 25 26  1  0
 26 18  1  0
 27 25  1  0
 28 27  2  0
 29 27  1  0
M  END
$$$$
