NFQ.pdb
     RDKit          3D

 29 29  0  0  1  0  0  0  0  0999 V2000
    9.8428  -16.8161   17.1351 N   0  0  0  0  0  0  0  0  0  0  0  0
   10.4387  -17.3503   18.2984 C   0  0  0  0  0  0  0  0  0  0  0  0
   10.9040  -18.5080   18.2662 O   0  0  0  0  0  0  0  0  0  0  0  0
   10.5105  -16.5613   19.5224 C   0  0  0  0  0  0  0  0  0  0  0  0
   10.0134  -17.2817   20.7421 C   0  0  2  0  0  0  0  0  0  0  0  0
    8.7162  -17.8518   20.4362 N   0  0  0  0  0  0  0  0  0  0  0  0
    9.9296  -16.4366   21.9334 C   0  0  0  0  0  0  0  0  0  0  0  0
   10.9469  -16.2980   22.6654 O   0  0  0  0  0  0  0  0  0  0  0  0
    8.7600  -15.7397   22.3432 N   0  0  0  0  0  0  0  0  0  0  0  0
    8.5961  -15.0406   23.5820 C   0  0  1  0  0  0  0  0  0  0  0  0
    7.4072  -14.1112   23.5489 C   0  0  0  0  0  0  0  0  0  0  0  0
    7.1770  -13.3727   24.7902 C   0  0  0  0  0  0  0  0  0  0  0  0
    6.2393  -13.8305   25.7117 C   0  0  0  0  0  0  0  0  0  0  0  0
    6.0212  -13.1325   26.8814 C   0  0  0  0  0  0  0  0  0  0  0  0
    6.7033  -11.9741   27.1912 C   0  0  0  0  0  0  0  0  0  0  0  0
    7.6323  -11.5202   26.2787 C   0  0  0  0  0  0  0  0  0  0  0  0
    7.8543  -12.2282   25.0910 C   0  0  0  0  0  0  0  0  0  0  0  0
    8.4536  -15.9220   24.7583 C   0  0  0  0  0  0  0  0  0  0  0  0
    7.5945  -16.8366   24.6714 O   0  0  0  0  0  0  0  0  0  0  0  0
   11.6303  -19.7525   23.8713 N   0  0  0  0  0  0  0  0  0  0  0  0
   11.7108  -19.9849   25.2500 C   0  0  0  0  0  0  0  0  0  0  0  0
   12.3236  -21.0088   25.6677 O   0  0  0  0  0  0  0  0  0  0  0  0
   11.1142  -19.0775   26.2213 C   0  0  0  0  0  0  0  0  0  0  0  0
   10.4316  -17.8694   25.7109 C   0  0  0  0  0  0  0  0  0  0  0  0
    9.7318  -16.9754   26.6643 C   0  0  2  0  0  0  0  0  0  0  0  0
    9.1978  -15.8064   25.9380 N   0  0  0  0  0  0  0  0  0  0  0  0
   10.4827  -16.5693   27.8154 C   0  0  0  0  0  0  0  0  0  0  0  0
   10.7408  -17.3108   28.8193 O   0  0  0  0  0  0  0  0  0  0  0  0
   11.0163  -15.2776   27.9166 O   0  0  0  0  0  0  0  0  0  0  0  0
  1  2  1  0
  2  3  2  0
  4  5  1  0
  4  2  1  0
  5  6  1  6
  7  8  2  0
  7  5  1  0
  9  7  1  0
 10  9  1  0
 11 12  1  0
 10 11  1  6
 12 17  2  0
 12 13  1  0
 13 14  2  0
 14 15  1  0
 16 15  2  0
 17 16  1  0
 18 19  2  0
 18 10  1  0
 21 20  1  0
 22 21  2  0
 23 21  1  0
 25 24  1  6
 24 23  1  0
 25 26  1  0
 26 18  1  0
 27 25  1  0
 28 27  2  0
 29 27  1  0
M  END
$$$$
