NFQ.pdb
     RDKit          3D

 29 29  0  0  1  0  0  0  0  0999 V2000
    8.6483  -20.1709   18.3392 N   0  0  0  0  0  0  0  0  0  0  0  0
    7.9069  -19.0940   18.8725 C   0  0  0  0  0  0  0  0  0  0  0  0
    6.8099  -18.7967   18.3567 O   0  0  0  0  0  0  0  0  0  0  0  0
    8.4146  -18.3379   20.0111 C   0  0  0  0  0  0  0  0  0  0  0  0
    8.5758  -16.8694   19.7446 C   0  0  2  0  0  0  0  0  0  0  0  0
    9.5967  -16.7010   18.7292 N   0  0  0  0  0  0  0  0  0  0  0  0
    8.9083  -16.0866   20.9350 C   0  0  0  0  0  0  0  0  0  0  0  0
   10.0809  -16.1316   21.3965 O   0  0  0  0  0  0  0  0  0  0  0  0
    7.9891  -15.2558   21.6327 N   0  0  0  0  0  0  0  0  0  0  0  0
    8.1946  -14.6917   22.9325 C   0  0  1  0  0  0  0  0  0  0  0  0
    7.0593  -13.7824   23.3356 C   0  0  0  0  0  0  0  0  0  0  0  0
    7.1885  -13.2029   24.6724 C   0  0  0  0  0  0  0  0  0  0  0  0
    6.2096  -13.4391   25.6335 C   0  0  0  0  0  0  0  0  0  0  0  0
    6.3310  -12.8908   26.8936 C   0  0  0  0  0  0  0  0  0  0  0  0
    7.4012  -12.1001   27.2576 C   0  0  0  0  0  0  0  0  0  0  0  0
    8.3711  -11.8658   26.3058 C   0  0  0  0  0  0  0  0  0  0  0  0
    8.2486  -12.4221   25.0264 C   0  0  0  0  0  0  0  0  0  0  0  0
    8.3795  -15.6925   24.0026 C   0  0  0  0  0  0  0  0  0  0  0  0
    7.4454  -16.5195   24.1626 O   0  0  0  0  0  0  0  0  0  0  0  0
   13.2263  -19.1625   24.1804 N   0  0  0  0  0  0  0  0  0  0  0  0
   12.5720  -19.5944   25.3409 C   0  0  0  0  0  0  0  0  0  0  0  0
   12.9944  -20.6248   25.9394 O   0  0  0  0  0  0  0  0  0  0  0  0
   11.4203  -18.8875   25.8854 C   0  0  0  0  0  0  0  0  0  0  0  0
   10.9558  -17.6746   25.1790 C   0  0  0  0  0  0  0  0  0  0  0  0
    9.7743  -16.9432   25.6957 C   0  0  2  0  0  0  0  0  0  0  0  0
    9.5038  -15.7770   24.8319 N   0  0  0  0  0  0  0  0  0  0  0  0
    9.8222  -16.5628   27.0766 C   0  0  0  0  0  0  0  0  0  0  0  0
   10.1203  -15.4002   27.5051 O   0  0  0  0  0  0  0  0  0  0  0  0
    9.5217  -17.4787   28.0937 O   0  0  0  0  0  0  0  0  0  0  0  0
  1  2  1  0
  2  3  2  0
  4  5  1  0
  4  2  1  0
  5  6  1  6
  7  8  2  0
  7  5  1  0
  9  7  1  0
 10  9  1  0
 11 12  1  0
 10 11  1  1
 12 17  2  0
 12 13  1  0
 13 14  2  0
 14 15  1  0
 16 15  2  0
 17 16  1  0
 18 19  2  0
 18 10  1  0
 21 20  1  0
 22 21  2  0
 23 21  1  0
 25 24  1  6
 24 23  1  0
 25 26  1  0
 26 18  1  0
 27 25  1  0
 28 27  2  0
 29 27  1  0
M  END
$$$$
