NFQ.pdb
     RDKit          3D

 29 29  0  0  1  0  0  0  0  0999 V2000
    7.1004  -12.6482   17.3051 N   0  0  0  0  0  0  0  0  0  0  0  0
    8.1204  -13.5167   17.7512 C   0  0  0  0  0  0  0  0  0  0  0  0
    8.6392  -14.3119   16.9410 O   0  0  0  0  0  0  0  0  0  0  0  0
    8.5631  -13.4865   19.1400 C   0  0  0  0  0  0  0  0  0  0  0  0
    8.4112  -14.7968   19.8569 C   0  0  2  0  0  0  0  0  0  0  0  0
    7.0358  -15.2336   19.7189 N   0  0  0  0  0  0  0  0  0  0  0  0
    8.7888  -14.7439   21.2694 C   0  0  0  0  0  0  0  0  0  0  0  0
    9.9386  -14.3347   21.5866 O   0  0  0  0  0  0  0  0  0  0  0  0
    7.9393  -15.1279   22.3429 N   0  0  0  0  0  0  0  0  0  0  0  0
    8.2812  -15.0889   23.7327 C   0  0  1  0  0  0  0  0  0  0  0  0
    7.0561  -15.1287   24.6135 C   0  0  0  0  0  0  0  0  0  0  0  0
    6.8767  -13.9500   25.4607 C   0  0  0  0  0  0  0  0  0  0  0  0
    5.9127  -12.9987   25.1389 C   0  0  0  0  0  0  0  0  0  0  0  0
    5.7453  -11.8862   25.9373 C   0  0  0  0  0  0  0  0  0  0  0  0
    6.5048  -11.6640   27.0673 C   0  0  0  0  0  0  0  0  0  0  0  0
    7.4599  -12.6061   27.3864 C   0  0  0  0  0  0  0  0  0  0  0  0
    7.6305  -13.7358   26.5764 C   0  0  0  0  0  0  0  0  0  0  0  0
    9.1873  -16.1731   24.1622 C   0  0  0  0  0  0  0  0  0  0  0  0
    8.7306  -17.3431   24.0958 O   0  0  0  0  0  0  0  0  0  0  0  0
   15.5036  -16.1544   23.8104 N   0  0  0  0  0  0  0  0  0  0  0  0
   15.2418  -17.2845   24.5950 C   0  0  0  0  0  0  0  0  0  0  0  0
   16.2058  -18.0119   24.9690 O   0  0  0  0  0  0  0  0  0  0  0  0
   13.8898  -17.6457   25.0003 C   0  0  0  0  0  0  0  0  0  0  0  0
   12.7867  -16.7405   24.6135 C   0  0  0  0  0  0  0  0  0  0  0  0
   11.3930  -17.1072   24.9613 C   0  0  2  0  0  0  0  0  0  0  0  0
   10.4935  -15.9850   24.6284 N   0  0  0  0  0  0  0  0  0  0  0  0
   11.1765  -17.5619   26.3030 C   0  0  0  0  0  0  0  0  0  0  0  0
   11.3783  -18.7513   26.7138 O   0  0  0  0  0  0  0  0  0  0  0  0
   10.7184  -16.6910   27.3007 O   0  0  0  0  0  0  0  0  0  0  0  0
  1  2  1  0
  2  3  2  0
  4  5  1  0
  4  2  1  0
  5  6  1  1
  7  8  2  0
  7  5  1  0
  9  7  1  0
 10  9  1  0
 11 12  1  0
 10 11  1  1
 12 17  2  0
 12 13  1  0
 13 14  2  0
 14 15  1  0
 16 15  2  0
 17 16  1  0
 18 19  2  0
 18 10  1  0
 21 20  1  0
 22 21  2  0
 23 21  1  0
 25 24  1  1
 24 23  1  0
 25 26  1  0
 26 18  1  0
 27 25  1  0
 28 27  2  0
 29 27  1  0
M  END
$$$$
