NFQ.pdb
     RDKit          3D

 29 29  0  0  1  0  0  0  0  0999 V2000
    9.0572  -17.2415   16.7520 N   0  0  0  0  0  0  0  0  0  0  0  0
   10.0123  -17.3797   17.7827 C   0  0  0  0  0  0  0  0  0  0  0  0
   10.8503  -18.3023   17.7153 O   0  0  0  0  0  0  0  0  0  0  0  0
   10.0211  -16.4575   18.9120 C   0  0  0  0  0  0  0  0  0  0  0  0
    9.6188  -17.0854   20.2149 C   0  0  2  0  0  0  0  0  0  0  0  0
    8.3264  -17.7169   20.0352 N   0  0  0  0  0  0  0  0  0  0  0  0
    9.5742  -16.1446   21.3345 C   0  0  0  0  0  0  0  0  0  0  0  0
   10.5957  -15.4564   21.6043 O   0  0  0  0  0  0  0  0  0  0  0  0
    8.4392  -15.9387   22.1658 N   0  0  0  0  0  0  0  0  0  0  0  0
    8.4180  -15.1703   23.3738 C   0  0  1  0  0  0  0  0  0  0  0  0
    7.0219  -14.7181   23.7269 C   0  0  0  0  0  0  0  0  0  0  0  0
    6.9338  -13.9043   24.9390 C   0  0  0  0  0  0  0  0  0  0  0  0
    6.3622  -14.4311   26.0939 C   0  0  0  0  0  0  0  0  0  0  0  0
    6.2776  -13.6624   27.2363 C   0  0  0  0  0  0  0  0  0  0  0  0
    6.7430  -12.3649   27.2926 C   0  0  0  0  0  0  0  0  0  0  0  0
    7.3093  -11.8427   26.1488 C   0  0  0  0  0  0  0  0  0  0  0  0
    7.3956  -12.6224   24.9886 C   0  0  0  0  0  0  0  0  0  0  0  0
    8.9804  -15.8717   24.5454 C   0  0  0  0  0  0  0  0  0  0  0  0
    8.4583  -16.9776   24.8392 O   0  0  0  0  0  0  0  0  0  0  0  0
   15.0164  -16.0987   24.8903 N   0  0  0  0  0  0  0  0  0  0  0  0
   14.0565  -16.7266   24.0868 C   0  0  0  0  0  0  0  0  0  0  0  0
   14.4143  -17.2460   22.9911 O   0  0  0  0  0  0  0  0  0  0  0  0
   12.6554  -16.8060   24.4782 C   0  0  0  0  0  0  0  0  0  0  0  0
   12.2641  -16.2093   25.7731 C   0  0  0  0  0  0  0  0  0  0  0  0
   10.8458  -16.2706   26.1999 C   0  0  2  0  0  0  0  0  0  0  0  0
   10.0347  -15.3940   25.3323 N   0  0  0  0  0  0  0  0  0  0  0  0
   10.5918  -16.0043   27.5850 C   0  0  0  0  0  0  0  0  0  0  0  0
   11.1143  -16.6380   28.5595 O   0  0  0  0  0  0  0  0  0  0  0  0
    9.7225  -14.9789   27.9806 O   0  0  0  0  0  0  0  0  0  0  0  0
  1  2  1  0
  2  3  2  0
  4  5  1  0
  4  2  1  0
  5  6  1  6
  7  8  2  0
  7  5  1  0
  9  7  1  0
 10  9  1  0
 11 12  1  0
 10 11  1  1
 12 17  2  0
 12 13  1  0
 13 14  2  0
 14 15  1  0
 16 15  2  0
 17 16  1  0
 18 19  2  0
 18 10  1  0
 21 20  1  0
 22 21  2  0
 23 21  1  0
 25 24  1  1
 24 23  1  0
 25 26  1  0
 26 18  1  0
 27 25  1  0
 28 27  2  0
 29 27  1  0
M  END
$$$$
