NFQ.pdb
     RDKit          3D

 29 29  0  0  1  0  0  0  0  0999 V2000
    8.0476  -20.2725   20.6865 N   0  0  0  0  0  0  0  0  0  0  0  0
    9.3348  -20.0977   21.2398 C   0  0  0  0  0  0  0  0  0  0  0  0
   10.2211  -20.9422   20.9960 O   0  0  0  0  0  0  0  0  0  0  0  0
    9.6269  -18.9463   22.0852 C   0  0  0  0  0  0  0  0  0  0  0  0
    9.3563  -17.6237   21.4287 C   0  0  2  0  0  0  0  0  0  0  0  0
   10.2906  -17.4609   20.3322 N   0  0  0  0  0  0  0  0  0  0  0  0
    9.4399  -16.4835   22.3417 C   0  0  0  0  0  0  0  0  0  0  0  0
   10.5394  -16.2171   22.8984 O   0  0  0  0  0  0  0  0  0  0  0  0
    8.3498  -15.6281   22.6603 N   0  0  0  0  0  0  0  0  0  0  0  0
    8.2829  -14.7455   23.7858 C   0  0  1  0  0  0  0  0  0  0  0  0
    6.9622  -14.0176   23.8505 C   0  0  0  0  0  0  0  0  0  0  0  0
    6.8284  -13.0982   24.9801 C   0  0  0  0  0  0  0  0  0  0  0  0
    5.9420  -13.3864   26.0141 C   0  0  0  0  0  0  0  0  0  0  0  0
    5.8148  -12.5178   27.0784 C   0  0  0  0  0  0  0  0  0  0  0  0
    6.5407  -11.3484   27.1712 C   0  0  0  0  0  0  0  0  0  0  0  0
    7.4188  -11.0625   26.1471 C   0  0  0  0  0  0  0  0  0  0  0  0
    7.5485  -11.9436   25.0664 C   0  0  0  0  0  0  0  0  0  0  0  0
    8.5027  -15.4086   25.0869 C   0  0  0  0  0  0  0  0  0  0  0  0
    8.7015  -14.6536   26.0731 O   0  0  0  0  0  0  0  0  0  0  0  0
    6.8518  -20.8391   25.3454 N   0  0  0  0  0  0  0  0  0  0  0  0
    7.2277  -20.8534   26.6944 C   0  0  0  0  0  0  0  0  0  0  0  0
    7.3384  -21.9623   27.2915 O   0  0  0  0  0  0  0  0  0  0  0  0
    7.5021  -19.6272   27.4317 C   0  0  0  0  0  0  0  0  0  0  0  0
    7.3313  -18.3410   26.7230 C   0  0  0  0  0  0  0  0  0  0  0  0
    8.4788  -17.4071   26.6300 C   0  0  2  0  0  0  0  0  0  0  0  0
    8.5038  -16.7937   25.2875 N   0  0  0  0  0  0  0  0  0  0  0  0
    9.7609  -17.9468   26.9751 C   0  0  0  0  0  0  0  0  0  0  0  0
   10.6715  -18.2596   26.1402 O   0  0  0  0  0  0  0  0  0  0  0  0
   10.1210  -18.1676   28.3112 O   0  0  0  0  0  0  0  0  0  0  0  0
  1  2  1  0
  2  3  2  0
  4  5  1  0
  4  2  1  0
  5  6  1  6
  7  8  2  0
  7  5  1  0
  9  7  1  0
 10  9  1  0
 11 12  1  0
 10 11  1  1
 12 17  2  0
 12 13  1  0
 13 14  2  0
 14 15  1  0
 16 15  2  0
 17 16  1  0
 18 19  2  0
 18 10  1  0
 21 20  1  0
 22 21  2  0
 23 21  1  0
 25 24  1  6
 24 23  1  0
 25 26  1  0
 26 18  1  0
 27 25  1  0
 28 27  2  0
 29 27  1  0
M  END
$$$$
