NFQ.pdb
     RDKit          3D

 29 29  0  0  1  0  0  0  0  0999 V2000
   12.1526  -16.9615   17.4533 N   0  0  0  0  0  0  0  0  0  0  0  0
   10.8297  -16.8902   17.9418 C   0  0  0  0  0  0  0  0  0  0  0  0
    9.9423  -17.5776   17.3959 O   0  0  0  0  0  0  0  0  0  0  0  0
   10.5026  -16.0255   19.0692 C   0  0  0  0  0  0  0  0  0  0  0  0
   10.0552  -16.7663   20.2959 C   0  0  2  0  0  0  0  0  0  0  0  0
    8.7778  -17.3892   20.0102 N   0  0  0  0  0  0  0  0  0  0  0  0
    9.9559  -15.9259   21.4894 C   0  0  0  0  0  0  0  0  0  0  0  0
   10.9609  -15.2626   21.8634 O   0  0  0  0  0  0  0  0  0  0  0  0
    8.7837  -15.7936   22.2833 N   0  0  0  0  0  0  0  0  0  0  0  0
    8.6983  -15.1081   23.5375 C   0  0  1  0  0  0  0  0  0  0  0  0
    7.3174  -14.5483   23.7782 C   0  0  0  0  0  0  0  0  0  0  0  0
    7.1840  -13.7628   25.0047 C   0  0  0  0  0  0  0  0  0  0  0  0
    7.8894  -12.5716   25.1514 C   0  0  0  0  0  0  0  0  0  0  0  0
    7.7648  -11.8322   26.3093 C   0  0  0  0  0  0  0  0  0  0  0  0
    6.9556  -12.2243   27.3555 C   0  0  0  0  0  0  0  0  0  0  0  0
    6.2567  -13.4043   27.2106 C   0  0  0  0  0  0  0  0  0  0  0  0
    6.3826  -14.1556   26.0355 C   0  0  0  0  0  0  0  0  0  0  0  0
    9.0648  -15.9359   24.7042 C   0  0  0  0  0  0  0  0  0  0  0  0
    8.3620  -16.9591   24.9071 O   0  0  0  0  0  0  0  0  0  0  0  0
   14.3996  -18.3629   25.7663 N   0  0  0  0  0  0  0  0  0  0  0  0
   13.3115  -18.5839   24.9128 C   0  0  0  0  0  0  0  0  0  0  0  0
   13.4712  -19.3002   23.8834 O   0  0  0  0  0  0  0  0  0  0  0  0
   11.9955  -18.0180   25.1785 C   0  0  0  0  0  0  0  0  0  0  0  0
   11.8398  -17.1594   26.3720 C   0  0  0  0  0  0  0  0  0  0  0  0
   10.5129  -16.5710   26.6729 C   0  0  2  0  0  0  0  0  0  0  0  0
   10.1216  -15.6598   25.5793 N   0  0  0  0  0  0  0  0  0  0  0  0
   10.3808  -15.9324   27.9492 C   0  0  0  0  0  0  0  0  0  0  0  0
   10.1061  -14.7005   28.1257 O   0  0  0  0  0  0  0  0  0  0  0  0
   10.5411  -16.6509   29.1415 O   0  0  0  0  0  0  0  0  0  0  0  0
  1  2  1  0
  2  3  2  0
  4  5  1  0
  4  2  1  0
  5  6  1  6
  7  8  2  0
  7  5  1  0
  9  7  1  0
 10  9  1  0
 11 12  1  0
 10 11  1  1
 12 17  2  0
 12 13  1  0
 13 14  2  0
 14 15  1  0
 16 15  2  0
 17 16  1  0
 18 19  2  0
 18 10  1  0
 21 20  1  0
 22 21  2  0
 23 21  1  0
 25 24  1  6
 24 23  1  0
 25 26  1  0
 26 18  1  0
 27 25  1  0
 28 27  2  0
 29 27  1  0
M  END
$$$$
