PQC.pdb
     RDKit          3D

 23 23  0  0  1  0  0  0  0  0999 V2000
   20.4563  -11.0853  -18.0864 N   0  0  0  0  0  0  0  0  0  0  0  0
   20.6279  -12.4378  -18.5845 C   0  0  0  0  0  0  0  0  0  0  0  0
   20.4015  -13.3580  -17.4233 C   0  0  0  0  0  0  0  0  0  0  0  0
   19.9778  -12.4437  -16.2918 C   0  0  0  0  0  0  0  0  0  0  0  0
   19.5033  -11.2276  -17.0177 C   0  0  1  0  0  0  0  0  0  0  0  0
   19.3846  -10.0206  -16.1842 C   0  0  0  0  0  0  0  0  0  0  0  0
   18.5835   -9.9464  -15.2039 O   0  0  0  0  0  0  0  0  0  0  0  0
   24.0177   -6.2594  -14.8235 N   0  0  0  0  0  0  0  0  0  0  0  0
   22.9489   -5.4778  -14.3424 C   0  0  0  0  0  0  0  0  0  0  0  0
   23.1921   -4.4533  -13.6471 O   0  0  0  0  0  0  0  0  0  0  0  0
   21.5183   -5.8453  -14.6451 C   0  0  0  0  0  0  0  0  0  0  0  0
   21.5096   -7.0960  -15.4541 C   0  0  0  0  0  0  0  0  0  0  0  0
   20.1320   -7.6447  -15.7254 C   0  0  2  0  0  0  0  0  0  0  0  0
   20.1913   -8.8872  -16.4757 N   0  0  0  0  0  0  0  0  0  0  0  0
   19.2480   -6.6887  -16.4002 C   0  0  0  0  0  0  0  0  0  0  0  0
   19.2580   -6.4183  -17.6124 O   0  0  0  0  0  0  0  0  0  0  0  0
   18.2617   -5.9753  -15.6241 N   0  0  0  0  0  0  0  0  0  0  0  0
   17.4122   -4.9785  -16.2349 C   0  0  1  0  0  0  0  0  0  0  0  0
   15.9536   -5.3804  -16.2036 C   0  0  0  0  0  0  0  0  0  0  0  0
   14.9032   -4.0606  -16.8302 S   0  0  0  0  0  0  0  0  0  0  0  0
   17.5575   -3.6862  -15.5333 C   0  0  0  0  0  0  0  0  0  0  0  0
   17.6445   -3.6818  -14.2869 O   0  0  0  0  0  0  0  0  0  0  0  0
   17.6011   -2.4778  -16.2015 O   0  0  0  0  0  0  0  0  0  0  0  0
  1  2  1  0
  2  3  1  0
  4  3  1  0
  5  4  1  0
  5  1  1  0
  6  7  2  0
  5  6  1  1
  8  9  1  0
  9 10  2  0
  9 11  1  0
 11 12  1  0
 13 12  1  6
 13 15  1  0
 13 14  1  0
 14  6  1  0
 15 17  1  0
 16 15  2  0
 17 18  1  0
 18 21  1  0
 18 19  1  1
 20 19  1  0
 21 22  2  0
 21 23  1  0
M  END
$$$$
