PQC.pdb
     RDKit          3D

 23 23  0  0  1  0  0  0  0  0999 V2000
   24.8647  -12.1740  -15.8899 N   0  0  0  0  0  0  0  0  0  0  0  0
   25.7104  -13.3444  -16.0380 C   0  0  0  0  0  0  0  0  0  0  0  0
   25.4072  -13.9292  -17.3842 C   0  0  0  0  0  0  0  0  0  0  0  0
   24.4396  -12.9484  -18.0146 C   0  0  0  0  0  0  0  0  0  0  0  0
   24.6919  -11.6984  -17.2370 C   0  0  1  0  0  0  0  0  0  0  0  0
   23.6412  -10.6753  -17.3586 C   0  0  0  0  0  0  0  0  0  0  0  0
   23.3758  -10.0992  -18.4569 O   0  0  0  0  0  0  0  0  0  0  0  0
   18.1220  -10.9027  -15.1002 N   0  0  0  0  0  0  0  0  0  0  0  0
   18.1492   -9.5184  -15.3602 C   0  0  0  0  0  0  0  0  0  0  0  0
   17.0926   -8.8409  -15.2306 O   0  0  0  0  0  0  0  0  0  0  0  0
   19.4210   -8.8325  -15.7909 C   0  0  0  0  0  0  0  0  0  0  0  0
   20.5069   -9.8493  -15.8682 C   0  0  0  0  0  0  0  0  0  0  0  0
   21.8581   -9.2819  -16.2215 C   0  0  2  0  0  0  0  0  0  0  0  0
   22.8863  -10.3081  -16.2117 N   0  0  0  0  0  0  0  0  0  0  0  0
   22.2578   -8.1580  -15.3684 C   0  0  0  0  0  0  0  0  0  0  0  0
   22.7204   -8.2450  -14.2190 O   0  0  0  0  0  0  0  0  0  0  0  0
   22.1186   -6.8113  -15.8697 N   0  0  0  0  0  0  0  0  0  0  0  0
   22.5313   -5.6755  -15.0773 C   0  0  1  0  0  0  0  0  0  0  0  0
   23.0565   -4.5457  -15.9362 C   0  0  0  0  0  0  0  0  0  0  0  0
   24.5124   -5.0572  -16.8618 S   0  0  0  0  0  0  0  0  0  0  0  0
   21.3937   -5.1694  -14.2814 C   0  0  0  0  0  0  0  0  0  0  0  0
   20.2316   -5.4645  -14.6329 O   0  0  0  0  0  0  0  0  0  0  0  0
   21.5630   -4.3801  -13.1602 O   0  0  0  0  0  0  0  0  0  0  0  0
  1  2  1  0
  2  3  1  0
  4  3  1  0
  5  4  1  0
  5  1  1  0
  6  7  2  0
  5  6  1  1
  8  9  1  0
  9 10  2  0
  9 11  1  0
 11 12  1  0
 13 12  1  1
 13 15  1  0
 13 14  1  0
 14  6  1  0
 15 17  1  0
 16 15  2  0
 17 18  1  0
 18 21  1  0
 18 19  1  6
 20 19  1  0
 21 22  2  0
 21 23  1  0
M  END
$$$$
