PQC.pdb
     RDKit          3D

 23 23  0  0  1  0  0  0  0  0999 V2000
   28.0131  -21.1315  -15.3915 N   0  0  0  0  0  0  0  0  0  0  0  0
   29.1434  -21.5271  -16.2118 C   0  0  0  0  0  0  0  0  0  0  0  0
   28.6498  -22.5934  -17.1423 C   0  0  0  0  0  0  0  0  0  0  0  0
   27.1615  -22.6745  -16.8709 C   0  0  0  0  0  0  0  0  0  0  0  0
   26.8735  -21.3504  -16.2424 C   0  0  1  0  0  0  0  0  0  0  0  0
   25.5919  -21.2764  -15.5230 C   0  0  0  0  0  0  0  0  0  0  0  0
   24.4784  -21.4865  -16.0925 O   0  0  0  0  0  0  0  0  0  0  0  0
   25.3381  -20.9176   -9.2144 N   0  0  0  0  0  0  0  0  0  0  0  0
   23.9757  -21.0698   -9.5392 C   0  0  0  0  0  0  0  0  0  0  0  0
   23.1320  -21.2389   -8.6163 O   0  0  0  0  0  0  0  0  0  0  0  0
   23.5088  -21.0337  -10.9724 C   0  0  0  0  0  0  0  0  0  0  0  0
   24.6992  -20.8940  -11.8569 C   0  0  0  0  0  0  0  0  0  0  0  0
   24.3783  -20.9151  -13.3297 C   0  0  2  0  0  0  0  0  0  0  0  0
   25.5848  -20.9588  -14.1376 N   0  0  0  0  0  0  0  0  0  0  0  0
   23.5256  -19.8003  -13.7549 C   0  0  0  0  0  0  0  0  0  0  0  0
   23.9199  -18.6820  -14.1247 O   0  0  0  0  0  0  0  0  0  0  0  0
   22.0925  -19.9743  -13.7601 N   0  0  0  0  0  0  0  0  0  0  0  0
   21.2286  -19.0173  -14.4129 C   0  0  1  0  0  0  0  0  0  0  0  0
   21.4408  -18.9915  -15.9110 C   0  0  0  0  0  0  0  0  0  0  0  0
   20.2944  -17.8574  -16.7094 S   0  0  0  0  0  0  0  0  0  0  0  0
   19.8125  -19.3439  -14.1456 C   0  0  0  0  0  0  0  0  0  0  0  0
   18.9855  -18.4124  -14.0488 O   0  0  0  0  0  0  0  0  0  0  0  0
   19.3636  -20.6420  -13.9976 O   0  0  0  0  0  0  0  0  0  0  0  0
  1  2  1  0
  2  3  1  0
  4  3  1  0
  5  4  1  0
  5  1  1  0
  6  7  2  0
  5  6  1  1
  8  9  1  0
  9 10  2  0
  9 11  1  0
 11 12  1  0
 13 12  1  1
 13 15  1  0
 13 14  1  0
 14  6  1  0
 15 17  1  0
 16 15  2  0
 17 18  1  0
 18 21  1  0
 18 19  1  6
 20 19  1  0
 21 22  2  0
 21 23  1  0
M  END
$$$$
