PQC.pdb
     RDKit          3D

 23 23  0  0  1  0  0  0  0  0999 V2000
   27.3570  -19.3314  -17.8384 N   0  0  0  0  0  0  0  0  0  0  0  0
   28.3041  -19.1816  -18.9281 C   0  0  0  0  0  0  0  0  0  0  0  0
   28.8801  -17.8027  -18.8137 C   0  0  0  0  0  0  0  0  0  0  0  0
   28.2884  -17.2495  -17.5333 C   0  0  0  0  0  0  0  0  0  0  0  0
   27.8866  -18.4873  -16.8002 C   0  0  1  0  0  0  0  0  0  0  0  0
   26.9405  -18.2680  -15.6946 C   0  0  0  0  0  0  0  0  0  0  0  0
   27.1894  -17.4811  -14.7317 O   0  0  0  0  0  0  0  0  0  0  0  0
   22.0558  -18.7366  -17.7086 N   0  0  0  0  0  0  0  0  0  0  0  0
   22.6349  -17.4763  -17.4620 C   0  0  0  0  0  0  0  0  0  0  0  0
   22.5602  -16.5752  -18.3421 O   0  0  0  0  0  0  0  0  0  0  0  0
   23.3429  -17.1861  -16.1627 C   0  0  0  0  0  0  0  0  0  0  0  0
   23.3358  -18.4220  -15.3311 C   0  0  0  0  0  0  0  0  0  0  0  0
   24.6633  -18.7426  -14.6929 C   0  0  2  0  0  0  0  0  0  0  0  0
   25.6969  -18.9562  -15.6911 N   0  0  0  0  0  0  0  0  0  0  0  0
   24.6058  -19.8834  -13.7731 C   0  0  0  0  0  0  0  0  0  0  0  0
   24.4158  -21.0682  -14.0937 O   0  0  0  0  0  0  0  0  0  0  0  0
   24.7812  -19.6546  -12.3585 N   0  0  0  0  0  0  0  0  0  0  0  0
   24.6320  -20.7312  -11.4061 C   0  0  1  0  0  0  0  0  0  0  0  0
   25.2691  -20.4017  -10.0736 C   0  0  0  0  0  0  0  0  0  0  0  0
   24.8864  -21.6577   -8.8431 S   0  0  0  0  0  0  0  0  0  0  0  0
   23.2000  -21.0189  -11.1826 C   0  0  0  0  0  0  0  0  0  0  0  0
   22.3922  -20.0667  -11.1380 O   0  0  0  0  0  0  0  0  0  0  0  0
   22.7155  -22.3025  -11.0204 O   0  0  0  0  0  0  0  0  0  0  0  0
  1  2  1  0
  2  3  1  0
  4  3  1  0
  5  4  1  0
  5  1  1  0
  6  7  2  0
  5  6  1  1
  8  9  1  0
  9 10  2  0
  9 11  1  0
 11 12  1  0
 13 12  1  6
 13 15  1  0
 13 14  1  0
 14  6  1  0
 15 17  1  0
 16 15  2  0
 17 18  1  0
 18 21  1  0
 18 19  1  1
 20 19  1  0
 21 22  2  0
 21 23  1  0
M  END
$$$$
