PQC.pdb
     RDKit          3D

 23 23  0  0  1  0  0  0  0  0999 V2000
   27.1412  -19.3785  -18.1162 N   0  0  0  0  0  0  0  0  0  0  0  0
   28.1730  -19.2132  -19.1237 C   0  0  0  0  0  0  0  0  0  0  0  0
   28.7690  -17.8543  -18.9130 C   0  0  0  0  0  0  0  0  0  0  0  0
   28.0925  -17.3332  -17.6614 C   0  0  0  0  0  0  0  0  0  0  0  0
   27.6075  -18.5863  -17.0091 C   0  0  1  0  0  0  0  0  0  0  0  0
   26.5838  -18.3834  -15.9715 C   0  0  0  0  0  0  0  0  0  0  0  0
   26.8196  -17.7532  -14.8966 O   0  0  0  0  0  0  0  0  0  0  0  0
   21.2580  -20.8750  -15.9773 N   0  0  0  0  0  0  0  0  0  0  0  0
   20.8686  -19.8451  -15.0985 C   0  0  0  0  0  0  0  0  0  0  0  0
   19.8035  -19.9658  -14.4329 O   0  0  0  0  0  0  0  0  0  0  0  0
   21.7042  -18.6000  -14.9400 C   0  0  0  0  0  0  0  0  0  0  0  0
   22.8570  -18.6783  -15.8802 C   0  0  0  0  0  0  0  0  0  0  0  0
   24.2007  -18.7608  -15.2017 C   0  0  2  0  0  0  0  0  0  0  0  0
   25.2769  -18.9071  -16.1665 N   0  0  0  0  0  0  0  0  0  0  0  0
   24.2785  -19.8226  -14.1931 C   0  0  0  0  0  0  0  0  0  0  0  0
   24.4944  -21.0250  -14.4171 O   0  0  0  0  0  0  0  0  0  0  0  0
   24.0940  -19.4847  -12.8017 N   0  0  0  0  0  0  0  0  0  0  0  0
   24.1539  -20.4996  -11.7748 C   0  0  1  0  0  0  0  0  0  0  0  0
   25.0823  -20.1093  -10.6453 C   0  0  0  0  0  0  0  0  0  0  0  0
   25.0068  -21.3034   -9.3013 S   0  0  0  0  0  0  0  0  0  0  0  0
   22.8075  -20.7370  -11.2141 C   0  0  0  0  0  0  0  0  0  0  0  0
   21.9671  -19.8130  -11.2487 O   0  0  0  0  0  0  0  0  0  0  0  0
   22.4382  -21.9433  -10.6510 O   0  0  0  0  0  0  0  0  0  0  0  0
  1  2  1  0
  2  3  1  0
  4  3  1  0
  5  4  1  0
  5  1  1  0
  6  7  2  0
  5  6  1  1
  8  9  1  0
  9 10  2  0
  9 11  1  0
 11 12  1  0
 13 12  1  6
 13 15  1  0
 13 14  1  0
 14  6  1  0
 15 17  1  0
 16 15  2  0
 17 18  1  0
 18 21  1  0
 18 19  1  1
 20 19  1  0
 21 22  2  0
 21 23  1  0
M  END
$$$$
