PQC.pdb
     RDKit          3D

 23 23  0  0  1  0  0  0  0  0999 V2000
   24.1108  -12.5870  -15.1346 N   0  0  0  0  0  0  0  0  0  0  0  0
   24.8372  -13.8379  -15.0143 C   0  0  0  0  0  0  0  0  0  0  0  0
   24.7075  -14.5414  -16.3313 C   0  0  0  0  0  0  0  0  0  0  0  0
   23.9747  -13.5550  -17.2177 C   0  0  0  0  0  0  0  0  0  0  0  0
   24.2243  -12.2529  -16.5297 C   0  0  1  0  0  0  0  0  0  0  0  0
   23.3274  -11.1598  -16.9373 C   0  0  0  0  0  0  0  0  0  0  0  0
   23.2782  -10.7279  -18.1287 O   0  0  0  0  0  0  0  0  0  0  0  0
   17.5089  -10.3975  -16.4585 N   0  0  0  0  0  0  0  0  0  0  0  0
   18.2521  -11.0263  -15.4402 C   0  0  0  0  0  0  0  0  0  0  0  0
   17.6632  -11.7765  -14.6140 O   0  0  0  0  0  0  0  0  0  0  0  0
   19.7406  -10.8176  -15.3212 C   0  0  0  0  0  0  0  0  0  0  0  0
   20.1691   -9.8443  -16.3643 C   0  0  0  0  0  0  0  0  0  0  0  0
   21.6129   -9.4237  -16.2584 C   0  0  2  0  0  0  0  0  0  0  0  0
   22.4780  -10.5549  -15.9714 N   0  0  0  0  0  0  0  0  0  0  0  0
   21.8368   -8.3552  -15.2793 C   0  0  0  0  0  0  0  0  0  0  0  0
   21.9913   -8.5089  -14.0565 O   0  0  0  0  0  0  0  0  0  0  0  0
   21.8903   -6.9859  -15.7336 N   0  0  0  0  0  0  0  0  0  0  0  0
   22.1268   -5.9026  -14.8069 C   0  0  1  0  0  0  0  0  0  0  0  0
   23.0568   -4.8568  -15.3826 C   0  0  0  0  0  0  0  0  0  0  0  0
   24.6344   -5.5814  -15.8560 S   0  0  0  0  0  0  0  0  0  0  0  0
   20.8502   -5.2493  -14.4504 C   0  0  0  0  0  0  0  0  0  0  0  0
   19.8665   -5.3917  -15.2076 O   0  0  0  0  0  0  0  0  0  0  0  0
   20.6990   -4.4846  -13.3098 O   0  0  0  0  0  0  0  0  0  0  0  0
  1  2  1  0
  2  3  1  0
  4  3  1  0
  5  4  1  0
  5  1  1  0
  6  7  2  0
  5  6  1  6
  8  9  1  0
  9 10  2  0
  9 11  1  0
 11 12  1  0
 13 12  1  1
 13 15  1  0
 13 14  1  0
 14  6  1  0
 15 17  1  0
 16 15  2  0
 17 18  1  0
 18 21  1  0
 18 19  1  6
 20 19  1  0
 21 22  2  0
 21 23  1  0
M  END
$$$$
