PQC.pdb
     RDKit          3D

 23 23  0  0  1  0  0  0  0  0999 V2000
   27.7757  -19.4386  -15.7800 N   0  0  0  0  0  0  0  0  0  0  0  0
   28.2610  -18.7866  -16.9826 C   0  0  0  0  0  0  0  0  0  0  0  0
   27.4254  -17.5573  -17.1750 C   0  0  0  0  0  0  0  0  0  0  0  0
   26.5378  -17.5062  -15.9482 C   0  0  0  0  0  0  0  0  0  0  0  0
   27.2850  -18.3541  -14.9715 C   0  0  1  0  0  0  0  0  0  0  0  0
   26.4927  -18.8062  -13.8168 C   0  0  0  0  0  0  0  0  0  0  0  0
   25.8188  -18.0071  -13.0987 O   0  0  0  0  0  0  0  0  0  0  0  0
   24.4011  -24.6480  -13.4671 N   0  0  0  0  0  0  0  0  0  0  0  0
   23.7958  -23.5915  -14.1756 C   0  0  0  0  0  0  0  0  0  0  0  0
   22.9338  -23.8500  -15.0601 O   0  0  0  0  0  0  0  0  0  0  0  0
   24.1611  -22.1559  -13.8942 C   0  0  0  0  0  0  0  0  0  0  0  0
   25.1520  -22.1267  -12.7824 C   0  0  0  0  0  0  0  0  0  0  0  0
   25.6398  -20.7450  -12.4282 C   0  0  2  0  0  0  0  0  0  0  0  0
   26.4713  -20.1871  -13.4807 N   0  0  0  0  0  0  0  0  0  0  0  0
   26.3454  -20.6890  -11.1438 C   0  0  0  0  0  0  0  0  0  0  0  0
   27.5727  -20.5737  -10.9918 O   0  0  0  0  0  0  0  0  0  0  0  0
   25.5841  -20.7714   -9.9199 N   0  0  0  0  0  0  0  0  0  0  0  0
   26.2153  -20.5709   -8.6356 C   0  0  1  0  0  0  0  0  0  0  0  0
   26.8583  -19.2053   -8.5268 C   0  0  0  0  0  0  0  0  0  0  0  0
   27.4901  -18.9159   -6.8670 S   0  0  0  0  0  0  0  0  0  0  0  0
   25.2201  -20.7081   -7.5519 C   0  0  0  0  0  0  0  0  0  0  0  0
   24.0104  -20.5447   -7.8183 O   0  0  0  0  0  0  0  0  0  0  0  0
   25.5737  -21.0107   -6.2511 O   0  0  0  0  0  0  0  0  0  0  0  0
  1  2  1  0
  2  3  1  0
  4  3  1  0
  5  4  1  0
  5  1  1  0
  6  7  2  0
  5  6  1  1
  8  9  1  0
  9 10  2  0
  9 11  1  0
 11 12  1  0
 13 12  1  6
 13 15  1  0
 13 14  1  0
 14  6  1  0
 15 17  1  0
 16 15  2  0
 17 18  1  0
 18 21  1  0
 18 19  1  6
 20 19  1  0
 21 22  2  0
 21 23  1  0
M  END
$$$$
