PQC.pdb
     RDKit          3D

 23 23  0  0  1  0  0  0  0  0999 V2000
   23.1269  -12.9795  -15.3073 N   0  0  0  0  0  0  0  0  0  0  0  0
   24.0049  -14.1279  -15.4390 C   0  0  0  0  0  0  0  0  0  0  0  0
   24.8478  -13.8903  -16.6553 C   0  0  0  0  0  0  0  0  0  0  0  0
   24.4693  -12.4963  -17.1126 C   0  0  0  0  0  0  0  0  0  0  0  0
   23.8849  -11.8965  -15.8759 C   0  0  1  0  0  0  0  0  0  0  0  0
   23.0817  -10.6840  -16.1002 C   0  0  0  0  0  0  0  0  0  0  0  0
   23.5971   -9.5837  -16.4636 O   0  0  0  0  0  0  0  0  0  0  0  0
   16.7588  -10.8439  -16.3147 N   0  0  0  0  0  0  0  0  0  0  0  0
   17.0127   -9.5019  -16.6600 C   0  0  0  0  0  0  0  0  0  0  0  0
   16.0520   -8.7519  -16.9868 O   0  0  0  0  0  0  0  0  0  0  0  0
   18.4144   -8.9467  -16.6456 C   0  0  0  0  0  0  0  0  0  0  0  0
   19.3578  -10.0461  -16.2988 C   0  0  0  0  0  0  0  0  0  0  0  0
   20.7915   -9.6041  -16.1515 C   0  0  2  0  0  0  0  0  0  0  0  0
   21.6744  -10.7314  -15.9068 N   0  0  0  0  0  0  0  0  0  0  0  0
   20.9811   -8.5804  -15.1186 C   0  0  0  0  0  0  0  0  0  0  0  0
   21.0726   -8.7868  -13.8973 O   0  0  0  0  0  0  0  0  0  0  0  0
   21.0754   -7.1946  -15.5120 N   0  0  0  0  0  0  0  0  0  0  0  0
   21.3004   -6.1563  -14.5324 C   0  0  1  0  0  0  0  0  0  0  0  0
   22.6554   -5.5035  -14.6993 C   0  0  0  0  0  0  0  0  0  0  0  0
   22.8640   -4.1375  -13.5467 S   0  0  0  0  0  0  0  0  0  0  0  0
   20.2602   -5.1131  -14.6477 C   0  0  0  0  0  0  0  0  0  0  0  0
   19.8477   -4.7941  -15.7832 O   0  0  0  0  0  0  0  0  0  0  0  0
   19.7230   -4.4734  -13.5474 O   0  0  0  0  0  0  0  0  0  0  0  0
  1  2  1  0
  2  3  1  0
  4  3  1  0
  5  4  1  0
  5  1  1  0
  6  7  2  0
  5  6  1  6
  8  9  1  0
  9 10  2  0
  9 11  1  0
 11 12  1  0
 13 12  1  1
 13 15  1  0
 13 14  1  0
 14  6  1  0
 15 17  1  0
 16 15  2  0
 17 18  1  0
 18 21  1  0
 18 19  1  6
 20 19  1  0
 21 22  2  0
 21 23  1  0
M  END
$$$$
