PQC.pdb
     RDKit          3D

 23 23  0  0  1  0  0  0  0  0999 V2000
   28.0054  -20.1619  -16.7865 N   0  0  0  0  0  0  0  0  0  0  0  0
   28.4535  -20.2022  -18.1666 C   0  0  0  0  0  0  0  0  0  0  0  0
   27.7616  -19.0794  -18.8786 C   0  0  0  0  0  0  0  0  0  0  0  0
   27.0050  -18.3481  -17.7886 C   0  0  0  0  0  0  0  0  0  0  0  0
   27.7294  -18.7692  -16.5521 C   0  0  1  0  0  0  0  0  0  0  0  0
   26.9982  -18.5278  -15.2981 C   0  0  0  0  0  0  0  0  0  0  0  0
   26.6590  -17.3654  -14.9207 O   0  0  0  0  0  0  0  0  0  0  0  0
   21.7153  -20.2347  -14.4379 N   0  0  0  0  0  0  0  0  0  0  0  0
   22.5908  -21.3343  -14.5338 C   0  0  0  0  0  0  0  0  0  0  0  0
   22.1494  -22.4470  -14.9329 O   0  0  0  0  0  0  0  0  0  0  0  0
   24.0475  -21.2033  -14.1674 C   0  0  0  0  0  0  0  0  0  0  0  0
   24.3122  -19.7931  -13.7672 C   0  0  0  0  0  0  0  0  0  0  0  0
   25.7350  -19.5293  -13.3447 C   0  0  2  0  0  0  0  0  0  0  0  0
   26.6515  -19.6279  -14.4676 N   0  0  0  0  0  0  0  0  0  0  0  0
   26.1853  -20.3923  -12.2478 C   0  0  0  0  0  0  0  0  0  0  0  0
   26.9167  -21.3899  -12.3596 O   0  0  0  0  0  0  0  0  0  0  0  0
   25.7646  -20.0922  -10.8998 N   0  0  0  0  0  0  0  0  0  0  0  0
   26.1514  -20.9377   -9.7935 C   0  0  1  0  0  0  0  0  0  0  0  0
   27.2567  -20.3184   -8.9661 C   0  0  0  0  0  0  0  0  0  0  0  0
   26.7412  -18.7405   -8.2715 S   0  0  0  0  0  0  0  0  0  0  0  0
   24.9910  -21.1877   -8.9135 C   0  0  0  0  0  0  0  0  0  0  0  0
   23.8994  -20.6429   -9.1836 O   0  0  0  0  0  0  0  0  0  0  0  0
   25.0636  -22.0021   -7.7999 O   0  0  0  0  0  0  0  0  0  0  0  0
  1  2  1  0
  2  3  1  0
  4  3  1  0
  5  4  1  0
  5  1  1  0
  6  7  2  0
  5  6  1  1
  8  9  1  0
  9 10  2  0
  9 11  1  0
 11 12  1  0
 13 12  1  6
 13 15  1  0
 13 14  1  0
 14  6  1  0
 15 17  1  0
 16 15  2  0
 17 18  1  0
 18 21  1  0
 18 19  1  1
 20 19  1  0
 21 22  2  0
 21 23  1  0
M  END
$$$$
