PQC.pdb
     RDKit          3D

 23 23  0  0  1  0  0  0  0  0999 V2000
   20.1059  -11.2513  -15.7257 N   0  0  0  0  0  0  0  0  0  0  0  0
   20.0575  -12.5013  -16.4620 C   0  0  0  0  0  0  0  0  0  0  0  0
   18.8061  -12.4694  -17.2861 C   0  0  0  0  0  0  0  0  0  0  0  0
   18.2346  -11.0854  -17.0546 C   0  0  0  0  0  0  0  0  0  0  0  0
   19.4257  -10.3172  -16.5833 C   0  0  1  0  0  0  0  0  0  0  0  0
   19.1120   -9.0432  -15.9170 C   0  0  0  0  0  0  0  0  0  0  0  0
   18.6862   -8.0304  -16.5505 O   0  0  0  0  0  0  0  0  0  0  0  0
   17.5606   -8.7379   -9.9052 N   0  0  0  0  0  0  0  0  0  0  0  0
   17.5469   -7.3678  -10.2326 C   0  0  0  0  0  0  0  0  0  0  0  0
   17.1377   -6.5298   -9.3825 O   0  0  0  0  0  0  0  0  0  0  0  0
   18.0135   -6.8857  -11.5830 C   0  0  0  0  0  0  0  0  0  0  0  0
   18.3319   -8.0712  -12.4270 C   0  0  0  0  0  0  0  0  0  0  0  0
   18.9561   -7.7311  -13.7563 C   0  0  2  0  0  0  0  0  0  0  0  0
   19.2873   -8.9273  -14.5112 N   0  0  0  0  0  0  0  0  0  0  0  0
   20.1334   -6.8643  -13.6410 C   0  0  0  0  0  0  0  0  0  0  0  0
   21.3096   -7.2457  -13.5243 O   0  0  0  0  0  0  0  0  0  0  0  0
   19.9556   -5.4317  -13.6607 N   0  0  0  0  0  0  0  0  0  0  0  0
   21.0833   -4.5438  -13.8287 C   0  0  1  0  0  0  0  0  0  0  0  0
   21.8390   -4.8232  -15.1096 C   0  0  0  0  0  0  0  0  0  0  0  0
   23.2037   -3.6700  -15.3227 S   0  0  0  0  0  0  0  0  0  0  0  0
   20.6263   -3.1387  -13.8511 C   0  0  0  0  0  0  0  0  0  0  0  0
   19.4930   -2.8791  -14.3086 O   0  0  0  0  0  0  0  0  0  0  0  0
   21.4038   -2.0961  -13.3850 O   0  0  0  0  0  0  0  0  0  0  0  0
  1  2  1  0
  2  3  1  0
  4  3  1  0
  5  4  1  0
  5  1  1  0
  6  7  2  0
  5  6  1  1
  8  9  1  0
  9 10  2  0
  9 11  1  0
 11 12  1  0
 13 12  1  1
 13 15  1  0
 13 14  1  0
 14  6  1  0
 15 17  1  0
 16 15  2  0
 17 18  1  0
 18 21  1  0
 18 19  1  6
 20 19  1  0
 21 22  2  0
 21 23  1  0
M  END
$$$$
