PQC.pdb
     RDKit          3D

 23 23  0  0  1  0  0  0  0  0999 V2000
   28.4482  -19.2410  -16.5204 N   0  0  0  0  0  0  0  0  0  0  0  0
   29.0020  -18.6950  -17.7461 C   0  0  0  0  0  0  0  0  0  0  0  0
   28.0261  -17.6719  -18.2431 C   0  0  0  0  0  0  0  0  0  0  0  0
   26.9679  -17.6000  -17.1612 C   0  0  0  0  0  0  0  0  0  0  0  0
   27.6817  -18.1537  -15.9717 C   0  0  1  0  0  0  0  0  0  0  0  0
   26.8045  -18.5657  -14.8643 C   0  0  0  0  0  0  0  0  0  0  0  0
   25.9746  -17.7744  -14.3227 O   0  0  0  0  0  0  0  0  0  0  0  0
   24.6358  -24.2776  -14.6703 N   0  0  0  0  0  0  0  0  0  0  0  0
   23.9305  -23.7051  -13.5936 C   0  0  0  0  0  0  0  0  0  0  0  0
   23.0169  -24.3662  -13.0275 O   0  0  0  0  0  0  0  0  0  0  0  0
   24.2494  -22.3143  -13.1061 C   0  0  0  0  0  0  0  0  0  0  0  0
   25.3255  -21.7448  -13.9644 C   0  0  0  0  0  0  0  0  0  0  0  0
   25.9187  -20.4625  -13.4389 C   0  0  2  0  0  0  0  0  0  0  0  0
   26.8778  -19.8971  -14.3720 N   0  0  0  0  0  0  0  0  0  0  0  0
   26.5277  -20.6044  -12.1123 C   0  0  0  0  0  0  0  0  0  0  0  0
   27.5728  -21.2236  -11.8536 O   0  0  0  0  0  0  0  0  0  0  0  0
   25.8887  -19.9842  -10.9760 N   0  0  0  0  0  0  0  0  0  0  0  0
   26.1785  -20.4203   -9.6291 C   0  0  1  0  0  0  0  0  0  0  0  0
   26.5862  -19.2690   -8.7357 C   0  0  0  0  0  0  0  0  0  0  0  0
   28.3441  -19.3326   -8.3567 S   0  0  0  0  0  0  0  0  0  0  0  0
   24.9920  -21.0741   -9.0390 C   0  0  0  0  0  0  0  0  0  0  0  0
   23.9065  -21.0267   -9.6560 O   0  0  0  0  0  0  0  0  0  0  0  0
   25.0337  -21.7383   -7.8283 O   0  0  0  0  0  0  0  0  0  0  0  0
  1  2  1  0
  2  3  1  0
  4  3  1  0
  5  4  1  0
  5  1  1  0
  6  7  2  0
  5  6  1  1
  8  9  1  0
  9 10  2  0
  9 11  1  0
 11 12  1  0
 13 12  1  6
 13 15  1  0
 13 14  1  0
 14  6  1  0
 15 17  1  0
 16 15  2  0
 17 18  1  0
 18 21  1  0
 18 19  1  1
 20 19  1  0
 21 22  2  0
 21 23  1  0
M  END
$$$$
