PQS.pdb
     RDKit          3D

 23 23  0  0  1  0  0  0  0  0999 V2000
   18.0586  -11.5811  -15.7101 N   0  0  0  0  0  0  0  0  0  0  0  0
   17.3497  -12.8239  -15.8871 C   0  0  0  0  0  0  0  0  0  0  0  0
   18.2829  -13.8005  -16.5247 C   0  0  0  0  0  0  0  0  0  0  0  0
   19.4740  -12.9467  -16.9073 C   0  0  0  0  0  0  0  0  0  0  0  0
   19.4596  -11.8802  -15.8469 C   0  0  1  0  0  0  0  0  0  0  0  0
   20.2431  -10.6773  -16.2613 C   0  0  0  0  0  0  0  0  0  0  0  0
   21.4835  -10.7585  -16.4436 O   0  0  0  0  0  0  0  0  0  0  0  0
   20.0845   -7.0075  -20.9193 N   0  0  0  0  0  0  0  0  0  0  0  0
   19.4671   -8.2274  -20.5831 C   0  0  0  0  0  0  0  0  0  0  0  0
   18.8741   -8.9046  -21.4566 O   0  0  0  0  0  0  0  0  0  0  0  0
   19.4851   -8.7713  -19.1902 C   0  0  0  0  0  0  0  0  0  0  0  0
   20.2116   -7.8554  -18.2801 C   0  0  0  0  0  0  0  0  0  0  0  0
   20.2856   -8.2171  -16.8480 C   0  0  2  0  0  0  0  0  0  0  0  0
   19.6100   -9.4229  -16.4576 N   0  0  0  0  0  0  0  0  0  0  0  0
   20.1510   -7.0923  -15.8940 C   0  0  0  0  0  0  0  0  0  0  0  0
   19.0167   -6.8368  -15.4390 O   0  0  0  0  0  0  0  0  0  0  0  0
   22.4525   -6.3768  -12.9005 O   0  0  0  0  0  0  0  0  0  0  0  0
   22.4043   -5.2005  -13.6469 C   0  0  0  0  0  0  0  0  0  0  0  0
   21.1420   -5.2646  -14.4788 C   0  0  2  0  0  0  0  0  0  0  0  0
   21.2524   -6.3196  -15.5020 N   0  0  0  0  0  0  0  0  0  0  0  0
   21.0326   -3.9665  -15.2094 C   0  0  0  0  0  0  0  0  0  0  0  0
   20.5906   -2.8085  -14.5842 O   0  0  0  0  0  0  0  0  0  0  0  0
   21.3362   -3.8560  -16.4322 O   0  0  0  0  0  0  0  0  0  0  0  0
  1  2  1  0
  2  3  1  0
  4  3  1  0
  5  4  1  0
  5  1  1  0
  5  6  1  6
  6  7  2  0
  9  8  1  0
  9 11  1  0
 10  9  2  0
 11 12  1  0
 13 12  1  6
 13 15  1  0
 13 14  1  0
 14  6  1  0
 15 16  2  0
 15 20  1  0
 17 18  1  0
 19 18  1  1
 19 21  1  0
 20 19  1  0
 21 23  2  0
 21 22  1  0
M  END
$$$$
