PQS.pdb
     RDKit          3D

 23 23  0  0  1  0  0  0  0  0999 V2000
   29.9063  -22.1284  -12.0460 N   0  0  0  0  0  0  0  0  0  0  0  0
   31.2715  -22.3404  -11.6340 C   0  0  0  0  0  0  0  0  0  0  0  0
   31.4984  -21.5697  -10.3748 C   0  0  0  0  0  0  0  0  0  0  0  0
   30.2451  -20.7283  -10.2496 C   0  0  0  0  0  0  0  0  0  0  0  0
   29.2073  -21.5970  -10.9058 C   0  0  1  0  0  0  0  0  0  0  0  0
   28.0043  -20.8100  -11.3131 C   0  0  0  0  0  0  0  0  0  0  0  0
   27.3121  -20.2147  -10.4500 O   0  0  0  0  0  0  0  0  0  0  0  0
   26.5064  -19.1426  -17.1194 N   0  0  0  0  0  0  0  0  0  0  0  0
   25.5612  -18.4038  -16.3825 C   0  0  0  0  0  0  0  0  0  0  0  0
   24.6581  -17.7594  -16.9677 O   0  0  0  0  0  0  0  0  0  0  0  0
   25.5832  -18.3490  -14.8882 C   0  0  0  0  0  0  0  0  0  0  0  0
   26.7252  -19.1262  -14.3529 C   0  0  0  0  0  0  0  0  0  0  0  0
   26.4927  -19.9634  -13.1562 C   0  0  2  0  0  0  0  0  0  0  0  0
   27.6170  -20.7165  -12.6747 N   0  0  0  0  0  0  0  0  0  0  0  0
   25.1995  -20.6843  -13.1184 C   0  0  0  0  0  0  0  0  0  0  0  0
   25.1173  -21.7805  -13.7103 O   0  0  0  0  0  0  0  0  0  0  0  0
   22.1250  -19.2418  -10.8748 O   0  0  0  0  0  0  0  0  0  0  0  0
   22.1266  -20.6260  -11.0398 C   0  0  0  0  0  0  0  0  0  0  0  0
   22.8120  -20.9059  -12.3595 C   0  0  2  0  0  0  0  0  0  0  0  0
   24.0840  -20.1666  -12.4463 N   0  0  0  0  0  0  0  0  0  0  0  0
   21.9271  -20.3673  -13.4356 C   0  0  0  0  0  0  0  0  0  0  0  0
   20.6975  -20.9411  -13.7291 O   0  0  0  0  0  0  0  0  0  0  0  0
   22.2519  -19.3633  -14.1327 O   0  0  0  0  0  0  0  0  0  0  0  0
  1  2  1  0
  2  3  1  0
  4  3  1  0
  5  4  1  0
  5  1  1  0
  5  6  1  6
  6  7  2  0
  9  8  1  0
  9 11  1  0
 10  9  2  0
 11 12  1  0
 13 12  1  6
 13 15  1  0
 13 14  1  0
 14  6  1  0
 15 16  2  0
 15 20  1  0
 17 18  1  0
 19 18  1  1
 19 21  1  0
 20 19  1  0
 21 23  2  0
 21 22  1  0
M  END
$$$$
