PQS.pdb
     RDKit          3D

 23 23  0  0  1  0  0  0  0  0999 V2000
   18.1801  -12.5825  -16.8181 N   0  0  0  0  0  0  0  0  0  0  0  0
   17.8572  -13.4966  -17.8852 C   0  0  0  0  0  0  0  0  0  0  0  0
   17.9923  -12.7619  -19.1787 C   0  0  0  0  0  0  0  0  0  0  0  0
   18.1758  -11.3223  -18.7452 C   0  0  0  0  0  0  0  0  0  0  0  0
   18.8694  -11.4713  -17.4190 C   0  0  1  0  0  0  0  0  0  0  0  0
   18.7499  -10.2339  -16.5901 C   0  0  0  0  0  0  0  0  0  0  0  0
   17.6770   -9.9708  -15.9917 O   0  0  0  0  0  0  0  0  0  0  0  0
   22.7359   -5.9839  -12.6275 N   0  0  0  0  0  0  0  0  0  0  0  0
   21.5252   -6.7019  -12.6562 C   0  0  0  0  0  0  0  0  0  0  0  0
   21.1804   -7.4108  -11.6805 O   0  0  0  0  0  0  0  0  0  0  0  0
   20.6015   -6.6584  -13.8314 C   0  0  0  0  0  0  0  0  0  0  0  0
   20.6715   -7.9236  -14.5991 C   0  0  0  0  0  0  0  0  0  0  0  0
   19.7793   -8.0741  -15.7689 C   0  0  2  0  0  0  0  0  0  0  0  0
   19.8373   -9.3321  -16.4594 N   0  0  0  0  0  0  0  0  0  0  0  0
   19.6671   -6.8872  -16.6476 C   0  0  0  0  0  0  0  0  0  0  0  0
   20.5429   -6.7142  -17.5205 O   0  0  0  0  0  0  0  0  0  0  0  0
   16.2262   -4.9724  -16.7672 O   0  0  0  0  0  0  0  0  0  0  0  0
   17.0143   -4.7127  -17.8873 C   0  0  0  0  0  0  0  0  0  0  0  0
   18.4556   -4.8314  -17.4421 C   0  0  2  0  0  0  0  0  0  0  0  0
   18.6174   -5.9679  -16.5178 N   0  0  0  0  0  0  0  0  0  0  0  0
   18.7773   -3.5965  -16.6659 C   0  0  0  0  0  0  0  0  0  0  0  0
   18.8068   -2.3430  -17.2619 O   0  0  0  0  0  0  0  0  0  0  0  0
   19.0387   -3.6294  -15.4289 O   0  0  0  0  0  0  0  0  0  0  0  0
  1  2  1  0
  2  3  1  0
  4  3  1  0
  5  4  1  0
  5  1  1  0
  5  6  1  1
  6  7  2  0
  9  8  1  0
  9 11  1  0
 10  9  2  0
 11 12  1  0
 13 12  1  6
 13 15  1  0
 13 14  1  0
 14  6  1  0
 15 16  2  0
 15 20  1  0
 17 18  1  0
 19 18  1  1
 19 21  1  0
 20 19  1  0
 21 23  2  0
 21 22  1  0
M  END
$$$$
