PQS.pdb
     RDKit          3D

 23 23  0  0  1  0  0  0  0  0999 V2000
   22.4840  -11.8115  -18.4453 N   0  0  0  0  0  0  0  0  0  0  0  0
   22.5718  -13.0588  -19.1628 C   0  0  0  0  0  0  0  0  0  0  0  0
   22.0321  -12.8389  -20.5381 C   0  0  0  0  0  0  0  0  0  0  0  0
   21.4202  -11.4559  -20.4562 C   0  0  0  0  0  0  0  0  0  0  0  0
   22.2875  -10.7803  -19.4297 C   0  0  1  0  0  0  0  0  0  0  0  0
   21.6190   -9.5788  -18.8449 C   0  0  0  0  0  0  0  0  0  0  0  0
   21.3797   -8.5736  -19.5596 O   0  0  0  0  0  0  0  0  0  0  0  0
   16.8503   -9.6045  -15.0500 N   0  0  0  0  0  0  0  0  0  0  0  0
   17.1693   -8.2333  -15.0397 C   0  0  0  0  0  0  0  0  0  0  0  0
   16.4027   -7.4038  -14.4940 O   0  0  0  0  0  0  0  0  0  0  0  0
   18.4179   -7.7016  -15.6680 C   0  0  0  0  0  0  0  0  0  0  0  0
   19.2054   -8.7989  -16.2767 C   0  0  0  0  0  0  0  0  0  0  0  0
   20.5259   -8.4659  -16.8536 C   0  0  2  0  0  0  0  0  0  0  0  0
   21.2408   -9.5439  -17.4780 N   0  0  0  0  0  0  0  0  0  0  0  0
   21.3645   -7.5471  -16.0498 C   0  0  0  0  0  0  0  0  0  0  0  0
   22.1069   -8.0389  -15.1747 O   0  0  0  0  0  0  0  0  0  0  0  0
   22.8892   -3.0363  -15.1917 O   0  0  0  0  0  0  0  0  0  0  0  0
   22.0342   -3.8243  -15.9605 C   0  0  0  0  0  0  0  0  0  0  0  0
   22.1752   -5.2426  -15.4523 C   0  0  2  0  0  0  0  0  0  0  0  0
   21.3380   -6.1598  -16.2460 N   0  0  0  0  0  0  0  0  0  0  0  0
   21.6360   -5.2644  -14.0595 C   0  0  0  0  0  0  0  0  0  0  0  0
   22.4172   -4.9174  -12.9656 O   0  0  0  0  0  0  0  0  0  0  0  0
   20.4431   -5.5995  -13.8061 O   0  0  0  0  0  0  0  0  0  0  0  0
  1  2  1  0
  2  3  1  0
  4  3  1  0
  5  4  1  0
  5  1  1  0
  5  6  1  1
  6  7  2  0
  9  8  1  0
  9 11  1  0
 10  9  2  0
 11 12  1  0
 13 12  1  1
 13 15  1  0
 13 14  1  0
 14  6  1  0
 15 16  2  0
 15 20  1  0
 17 18  1  0
 19 18  1  6
 19 21  1  0
 20 19  1  0
 21 23  2  0
 21 22  1  0
M  END
$$$$
