PQS.pdb
     RDKit          3D

 23 23  0  0  1  0  0  0  0  0999 V2000
   27.2735  -19.3012  -15.9490 N   0  0  0  0  0  0  0  0  0  0  0  0
   28.5792  -18.9077  -16.4168 C   0  0  0  0  0  0  0  0  0  0  0  0
   29.4643  -20.1103  -16.3800 C   0  0  0  0  0  0  0  0  0  0  0  0
   28.6317  -21.1340  -15.6364 C   0  0  0  0  0  0  0  0  0  0  0  0
   27.2287  -20.7384  -16.0067 C   0  0  1  0  0  0  0  0  0  0  0  0
   26.2256  -21.2983  -15.0514 C   0  0  0  0  0  0  0  0  0  0  0  0
   25.9636  -22.5271  -15.0525 O   0  0  0  0  0  0  0  0  0  0  0  0
   25.6467  -20.3583   -9.1108 N   0  0  0  0  0  0  0  0  0  0  0  0
   24.4066  -20.9745   -9.3648 C   0  0  0  0  0  0  0  0  0  0  0  0
   23.6528  -21.3058   -8.4185 O   0  0  0  0  0  0  0  0  0  0  0  0
   23.9299  -21.2619  -10.7529 C   0  0  0  0  0  0  0  0  0  0  0  0
   24.9141  -20.7866  -11.7530 C   0  0  0  0  0  0  0  0  0  0  0  0
   24.5632  -20.9131  -13.1841 C   0  0  2  0  0  0  0  0  0  0  0  0
   25.5491  -20.4622  -14.1262 N   0  0  0  0  0  0  0  0  0  0  0  0
   23.1657  -20.5708  -13.5351 C   0  0  0  0  0  0  0  0  0  0  0  0
   22.8183  -19.3731  -13.4748 O   0  0  0  0  0  0  0  0  0  0  0  0
   18.8642  -22.0201  -15.2023 O   0  0  0  0  0  0  0  0  0  0  0  0
   20.1098  -22.4473  -14.7449 C   0  0  0  0  0  0  0  0  0  0  0  0
   20.8531  -21.2108  -14.2885 C   0  0  2  0  0  0  0  0  0  0  0  0
   22.2402  -21.5491  -13.9229 N   0  0  0  0  0  0  0  0  0  0  0  0
   20.1839  -20.7328  -13.0416 C   0  0  0  0  0  0  0  0  0  0  0  0
   20.5214  -21.2324  -11.7910 O   0  0  0  0  0  0  0  0  0  0  0  0
   19.2778  -19.8507  -13.0611 O   0  0  0  0  0  0  0  0  0  0  0  0
  1  2  1  0
  2  3  1  0
  4  3  1  0
  5  4  1  0
  5  1  1  0
  5  6  1  1
  6  7  2  0
  9  8  1  0
  9 11  1  0
 10  9  2  0
 11 12  1  0
 13 12  1  1
 13 15  1  0
 13 14  1  0
 14  6  1  0
 15 16  2  0
 15 20  1  0
 17 18  1  0
 19 18  1  1
 19 21  1  0
 20 19  1  0
 21 23  2  0
 21 22  1  0
M  END
$$$$
