PQS.pdb
     RDKit          3D

 23 23  0  0  1  0  0  0  0  0999 V2000
   18.9279  -11.8063  -15.4933 N   0  0  0  0  0  0  0  0  0  0  0  0
   18.5864  -13.1916  -15.7007 C   0  0  0  0  0  0  0  0  0  0  0  0
   19.4231  -13.7098  -16.8243 C   0  0  0  0  0  0  0  0  0  0  0  0
   20.0732  -12.4601  -17.3808 C   0  0  0  0  0  0  0  0  0  0  0  0
   20.1821  -11.5842  -16.1630 C   0  0  1  0  0  0  0  0  0  0  0  0
   20.3655  -10.1474  -16.5295 C   0  0  0  0  0  0  0  0  0  0  0  0
   21.4378   -9.7574  -17.0553 O   0  0  0  0  0  0  0  0  0  0  0  0
   16.0855   -8.1143  -18.6442 N   0  0  0  0  0  0  0  0  0  0  0  0
   17.2292   -8.1028  -19.4652 C   0  0  0  0  0  0  0  0  0  0  0  0
   17.1534   -8.4433  -20.6700 O   0  0  0  0  0  0  0  0  0  0  0  0
   18.5725   -7.6908  -18.9532 C   0  0  0  0  0  0  0  0  0  0  0  0
   18.4795   -7.2373  -17.5459 C   0  0  0  0  0  0  0  0  0  0  0  0
   19.4480   -7.7905  -16.5747 C   0  0  2  0  0  0  0  0  0  0  0  0
   19.3406   -9.1950  -16.2943 N   0  0  0  0  0  0  0  0  0  0  0  0
   19.7306   -6.9409  -15.3949 C   0  0  0  0  0  0  0  0  0  0  0  0
   19.0383   -7.1061  -14.3691 O   0  0  0  0  0  0  0  0  0  0  0  0
   22.0849   -6.6460  -12.8582 O   0  0  0  0  0  0  0  0  0  0  0  0
   22.3236   -5.4884  -13.5971 C   0  0  0  0  0  0  0  0  0  0  0  0
   21.0101   -5.1068  -14.2443 C   0  0  2  0  0  0  0  0  0  0  0  0
   20.7399   -5.9688  -15.4088 N   0  0  0  0  0  0  0  0  0  0  0  0
   21.1666   -3.7159  -14.7658 C   0  0  0  0  0  0  0  0  0  0  0  0
   21.0323   -2.6053  -13.9436 O   0  0  0  0  0  0  0  0  0  0  0  0
   21.4289   -3.4792  -15.9802 O   0  0  0  0  0  0  0  0  0  0  0  0
  1  2  1  0
  2  3  1  0
  4  3  1  0
  5  4  1  0
  5  1  1  0
  5  6  1  6
  6  7  2  0
  9  8  1  0
  9 11  1  0
 10  9  2  0
 11 12  1  0
 13 12  1  1
 13 15  1  0
 13 14  1  0
 14  6  1  0
 15 16  2  0
 15 20  1  0
 17 18  1  0
 19 18  1  6
 19 21  1  0
 20 19  1  0
 21 23  2  0
 21 22  1  0
M  END
$$$$
