PQS.pdb
     RDKit          3D

 23 23  0  0  1  0  0  0  0  0999 V2000
   19.2217  -11.9758  -15.3911 N   0  0  0  0  0  0  0  0  0  0  0  0
   18.8236  -13.2944  -15.8170 C   0  0  0  0  0  0  0  0  0  0  0  0
   17.6717  -13.1476  -16.7565 C   0  0  0  0  0  0  0  0  0  0  0  0
   17.3061  -11.6828  -16.6346 C   0  0  0  0  0  0  0  0  0  0  0  0
   18.6308  -11.0456  -16.3166 C   0  0  1  0  0  0  0  0  0  0  0  0
   18.4616   -9.6922  -15.7068 C   0  0  0  0  0  0  0  0  0  0  0  0
   17.9846   -8.7460  -16.3818 O   0  0  0  0  0  0  0  0  0  0  0  0
   17.0830   -8.3611   -9.7993 N   0  0  0  0  0  0  0  0  0  0  0  0
   17.4090   -7.0827  -10.2908 C   0  0  0  0  0  0  0  0  0  0  0  0
   17.2802   -6.0679   -9.5649 O   0  0  0  0  0  0  0  0  0  0  0  0
   17.9174   -6.8702  -11.6811 C   0  0  0  0  0  0  0  0  0  0  0  0
   18.0175   -8.1593  -12.4043 C   0  0  0  0  0  0  0  0  0  0  0  0
   18.7258   -8.1716  -13.7026 C   0  0  2  0  0  0  0  0  0  0  0  0
   18.8327   -9.4440  -14.3602 N   0  0  0  0  0  0  0  0  0  0  0  0
   19.9408   -7.3282  -13.7791 C   0  0  0  0  0  0  0  0  0  0  0  0
   21.0071   -7.7861  -13.3187 O   0  0  0  0  0  0  0  0  0  0  0  0
   22.0291   -3.2236  -15.2611 O   0  0  0  0  0  0  0  0  0  0  0  0
   20.8272   -3.9242  -15.1740 C   0  0  0  0  0  0  0  0  0  0  0  0
   21.1228   -5.2033  -14.4217 C   0  0  2  0  0  0  0  0  0  0  0  0
   19.9162   -6.0462  -14.3447 N   0  0  0  0  0  0  0  0  0  0  0  0
   21.4681   -4.8175  -13.0206 C   0  0  0  0  0  0  0  0  0  0  0  0
   22.7622   -4.4757  -12.6522 O   0  0  0  0  0  0  0  0  0  0  0  0
   20.6012   -4.7826  -12.1003 O   0  0  0  0  0  0  0  0  0  0  0  0
  1  2  1  0
  2  3  1  0
  4  3  1  0
  5  4  1  0
  5  1  1  0
  5  6  1  1
  6  7  2  0
  9  8  1  0
  9 11  1  0
 10  9  2  0
 11 12  1  0
 13 12  1  1
 13 15  1  0
 13 14  1  0
 14  6  1  0
 15 16  2  0
 15 20  1  0
 17 18  1  0
 19 18  1  6
 19 21  1  0
 20 19  1  0
 21 23  2  0
 21 22  1  0
M  END
$$$$
