PQS.pdb
     RDKit          3D

 23 23  0  0  1  0  0  0  0  0999 V2000
   17.0213  -11.2867  -15.3409 N   0  0  0  0  0  0  0  0  0  0  0  0
   16.5570  -12.6430  -15.4933 C   0  0  0  0  0  0  0  0  0  0  0  0
   17.7118  -13.4786  -15.9396 C   0  0  0  0  0  0  0  0  0  0  0  0
   18.7824  -12.4548  -16.2551 C   0  0  0  0  0  0  0  0  0  0  0  0
   18.4585  -11.3437  -15.2945 C   0  0  1  0  0  0  0  0  0  0  0  0
   19.0763  -10.0502  -15.7161 C   0  0  0  0  0  0  0  0  0  0  0  0
   20.3227   -9.8981  -15.6755 O   0  0  0  0  0  0  0  0  0  0  0  0
   19.2746   -6.8687  -20.1314 N   0  0  0  0  0  0  0  0  0  0  0  0
   19.1523   -5.6719  -19.4000 C   0  0  0  0  0  0  0  0  0  0  0  0
   19.5374   -4.5829  -19.8890 O   0  0  0  0  0  0  0  0  0  0  0  0
   18.5667   -5.6359  -18.0244 C   0  0  0  0  0  0  0  0  0  0  0  0
   18.0774   -6.9771  -17.6288 C   0  0  0  0  0  0  0  0  0  0  0  0
   18.7787   -7.6732  -16.5283 C   0  0  2  0  0  0  0  0  0  0  0  0
   18.2762   -8.9698  -16.1692 N   0  0  0  0  0  0  0  0  0  0  0  0
   19.1802   -6.8232  -15.3838 C   0  0  0  0  0  0  0  0  0  0  0  0
   18.3351   -6.5937  -14.4940 O   0  0  0  0  0  0  0  0  0  0  0  0
   22.6170   -5.1380  -12.5729 O   0  0  0  0  0  0  0  0  0  0  0  0
   22.3179   -5.8572  -13.7289 C   0  0  0  0  0  0  0  0  0  0  0  0
   20.8970   -5.5005  -14.1077 C   0  0  2  0  0  0  0  0  0  0  0  0
   20.4671   -6.2773  -15.2842 N   0  0  0  0  0  0  0  0  0  0  0  0
   20.9006   -4.0644  -14.5184 C   0  0  0  0  0  0  0  0  0  0  0  0
   20.6063   -3.0453  -13.6227 O   0  0  0  0  0  0  0  0  0  0  0  0
   21.1712   -3.7042  -15.7001 O   0  0  0  0  0  0  0  0  0  0  0  0
  1  2  1  0
  2  3  1  0
  4  3  1  0
  5  4  1  0
  5  1  1  0
  5  6  1  6
  6  7  2  0
  9  8  1  0
  9 11  1  0
 10  9  2  0
 11 12  1  0
 13 12  1  1
 13 15  1  0
 13 14  1  0
 14  6  1  0
 15 16  2  0
 15 20  1  0
 17 18  1  0
 19 18  1  6
 19 21  1  0
 20 19  1  0
 21 23  2  0
 21 22  1  0
M  END
$$$$
