PQS.pdb
     RDKit          3D

 23 23  0  0  1  0  0  0  0  0999 V2000
   24.7100  -11.7898  -16.0000 N   0  0  0  0  0  0  0  0  0  0  0  0
   25.1767  -13.1170  -16.3152 C   0  0  0  0  0  0  0  0  0  0  0  0
   24.8739  -13.3831  -17.7535 C   0  0  0  0  0  0  0  0  0  0  0  0
   23.9963  -12.2133  -18.1479 C   0  0  0  0  0  0  0  0  0  0  0  0
   24.5030  -11.1149  -17.2541 C   0  0  1  0  0  0  0  0  0  0  0  0
   23.5119  -10.0041  -17.1263 C   0  0  0  0  0  0  0  0  0  0  0  0
   23.2163   -9.2982  -18.1227 O   0  0  0  0  0  0  0  0  0  0  0  0
   18.0478   -9.7698  -14.1772 N   0  0  0  0  0  0  0  0  0  0  0  0
   18.5076  -10.4784  -15.3036 C   0  0  0  0  0  0  0  0  0  0  0  0
   17.8081  -11.3842  -15.8171 O   0  0  0  0  0  0  0  0  0  0  0  0
   19.8320  -10.1938  -15.9371 C   0  0  0  0  0  0  0  0  0  0  0  0
   20.5792   -9.1813  -15.1552 C   0  0  0  0  0  0  0  0  0  0  0  0
   21.8783   -8.7160  -15.6872 C   0  0  2  0  0  0  0  0  0  0  0  0
   22.8848   -9.7213  -15.8855 N   0  0  0  0  0  0  0  0  0  0  0  0
   22.3782   -7.4369  -15.1326 C   0  0  0  0  0  0  0  0  0  0  0  0
   23.1363   -7.4794  -14.1415 O   0  0  0  0  0  0  0  0  0  0  0  0
   22.6132   -2.6145  -15.4346 O   0  0  0  0  0  0  0  0  0  0  0  0
   22.1286   -3.7745  -16.0369 C   0  0  0  0  0  0  0  0  0  0  0  0
   22.4998   -4.9248  -15.1266 C   0  0  2  0  0  0  0  0  0  0  0  0
   22.0194   -6.2007  -15.6866 N   0  0  0  0  0  0  0  0  0  0  0  0
   21.7702   -4.7181  -13.8397 C   0  0  0  0  0  0  0  0  0  0  0  0
   22.3772   -4.1273  -12.7397 O   0  0  0  0  0  0  0  0  0  0  0  0
   20.5651   -5.0697  -13.6866 O   0  0  0  0  0  0  0  0  0  0  0  0
  1  2  1  0
  2  3  1  0
  4  3  1  0
  5  4  1  0
  5  1  1  0
  5  6  1  1
  6  7  2  0
  9  8  1  0
  9 11  1  0
 10  9  2  0
 11 12  1  0
 13 12  1  1
 13 15  1  0
 13 14  1  0
 14  6  1  0
 15 16  2  0
 15 20  1  0
 17 18  1  0
 19 18  1  6
 19 21  1  0
 20 19  1  0
 21 23  2  0
 21 22  1  0
M  END
$$$$
