PQS.pdb
     RDKit          3D

 23 23  0  0  1  0  0  0  0  0999 V2000
   24.5588  -12.3075  -15.6445 N   0  0  0  0  0  0  0  0  0  0  0  0
   25.0243  -13.6671  -15.7593 C   0  0  0  0  0  0  0  0  0  0  0  0
   24.6254  -14.1793  -17.1045 C   0  0  0  0  0  0  0  0  0  0  0  0
   23.7026  -13.0993  -17.6299 C   0  0  0  0  0  0  0  0  0  0  0  0
   24.2526  -11.8606  -16.9777 C   0  0  1  0  0  0  0  0  0  0  0  0
   23.2545  -10.7487  -16.9718 C   0  0  0  0  0  0  0  0  0  0  0  0
   22.9633  -10.1503  -18.0374 O   0  0  0  0  0  0  0  0  0  0  0  0
   16.7219   -8.4293  -15.2080 N   0  0  0  0  0  0  0  0  0  0  0  0
   17.8900   -9.2126  -15.1445 C   0  0  0  0  0  0  0  0  0  0  0  0
   17.8167  -10.4612  -15.0494 O   0  0  0  0  0  0  0  0  0  0  0  0
   19.2572   -8.6081  -15.1864 C   0  0  0  0  0  0  0  0  0  0  0  0
   20.2952   -9.6643  -15.2294 C   0  0  0  0  0  0  0  0  0  0  0  0
   21.6533   -9.2827  -15.6734 C   0  0  2  0  0  0  0  0  0  0  0  0
   22.6156  -10.3445  -15.7713 N   0  0  0  0  0  0  0  0  0  0  0  0
   22.1796   -8.0164  -15.1139 C   0  0  0  0  0  0  0  0  0  0  0  0
   22.9303   -8.0780  -14.1182 O   0  0  0  0  0  0  0  0  0  0  0  0
   22.7760   -3.2490  -15.5943 O   0  0  0  0  0  0  0  0  0  0  0  0
   22.1104   -4.3682  -16.0919 C   0  0  0  0  0  0  0  0  0  0  0  0
   22.4248   -5.5137  -15.1546 C   0  0  2  0  0  0  0  0  0  0  0  0
   21.8533   -6.7714  -15.6683 N   0  0  0  0  0  0  0  0  0  0  0  0
   21.7346   -5.2240  -13.8620 C   0  0  0  0  0  0  0  0  0  0  0  0
   22.3538   -4.5115  -12.8440 O   0  0  0  0  0  0  0  0  0  0  0  0
   20.5535   -5.6121  -13.6292 O   0  0  0  0  0  0  0  0  0  0  0  0
  1  2  1  0
  2  3  1  0
  4  3  1  0
  5  4  1  0
  5  1  1  0
  5  6  1  1
  6  7  2  0
  9  8  1  0
  9 11  1  0
 10  9  2  0
 11 12  1  0
 13 12  1  1
 13 15  1  0
 13 14  1  0
 14  6  1  0
 15 16  2  0
 15 20  1  0
 17 18  1  0
 19 18  1  6
 19 21  1  0
 20 19  1  0
 21 23  2  0
 21 22  1  0
M  END
$$$$
