PQS.pdb
     RDKit          3D

 23 23  0  0  1  0  0  0  0  0999 V2000
   16.5385  -11.8952  -13.4006 N   0  0  0  0  0  0  0  0  0  0  0  0
   15.6789  -13.0013  -13.7414 C   0  0  0  0  0  0  0  0  0  0  0  0
   14.7001  -12.5266  -14.7649 C   0  0  0  0  0  0  0  0  0  0  0  0
   14.9197  -11.0282  -14.7897 C   0  0  0  0  0  0  0  0  0  0  0  0
   16.3771  -10.9105  -14.4376 C   0  0  1  0  0  0  0  0  0  0  0  0
   16.7207   -9.5389  -13.9548 C   0  0  0  0  0  0  0  0  0  0  0  0
   16.6375   -8.5531  -14.7292 O   0  0  0  0  0  0  0  0  0  0  0  0
   15.7136   -6.7549   -8.4444 N   0  0  0  0  0  0  0  0  0  0  0  0
   14.8511   -7.1486   -9.4852 C   0  0  0  0  0  0  0  0  0  0  0  0
   13.6090   -7.1677   -9.3120 O   0  0  0  0  0  0  0  0  0  0  0  0
   15.3614   -7.5579  -10.8300 C   0  0  0  0  0  0  0  0  0  0  0  0
   16.8410   -7.6340  -10.8272 C   0  0  0  0  0  0  0  0  0  0  0  0
   17.5158   -8.0393  -12.0793 C   0  0  2  0  0  0  0  0  0  0  0  0
   17.1463   -9.3177  -12.6196 N   0  0  0  0  0  0  0  0  0  0  0  0
   18.9606   -7.7240  -12.1610 C   0  0  0  0  0  0  0  0  0  0  0  0
   19.7727   -8.5534  -11.7012 O   0  0  0  0  0  0  0  0  0  0  0  0
   22.6238   -6.5092  -14.4764 O   0  0  0  0  0  0  0  0  0  0  0  0
   21.2558   -6.7456  -14.3510 C   0  0  0  0  0  0  0  0  0  0  0  0
   20.8598   -6.2848  -12.9652 C   0  0  2  0  0  0  0  0  0  0  0  0
   19.4258   -6.5311  -12.7306 N   0  0  0  0  0  0  0  0  0  0  0  0
   21.0545   -4.8044  -12.9236 C   0  0  0  0  0  0  0  0  0  0  0  0
   22.2452   -4.2334  -12.4952 O   0  0  0  0  0  0  0  0  0  0  0  0
   20.1467   -3.9972  -13.2757 O   0  0  0  0  0  0  0  0  0  0  0  0
  1  2  1  0
  2  3  1  0
  4  3  1  0
  5  4  1  0
  5  1  1  0
  5  6  1  1
  6  7  2  0
  9  8  1  0
  9 11  1  0
 10  9  2  0
 11 12  1  0
 13 12  1  1
 13 15  1  0
 13 14  1  0
 14  6  1  0
 15 16  2  0
 15 20  1  0
 17 18  1  0
 19 18  1  6
 19 21  1  0
 20 19  1  0
 21 23  2  0
 21 22  1  0
M  END
$$$$
