PQS.pdb
     RDKit          3D

 23 23  0  0  1  0  0  0  0  0999 V2000
   27.9132  -18.8597  -18.1518 N   0  0  0  0  0  0  0  0  0  0  0  0
   28.3254  -18.4141  -19.4595 C   0  0  0  0  0  0  0  0  0  0  0  0
   28.2656  -16.9217  -19.4785 C   0  0  0  0  0  0  0  0  0  0  0  0
   27.5654  -16.5837  -18.1786 C   0  0  0  0  0  0  0  0  0  0  0  0
   27.9867  -17.7155  -17.2821 C   0  0  1  0  0  0  0  0  0  0  0  0
   27.0772  -17.8572  -16.1053 C   0  0  0  0  0  0  0  0  0  0  0  0
   26.9620  -16.9216  -15.2747 O   0  0  0  0  0  0  0  0  0  0  0  0
   21.4495  -19.1212  -14.0643 N   0  0  0  0  0  0  0  0  0  0  0  0
   21.9518  -20.4189  -14.2786 C   0  0  0  0  0  0  0  0  0  0  0  0
   21.2690  -21.4259  -13.9738 O   0  0  0  0  0  0  0  0  0  0  0  0
   23.3034  -20.6616  -14.8709 C   0  0  0  0  0  0  0  0  0  0  0  0
   23.9829  -19.3789  -15.1669 C   0  0  0  0  0  0  0  0  0  0  0  0
   25.4129  -19.2545  -14.8105 C   0  0  2  0  0  0  0  0  0  0  0  0
   26.3267  -19.0432  -15.8983 N   0  0  0  0  0  0  0  0  0  0  0  0
   25.8968  -20.1837  -13.7636 C   0  0  0  0  0  0  0  0  0  0  0  0
   26.4198  -21.2585  -14.1243 O   0  0  0  0  0  0  0  0  0  0  0  0
   25.7914  -19.1283   -9.8030 O   0  0  0  0  0  0  0  0  0  0  0  0
   26.7905  -20.0287  -10.1690 C   0  0  0  0  0  0  0  0  0  0  0  0
   26.2620  -20.8066  -11.3545 C   0  0  2  0  0  0  0  0  0  0  0  0
   25.7771  -19.8870  -12.3992 N   0  0  0  0  0  0  0  0  0  0  0  0
   25.0762  -21.5796  -10.8777 C   0  0  0  0  0  0  0  0  0  0  0  0
   25.1902  -22.5838   -9.9259 O   0  0  0  0  0  0  0  0  0  0  0  0
   23.9103  -21.3594  -11.3156 O   0  0  0  0  0  0  0  0  0  0  0  0
  1  2  1  0
  2  3  1  0
  4  3  1  0
  5  4  1  0
  5  1  1  0
  5  6  1  1
  6  7  2  0
  9  8  1  0
  9 11  1  0
 10  9  2  0
 11 12  1  0
 13 12  1  6
 13 15  1  0
 13 14  1  0
 14  6  1  0
 15 16  2  0
 15 20  1  0
 17 18  1  0
 19 18  1  1
 19 21  1  0
 20 19  1  0
 21 23  2  0
 21 22  1  0
M  END
$$$$
