PQS.pdb
     RDKit          3D

 23 23  0  0  1  0  0  0  0  0999 V2000
   18.8609  -11.4163  -14.9191 N   0  0  0  0  0  0  0  0  0  0  0  0
   19.1303  -12.5579  -15.7574 C   0  0  0  0  0  0  0  0  0  0  0  0
   20.2742  -12.2124  -16.6536 C   0  0  0  0  0  0  0  0  0  0  0  0
   20.4619  -10.7271  -16.4236 C   0  0  0  0  0  0  0  0  0  0  0  0
   20.0176  -10.5637  -14.9960 C   0  0  1  0  0  0  0  0  0  0  0  0
   19.6784   -9.1430  -14.6813 C   0  0  0  0  0  0  0  0  0  0  0  0
   18.6205   -8.6293  -15.1233 O   0  0  0  0  0  0  0  0  0  0  0  0
   19.9421   -5.7762   -9.5264 N   0  0  0  0  0  0  0  0  0  0  0  0
   18.8881   -6.5296  -10.0775 C   0  0  0  0  0  0  0  0  0  0  0  0
   17.8750   -6.8065   -9.3917 O   0  0  0  0  0  0  0  0  0  0  0  0
   18.9197   -7.0313  -11.4859 C   0  0  0  0  0  0  0  0  0  0  0  0
   20.1590   -6.5936  -12.1696 C   0  0  0  0  0  0  0  0  0  0  0  0
   20.3280   -6.9534  -13.5941 C   0  0  2  0  0  0  0  0  0  0  0  0
   20.5364   -8.3451  -13.8814 N   0  0  0  0  0  0  0  0  0  0  0  0
   21.1531   -6.0224  -14.3979 C   0  0  0  0  0  0  0  0  0  0  0  0
   22.3935   -6.0665  -14.2633 O   0  0  0  0  0  0  0  0  0  0  0  0
   20.2364   -5.0484  -18.0467 O   0  0  0  0  0  0  0  0  0  0  0  0
   20.6037   -3.8663  -17.4058 C   0  0  0  0  0  0  0  0  0  0  0  0
   21.3962   -4.2643  -16.1798 C   0  0  2  0  0  0  0  0  0  0  0  0
   20.5780   -5.1055  -15.2882 N   0  0  0  0  0  0  0  0  0  0  0  0
   21.6999   -3.0096  -15.4283 C   0  0  0  0  0  0  0  0  0  0  0  0
   21.2039   -2.7815  -14.1519 O   0  0  0  0  0  0  0  0  0  0  0  0
   22.4228   -2.0930  -15.9151 O   0  0  0  0  0  0  0  0  0  0  0  0
  1  2  1  0
  2  3  1  0
  4  3  1  0
  5  4  1  0
  5  1  1  0
  5  6  1  6
  6  7  2  0
  9  8  1  0
  9 11  1  0
 10  9  2  0
 11 12  1  0
 13 12  1  1
 13 15  1  0
 13 14  1  0
 14  6  1  0
 15 16  2  0
 15 20  1  0
 17 18  1  0
 19 18  1  6
 19 21  1  0
 20 19  1  0
 21 23  2  0
 21 22  1  0
M  END
$$$$
