PQS.pdb
     RDKit          3D

 23 23  0  0  1  0  0  0  0  0999 V2000
   22.5276  -11.9452  -16.9122 N   0  0  0  0  0  0  0  0  0  0  0  0
   23.7429  -12.6930  -17.1178 C   0  0  0  0  0  0  0  0  0  0  0  0
   24.6595  -12.4073  -15.9735 C   0  0  0  0  0  0  0  0  0  0  0  0
   23.9696  -11.2702  -15.2488 C   0  0  0  0  0  0  0  0  0  0  0  0
   22.5175  -11.5428  -15.5306 C   0  0  1  0  0  0  0  0  0  0  0  0
   21.6746  -10.3280  -15.3154 C   0  0  0  0  0  0  0  0  0  0  0  0
   21.4248   -9.5505  -16.2701 O   0  0  0  0  0  0  0  0  0  0  0  0
   17.5659   -9.3200  -10.5647 N   0  0  0  0  0  0  0  0  0  0  0  0
   17.4152   -8.1906  -11.3916 C   0  0  0  0  0  0  0  0  0  0  0  0
   16.4691   -7.3875  -11.2091 O   0  0  0  0  0  0  0  0  0  0  0  0
   18.3593   -7.8932  -12.5127 C   0  0  0  0  0  0  0  0  0  0  0  0
   19.3094   -9.0130  -12.7076 C   0  0  0  0  0  0  0  0  0  0  0  0
   20.3668   -8.8540  -13.7294 C   0  0  2  0  0  0  0  0  0  0  0  0
   21.1396  -10.0249  -14.0369 N   0  0  0  0  0  0  0  0  0  0  0  0
   21.1457   -7.5964  -13.6569 C   0  0  0  0  0  0  0  0  0  0  0  0
   22.1164   -7.5476  -12.8732 O   0  0  0  0  0  0  0  0  0  0  0  0
   22.6411   -3.7177  -15.9544 O   0  0  0  0  0  0  0  0  0  0  0  0
   21.6793   -4.7261  -15.9209 C   0  0  0  0  0  0  0  0  0  0  0  0
   21.6998   -5.3005  -14.5212 C   0  0  2  0  0  0  0  0  0  0  0  0
   20.8173   -6.4777  -14.4344 N   0  0  0  0  0  0  0  0  0  0  0  0
   21.1239   -4.2633  -13.6136 C   0  0  0  0  0  0  0  0  0  0  0  0
   19.7594   -4.1761  -13.3728 O   0  0  0  0  0  0  0  0  0  0  0  0
   21.8480   -3.4134  -13.0195 O   0  0  0  0  0  0  0  0  0  0  0  0
  1  2  1  0
  2  3  1  0
  4  3  1  0
  5  4  1  0
  5  1  1  0
  5  6  1  6
  6  7  2  0
  9  8  1  0
  9 11  1  0
 10  9  2  0
 11 12  1  0
 13 12  1  1
 13 15  1  0
 13 14  1  0
 14  6  1  0
 15 16  2  0
 15 20  1  0
 17 18  1  0
 19 18  1  6
 19 21  1  0
 20 19  1  0
 21 23  2  0
 21 22  1  0
M  END
$$$$
