PQS.pdb
     RDKit          3D

 23 23  0  0  1  0  0  0  0  0999 V2000
   19.7054  -13.1342  -17.1378 N   0  0  0  0  0  0  0  0  0  0  0  0
   18.7806  -14.0765  -16.5589 C   0  0  0  0  0  0  0  0  0  0  0  0
   17.9331  -13.3438  -15.5710 C   0  0  0  0  0  0  0  0  0  0  0  0
   18.6082  -11.9920  -15.4665 C   0  0  0  0  0  0  0  0  0  0  0  0
   19.1997  -11.8205  -16.8387 C   0  0  1  0  0  0  0  0  0  0  0  0
   20.2864  -10.7951  -16.8485 C   0  0  0  0  0  0  0  0  0  0  0  0
   21.2888  -10.9241  -16.1022 O   0  0  0  0  0  0  0  0  0  0  0  0
   19.7787   -9.2702  -20.7079 N   0  0  0  0  0  0  0  0  0  0  0  0
   21.0910   -9.7683  -20.8179 C   0  0  0  0  0  0  0  0  0  0  0  0
   21.3792  -10.6197  -21.6928 O   0  0  0  0  0  0  0  0  0  0  0  0
   22.1924   -9.3166  -19.9128 C   0  0  0  0  0  0  0  0  0  0  0  0
   21.7279   -8.2216  -19.0296 C   0  0  0  0  0  0  0  0  0  0  0  0
   21.1688   -8.5865  -17.7099 C   0  0  2  0  0  0  0  0  0  0  0  0
   20.2134   -9.6588  -17.6949 N   0  0  0  0  0  0  0  0  0  0  0  0
   20.8444   -7.4523  -16.8143 C   0  0  0  0  0  0  0  0  0  0  0  0
   19.6485   -7.1116  -16.7029 O   0  0  0  0  0  0  0  0  0  0  0  0
   21.3860   -5.0621  -12.9176 O   0  0  0  0  0  0  0  0  0  0  0  0
   21.8450   -6.0839  -13.7472 C   0  0  0  0  0  0  0  0  0  0  0  0
   21.5132   -5.6747  -15.1657 C   0  0  2  0  0  0  0  0  0  0  0  0
   21.8373   -6.7632  -16.1050 N   0  0  0  0  0  0  0  0  0  0  0  0
   22.4062   -4.5283  -15.5110 C   0  0  0  0  0  0  0  0  0  0  0  0
   22.1191   -3.2297  -15.1129 O   0  0  0  0  0  0  0  0  0  0  0  0
   23.4672   -4.6815  -16.1822 O   0  0  0  0  0  0  0  0  0  0  0  0
  1  2  1  0
  2  3  1  0
  4  3  1  0
  5  4  1  0
  5  1  1  0
  5  6  1  1
  6  7  2  0
  9  8  1  0
  9 11  1  0
 10  9  2  0
 11 12  1  0
 13 12  1  6
 13 15  1  0
 13 14  1  0
 14  6  1  0
 15 16  2  0
 15 20  1  0
 17 18  1  0
 19 18  1  1
 19 21  1  0
 20 19  1  0
 21 23  2  0
 21 22  1  0
M  END
$$$$
