ETP.pdb
     RDKit          3D

 24 24  0  0  1  0  0  0  0  0999 V2000
   11.9777  -16.4304   20.2462 N   0  0  0  0  0  0  0  0  0  0  0  0
   11.2769  -16.8442   21.4151 C   0  0  1  0  0  0  0  0  0  0  0  0
   12.0817  -17.5535   22.4457 C   0  0  0  0  0  0  0  0  0  0  0  0
   13.4810  -17.9173   22.0934 C   0  0  0  0  0  0  0  0  0  0  0  0
   14.4553  -17.9647   23.1842 C   0  0  0  0  0  0  0  0  0  0  0  0
   15.0524  -18.9939   23.5470 O   0  0  0  0  0  0  0  0  0  0  0  0
   10.4494  -15.7498   22.0314 C   0  0  0  0  0  0  0  0  0  0  0  0
   10.9198  -14.5912   22.1565 O   0  0  0  0  0  0  0  0  0  0  0  0
   14.7835  -16.7962   23.9134 O   0  0  0  0  0  0  0  0  0  0  0  0
    7.0033  -14.6628   21.0012 C   0  0  0  0  0  0  0  0  0  0  0  0
    6.9215  -14.8948   22.4924 C   0  0  1  0  0  0  0  0  0  0  0  0
    6.3638  -16.1678   22.6471 O   0  0  0  0  0  0  0  0  0  0  0  0
    8.3421  -14.8731   23.0430 C   0  0  2  0  0  0  0  0  0  0  0  0
    9.1207  -15.9505   22.4978 N   0  0  0  0  0  0  0  0  0  0  0  0
    8.3471  -14.7407   24.4963 C   0  0  0  0  0  0  0  0  0  0  0  0
    9.0037  -15.6219   25.1826 O   0  0  0  0  0  0  0  0  0  0  0  0
    7.7159  -13.7541   25.2920 N   0  0  0  0  0  0  0  0  0  0  0  0
    6.9097  -12.6737   24.8086 C   0  0  0  0  0  0  0  0  0  0  0  0
    6.2395  -12.0669   26.0452 C   0  0  0  0  0  0  0  0  0  0  0  0
    7.2213  -12.3896   27.1595 C   0  0  0  0  0  0  0  0  0  0  0  0
    7.8051  -13.6969   26.7367 C   0  0  1  0  0  0  0  0  0  0  0  0
    7.1137  -14.8555   27.3601 C   0  0  0  0  0  0  0  0  0  0  0  0
    7.4346  -15.2368   28.6444 O   0  0  0  0  0  0  0  0  0  0  0  0
    6.2456  -15.4818   26.7252 O   0  0  0  0  0  0  0  0  0  0  0  0
  2  1  1  6
  3  2  1  0
  3  4  1  0
  4  5  1  0
  5  6  2  0
  5  9  1  0
  7  2  1  0
  7  8  2  0
 11 10  1  6
 11 13  1  0
 12 11  1  0
 13 14  1  1
 13 15  1  0
 14  7  1  0
 15 17  1  0
 16 15  2  0
 17 21  1  0
 17 18  1  0
 18 19  1  0
 20 21  1  0
 20 19  1  0
 21 22  1  1
 22 24  2  0
 22 23  1  0
M  END
$$$$
