ETP.pdb
     RDKit          3D

 24 24  0  0  1  0  0  0  0  0999 V2000
   11.1406  -14.4789   18.5659 N   0  0  0  0  0  0  0  0  0  0  0  0
   11.0347  -15.0403   19.8706 C   0  0  1  0  0  0  0  0  0  0  0  0
   12.3171  -15.3687   20.5492 C   0  0  0  0  0  0  0  0  0  0  0  0
   13.2866  -14.2593   20.7589 C   0  0  0  0  0  0  0  0  0  0  0  0
   14.5584  -14.5939   21.4009 C   0  0  0  0  0  0  0  0  0  0  0  0
   15.6358  -14.7300   20.7941 O   0  0  0  0  0  0  0  0  0  0  0  0
   10.1229  -14.2637   20.7803 C   0  0  0  0  0  0  0  0  0  0  0  0
   10.1939  -13.0101   20.8321 O   0  0  0  0  0  0  0  0  0  0  0  0
   14.6337  -14.7881   22.8014 O   0  0  0  0  0  0  0  0  0  0  0  0
    6.6292  -13.9068   20.5634 C   0  0  0  0  0  0  0  0  0  0  0  0
    6.7930  -14.3773   21.9903 C   0  0  1  0  0  0  0  0  0  0  0  0
    6.5500  -15.7542   21.9649 O   0  0  0  0  0  0  0  0  0  0  0  0
    8.2338  -14.1056   22.4049 C   0  0  2  0  0  0  0  0  0  0  0  0
    9.1503  -14.8806   21.6151 N   0  0  0  0  0  0  0  0  0  0  0  0
    8.3951  -14.1890   23.8529 C   0  0  0  0  0  0  0  0  0  0  0  0
    9.2726  -15.0212   24.3177 O   0  0  0  0  0  0  0  0  0  0  0  0
    7.7071  -13.4667   24.8578 N   0  0  0  0  0  0  0  0  0  0  0  0
    6.6462  -12.5293   24.6420 C   0  0  0  0  0  0  0  0  0  0  0  0
    6.0573  -12.2389   26.0259 C   0  0  0  0  0  0  0  0  0  0  0  0
    7.2335  -12.4845   26.9566 C   0  0  0  0  0  0  0  0  0  0  0  0
    7.9913  -13.5747   26.2741 C   0  0  1  0  0  0  0  0  0  0  0  0
    7.6341  -14.9225   26.7886 C   0  0  0  0  0  0  0  0  0  0  0  0
    6.8788  -15.7753   26.0140 O   0  0  0  0  0  0  0  0  0  0  0  0
    8.0159  -15.2829   27.9171 O   0  0  0  0  0  0  0  0  0  0  0  0
  2  1  1  6
  3  2  1  0
  3  4  1  0
  4  5  1  0
  5  6  2  0
  5  9  1  0
  7  2  1  0
  7  8  2  0
 11 10  1  6
 11 13  1  0
 12 11  1  0
 13 14  1  6
 13 15  1  0
 14  7  1  0
 15 17  1  0
 16 15  2  0
 17 21  1  0
 17 18  1  0
 18 19  1  0
 20 21  1  0
 20 19  1  0
 21 22  1  1
 22 24  2  0
 22 23  1  0
M  END
$$$$
