ETP.pdb
     RDKit          3D

 24 24  0  0  1  0  0  0  0  0999 V2000
   10.3373  -18.7585   20.7123 N   0  0  0  0  0  0  0  0  0  0  0  0
   11.1648  -18.0397   21.6219 C   0  0  1  0  0  0  0  0  0  0  0  0
   12.5822  -17.8521   21.2111 C   0  0  0  0  0  0  0  0  0  0  0  0
   12.8702  -17.7777   19.7530 C   0  0  0  0  0  0  0  0  0  0  0  0
   14.2643  -17.5782   19.3552 C   0  0  0  0  0  0  0  0  0  0  0  0
   14.7370  -16.4915   18.9769 O   0  0  0  0  0  0  0  0  0  0  0  0
   10.5570  -16.7430   22.0818 C   0  0  0  0  0  0  0  0  0  0  0  0
   11.2605  -15.8859   22.6731 O   0  0  0  0  0  0  0  0  0  0  0  0
   15.1856  -18.6532   19.3807 O   0  0  0  0  0  0  0  0  0  0  0  0
    7.8121  -14.3569   20.3476 C   0  0  0  0  0  0  0  0  0  0  0  0
    7.3593  -14.8074   21.7174 C   0  0  1  0  0  0  0  0  0  0  0  0
    6.5089  -15.8952   21.4959 O   0  0  0  0  0  0  0  0  0  0  0  0
    8.5944  -15.2548   22.4894 C   0  0  2  0  0  0  0  0  0  0  0  0
    9.1877  -16.4140   21.8822 N   0  0  0  0  0  0  0  0  0  0  0  0
    8.3248  -15.3395   23.9212 C   0  0  0  0  0  0  0  0  0  0  0  0
    8.5427  -16.4714   24.5126 O   0  0  0  0  0  0  0  0  0  0  0  0
    7.8427  -14.3281   24.7869 N   0  0  0  0  0  0  0  0  0  0  0  0
    7.6771  -12.9452   24.4538 C   0  0  0  0  0  0  0  0  0  0  0  0
    6.8789  -12.3303   25.6076 C   0  0  0  0  0  0  0  0  0  0  0  0
    7.2445  -13.2165   26.7870 C   0  0  0  0  0  0  0  0  0  0  0  0
    7.4468  -14.5567   26.1615 C   0  0  1  0  0  0  0  0  0  0  0  0
    6.2289  -15.4057   26.2316 C   0  0  0  0  0  0  0  0  0  0  0  0
    5.8932  -16.0285   27.4137 O   0  0  0  0  0  0  0  0  0  0  0  0
    5.5115  -15.5552   25.2256 O   0  0  0  0  0  0  0  0  0  0  0  0
  2  1  1  6
  3  2  1  0
  3  4  1  0
  4  5  1  0
  5  6  2  0
  5  9  1  0
  7  2  1  0
  7  8  2  0
 11 10  1  6
 11 13  1  0
 12 11  1  0
 13 14  1  6
 13 15  1  0
 14  7  1  0
 15 17  1  0
 16 15  2  0
 17 21  1  0
 17 18  1  0
 18 19  1  0
 20 21  1  0
 20 19  1  0
 21 22  1  6
 22 24  2  0
 22 23  1  0
M  END
$$$$
