ETP.pdb
     RDKit          3D

 24 24  0  0  1  0  0  0  0  0999 V2000
   11.4445  -16.5376   19.7978 N   0  0  0  0  0  0  0  0  0  0  0  0
   11.3795  -16.5057   21.2202 C   0  0  1  0  0  0  0  0  0  0  0  0
   12.6796  -16.3888   21.9336 C   0  0  0  0  0  0  0  0  0  0  0  0
   13.5453  -17.5982   21.9858 C   0  0  0  0  0  0  0  0  0  0  0  0
   14.9844  -17.3995   21.8099 C   0  0  0  0  0  0  0  0  0  0  0  0
   15.6435  -17.8521   20.8569 O   0  0  0  0  0  0  0  0  0  0  0  0
   10.3799  -15.5136   21.7481 C   0  0  0  0  0  0  0  0  0  0  0  0
   10.4714  -14.2972   21.4459 O   0  0  0  0  0  0  0  0  0  0  0  0
   15.7328  -16.6525   22.7516 O   0  0  0  0  0  0  0  0  0  0  0  0
    6.8819  -15.0804   21.2396 C   0  0  0  0  0  0  0  0  0  0  0  0
    6.9662  -15.1801   22.7453 C   0  0  1  0  0  0  0  0  0  0  0  0
    6.6311  -16.5016   23.0564 O   0  0  0  0  0  0  0  0  0  0  0  0
    8.4078  -14.8949   23.1483 C   0  0  2  0  0  0  0  0  0  0  0  0
    9.2990  -15.8782   22.5977 N   0  0  0  0  0  0  0  0  0  0  0  0
    8.5203  -14.6489   24.5823 C   0  0  0  0  0  0  0  0  0  0  0  0
    9.3298  -15.3968   25.2635 O   0  0  0  0  0  0  0  0  0  0  0  0
    7.8491  -13.6773   25.3636 N   0  0  0  0  0  0  0  0  0  0  0  0
    6.9217  -12.7011   24.8762 C   0  0  0  0  0  0  0  0  0  0  0  0
    6.2716  -12.0854   26.1190 C   0  0  0  0  0  0  0  0  0  0  0  0
    7.3413  -12.2566   27.1850 C   0  0  0  0  0  0  0  0  0  0  0  0
    8.0159  -13.5299   26.7950 C   0  0  1  0  0  0  0  0  0  0  0  0
    7.4697  -14.7069   27.5197 C   0  0  0  0  0  0  0  0  0  0  0  0
    7.8811  -14.9719   28.8075 O   0  0  0  0  0  0  0  0  0  0  0  0
    6.6415  -15.4533   26.9665 O   0  0  0  0  0  0  0  0  0  0  0  0
  2  1  1  6
  3  2  1  0
  3  4  1  0
  4  5  1  0
  5  6  2  0
  5  9  1  0
  7  2  1  0
  7  8  2  0
 11 10  1  6
 11 13  1  0
 12 11  1  0
 13 14  1  1
 13 15  1  0
 14  7  1  0
 15 17  1  0
 16 15  2  0
 17 21  1  0
 17 18  1  0
 18 19  1  0
 20 21  1  0
 20 19  1  0
 21 22  1  1
 22 24  2  0
 22 23  1  0
M  END
$$$$
