ETP.pdb
     RDKit          3D

 24 24  0  0  1  0  0  0  0  0999 V2000
   11.3457  -16.7664   19.7171 N   0  0  0  0  0  0  0  0  0  0  0  0
   10.8577  -17.0572   21.0232 C   0  0  1  0  0  0  0  0  0  0  0  0
   11.8265  -17.6866   21.9603 C   0  0  0  0  0  0  0  0  0  0  0  0
   13.1173  -16.9821   22.1886 C   0  0  0  0  0  0  0  0  0  0  0  0
   14.0591  -17.5969   23.1249 C   0  0  0  0  0  0  0  0  0  0  0  0
   15.1181  -17.0659   23.5045 O   0  0  0  0  0  0  0  0  0  0  0  0
   10.1559  -15.8940   21.6687 C   0  0  0  0  0  0  0  0  0  0  0  0
   10.5552  -14.7195   21.4672 O   0  0  0  0  0  0  0  0  0  0  0  0
   13.8056  -18.8789   23.6700 O   0  0  0  0  0  0  0  0  0  0  0  0
    6.9276  -14.6084   21.1112 C   0  0  0  0  0  0  0  0  0  0  0  0
    6.9056  -14.8459   22.6037 C   0  0  1  0  0  0  0  0  0  0  0  0
    6.2842  -16.0861   22.7803 O   0  0  0  0  0  0  0  0  0  0  0  0
    8.3503  -14.9090   23.0838 C   0  0  2  0  0  0  0  0  0  0  0  0
    9.0287  -16.0447   22.5230 N   0  0  0  0  0  0  0  0  0  0  0  0
    8.4366  -14.7528   24.5322 C   0  0  0  0  0  0  0  0  0  0  0  0
    9.1573  -15.6040   25.1914 O   0  0  0  0  0  0  0  0  0  0  0  0
    7.8250  -13.7712   25.3491 N   0  0  0  0  0  0  0  0  0  0  0  0
    7.0444  -12.6622   24.8891 C   0  0  0  0  0  0  0  0  0  0  0  0
    6.3841  -12.0696   26.1378 C   0  0  0  0  0  0  0  0  0  0  0  0
    7.3551  -12.4400   27.2467 C   0  0  0  0  0  0  0  0  0  0  0  0
    7.9110  -13.7497   26.7950 C   0  0  1  0  0  0  0  0  0  0  0  0
    7.1923  -14.9069   27.3894 C   0  0  0  0  0  0  0  0  0  0  0  0
    7.5569  -15.3771   28.6319 O   0  0  0  0  0  0  0  0  0  0  0  0
    6.2618  -15.4519   26.7679 O   0  0  0  0  0  0  0  0  0  0  0  0
  2  1  1  6
  3  2  1  0
  3  4  1  0
  4  5  1  0
  5  6  2  0
  5  9  1  0
  7  2  1  0
  7  8  2  0
 11 10  1  6
 11 13  1  0
 12 11  1  0
 13 14  1  1
 13 15  1  0
 14  7  1  0
 15 17  1  0
 16 15  2  0
 17 21  1  0
 17 18  1  0
 18 19  1  0
 20 21  1  0
 20 19  1  0
 21 22  1  1
 22 24  2  0
 22 23  1  0
M  END
$$$$
