ETP.pdb
     RDKit          3D

 24 24  0  0  1  0  0  0  0  0999 V2000
    8.5287  -15.9703   18.7304 N   0  0  0  0  0  0  0  0  0  0  0  0
    8.8787  -14.9757   19.6879 C   0  0  1  0  0  0  0  0  0  0  0  0
    9.1229  -13.6088   19.1542 C   0  0  0  0  0  0  0  0  0  0  0  0
   10.2117  -12.8114   19.7813 C   0  0  0  0  0  0  0  0  0  0  0  0
   11.5508  -13.4014   19.7954 C   0  0  0  0  0  0  0  0  0  0  0  0
   12.2121  -13.6154   20.8271 O   0  0  0  0  0  0  0  0  0  0  0  0
    7.9526  -14.9382   20.8724 C   0  0  0  0  0  0  0  0  0  0  0  0
    6.7235  -15.1554   20.7254 O   0  0  0  0  0  0  0  0  0  0  0  0
   12.1903  -13.7749   18.5886 O   0  0  0  0  0  0  0  0  0  0  0  0
    7.9845  -17.2810   23.3179 C   0  0  0  0  0  0  0  0  0  0  0  0
    6.8863  -16.2433   23.2797 C   0  0  1  0  0  0  0  0  0  0  0  0
    6.1227  -16.4581   24.4313 O   0  0  0  0  0  0  0  0  0  0  0  0
    7.5447  -14.8702   23.3345 C   0  0  2  0  0  0  0  0  0  0  0  0
    8.3959  -14.6630   22.1957 N   0  0  0  0  0  0  0  0  0  0  0  0
    8.1397  -14.6176   24.6429 C   0  0  0  0  0  0  0  0  0  0  0  0
    9.2602  -15.2050   24.9222 O   0  0  0  0  0  0  0  0  0  0  0  0
    7.6522  -13.7950   25.6870 N   0  0  0  0  0  0  0  0  0  0  0  0
    6.3672  -13.1642   25.7299 C   0  0  0  0  0  0  0  0  0  0  0  0
    6.2114  -12.6302   27.1572 C   0  0  0  0  0  0  0  0  0  0  0  0
    7.6482  -12.3946   27.5931 C   0  0  0  0  0  0  0  0  0  0  0  0
    8.4048  -13.4661   26.8803 C   0  0  1  0  0  0  0  0  0  0  0  0
    8.6170  -14.6698   27.7259 C   0  0  0  0  0  0  0  0  0  0  0  0
    9.5305  -14.6327   28.7564 O   0  0  0  0  0  0  0  0  0  0  0  0
    7.9714  -15.7109   27.5057 O   0  0  0  0  0  0  0  0  0  0  0  0
  2  1  1  6
  3  2  1  0
  3  4  1  0
  4  5  1  0
  5  6  2  0
  5  9  1  0
  7  2  1  0
  7  8  2  0
 11 10  1  1
 11 13  1  0
 12 11  1  0
 13 14  1  6
 13 15  1  0
 14  7  1  0
 15 17  1  0
 16 15  2  0
 17 21  1  0
 17 18  1  0
 18 19  1  0
 20 21  1  0
 20 19  1  0
 21 22  1  1
 22 24  2  0
 22 23  1  0
M  END
$$$$
