ETP.pdb
     RDKit          3D

 24 24  0  0  1  0  0  0  0  0999 V2000
   10.5366  -18.3925   21.7134 N   0  0  0  0  0  0  0  0  0  0  0  0
   10.7255  -17.1587   21.0273 C   0  0  1  0  0  0  0  0  0  0  0  0
   10.5780  -17.2019   19.5476 C   0  0  0  0  0  0  0  0  0  0  0  0
   11.8047  -17.0012   18.7293 C   0  0  0  0  0  0  0  0  0  0  0  0
   12.2399  -18.1182   17.8901 C   0  0  0  0  0  0  0  0  0  0  0  0
   13.2853  -18.1233   17.2160 O   0  0  0  0  0  0  0  0  0  0  0  0
    9.9368  -16.0225   21.6182 C   0  0  0  0  0  0  0  0  0  0  0  0
   10.2528  -14.8321   21.3686 O   0  0  0  0  0  0  0  0  0  0  0  0
   11.4641  -19.2991   17.7968 O   0  0  0  0  0  0  0  0  0  0  0  0
    6.3671  -15.1539   21.3881 C   0  0  0  0  0  0  0  0  0  0  0  0
    6.6286  -15.2152   22.8754 C   0  0  1  0  0  0  0  0  0  0  0  0
    6.1694  -16.4697   23.2888 O   0  0  0  0  0  0  0  0  0  0  0  0
    8.1342  -15.1114   23.0856 C   0  0  2  0  0  0  0  0  0  0  0  0
    8.8158  -16.2173   22.4718 N   0  0  0  0  0  0  0  0  0  0  0  0
    8.4589  -14.8449   24.4832 C   0  0  0  0  0  0  0  0  0  0  0  0
    9.2996  -15.6361   25.0712 O   0  0  0  0  0  0  0  0  0  0  0  0
    7.9705  -13.8108   25.3180 N   0  0  0  0  0  0  0  0  0  0  0  0
    7.1066  -12.7423   24.9147 C   0  0  0  0  0  0  0  0  0  0  0  0
    6.6468  -12.0654   26.2097 C   0  0  0  0  0  0  0  0  0  0  0  0
    7.7908  -12.3496   27.1691 C   0  0  0  0  0  0  0  0  0  0  0  0
    8.2889  -13.6852   26.7256 C   0  0  1  0  0  0  0  0  0  0  0  0
    7.6961  -14.8009   27.5083 C   0  0  0  0  0  0  0  0  0  0  0  0
    8.2198  -15.1305   28.7391 O   0  0  0  0  0  0  0  0  0  0  0  0
    6.7276  -15.4378   27.0550 O   0  0  0  0  0  0  0  0  0  0  0  0
  2  1  1  1
  3  2  1  0
  3  4  1  0
  4  5  1  0
  5  6  2  0
  5  9  1  0
  7  2  1  0
  7  8  2  0
 11 10  1  6
 11 13  1  0
 12 11  1  0
 13 14  1  1
 13 15  1  0
 14  7  1  0
 15 17  1  0
 16 15  2  0
 17 21  1  0
 17 18  1  0
 18 19  1  0
 20 21  1  0
 20 19  1  0
 21 22  1  1
 22 24  2  0
 22 23  1  0
M  END
$$$$
