ETP.pdb
     RDKit          3D

 24 24  0  0  1  0  0  0  0  0999 V2000
   10.9615  -17.2642   19.9102 N   0  0  0  0  0  0  0  0  0  0  0  0
   11.4141  -17.4849   21.2425 C   0  0  1  0  0  0  0  0  0  0  0  0
   12.8878  -17.4756   21.4446 C   0  0  0  0  0  0  0  0  0  0  0  0
   13.7030  -18.3858   20.5951 C   0  0  0  0  0  0  0  0  0  0  0  0
   14.9808  -17.8731   20.0990 C   0  0  0  0  0  0  0  0  0  0  0  0
   15.8596  -17.3657   20.8183 O   0  0  0  0  0  0  0  0  0  0  0  0
   10.7218  -16.6171   22.2574 C   0  0  0  0  0  0  0  0  0  0  0  0
   10.5221  -15.3991   22.0215 O   0  0  0  0  0  0  0  0  0  0  0  0
   15.2974  -17.9295   18.7201 O   0  0  0  0  0  0  0  0  0  0  0  0
    7.4471  -16.4687   23.2400 C   0  0  0  0  0  0  0  0  0  0  0  0
    8.1124  -16.6757   24.5812 C   0  0  1  0  0  0  0  0  0  0  0  0
    8.0257  -18.0474   24.8388 O   0  0  0  0  0  0  0  0  0  0  0  0
    9.5713  -16.2582   24.4438 C   0  0  2  0  0  0  0  0  0  0  0  0
   10.2625  -17.1056   23.5118 N   0  0  0  0  0  0  0  0  0  0  0  0
   10.1994  -16.0828   25.7493 C   0  0  0  0  0  0  0  0  0  0  0  0
   11.1345  -16.9132   26.0881 O   0  0  0  0  0  0  0  0  0  0  0  0
    9.9247  -15.1023   26.7332 N   0  0  0  0  0  0  0  0  0  0  0  0
    8.9368  -14.0700   26.6382 C   0  0  0  0  0  0  0  0  0  0  0  0
    8.8355  -13.4585   28.0390 C   0  0  0  0  0  0  0  0  0  0  0  0
   10.2161  -13.7098   28.6226 C   0  0  0  0  0  0  0  0  0  0  0  0
   10.6245  -15.0025   27.9976 C   0  0  1  0  0  0  0  0  0  0  0  0
   10.3272  -16.1718   28.8656 C   0  0  0  0  0  0  0  0  0  0  0  0
   11.0818  -16.3975   29.9958 O   0  0  0  0  0  0  0  0  0  0  0  0
    9.3981  -16.9471   28.5744 O   0  0  0  0  0  0  0  0  0  0  0  0
  2  1  1  6
  3  2  1  0
  3  4  1  0
  4  5  1  0
  5  6  2  0
  5  9  1  0
  7  2  1  0
  7  8  2  0
 11 10  1  6
 11 13  1  0
 12 11  1  0
 13 14  1  6
 13 15  1  0
 14  7  1  0
 15 17  1  0
 16 15  2  0
 17 21  1  0
 17 18  1  0
 18 19  1  0
 20 21  1  0
 20 19  1  0
 21 22  1  1
 22 24  2  0
 22 23  1  0
M  END
$$$$
