ETP.pdb
     RDKit          3D

 24 24  0  0  1  0  0  0  0  0999 V2000
   10.5206  -15.9154   18.5286 N   0  0  0  0  0  0  0  0  0  0  0  0
   10.8196  -15.9623   19.9204 C   0  0  1  0  0  0  0  0  0  0  0  0
   12.2536  -15.8171   20.2884 C   0  0  0  0  0  0  0  0  0  0  0  0
   12.6672  -14.5510   20.9522 C   0  0  0  0  0  0  0  0  0  0  0  0
   14.0811  -14.4091   21.3016 C   0  0  0  0  0  0  0  0  0  0  0  0
   14.5542  -14.6575   22.4249 O   0  0  0  0  0  0  0  0  0  0  0  0
    9.9527  -15.0519   20.7461 C   0  0  0  0  0  0  0  0  0  0  0  0
    9.9052  -13.8211   20.4969 O   0  0  0  0  0  0  0  0  0  0  0  0
   15.0230  -13.9642   20.3425 O   0  0  0  0  0  0  0  0  0  0  0  0
    6.5484  -14.7871   20.8894 C   0  0  0  0  0  0  0  0  0  0  0  0
    6.8422  -14.9474   22.3633 C   0  0  1  0  0  0  0  0  0  0  0  0
    6.5993  -16.2936   22.6533 O   0  0  0  0  0  0  0  0  0  0  0  0
    8.3146  -14.6206   22.5801 C   0  0  2  0  0  0  0  0  0  0  0  0
    9.1546  -15.5126   21.8297 N   0  0  0  0  0  0  0  0  0  0  0  0
    8.6244  -14.4788   23.9992 C   0  0  0  0  0  0  0  0  0  0  0  0
    9.5558  -15.2314   24.4939 O   0  0  0  0  0  0  0  0  0  0  0  0
    8.0335  -13.6075   24.9459 N   0  0  0  0  0  0  0  0  0  0  0  0
    6.9896  -12.6631   24.6822 C   0  0  0  0  0  0  0  0  0  0  0  0
    6.5113  -12.1756   26.0533 C   0  0  0  0  0  0  0  0  0  0  0  0
    7.7432  -12.3479   26.9266 C   0  0  0  0  0  0  0  0  0  0  0  0
    8.4155  -13.5457   26.3418 C   0  0  1  0  0  0  0  0  0  0  0  0
    8.0543  -14.8016   27.0498 C   0  0  0  0  0  0  0  0  0  0  0  0
    8.6342  -15.0964   28.2641 O   0  0  0  0  0  0  0  0  0  0  0  0
    7.2293  -15.5873   26.5487 O   0  0  0  0  0  0  0  0  0  0  0  0
  2  1  1  6
  3  2  1  0
  3  4  1  0
  4  5  1  0
  5  6  2  0
  5  9  1  0
  7  2  1  0
  7  8  2  0
 11 10  1  6
 11 13  1  0
 12 11  1  0
 13 14  1  1
 13 15  1  0
 14  7  1  0
 15 17  1  0
 16 15  2  0
 17 21  1  0
 17 18  1  0
 18 19  1  0
 20 21  1  0
 20 19  1  0
 21 22  1  1
 22 24  2  0
 22 23  1  0
M  END
$$$$
