ETP.pdb
     RDKit          3D

 24 24  0  0  1  0  0  0  0  0999 V2000
   12.0766  -16.6822   20.3964 N   0  0  0  0  0  0  0  0  0  0  0  0
   11.1726  -17.0817   21.4220 C   0  0  1  0  0  0  0  0  0  0  0  0
   11.7245  -17.9847   22.4674 C   0  0  0  0  0  0  0  0  0  0  0  0
   12.7621  -17.4280   23.3774 C   0  0  0  0  0  0  0  0  0  0  0  0
   13.3442  -18.3375   24.3651 C   0  0  0  0  0  0  0  0  0  0  0  0
   14.2299  -18.0168   25.1775 O   0  0  0  0  0  0  0  0  0  0  0  0
   10.4259  -15.9307   22.0384 C   0  0  0  0  0  0  0  0  0  0  0  0
   11.0381  -14.8906   22.3885 O   0  0  0  0  0  0  0  0  0  0  0  0
   12.9137  -19.6836   24.4523 O   0  0  0  0  0  0  0  0  0  0  0  0
    7.0669  -14.3443   20.8643 C   0  0  0  0  0  0  0  0  0  0  0  0
    6.9384  -14.6768   22.3330 C   0  0  1  0  0  0  0  0  0  0  0  0
    6.2461  -15.8906   22.3868 O   0  0  0  0  0  0  0  0  0  0  0  0
    8.3448  -14.8489   22.8936 C   0  0  2  0  0  0  0  0  0  0  0  0
    9.0206  -15.9458   22.2575 N   0  0  0  0  0  0  0  0  0  0  0  0
    8.3391  -14.8498   24.3529 C   0  0  0  0  0  0  0  0  0  0  0  0
    8.8460  -15.8760   24.9600 O   0  0  0  0  0  0  0  0  0  0  0  0
    7.8421  -13.8566   25.2313 N   0  0  0  0  0  0  0  0  0  0  0  0
    7.3252  -12.5774   24.8475 C   0  0  0  0  0  0  0  0  0  0  0  0
    6.6681  -11.9983   26.1042 C   0  0  0  0  0  0  0  0  0  0  0  0
    7.4444  -12.6588   27.2315 C   0  0  0  0  0  0  0  0  0  0  0  0
    7.7919  -13.9984   26.6721 C   0  0  1  0  0  0  0  0  0  0  0  0
    6.8201  -15.0498   27.0710 C   0  0  0  0  0  0  0  0  0  0  0  0
    6.9237  -15.6468   28.3083 O   0  0  0  0  0  0  0  0  0  0  0  0
    5.9129  -15.3920   26.2907 O   0  0  0  0  0  0  0  0  0  0  0  0
  2  1  1  1
  3  2  1  0
  3  4  1  0
  4  5  1  0
  5  6  2  0
  5  9  1  0
  7  2  1  0
  7  8  2  0
 11 10  1  6
 11 13  1  0
 12 11  1  0
 13 14  1  6
 13 15  1  0
 14  7  1  0
 15 17  1  0
 16 15  2  0
 17 21  1  0
 17 18  1  0
 18 19  1  0
 20 21  1  0
 20 19  1  0
 21 22  1  6
 22 24  2  0
 22 23  1  0
M  END
$$$$
