ETP.pdb
     RDKit          3D

 24 24  0  0  1  0  0  0  0  0999 V2000
   11.7362  -16.8912   20.0573 N   0  0  0  0  0  0  0  0  0  0  0  0
   11.2519  -17.1150   21.3779 C   0  0  1  0  0  0  0  0  0  0  0  0
   12.2437  -17.6241   22.3628 C   0  0  0  0  0  0  0  0  0  0  0  0
   13.2510  -18.6062   21.8775 C   0  0  0  0  0  0  0  0  0  0  0  0
   14.2336  -19.0920   22.8471 C   0  0  0  0  0  0  0  0  0  0  0  0
   13.9492  -19.5150   23.9818 O   0  0  0  0  0  0  0  0  0  0  0  0
   10.4835  -15.9483   21.9354 C   0  0  0  0  0  0  0  0  0  0  0  0
   10.9954  -14.8008   21.9541 O   0  0  0  0  0  0  0  0  0  0  0  0
   15.6142  -19.1073   22.5334 O   0  0  0  0  0  0  0  0  0  0  0  0
    7.2230  -14.4501   21.0201 C   0  0  0  0  0  0  0  0  0  0  0  0
    7.0866  -14.7925   22.4859 C   0  0  1  0  0  0  0  0  0  0  0  0
    6.4111  -16.0162   22.5272 O   0  0  0  0  0  0  0  0  0  0  0  0
    8.4905  -14.9478   23.0576 C   0  0  2  0  0  0  0  0  0  0  0  0
    9.1671  -16.0662   22.4612 N   0  0  0  0  0  0  0  0  0  0  0  0
    8.4788  -14.9001   24.5162 C   0  0  0  0  0  0  0  0  0  0  0  0
    9.0021  -15.8959   25.1590 O   0  0  0  0  0  0  0  0  0  0  0  0
    7.9600  -13.8877   25.3591 N   0  0  0  0  0  0  0  0  0  0  0  0
    7.4164  -12.6340   24.9307 C   0  0  0  0  0  0  0  0  0  0  0  0
    6.7459  -12.0254   26.1662 C   0  0  0  0  0  0  0  0  0  0  0  0
    7.5350  -12.6294   27.3162 C   0  0  0  0  0  0  0  0  0  0  0  0
    7.9114  -13.9801   26.8040 C   0  0  1  0  0  0  0  0  0  0  0  0
    6.9618  -15.0373   27.2393 C   0  0  0  0  0  0  0  0  0  0  0  0
    6.0556  -15.5582   26.3418 O   0  0  0  0  0  0  0  0  0  0  0  0
    6.9833  -15.4535   28.4120 O   0  0  0  0  0  0  0  0  0  0  0  0
  2  1  1  6
  3  2  1  0
  3  4  1  0
  4  5  1  0
  5  6  2  0
  5  9  1  0
  7  2  1  0
  7  8  2  0
 11 10  1  6
 11 13  1  0
 12 11  1  0
 13 14  1  1
 13 15  1  0
 14  7  1  0
 15 17  1  0
 16 15  2  0
 17 21  1  0
 17 18  1  0
 18 19  1  0
 20 21  1  0
 20 19  1  0
 21 22  1  6
 22 24  2  0
 22 23  1  0
M  END
$$$$
