LMF.pdb
     RDKit          3D

 28 28  0  0  1  0  0  0  0  0999 V2000
    7.6824  -20.5868   18.9942 C   0  0  0  0  0  0  0  0  0  0  0  0
    9.0886  -20.6204   19.5459 C   0  0  2  0  0  0  0  0  0  0  0  0
    9.2499  -21.9597   20.2494 C   0  0  0  0  0  0  0  0  0  0  0  0
    9.3416  -19.5463   20.5739 C   0  0  0  0  0  0  0  0  0  0  0  0
    9.1133  -18.1578   20.0329 C   0  0  2  0  0  0  0  0  0  0  0  0
    9.7114  -17.9507   18.7506 N   0  0  0  0  0  0  0  0  0  0  0  0
    9.5626  -17.1028   20.9580 C   0  0  0  0  0  0  0  0  0  0  0  0
   10.7591  -16.7554   20.9690 O   0  0  0  0  0  0  0  0  0  0  0  0
    6.2894  -12.8025   26.6215 C   0  0  0  0  0  0  0  0  0  0  0  0
    7.1039  -12.7566   25.0241 S   0  0  0  0  0  0  0  0  0  0  0  0
    7.3770  -14.3856   24.3298 C   0  0  0  0  0  0  0  0  0  0  0  0
    8.0246  -14.4201   23.0011 C   0  0  0  0  0  0  0  0  0  0  0  0
    9.1072  -15.4427   22.7925 C   0  0  2  0  0  0  0  0  0  0  0  0
    8.6773  -16.4398   21.8662 N   0  0  0  0  0  0  0  0  0  0  0  0
    9.5667  -16.0150   24.0837 C   0  0  0  0  0  0  0  0  0  0  0  0
    8.8123  -16.8326   24.6649 O   0  0  0  0  0  0  0  0  0  0  0  0
   10.8004  -15.6812   24.6756 N   0  0  0  0  0  0  0  0  0  0  0  0
   11.3168  -16.4242   25.7942 C   0  0  1  0  0  0  0  0  0  0  0  0
   10.2678  -16.5501   26.8857 C   0  0  0  0  0  0  0  0  0  0  0  0
   10.0126  -15.2712   27.5755 C   0  0  0  0  0  0  0  0  0  0  0  0
    8.7270  -14.8153   27.7697 C   0  0  0  0  0  0  0  0  0  0  0  0
    8.5265  -13.6113   28.4208 C   0  0  0  0  0  0  0  0  0  0  0  0
    9.5966  -12.8876   28.8640 C   0  0  0  0  0  0  0  0  0  0  0  0
   10.8890  -13.3223   28.6817 C   0  0  0  0  0  0  0  0  0  0  0  0
   11.0818  -14.5297   28.0284 C   0  0  0  0  0  0  0  0  0  0  0  0
   11.7686  -17.7443   25.3255 C   0  0  0  0  0  0  0  0  0  0  0  0
   11.5954  -18.0832   24.1396 O   0  0  0  0  0  0  0  0  0  0  0  0
   12.3873  -18.6162   26.1960 O   0  0  0  0  0  0  0  0  0  0  0  0
  2  1  1  1
  2  3  1  0
  4  2  1  0
  5  6  1  6
  5  4  1  0
  7  5  1  0
  8  7  2  0
  9 10  1  0
 10 11  1  0
 11 12  1  0
 13 12  1  1
 13 14  1  0
 14  7  1  0
 15 13  1  0
 15 16  2  0
 17 18  1  0
 17 15  1  0
 18 19  1  1
 20 19  1  0
 21 20  2  0
 22 21  1  0
 23 24  1  0
 23 22  2  0
 24 25  2  0
 25 20  1  0
 26 28  1  0
 26 18  1  0
 27 26  2  0
M  END
$$$$
