LMF.pdb
     RDKit          3D

 28 28  0  0  1  0  0  0  0  0999 V2000
    7.2148  -20.6084   19.1213 C   0  0  0  0  0  0  0  0  0  0  0  0
    6.5107  -19.2757   19.0170 C   0  0  2  0  0  0  0  0  0  0  0  0
    6.2660  -19.0256   17.5363 C   0  0  0  0  0  0  0  0  0  0  0  0
    7.3461  -18.1289   19.5281 C   0  0  0  0  0  0  0  0  0  0  0  0
    7.6411  -18.2359   21.0027 C   0  0  2  0  0  0  0  0  0  0  0  0
    6.4811  -18.5277   21.7864 N   0  0  0  0  0  0  0  0  0  0  0  0
    8.3057  -17.0362   21.5413 C   0  0  0  0  0  0  0  0  0  0  0  0
    9.3396  -16.6028   20.9978 O   0  0  0  0  0  0  0  0  0  0  0  0
    5.5342  -13.4763   26.4218 C   0  0  0  0  0  0  0  0  0  0  0  0
    6.9306  -12.4400   25.9817 S   0  0  0  0  0  0  0  0  0  0  0  0
    8.0110  -13.1978   24.7697 C   0  0  0  0  0  0  0  0  0  0  0  0
    7.5623  -14.4991   24.2299 C   0  0  0  0  0  0  0  0  0  0  0  0
    8.4504  -15.1627   23.2139 C   0  0  2  0  0  0  0  0  0  0  0  0
    7.8154  -16.3252   22.6825 N   0  0  0  0  0  0  0  0  0  0  0  0
    9.7961  -15.4462   23.7748 C   0  0  0  0  0  0  0  0  0  0  0  0
   10.7456  -14.7029   23.4266 O   0  0  0  0  0  0  0  0  0  0  0  0
   10.0470  -16.5032   24.6711 N   0  0  0  0  0  0  0  0  0  0  0  0
   11.3877  -16.8442   25.0665 C   0  0  1  0  0  0  0  0  0  0  0  0
   12.0652  -15.6640   25.7417 C   0  0  0  0  0  0  0  0  0  0  0  0
   11.3727  -15.2435   26.9747 C   0  0  0  0  0  0  0  0  0  0  0  0
   11.2028  -16.1187   28.0252 C   0  0  0  0  0  0  0  0  0  0  0  0
   10.5483  -15.6887   29.1657 C   0  0  0  0  0  0  0  0  0  0  0  0
   10.0784  -14.4086   29.2424 C   0  0  0  0  0  0  0  0  0  0  0  0
   10.2363  -13.5171   28.2067 C   0  0  0  0  0  0  0  0  0  0  0  0
   10.8931  -13.9553   27.0672 C   0  0  0  0  0  0  0  0  0  0  0  0
   11.3424  -18.0189   25.9521 C   0  0  0  0  0  0  0  0  0  0  0  0
   12.3970  -18.5217   26.3837 O   0  0  0  0  0  0  0  0  0  0  0  0
   10.1316  -18.5721   26.3108 O   0  0  0  0  0  0  0  0  0  0  0  0
  2  1  1  6
  2  3  1  0
  4  2  1  0
  5  6  1  1
  5  4  1  0
  7  5  1  0
  8  7  2  0
  9 10  1  0
 10 11  1  0
 11 12  1  0
 13 12  1  1
 13 14  1  0
 14  7  1  0
 15 13  1  0
 15 16  2  0
 17 18  1  0
 17 15  1  0
 18 19  1  1
 20 19  1  0
 21 20  2  0
 22 21  1  0
 23 24  1  0
 23 22  2  0
 24 25  2  0
 25 20  1  0
 26 28  1  0
 26 18  1  0
 27 26  2  0
M  END
$$$$
