LMF.pdb
     RDKit          3D

 28 28  0  0  1  0  0  0  0  0999 V2000
    8.0339  -12.5672   17.5388 C   0  0  0  0  0  0  0  0  0  0  0  0
    7.3177  -13.5762   18.4059 C   0  0  2  0  0  0  0  0  0  0  0  0
    6.4355  -12.7845   19.3596 C   0  0  0  0  0  0  0  0  0  0  0  0
    8.2592  -14.3971   19.2510 C   0  0  0  0  0  0  0  0  0  0  0  0
    9.1936  -15.2443   18.4254 C   0  0  2  0  0  0  0  0  0  0  0  0
    8.5111  -16.2063   17.6168 N   0  0  0  0  0  0  0  0  0  0  0  0
   10.2159  -15.9263   19.2383 C   0  0  0  0  0  0  0  0  0  0  0  0
    9.9902  -17.0645   19.6920 O   0  0  0  0  0  0  0  0  0  0  0  0
   16.7451  -14.4290   18.9940 C   0  0  0  0  0  0  0  0  0  0  0  0
   16.5447  -15.1980   20.6021 S   0  0  0  0  0  0  0  0  0  0  0  0
   14.9618  -16.0151   20.7956 C   0  0  0  0  0  0  0  0  0  0  0  0
   13.8019  -15.3254   20.1917 C   0  0  0  0  0  0  0  0  0  0  0  0
   12.4500  -15.9520   20.3944 C   0  0  2  0  0  0  0  0  0  0  0  0
   11.4844  -15.3373   19.5419 N   0  0  0  0  0  0  0  0  0  0  0  0
   12.0528  -15.9303   21.8253 C   0  0  0  0  0  0  0  0  0  0  0  0
   12.1480  -14.8427   22.4444 O   0  0  0  0  0  0  0  0  0  0  0  0
   11.5791  -17.0677   22.5078 N   0  0  0  0  0  0  0  0  0  0  0  0
   11.2165  -17.0062   23.8988 C   0  0  1  0  0  0  0  0  0  0  0  0
    9.7170  -17.1775   24.0711 C   0  0  0  0  0  0  0  0  0  0  0  0
    8.9761  -15.9185   23.8644 C   0  0  0  0  0  0  0  0  0  0  0  0
    9.0037  -14.9169   24.8102 C   0  0  0  0  0  0  0  0  0  0  0  0
    8.2965  -13.7501   24.5817 C   0  0  0  0  0  0  0  0  0  0  0  0
    7.5809  -13.5995   23.4283 C   0  0  0  0  0  0  0  0  0  0  0  0
    7.5383  -14.5853   22.4697 C   0  0  0  0  0  0  0  0  0  0  0  0
    8.2495  -15.7516   22.7059 C   0  0  0  0  0  0  0  0  0  0  0  0
   11.9653  -18.0372   24.6355 C   0  0  0  0  0  0  0  0  0  0  0  0
   12.6566  -18.8714   24.0211 O   0  0  0  0  0  0  0  0  0  0  0  0
   11.9071  -18.0876   26.0120 O   0  0  0  0  0  0  0  0  0  0  0  0
  2  1  1  6
  2  3  1  0
  4  2  1  0
  5  6  1  1
  5  4  1  0
  7  5  1  0
  8  7  2  0
  9 10  1  0
 10 11  1  0
 11 12  1  0
 13 12  1  1
 13 14  1  0
 14  7  1  0
 15 13  1  0
 15 16  2  0
 17 18  1  0
 17 15  1  0
 18 19  1  6
 20 19  1  0
 21 20  2  0
 22 21  1  0
 23 24  1  0
 23 22  2  0
 24 25  2  0
 25 20  1  0
 26 28  1  0
 26 18  1  0
 27 26  2  0
M  END
$$$$
