LMF.pdb
     RDKit          3D

 28 28  0  0  1  0  0  0  0  0999 V2000
    7.3518  -18.3736   27.2175 C   0  0  0  0  0  0  0  0  0  0  0  0
    7.1641  -17.8409   25.8161 C   0  0  2  0  0  0  0  0  0  0  0  0
    6.2832  -16.6059   25.9327 C   0  0  0  0  0  0  0  0  0  0  0  0
    6.4490  -18.8115   24.9101 C   0  0  0  0  0  0  0  0  0  0  0  0
    6.3773  -18.3306   23.4830 C   0  0  2  0  0  0  0  0  0  0  0  0
    5.7855  -19.2860   22.5989 N   0  0  0  0  0  0  0  0  0  0  0  0
    7.6887  -17.9197   22.9517 C   0  0  0  0  0  0  0  0  0  0  0  0
    8.5445  -18.7822   22.6759 O   0  0  0  0  0  0  0  0  0  0  0  0
    8.4561  -11.6742   21.0455 C   0  0  0  0  0  0  0  0  0  0  0  0
    7.2961  -13.0174   20.7855 S   0  0  0  0  0  0  0  0  0  0  0  0
    8.0911  -14.6200   20.6836 C   0  0  0  0  0  0  0  0  0  0  0  0
    9.2531  -14.8213   21.5754 C   0  0  0  0  0  0  0  0  0  0  0  0
    9.3378  -16.1332   22.3055 C   0  0  2  0  0  0  0  0  0  0  0  0
    8.0405  -16.5503   22.7301 N   0  0  0  0  0  0  0  0  0  0  0  0
   10.3167  -16.0696   23.4205 C   0  0  0  0  0  0  0  0  0  0  0  0
   11.2664  -15.2548   23.3220 O   0  0  0  0  0  0  0  0  0  0  0  0
   10.2238  -16.8771   24.5707 N   0  0  0  0  0  0  0  0  0  0  0  0
   11.0801  -16.6599   25.7063 C   0  0  1  0  0  0  0  0  0  0  0  0
   10.2689  -16.6152   26.9899 C   0  0  0  0  0  0  0  0  0  0  0  0
    9.5001  -15.3639   27.1302 C   0  0  0  0  0  0  0  0  0  0  0  0
   10.0108  -14.2936   27.8317 C   0  0  0  0  0  0  0  0  0  0  0  0
    9.2609  -13.1363   27.9421 C   0  0  0  0  0  0  0  0  0  0  0  0
    8.0281  -13.0627   27.3590 C   0  0  0  0  0  0  0  0  0  0  0  0
    7.4975  -14.1179   26.6539 C   0  0  0  0  0  0  0  0  0  0  0  0
    8.2549  -15.2742   26.5477 C   0  0  0  0  0  0  0  0  0  0  0  0
   12.0987  -17.7215   25.7487 C   0  0  0  0  0  0  0  0  0  0  0  0
   13.0048  -17.6893   26.6027 O   0  0  0  0  0  0  0  0  0  0  0  0
   12.0577  -18.7603   24.8431 O   0  0  0  0  0  0  0  0  0  0  0  0
  2  1  1  1
  2  3  1  0
  4  2  1  0
  5  6  1  6
  5  4  1  0
  7  5  1  0
  8  7  2  0
  9 10  1  0
 10 11  1  0
 11 12  1  0
 13 12  1  1
 13 14  1  0
 14  7  1  0
 15 13  1  0
 15 16  2  0
 17 18  1  0
 17 15  1  0
 18 19  1  1
 20 19  1  0
 21 20  2  0
 22 21  1  0
 23 24  1  0
 23 22  2  0
 24 25  2  0
 25 20  1  0
 26 28  1  0
 26 18  1  0
 27 26  2  0
M  END
$$$$
