LMF.pdb
     RDKit          3D

 28 28  0  0  1  0  0  0  0  0999 V2000
    9.5163  -12.4667   19.2458 C   0  0  0  0  0  0  0  0  0  0  0  0
    8.1764  -13.0471   18.8580 C   0  0  2  0  0  0  0  0  0  0  0  0
    7.1284  -12.0035   19.2150 C   0  0  0  0  0  0  0  0  0  0  0  0
    7.8347  -14.2992   19.6260 C   0  0  0  0  0  0  0  0  0  0  0  0
    8.8668  -15.3851   19.4573 C   0  0  2  0  0  0  0  0  0  0  0  0
    8.6662  -16.1706   18.2793 N   0  0  0  0  0  0  0  0  0  0  0  0
    8.9574  -16.2747   20.6283 C   0  0  0  0  0  0  0  0  0  0  0  0
    8.1184  -16.1816   21.5447 O   0  0  0  0  0  0  0  0  0  0  0  0
   13.1753  -21.4975   21.1347 C   0  0  0  0  0  0  0  0  0  0  0  0
   11.6431  -21.5605   20.2042 S   0  0  0  0  0  0  0  0  0  0  0  0
   10.5194  -20.2261   20.6134 C   0  0  0  0  0  0  0  0  0  0  0  0
   10.9995  -19.2683   21.6323 C   0  0  0  0  0  0  0  0  0  0  0  0
   10.1188  -18.0865   21.9310 C   0  0  2  0  0  0  0  0  0  0  0  0
    9.9819  -17.2634   20.7730 N   0  0  0  0  0  0  0  0  0  0  0  0
   10.6041  -17.3364   23.1174 C   0  0  0  0  0  0  0  0  0  0  0  0
   11.6651  -16.6760   23.0006 O   0  0  0  0  0  0  0  0  0  0  0  0
    9.9300  -17.3362   24.3540 N   0  0  0  0  0  0  0  0  0  0  0  0
   10.3850  -16.5254   25.4520 C   0  0  1  0  0  0  0  0  0  0  0  0
    9.2129  -16.0660   26.3023 C   0  0  0  0  0  0  0  0  0  0  0  0
    9.6370  -15.2558   27.4601 C   0  0  0  0  0  0  0  0  0  0  0  0
    9.6227  -13.8792   27.4046 C   0  0  0  0  0  0  0  0  0  0  0  0
   10.0275  -13.1526   28.5101 C   0  0  0  0  0  0  0  0  0  0  0  0
   10.4354  -13.8000   29.6413 C   0  0  0  0  0  0  0  0  0  0  0  0
   10.4582  -15.1732   29.7203 C   0  0  0  0  0  0  0  0  0  0  0  0
   10.0512  -15.8943   28.6084 C   0  0  0  0  0  0  0  0  0  0  0  0
   11.3578  -17.2943   26.2450 C   0  0  0  0  0  0  0  0  0  0  0  0
   11.1428  -18.4911   26.5148 O   0  0  0  0  0  0  0  0  0  0  0  0
   12.5151  -16.6955   26.6953 O   0  0  0  0  0  0  0  0  0  0  0  0
  2  1  1  1
  2  3  1  0
  4  2  1  0
  5  6  1  6
  5  4  1  0
  7  5  1  0
  8  7  2  0
  9 10  1  0
 10 11  1  0
 11 12  1  0
 13 12  1  6
 13 14  1  0
 14  7  1  0
 15 13  1  0
 15 16  2  0
 17 18  1  0
 17 15  1  0
 18 19  1  1
 20 19  1  0
 21 20  2  0
 22 21  1  0
 23 24  1  0
 23 22  2  0
 24 25  2  0
 25 20  1  0
 26 28  1  0
 26 18  1  0
 27 26  2  0
M  END
$$$$
