LMF.pdb
     RDKit          3D

 28 28  0  0  1  0  0  0  0  0999 V2000
   13.5638  -19.6116   17.6313 C   0  0  0  0  0  0  0  0  0  0  0  0
   12.2075  -19.6875   18.2926 C   0  0  2  0  0  0  0  0  0  0  0  0
   11.1753  -19.6748   17.1749 C   0  0  0  0  0  0  0  0  0  0  0  0
   11.9182  -18.5004   19.1767 C   0  0  0  0  0  0  0  0  0  0  0  0
   10.8799  -18.7976   20.2285 C   0  0  2  0  0  0  0  0  0  0  0  0
    9.6611  -19.3101   19.6837 N   0  0  0  0  0  0  0  0  0  0  0  0
   10.5825  -17.6347   21.0829 C   0  0  0  0  0  0  0  0  0  0  0  0
   11.5088  -17.0408   21.6672 O   0  0  0  0  0  0  0  0  0  0  0  0
    7.6550  -12.1917   19.4846 C   0  0  0  0  0  0  0  0  0  0  0  0
    6.9132  -12.5283   21.0826 S   0  0  0  0  0  0  0  0  0  0  0  0
    7.8291  -13.7344   22.0402 C   0  0  0  0  0  0  0  0  0  0  0  0
    8.2158  -14.9682   21.3231 C   0  0  0  0  0  0  0  0  0  0  0  0
    8.9537  -16.0159   22.1100 C   0  0  2  0  0  0  0  0  0  0  0  0
    9.2548  -17.1389   21.2823 N   0  0  0  0  0  0  0  0  0  0  0  0
    8.2122  -16.3895   23.3415 C   0  0  0  0  0  0  0  0  0  0  0  0
    7.0048  -16.0565   23.4233 O   0  0  0  0  0  0  0  0  0  0  0  0
    8.8022  -17.0940   24.4088 N   0  0  0  0  0  0  0  0  0  0  0  0
    9.0061  -16.4733   25.6907 C   0  0  1  0  0  0  0  0  0  0  0  0
    9.2636  -14.9846   25.5317 C   0  0  0  0  0  0  0  0  0  0  0  0
    8.1207  -14.1624   25.9725 C   0  0  0  0  0  0  0  0  0  0  0  0
    8.3133  -12.8972   26.4830 C   0  0  0  0  0  0  0  0  0  0  0  0
    7.2173  -12.1556   26.8862 C   0  0  0  0  0  0  0  0  0  0  0  0
    5.9605  -12.6784   26.7763 C   0  0  0  0  0  0  0  0  0  0  0  0
    5.7434  -13.9389   26.2699 C   0  0  0  0  0  0  0  0  0  0  0  0
    6.8466  -14.6760   25.8680 C   0  0  0  0  0  0  0  0  0  0  0  0
    7.8317  -16.7298   26.5399 C   0  0  0  0  0  0  0  0  0  0  0  0
    7.8965  -16.5553   27.7714 O   0  0  0  0  0  0  0  0  0  0  0  0
    6.6502  -17.1653   25.9785 O   0  0  0  0  0  0  0  0  0  0  0  0
  2  1  1  6
  2  3  1  0
  4  2  1  0
  5  6  1  6
  5  4  1  0
  7  5  1  0
  8  7  2  0
  9 10  1  0
 10 11  1  0
 11 12  1  0
 13 12  1  6
 13 14  1  0
 14  7  1  0
 15 13  1  0
 15 16  2  0
 17 18  1  0
 17 15  1  0
 18 19  1  6
 20 19  1  0
 21 20  2  0
 22 21  1  0
 23 24  1  0
 23 22  2  0
 24 25  2  0
 25 20  1  0
 26 28  1  0
 26 18  1  0
 27 26  2  0
M  END
$$$$
