LMF.pdb
     RDKit          3D

 28 28  0  0  1  0  0  0  0  0999 V2000
    9.0473  -13.8531   18.9414 C   0  0  0  0  0  0  0  0  0  0  0  0
    7.7111  -13.5881   19.5951 C   0  0  2  0  0  0  0  0  0  0  0  0
    7.2712  -12.2033   19.1441 C   0  0  0  0  0  0  0  0  0  0  0  0
    7.7897  -13.5598   21.1009 C   0  0  0  0  0  0  0  0  0  0  0  0
    8.2755  -14.8630   21.6827 C   0  0  2  0  0  0  0  0  0  0  0  0
    7.3704  -15.9477   21.4606 N   0  0  0  0  0  0  0  0  0  0  0  0
    8.5813  -14.7683   23.1209 C   0  0  0  0  0  0  0  0  0  0  0  0
    9.2890  -13.8347   23.5447 O   0  0  0  0  0  0  0  0  0  0  0  0
    6.6847  -11.9890   28.0144 C   0  0  0  0  0  0  0  0  0  0  0  0
    7.1711  -12.4277   26.3446 S   0  0  0  0  0  0  0  0  0  0  0  0
    6.3187  -13.8765   25.7242 C   0  0  0  0  0  0  0  0  0  0  0  0
    6.9048  -15.1804   26.1014 C   0  0  0  0  0  0  0  0  0  0  0  0
    8.2312  -15.5384   25.4901 C   0  0  2  0  0  0  0  0  0  0  0  0
    8.0973  -15.7140   24.0800 N   0  0  0  0  0  0  0  0  0  0  0  0
    8.8367  -16.7160   26.1628 C   0  0  0  0  0  0  0  0  0  0  0  0
    8.9314  -16.6926   27.4142 O   0  0  0  0  0  0  0  0  0  0  0  0
    9.3035  -17.8447   25.4617 N   0  0  0  0  0  0  0  0  0  0  0  0
   10.3917  -18.6393   25.9662 C   0  0  1  0  0  0  0  0  0  0  0  0
   11.7223  -18.1148   25.4542 C   0  0  0  0  0  0  0  0  0  0  0  0
   11.6903  -17.8015   24.0128 C   0  0  0  0  0  0  0  0  0  0  0  0
   12.1280  -16.5825   23.5430 C   0  0  0  0  0  0  0  0  0  0  0  0
   12.0828  -16.3245   22.1846 C   0  0  0  0  0  0  0  0  0  0  0  0
   11.6082  -17.2730   21.3242 C   0  0  0  0  0  0  0  0  0  0  0  0
   11.1658  -18.4970   21.7698 C   0  0  0  0  0  0  0  0  0  0  0  0
   11.2142  -18.7482   23.1323 C   0  0  0  0  0  0  0  0  0  0  0  0
   10.3426  -18.6407   27.4372 C   0  0  0  0  0  0  0  0  0  0  0  0
    9.4883  -17.9623   28.0382 O   0  0  0  0  0  0  0  0  0  0  0  0
   11.2424  -19.3933   28.1616 O   0  0  0  0  0  0  0  0  0  0  0  0
  2  1  1  6
  2  3  1  0
  4  2  1  0
  5  6  1  1
  5  4  1  0
  7  5  1  0
  8  7  2  0
  9 10  1  0
 10 11  1  0
 11 12  1  0
 13 12  1  1
 13 14  1  0
 14  7  1  0
 15 13  1  0
 15 16  2  0
 17 18  1  0
 17 15  1  0
 18 19  1  1
 20 19  1  0
 21 20  2  0
 22 21  1  0
 23 24  1  0
 23 22  2  0
 24 25  2  0
 25 20  1  0
 26 28  1  0
 26 18  1  0
 27 26  2  0
M  END
$$$$
