LMF.pdb
     RDKit          3D

 28 28  0  0  1  0  0  0  0  0999 V2000
    9.3890  -21.2585   19.0711 C   0  0  0  0  0  0  0  0  0  0  0  0
    8.5025  -20.1317   18.5943 C   0  0  2  0  0  0  0  0  0  0  0  0
    8.5448  -20.1563   17.0736 C   0  0  0  0  0  0  0  0  0  0  0  0
    8.9938  -18.7740   19.0295 C   0  0  0  0  0  0  0  0  0  0  0  0
    9.0902  -18.6431   20.5283 C   0  0  2  0  0  0  0  0  0  0  0  0
    7.9059  -19.0716   21.2055 N   0  0  0  0  0  0  0  0  0  0  0  0
    9.4343  -17.2777   20.9620 C   0  0  0  0  0  0  0  0  0  0  0  0
   10.5808  -16.8333   20.7616 O   0  0  0  0  0  0  0  0  0  0  0  0
    8.2118  -11.3634   19.9686 C   0  0  0  0  0  0  0  0  0  0  0  0
    7.9915  -13.0463   19.3884 S   0  0  0  0  0  0  0  0  0  0  0  0
    7.1048  -14.0788   20.5539 C   0  0  0  0  0  0  0  0  0  0  0  0
    7.6871  -14.1674   21.9100 C   0  0  0  0  0  0  0  0  0  0  0  0
    8.8392  -15.1148   22.1007 C   0  0  2  0  0  0  0  0  0  0  0  0
    8.4997  -16.4140   21.6169 N   0  0  0  0  0  0  0  0  0  0  0  0
    9.3010  -15.1277   23.5122 C   0  0  0  0  0  0  0  0  0  0  0  0
   10.0490  -14.1947   23.8936 O   0  0  0  0  0  0  0  0  0  0  0  0
    8.9379  -16.1328   24.4296 N   0  0  0  0  0  0  0  0  0  0  0  0
    9.2904  -16.0360   25.8211 C   0  0  1  0  0  0  0  0  0  0  0  0
    8.0468  -15.8922   26.6816 C   0  0  0  0  0  0  0  0  0  0  0  0
    7.4140  -14.5664   26.5446 C   0  0  0  0  0  0  0  0  0  0  0  0
    8.0573  -13.4267   26.9753 C   0  0  0  0  0  0  0  0  0  0  0  0
    7.4327  -12.2008   26.8304 C   0  0  0  0  0  0  0  0  0  0  0  0
    6.1915  -12.1288   26.2652 C   0  0  0  0  0  0  0  0  0  0  0  0
    5.5298  -13.2528   25.8278 C   0  0  0  0  0  0  0  0  0  0  0  0
    6.1621  -14.4775   25.9765 C   0  0  0  0  0  0  0  0  0  0  0  0
   10.0746  -17.2222   26.2008 C   0  0  0  0  0  0  0  0  0  0  0  0
   10.4716  -17.3646   27.3727 O   0  0  0  0  0  0  0  0  0  0  0  0
   10.3760  -18.1855   25.2616 O   0  0  0  0  0  0  0  0  0  0  0  0
  2  1  1  1
  2  3  1  0
  4  2  1  0
  5  6  1  1
  5  4  1  0
  7  5  1  0
  8  7  2  0
  9 10  1  0
 10 11  1  0
 11 12  1  0
 13 12  1  1
 13 14  1  0
 14  7  1  0
 15 13  1  0
 15 16  2  0
 17 18  1  0
 17 15  1  0
 18 19  1  1
 20 19  1  0
 21 20  2  0
 22 21  1  0
 23 24  1  0
 23 22  2  0
 24 25  2  0
 25 20  1  0
 26 28  1  0
 26 18  1  0
 27 26  2  0
M  END
$$$$
