LMF.pdb
     RDKit          3D

 28 28  0  0  1  0  0  0  0  0999 V2000
   12.3200  -18.8375   16.9675 C   0  0  0  0  0  0  0  0  0  0  0  0
   11.5243  -19.0634   18.2318 C   0  0  2  0  0  0  0  0  0  0  0  0
   10.2054  -19.6945   17.8110 C   0  0  0  0  0  0  0  0  0  0  0  0
   11.1921  -17.7814   18.9532 C   0  0  0  0  0  0  0  0  0  0  0  0
   10.5521  -18.0192   20.2973 C   0  0  2  0  0  0  0  0  0  0  0  0
    9.4303  -18.9038   20.2352 N   0  0  0  0  0  0  0  0  0  0  0  0
   10.1529  -16.7702   20.9694 C   0  0  0  0  0  0  0  0  0  0  0  0
   10.9728  -15.8396   21.0876 O   0  0  0  0  0  0  0  0  0  0  0  0
    8.7342  -12.3101   18.8113 C   0  0  0  0  0  0  0  0  0  0  0  0
    7.6374  -12.5958   20.2015 S   0  0  0  0  0  0  0  0  0  0  0  0
    7.1004  -14.3002   20.3316 C   0  0  0  0  0  0  0  0  0  0  0  0
    7.1290  -14.8836   21.6898 C   0  0  0  0  0  0  0  0  0  0  0  0
    8.4565  -15.3757   22.1967 C   0  0  2  0  0  0  0  0  0  0  0  0
    8.8425  -16.5639   21.5067 N   0  0  0  0  0  0  0  0  0  0  0  0
    8.4434  -15.5442   23.6722 C   0  0  0  0  0  0  0  0  0  0  0  0
    7.3424  -15.7817   24.2261 O   0  0  0  0  0  0  0  0  0  0  0  0
    9.6030  -15.4493   24.4660 N   0  0  0  0  0  0  0  0  0  0  0  0
    9.5426  -15.5964   25.8960 C   0  0  1  0  0  0  0  0  0  0  0  0
    8.1172  -15.4287   26.3936 C   0  0  0  0  0  0  0  0  0  0  0  0
    7.7034  -14.0140   26.4590 C   0  0  0  0  0  0  0  0  0  0  0  0
    8.6126  -13.0233   26.7593 C   0  0  0  0  0  0  0  0  0  0  0  0
    8.1878  -11.7077   26.8116 C   0  0  0  0  0  0  0  0  0  0  0  0
    6.8795  -11.4017   26.5668 C   0  0  0  0  0  0  0  0  0  0  0  0
    5.9539  -12.3735   26.2650 C   0  0  0  0  0  0  0  0  0  0  0  0
    6.3870  -13.6894   26.2145 C   0  0  0  0  0  0  0  0  0  0  0  0
   10.0919  -16.9108   26.2664 C   0  0  0  0  0  0  0  0  0  0  0  0
   10.1831  -17.2389   27.4644 O   0  0  0  0  0  0  0  0  0  0  0  0
   10.5100  -17.7893   25.2895 O   0  0  0  0  0  0  0  0  0  0  0  0
  2  1  1  6
  2  3  1  0
  4  2  1  0
  5  6  1  6
  5  4  1  0
  7  5  1  0
  8  7  2  0
  9 10  1  0
 10 11  1  0
 11 12  1  0
 13 12  1  6
 13 14  1  0
 14  7  1  0
 15 13  1  0
 15 16  2  0
 17 18  1  0
 17 15  1  0
 18 19  1  6
 20 19  1  0
 21 20  2  0
 22 21  1  0
 23 24  1  0
 23 22  2  0
 24 25  2  0
 25 20  1  0
 26 28  1  0
 26 18  1  0
 27 26  2  0
M  END
$$$$
