LMF.pdb
     RDKit          3D

 28 28  0  0  1  0  0  0  0  0999 V2000
    8.0407  -20.1135   18.2715 C   0  0  0  0  0  0  0  0  0  0  0  0
    7.8127  -18.6249   18.1496 C   0  0  2  0  0  0  0  0  0  0  0  0
    8.0113  -18.2712   16.6832 C   0  0  0  0  0  0  0  0  0  0  0  0
    8.8069  -17.8121   18.9403 C   0  0  0  0  0  0  0  0  0  0  0  0
    8.6934  -18.0394   20.4263 C   0  0  2  0  0  0  0  0  0  0  0  0
    7.3684  -18.3813   20.8412 N   0  0  0  0  0  0  0  0  0  0  0  0
    9.1730  -16.8932   21.2182 C   0  0  0  0  0  0  0  0  0  0  0  0
   10.3152  -16.4366   21.0203 O   0  0  0  0  0  0  0  0  0  0  0  0
    6.0043  -12.8517   26.5998 C   0  0  0  0  0  0  0  0  0  0  0  0
    6.4935  -12.2964   24.9658 S   0  0  0  0  0  0  0  0  0  0  0  0
    7.9238  -13.1676   24.3288 C   0  0  0  0  0  0  0  0  0  0  0  0
    7.6373  -14.3531   23.4929 C   0  0  0  0  0  0  0  0  0  0  0  0
    8.8174  -15.1279   22.9749 C   0  0  2  0  0  0  0  0  0  0  0  0
    8.3782  -16.2612   22.2267 N   0  0  0  0  0  0  0  0  0  0  0  0
    9.7518  -15.4880   24.0718 C   0  0  0  0  0  0  0  0  0  0  0  0
   10.6367  -14.6552   24.3860 O   0  0  0  0  0  0  0  0  0  0  0  0
    9.6859  -16.7119   24.7655 N   0  0  0  0  0  0  0  0  0  0  0  0
   10.6928  -17.0815   25.7245 C   0  0  1  0  0  0  0  0  0  0  0  0
   10.1397  -17.0127   27.1377 C   0  0  0  0  0  0  0  0  0  0  0  0
   10.0569  -15.6302   27.6462 C   0  0  0  0  0  0  0  0  0  0  0  0
    8.8477  -14.9740   27.7202 C   0  0  0  0  0  0  0  0  0  0  0  0
    8.8090  -13.6779   28.2026 C   0  0  0  0  0  0  0  0  0  0  0  0
    9.9613  -13.0618   28.5996 C   0  0  0  0  0  0  0  0  0  0  0  0
   11.1800  -13.6967   28.5351 C   0  0  0  0  0  0  0  0  0  0  0  0
   11.2107  -14.9952   28.0506 C   0  0  0  0  0  0  0  0  0  0  0  0
   11.1880  -18.4300   25.4042 C   0  0  0  0  0  0  0  0  0  0  0  0
   12.0900  -18.9475   26.0896 O   0  0  0  0  0  0  0  0  0  0  0  0
   10.6569  -19.1311   24.3425 O   0  0  0  0  0  0  0  0  0  0  0  0
  2  1  1  6
  2  3  1  0
  4  2  1  0
  5  6  1  6
  5  4  1  0
  7  5  1  0
  8  7  2  0
  9 10  1  0
 10 11  1  0
 11 12  1  0
 13 12  1  1
 13 14  1  0
 14  7  1  0
 15 13  1  0
 15 16  2  0
 17 18  1  0
 17 15  1  0
 18 19  1  1
 20 19  1  0
 21 20  2  0
 22 21  1  0
 23 24  1  0
 23 22  2  0
 24 25  2  0
 25 20  1  0
 26 28  1  0
 26 18  1  0
 27 26  2  0
M  END
$$$$
