LMF.pdb
     RDKit          3D

 28 28  0  0  1  0  0  0  0  0999 V2000
   10.2058  -21.5320   19.3058 C   0  0  0  0  0  0  0  0  0  0  0  0
    9.6372  -20.3748   18.5182 C   0  0  2  0  0  0  0  0  0  0  0  0
   10.2227  -20.4703   17.1172 C   0  0  0  0  0  0  0  0  0  0  0  0
   10.0380  -19.0320   19.0756 C   0  0  0  0  0  0  0  0  0  0  0  0
    9.5624  -18.8242   20.4910 C   0  0  2  0  0  0  0  0  0  0  0  0
    8.1737  -19.1181   20.6643 N   0  0  0  0  0  0  0  0  0  0  0  0
    9.8414  -17.4679   20.9945 C   0  0  0  0  0  0  0  0  0  0  0  0
   11.0097  -17.0350   20.9970 O   0  0  0  0  0  0  0  0  0  0  0  0
    8.1174  -11.5506   20.0979 C   0  0  0  0  0  0  0  0  0  0  0  0
    7.7568  -13.0495   19.1811 S   0  0  0  0  0  0  0  0  0  0  0  0
    7.3895  -14.4474   20.2401 C   0  0  0  0  0  0  0  0  0  0  0  0
    7.9213  -14.3703   21.6175 C   0  0  0  0  0  0  0  0  0  0  0  0
    9.0720  -15.2759   21.9598 C   0  0  2  0  0  0  0  0  0  0  0  0
    8.8179  -16.6005   21.4928 N   0  0  0  0  0  0  0  0  0  0  0  0
    9.3864  -15.2263   23.4105 C   0  0  0  0  0  0  0  0  0  0  0  0
   10.0875  -14.2720   23.8268 O   0  0  0  0  0  0  0  0  0  0  0  0
    8.9351  -16.1955   24.3273 N   0  0  0  0  0  0  0  0  0  0  0  0
    9.2206  -16.0833   25.7330 C   0  0  1  0  0  0  0  0  0  0  0  0
    7.9368  -15.9378   26.5320 C   0  0  0  0  0  0  0  0  0  0  0  0
    7.4498  -14.5457   26.5718 C   0  0  0  0  0  0  0  0  0  0  0  0
    6.1752  -14.2290   26.1552 C   0  0  0  0  0  0  0  0  0  0  0  0
    5.7534  -12.9124   26.2070 C   0  0  0  0  0  0  0  0  0  0  0  0
    6.5970  -11.9422   26.6677 C   0  0  0  0  0  0  0  0  0  0  0  0
    7.8736  -12.2342   27.0889 C   0  0  0  0  0  0  0  0  0  0  0  0
    8.2890  -13.5556   27.0339 C   0  0  0  0  0  0  0  0  0  0  0  0
    9.9917  -17.2616   26.1612 C   0  0  0  0  0  0  0  0  0  0  0  0
   10.3066  -17.4058   27.3576 O   0  0  0  0  0  0  0  0  0  0  0  0
   10.3714  -18.2153   25.2409 O   0  0  0  0  0  0  0  0  0  0  0  0
  2  1  1  1
  2  3  1  0
  4  2  1  0
  5  6  1  6
  5  4  1  0
  7  5  1  0
  8  7  2  0
  9 10  1  0
 10 11  1  0
 11 12  1  0
 13 12  1  1
 13 14  1  0
 14  7  1  0
 15 13  1  0
 15 16  2  0
 17 18  1  0
 17 15  1  0
 18 19  1  1
 20 19  1  0
 21 20  2  0
 22 21  1  0
 23 24  1  0
 23 22  2  0
 24 25  2  0
 25 20  1  0
 26 28  1  0
 26 18  1  0
 27 26  2  0
M  END
$$$$
