LMF.pdb
     RDKit          3D

 28 28  0  0  1  0  0  0  0  0999 V2000
   10.4847  -20.7669   19.4063 C   0  0  0  0  0  0  0  0  0  0  0  0
    9.4954  -19.6307   19.5212 C   0  0  2  0  0  0  0  0  0  0  0  0
    8.5241  -19.7780   18.3595 C   0  0  0  0  0  0  0  0  0  0  0  0
   10.1414  -18.2743   19.3897 C   0  0  0  0  0  0  0  0  0  0  0  0
    9.1790  -17.1437   19.6509 C   0  0  2  0  0  0  0  0  0  0  0  0
    9.1407  -16.1843   18.5912 N   0  0  0  0  0  0  0  0  0  0  0  0
    9.4406  -16.4533   20.9260 C   0  0  0  0  0  0  0  0  0  0  0  0
   10.5605  -15.9520   21.1419 O   0  0  0  0  0  0  0  0  0  0  0  0
    6.0942  -11.8924   25.6784 C   0  0  0  0  0  0  0  0  0  0  0  0
    5.9683  -13.6813   25.6435 S   0  0  0  0  0  0  0  0  0  0  0  0
    7.4739  -14.4790   25.0890 C   0  0  0  0  0  0  0  0  0  0  0  0
    7.4058  -15.1371   23.7667 C   0  0  0  0  0  0  0  0  0  0  0  0
    8.6946  -15.6579   23.1930 C   0  0  2  0  0  0  0  0  0  0  0  0
    8.4536  -16.3248   21.9544 N   0  0  0  0  0  0  0  0  0  0  0  0
    9.4192  -16.5063   24.1732 C   0  0  0  0  0  0  0  0  0  0  0  0
    9.0498  -17.6988   24.3035 O   0  0  0  0  0  0  0  0  0  0  0  0
   10.4916  -16.0324   24.9537 N   0  0  0  0  0  0  0  0  0  0  0  0
   11.2719  -16.9241   25.7698 C   0  0  1  0  0  0  0  0  0  0  0  0
   12.2055  -16.1424   26.6782 C   0  0  0  0  0  0  0  0  0  0  0  0
   11.4787  -15.3301   27.6724 C   0  0  0  0  0  0  0  0  0  0  0  0
   10.8969  -14.1321   27.3194 C   0  0  0  0  0  0  0  0  0  0  0  0
   10.2235  -13.3975   28.2790 C   0  0  0  0  0  0  0  0  0  0  0  0
   10.1402  -13.8614   29.5609 C   0  0  0  0  0  0  0  0  0  0  0  0
   10.7130  -15.0543   29.9368 C   0  0  0  0  0  0  0  0  0  0  0  0
   11.3861  -15.7846   28.9697 C   0  0  0  0  0  0  0  0  0  0  0  0
   10.3629  -17.7853   26.5433 C   0  0  0  0  0  0  0  0  0  0  0  0
   10.8049  -18.7753   27.1564 O   0  0  0  0  0  0  0  0  0  0  0  0
    9.0145  -17.5026   26.5952 O   0  0  0  0  0  0  0  0  0  0  0  0
  2  1  1  6
  2  3  1  0
  4  2  1  0
  5  6  1  6
  5  4  1  0
  7  5  1  0
  8  7  2  0
  9 10  1  0
 10 11  1  0
 11 12  1  0
 13 12  1  1
 13 14  1  0
 14  7  1  0
 15 13  1  0
 15 16  2  0
 17 18  1  0
 17 15  1  0
 18 19  1  1
 20 19  1  0
 21 20  2  0
 22 21  1  0
 23 24  1  0
 23 22  2  0
 24 25  2  0
 25 20  1  0
 26 28  1  0
 26 18  1  0
 27 26  2  0
M  END
$$$$
