LMF.pdb
     RDKit          3D

 28 28  0  0  1  0  0  0  0  0999 V2000
    9.1994  -13.0725   18.2243 C   0  0  0  0  0  0  0  0  0  0  0  0
    7.7907  -13.6077   18.1142 C   0  0  2  0  0  0  0  0  0  0  0  0
    6.9156  -12.4458   17.6682 C   0  0  0  0  0  0  0  0  0  0  0  0
    7.2432  -14.0946   19.4323 C   0  0  0  0  0  0  0  0  0  0  0  0
    8.0523  -15.2245   20.0167 C   0  0  2  0  0  0  0  0  0  0  0  0
    8.1581  -16.3495   19.1403 N   0  0  0  0  0  0  0  0  0  0  0  0
    7.5473  -15.6714   21.3267 C   0  0  0  0  0  0  0  0  0  0  0  0
    7.3887  -14.8449   22.2454 O   0  0  0  0  0  0  0  0  0  0  0  0
    5.2298  -21.8363   22.2037 C   0  0  0  0  0  0  0  0  0  0  0  0
    5.3595  -21.2805   23.9042 S   0  0  0  0  0  0  0  0  0  0  0  0
    5.8742  -19.5700   24.0450 C   0  0  0  0  0  0  0  0  0  0  0  0
    6.2785  -18.9123   22.7840 C   0  0  0  0  0  0  0  0  0  0  0  0
    6.7339  -17.4818   22.8724 C   0  0  2  0  0  0  0  0  0  0  0  0
    7.2216  -17.0365   21.6071 N   0  0  0  0  0  0  0  0  0  0  0  0
    7.7185  -17.2943   23.9684 C   0  0  0  0  0  0  0  0  0  0  0  0
    8.8985  -17.6724   23.7683 O   0  0  0  0  0  0  0  0  0  0  0  0
    7.3856  -16.7163   25.2088 N   0  0  0  0  0  0  0  0  0  0  0  0
    8.3987  -16.3956   26.1787 C   0  0  1  0  0  0  0  0  0  0  0  0
    8.0210  -15.1469   26.9571 C   0  0  0  0  0  0  0  0  0  0  0  0
    9.0248  -14.7914   27.9783 C   0  0  0  0  0  0  0  0  0  0  0  0
   10.2535  -14.2836   27.6171 C   0  0  0  0  0  0  0  0  0  0  0  0
   11.1695  -13.9617   28.6027 C   0  0  0  0  0  0  0  0  0  0  0  0
   10.8520  -14.1478   29.9178 C   0  0  0  0  0  0  0  0  0  0  0  0
    9.6318  -14.6533   30.3026 C   0  0  0  0  0  0  0  0  0  0  0  0
    8.7193  -14.9735   29.3093 C   0  0  0  0  0  0  0  0  0  0  0  0
    8.5906  -17.5500   27.0713 C   0  0  0  0  0  0  0  0  0  0  0  0
    7.6097  -18.2044   27.4722 O   0  0  0  0  0  0  0  0  0  0  0  0
    9.8584  -17.9162   27.4706 O   0  0  0  0  0  0  0  0  0  0  0  0
  2  1  1  1
  2  3  1  0
  4  2  1  0
  5  6  1  6
  5  4  1  0
  7  5  1  0
  8  7  2  0
  9 10  1  0
 10 11  1  0
 11 12  1  0
 13 12  1  6
 13 14  1  0
 14  7  1  0
 15 13  1  0
 15 16  2  0
 17 18  1  0
 17 15  1  0
 18 19  1  1
 20 19  1  0
 21 20  2  0
 22 21  1  0
 23 24  1  0
 23 22  2  0
 24 25  2  0
 25 20  1  0
 26 28  1  0
 26 18  1  0
 27 26  2  0
M  END
$$$$
