CGC.pdb
     RDKit          3D

 17 16  0  0  1  0  0  0  0  0999 V2000
   21.7192   -5.1976  -13.2967 N   0  0  0  0  0  0  0  0  0  0  0  0
   20.9943   -5.8372  -14.3907 C   0  0  1  0  0  0  0  0  0  0  0  0
   22.0152   -6.3162  -15.4271 C   0  0  0  0  0  0  0  0  0  0  0  0
   22.9883   -4.9790  -16.1202 S   0  0  0  0  0  0  0  0  0  0  0  0
   20.3019   -7.0236  -13.8601 C   0  0  0  0  0  0  0  0  0  0  0  0
   20.7877   -7.6080  -12.8504 O   0  0  0  0  0  0  0  0  0  0  0  0
   19.1130   -7.5724  -14.3989 N   0  0  0  0  0  0  0  0  0  0  0  0
   18.5070   -8.7258  -13.7706 C   0  0  0  0  0  0  0  0  0  0  0  0
   17.4760   -8.2894  -12.7845 C   0  0  0  0  0  0  0  0  0  0  0  0
   16.6275   -9.0805  -12.2998 O   0  0  0  0  0  0  0  0  0  0  0  0
   17.3967   -6.9464  -12.3367 N   0  0  0  0  0  0  0  0  0  0  0  0
   16.3291   -6.4722  -11.5200 C   0  0  1  0  0  0  0  0  0  0  0  0
   16.9739   -5.6621  -10.3864 C   0  0  0  0  0  0  0  0  0  0  0  0
   17.8043   -6.7032   -9.1942 S   0  0  0  0  0  0  0  0  0  0  0  0
   15.3008   -5.7184  -12.2169 C   0  0  0  0  0  0  0  0  0  0  0  0
   14.2584   -5.3228  -11.6528 O   0  0  0  0  0  0  0  0  0  0  0  0
   15.4545   -5.4129  -13.5546 O   0  0  0  0  0  0  0  0  0  0  0  0
  2  3  1  0
  2  1  1  1
  3  4  1  0
  5  7  1  0
  5  2  1  0
  6  5  2  0
  8  7  1  0
  9 11  1  0
  9  8  1  0
 10  9  2  0
 12 11  1  0
 12 15  1  0
 12 13  1  1
 14 13  1  0
 15 17  1  0
 16 15  2  0
M  END
$$$$
