CGC.pdb
     RDKit          3D

 17 16  0  0  1  0  0  0  0  0999 V2000
   27.0850  -22.5016  -14.7625 N   0  0  0  0  0  0  0  0  0  0  0  0
   27.4828  -21.1617  -14.3411 C   0  0  1  0  0  0  0  0  0  0  0  0
   27.0540  -20.1703  -15.4269 C   0  0  0  0  0  0  0  0  0  0  0  0
   27.7675  -20.5376  -17.0305 S   0  0  0  0  0  0  0  0  0  0  0  0
   26.7499  -20.8238  -13.1092 C   0  0  0  0  0  0  0  0  0  0  0  0
   26.8499  -19.6520  -12.6465 O   0  0  0  0  0  0  0  0  0  0  0  0
   25.9259  -21.7216  -12.3884 N   0  0  0  0  0  0  0  0  0  0  0  0
   25.2631  -21.2755  -11.1825 C   0  0  0  0  0  0  0  0  0  0  0  0
   23.8696  -20.8431  -11.4938 C   0  0  0  0  0  0  0  0  0  0  0  0
   23.0841  -20.4103  -10.6127 O   0  0  0  0  0  0  0  0  0  0  0  0
   23.3513  -20.8972  -12.8125 N   0  0  0  0  0  0  0  0  0  0  0  0
   21.9954  -20.5803  -13.1170 C   0  0  1  0  0  0  0  0  0  0  0  0
   22.0193  -19.7694  -14.4204 C   0  0  0  0  0  0  0  0  0  0  0  0
   23.1804  -18.4119  -14.3553 S   0  0  0  0  0  0  0  0  0  0  0  0
   21.0936  -21.7169  -13.1944 C   0  0  0  0  0  0  0  0  0  0  0  0
   21.5001  -22.8984  -13.2036 O   0  0  0  0  0  0  0  0  0  0  0  0
   19.7295  -21.5138  -13.2613 O   0  0  0  0  0  0  0  0  0  0  0  0
  2  3  1  0
  2  1  1  6
  3  4  1  0
  5  7  1  0
  5  2  1  0
  6  5  2  0
  8  7  1  0
  9 11  1  0
  9  8  1  0
 10  9  2  0
 12 11  1  0
 12 15  1  0
 12 13  1  6
 14 13  1  0
 15 17  1  0
 16 15  2  0
M  END
$$$$
