CGC.pdb
     RDKit          3D

 17 16  0  0  1  0  0  0  0  0999 V2000
   26.3829  -22.1906  -15.5834 N   0  0  0  0  0  0  0  0  0  0  0  0
   27.1708  -21.0454  -15.1373 C   0  0  1  0  0  0  0  0  0  0  0  0
   26.9752  -19.9075  -16.1437 C   0  0  0  0  0  0  0  0  0  0  0  0
   28.3206  -19.7770  -17.3220 S   0  0  0  0  0  0  0  0  0  0  0  0
   26.6423  -20.5933  -13.8393 C   0  0  0  0  0  0  0  0  0  0  0  0
   25.4554  -20.1626  -13.7849 O   0  0  0  0  0  0  0  0  0  0  0  0
   27.3691  -20.6032  -12.6243 N   0  0  0  0  0  0  0  0  0  0  0  0
   26.7856  -20.0218  -11.4351 C   0  0  0  0  0  0  0  0  0  0  0  0
   25.5344  -20.7482  -11.0709 C   0  0  0  0  0  0  0  0  0  0  0  0
   25.5409  -21.9269  -10.6335 O   0  0  0  0  0  0  0  0  0  0  0  0
   24.2588  -20.1426  -11.1994 N   0  0  0  0  0  0  0  0  0  0  0  0
   23.0565  -20.7951  -10.7990 C   0  0  1  0  0  0  0  0  0  0  0  0
   22.9757  -20.6617   -9.2717 C   0  0  0  0  0  0  0  0  0  0  0  0
   21.5252  -21.4580   -8.5957 S   0  0  0  0  0  0  0  0  0  0  0  0
   21.8473  -20.3277  -11.4554 C   0  0  0  0  0  0  0  0  0  0  0  0
   21.6651  -19.1282  -11.7542 O   0  0  0  0  0  0  0  0  0  0  0  0
   20.8437  -21.2211  -11.7733 O   0  0  0  0  0  0  0  0  0  0  0  0
  2  3  1  0
  2  1  1  6
  3  4  1  0
  5  7  1  0
  5  2  1  0
  6  5  2  0
  8  7  1  0
  9 11  1  0
  9  8  1  0
 10  9  2  0
 12 11  1  0
 12 15  1  0
 12 13  1  1
 14 13  1  0
 15 17  1  0
 16 15  2  0
M  END
$$$$
