CGC.pdb
     RDKit          3D

 17 16  0  0  1  0  0  0  0  0999 V2000
   18.4477  -18.3635  -15.3660 N   0  0  0  0  0  0  0  0  0  0  0  0
   17.3597  -17.3998  -15.2287 C   0  0  1  0  0  0  0  0  0  0  0  0
   16.3658  -17.9422  -14.1973 C   0  0  0  0  0  0  0  0  0  0  0  0
   15.7326  -19.5651  -14.6223 S   0  0  0  0  0  0  0  0  0  0  0  0
   17.9148  -16.1424  -14.7001 C   0  0  0  0  0  0  0  0  0  0  0  0
   18.8540  -16.2018  -13.8566 O   0  0  0  0  0  0  0  0  0  0  0  0
   17.4743  -14.8481  -15.0680 N   0  0  0  0  0  0  0  0  0  0  0  0
   18.1335  -13.6835  -14.5187 C   0  0  0  0  0  0  0  0  0  0  0  0
   17.4551  -12.4411  -14.9897 C   0  0  0  0  0  0  0  0  0  0  0  0
   16.4341  -12.4657  -15.7230 O   0  0  0  0  0  0  0  0  0  0  0  0
   17.9296  -11.1536  -14.6324 N   0  0  0  0  0  0  0  0  0  0  0  0
   17.2598   -9.9556  -15.0167 C   0  0  1  0  0  0  0  0  0  0  0  0
   15.8506  -10.0307  -14.4121 C   0  0  0  0  0  0  0  0  0  0  0  0
   14.8981   -8.5503  -14.7221 S   0  0  0  0  0  0  0  0  0  0  0  0
   17.9423   -8.7218  -14.6660 C   0  0  0  0  0  0  0  0  0  0  0  0
   18.5450   -8.5715  -13.5817 O   0  0  0  0  0  0  0  0  0  0  0  0
   17.9416   -7.6572  -15.5453 O   0  0  0  0  0  0  0  0  0  0  0  0
  2  3  1  0
  2  1  1  1
  3  4  1  0
  5  7  1  0
  5  2  1  0
  6  5  2  0
  8  7  1  0
  9 11  1  0
  9  8  1  0
 10  9  2  0
 12 11  1  0
 12 15  1  0
 12 13  1  1
 14 13  1  0
 15 17  1  0
 16 15  2  0
M  END
$$$$
