CGC.pdb
     RDKit          3D

 17 16  0  0  1  0  0  0  0  0999 V2000
   21.5996  -12.3737  -18.1506 N   0  0  0  0  0  0  0  0  0  0  0  0
   20.7634  -11.5382  -19.0072 C   0  0  1  0  0  0  0  0  0  0  0  0
   19.3402  -11.5442  -18.4413 C   0  0  0  0  0  0  0  0  0  0  0  0
   18.2776  -12.7518  -19.2338 S   0  0  0  0  0  0  0  0  0  0  0  0
   21.2664  -10.1556  -18.9439 C   0  0  0  0  0  0  0  0  0  0  0  0
   20.7521   -9.2880  -19.7053 O   0  0  0  0  0  0  0  0  0  0  0  0
   22.2981   -9.7107  -18.0822 N   0  0  0  0  0  0  0  0  0  0  0  0
   22.7277   -8.3304  -18.1313 C   0  0  0  0  0  0  0  0  0  0  0  0
   22.2467   -7.6008  -16.9222 C   0  0  0  0  0  0  0  0  0  0  0  0
   21.6733   -8.1823  -15.9662 O   0  0  0  0  0  0  0  0  0  0  0  0
   22.4118   -6.1992  -16.7847 N   0  0  0  0  0  0  0  0  0  0  0  0
   21.9680   -5.4841  -15.6344 C   0  0  1  0  0  0  0  0  0  0  0  0
   22.8001   -6.0005  -14.4520 C   0  0  0  0  0  0  0  0  0  0  0  0
   22.3711   -5.1943  -12.9154 S   0  0  0  0  0  0  0  0  0  0  0  0
   22.0137   -4.0361  -15.7466 C   0  0  0  0  0  0  0  0  0  0  0  0
   22.7688   -3.4474  -16.5494 O   0  0  0  0  0  0  0  0  0  0  0  0
   21.2025   -3.2548  -14.9478 O   0  0  0  0  0  0  0  0  0  0  0  0
  2  3  1  0
  2  1  1  1
  3  4  1  0
  5  7  1  0
  5  2  1  0
  6  5  2  0
  8  7  1  0
  9 11  1  0
  9  8  1  0
 10  9  2  0
 12 11  1  0
 12 15  1  0
 12 13  1  1
 14 13  1  0
 15 17  1  0
 16 15  2  0
M  END
$$$$
