CGC.pdb
     RDKit          3D

 17 16  0  0  1  0  0  0  0  0999 V2000
   40.0168   -9.6284   -6.4025 N   0  0  0  0  0  0  0  0  0  0  0  0
   39.6553  -10.1193   -7.7290 C   0  0  1  0  0  0  0  0  0  0  0  0
   38.2037  -10.6055   -7.6814 C   0  0  0  0  0  0  0  0  0  0  0  0
   37.7728  -11.3689   -6.1171 S   0  0  0  0  0  0  0  0  0  0  0  0
   39.7216   -8.9939   -8.6765 C   0  0  0  0  0  0  0  0  0  0  0  0
   39.5190   -9.2215   -9.9030 O   0  0  0  0  0  0  0  0  0  0  0  0
   39.9978   -7.6523   -8.3180 N   0  0  0  0  0  0  0  0  0  0  0  0
   39.9976   -6.6240   -9.3353 C   0  0  0  0  0  0  0  0  0  0  0  0
   38.6320   -6.0391   -9.4721 C   0  0  0  0  0  0  0  0  0  0  0  0
   37.6823   -6.6606  -10.0130 O   0  0  0  0  0  0  0  0  0  0  0  0
   38.3288   -4.7387   -8.9951 N   0  0  0  0  0  0  0  0  0  0  0  0
   37.0349   -4.1557   -9.1278 C   0  0  1  0  0  0  0  0  0  0  0  0
   36.5179   -3.9127   -7.7028 C   0  0  0  0  0  0  0  0  0  0  0  0
   36.3675   -5.4280   -6.7667 S   0  0  0  0  0  0  0  0  0  0  0  0
   36.9744   -2.9561   -9.9455 C   0  0  0  0  0  0  0  0  0  0  0  0
   37.9987   -2.3620  -10.3446 O   0  0  0  0  0  0  0  0  0  0  0  0
   35.7515   -2.4294  -10.3110 O   0  0  0  0  0  0  0  0  0  0  0  0
  2  3  1  0
  2  1  1  1
  3  4  1  0
  5  7  1  0
  5  2  1  0
  6  5  2  0
  8  7  1  0
  9 11  1  0
  9  8  1  0
 10  9  2  0
 12 11  1  0
 12 15  1  0
 12 13  1  1
 14 13  1  0
 15 17  1  0
 16 15  2  0
M  END
$$$$
