CGC.pdb
     RDKit          3D

 17 16  0  0  1  0  0  0  0  0999 V2000
   25.2850  -13.8095  -18.6073 N   0  0  0  0  0  0  0  0  0  0  0  0
   24.1522  -12.8942  -18.7089 C   0  0  1  0  0  0  0  0  0  0  0  0
   22.8632  -13.7206  -18.6744 C   0  0  0  0  0  0  0  0  0  0  0  0
   22.5335  -14.5671  -20.2204 S   0  0  0  0  0  0  0  0  0  0  0  0
   24.1551  -12.0162  -17.5266 C   0  0  0  0  0  0  0  0  0  0  0  0
   25.0676  -12.1631  -16.6647 O   0  0  0  0  0  0  0  0  0  0  0  0
   23.2013  -11.0010  -17.2729 N   0  0  0  0  0  0  0  0  0  0  0  0
   23.3247  -10.1816  -16.0872 C   0  0  0  0  0  0  0  0  0  0  0  0
   22.2046   -9.1980  -16.0254 C   0  0  0  0  0  0  0  0  0  0  0  0
   21.3946   -9.0367  -16.9733 O   0  0  0  0  0  0  0  0  0  0  0  0
   21.9914   -8.3847  -14.8838 N   0  0  0  0  0  0  0  0  0  0  0  0
   20.8751   -7.5063  -14.7658 C   0  0  1  0  0  0  0  0  0  0  0  0
   20.3349   -7.6769  -13.3389 C   0  0  0  0  0  0  0  0  0  0  0  0
   19.9453   -9.3795  -12.9587 S   0  0  0  0  0  0  0  0  0  0  0  0
   21.1420   -6.1150  -15.0887 C   0  0  0  0  0  0  0  0  0  0  0  0
   22.2961   -5.6813  -15.2921 O   0  0  0  0  0  0  0  0  0  0  0  0
   20.0995   -5.2144  -15.1812 O   0  0  0  0  0  0  0  0  0  0  0  0
  2  3  1  0
  2  1  1  1
  3  4  1  0
  5  7  1  0
  5  2  1  0
  6  5  2  0
  8  7  1  0
  9 11  1  0
  9  8  1  0
 10  9  2  0
 12 11  1  0
 12 15  1  0
 12 13  1  1
 14 13  1  0
 15 17  1  0
 16 15  2  0
M  END
$$$$
