CGC.pdb
     RDKit          3D

 17 16  0  0  1  0  0  0  0  0999 V2000
   16.0233   -8.4717   -9.3181 N   0  0  0  0  0  0  0  0  0  0  0  0
   15.4787   -7.6614  -10.4035 C   0  0  1  0  0  0  0  0  0  0  0  0
   14.0667   -7.2181  -10.0093 C   0  0  0  0  0  0  0  0  0  0  0  0
   12.9060   -8.5817   -9.9159 S   0  0  0  0  0  0  0  0  0  0  0  0
   16.3071   -6.4519  -10.5431 C   0  0  0  0  0  0  0  0  0  0  0  0
   17.0009   -6.0753   -9.5563 O   0  0  0  0  0  0  0  0  0  0  0  0
   16.3917   -5.6626  -11.7155 N   0  0  0  0  0  0  0  0  0  0  0  0
   17.2572   -4.5037  -11.7385 C   0  0  0  0  0  0  0  0  0  0  0  0
   18.5649   -4.8534  -12.3659 C   0  0  0  0  0  0  0  0  0  0  0  0
   19.4279   -3.9864  -12.6562 O   0  0  0  0  0  0  0  0  0  0  0  0
   18.9081   -6.1948  -12.6713 N   0  0  0  0  0  0  0  0  0  0  0  0
   20.1281   -6.5456  -13.3194 C   0  0  1  0  0  0  0  0  0  0  0  0
   20.4029   -8.0142  -12.9663 C   0  0  0  0  0  0  0  0  0  0  0  0
   21.8565   -8.6506  -13.7891 S   0  0  0  0  0  0  0  0  0  0  0  0
   20.1606   -6.3105  -14.7529 C   0  0  0  0  0  0  0  0  0  0  0  0
   21.1321   -5.7708  -15.3240 O   0  0  0  0  0  0  0  0  0  0  0  0
   19.0905   -6.6878  -15.5398 O   0  0  0  0  0  0  0  0  0  0  0  0
  2  3  1  0
  2  1  1  1
  3  4  1  0
  5  7  1  0
  5  2  1  0
  6  5  2  0
  8  7  1  0
  9 11  1  0
  9  8  1  0
 10  9  2  0
 12 11  1  0
 12 15  1  0
 12 13  1  6
 14 13  1  0
 15 17  1  0
 16 15  2  0
M  END
$$$$
