CGC.pdb
     RDKit          3D

 17 16  0  0  1  0  0  0  0  0999 V2000
   12.2233  -10.8973   -9.4009 N   0  0  0  0  0  0  0  0  0  0  0  0
   13.5792  -11.1928   -9.8545 C   0  0  1  0  0  0  0  0  0  0  0  0
   13.4855  -11.9976  -11.1542 C   0  0  0  0  0  0  0  0  0  0  0  0
   12.8977  -13.6724  -10.8988 S   0  0  0  0  0  0  0  0  0  0  0  0
   14.2556   -9.9211  -10.1611 C   0  0  0  0  0  0  0  0  0  0  0  0
   13.5522   -8.9252  -10.4934 O   0  0  0  0  0  0  0  0  0  0  0  0
   15.6562   -9.7196  -10.1116 N   0  0  0  0  0  0  0  0  0  0  0  0
   16.1992   -8.3998  -10.3477 C   0  0  0  0  0  0  0  0  0  0  0  0
   16.3929   -8.1798  -11.8105 C   0  0  0  0  0  0  0  0  0  0  0  0
   16.2588   -9.1010  -12.6556 O   0  0  0  0  0  0  0  0  0  0  0  0
   16.7420   -6.9080  -12.3314 N   0  0  0  0  0  0  0  0  0  0  0  0
   17.0674   -6.7047  -13.7041 C   0  0  1  0  0  0  0  0  0  0  0  0
   16.0198   -5.7303  -14.2610 C   0  0  0  0  0  0  0  0  0  0  0  0
   14.3511   -6.3384  -14.0594 S   0  0  0  0  0  0  0  0  0  0  0  0
   18.4254   -6.2561  -13.9612 C   0  0  0  0  0  0  0  0  0  0  0  0
   19.1557   -5.7767  -13.0678 O   0  0  0  0  0  0  0  0  0  0  0  0
   18.9559   -6.3511  -15.2324 O   0  0  0  0  0  0  0  0  0  0  0  0
  2  3  1  0
  2  1  1  6
  3  4  1  0
  5  7  1  0
  5  2  1  0
  6  5  2  0
  8  7  1  0
  9 11  1  0
  9  8  1  0
 10  9  2  0
 12 11  1  0
 12 15  1  0
 12 13  1  1
 14 13  1  0
 15 17  1  0
 16 15  2  0
M  END
$$$$
