CGC.pdb
     RDKit          3D

 17 16  0  0  1  0  0  0  0  0999 V2000
   29.3926  -22.7257  -16.8389 N   0  0  0  0  0  0  0  0  0  0  0  0
   28.4957  -21.5961  -17.0645 C   0  0  1  0  0  0  0  0  0  0  0  0
   27.1794  -22.1348  -17.6326 C   0  0  0  0  0  0  0  0  0  0  0  0
   27.4142  -23.1821  -19.0692 S   0  0  0  0  0  0  0  0  0  0  0  0
   28.2011  -20.9681  -15.7655 C   0  0  0  0  0  0  0  0  0  0  0  0
   28.7536  -21.4331  -14.7283 O   0  0  0  0  0  0  0  0  0  0  0  0
   27.3339  -19.8643  -15.5809 N   0  0  0  0  0  0  0  0  0  0  0  0
   27.1984  -19.2707  -14.2688 C   0  0  0  0  0  0  0  0  0  0  0  0
   26.2592  -20.0771  -13.4362 C   0  0  0  0  0  0  0  0  0  0  0  0
   25.2809  -20.6949  -13.9282 O   0  0  0  0  0  0  0  0  0  0  0  0
   26.4207  -20.1914  -12.0322 N   0  0  0  0  0  0  0  0  0  0  0  0
   25.4759  -20.8644  -11.2039 C   0  0  1  0  0  0  0  0  0  0  0  0
   25.9031  -20.6019   -9.7529 C   0  0  0  0  0  0  0  0  0  0  0  0
   24.7743  -21.3252   -8.5706 S   0  0  0  0  0  0  0  0  0  0  0  0
   24.0848  -20.5162  -11.4380 C   0  0  0  0  0  0  0  0  0  0  0  0
   23.1851  -21.3768  -11.5451 O   0  0  0  0  0  0  0  0  0  0  0  0
   23.7132  -19.1912  -11.5507 O   0  0  0  0  0  0  0  0  0  0  0  0
  2  3  1  0
  2  1  1  1
  3  4  1  0
  5  7  1  0
  5  2  1  0
  6  5  2  0
  8  7  1  0
  9 11  1  0
  9  8  1  0
 10  9  2  0
 12 11  1  0
 12 15  1  0
 12 13  1  1
 14 13  1  0
 15 17  1  0
 16 15  2  0
M  END
$$$$
