CGC.pdb
     RDKit          3D

 17 16  0  0  1  0  0  0  0  0999 V2000
   16.2215  -12.8039  -12.8782 N   0  0  0  0  0  0  0  0  0  0  0  0
   15.2279  -11.9484  -12.2363 C   0  0  1  0  0  0  0  0  0  0  0  0
   14.3560  -12.8226  -11.3300 C   0  0  0  0  0  0  0  0  0  0  0  0
   12.9426  -11.9447  -10.6612 S   0  0  0  0  0  0  0  0  0  0  0  0
   15.9315  -10.9769  -11.3820 C   0  0  0  0  0  0  0  0  0  0  0  0
   17.0970  -11.2552  -10.9806 O   0  0  0  0  0  0  0  0  0  0  0  0
   15.3986   -9.7325  -10.9671 N   0  0  0  0  0  0  0  0  0  0  0  0
   16.1815   -8.8664  -10.1131 C   0  0  0  0  0  0  0  0  0  0  0  0
   15.4472   -7.5916   -9.8651 C   0  0  0  0  0  0  0  0  0  0  0  0
   14.2257   -7.4537  -10.1288 O   0  0  0  0  0  0  0  0  0  0  0  0
   16.0935   -6.4564   -9.3136 N   0  0  0  0  0  0  0  0  0  0  0  0
   15.3997   -5.2463   -9.0202 C   0  0  1  0  0  0  0  0  0  0  0  0
   14.4804   -5.5487   -7.8285 C   0  0  0  0  0  0  0  0  0  0  0  0
   13.5538   -4.1131   -7.3034 S   0  0  0  0  0  0  0  0  0  0  0  0
   16.2438   -4.0879   -8.7820 C   0  0  0  0  0  0  0  0  0  0  0  0
   17.3483   -4.1683   -8.2031 O   0  0  0  0  0  0  0  0  0  0  0  0
   15.8355   -2.8370   -9.2004 O   0  0  0  0  0  0  0  0  0  0  0  0
  2  3  1  0
  2  1  1  1
  3  4  1  0
  5  7  1  0
  5  2  1  0
  6  5  2  0
  8  7  1  0
  9 11  1  0
  9  8  1  0
 10  9  2  0
 12 11  1  0
 12 15  1  0
 12 13  1  1
 14 13  1  0
 15 17  1  0
 16 15  2  0
M  END
$$$$
