CGC.pdb
     RDKit          3D

 17 16  0  0  1  0  0  0  0  0999 V2000
   18.2944  -12.9670  -16.8153 N   0  0  0  0  0  0  0  0  0  0  0  0
   17.6399  -13.5217  -15.6342 C   0  0  1  0  0  0  0  0  0  0  0  0
   18.6950  -14.2556  -14.8013 C   0  0  0  0  0  0  0  0  0  0  0  0
   19.3457  -15.7112  -15.6220 S   0  0  0  0  0  0  0  0  0  0  0  0
   17.1213  -12.4079  -14.8223 C   0  0  0  0  0  0  0  0  0  0  0  0
   16.6801  -12.6560  -13.6643 O   0  0  0  0  0  0  0  0  0  0  0  0
   17.0772  -11.0561  -15.2412 N   0  0  0  0  0  0  0  0  0  0  0  0
   16.6305  -10.0344  -14.3197 C   0  0  0  0  0  0  0  0  0  0  0  0
   16.7149   -8.6914  -14.9639 C   0  0  0  0  0  0  0  0  0  0  0  0
   17.0880   -8.5357  -16.1544 O   0  0  0  0  0  0  0  0  0  0  0  0
   16.3756   -7.5072  -14.2616 N   0  0  0  0  0  0  0  0  0  0  0  0
   16.4465   -6.2148  -14.8585 C   0  0  1  0  0  0  0  0  0  0  0  0
   15.3195   -5.3823  -14.2310 C   0  0  0  0  0  0  0  0  0  0  0  0
   13.7743   -6.2777  -14.1551 S   0  0  0  0  0  0  0  0  0  0  0  0
   17.7369   -5.5543  -14.7597 C   0  0  0  0  0  0  0  0  0  0  0  0
   18.6725   -6.0068  -14.0659 O   0  0  0  0  0  0  0  0  0  0  0  0
   17.9669   -4.3797  -15.4481 O   0  0  0  0  0  0  0  0  0  0  0  0
  2  3  1  0
  2  1  1  6
  3  4  1  0
  5  7  1  0
  5  2  1  0
  6  5  2  0
  8  7  1  0
  9 11  1  0
  9  8  1  0
 10  9  2  0
 12 11  1  0
 12 15  1  0
 12 13  1  1
 14 13  1  0
 15 17  1  0
 16 15  2  0
M  END
$$$$
