VNL.pdb
     RDKit          3D

 24 23  0  0  1  0  0  0  0  0999 V2000
   17.9815  -14.2045  -15.3555 C   0  0  0  0  0  0  0  0  0  0  0  0
   16.7792  -14.0947  -16.2640 C   0  0  2  0  0  0  0  0  0  0  0  0
   15.8744  -15.2709  -16.0643 C   0  0  0  0  0  0  0  0  0  0  0  0
   17.2119  -13.9730  -17.7145 C   0  0  2  0  0  0  0  0  0  0  0  0
   17.9365  -15.1518  -18.1249 N   0  0  0  0  0  0  0  0  0  0  0  0
   18.0344  -12.7651  -17.8364 C   0  0  0  0  0  0  0  0  0  0  0  0
   19.2831  -12.8678  -17.9450 O   0  0  0  0  0  0  0  0  0  0  0  0
   17.5675   -8.2776  -20.8864 N   0  0  0  0  0  0  0  0  0  0  0  0
   17.1048   -9.1853  -19.9032 C   0  0  0  0  0  0  0  0  0  0  0  0
   16.2976  -10.0814  -20.2478 O   0  0  0  0  0  0  0  0  0  0  0  0
   17.5401   -9.1073  -18.5024 C   0  0  0  0  0  0  0  0  0  0  0  0
   18.3361  -10.3026  -18.0669 C   0  0  2  0  0  0  0  0  0  0  0  0
   17.4985  -11.4372  -17.8404 N   0  0  0  0  0  0  0  0  0  0  0  0
   19.1249   -9.9278  -16.8555 C   0  0  0  0  0  0  0  0  0  0  0  0
   18.5774   -9.9030  -15.7242 O   0  0  0  0  0  0  0  0  0  0  0  0
   24.7777  -10.2906  -14.7197 C   0  0  0  0  0  0  0  0  0  0  0  0
   23.4313   -9.5876  -14.4788 C   0  0  2  0  0  0  0  0  0  0  0  0
   22.9483  -10.0907  -13.1488 C   0  0  0  0  0  0  0  0  0  0  0  0
   22.5658   -9.9285  -15.6316 C   0  0  0  0  0  0  0  0  0  0  0  0
   21.2744   -9.1869  -15.7345 C   0  0  2  0  0  0  0  0  0  0  0  0
   20.5037   -9.5874  -16.9151 N   0  0  0  0  0  0  0  0  0  0  0  0
   21.3704   -7.7347  -15.6076 C   0  0  0  0  0  0  0  0  0  0  0  0
   21.4918   -7.1633  -14.3619 O   0  0  0  0  0  0  0  0  0  0  0  0
   21.3445   -6.9996  -16.6110 O   0  0  0  0  0  0  0  0  0  0  0  0
  2  1  1  1
  2  3  1  0
  4  2  1  0
  4  5  1  1
  6  7  2  0
  6  4  1  0
  9 11  1  0
  9  8  1  0
 10  9  2  0
 12 11  1  1
 12 14  1  0
 12 13  1  0
 13  6  1  0
 14 21  1  0
 15 14  2  0
 17 16  1  6
 18 17  1  0
 19 17  1  0
 20 19  1  6
 20 22  1  0
 21 20  1  0
 22 24  2  0
 22 23  1  0
M  END
$$$$
