VNL.pdb
     RDKit          3D

 24 23  0  0  1  0  0  0  0  0999 V2000
   23.8528  -18.6916  -18.1980 C   0  0  0  0  0  0  0  0  0  0  0  0
   25.2419  -18.1096  -18.0763 C   0  0  2  0  0  0  0  0  0  0  0  0
   25.9131  -18.0964  -19.4147 C   0  0  0  0  0  0  0  0  0  0  0  0
   26.0604  -18.8832  -17.0577 C   0  0  2  0  0  0  0  0  0  0  0  0
   26.4221  -20.1788  -17.5806 N   0  0  0  0  0  0  0  0  0  0  0  0
   25.2590  -18.9999  -15.8351 C   0  0  0  0  0  0  0  0  0  0  0  0
   24.7442  -17.9721  -15.3250 O   0  0  0  0  0  0  0  0  0  0  0  0
   21.5495  -21.0007  -16.1328 N   0  0  0  0  0  0  0  0  0  0  0  0
   21.9698  -20.5018  -14.8761 C   0  0  0  0  0  0  0  0  0  0  0  0
   21.4086  -19.4768  -14.4204 O   0  0  0  0  0  0  0  0  0  0  0  0
   23.0360  -21.1460  -14.0976 C   0  0  0  0  0  0  0  0  0  0  0  0
   24.2579  -20.2872  -13.9513 C   0  0  2  0  0  0  0  0  0  0  0  0
   25.0146  -20.2399  -15.1619 N   0  0  0  0  0  0  0  0  0  0  0  0
   25.0592  -20.7996  -12.8001 C   0  0  0  0  0  0  0  0  0  0  0  0
   25.7076  -21.8714  -12.9052 O   0  0  0  0  0  0  0  0  0  0  0  0
   27.8705  -18.9993   -7.8070 C   0  0  0  0  0  0  0  0  0  0  0  0
   27.5922  -20.2542   -8.6514 C   0  0  2  0  0  0  0  0  0  0  0  0
   28.9358  -20.8783   -8.8974 C   0  0  0  0  0  0  0  0  0  0  0  0
   26.8805  -19.7951   -9.8666 C   0  0  0  0  0  0  0  0  0  0  0  0
   25.7966  -20.6852  -10.3775 C   0  0  2  0  0  0  0  0  0  0  0  0
   25.1302  -20.1195  -11.5539 N   0  0  0  0  0  0  0  0  0  0  0  0
   24.8409  -21.1521   -9.3760 C   0  0  0  0  0  0  0  0  0  0  0  0
   25.1387  -22.2538   -8.6074 O   0  0  0  0  0  0  0  0  0  0  0  0
   23.7557  -20.5688   -9.2033 O   0  0  0  0  0  0  0  0  0  0  0  0
  2  1  1  6
  2  3  1  0
  4  2  1  0
  4  5  1  6
  6  7  2  0
  6  4  1  0
  9 11  1  0
  9  8  1  0
 10  9  2  0
 12 11  1  6
 12 14  1  0
 12 13  1  0
 13  6  1  0
 14 21  1  0
 15 14  2  0
 17 16  1  1
 18 17  1  0
 19 17  1  0
 20 19  1  1
 20 22  1  0
 21 20  1  0
 22 24  2  0
 22 23  1  0
M  END
$$$$
