VNL.pdb
     RDKit          3D

 24 23  0  0  1  0  0  0  0  0999 V2000
   26.1343  -21.7962  -10.3045 C   0  0  0  0  0  0  0  0  0  0  0  0
   25.7123  -21.5087  -11.7266 C   0  0  2  0  0  0  0  0  0  0  0  0
   26.9146  -21.2233  -12.5722 C   0  0  0  0  0  0  0  0  0  0  0  0
   24.7227  -20.3578  -11.7705 C   0  0  2  0  0  0  0  0  0  0  0  0
   23.9076  -20.3481  -10.5794 N   0  0  0  0  0  0  0  0  0  0  0  0
   23.9081  -20.5138  -12.9798 C   0  0  0  0  0  0  0  0  0  0  0  0
   24.4654  -20.5677  -14.1059 O   0  0  0  0  0  0  0  0  0  0  0  0
   22.1470  -23.5179  -13.7591 N   0  0  0  0  0  0  0  0  0  0  0  0
   20.8214  -23.0211  -13.7301 C   0  0  0  0  0  0  0  0  0  0  0  0
   19.8868  -23.8219  -13.4880 O   0  0  0  0  0  0  0  0  0  0  0  0
   20.5129  -21.6057  -13.9737 C   0  0  0  0  0  0  0  0  0  0  0  0
   21.7381  -20.7639  -14.1786 C   0  0  2  0  0  0  0  0  0  0  0  0
   22.4795  -20.6119  -12.9671 N   0  0  0  0  0  0  0  0  0  0  0  0
   21.3179  -19.4524  -14.7559 C   0  0  0  0  0  0  0  0  0  0  0  0
   20.7709  -18.5850  -14.0288 O   0  0  0  0  0  0  0  0  0  0  0  0
   20.9923  -16.4376  -19.7996 C   0  0  0  0  0  0  0  0  0  0  0  0
   21.6668  -16.1142  -18.4559 C   0  0  2  0  0  0  0  0  0  0  0  0
   22.8573  -15.2655  -18.7986 C   0  0  0  0  0  0  0  0  0  0  0  0
   21.9837  -17.4139  -17.8199 C   0  0  0  0  0  0  0  0  0  0  0  0
   21.0956  -17.8380  -16.6976 C   0  0  2  0  0  0  0  0  0  0  0  0
   21.5092  -19.1223  -16.1252 N   0  0  0  0  0  0  0  0  0  0  0  0
   19.6626  -17.7978  -16.9789 C   0  0  0  0  0  0  0  0  0  0  0  0
   18.9393  -16.6649  -16.6853 O   0  0  0  0  0  0  0  0  0  0  0  0
   19.0796  -18.7748  -17.4824 O   0  0  0  0  0  0  0  0  0  0  0  0
  2  1  1  1
  2  3  1  0
  4  2  1  0
  4  5  1  1
  6  7  2  0
  6  4  1  0
  9 11  1  0
  9  8  1  0
 10  9  2  0
 12 11  1  1
 12 14  1  0
 12 13  1  0
 13  6  1  0
 14 21  1  0
 15 14  2  0
 17 16  1  6
 18 17  1  0
 19 17  1  0
 20 19  1  6
 20 22  1  0
 21 20  1  0
 22 24  2  0
 22 23  1  0
M  END
$$$$
