VNL.pdb
     RDKit          3D

 24 23  0  0  1  0  0  0  0  0999 V2000
   17.0746  -12.2327  -18.7025 C   0  0  0  0  0  0  0  0  0  0  0  0
   17.1562  -10.9109  -17.9748 C   0  0  2  0  0  0  0  0  0  0  0  0
   17.6226   -9.8375  -18.9089 C   0  0  0  0  0  0  0  0  0  0  0  0
   18.0659  -11.0203  -16.7639 C   0  0  2  0  0  0  0  0  0  0  0  0
   17.6091  -12.0686  -15.8833 N   0  0  0  0  0  0  0  0  0  0  0  0
   18.0746   -9.7171  -16.0914 C   0  0  0  0  0  0  0  0  0  0  0  0
   17.0068   -9.2516  -15.6172 O   0  0  0  0  0  0  0  0  0  0  0  0
   18.5880   -9.0441  -12.9192 N   0  0  0  0  0  0  0  0  0  0  0  0
   19.7600   -8.2504  -12.9539 C   0  0  0  0  0  0  0  0  0  0  0  0
   20.4481   -8.1522  -11.9098 O   0  0  0  0  0  0  0  0  0  0  0  0
   20.1889   -7.5447  -14.1688 C   0  0  0  0  0  0  0  0  0  0  0  0
   19.1929   -7.6410  -15.2870 C   0  0  2  0  0  0  0  0  0  0  0  0
   19.2494   -8.9140  -15.9326 N   0  0  0  0  0  0  0  0  0  0  0  0
   19.4368   -6.5124  -16.2341 C   0  0  0  0  0  0  0  0  0  0  0  0
   20.4010   -6.5568  -17.0395 O   0  0  0  0  0  0  0  0  0  0  0  0
   17.5100   -4.9387  -19.8300 C   0  0  0  0  0  0  0  0  0  0  0  0
   16.7474   -4.6385  -18.5286 C   0  0  2  0  0  0  0  0  0  0  0  0
   15.4132   -4.1011  -18.9602 C   0  0  0  0  0  0  0  0  0  0  0  0
   17.5864   -3.6923  -17.7573 C   0  0  0  0  0  0  0  0  0  0  0  0
   18.8554   -4.2387  -17.1922 C   0  0  2  0  0  0  0  0  0  0  0  0
   18.6119   -5.3554  -16.2748 N   0  0  0  0  0  0  0  0  0  0  0  0
   19.7688   -3.2501  -16.6243 C   0  0  0  0  0  0  0  0  0  0  0  0
   20.3372   -2.2970  -17.4377 O   0  0  0  0  0  0  0  0  0  0  0  0
   20.0445   -3.2532  -15.4111 O   0  0  0  0  0  0  0  0  0  0  0  0
  2  1  1  6
  2  3  1  0
  4  2  1  0
  4  5  1  1
  6  7  2  0
  6  4  1  0
  9 11  1  0
  9  8  1  0
 10  9  2  0
 12 11  1  1
 12 14  1  0
 12 13  1  0
 13  6  1  0
 14 21  1  0
 15 14  2  0
 17 16  1  6
 18 17  1  0
 19 17  1  0
 20 19  1  1
 20 22  1  0
 21 20  1  0
 22 24  2  0
 22 23  1  0
M  END
$$$$
