VNL.pdb
     RDKit          3D

 24 23  0  0  1  0  0  0  0  0999 V2000
   18.6379  -20.8965  -12.3185 C   0  0  0  0  0  0  0  0  0  0  0  0
   19.9297  -20.5120  -13.0015 C   0  0  2  0  0  0  0  0  0  0  0  0
   19.9524  -21.0492  -14.3990 C   0  0  0  0  0  0  0  0  0  0  0  0
   21.1252  -21.0023  -12.2037 C   0  0  2  0  0  0  0  0  0  0  0  0
   21.0459  -20.5375  -10.8397 N   0  0  0  0  0  0  0  0  0  0  0  0
   22.3377  -20.5155  -12.8695 C   0  0  0  0  0  0  0  0  0  0  0  0
   22.4692  -19.2878  -13.1083 O   0  0  0  0  0  0  0  0  0  0  0  0
   25.9458  -22.5140  -11.3160 N   0  0  0  0  0  0  0  0  0  0  0  0
   26.2187  -21.5076  -12.2739 C   0  0  0  0  0  0  0  0  0  0  0  0
   26.8468  -20.4858  -11.9068 O   0  0  0  0  0  0  0  0  0  0  0  0
   25.7902  -21.6259  -13.6740 C   0  0  0  0  0  0  0  0  0  0  0  0
   24.5459  -20.8433  -13.9760 C   0  0  2  0  0  0  0  0  0  0  0  0
   23.4143  -21.3664  -13.2788 N   0  0  0  0  0  0  0  0  0  0  0  0
   24.3451  -20.8295  -15.4557 C   0  0  0  0  0  0  0  0  0  0  0  0
   23.9039  -21.8481  -16.0458 O   0  0  0  0  0  0  0  0  0  0  0  0
   24.2699  -16.6714  -17.8127 C   0  0  0  0  0  0  0  0  0  0  0  0
   23.4298  -17.5534  -18.7515 C   0  0  2  0  0  0  0  0  0  0  0  0
   22.2045  -16.7460  -19.0709 C   0  0  0  0  0  0  0  0  0  0  0  0
   23.1764  -18.8195  -18.0254 C   0  0  0  0  0  0  0  0  0  0  0  0
   24.3739  -19.6485  -17.6985 C   0  0  2  0  0  0  0  0  0  0  0  0
   24.6349  -19.6917  -16.2570 N   0  0  0  0  0  0  0  0  0  0  0  0
   25.5790  -19.3443  -18.4663 C   0  0  0  0  0  0  0  0  0  0  0  0
   26.7302  -18.9695  -17.8126 O   0  0  0  0  0  0  0  0  0  0  0  0
   25.5846  -19.4182  -19.7082 O   0  0  0  0  0  0  0  0  0  0  0  0
  2  1  1  1
  2  3  1  0
  4  2  1  0
  4  5  1  1
  6  7  2  0
  6  4  1  0
  9 11  1  0
  9  8  1  0
 10  9  2  0
 12 11  1  6
 12 14  1  0
 12 13  1  0
 13  6  1  0
 14 21  1  0
 15 14  2  0
 17 16  1  1
 18 17  1  0
 19 17  1  0
 20 19  1  1
 20 22  1  0
 21 20  1  0
 22 24  2  0
 22 23  1  0
M  END
$$$$
