VNL.pdb
     RDKit          3D

 24 23  0  0  1  0  0  0  0  0999 V2000
   12.5859  -20.4309    0.7750 C   0  0  0  0  0  0  0  0  0  0  0  0
   13.0441  -20.6688    2.1951 C   0  0  2  0  0  0  0  0  0  0  0  0
   12.0653  -20.0716    3.1582 C   0  0  0  0  0  0  0  0  0  0  0  0
   14.4391  -20.1087    2.4098 C   0  0  2  0  0  0  0  0  0  0  0  0
   15.2329  -20.2608    1.2141 N   0  0  0  0  0  0  0  0  0  0  0  0
   15.0358  -20.8173    3.5466 C   0  0  0  0  0  0  0  0  0  0  0  0
   14.4531  -20.8130    4.6611 O   0  0  0  0  0  0  0  0  0  0  0  0
   18.1660  -25.0367    5.8134 N   0  0  0  0  0  0  0  0  0  0  0  0
   18.5691  -23.7338    5.4329 C   0  0  0  0  0  0  0  0  0  0  0  0
   19.4490  -23.1560    6.1150 O   0  0  0  0  0  0  0  0  0  0  0  0
   17.9904  -23.0458    4.2712 C   0  0  0  0  0  0  0  0  0  0  0  0
   16.8367  -22.1557    4.6300 C   0  0  2  0  0  0  0  0  0  0  0  0
   16.2727  -21.5351    3.4736 N   0  0  0  0  0  0  0  0  0  0  0  0
   17.3061  -21.1587    5.6379 C   0  0  0  0  0  0  0  0  0  0  0  0
   17.9657  -20.1519    5.2751 O   0  0  0  0  0  0  0  0  0  0  0  0
   15.5653  -18.0366   10.2999 C   0  0  0  0  0  0  0  0  0  0  0  0
   16.8620  -18.5061    9.6194 C   0  0  2  0  0  0  0  0  0  0  0  0
   17.5212  -17.2578    9.1073 C   0  0  0  0  0  0  0  0  0  0  0  0
   16.4620  -19.4789    8.5762 C   0  0  0  0  0  0  0  0  0  0  0  0
   17.5454  -20.3467    8.0273 C   0  0  2  0  0  0  0  0  0  0  0  0
   17.0388  -21.2913    7.0276 N   0  0  0  0  0  0  0  0  0  0  0  0
   18.3929  -21.0007    9.0214 C   0  0  0  0  0  0  0  0  0  0  0  0
   19.2077  -20.2429    9.8306 O   0  0  0  0  0  0  0  0  0  0  0  0
   18.3919  -22.2379    9.1515 O   0  0  0  0  0  0  0  0  0  0  0  0
  2  1  1  6
  2  3  1  0
  4  2  1  0
  4  5  1  6
  6  7  2  0
  6  4  1  0
  9 11  1  0
  9  8  1  0
 10  9  2  0
 12 11  1  6
 12 14  1  0
 12 13  1  0
 13  6  1  0
 14 21  1  0
 15 14  2  0
 17 16  1  6
 18 17  1  0
 19 17  1  0
 20 19  1  1
 20 22  1  0
 21 20  1  0
 22 24  2  0
 22 23  1  0
M  END
$$$$
