VNL.pdb
     RDKit          3D

 24 23  0  0  1  0  0  0  0  0999 V2000
   13.9057  -12.0106  -17.6695 C   0  0  0  0  0  0  0  0  0  0  0  0
   15.0596  -12.8859  -18.1001 C   0  0  2  0  0  0  0  0  0  0  0  0
   14.6296  -14.3195  -18.1433 C   0  0  0  0  0  0  0  0  0  0  0  0
   16.2507  -12.6959  -17.1775 C   0  0  2  0  0  0  0  0  0  0  0  0
   15.9729  -13.2514  -15.8748 N   0  0  0  0  0  0  0  0  0  0  0  0
   16.5334  -11.2590  -17.1017 C   0  0  0  0  0  0  0  0  0  0  0  0
   16.8174  -10.6220  -18.1482 O   0  0  0  0  0  0  0  0  0  0  0  0
   14.8044   -8.4972  -17.4416 N   0  0  0  0  0  0  0  0  0  0  0  0
   14.9070   -7.9055  -16.1594 C   0  0  0  0  0  0  0  0  0  0  0  0
   14.0303   -7.0797  -15.8088 O   0  0  0  0  0  0  0  0  0  0  0  0
   16.0025   -8.2292  -15.2358 C   0  0  0  0  0  0  0  0  0  0  0  0
   17.0095   -9.1723  -15.8261 C   0  0  2  0  0  0  0  0  0  0  0  0
   16.5077  -10.5085  -15.8824 N   0  0  0  0  0  0  0  0  0  0  0  0
   18.2709   -9.0720  -15.0330 C   0  0  0  0  0  0  0  0  0  0  0  0
   18.2735   -9.3499  -13.8070 O   0  0  0  0  0  0  0  0  0  0  0  0
   23.8764  -10.6950  -15.3175 C   0  0  0  0  0  0  0  0  0  0  0  0
   22.9481   -9.8218  -14.4567 C   0  0  2  0  0  0  0  0  0  0  0  0
   22.9335  -10.4673  -13.1009 C   0  0  0  0  0  0  0  0  0  0  0  0
   21.6397   -9.7870  -15.1503 C   0  0  0  0  0  0  0  0  0  0  0  0
   20.7584   -8.6209  -14.8474 C   0  0  2  0  0  0  0  0  0  0  0  0
   19.5062   -8.6668  -15.6076 N   0  0  0  0  0  0  0  0  0  0  0  0
   21.3997   -7.3105  -14.9234 C   0  0  0  0  0  0  0  0  0  0  0  0
   22.0186   -6.7863  -13.8120 O   0  0  0  0  0  0  0  0  0  0  0  0
   21.3972   -6.6550  -15.9808 O   0  0  0  0  0  0  0  0  0  0  0  0
  2  1  1  1
  2  3  1  0
  4  2  1  0
  4  5  1  1
  6  7  2  0
  6  4  1  0
  9 11  1  0
  9  8  1  0
 10  9  2  0
 12 11  1  1
 12 14  1  0
 12 13  1  0
 13  6  1  0
 14 21  1  0
 15 14  2  0
 17 16  1  6
 18 17  1  0
 19 17  1  0
 20 19  1  6
 20 22  1  0
 21 20  1  0
 22 24  2  0
 22 23  1  0
M  END
$$$$
