VNL.pdb
     RDKit          3D

 24 23  0  0  1  0  0  0  0  0999 V2000
   16.6870  -12.5552  -16.9610 C   0  0  0  0  0  0  0  0  0  0  0  0
   17.6931  -12.0499  -17.9688 C   0  0  2  0  0  0  0  0  0  0  0  0
   18.1442  -13.1717  -18.8521 C   0  0  0  0  0  0  0  0  0  0  0  0
   18.8698  -11.3926  -17.2693 C   0  0  2  0  0  0  0  0  0  0  0  0
   19.2937  -12.1873  -16.1416 N   0  0  0  0  0  0  0  0  0  0  0  0
   18.4511  -10.0496  -16.8553 C   0  0  0  0  0  0  0  0  0  0  0  0
   18.1217   -9.2022  -17.7243 O   0  0  0  0  0  0  0  0  0  0  0  0
   19.2345   -9.1345  -12.7458 N   0  0  0  0  0  0  0  0  0  0  0  0
   17.8773   -8.7323  -12.7192 C   0  0  0  0  0  0  0  0  0  0  0  0
   17.2498   -8.8126  -11.6361 O   0  0  0  0  0  0  0  0  0  0  0  0
   17.1892   -8.2276  -13.9149 C   0  0  0  0  0  0  0  0  0  0  0  0
   18.0408   -8.2805  -15.1494 C   0  0  2  0  0  0  0  0  0  0  0  0
   18.3895   -9.6233  -15.4897 N   0  0  0  0  0  0  0  0  0  0  0  0
   19.2414   -7.4196  -14.9312 C   0  0  0  0  0  0  0  0  0  0  0  0
   20.3791   -7.9383  -14.8011 O   0  0  0  0  0  0  0  0  0  0  0  0
   22.7916   -5.0563  -17.9503 C   0  0  0  0  0  0  0  0  0  0  0  0
   22.2804   -4.6274  -16.5648 C   0  0  2  0  0  0  0  0  0  0  0  0
   23.4427   -4.8149  -15.6325 C   0  0  0  0  0  0  0  0  0  0  0  0
   21.0981   -5.4705  -16.2724 C   0  0  0  0  0  0  0  0  0  0  0  0
   20.3316   -5.1336  -15.0366 C   0  0  2  0  0  0  0  0  0  0  0  0
   19.1642   -6.0020  -14.8606 N   0  0  0  0  0  0  0  0  0  0  0  0
   19.9963   -3.7216  -14.8690 C   0  0  0  0  0  0  0  0  0  0  0  0
   20.7715   -2.9261  -14.0569 O   0  0  0  0  0  0  0  0  0  0  0  0
   19.0169   -3.2210  -15.4503 O   0  0  0  0  0  0  0  0  0  0  0  0
  2  1  1  1
  2  3  1  0
  4  2  1  0
  4  5  1  1
  6  7  2  0
  6  4  1  0
  9 11  1  0
  9  8  1  0
 10  9  2  0
 12 11  1  1
 12 14  1  0
 12 13  1  0
 13  6  1  0
 14 21  1  0
 15 14  2  0
 17 16  1  6
 18 17  1  0
 19 17  1  0
 20 19  1  6
 20 22  1  0
 21 20  1  0
 22 24  2  0
 22 23  1  0
M  END
$$$$
