VNL.pdb
     RDKit          3D

 24 23  0  0  1  0  0  0  0  0999 V2000
   22.1598  -20.2668  -20.4629 C   0  0  0  0  0  0  0  0  0  0  0  0
   22.0290  -21.4633  -19.5494 C   0  0  2  0  0  0  0  0  0  0  0  0
   20.9989  -22.4090  -20.0849 C   0  0  0  0  0  0  0  0  0  0  0  0
   21.6912  -21.0245  -18.1354 C   0  0  2  0  0  0  0  0  0  0  0  0
   21.3413  -19.6245  -18.1121 N   0  0  0  0  0  0  0  0  0  0  0  0
   22.8567  -21.3029  -17.2900 C   0  0  0  0  0  0  0  0  0  0  0  0
   23.2127  -22.4922  -17.0886 O   0  0  0  0  0  0  0  0  0  0  0  0
   27.5225  -21.3020  -14.7950 N   0  0  0  0  0  0  0  0  0  0  0  0
   26.9599  -20.0145  -14.9700 C   0  0  0  0  0  0  0  0  0  0  0  0
   27.3901  -19.0717  -14.2634 O   0  0  0  0  0  0  0  0  0  0  0  0
   25.8952  -19.7545  -15.9481 C   0  0  0  0  0  0  0  0  0  0  0  0
   24.6843  -20.6164  -15.7419 C   0  0  2  0  0  0  0  0  0  0  0  0
   23.6408  -20.2843  -16.6590 N   0  0  0  0  0  0  0  0  0  0  0  0
   24.2515  -20.4886  -14.3183 C   0  0  0  0  0  0  0  0  0  0  0  0
   23.6326  -19.4647  -13.9327 O   0  0  0  0  0  0  0  0  0  0  0  0
   26.2740  -19.7870   -9.1671 C   0  0  0  0  0  0  0  0  0  0  0  0
   25.0582  -20.5674   -9.6940 C   0  0  2  0  0  0  0  0  0  0  0  0
   24.9541  -21.7852   -8.8215 C   0  0  0  0  0  0  0  0  0  0  0  0
   25.3213  -20.8409  -11.1259 C   0  0  0  0  0  0  0  0  0  0  0  0
   24.1656  -21.3357  -11.9307 C   0  0  2  0  0  0  0  0  0  0  0  0
   24.5098  -21.4934  -13.3466 N   0  0  0  0  0  0  0  0  0  0  0  0
   22.9128  -20.6069  -11.7476 C   0  0  0  0  0  0  0  0  0  0  0  0
   21.8479  -21.2212  -11.1299 O   0  0  0  0  0  0  0  0  0  0  0  0
   22.7894  -19.4334  -12.1419 O   0  0  0  0  0  0  0  0  0  0  0  0
  2  1  1  6
  2  3  1  0
  4  2  1  0
  4  5  1  6
  6  7  2  0
  6  4  1  0
  9 11  1  0
  9  8  1  0
 10  9  2  0
 12 11  1  1
 12 14  1  0
 12 13  1  0
 13  6  1  0
 14 21  1  0
 15 14  2  0
 17 16  1  1
 18 17  1  0
 19 17  1  0
 20 19  1  1
 20 22  1  0
 21 20  1  0
 22 24  2  0
 22 23  1  0
M  END
$$$$
