VNL.pdb
     RDKit          3D

 24 23  0  0  1  0  0  0  0  0999 V2000
   13.2567  -11.9668  -12.1391 C   0  0  0  0  0  0  0  0  0  0  0  0
   13.7081  -11.6121  -13.5368 C   0  0  2  0  0  0  0  0  0  0  0  0
   13.7521  -12.8414  -14.3906 C   0  0  0  0  0  0  0  0  0  0  0  0
   15.0571  -10.9157  -13.5045 C   0  0  2  0  0  0  0  0  0  0  0  0
   16.0680  -11.7993  -12.9751 N   0  0  0  0  0  0  0  0  0  0  0  0
   14.9169   -9.7061  -12.6873 C   0  0  0  0  0  0  0  0  0  0  0  0
   14.0562   -8.8417  -12.9934 O   0  0  0  0  0  0  0  0  0  0  0  0
   15.0962   -6.4656   -8.0634 N   0  0  0  0  0  0  0  0  0  0  0  0
   16.2113   -6.9363   -8.7980 C   0  0  0  0  0  0  0  0  0  0  0  0
   17.2346   -6.2138   -8.8622 O   0  0  0  0  0  0  0  0  0  0  0  0
   16.2032   -8.2367   -9.4813 C   0  0  0  0  0  0  0  0  0  0  0  0
   15.6635   -8.1625  -10.8796 C   0  0  2  0  0  0  0  0  0  0  0  0
   15.7157   -9.4328  -11.5308 N   0  0  0  0  0  0  0  0  0  0  0  0
   16.4214   -7.1117  -11.6223 C   0  0  0  0  0  0  0  0  0  0  0  0
   17.5472   -7.3717  -12.1174 O   0  0  0  0  0  0  0  0  0  0  0  0
   16.1702   -2.8918  -15.0667 C   0  0  0  0  0  0  0  0  0  0  0  0
   17.0040   -4.1839  -15.0831 C   0  0  2  0  0  0  0  0  0  0  0  0
   16.9965   -4.6482  -16.5112 C   0  0  0  0  0  0  0  0  0  0  0  0
   16.3661   -5.1093  -14.1182 C   0  0  0  0  0  0  0  0  0  0  0  0
   16.5779   -4.8094  -12.6713 C   0  0  2  0  0  0  0  0  0  0  0  0
   15.9226   -5.7933  -11.8049 N   0  0  0  0  0  0  0  0  0  0  0  0
   16.2862   -3.4373  -12.2633 C   0  0  0  0  0  0  0  0  0  0  0  0
   17.2110   -2.4444  -12.4915 O   0  0  0  0  0  0  0  0  0  0  0  0
   15.2103   -3.1471  -11.7101 O   0  0  0  0  0  0  0  0  0  0  0  0
  2  1  1  1
  2  3  1  0
  4  2  1  0
  4  5  1  1
  6  7  2  0
  6  4  1  0
  9 11  1  0
  9  8  1  0
 10  9  2  0
 12 11  1  1
 12 14  1  0
 12 13  1  0
 13  6  1  0
 14 21  1  0
 15 14  2  0
 17 16  1  6
 18 17  1  0
 19 17  1  0
 20 19  1  6
 20 22  1  0
 21 20  1  0
 22 24  2  0
 22 23  1  0
M  END
$$$$
