VNL.pdb
     RDKit          3D

 24 23  0  0  1  0  0  0  0  0999 V2000
   15.4788  -15.0911  -17.7993 C   0  0  0  0  0  0  0  0  0  0  0  0
   16.3097  -13.8515  -18.0365 C   0  0  2  0  0  0  0  0  0  0  0  0
   17.5736  -14.2093  -18.7553 C   0  0  0  0  0  0  0  0  0  0  0  0
   16.6034  -13.1434  -16.7257 C   0  0  2  0  0  0  0  0  0  0  0  0
   15.3822  -12.9161  -15.9909 N   0  0  0  0  0  0  0  0  0  0  0  0
   17.2854  -11.8839  -17.0405 C   0  0  0  0  0  0  0  0  0  0  0  0
   18.3819  -11.9041  -17.6560 O   0  0  0  0  0  0  0  0  0  0  0  0
   14.7823   -7.2395  -15.5312 N   0  0  0  0  0  0  0  0  0  0  0  0
   16.0067   -7.9439  -15.6274 C   0  0  0  0  0  0  0  0  0  0  0  0
   16.5358   -8.3721  -14.5738 O   0  0  0  0  0  0  0  0  0  0  0  0
   16.6692   -8.1852  -16.9161 C   0  0  0  0  0  0  0  0  0  0  0  0
   17.5382   -9.4086  -16.9103 C   0  0  2  0  0  0  0  0  0  0  0  0
   16.7743  -10.5944  -16.6850 N   0  0  0  0  0  0  0  0  0  0  0  0
   18.6102   -9.2206  -15.8877 C   0  0  0  0  0  0  0  0  0  0  0  0
   18.5534   -9.8295  -14.7894 O   0  0  0  0  0  0  0  0  0  0  0  0
   23.6355  -11.0143  -14.9632 C   0  0  0  0  0  0  0  0  0  0  0  0
   22.9294   -9.7145  -14.5427 C   0  0  2  0  0  0  0  0  0  0  0  0
   22.7154   -9.8353  -13.0613 C   0  0  0  0  0  0  0  0  0  0  0  0
   21.6915   -9.6268  -15.3514 C   0  0  0  0  0  0  0  0  0  0  0  0
   20.9024   -8.3662  -15.2231 C   0  0  2  0  0  0  0  0  0  0  0  0
   19.7252   -8.3640  -16.0962 N   0  0  0  0  0  0  0  0  0  0  0  0
   21.6706   -7.1285  -15.3332 C   0  0  0  0  0  0  0  0  0  0  0  0
   21.7505   -6.4784  -16.5432 O   0  0  0  0  0  0  0  0  0  0  0  0
   22.2578   -6.6476  -14.3475 O   0  0  0  0  0  0  0  0  0  0  0  0
  2  1  1  1
  2  3  1  0
  4  2  1  0
  4  5  1  6
  6  7  2  0
  6  4  1  0
  9 11  1  0
  9  8  1  0
 10  9  2  0
 12 11  1  1
 12 14  1  0
 12 13  1  0
 13  6  1  0
 14 21  1  0
 15 14  2  0
 17 16  1  6
 18 17  1  0
 19 17  1  0
 20 19  1  6
 20 22  1  0
 21 20  1  0
 22 24  2  0
 22 23  1  0
M  END
$$$$
