CKH.pdb
     RDKit          3D

 26 26  0  0  1  0  0  0  0  0999 V2000
   13.0683  -16.8076   13.5128 N   0  0  0  0  0  0  0  0  0  0  0  0
   12.3071  -17.3865   14.5991 C   0  0  1  0  0  0  0  0  0  0  0  0
   12.8651  -18.7485   14.9704 C   0  0  0  0  0  0  0  0  0  0  0  0
   12.0458  -19.3351   16.4750 S   0  0  0  0  0  0  0  0  0  0  0  0
   12.2826  -16.4937   15.7836 C   0  0  0  0  0  0  0  0  0  0  0  0
   13.3461  -15.9610   16.1593 O   0  0  0  0  0  0  0  0  0  0  0  0
   11.1055  -16.2286   16.4948 N   0  0  0  0  0  0  0  0  0  0  0  0
   10.9997  -15.3309   17.6259 C   0  0  1  0  0  0  0  0  0  0  0  0
    9.6928  -14.6372   17.6815 C   0  0  0  0  0  0  0  0  0  0  0  0
    9.5897  -13.6094   18.7592 C   0  0  0  0  0  0  0  0  0  0  0  0
    8.1984  -12.9421   18.7448 C   0  0  0  0  0  0  0  0  0  0  0  0
    8.0554  -11.9861   19.8901 C   0  0  0  0  0  0  0  0  0  0  0  0
    6.7436  -11.3259   19.8017 N   0  0  0  0  0  0  0  0  0  0  0  0
   11.4224  -16.0579   18.8246 C   0  0  0  0  0  0  0  0  0  0  0  0
   11.4051  -17.3233   18.9492 O   0  0  0  0  0  0  0  0  0  0  0  0
   11.8925  -15.3483   19.9541 N   0  0  0  0  0  0  0  0  0  0  0  0
   12.1044  -16.0172   21.2163 C   0  0  1  0  0  0  0  0  0  0  0  0
   11.2574  -17.2696   21.3109 C   0  0  0  0  0  0  0  0  0  0  0  0
    9.8483  -16.9679   21.6222 C   0  0  0  0  0  0  0  0  0  0  0  0
    9.3133  -15.7401   21.9373 C   0  0  0  0  0  0  0  0  0  0  0  0
    7.9782  -15.9156   22.1508 N   0  0  0  0  0  0  0  0  0  0  0  0
    7.6837  -17.2083   21.9762 C   0  0  0  0  0  0  0  0  0  0  0  0
    8.8097  -17.8377   21.6587 N   0  0  0  0  0  0  0  0  0  0  0  0
   13.5297  -16.3383   21.4461 C   0  0  0  0  0  0  0  0  0  0  0  0
   14.1627  -17.3930   20.8246 O   0  0  0  0  0  0  0  0  0  0  0  0
   14.1924  -15.6240   22.2381 O   0  0  0  0  0  0  0  0  0  0  0  0
  2  1  1  6
  2  5  1  0
  3  2  1  0
  4  3  1  0
  5  6  2  0
  7  5  1  0
  7  8  1  0
  8 14  1  0
  8  9  1  1
 10  9  1  0
 11 10  1  0
 12 11  1  0
 13 12  1  0
 14 15  2  0
 16 17  1  0
 16 14  1  0
 17 24  1  0
 17 18  1  6
 19 23  1  0
 19 18  1  0
 20 19  2  0
 21 20  1  0
 21 22  1  0
 22 23  2  0
 24 26  2  0
 24 25  1  0
M  END
$$$$
