CKH.pdb
     RDKit          3D

 26 26  0  0  1  0  0  0  0  0999 V2000
   14.7592  -14.1873   18.0931 N   0  0  0  0  0  0  0  0  0  0  0  0
   13.5114  -14.9190   18.0487 C   0  0  1  0  0  0  0  0  0  0  0  0
   13.7641  -16.3783   17.7161 C   0  0  0  0  0  0  0  0  0  0  0  0
   14.8695  -17.0881   18.9627 S   0  0  0  0  0  0  0  0  0  0  0  0
   12.7631  -14.7980   19.3240 C   0  0  0  0  0  0  0  0  0  0  0  0
   13.3975  -14.5938   20.3784 O   0  0  0  0  0  0  0  0  0  0  0  0
   11.3679  -14.9053   19.3844 N   0  0  0  0  0  0  0  0  0  0  0  0
   10.5809  -14.8637   20.5990 C   0  0  1  0  0  0  0  0  0  0  0  0
    9.1941  -14.4017   20.3629 C   0  0  0  0  0  0  0  0  0  0  0  0
    9.0525  -13.4420   19.2283 C   0  0  0  0  0  0  0  0  0  0  0  0
    7.5734  -13.3071   18.8098 C   0  0  0  0  0  0  0  0  0  0  0  0
    7.4271  -12.3322   17.6809 C   0  0  0  0  0  0  0  0  0  0  0  0
    6.0398  -12.3700   17.1925 N   0  0  0  0  0  0  0  0  0  0  0  0
   10.7509  -16.1406   21.2950 C   0  0  0  0  0  0  0  0  0  0  0  0
   10.7355  -17.2810   20.7325 O   0  0  0  0  0  0  0  0  0  0  0  0
   10.9500  -16.1629   22.6952 N   0  0  0  0  0  0  0  0  0  0  0  0
   11.5027  -17.3261   23.3484 C   0  0  1  0  0  0  0  0  0  0  0  0
   12.8410  -17.6982   22.7442 C   0  0  0  0  0  0  0  0  0  0  0  0
   13.4213  -18.8999   23.3708 C   0  0  0  0  0  0  0  0  0  0  0  0
   12.7431  -19.9079   24.0164 C   0  0  0  0  0  0  0  0  0  0  0  0
   13.6653  -20.8179   24.4412 N   0  0  0  0  0  0  0  0  0  0  0  0
   14.8808  -20.3970   24.0757 C   0  0  0  0  0  0  0  0  0  0  0  0
   14.7306  -19.2443   23.4328 N   0  0  0  0  0  0  0  0  0  0  0  0
   11.6292  -17.1388   24.8100 C   0  0  0  0  0  0  0  0  0  0  0  0
   11.2066  -15.9943   25.4512 O   0  0  0  0  0  0  0  0  0  0  0  0
   12.1415  -18.0564   25.4972 O   0  0  0  0  0  0  0  0  0  0  0  0
  2  1  1  1
  2  5  1  0
  3  2  1  0
  4  3  1  0
  5  6  2  0
  7  5  1  0
  7  8  1  0
  8 14  1  0
  8  9  1  6
 10  9  1  0
 11 10  1  0
 12 11  1  0
 13 12  1  0
 14 15  2  0
 16 17  1  0
 16 14  1  0
 17 24  1  0
 17 18  1  6
 19 23  1  0
 19 18  1  0
 20 19  2  0
 21 20  1  0
 21 22  1  0
 22 23  2  0
 24 26  2  0
 24 25  1  0
M  END
$$$$
