CKH.pdb
     RDKit          3D

 26 26  0  0  1  0  0  0  0  0999 V2000
    7.9102  -14.8533   17.1520 N   0  0  0  0  0  0  0  0  0  0  0  0
    9.1331  -14.2262   17.6054 C   0  0  1  0  0  0  0  0  0  0  0  0
    8.8277  -13.1472   18.6285 C   0  0  0  0  0  0  0  0  0  0  0  0
    7.7071  -11.9306   17.8911 S   0  0  0  0  0  0  0  0  0  0  0  0
   10.0804  -15.2211   18.1655 C   0  0  0  0  0  0  0  0  0  0  0  0
    9.6288  -16.1805   18.8225 O   0  0  0  0  0  0  0  0  0  0  0  0
   11.4652  -15.1197   17.9818 N   0  0  0  0  0  0  0  0  0  0  0  0
   12.4496  -16.0113   18.5582 C   0  0  1  0  0  0  0  0  0  0  0  0
   13.6355  -16.1877   17.6892 C   0  0  0  0  0  0  0  0  0  0  0  0
   14.6252  -17.1830   18.1974 C   0  0  0  0  0  0  0  0  0  0  0  0
   14.4870  -18.5226   17.4443 C   0  0  0  0  0  0  0  0  0  0  0  0
   15.4578  -19.5336   17.9750 C   0  0  0  0  0  0  0  0  0  0  0  0
   15.2695  -20.8025   17.2545 N   0  0  0  0  0  0  0  0  0  0  0  0
   12.6898  -15.5914   19.9402 C   0  0  0  0  0  0  0  0  0  0  0  0
   13.0573  -14.4254   20.2904 O   0  0  0  0  0  0  0  0  0  0  0  0
   12.5145  -16.5110   21.0003 N   0  0  0  0  0  0  0  0  0  0  0  0
   12.7999  -16.1346   22.3649 C   0  0  1  0  0  0  0  0  0  0  0  0
   11.6475  -16.5018   23.2771 C   0  0  0  0  0  0  0  0  0  0  0  0
   10.4494  -15.6821   23.0200 C   0  0  0  0  0  0  0  0  0  0  0  0
   10.3615  -14.5737   22.2098 C   0  0  0  0  0  0  0  0  0  0  0  0
    9.0742  -14.1273   22.2614 N   0  0  0  0  0  0  0  0  0  0  0  0
    8.3770  -14.9269   23.0756 C   0  0  0  0  0  0  0  0  0  0  0  0
    9.2064  -15.8600   23.5296 N   0  0  0  0  0  0  0  0  0  0  0  0
   14.0600  -16.7321   22.8575 C   0  0  0  0  0  0  0  0  0  0  0  0
   14.8118  -17.6065   22.1027 O   0  0  0  0  0  0  0  0  0  0  0  0
   14.4639  -16.4332   24.0082 O   0  0  0  0  0  0  0  0  0  0  0  0
  2  1  1  1
  2  5  1  0
  3  2  1  0
  4  3  1  0
  5  6  2  0
  7  5  1  0
  7  8  1  0
  8 14  1  0
  8  9  1  6
 10  9  1  0
 11 10  1  0
 12 11  1  0
 13 12  1  0
 14 15  2  0
 16 17  1  0
 16 14  1  0
 17 24  1  0
 17 18  1  1
 19 23  1  0
 19 18  1  0
 20 19  2  0
 21 20  1  0
 21 22  1  0
 22 23  2  0
 24 26  2  0
 24 25  1  0
M  END
$$$$
