CKH.pdb
     RDKit          3D

 26 26  0  0  1  0  0  0  0  0999 V2000
   14.9830  -17.2675   12.9237 N   0  0  0  0  0  0  0  0  0  0  0  0
   14.3922  -18.4911   13.4217 C   0  0  1  0  0  0  0  0  0  0  0  0
   15.3763  -19.6409   13.3046 C   0  0  0  0  0  0  0  0  0  0  0  0
   15.3836  -20.2440   11.5971 S   0  0  0  0  0  0  0  0  0  0  0  0
   13.9306  -18.3421   14.8237 C   0  0  0  0  0  0  0  0  0  0  0  0
   14.5899  -17.6246   15.6025 O   0  0  0  0  0  0  0  0  0  0  0  0
   12.7793  -18.9798   15.3028 N   0  0  0  0  0  0  0  0  0  0  0  0
   12.3406  -18.9809   16.6826 C   0  0  1  0  0  0  0  0  0  0  0  0
   10.9032  -19.3079   16.8224 C   0  0  0  0  0  0  0  0  0  0  0  0
    9.9820  -18.2655   16.2809 C   0  0  0  0  0  0  0  0  0  0  0  0
    8.5183  -18.7515   16.3328 C   0  0  0  0  0  0  0  0  0  0  0  0
    7.5877  -17.6905   15.8283 C   0  0  0  0  0  0  0  0  0  0  0  0
    6.2042  -18.1816   15.9255 N   0  0  0  0  0  0  0  0  0  0  0  0
   13.2874  -19.7825   17.4604 C   0  0  0  0  0  0  0  0  0  0  0  0
   13.9585  -20.7602   17.0011 O   0  0  0  0  0  0  0  0  0  0  0  0
   13.5085  -19.4895   18.8263 N   0  0  0  0  0  0  0  0  0  0  0  0
   14.6863  -19.9722   19.5083 C   0  0  1  0  0  0  0  0  0  0  0  0
   15.9412  -19.3800   18.9007 C   0  0  0  0  0  0  0  0  0  0  0  0
   16.7021  -20.3697   18.1165 C   0  0  0  0  0  0  0  0  0  0  0  0
   16.3214  -21.6562   17.8123 C   0  0  0  0  0  0  0  0  0  0  0  0
   17.3199  -22.2167   17.0720 N   0  0  0  0  0  0  0  0  0  0  0  0
   18.2944  -21.3142   16.9161 C   0  0  0  0  0  0  0  0  0  0  0  0
   17.9199  -20.2056   17.5450 N   0  0  0  0  0  0  0  0  0  0  0  0
   14.6394  -19.7042   20.9620 C   0  0  0  0  0  0  0  0  0  0  0  0
   14.7433  -20.7041   21.9050 O   0  0  0  0  0  0  0  0  0  0  0  0
   14.4995  -18.5204   21.3565 O   0  0  0  0  0  0  0  0  0  0  0  0
  2  1  1  1
  2  5  1  0
  3  2  1  0
  4  3  1  0
  5  6  2  0
  7  5  1  0
  7  8  1  0
  8 14  1  0
  8  9  1  6
 10  9  1  0
 11 10  1  0
 12 11  1  0
 13 12  1  0
 14 15  2  0
 16 17  1  0
 16 14  1  0
 17 24  1  0
 17 18  1  6
 19 23  1  0
 19 18  1  0
 20 19  2  0
 21 20  1  0
 21 22  1  0
 22 23  2  0
 24 26  2  0
 24 25  1  0
M  END
$$$$
