CKH.pdb
     RDKit          3D

 26 26  0  0  1  0  0  0  0  0999 V2000
    7.2809  -20.6354   21.4737 N   0  0  0  0  0  0  0  0  0  0  0  0
    6.8197  -19.5242   22.2781 C   0  0  1  0  0  0  0  0  0  0  0  0
    6.9698  -19.8407   23.7551 C   0  0  0  0  0  0  0  0  0  0  0  0
    5.6745  -21.0068   24.2467 S   0  0  0  0  0  0  0  0  0  0  0  0
    7.5375  -18.2710   21.9389 C   0  0  0  0  0  0  0  0  0  0  0  0
    8.7114  -18.3421   21.5230 O   0  0  0  0  0  0  0  0  0  0  0  0
    6.9418  -17.0102   22.0698 N   0  0  0  0  0  0  0  0  0  0  0  0
    7.5889  -15.7485   21.7769 C   0  0  1  0  0  0  0  0  0  0  0  0
    6.6226  -14.6771   21.4443 C   0  0  0  0  0  0  0  0  0  0  0  0
    7.2529  -13.4021   20.9910 C   0  0  0  0  0  0  0  0  0  0  0  0
    7.6131  -13.4748   19.4923 C   0  0  0  0  0  0  0  0  0  0  0  0
    8.1821  -12.1718   19.0185 C   0  0  0  0  0  0  0  0  0  0  0  0
    8.3974  -12.2437   17.5648 N   0  0  0  0  0  0  0  0  0  0  0  0
    8.5520  -15.4725   22.8448 C   0  0  0  0  0  0  0  0  0  0  0  0
    9.4647  -14.5889   22.7877 O   0  0  0  0  0  0  0  0  0  0  0  0
    8.5069  -16.2145   24.0480 N   0  0  0  0  0  0  0  0  0  0  0  0
    9.3812  -15.8936   25.1517 C   0  0  1  0  0  0  0  0  0  0  0  0
    8.5818  -15.6036   26.4053 C   0  0  0  0  0  0  0  0  0  0  0  0
    7.8378  -14.3343   26.3113 C   0  0  0  0  0  0  0  0  0  0  0  0
    7.9090  -13.4045   25.2998 C   0  0  0  0  0  0  0  0  0  0  0  0
    7.0574  -12.3874   25.6151 N   0  0  0  0  0  0  0  0  0  0  0  0
    6.4712  -12.6677   26.7839 C   0  0  0  0  0  0  0  0  0  0  0  0
    6.9424  -13.8383   27.1994 N   0  0  0  0  0  0  0  0  0  0  0  0
   10.3738  -16.9600   25.4064 C   0  0  0  0  0  0  0  0  0  0  0  0
   11.3525  -16.8484   26.3705 O   0  0  0  0  0  0  0  0  0  0  0  0
   10.3262  -18.0099   24.7193 O   0  0  0  0  0  0  0  0  0  0  0  0
  2  1  1  6
  2  5  1  0
  3  2  1  0
  4  3  1  0
  5  6  2  0
  7  5  1  0
  7  8  1  0
  8 14  1  0
  8  9  1  1
 10  9  1  0
 11 10  1  0
 12 11  1  0
 13 12  1  0
 14 15  2  0
 16 17  1  0
 16 14  1  0
 17 24  1  0
 17 18  1  1
 19 23  1  0
 19 18  1  0
 20 19  2  0
 21 20  1  0
 21 22  1  0
 22 23  2  0
 24 26  2  0
 24 25  1  0
M  END
$$$$
