CKH.pdb
     RDKit          3D

 26 26  0  0  1  0  0  0  0  0999 V2000
    8.0285  -15.8337   14.7169 N   0  0  0  0  0  0  0  0  0  0  0  0
    8.8730  -15.3285   15.7781 C   0  0  1  0  0  0  0  0  0  0  0  0
    8.4190  -13.9438   16.2032 C   0  0  0  0  0  0  0  0  0  0  0  0
    9.5133  -13.3364   17.5120 S   0  0  0  0  0  0  0  0  0  0  0  0
    8.8954  -16.2487   16.9415 C   0  0  0  0  0  0  0  0  0  0  0  0
    7.8180  -16.7183   17.3597 O   0  0  0  0  0  0  0  0  0  0  0  0
   10.0854  -16.6084   17.5866 N   0  0  0  0  0  0  0  0  0  0  0  0
   10.1780  -17.4813   18.7380 C   0  0  1  0  0  0  0  0  0  0  0  0
   10.9711  -18.7014   18.4648 C   0  0  0  0  0  0  0  0  0  0  0  0
   10.4666  -19.5170   17.3208 C   0  0  0  0  0  0  0  0  0  0  0  0
   11.3729  -20.7433   17.0841 C   0  0  0  0  0  0  0  0  0  0  0  0
   10.8120  -21.6184   16.0044 C   0  0  0  0  0  0  0  0  0  0  0  0
   11.7893  -22.6708   15.6851 N   0  0  0  0  0  0  0  0  0  0  0  0
   10.5731  -16.6714   19.8921 C   0  0  0  0  0  0  0  0  0  0  0  0
   11.5372  -15.8422   19.9003 O   0  0  0  0  0  0  0  0  0  0  0  0
    9.8636  -16.7815   21.1107 N   0  0  0  0  0  0  0  0  0  0  0  0
   10.2006  -15.9523   22.2439 C   0  0  1  0  0  0  0  0  0  0  0  0
    8.9897  -15.1795   22.7248 C   0  0  0  0  0  0  0  0  0  0  0  0
    8.5439  -14.1737   21.7434 C   0  0  0  0  0  0  0  0  0  0  0  0
    9.1446  -13.8606   20.5460 C   0  0  0  0  0  0  0  0  0  0  0  0
    8.4031  -12.8791   19.9578 N   0  0  0  0  0  0  0  0  0  0  0  0
    7.3722  -12.5853   20.7572 C   0  0  0  0  0  0  0  0  0  0  0  0
    7.4598  -13.3650   21.8292 N   0  0  0  0  0  0  0  0  0  0  0  0
   10.7890  -16.7341   23.3529 C   0  0  0  0  0  0  0  0  0  0  0  0
   11.3221  -16.1419   24.4775 O   0  0  0  0  0  0  0  0  0  0  0  0
   10.8053  -17.9869   23.2702 O   0  0  0  0  0  0  0  0  0  0  0  0
  2  1  1  6
  2  5  1  0
  3  2  1  0
  4  3  1  0
  5  6  2  0
  7  5  1  0
  7  8  1  0
  8 14  1  0
  8  9  1  6
 10  9  1  0
 11 10  1  0
 12 11  1  0
 13 12  1  0
 14 15  2  0
 16 17  1  0
 16 14  1  0
 17 24  1  0
 17 18  1  1
 19 23  1  0
 19 18  1  0
 20 19  2  0
 21 20  1  0
 21 22  1  0
 22 23  2  0
 24 26  2  0
 24 25  1  0
M  END
$$$$
