CKH.pdb
     RDKit          3D

 26 26  0  0  1  0  0  0  0  0999 V2000
   11.5811  -18.8676   17.4088 N   0  0  0  0  0  0  0  0  0  0  0  0
   10.6934  -19.0752   18.5328 C   0  0  1  0  0  0  0  0  0  0  0  0
   10.8980  -20.4595   19.1211 C   0  0  0  0  0  0  0  0  0  0  0  0
    9.8190  -20.6572   20.5620 S   0  0  0  0  0  0  0  0  0  0  0  0
   10.8798  -18.0348   19.5738 C   0  0  0  0  0  0  0  0  0  0  0  0
   12.0344  -17.7779   19.9697 O   0  0  0  0  0  0  0  0  0  0  0  0
    9.8029  -17.3308   20.1274 N   0  0  0  0  0  0  0  0  0  0  0  0
    9.8999  -16.3804   21.2153 C   0  0  1  0  0  0  0  0  0  0  0  0
    8.8200  -15.3678   21.1842 C   0  0  0  0  0  0  0  0  0  0  0  0
    8.8099  -14.5200   19.9556 C   0  0  0  0  0  0  0  0  0  0  0  0
    7.5733  -13.5971   19.9403 C   0  0  0  0  0  0  0  0  0  0  0  0
    7.5129  -12.8102   18.6662 C   0  0  0  0  0  0  0  0  0  0  0  0
    6.2691  -12.0246   18.6471 N   0  0  0  0  0  0  0  0  0  0  0  0
   10.0775  -17.1305   22.4602 C   0  0  0  0  0  0  0  0  0  0  0  0
    9.2601  -17.9952   22.9088 O   0  0  0  0  0  0  0  0  0  0  0  0
   11.2247  -16.9153   23.2590 N   0  0  0  0  0  0  0  0  0  0  0  0
   11.3841  -17.5888   24.5265 C   0  0  1  0  0  0  0  0  0  0  0  0
   12.8236  -18.0125   24.7338 C   0  0  0  0  0  0  0  0  0  0  0  0
   13.2132  -19.1198   23.8419 C   0  0  0  0  0  0  0  0  0  0  0  0
   12.3984  -19.8144   22.9779 C   0  0  0  0  0  0  0  0  0  0  0  0
   13.1665  -20.7500   22.3505 N   0  0  0  0  0  0  0  0  0  0  0  0
   14.4204  -20.6475   22.8039 C   0  0  0  0  0  0  0  0  0  0  0  0
   14.4449  -19.6670   23.6999 N   0  0  0  0  0  0  0  0  0  0  0  0
   10.9200  -16.7613   25.6611 C   0  0  0  0  0  0  0  0  0  0  0  0
   10.4179  -15.4886   25.4953 O   0  0  0  0  0  0  0  0  0  0  0  0
   10.9846  -17.2336   26.8227 O   0  0  0  0  0  0  0  0  0  0  0  0
  2  1  1  6
  2  5  1  0
  3  2  1  0
  4  3  1  0
  5  6  2  0
  7  5  1  0
  7  8  1  0
  8 14  1  0
  8  9  1  1
 10  9  1  0
 11 10  1  0
 12 11  1  0
 13 12  1  0
 14 15  2  0
 16 17  1  0
 16 14  1  0
 17 24  1  0
 17 18  1  1
 19 23  1  0
 19 18  1  0
 20 19  2  0
 21 20  1  0
 21 22  1  0
 22 23  2  0
 24 26  2  0
 24 25  1  0
M  END
$$$$
