CKH.pdb
     RDKit          3D

 26 26  0  0  1  0  0  0  0  0999 V2000
    6.3102  -13.1322   17.3045 N   0  0  0  0  0  0  0  0  0  0  0  0
    7.6113  -13.7640   17.2555 C   0  0  1  0  0  0  0  0  0  0  0  0
    8.7071  -12.7394   17.4873 C   0  0  0  0  0  0  0  0  0  0  0  0
   10.3176  -13.5629   17.3991 S   0  0  0  0  0  0  0  0  0  0  0  0
    7.7172  -14.8704   18.2381 C   0  0  0  0  0  0  0  0  0  0  0  0
    7.3406  -14.6734   19.4108 O   0  0  0  0  0  0  0  0  0  0  0  0
    8.2258  -16.1291   17.8936 N   0  0  0  0  0  0  0  0  0  0  0  0
    8.4327  -17.2252   18.8167 C   0  0  1  0  0  0  0  0  0  0  0  0
    8.0666  -18.5364   18.2343 C   0  0  0  0  0  0  0  0  0  0  0  0
    6.6313  -18.6532   17.8411 C   0  0  0  0  0  0  0  0  0  0  0  0
    6.3729  -19.9880   17.1112 C   0  0  0  0  0  0  0  0  0  0  0  0
    4.9274  -20.1184   16.7375 C   0  0  0  0  0  0  0  0  0  0  0  0
    4.7337  -21.3809   16.0073 N   0  0  0  0  0  0  0  0  0  0  0  0
    9.7774  -17.0965   19.3816 C   0  0  0  0  0  0  0  0  0  0  0  0
   10.6480  -16.2532   18.9968 O   0  0  0  0  0  0  0  0  0  0  0  0
   10.1879  -17.9478   20.4338 N   0  0  0  0  0  0  0  0  0  0  0  0
   10.4091  -17.4311   21.7640 C   0  0  1  0  0  0  0  0  0  0  0  0
    9.1522  -16.7816   22.3054 C   0  0  0  0  0  0  0  0  0  0  0  0
    9.3476  -16.2305   23.6588 C   0  0  0  0  0  0  0  0  0  0  0  0
   10.4966  -16.2749   24.4141 C   0  0  0  0  0  0  0  0  0  0  0  0
   10.2363  -15.6476   25.5964 N   0  0  0  0  0  0  0  0  0  0  0  0
    8.9681  -15.2235   25.5850 C   0  0  0  0  0  0  0  0  0  0  0  0
    8.4370  -15.5754   24.4193 N   0  0  0  0  0  0  0  0  0  0  0  0
   10.8948  -18.4730   22.6945 C   0  0  0  0  0  0  0  0  0  0  0  0
   11.0969  -19.7798   22.3058 O   0  0  0  0  0  0  0  0  0  0  0  0
   11.1337  -18.1584   23.8864 O   0  0  0  0  0  0  0  0  0  0  0  0
  2  1  1  1
  2  5  1  0
  3  2  1  0
  4  3  1  0
  5  6  2  0
  7  5  1  0
  7  8  1  0
  8 14  1  0
  8  9  1  6
 10  9  1  0
 11 10  1  0
 12 11  1  0
 13 12  1  0
 14 15  2  0
 16 17  1  0
 16 14  1  0
 17 24  1  0
 17 18  1  1
 19 23  1  0
 19 18  1  0
 20 19  2  0
 21 20  1  0
 21 22  1  0
 22 23  2  0
 24 26  2  0
 24 25  1  0
M  END
$$$$
