CKH.pdb
     RDKit          3D

 26 26  0  0  1  0  0  0  0  0999 V2000
    6.9722  -13.6918   19.2221 N   0  0  0  0  0  0  0  0  0  0  0  0
    8.3101  -14.2089   19.4147 C   0  0  1  0  0  0  0  0  0  0  0  0
    9.2746  -13.0798   19.7295 C   0  0  0  0  0  0  0  0  0  0  0  0
    8.7218  -12.2280   21.2290 S   0  0  0  0  0  0  0  0  0  0  0  0
    8.3480  -15.2383   20.4823 C   0  0  0  0  0  0  0  0  0  0  0  0
    7.3955  -15.3104   21.2845 O   0  0  0  0  0  0  0  0  0  0  0  0
    9.4172  -16.1324   20.6201 N   0  0  0  0  0  0  0  0  0  0  0  0
    9.5636  -17.0977   21.6892 C   0  0  1  0  0  0  0  0  0  0  0  0
    9.9649  -18.4354   21.1972 C   0  0  0  0  0  0  0  0  0  0  0  0
    9.9300  -19.5066   22.2362 C   0  0  0  0  0  0  0  0  0  0  0  0
   10.3468  -20.8645   21.6333 C   0  0  0  0  0  0  0  0  0  0  0  0
   10.2433  -21.9547   22.6565 C   0  0  0  0  0  0  0  0  0  0  0  0
    9.0407  -22.7565   22.3819 N   0  0  0  0  0  0  0  0  0  0  0  0
   10.3904  -16.4947   22.7365 C   0  0  0  0  0  0  0  0  0  0  0  0
   11.0495  -15.4148   22.6083 O   0  0  0  0  0  0  0  0  0  0  0  0
   10.4975  -17.1187   24.0012 N   0  0  0  0  0  0  0  0  0  0  0  0
   10.5945  -16.3351   25.2103 C   0  0  1  0  0  0  0  0  0  0  0  0
    9.4913  -15.2987   25.2703 C   0  0  0  0  0  0  0  0  0  0  0  0
    9.5252  -14.5196   26.5214 C   0  0  0  0  0  0  0  0  0  0  0  0
   10.4300  -14.6425   27.5504 C   0  0  0  0  0  0  0  0  0  0  0  0
   10.0925  -13.7307   28.5063 N   0  0  0  0  0  0  0  0  0  0  0  0
    9.0132  -13.0579   28.0930 C   0  0  0  0  0  0  0  0  0  0  0  0
    8.6750  -13.5345   26.9000 N   0  0  0  0  0  0  0  0  0  0  0  0
   10.5787  -17.1782   26.4253 C   0  0  0  0  0  0  0  0  0  0  0  0
    9.5064  -17.9761   26.7614 O   0  0  0  0  0  0  0  0  0  0  0  0
   11.5799  -17.1692   27.1830 O   0  0  0  0  0  0  0  0  0  0  0  0
  2  1  1  1
  2  5  1  0
  3  2  1  0
  4  3  1  0
  5  6  2  0
  7  5  1  0
  7  8  1  0
  8 14  1  0
  8  9  1  6
 10  9  1  0
 11 10  1  0
 12 11  1  0
 13 12  1  0
 14 15  2  0
 16 17  1  0
 16 14  1  0
 17 24  1  0
 17 18  1  1
 19 23  1  0
 19 18  1  0
 20 19  2  0
 21 20  1  0
 21 22  1  0
 22 23  2  0
 24 26  2  0
 24 25  1  0
M  END
$$$$
