CKH.pdb
     RDKit          3D

 26 26  0  0  1  0  0  0  0  0999 V2000
    7.5956  -14.5918   17.8522 N   0  0  0  0  0  0  0  0  0  0  0  0
    8.4832  -14.3383   18.9668 C   0  0  1  0  0  0  0  0  0  0  0  0
    8.1566  -13.0035   19.6115 C   0  0  0  0  0  0  0  0  0  0  0  0
    8.7087  -11.6671   18.5213 S   0  0  0  0  0  0  0  0  0  0  0  0
    8.4232  -15.4294   19.9702 C   0  0  0  0  0  0  0  0  0  0  0  0
    7.3142  -15.9212   20.2606 O   0  0  0  0  0  0  0  0  0  0  0  0
    9.5697  -15.9262   20.6028 N   0  0  0  0  0  0  0  0  0  0  0  0
    9.5975  -17.0518   21.5131 C   0  0  1  0  0  0  0  0  0  0  0  0
   10.4554  -18.1562   21.0264 C   0  0  0  0  0  0  0  0  0  0  0  0
   10.4933  -19.3457   21.9275 C   0  0  0  0  0  0  0  0  0  0  0  0
   11.3757  -20.4586   21.3242 C   0  0  0  0  0  0  0  0  0  0  0  0
   11.3241  -21.6950   22.1697 C   0  0  0  0  0  0  0  0  0  0  0  0
   12.2934  -22.6718   21.6492 N   0  0  0  0  0  0  0  0  0  0  0  0
    9.8639  -16.5416   22.8594 C   0  0  0  0  0  0  0  0  0  0  0  0
   10.8535  -15.8075   23.1741 O   0  0  0  0  0  0  0  0  0  0  0  0
    8.9876  -16.8590   23.9232 N   0  0  0  0  0  0  0  0  0  0  0  0
    9.3175  -16.5128   25.2858 C   0  0  1  0  0  0  0  0  0  0  0  0
    8.0766  -16.1065   26.0538 C   0  0  0  0  0  0  0  0  0  0  0  0
    7.6160  -14.7530   25.6941 C   0  0  0  0  0  0  0  0  0  0  0  0
    8.2329  -13.8666   24.8417 C   0  0  0  0  0  0  0  0  0  0  0  0
    7.4685  -12.7385   24.7974 N   0  0  0  0  0  0  0  0  0  0  0  0
    6.4080  -12.9093   25.5941 C   0  0  0  0  0  0  0  0  0  0  0  0
    6.4999  -14.1209   26.1312 N   0  0  0  0  0  0  0  0  0  0  0  0
   10.0232  -17.6082   25.9855 C   0  0  0  0  0  0  0  0  0  0  0  0
   10.5542  -17.4616   27.2488 O   0  0  0  0  0  0  0  0  0  0  0  0
   10.1453  -18.7169   25.4089 O   0  0  0  0  0  0  0  0  0  0  0  0
  2  1  1  6
  2  5  1  0
  3  2  1  0
  4  3  1  0
  5  6  2  0
  7  5  1  0
  7  8  1  0
  8 14  1  0
  8  9  1  6
 10  9  1  0
 11 10  1  0
 12 11  1  0
 13 12  1  0
 14 15  2  0
 16 17  1  0
 16 14  1  0
 17 24  1  0
 17 18  1  1
 19 23  1  0
 19 18  1  0
 20 19  2  0
 21 20  1  0
 21 22  1  0
 22 23  2  0
 24 26  2  0
 24 25  1  0
M  END
$$$$
