CKH.pdb
     RDKit          3D

 26 26  0  0  1  0  0  0  0  0999 V2000
   15.9691  -13.0181   17.8033 N   0  0  0  0  0  0  0  0  0  0  0  0
   15.0423  -14.1121   17.6068 C   0  0  1  0  0  0  0  0  0  0  0  0
   15.7949  -15.4029   17.3390 C   0  0  0  0  0  0  0  0  0  0  0  0
   16.5005  -15.3435   15.6723 S   0  0  0  0  0  0  0  0  0  0  0  0
   14.1331  -14.2713   18.7682 C   0  0  0  0  0  0  0  0  0  0  0  0
   14.5726  -14.0452   19.9135 O   0  0  0  0  0  0  0  0  0  0  0  0
   12.7975  -14.6670   18.6225 N   0  0  0  0  0  0  0  0  0  0  0  0
   11.8946  -14.9703   19.7130 C   0  0  1  0  0  0  0  0  0  0  0  0
   10.4784  -15.0153   19.2834 C   0  0  0  0  0  0  0  0  0  0  0  0
    9.5275  -15.4464   20.3504 C   0  0  0  0  0  0  0  0  0  0  0  0
    8.0744  -15.4109   19.8325 C   0  0  0  0  0  0  0  0  0  0  0  0
    7.1183  -15.8471   20.9010 C   0  0  0  0  0  0  0  0  0  0  0  0
    5.7488  -15.8030   20.3652 N   0  0  0  0  0  0  0  0  0  0  0  0
   12.4156  -16.1402   20.4228 C   0  0  0  0  0  0  0  0  0  0  0  0
   12.7422  -17.2379   19.8700 O   0  0  0  0  0  0  0  0  0  0  0  0
   12.5873  -16.0986   21.8261 N   0  0  0  0  0  0  0  0  0  0  0  0
   12.9936  -17.2741   22.5599 C   0  0  1  0  0  0  0  0  0  0  0  0
   14.3500  -17.0662   23.2016 C   0  0  0  0  0  0  0  0  0  0  0  0
   14.8222  -18.2695   23.9104 C   0  0  0  0  0  0  0  0  0  0  0  0
   14.5365  -19.5794   23.6014 C   0  0  0  0  0  0  0  0  0  0  0  0
   15.1766  -20.3661   24.5127 N   0  0  0  0  0  0  0  0  0  0  0  0
   15.8415  -19.5788   25.3649 C   0  0  0  0  0  0  0  0  0  0  0  0
   15.6264  -18.3196   25.0001 N   0  0  0  0  0  0  0  0  0  0  0  0
   11.9957  -17.6706   23.5769 C   0  0  0  0  0  0  0  0  0  0  0  0
   10.8460  -16.9472   23.8104 O   0  0  0  0  0  0  0  0  0  0  0  0
   12.2006  -18.7064   24.2564 O   0  0  0  0  0  0  0  0  0  0  0  0
  2  1  1  1
  2  5  1  0
  3  2  1  0
  4  3  1  0
  5  6  2  0
  7  5  1  0
  7  8  1  0
  8 14  1  0
  8  9  1  6
 10  9  1  0
 11 10  1  0
 12 11  1  0
 13 12  1  0
 14 15  2  0
 16 17  1  0
 16 14  1  0
 17 24  1  0
 17 18  1  1
 19 23  1  0
 19 18  1  0
 20 19  2  0
 21 20  1  0
 21 22  1  0
 22 23  2  0
 24 26  2  0
 24 25  1  0
M  END
$$$$
