CKH.pdb
     RDKit          3D

 26 26  0  0  1  0  0  0  0  0999 V2000
    3.8337  -20.6184   21.4028 N   0  0  0  0  0  0  0  0  0  0  0  0
    4.3527  -19.2760   21.2514 C   0  0  1  0  0  0  0  0  0  0  0  0
    4.3989  -18.5708   22.5948 C   0  0  0  0  0  0  0  0  0  0  0  0
    2.7089  -18.1961   23.1266 S   0  0  0  0  0  0  0  0  0  0  0  0
    5.6945  -19.2787   20.6187 C   0  0  0  0  0  0  0  0  0  0  0  0
    6.3986  -20.3049   20.7025 O   0  0  0  0  0  0  0  0  0  0  0  0
    6.1979  -18.1677   19.9302 N   0  0  0  0  0  0  0  0  0  0  0  0
    7.5039  -18.0938   19.3094 C   0  0  1  0  0  0  0  0  0  0  0  0
    7.4442  -17.5967   17.9160 C   0  0  0  0  0  0  0  0  0  0  0  0
    8.7691  -17.5303   17.2315 C   0  0  0  0  0  0  0  0  0  0  0  0
    8.6104  -17.0163   15.7853 C   0  0  0  0  0  0  0  0  0  0  0  0
    9.9249  -17.0391   15.0657 C   0  0  0  0  0  0  0  0  0  0  0  0
    9.7176  -16.6026   13.6760 N   0  0  0  0  0  0  0  0  0  0  0  0
    8.4062  -17.3985   20.2294 C   0  0  0  0  0  0  0  0  0  0  0  0
    9.6497  -17.2220   20.0307 O   0  0  0  0  0  0  0  0  0  0  0  0
    7.9087  -16.8654   21.4413 N   0  0  0  0  0  0  0  0  0  0  0  0
    8.7741  -16.1478   22.3477 C   0  0  1  0  0  0  0  0  0  0  0  0
    8.2319  -14.7609   22.6254 C   0  0  0  0  0  0  0  0  0  0  0  0
    8.0821  -13.9637   21.3944 C   0  0  0  0  0  0  0  0  0  0  0  0
    9.0845  -13.5474   20.5490 C   0  0  0  0  0  0  0  0  0  0  0  0
    8.5036  -12.8390   19.5392 N   0  0  0  0  0  0  0  0  0  0  0  0
    7.1821  -12.8108   19.7422 C   0  0  0  0  0  0  0  0  0  0  0  0
    6.9323  -13.4875   20.8578 N   0  0  0  0  0  0  0  0  0  0  0  0
    8.9894  -16.8819   23.6135 C   0  0  0  0  0  0  0  0  0  0  0  0
    9.7637  -16.3829   24.6387 O   0  0  0  0  0  0  0  0  0  0  0  0
    8.4469  -18.0043   23.7637 O   0  0  0  0  0  0  0  0  0  0  0  0
  2  1  1  1
  2  5  1  0
  3  2  1  0
  4  3  1  0
  5  6  2  0
  7  5  1  0
  7  8  1  0
  8 14  1  0
  8  9  1  6
 10  9  1  0
 11 10  1  0
 12 11  1  0
 13 12  1  0
 14 15  2  0
 16 17  1  0
 16 14  1  0
 17 24  1  0
 17 18  1  1
 19 23  1  0
 19 18  1  0
 20 19  2  0
 21 20  1  0
 21 22  1  0
 22 23  2  0
 24 26  2  0
 24 25  1  0
M  END
$$$$
