CPQ.pdb
     RDKit          3D

 23 23  0  0  1  0  0  0  0  0999 V2000
   17.5724  -12.2706  -15.4891 N   0  0  0  0  0  0  0  0  0  0  0  0
   18.6073  -11.7678  -16.4044 C   0  0  1  0  0  0  0  0  0  0  0  0
   17.8158  -11.0631  -17.4994 C   0  0  0  0  0  0  0  0  0  0  0  0
   17.2271  -12.1875  -18.7680 S   0  0  0  0  0  0  0  0  0  0  0  0
   19.4129  -10.8202  -15.6210 C   0  0  0  0  0  0  0  0  0  0  0  0
   18.8605   -9.9866  -14.8627 O   0  0  0  0  0  0  0  0  0  0  0  0
   20.8231  -10.8290  -15.7050 N   0  0  0  0  0  0  0  0  0  0  0  0
   21.5967  -11.8367  -16.4040 C   0  0  0  0  0  0  0  0  0  0  0  0
   22.7298  -10.9874  -16.9804 C   0  0  0  0  0  0  0  0  0  0  0  0
   23.0812  -10.1887  -15.7183 C   0  0  0  0  0  0  0  0  0  0  0  0
   21.7460   -9.8874  -15.0722 C   0  0  1  0  0  0  0  0  0  0  0  0
   21.3169   -8.4949  -15.4588 C   0  0  0  0  0  0  0  0  0  0  0  0
   20.5496   -8.2500  -16.4142 O   0  0  0  0  0  0  0  0  0  0  0  0
   17.3537   -5.4670  -16.2668 N   0  0  0  0  0  0  0  0  0  0  0  0
   17.9829   -4.4168  -15.5612 C   0  0  0  0  0  0  0  0  0  0  0  0
   17.4344   -3.2931  -15.6013 O   0  0  0  0  0  0  0  0  0  0  0  0
   19.2236   -4.5788  -14.8007 C   0  0  0  0  0  0  0  0  0  0  0  0
   19.7872   -5.9425  -14.7215 C   0  0  0  0  0  0  0  0  0  0  0  0
   21.2545   -6.0127  -14.9326 C   0  0  2  0  0  0  0  0  0  0  0  0
   21.7762   -7.3584  -14.7381 N   0  0  0  0  0  0  0  0  0  0  0  0
   22.0441   -5.0274  -14.1570 C   0  0  0  0  0  0  0  0  0  0  0  0
   22.5787   -5.3931  -13.0896 O   0  0  0  0  0  0  0  0  0  0  0  0
   22.2056   -3.7298  -14.5759 O   0  0  0  0  0  0  0  0  0  0  0  0
  2  1  1  1
  2  5  1  0
  2  3  1  0
  3  4  1  0
  5  6  2  0
  7  5  1  0
  7 11  1  0
  8  7  1  0
  9  8  1  0
  9 10  1  0
 10 11  1  0
 11 12  1  6
 12 13  2  0
 12 20  1  0
 15 14  1  0
 15 16  2  0
 17 18  1  0
 17 15  1  0
 19 18  1  1
 20 19  1  0
 21 19  1  0
 21 23  1  0
 22 21  2  0
M  END
$$$$
