CPQ.pdb
     RDKit          3D

 23 23  0  0  1  0  0  0  0  0999 V2000
   26.0956  -12.6420  -17.9809 N   0  0  0  0  0  0  0  0  0  0  0  0
   24.7263  -12.9271  -17.5278 C   0  0  1  0  0  0  0  0  0  0  0  0
   24.8772  -13.1543  -16.0285 C   0  0  0  0  0  0  0  0  0  0  0  0
   25.8864  -14.5860  -15.6382 S   0  0  0  0  0  0  0  0  0  0  0  0
   23.9450  -11.7162  -17.8177 C   0  0  0  0  0  0  0  0  0  0  0  0
   24.3506  -10.5893  -17.4426 O   0  0  0  0  0  0  0  0  0  0  0  0
   22.7242  -11.7961  -18.5240 N   0  0  0  0  0  0  0  0  0  0  0  0
   22.2539  -12.9794  -19.2177 C   0  0  0  0  0  0  0  0  0  0  0  0
   20.7510  -12.8975  -18.9493 C   0  0  0  0  0  0  0  0  0  0  0  0
   20.5384  -11.4168  -19.2909 C   0  0  0  0  0  0  0  0  0  0  0  0
   21.7599  -10.7169  -18.7351 C   0  0  1  0  0  0  0  0  0  0  0  0
   21.4209  -10.1347  -17.3864 C   0  0  0  0  0  0  0  0  0  0  0  0
   21.3948  -10.8056  -16.3325 O   0  0  0  0  0  0  0  0  0  0  0  0
   23.4937   -4.8479  -14.7760 N   0  0  0  0  0  0  0  0  0  0  0  0
   22.4088   -5.2728  -13.9764 C   0  0  0  0  0  0  0  0  0  0  0  0
   22.2333   -4.6780  -12.8898 O   0  0  0  0  0  0  0  0  0  0  0  0
   21.4988   -6.3564  -14.3523 C   0  0  0  0  0  0  0  0  0  0  0  0
   21.7616   -7.0359  -15.6379 C   0  0  0  0  0  0  0  0  0  0  0  0
   20.8078   -8.1259  -15.9615 C   0  0  2  0  0  0  0  0  0  0  0  0
   21.1035   -8.7563  -17.2406 N   0  0  0  0  0  0  0  0  0  0  0  0
   19.3774   -7.7468  -15.8825 C   0  0  0  0  0  0  0  0  0  0  0  0
   18.7898   -7.3991  -16.9278 O   0  0  0  0  0  0  0  0  0  0  0  0
   18.6815   -7.7675  -14.6990 O   0  0  0  0  0  0  0  0  0  0  0  0
  2  1  1  6
  2  5  1  0
  2  3  1  0
  3  4  1  0
  5  6  2  0
  7  5  1  0
  7 11  1  0
  8  7  1  0
  9  8  1  0
  9 10  1  0
 10 11  1  0
 11 12  1  1
 12 13  2  0
 12 20  1  0
 15 14  1  0
 15 16  2  0
 17 18  1  0
 17 15  1  0
 19 18  1  6
 20 19  1  0
 21 19  1  0
 21 23  1  0
 22 21  2  0
M  END
$$$$
