CPQ.pdb
     RDKit          3D

 23 23  0  0  1  0  0  0  0  0999 V2000
   18.1786  -10.7241  -14.3286 N   0  0  0  0  0  0  0  0  0  0  0  0
   18.7158   -9.3770  -14.5705 C   0  0  1  0  0  0  0  0  0  0  0  0
   17.7025   -8.7438  -15.5162 C   0  0  0  0  0  0  0  0  0  0  0  0
   17.8287   -9.3686  -17.1937 S   0  0  0  0  0  0  0  0  0  0  0  0
   18.7300   -8.7074  -13.2620 C   0  0  0  0  0  0  0  0  0  0  0  0
   17.8176   -8.9185  -12.4265 O   0  0  0  0  0  0  0  0  0  0  0  0
   19.7697   -7.8148  -12.9186 N   0  0  0  0  0  0  0  0  0  0  0  0
   20.9855   -7.6366  -13.6885 C   0  0  0  0  0  0  0  0  0  0  0  0
   21.2177   -6.1345  -13.5246 C   0  0  0  0  0  0  0  0  0  0  0  0
   20.9985   -6.0335  -12.0093 C   0  0  0  0  0  0  0  0  0  0  0  0
   19.8439   -6.9705  -11.7267 C   0  0  1  0  0  0  0  0  0  0  0  0
   18.5688   -6.1697  -11.6520 C   0  0  0  0  0  0  0  0  0  0  0  0
   17.8715   -5.8886  -12.6502 O   0  0  0  0  0  0  0  0  0  0  0  0
   14.5028   -9.0142   -8.6405 N   0  0  0  0  0  0  0  0  0  0  0  0
   13.9647   -7.7098   -8.5647 C   0  0  0  0  0  0  0  0  0  0  0  0
   12.8157   -7.5933   -8.0837 O   0  0  0  0  0  0  0  0  0  0  0  0
   14.6750   -6.5112   -9.0151 C   0  0  0  0  0  0  0  0  0  0  0  0
   16.0781   -6.6860   -9.4443 C   0  0  0  0  0  0  0  0  0  0  0  0
   16.6682   -5.4980  -10.1098 C   0  0  2  0  0  0  0  0  0  0  0  0
   18.0819   -5.6787  -10.4095 N   0  0  0  0  0  0  0  0  0  0  0  0
   16.4416   -4.2129   -9.4075 C   0  0  0  0  0  0  0  0  0  0  0  0
   15.3357   -3.6470   -9.5330 O   0  0  0  0  0  0  0  0  0  0  0  0
   17.4071   -3.6288   -8.6253 O   0  0  0  0  0  0  0  0  0  0  0  0
  2  1  1  1
  2  5  1  0
  2  3  1  0
  3  4  1  0
  5  6  2  0
  7  5  1  0
  7 11  1  0
  8  7  1  0
  9  8  1  0
  9 10  1  0
 10 11  1  0
 11 12  1  6
 12 13  2  0
 12 20  1  0
 15 14  1  0
 15 16  2  0
 17 18  1  0
 17 15  1  0
 19 18  1  1
 20 19  1  0
 21 19  1  0
 21 23  1  0
 22 21  2  0
M  END
$$$$
