CPQ.pdb
     RDKit          3D

 23 23  0  0  1  0  0  0  0  0999 V2000
   31.6678  -32.1466  -16.0467 N   0  0  0  0  0  0  0  0  0  0  0  0
   30.7943  -32.2130  -17.2275 C   0  0  1  0  0  0  0  0  0  0  0  0
   30.9812  -33.6355  -17.7409 C   0  0  0  0  0  0  0  0  0  0  0  0
   32.4279  -33.8147  -18.7877 S   0  0  0  0  0  0  0  0  0  0  0  0
   29.4285  -31.9893  -16.7321 C   0  0  0  0  0  0  0  0  0  0  0  0
   29.0513  -32.4968  -15.6480 O   0  0  0  0  0  0  0  0  0  0  0  0
   28.5147  -31.1994  -17.4646 N   0  0  0  0  0  0  0  0  0  0  0  0
   28.8346  -30.5051  -18.6967 C   0  0  0  0  0  0  0  0  0  0  0  0
   27.5247  -30.6623  -19.4693 C   0  0  0  0  0  0  0  0  0  0  0  0
   26.5512  -30.2674  -18.3510 C   0  0  0  0  0  0  0  0  0  0  0  0
   27.1323  -30.8910  -17.1002 C   0  0  1  0  0  0  0  0  0  0  0  0
   26.4275  -32.1959  -16.8294 C   0  0  0  0  0  0  0  0  0  0  0  0
   26.9239  -33.3138  -17.0853 O   0  0  0  0  0  0  0  0  0  0  0  0
   27.2949  -35.5427  -13.6177 N   0  0  0  0  0  0  0  0  0  0  0  0
   26.1256  -35.3395  -12.8506 C   0  0  0  0  0  0  0  0  0  0  0  0
   25.8748  -36.1801  -11.9586 O   0  0  0  0  0  0  0  0  0  0  0  0
   25.2108  -34.2134  -13.0479 C   0  0  0  0  0  0  0  0  0  0  0  0
   25.5859  -33.2177  -14.0734 C   0  0  0  0  0  0  0  0  0  0  0  0
   24.7006  -33.2010  -15.2644 C   0  0  2  0  0  0  0  0  0  0  0  0
   25.1269  -32.2226  -16.2552 N   0  0  0  0  0  0  0  0  0  0  0  0
   23.2569  -33.0500  -14.9664 C   0  0  0  0  0  0  0  0  0  0  0  0
   22.6793  -31.9983  -15.3117 O   0  0  0  0  0  0  0  0  0  0  0  0
   22.5380  -34.0286  -14.3253 O   0  0  0  0  0  0  0  0  0  0  0  0
  2  1  1  1
  2  5  1  0
  2  3  1  0
  3  4  1  0
  5  6  2  0
  7  5  1  0
  7 11  1  0
  8  7  1  0
  9  8  1  0
  9 10  1  0
 10 11  1  0
 11 12  1  6
 12 13  2  0
 12 20  1  0
 15 14  1  0
 15 16  2  0
 17 18  1  0
 17 15  1  0
 19 18  1  1
 20 19  1  0
 21 19  1  0
 21 23  1  0
 22 21  2  0
M  END
$$$$
