CPQ.pdb
     RDKit          3D

 23 23  0  0  1  0  0  0  0  0999 V2000
   26.1837  -21.1974  -11.7990 N   0  0  0  0  0  0  0  0  0  0  0  0
   26.6552  -20.5483  -13.0311 C   0  0  1  0  0  0  0  0  0  0  0  0
   26.7402  -21.6903  -14.0364 C   0  0  0  0  0  0  0  0  0  0  0  0
   28.4280  -22.1989  -14.3730 S   0  0  0  0  0  0  0  0  0  0  0  0
   25.6149  -19.5771  -13.3989 C   0  0  0  0  0  0  0  0  0  0  0  0
   24.4075  -19.8076  -13.1454 O   0  0  0  0  0  0  0  0  0  0  0  0
   25.9525  -18.3663  -14.0435 N   0  0  0  0  0  0  0  0  0  0  0  0
   27.2918  -17.8136  -14.1013 C   0  0  0  0  0  0  0  0  0  0  0  0
   27.2985  -17.2098  -15.5058 C   0  0  0  0  0  0  0  0  0  0  0  0
   25.9461  -16.4872  -15.4501 C   0  0  0  0  0  0  0  0  0  0  0  0
   25.0353  -17.4374  -14.7029 C   0  0  1  0  0  0  0  0  0  0  0  0
   24.2234  -18.2249  -15.6996 C   0  0  0  0  0  0  0  0  0  0  0  0
   24.7299  -18.9491  -16.5831 O   0  0  0  0  0  0  0  0  0  0  0  0
   19.9932  -22.2992  -14.5329 N   0  0  0  0  0  0  0  0  0  0  0  0
   19.9236  -20.9674  -14.0657 C   0  0  0  0  0  0  0  0  0  0  0  0
   19.2267  -20.7549  -13.0487 O   0  0  0  0  0  0  0  0  0  0  0  0
   20.6148  -19.8458  -14.7045 C   0  0  0  0  0  0  0  0  0  0  0  0
   21.3665  -20.1400  -15.9423 C   0  0  0  0  0  0  0  0  0  0  0  0
   21.9617  -18.9480  -16.5961 C   0  0  2  0  0  0  0  0  0  0  0  0
   22.8021  -18.1817  -15.6865 N   0  0  0  0  0  0  0  0  0  0  0  0
   20.9912  -18.0637  -17.2833 C   0  0  0  0  0  0  0  0  0  0  0  0
   20.2564  -18.5510  -18.1673 O   0  0  0  0  0  0  0  0  0  0  0  0
   20.8758  -16.7301  -16.9774 O   0  0  0  0  0  0  0  0  0  0  0  0
  2  1  1  1
  2  5  1  0
  2  3  1  0
  3  4  1  0
  5  6  2  0
  7  5  1  0
  7 11  1  0
  8  7  1  0
  9  8  1  0
  9 10  1  0
 10 11  1  0
 11 12  1  6
 12 13  2  0
 12 20  1  0
 15 14  1  0
 15 16  2  0
 17 18  1  0
 17 15  1  0
 19 18  1  1
 20 19  1  0
 21 19  1  0
 21 23  1  0
 22 21  2  0
M  END
$$$$
