CPQ.pdb
     RDKit          3D

 23 23  0  0  1  0  0  0  0  0999 V2000
   27.2354  -24.2499  -16.3032 N   0  0  0  0  0  0  0  0  0  0  0  0
   26.8239  -22.8882  -15.9315 C   0  0  1  0  0  0  0  0  0  0  0  0
   26.3782  -22.2683  -17.2502 C   0  0  0  0  0  0  0  0  0  0  0  0
   25.6824  -20.6263  -17.0490 S   0  0  0  0  0  0  0  0  0  0  0  0
   25.6993  -23.0471  -14.9984 C   0  0  0  0  0  0  0  0  0  0  0  0
   24.7145  -23.7638  -15.3011 O   0  0  0  0  0  0  0  0  0  0  0  0
   25.7045  -22.3980  -13.7437 N   0  0  0  0  0  0  0  0  0  0  0  0
   26.8312  -21.6599  -13.2067 C   0  0  0  0  0  0  0  0  0  0  0  0
   26.1155  -20.5146  -12.4902 C   0  0  0  0  0  0  0  0  0  0  0  0
   25.0478  -21.3363  -11.7559 C   0  0  0  0  0  0  0  0  0  0  0  0
   24.6301  -22.3972  -12.7514 C   0  0  1  0  0  0  0  0  0  0  0  0
   23.3672  -21.9510  -13.4434 C   0  0  0  0  0  0  0  0  0  0  0  0
   23.3102  -20.9601  -14.2027 O   0  0  0  0  0  0  0  0  0  0  0  0
   17.5053  -24.9057  -13.1150 N   0  0  0  0  0  0  0  0  0  0  0  0
   17.3823  -23.7404  -13.9047 C   0  0  0  0  0  0  0  0  0  0  0  0
   16.2367  -23.4445  -14.3111 O   0  0  0  0  0  0  0  0  0  0  0  0
   18.5115  -22.8802  -14.2637 C   0  0  0  0  0  0  0  0  0  0  0  0
   19.8472  -23.2946  -13.7866 C   0  0  0  0  0  0  0  0  0  0  0  0
   20.8743  -22.2244  -13.8337 C   0  0  2  0  0  0  0  0  0  0  0  0
   22.1435  -22.6520  -13.2617 N   0  0  0  0  0  0  0  0  0  0  0  0
   20.4502  -20.9270  -13.2567 C   0  0  0  0  0  0  0  0  0  0  0  0
   20.7024  -20.6926  -12.0566 O   0  0  0  0  0  0  0  0  0  0  0  0
   19.7917  -19.9785  -13.9997 O   0  0  0  0  0  0  0  0  0  0  0  0
  2  1  1  6
  2  5  1  0
  2  3  1  0
  3  4  1  0
  5  6  2  0
  7  5  1  0
  7 11  1  0
  8  7  1  0
  9  8  1  0
  9 10  1  0
 10 11  1  0
 11 12  1  6
 12 13  2  0
 12 20  1  0
 15 14  1  0
 15 16  2  0
 17 18  1  0
 17 15  1  0
 19 18  1  1
 20 19  1  0
 21 19  1  0
 21 23  1  0
 22 21  2  0
M  END
$$$$
