CPQ.pdb
     RDKit          3D

 23 23  0  0  1  0  0  0  0  0999 V2000
   19.2447  -14.9611  -17.6716 N   0  0  0  0  0  0  0  0  0  0  0  0
   18.0848  -14.0673  -17.8042 C   0  0  1  0  0  0  0  0  0  0  0  0
   17.3144  -14.2733  -16.5057 C   0  0  0  0  0  0  0  0  0  0  0  0
   16.5543  -15.8953  -16.3956 S   0  0  0  0  0  0  0  0  0  0  0  0
   18.6328  -12.7067  -17.9006 C   0  0  0  0  0  0  0  0  0  0  0  0
   19.5907  -12.3508  -17.1719 O   0  0  0  0  0  0  0  0  0  0  0  0
   18.0939  -11.7740  -18.8145 N   0  0  0  0  0  0  0  0  0  0  0  0
   17.0718  -12.0834  -19.7954 C   0  0  0  0  0  0  0  0  0  0  0  0
   16.2580  -10.7892  -19.7876 C   0  0  0  0  0  0  0  0  0  0  0  0
   17.4187   -9.7891  -19.8699 C   0  0  0  0  0  0  0  0  0  0  0  0
   18.4940  -10.3772  -18.9817 C   0  0  1  0  0  0  0  0  0  0  0  0
   18.4284   -9.7164  -17.6283 C   0  0  0  0  0  0  0  0  0  0  0  0
   18.0186  -10.2932  -16.5983 O   0  0  0  0  0  0  0  0  0  0  0  0
   21.9029   -9.2890  -13.2772 N   0  0  0  0  0  0  0  0  0  0  0  0
   22.2905   -8.7481  -14.5238 C   0  0  0  0  0  0  0  0  0  0  0  0
   23.5172   -8.6217  -14.7346 O   0  0  0  0  0  0  0  0  0  0  0  0
   21.3418   -8.3354  -15.5599 C   0  0  0  0  0  0  0  0  0  0  0  0
   19.9051   -8.5030  -15.2574 C   0  0  0  0  0  0  0  0  0  0  0  0
   18.9978   -7.7359  -16.1466 C   0  0  2  0  0  0  0  0  0  0  0  0
   18.8388   -8.3667  -17.4496 N   0  0  0  0  0  0  0  0  0  0  0  0
   19.3378   -6.3014  -16.2970 C   0  0  0  0  0  0  0  0  0  0  0  0
   19.7473   -5.8942  -17.4040 O   0  0  0  0  0  0  0  0  0  0  0  0
   19.2156   -5.4100  -15.2598 O   0  0  0  0  0  0  0  0  0  0  0  0
  2  1  1  1
  2  5  1  0
  2  3  1  0
  3  4  1  0
  5  6  2  0
  7  5  1  0
  7 11  1  0
  8  7  1  0
  9  8  1  0
  9 10  1  0
 10 11  1  0
 11 12  1  1
 12 13  2  0
 12 20  1  0
 15 14  1  0
 15 16  2  0
 17 18  1  0
 17 15  1  0
 19 18  1  6
 20 19  1  0
 21 19  1  0
 21 23  1  0
 22 21  2  0
M  END
$$$$
