CPQ.pdb
     RDKit          3D

 23 23  0  0  1  0  0  0  0  0999 V2000
   18.7252  -13.0218  -16.5273 N   0  0  0  0  0  0  0  0  0  0  0  0
   19.9909  -12.4822  -17.0454 C   0  0  1  0  0  0  0  0  0  0  0  0
   19.5872  -11.7773  -18.3347 C   0  0  0  0  0  0  0  0  0  0  0  0
   19.5336  -12.8834  -19.7469 S   0  0  0  0  0  0  0  0  0  0  0  0
   20.4683  -11.5301  -16.0323 C   0  0  0  0  0  0  0  0  0  0  0  0
   19.6875  -10.6838  -15.5330 O   0  0  0  0  0  0  0  0  0  0  0  0
   21.8132  -11.5488  -15.6004 N   0  0  0  0  0  0  0  0  0  0  0  0
   22.7676  -12.5880  -15.9346 C   0  0  0  0  0  0  0  0  0  0  0  0
   24.0484  -11.7684  -16.0933 C   0  0  0  0  0  0  0  0  0  0  0  0
   23.9357  -10.9197  -14.8200 C   0  0  0  0  0  0  0  0  0  0  0  0
   22.4633  -10.5859  -14.7121 C   0  0  1  0  0  0  0  0  0  0  0  0
   22.2294   -9.2087  -15.2789 C   0  0  0  0  0  0  0  0  0  0  0  0
   21.8750   -8.9996  -16.4588 O   0  0  0  0  0  0  0  0  0  0  0  0
   17.6138   -6.6524  -15.9354 N   0  0  0  0  0  0  0  0  0  0  0  0
   18.3815   -5.4769  -15.7751 C   0  0  0  0  0  0  0  0  0  0  0  0
   17.8144   -4.3877  -16.0141 O   0  0  0  0  0  0  0  0  0  0  0  0
   19.7831   -5.4742  -15.3516 C   0  0  0  0  0  0  0  0  0  0  0  0
   20.3956   -6.7859  -15.0550 C   0  0  0  0  0  0  0  0  0  0  0  0
   21.8603   -6.7397  -14.8209 C   0  0  2  0  0  0  0  0  0  0  0  0
   22.4061   -8.0460  -14.4795 N   0  0  0  0  0  0  0  0  0  0  0  0
   22.3042   -5.7154  -13.8463 C   0  0  0  0  0  0  0  0  0  0  0  0
   22.3390   -6.0147  -12.6347 O   0  0  0  0  0  0  0  0  0  0  0  0
   22.6780   -4.4525  -14.2346 O   0  0  0  0  0  0  0  0  0  0  0  0
  2  1  1  1
  2  5  1  0
  2  3  1  0
  3  4  1  0
  5  6  2  0
  7  5  1  0
  7 11  1  0
  8  7  1  0
  9  8  1  0
  9 10  1  0
 10 11  1  0
 11 12  1  6
 12 13  2  0
 12 20  1  0
 15 14  1  0
 15 16  2  0
 17 18  1  0
 17 15  1  0
 19 18  1  1
 20 19  1  0
 21 19  1  0
 21 23  1  0
 22 21  2  0
M  END
$$$$
