CPQ.pdb
     RDKit          3D

 23 23  0  0  1  0  0  0  0  0999 V2000
   16.3613  -11.7642    5.7247 N   0  0  0  0  0  0  0  0  0  0  0  0
   17.5593  -12.4809    5.2633 C   0  0  1  0  0  0  0  0  0  0  0  0
   18.6629  -11.9810    6.1875 C   0  0  0  0  0  0  0  0  0  0  0  0
   20.3078  -12.2839    5.5370 S   0  0  0  0  0  0  0  0  0  0  0  0
   17.2807  -13.9090    5.4728 C   0  0  0  0  0  0  0  0  0  0  0  0
   17.1227  -14.3657    6.6311 O   0  0  0  0  0  0  0  0  0  0  0  0
   17.1847  -14.7946    4.3765 N   0  0  0  0  0  0  0  0  0  0  0  0
   17.1816  -14.3818    2.9864 C   0  0  0  0  0  0  0  0  0  0  0  0
   17.9731  -15.5199    2.3418 C   0  0  0  0  0  0  0  0  0  0  0  0
   17.2591  -16.7020    3.0105 C   0  0  0  0  0  0  0  0  0  0  0  0
   17.0145  -16.2461    4.4329 C   0  0  1  0  0  0  0  0  0  0  0  0
   18.1001  -16.8009    5.3197 C   0  0  0  0  0  0  0  0  0  0  0  0
   19.3003  -16.4637    5.2337 O   0  0  0  0  0  0  0  0  0  0  0  0
   19.3034  -16.2780   11.0103 N   0  0  0  0  0  0  0  0  0  0  0  0
   18.0581  -16.7777   10.5672 C   0  0  0  0  0  0  0  0  0  0  0  0
   17.0777  -16.6243   11.3292 O   0  0  0  0  0  0  0  0  0  0  0  0
   17.8653  -17.4546    9.2833 C   0  0  0  0  0  0  0  0  0  0  0  0
   19.0541  -17.5995    8.4176 C   0  0  0  0  0  0  0  0  0  0  0  0
   18.8171  -18.3766    7.1757 C   0  0  2  0  0  0  0  0  0  0  0  0
   17.8069  -17.7629    6.3249 N   0  0  0  0  0  0  0  0  0  0  0  0
   18.5224  -19.8136    7.3858 C   0  0  0  0  0  0  0  0  0  0  0  0
   19.3610  -20.5169    7.9867 O   0  0  0  0  0  0  0  0  0  0  0  0
   17.3590  -20.3923    6.9421 O   0  0  0  0  0  0  0  0  0  0  0  0
  2  1  1  1
  2  5  1  0
  2  3  1  0
  3  4  1  0
  5  6  2  0
  7  5  1  0
  7 11  1  0
  8  7  1  0
  9  8  1  0
  9 10  1  0
 10 11  1  0
 11 12  1  1
 12 13  2  0
 12 20  1  0
 15 14  1  0
 15 16  2  0
 17 18  1  0
 17 15  1  0
 19 18  1  1
 20 19  1  0
 21 19  1  0
 21 23  1  0
 22 21  2  0
M  END
$$$$
