CPQ.pdb
     RDKit          3D

 23 23  0  0  1  0  0  0  0  0999 V2000
   25.1717  -13.7342  -17.5997 N   0  0  0  0  0  0  0  0  0  0  0  0
   23.8260  -13.8074  -17.0121 C   0  0  1  0  0  0  0  0  0  0  0  0
   24.0872  -13.9712  -15.5198 C   0  0  0  0  0  0  0  0  0  0  0  0
   24.9358  -15.5023  -15.1243 S   0  0  0  0  0  0  0  0  0  0  0  0
   23.1838  -12.5198  -17.3130 C   0  0  0  0  0  0  0  0  0  0  0  0
   23.7739  -11.4393  -17.0692 O   0  0  0  0  0  0  0  0  0  0  0  0
   21.8918  -12.4725  -17.8823 N   0  0  0  0  0  0  0  0  0  0  0  0
   21.1870  -13.6230  -18.4136 C   0  0  0  0  0  0  0  0  0  0  0  0
   19.7499  -13.3002  -18.0039 C   0  0  0  0  0  0  0  0  0  0  0  0
   19.7071  -11.8348  -18.4567 C   0  0  0  0  0  0  0  0  0  0  0  0
   21.0686  -11.2823  -18.0934 C   0  0  1  0  0  0  0  0  0  0  0  0
   20.9677  -10.5552  -16.7766 C   0  0  0  0  0  0  0  0  0  0  0  0
   20.8680  -11.1354  -15.6743 O   0  0  0  0  0  0  0  0  0  0  0  0
   23.2213   -4.6215  -15.4417 N   0  0  0  0  0  0  0  0  0  0  0  0
   22.4840   -5.0754  -14.3249 C   0  0  0  0  0  0  0  0  0  0  0  0
   22.4758   -4.3433  -13.3105 O   0  0  0  0  0  0  0  0  0  0  0  0
   21.7444   -6.3388  -14.2996 C   0  0  0  0  0  0  0  0  0  0  0  0
   21.7868   -7.1642  -15.5246 C   0  0  0  0  0  0  0  0  0  0  0  0
   20.9296   -8.3747  -15.4782 C   0  0  2  0  0  0  0  0  0  0  0  0
   20.9797   -9.1344  -16.7197 N   0  0  0  0  0  0  0  0  0  0  0  0
   19.5262   -8.1299  -15.0701 C   0  0  0  0  0  0  0  0  0  0  0  0
   18.6657   -7.9503  -15.9568 O   0  0  0  0  0  0  0  0  0  0  0  0
   19.1452   -8.0959  -13.7513 O   0  0  0  0  0  0  0  0  0  0  0  0
  2  1  1  6
  2  5  1  0
  2  3  1  0
  3  4  1  0
  5  6  2  0
  7  5  1  0
  7 11  1  0
  8  7  1  0
  9  8  1  0
  9 10  1  0
 10 11  1  0
 11 12  1  1
 12 13  2  0
 12 20  1  0
 15 14  1  0
 15 16  2  0
 17 18  1  0
 17 15  1  0
 19 18  1  6
 20 19  1  0
 21 19  1  0
 21 23  1  0
 22 21  2  0
M  END
$$$$
