CPQ.pdb
     RDKit          3D

 23 23  0  0  1  0  0  0  0  0999 V2000
   13.0268  -24.4202   -7.2409 N   0  0  0  0  0  0  0  0  0  0  0  0
   14.3721  -24.1961   -6.6917 C   0  0  1  0  0  0  0  0  0  0  0  0
   14.6803  -22.7495   -7.0583 C   0  0  0  0  0  0  0  0  0  0  0  0
   15.1396  -22.5495   -8.7816 S   0  0  0  0  0  0  0  0  0  0  0  0
   14.2489  -24.3736   -5.2377 C   0  0  0  0  0  0  0  0  0  0  0  0
   13.2878  -23.8647   -4.6112 O   0  0  0  0  0  0  0  0  0  0  0  0
   15.2079  -25.1199   -4.5173 N   0  0  0  0  0  0  0  0  0  0  0  0
   16.2357  -25.9407   -5.1275 C   0  0  0  0  0  0  0  0  0  0  0  0
   17.4026  -25.7099   -4.1670 C   0  0  0  0  0  0  0  0  0  0  0  0
   16.6520  -25.9095   -2.8437 C   0  0  0  0  0  0  0  0  0  0  0  0
   15.3068  -25.2515   -3.0641 C   0  0  1  0  0  0  0  0  0  0  0  0
   15.3381  -23.8625   -2.4789 C   0  0  0  0  0  0  0  0  0  0  0  0
   15.9834  -22.9172   -2.9806 O   0  0  0  0  0  0  0  0  0  0  0  0
   10.8408  -20.0098   -1.1254 N   0  0  0  0  0  0  0  0  0  0  0  0
   11.1841  -20.6990    0.0595 C   0  0  0  0  0  0  0  0  0  0  0  0
   10.3594  -20.6640    0.9996 O   0  0  0  0  0  0  0  0  0  0  0  0
   12.4364  -21.4370    0.2355 C   0  0  0  0  0  0  0  0  0  0  0  0
   13.3482  -21.4954   -0.9259 C   0  0  0  0  0  0  0  0  0  0  0  0
   14.6133  -22.2299   -0.6759 C   0  0  2  0  0  0  0  0  0  0  0  0
   14.6173  -23.5485   -1.2941 N   0  0  0  0  0  0  0  0  0  0  0  0
   15.0124  -22.3178    0.7485 C   0  0  0  0  0  0  0  0  0  0  0  0
   14.9705  -23.4290    1.3163 O   0  0  0  0  0  0  0  0  0  0  0  0
   15.4262  -21.2184    1.4594 O   0  0  0  0  0  0  0  0  0  0  0  0
  2  1  1  6
  2  5  1  0
  2  3  1  0
  3  4  1  0
  5  6  2  0
  7  5  1  0
  7 11  1  0
  8  7  1  0
  9  8  1  0
  9 10  1  0
 10 11  1  0
 11 12  1  1
 12 13  2  0
 12 20  1  0
 15 14  1  0
 15 16  2  0
 17 18  1  0
 17 15  1  0
 19 18  1  1
 20 19  1  0
 21 19  1  0
 21 23  1  0
 22 21  2  0
M  END
$$$$
