CPQ.pdb
     RDKit          3D

 23 23  0  0  1  0  0  0  0  0999 V2000
   25.0872  -20.5630  -10.5921 N   0  0  0  0  0  0  0  0  0  0  0  0
   26.1529  -20.3994  -11.5917 C   0  0  1  0  0  0  0  0  0  0  0  0
   26.5318  -21.8289  -11.9593 C   0  0  0  0  0  0  0  0  0  0  0  0
   27.7849  -22.5188  -10.8757 S   0  0  0  0  0  0  0  0  0  0  0  0
   25.5386  -19.6919  -12.7243 C   0  0  0  0  0  0  0  0  0  0  0  0
   24.2902  -19.6128  -12.8268 O   0  0  0  0  0  0  0  0  0  0  0  0
   26.3395  -19.0869  -13.7183 N   0  0  0  0  0  0  0  0  0  0  0  0
   27.7660  -18.8577  -13.5950 C   0  0  0  0  0  0  0  0  0  0  0  0
   28.2288  -19.1175  -15.0288 C   0  0  0  0  0  0  0  0  0  0  0  0
   27.1673  -18.2895  -15.7649 C   0  0  0  0  0  0  0  0  0  0  0  0
   25.8873  -18.5386  -14.9965 C   0  0  1  0  0  0  0  0  0  0  0  0
   25.0932  -19.6099  -15.6997 C   0  0  0  0  0  0  0  0  0  0  0  0
   25.4345  -20.8115  -15.7329 O   0  0  0  0  0  0  0  0  0  0  0  0
   22.1178  -23.6187  -14.4243 N   0  0  0  0  0  0  0  0  0  0  0  0
   21.1791  -22.6005  -14.1432 C   0  0  0  0  0  0  0  0  0  0  0  0
   20.3967  -22.7939  -13.1863 O   0  0  0  0  0  0  0  0  0  0  0  0
   21.0805  -21.3543  -14.9055 C   0  0  0  0  0  0  0  0  0  0  0  0
   22.2964  -20.5180  -14.9817 C   0  0  0  0  0  0  0  0  0  0  0  0
   22.7038  -20.1528  -16.3613 C   0  0  2  0  0  0  0  0  0  0  0  0
   23.8840  -19.2998  -16.3806 N   0  0  0  0  0  0  0  0  0  0  0  0
   21.6257  -19.5747  -17.1976 C   0  0  0  0  0  0  0  0  0  0  0  0
   20.6071  -20.2607  -17.4227 O   0  0  0  0  0  0  0  0  0  0  0  0
   21.7126  -18.3117  -17.7293 O   0  0  0  0  0  0  0  0  0  0  0  0
  2  1  1  1
  2  5  1  0
  2  3  1  0
  3  4  1  0
  5  6  2  0
  7  5  1  0
  7 11  1  0
  8  7  1  0
  9  8  1  0
  9 10  1  0
 10 11  1  0
 11 12  1  6
 12 13  2  0
 12 20  1  0
 15 14  1  0
 15 16  2  0
 17 18  1  0
 17 15  1  0
 19 18  1  1
 20 19  1  0
 21 19  1  0
 21 23  1  0
 22 21  2  0
M  END
$$$$
