CPQ.pdb
     RDKit          3D

 23 23  0  0  1  0  0  0  0  0999 V2000
   27.7999  -21.7348  -15.0688 N   0  0  0  0  0  0  0  0  0  0  0  0
   27.2662  -20.6657  -14.2122 C   0  0  1  0  0  0  0  0  0  0  0  0
   27.1290  -19.4763  -15.1548 C   0  0  0  0  0  0  0  0  0  0  0  0
   27.3661  -17.9008  -14.3288 S   0  0  0  0  0  0  0  0  0  0  0  0
   25.9566  -21.1407  -13.7429 C   0  0  0  0  0  0  0  0  0  0  0  0
   25.0621  -21.4612  -14.5627 O   0  0  0  0  0  0  0  0  0  0  0  0
   25.6792  -21.2466  -12.3618 N   0  0  0  0  0  0  0  0  0  0  0  0
   26.6706  -21.1065  -11.3129 C   0  0  0  0  0  0  0  0  0  0  0  0
   25.8565  -20.3904  -10.2351 C   0  0  0  0  0  0  0  0  0  0  0  0
   24.5986  -21.2680  -10.2781 C   0  0  0  0  0  0  0  0  0  0  0  0
   24.3915  -21.5676  -11.7473 C   0  0  1  0  0  0  0  0  0  0  0  0
   23.3670  -20.6116  -12.3034 C   0  0  0  0  0  0  0  0  0  0  0  0
   23.6456  -19.6870  -13.0966 O   0  0  0  0  0  0  0  0  0  0  0  0
   19.3134  -22.3683  -16.1852 N   0  0  0  0  0  0  0  0  0  0  0  0
   19.9494  -21.1185  -16.3596 C   0  0  0  0  0  0  0  0  0  0  0  0
   19.7168  -20.5033  -17.4238 O   0  0  0  0  0  0  0  0  0  0  0  0
   20.8514  -20.5219  -15.3726 C   0  0  0  0  0  0  0  0  0  0  0  0
   21.1027  -21.2975  -14.1401 C   0  0  0  0  0  0  0  0  0  0  0  0
   20.8973  -20.5352  -12.8835 C   0  0  2  0  0  0  0  0  0  0  0  0
   21.9952  -20.7144  -11.9436 N   0  0  0  0  0  0  0  0  0  0  0  0
   19.5942  -20.7695  -12.2178 C   0  0  0  0  0  0  0  0  0  0  0  0
   19.3792  -21.8821  -11.6937 O   0  0  0  0  0  0  0  0  0  0  0  0
   18.6205  -19.8030  -12.1596 O   0  0  0  0  0  0  0  0  0  0  0  0
  2  1  1  6
  2  5  1  0
  2  3  1  0
  3  4  1  0
  5  6  2  0
  7  5  1  0
  7 11  1  0
  8  7  1  0
  9  8  1  0
  9 10  1  0
 10 11  1  0
 11 12  1  6
 12 13  2  0
 12 20  1  0
 15 14  1  0
 15 16  2  0
 17 18  1  0
 17 15  1  0
 19 18  1  6
 20 19  1  0
 21 19  1  0
 21 23  1  0
 22 21  2  0
M  END
$$$$
