LPQ.pdb
     RDKit          3D

 25 25  0  0  1  0  0  0  0  0999 V2000
   28.4162  -18.4435  -14.6523 C   0  0  0  0  0  0  0  0  0  0  0  0
   27.1138  -18.7548  -15.3962 C   0  0  2  0  0  0  0  0  0  0  0  0
   26.6806  -17.4994  -16.0821 C   0  0  0  0  0  0  0  0  0  0  0  0
   26.1510  -19.2646  -14.3717 C   0  0  0  0  0  0  0  0  0  0  0  0
   26.5973  -20.5976  -13.7801 C   0  0  2  0  0  0  0  0  0  0  0  0
   26.7424  -21.5704  -14.8843 N   0  0  0  0  0  0  0  0  0  0  0  0
   25.5030  -21.0790  -12.9132 C   0  0  0  0  0  0  0  0  0  0  0  0
   24.7159  -21.9384  -13.4437 O   0  0  0  0  0  0  0  0  0  0  0  0
   25.2523  -20.6915  -11.5897 N   0  0  0  0  0  0  0  0  0  0  0  0
   26.0475  -19.7670  -10.8378 C   0  0  0  0  0  0  0  0  0  0  0  0
   26.1373  -20.4988   -9.4882 C   0  0  0  0  0  0  0  0  0  0  0  0
   24.8272  -21.2432   -9.4023 C   0  0  0  0  0  0  0  0  0  0  0  0
   24.1750  -21.1002  -10.7580 C   0  0  1  0  0  0  0  0  0  0  0  0
   23.0459  -20.1213  -10.7391 C   0  0  0  0  0  0  0  0  0  0  0  0
   23.3029  -18.9465  -11.1064 O   0  0  0  0  0  0  0  0  0  0  0  0
   20.7869  -21.8028  -15.0697 N   0  0  0  0  0  0  0  0  0  0  0  0
   20.8485  -20.3917  -14.9748 C   0  0  0  0  0  0  0  0  0  0  0  0
   20.7739  -19.7134  -16.0211 O   0  0  0  0  0  0  0  0  0  0  0  0
   20.9987  -19.7672  -13.6418 C   0  0  0  0  0  0  0  0  0  0  0  0
   21.0177  -20.8563  -12.6140 C   0  0  0  0  0  0  0  0  0  0  0  0
   20.5944  -20.4206  -11.2434 C   0  0  2  0  0  0  0  0  0  0  0  0
   21.7316  -20.4043  -10.3466 N   0  0  0  0  0  0  0  0  0  0  0  0
   19.4354  -21.1197  -10.7142 C   0  0  0  0  0  0  0  0  0  0  0  0
   18.1890  -20.5437  -10.7318 O   0  0  0  0  0  0  0  0  0  0  0  0
   19.5563  -22.2605  -10.2330 O   0  0  0  0  0  0  0  0  0  0  0  0
  2  1  1  1
  2  4  1  0
  3  2  1  0
  4  5  1  0
  5  6  1  6
  7  5  1  0
  7  8  2  0
  9  7  1  0
 10  9  1  0
 11 12  1  0
 11 10  1  0
 12 13  1  0
 13 14  1  1
 13  9  1  0
 14 15  2  0
 16 17  1  0
 17 19  1  0
 18 17  2  0
 19 20  1  0
 21 20  1  6
 21 23  1  0
 22 14  1  0
 22 21  1  0
 23 25  2  0
 23 24  1  0
M  END
$$$$
