LPQ.pdb
     RDKit          3D

 25 25  0  0  1  0  0  0  0  0999 V2000
   27.9843  -15.2206  -15.6638 C   0  0  0  0  0  0  0  0  0  0  0  0
   26.5138  -15.1800  -16.0909 C   0  0  2  0  0  0  0  0  0  0  0  0
   25.8544  -14.0842  -15.3172 C   0  0  0  0  0  0  0  0  0  0  0  0
   25.9578  -16.5435  -15.8298 C   0  0  0  0  0  0  0  0  0  0  0  0
   26.6411  -17.6120  -16.6768 C   0  0  2  0  0  0  0  0  0  0  0  0
   26.4292  -17.2802  -18.1022 N   0  0  0  0  0  0  0  0  0  0  0  0
   25.9446  -18.8877  -16.4159 C   0  0  0  0  0  0  0  0  0  0  0  0
   25.1034  -19.2506  -17.3105 O   0  0  0  0  0  0  0  0  0  0  0  0
   26.1168  -19.7223  -15.3030 N   0  0  0  0  0  0  0  0  0  0  0  0
   26.8878  -19.3959  -14.1406 C   0  0  0  0  0  0  0  0  0  0  0  0
   27.6429  -20.7170  -13.9180 C   0  0  0  0  0  0  0  0  0  0  0  0
   26.6766  -21.7642  -14.4157 C   0  0  0  0  0  0  0  0  0  0  0  0
   25.5552  -21.0107  -15.0927 C   0  0  1  0  0  0  0  0  0  0  0  0
   24.3145  -20.9799  -14.2600 C   0  0  0  0  0  0  0  0  0  0  0  0
   24.3991  -21.4398  -13.0928 O   0  0  0  0  0  0  0  0  0  0  0  0
   20.2655  -21.0902  -10.7037 N   0  0  0  0  0  0  0  0  0  0  0  0
   20.1047  -19.8854  -11.4295 C   0  0  0  0  0  0  0  0  0  0  0  0
   19.5010  -18.9334  -10.8913 O   0  0  0  0  0  0  0  0  0  0  0  0
   20.6561  -19.7931  -12.7995 C   0  0  0  0  0  0  0  0  0  0  0  0
   21.3118  -21.0986  -13.1293 C   0  0  0  0  0  0  0  0  0  0  0  0
   21.8186  -21.1980  -14.5367 C   0  0  2  0  0  0  0  0  0  0  0  0
   23.0714  -20.4838  -14.6723 N   0  0  0  0  0  0  0  0  0  0  0  0
   20.8394  -20.8716  -15.5598 C   0  0  0  0  0  0  0  0  0  0  0  0
   19.6718  -21.5844  -15.6789 O   0  0  0  0  0  0  0  0  0  0  0  0
   21.0464  -19.9335  -16.3502 O   0  0  0  0  0  0  0  0  0  0  0  0
  2  1  1  1
  2  4  1  0
  3  2  1  0
  4  5  1  0
  5  6  1  6
  7  5  1  0
  7  8  2  0
  9  7  1  0
 10  9  1  0
 11 12  1  0
 11 10  1  0
 12 13  1  0
 13 14  1  1
 13  9  1  0
 14 15  2  0
 16 17  1  0
 17 19  1  0
 18 17  2  0
 19 20  1  0
 21 20  1  1
 21 23  1  0
 22 14  1  0
 22 21  1  0
 23 25  2  0
 23 24  1  0
M  END
$$$$
