LPQ.pdb
     RDKit          3D

 25 25  0  0  1  0  0  0  0  0999 V2000
   18.0954   -9.1896  -21.0776 C   0  0  0  0  0  0  0  0  0  0  0  0
   19.0785  -10.3521  -20.9081 C   0  0  2  0  0  0  0  0  0  0  0  0
   18.4997  -11.5332  -21.6181 C   0  0  0  0  0  0  0  0  0  0  0  0
   19.2608  -10.5429  -19.4360 C   0  0  0  0  0  0  0  0  0  0  0  0
   20.5018  -11.3694  -19.1154 C   0  0  2  0  0  0  0  0  0  0  0  0
   20.0657  -12.6456  -18.5087 N   0  0  0  0  0  0  0  0  0  0  0  0
   21.2633  -10.6330  -18.0866 C   0  0  0  0  0  0  0  0  0  0  0  0
   21.0015  -10.9497  -16.8738 O   0  0  0  0  0  0  0  0  0  0  0  0
   22.2278   -9.6410  -18.3101 N   0  0  0  0  0  0  0  0  0  0  0  0
   22.6143   -9.1434  -19.5966 C   0  0  0  0  0  0  0  0  0  0  0  0
   24.1436   -9.1030  -19.4402 C   0  0  0  0  0  0  0  0  0  0  0  0
   24.3408   -8.8092  -17.9729 C   0  0  0  0  0  0  0  0  0  0  0  0
   22.9755   -8.9261  -17.3356 C   0  0  1  0  0  0  0  0  0  0  0  0
   22.3891   -7.5902  -17.0117 C   0  0  0  0  0  0  0  0  0  0  0  0
   21.7384   -7.0167  -17.9222 O   0  0  0  0  0  0  0  0  0  0  0  0
   17.7043   -6.7016  -15.9674 N   0  0  0  0  0  0  0  0  0  0  0  0
   17.9322   -5.4313  -15.3856 C   0  0  0  0  0  0  0  0  0  0  0  0
   16.9505   -4.7094  -15.1106 O   0  0  0  0  0  0  0  0  0  0  0  0
   19.3232   -5.0008  -15.1227 C   0  0  0  0  0  0  0  0  0  0  0  0
   20.2420   -6.1111  -15.5302 C   0  0  0  0  0  0  0  0  0  0  0  0
   21.6997   -5.7921  -15.3852 C   0  0  2  0  0  0  0  0  0  0  0  0
   22.5056   -6.9279  -15.7832 N   0  0  0  0  0  0  0  0  0  0  0  0
   22.0730   -5.2248  -14.1004 C   0  0  0  0  0  0  0  0  0  0  0  0
   22.6867   -5.9882  -13.1380 O   0  0  0  0  0  0  0  0  0  0  0  0
   21.8398   -4.0286  -13.8509 O   0  0  0  0  0  0  0  0  0  0  0  0
  2  1  1  1
  2  4  1  0
  3  2  1  0
  4  5  1  0
  5  6  1  1
  7  5  1  0
  7  8  2  0
  9  7  1  0
 10  9  1  0
 11 12  1  0
 11 10  1  0
 12 13  1  0
 13 14  1  6
 13  9  1  0
 14 15  2  0
 16 17  1  0
 17 19  1  0
 18 17  2  0
 19 20  1  0
 21 20  1  1
 21 23  1  0
 22 14  1  0
 22 21  1  0
 23 25  2  0
 23 24  1  0
M  END
$$$$
