LPQ.pdb
     RDKit          3D

 25 25  0  0  1  0  0  0  0  0999 V2000
   11.1842  -12.8669  -12.4083 C   0  0  0  0  0  0  0  0  0  0  0  0
   12.0878  -13.1444  -11.2029 C   0  0  2  0  0  0  0  0  0  0  0  0
   11.3214  -12.7707   -9.9752 C   0  0  0  0  0  0  0  0  0  0  0  0
   13.3377  -12.3519  -11.4177 C   0  0  0  0  0  0  0  0  0  0  0  0
   14.1419  -12.8631  -12.6085 C   0  0  2  0  0  0  0  0  0  0  0  0
   14.7136  -14.1794  -12.2520 N   0  0  0  0  0  0  0  0  0  0  0  0
   15.2722  -11.9331  -12.8038 C   0  0  0  0  0  0  0  0  0  0  0  0
   16.2649  -12.0965  -12.0116 O   0  0  0  0  0  0  0  0  0  0  0  0
   15.3583  -10.9099  -13.7579 N   0  0  0  0  0  0  0  0  0  0  0  0
   14.3429  -10.5910  -14.7169 C   0  0  0  0  0  0  0  0  0  0  0  0
   15.1955  -10.3955  -15.9818 C   0  0  0  0  0  0  0  0  0  0  0  0
   16.5007   -9.8573  -15.4482 C   0  0  0  0  0  0  0  0  0  0  0  0
   16.4239   -9.9885  -13.9446 C   0  0  1  0  0  0  0  0  0  0  0  0
   16.1847   -8.6734  -13.2763 C   0  0  0  0  0  0  0  0  0  0  0  0
   14.9882   -8.3110  -13.1415 O   0  0  0  0  0  0  0  0  0  0  0  0
   16.0228   -7.5657   -8.3238 N   0  0  0  0  0  0  0  0  0  0  0  0
   16.2199   -6.1720   -8.4752 C   0  0  0  0  0  0  0  0  0  0  0  0
   15.8229   -5.4055   -7.5722 O   0  0  0  0  0  0  0  0  0  0  0  0
   16.8887   -5.6695   -9.6957 C   0  0  0  0  0  0  0  0  0  0  0  0
   17.1972   -6.8407  -10.5765 C   0  0  0  0  0  0  0  0  0  0  0  0
   16.9227   -6.6091  -12.0321 C   0  0  2  0  0  0  0  0  0  0  0  0
   17.1799   -7.8155  -12.7912 N   0  0  0  0  0  0  0  0  0  0  0  0
   17.5459   -5.4190  -12.5863 C   0  0  0  0  0  0  0  0  0  0  0  0
   18.7538   -5.4865  -13.2360 O   0  0  0  0  0  0  0  0  0  0  0  0
   16.9896   -4.3114  -12.4793 O   0  0  0  0  0  0  0  0  0  0  0  0
  2  1  1  6
  2  4  1  0
  3  2  1  0
  4  5  1  0
  5  6  1  1
  7  5  1  0
  7  8  2  0
  9  7  1  0
 10  9  1  0
 11 12  1  0
 11 10  1  0
 12 13  1  0
 13 14  1  1
 13  9  1  0
 14 15  2  0
 16 17  1  0
 17 19  1  0
 18 17  2  0
 19 20  1  0
 21 20  1  1
 21 23  1  0
 22 14  1  0
 22 21  1  0
 23 25  2  0
 23 24  1  0
M  END
$$$$
