LPQ.pdb
     RDKit          3D

 25 25  0  0  1  0  0  0  0  0999 V2000
   25.2316  -21.6800   -8.7906 C   0  0  0  0  0  0  0  0  0  0  0  0
   26.4856  -20.8458   -9.0705 C   0  0  2  0  0  0  0  0  0  0  0  0
   26.5346  -19.7569   -8.0478 C   0  0  0  0  0  0  0  0  0  0  0  0
   26.3696  -20.3650  -10.4818 C   0  0  0  0  0  0  0  0  0  0  0  0
   26.5832  -21.4901  -11.4891 C   0  0  2  0  0  0  0  0  0  0  0  0
   28.0384  -21.6836  -11.6673 N   0  0  0  0  0  0  0  0  0  0  0  0
   26.0413  -21.0271  -12.7825 C   0  0  0  0  0  0  0  0  0  0  0  0
   26.7364  -20.1365  -13.3852 O   0  0  0  0  0  0  0  0  0  0  0  0
   24.8615  -21.4647  -13.3998 N   0  0  0  0  0  0  0  0  0  0  0  0
   23.9240  -22.3834  -12.8261 C   0  0  0  0  0  0  0  0  0  0  0  0
   23.6381  -23.2919  -14.0336 C   0  0  0  0  0  0  0  0  0  0  0  0
   23.7821  -22.3641  -15.2153 C   0  0  0  0  0  0  0  0  0  0  0  0
   24.3538  -21.0763  -14.6690 C   0  0  1  0  0  0  0  0  0  0  0  0
   23.3251  -19.9957  -14.5824 C   0  0  0  0  0  0  0  0  0  0  0  0
   22.4510  -20.1105  -13.6858 O   0  0  0  0  0  0  0  0  0  0  0  0
   24.0088  -14.1463  -14.7684 N   0  0  0  0  0  0  0  0  0  0  0  0
   24.5798  -14.9140  -15.8118 C   0  0  0  0  0  0  0  0  0  0  0  0
   25.5287  -14.4315  -16.4654 O   0  0  0  0  0  0  0  0  0  0  0  0
   24.0353  -16.2607  -16.0936 C   0  0  0  0  0  0  0  0  0  0  0  0
   22.8694  -16.4942  -15.1831 C   0  0  0  0  0  0  0  0  0  0  0  0
   22.2366  -17.8462  -15.3229 C   0  0  2  0  0  0  0  0  0  0  0  0
   23.2552  -18.8717  -15.4150 N   0  0  0  0  0  0  0  0  0  0  0  0
   21.2145  -17.9353  -16.3522 C   0  0  0  0  0  0  0  0  0  0  0  0
   21.4405  -18.6207  -17.5204 O   0  0  0  0  0  0  0  0  0  0  0  0
   20.1098  -17.3870  -16.1889 O   0  0  0  0  0  0  0  0  0  0  0  0
  2  1  1  1
  2  4  1  0
  3  2  1  0
  4  5  1  0
  5  6  1  6
  7  5  1  0
  7  8  2  0
  9  7  1  0
 10  9  1  0
 11 12  1  0
 11 10  1  0
 12 13  1  0
 13 14  1  1
 13  9  1  0
 14 15  2  0
 16 17  1  0
 17 19  1  0
 18 17  2  0
 19 20  1  0
 21 20  1  6
 21 23  1  0
 22 14  1  0
 22 21  1  0
 23 25  2  0
 23 24  1  0
M  END
$$$$
