LPQ.pdb
     RDKit          3D

 25 25  0  0  1  0  0  0  0  0999 V2000
   27.5140  -16.7254  -16.1079 C   0  0  0  0  0  0  0  0  0  0  0  0
   28.0769  -18.1263  -16.3673 C   0  0  2  0  0  0  0  0  0  0  0  0
   28.4395  -18.2004  -17.8155 C   0  0  0  0  0  0  0  0  0  0  0  0
   27.0187  -19.0944  -15.9436 C   0  0  0  0  0  0  0  0  0  0  0  0
   27.6123  -20.3638  -15.3417 C   0  0  2  0  0  0  0  0  0  0  0  0
   28.1103  -21.2122  -16.4458 N   0  0  0  0  0  0  0  0  0  0  0  0
   26.5078  -21.0963  -14.6905 C   0  0  0  0  0  0  0  0  0  0  0  0
   25.9278  -21.9787  -15.4147 O   0  0  0  0  0  0  0  0  0  0  0  0
   26.0460  -20.9200  -13.3789 N   0  0  0  0  0  0  0  0  0  0  0  0
   26.4730  -19.8825  -12.4882 C   0  0  0  0  0  0  0  0  0  0  0  0
   26.6585  -20.6809  -11.1870 C   0  0  0  0  0  0  0  0  0  0  0  0
   25.6184  -21.7698  -11.2896 C   0  0  0  0  0  0  0  0  0  0  0  0
   25.0682  -21.6918  -12.6949 C   0  0  1  0  0  0  0  0  0  0  0  0
   23.7061  -21.0780  -12.7330 C   0  0  0  0  0  0  0  0  0  0  0  0
   23.6457  -19.8220  -12.7237 O   0  0  0  0  0  0  0  0  0  0  0  0
   20.7203  -20.6859  -16.7449 N   0  0  0  0  0  0  0  0  0  0  0  0
   19.4695  -20.6155  -16.0857 C   0  0  0  0  0  0  0  0  0  0  0  0
   18.5239  -20.0244  -16.6486 O   0  0  0  0  0  0  0  0  0  0  0  0
   19.3231  -21.2433  -14.7538 C   0  0  0  0  0  0  0  0  0  0  0  0
   20.6554  -21.7923  -14.3459 C   0  0  0  0  0  0  0  0  0  0  0  0
   21.2135  -21.1920  -13.0906 C   0  0  2  0  0  0  0  0  0  0  0  0
   22.4975  -21.7843  -12.7769 N   0  0  0  0  0  0  0  0  0  0  0  0
   20.2892  -21.1587  -11.9696 C   0  0  0  0  0  0  0  0  0  0  0  0
   19.4491  -20.0905  -11.7730 O   0  0  0  0  0  0  0  0  0  0  0  0
   20.2450  -22.1059  -11.1643 O   0  0  0  0  0  0  0  0  0  0  0  0
  2  1  1  6
  2  4  1  0
  3  2  1  0
  4  5  1  0
  5  6  1  6
  7  5  1  0
  7  8  2  0
  9  7  1  0
 10  9  1  0
 11 12  1  0
 11 10  1  0
 12 13  1  0
 13 14  1  1
 13  9  1  0
 14 15  2  0
 16 17  1  0
 17 19  1  0
 18 17  2  0
 19 20  1  0
 21 20  1  6
 21 23  1  0
 22 14  1  0
 22 21  1  0
 23 25  2  0
 23 24  1  0
M  END
$$$$
