LPQ.pdb
     RDKit          3D

 25 25  0  0  1  0  0  0  0  0999 V2000
   28.2414  -20.0005   -4.5556 C   0  0  0  0  0  0  0  0  0  0  0  0
   28.9005  -19.1140   -5.6169 C   0  0  2  0  0  0  0  0  0  0  0  0
   28.9756  -17.7297   -5.0581 C   0  0  0  0  0  0  0  0  0  0  0  0
   28.0668  -19.2388   -6.8521 C   0  0  0  0  0  0  0  0  0  0  0  0
   28.0467  -20.6669   -7.3872 C   0  0  2  0  0  0  0  0  0  0  0  0
   29.4085  -21.0077   -7.8520 N   0  0  0  0  0  0  0  0  0  0  0  0
   27.1643  -20.6773   -8.5712 C   0  0  0  0  0  0  0  0  0  0  0  0
   27.7401  -20.4444   -9.6910 O   0  0  0  0  0  0  0  0  0  0  0  0
   25.7831  -20.9155   -8.5830 N   0  0  0  0  0  0  0  0  0  0  0  0
   24.8879  -20.6226   -7.5036 C   0  0  0  0  0  0  0  0  0  0  0  0
   24.0369  -21.9035   -7.4822 C   0  0  0  0  0  0  0  0  0  0  0  0
   24.0124  -22.3352   -8.9283 C   0  0  0  0  0  0  0  0  0  0  0  0
   25.0067  -21.4517   -9.6457 C   0  0  1  0  0  0  0  0  0  0  0  0
   24.3348  -20.4004  -10.4682 C   0  0  0  0  0  0  0  0  0  0  0  0
   23.9611  -19.3596   -9.8697 O   0  0  0  0  0  0  0  0  0  0  0  0
   24.8542  -18.9233  -16.3315 N   0  0  0  0  0  0  0  0  0  0  0  0
   23.6866  -18.1685  -16.0644 C   0  0  0  0  0  0  0  0  0  0  0  0
   23.2253  -17.4336  -16.9630 O   0  0  0  0  0  0  0  0  0  0  0  0
   23.0519  -18.2745  -14.7320 C   0  0  0  0  0  0  0  0  0  0  0  0
   23.8353  -19.2568  -13.9170 C   0  0  0  0  0  0  0  0  0  0  0  0
   23.2360  -19.5667  -12.5781 C   0  0  2  0  0  0  0  0  0  0  0  0
   24.0877  -20.4801  -11.8445 N   0  0  0  0  0  0  0  0  0  0  0  0
   21.8384  -19.9635  -12.6149 C   0  0  0  0  0  0  0  0  0  0  0  0
   20.8340  -19.0272  -12.6206 O   0  0  0  0  0  0  0  0  0  0  0  0
   21.5284  -21.1680  -12.6418 O   0  0  0  0  0  0  0  0  0  0  0  0
  2  1  1  1
  2  4  1  0
  3  2  1  0
  4  5  1  0
  5  6  1  6
  7  5  1  0
  7  8  2  0
  9  7  1  0
 10  9  1  0
 11 12  1  0
 11 10  1  0
 12 13  1  0
 13 14  1  1
 13  9  1  0
 14 15  2  0
 16 17  1  0
 17 19  1  0
 18 17  2  0
 19 20  1  0
 21 20  1  6
 21 23  1  0
 22 14  1  0
 22 21  1  0
 23 25  2  0
 23 24  1  0
M  END
$$$$
