LPQ.pdb
     RDKit          3D

 25 25  0  0  1  0  0  0  0  0999 V2000
   20.1332  -21.3771  -18.9285 C   0  0  0  0  0  0  0  0  0  0  0  0
   20.2489  -22.8721  -18.6151 C   0  0  2  0  0  0  0  0  0  0  0  0
   19.0875  -23.5550  -19.2624 C   0  0  0  0  0  0  0  0  0  0  0  0
   20.2857  -22.9920  -17.1248 C   0  0  0  0  0  0  0  0  0  0  0  0
   21.5239  -22.3312  -16.5279 C   0  0  2  0  0  0  0  0  0  0  0  0
   22.7033  -23.1505  -16.8810 N   0  0  0  0  0  0  0  0  0  0  0  0
   21.3801  -22.3808  -15.0590 C   0  0  0  0  0  0  0  0  0  0  0  0
   21.9033  -23.4000  -14.4871 O   0  0  0  0  0  0  0  0  0  0  0  0
   20.7387  -21.4336  -14.2490 N   0  0  0  0  0  0  0  0  0  0  0  0
   19.9464  -20.3411  -14.7293 C   0  0  0  0  0  0  0  0  0  0  0  0
   20.4557  -19.2016  -13.8308 C   0  0  0  0  0  0  0  0  0  0  0  0
   20.8117  -19.9010  -12.5415 C   0  0  0  0  0  0  0  0  0  0  0  0
   20.7184  -21.3817  -12.8290 C   0  0  1  0  0  0  0  0  0  0  0  0
   19.4895  -21.9935  -12.2383 C   0  0  0  0  0  0  0  0  0  0  0  0
   18.4493  -21.9801  -12.9446 O   0  0  0  0  0  0  0  0  0  0  0  0
   19.1300  -25.0013   -6.8151 N   0  0  0  0  0  0  0  0  0  0  0  0
   17.7523  -25.0140   -7.1406 C   0  0  0  0  0  0  0  0  0  0  0  0
   16.9441  -25.5018   -6.3225 O   0  0  0  0  0  0  0  0  0  0  0  0
   17.3153  -24.4499   -8.4369 C   0  0  0  0  0  0  0  0  0  0  0  0
   18.5049  -23.8302   -9.1028 C   0  0  0  0  0  0  0  0  0  0  0  0
   18.2161  -23.2193  -10.4411 C   0  0  2  0  0  0  0  0  0  0  0  0
   19.4024  -22.5766  -10.9679 N   0  0  0  0  0  0  0  0  0  0  0  0
   17.0252  -22.3875  -10.4853 C   0  0  0  0  0  0  0  0  0  0  0  0
   17.0836  -21.0471  -10.1928 O   0  0  0  0  0  0  0  0  0  0  0  0
   15.9253  -22.8818  -10.7913 O   0  0  0  0  0  0  0  0  0  0  0  0
  2  1  1  1
  2  4  1  0
  3  2  1  0
  4  5  1  0
  5  6  1  1
  7  5  1  0
  7  8  2  0
  9  7  1  0
 10  9  1  0
 11 12  1  0
 11 10  1  0
 12 13  1  0
 13 14  1  6
 13  9  1  0
 14 15  2  0
 16 17  1  0
 17 19  1  0
 18 17  2  0
 19 20  1  0
 21 20  1  1
 21 23  1  0
 22 14  1  0
 22 21  1  0
 23 25  2  0
 23 24  1  0
M  END
$$$$
