LPQ.pdb
     RDKit          3D

 25 25  0  0  1  0  0  0  0  0999 V2000
   28.0095  -16.4285  -14.8846 C   0  0  0  0  0  0  0  0  0  0  0  0
   26.9236  -16.7307  -15.9219 C   0  0  2  0  0  0  0  0  0  0  0  0
   26.1636  -15.4647  -16.1542 C   0  0  0  0  0  0  0  0  0  0  0  0
   26.1045  -17.8512  -15.3651 C   0  0  0  0  0  0  0  0  0  0  0  0
   26.9351  -19.1103  -15.1399 C   0  0  2  0  0  0  0  0  0  0  0  0
   27.4489  -19.5679  -16.4490 N   0  0  0  0  0  0  0  0  0  0  0  0
   26.0185  -20.1546  -14.6399 C   0  0  0  0  0  0  0  0  0  0  0  0
   25.5495  -20.9489  -15.5280 O   0  0  0  0  0  0  0  0  0  0  0  0
   25.6239  -20.3541  -13.3099 N   0  0  0  0  0  0  0  0  0  0  0  0
   26.0413  -19.5528  -12.1982 C   0  0  0  0  0  0  0  0  0  0  0  0
   26.3471  -20.6436  -11.1581 C   0  0  0  0  0  0  0  0  0  0  0  0
   25.3669  -21.7399  -11.4978 C   0  0  0  0  0  0  0  0  0  0  0  0
   24.7330  -21.3424  -12.8108 C   0  0  1  0  0  0  0  0  0  0  0  0
   23.3380  -20.8367  -12.6321 C   0  0  0  0  0  0  0  0  0  0  0  0
   23.2074  -19.6632  -12.1998 O   0  0  0  0  0  0  0  0  0  0  0  0
   16.4271  -21.9898  -14.8429 N   0  0  0  0  0  0  0  0  0  0  0  0
   17.8256  -21.8299  -14.9943 C   0  0  0  0  0  0  0  0  0  0  0  0
   18.3851  -22.3322  -15.9919 O   0  0  0  0  0  0  0  0  0  0  0  0
   18.5776  -21.0746  -13.9680 C   0  0  0  0  0  0  0  0  0  0  0  0
   19.9690  -21.6251  -13.9074 C   0  0  0  0  0  0  0  0  0  0  0  0
   20.8325  -21.0081  -12.8483 C   0  0  2  0  0  0  0  0  0  0  0  0
   22.1703  -21.5604  -12.9047 N   0  0  0  0  0  0  0  0  0  0  0  0
   20.2513  -21.0040  -11.5164 C   0  0  0  0  0  0  0  0  0  0  0  0
   19.2725  -20.1049  -11.1711 O   0  0  0  0  0  0  0  0  0  0  0  0
   20.6354  -21.8220  -10.6614 O   0  0  0  0  0  0  0  0  0  0  0  0
  2  1  1  1
  2  4  1  0
  3  2  1  0
  4  5  1  0
  5  6  1  6
  7  5  1  0
  7  8  2  0
  9  7  1  0
 10  9  1  0
 11 12  1  0
 11 10  1  0
 12 13  1  0
 13 14  1  1
 13  9  1  0
 14 15  2  0
 16 17  1  0
 17 19  1  0
 18 17  2  0
 19 20  1  0
 21 20  1  6
 21 23  1  0
 22 14  1  0
 22 21  1  0
 23 25  2  0
 23 24  1  0
M  END
$$$$
