LPQ.pdb
     RDKit          3D

 25 25  0  0  1  0  0  0  0  0999 V2000
   30.6298  -19.3337   -4.2966 C   0  0  0  0  0  0  0  0  0  0  0  0
   29.5470  -20.1590   -3.5945 C   0  0  2  0  0  0  0  0  0  0  0  0
   28.4039  -19.2407   -3.3042 C   0  0  0  0  0  0  0  0  0  0  0  0
   30.1867  -20.7542   -2.3808 C   0  0  0  0  0  0  0  0  0  0  0  0
   31.7075  -20.7837   -2.4917 C   0  0  2  0  0  0  0  0  0  0  0  0
   32.0801  -21.8024   -3.4969 N   0  0  0  0  0  0  0  0  0  0  0  0
   32.2316  -21.2415   -1.1892 C   0  0  0  0  0  0  0  0  0  0  0  0
   32.3644  -22.5087   -1.0620 O   0  0  0  0  0  0  0  0  0  0  0  0
   32.5918  -20.4336   -0.1019 N   0  0  0  0  0  0  0  0  0  0  0  0
   31.8580  -19.2904    0.3529 C   0  0  0  0  0  0  0  0  0  0  0  0
   33.0034  -18.2927    0.5937 C   0  0  0  0  0  0  0  0  0  0  0  0
   34.1575  -19.1731    1.0070 C   0  0  0  0  0  0  0  0  0  0  0  0
   33.7071  -20.5950    0.7638 C   0  0  1  0  0  0  0  0  0  0  0  0
   33.3641  -21.3022    2.0350 C   0  0  0  0  0  0  0  0  0  0  0  0
   32.1760  -21.2104    2.4363 O   0  0  0  0  0  0  0  0  0  0  0  0
   35.6572  -26.7506    4.6214 N   0  0  0  0  0  0  0  0  0  0  0  0
   34.4866  -26.0717    5.0371 C   0  0  0  0  0  0  0  0  0  0  0  0
   33.3926  -26.6730    4.9912 O   0  0  0  0  0  0  0  0  0  0  0  0
   34.5967  -24.6745    5.5116 C   0  0  0  0  0  0  0  0  0  0  0  0
   34.9303  -23.8063    4.3378 C   0  0  0  0  0  0  0  0  0  0  0  0
   33.8825  -22.7871    4.0048 C   0  0  2  0  0  0  0  0  0  0  0  0
   34.2541  -22.0540    2.8122 N   0  0  0  0  0  0  0  0  0  0  0  0
   33.4821  -21.9413    5.1167 C   0  0  0  0  0  0  0  0  0  0  0  0
   32.6209  -22.3990    6.0833 O   0  0  0  0  0  0  0  0  0  0  0  0
   33.9173  -20.7796    5.2100 O   0  0  0  0  0  0  0  0  0  0  0  0
  2  1  1  1
  2  4  1  0
  3  2  1  0
  4  5  1  0
  5  6  1  6
  7  5  1  0
  7  8  2  0
  9  7  1  0
 10  9  1  0
 11 12  1  0
 11 10  1  0
 12 13  1  0
 13 14  1  1
 13  9  1  0
 14 15  2  0
 16 17  1  0
 17 19  1  0
 18 17  2  0
 19 20  1  0
 21 20  1  1
 21 23  1  0
 22 14  1  0
 22 21  1  0
 23 25  2  0
 23 24  1  0
M  END
$$$$
