PKV.pdb
     RDKit          3D

 24 24  0  0  1  0  0  0  0  0999 V2000
    8.9334  -14.9537   19.3743 N   0  0  0  0  0  0  0  0  0  0  0  0
    7.7427  -15.1215   18.5996 C   0  0  0  0  0  0  0  0  0  0  0  0
    7.1107  -13.7612   18.4431 C   0  0  0  0  0  0  0  0  0  0  0  0
    7.9008  -12.8974   19.3762 C   0  0  0  0  0  0  0  0  0  0  0  0
    8.7334  -13.8133   20.2416 C   0  0  1  0  0  0  0  0  0  0  0  0
    7.9932  -14.2656   21.4455 C   0  0  0  0  0  0  0  0  0  0  0  0
    7.1876  -13.4684   21.9982 O   0  0  0  0  0  0  0  0  0  0  0  0
    8.1591  -15.5645   21.9983 N   0  0  0  0  0  0  0  0  0  0  0  0
    7.6528  -15.9088   23.2861 C   0  0  1  0  0  0  0  0  0  0  0  0
    7.8781  -17.3635   23.6284 C   0  0  0  0  0  0  0  0  0  0  0  0
    7.3322  -17.7409   24.9734 C   0  0  0  0  0  0  0  0  0  0  0  0
    7.6060  -19.2149   25.1823 C   0  0  0  0  0  0  0  0  0  0  0  0
    6.9539  -19.7125   26.4573 C   0  0  0  0  0  0  0  0  0  0  0  0
    7.3977  -21.0702   26.7125 N   0  0  0  0  0  0  0  0  0  0  0  0
    8.2977  -15.0985   24.3768 C   0  0  0  0  0  0  0  0  0  0  0  0
    9.5396  -15.0349   24.5170 O   0  0  0  0  0  0  0  0  0  0  0  0
    5.7631  -12.7866   27.0494 C   0  0  0  0  0  0  0  0  0  0  0  0
    7.1265  -12.3871   26.5927 C   0  0  2  0  0  0  0  0  0  0  0  0
    7.0209  -11.4544   25.4272 C   0  0  0  0  0  0  0  0  0  0  0  0
    8.0433  -13.5628   26.3335 C   0  0  2  0  0  0  0  0  0  0  0  0
    7.4944  -14.3701   25.2938 N   0  0  0  0  0  0  0  0  0  0  0  0
    8.1316  -14.3541   27.5791 C   0  0  0  0  0  0  0  0  0  0  0  0
    8.7591  -13.8890   28.7297 O   0  0  0  0  0  0  0  0  0  0  0  0
    7.6262  -15.4975   27.6249 O   0  0  0  0  0  0  0  0  0  0  0  0
  1  2  1  0
  2  3  1  0
  4  3  1  0
  5  1  1  0
  5  4  1  0
  5  6  1  1
  7  6  2  0
  8  6  1  0
  9 10  1  1
  9  8  1  0
 10 11  1  0
 12 11  1  0
 13 12  1  0
 13 14  1  0
 15 21  1  0
 15  9  1  0
 16 15  2  0
 18 17  1  6
 19 18  1  0
 20 18  1  0
 20 21  1  6
 22 23  1  0
 22 20  1  0
 24 22  2  0
M  END
$$$$
