PKV.pdb
     RDKit          3D

 24 24  0  0  1  0  0  0  0  0999 V2000
    8.9165  -14.9667   19.2122 N   0  0  0  0  0  0  0  0  0  0  0  0
    7.7348  -15.1876   18.4371 C   0  0  0  0  0  0  0  0  0  0  0  0
    7.0389  -13.8582   18.2863 C   0  0  0  0  0  0  0  0  0  0  0  0
    7.7875  -12.9617   19.2228 C   0  0  0  0  0  0  0  0  0  0  0  0
    8.6630  -13.8405   20.0841 C   0  0  1  0  0  0  0  0  0  0  0  0
    7.9457  -14.3323   21.2864 C   0  0  0  0  0  0  0  0  0  0  0  0
    7.1445  -13.5568   21.8751 O   0  0  0  0  0  0  0  0  0  0  0  0
    8.1287  -15.6455   21.7985 N   0  0  0  0  0  0  0  0  0  0  0  0
    7.5953  -16.0471   23.0585 C   0  0  1  0  0  0  0  0  0  0  0  0
    7.8247  -17.5133   23.3451 C   0  0  0  0  0  0  0  0  0  0  0  0
    7.2727  -17.9450   24.6711 C   0  0  0  0  0  0  0  0  0  0  0  0
    7.5040  -19.4353   24.8009 C   0  0  0  0  0  0  0  0  0  0  0  0
    6.9976  -19.9488   26.1344 C   0  0  0  0  0  0  0  0  0  0  0  0
    7.3888  -21.3383   26.2814 N   0  0  0  0  0  0  0  0  0  0  0  0
    8.2079  -15.2786   24.1971 C   0  0  0  0  0  0  0  0  0  0  0  0
    9.4447  -15.1273   24.3125 O   0  0  0  0  0  0  0  0  0  0  0  0
    6.0628  -12.1530   25.6290 C   0  0  0  0  0  0  0  0  0  0  0  0
    6.7401  -12.9416   26.6997 C   0  0  2  0  0  0  0  0  0  0  0  0
    7.1472  -12.0363   27.8196 C   0  0  0  0  0  0  0  0  0  0  0  0
    7.8742  -13.8025   26.1874 C   0  0  2  0  0  0  0  0  0  0  0  0
    7.3784  -14.6932   25.1900 N   0  0  0  0  0  0  0  0  0  0  0  0
    8.4041  -14.5818   27.3265 C   0  0  0  0  0  0  0  0  0  0  0  0
    9.2135  -14.0283   28.3125 O   0  0  0  0  0  0  0  0  0  0  0  0
    8.1253  -15.7969   27.4300 O   0  0  0  0  0  0  0  0  0  0  0  0
  1  2  1  0
  2  3  1  0
  4  3  1  0
  5  1  1  0
  5  4  1  0
  5  6  1  1
  7  6  2  0
  8  6  1  0
  9 10  1  1
  9  8  1  0
 10 11  1  0
 12 11  1  0
 13 12  1  0
 13 14  1  0
 15 21  1  0
 15  9  1  0
 16 15  2  0
 18 17  1  6
 19 18  1  0
 20 18  1  0
 20 21  1  6
 22 23  1  0
 22 20  1  0
 24 22  2  0
M  END
$$$$
