PKV.pdb
     RDKit          3D

 24 24  0  0  1  0  0  0  0  0999 V2000
    8.8833  -14.6844   19.0364 N   0  0  0  0  0  0  0  0  0  0  0  0
    7.6565  -14.5848   18.3078 C   0  0  0  0  0  0  0  0  0  0  0  0
    7.2175  -13.1428   18.3582 C   0  0  0  0  0  0  0  0  0  0  0  0
    8.1511  -12.5261   19.3528 C   0  0  0  0  0  0  0  0  0  0  0  0
    8.8741  -13.6533   20.0510 C   0  0  1  0  0  0  0  0  0  0  0  0
    8.1169  -14.1578   21.2233 C   0  0  0  0  0  0  0  0  0  0  0  0
    7.2609  -13.4054   21.7628 O   0  0  0  0  0  0  0  0  0  0  0  0
    8.3213  -15.4579   21.7600 N   0  0  0  0  0  0  0  0  0  0  0  0
    7.7928  -15.8450   23.0266 C   0  0  1  0  0  0  0  0  0  0  0  0
    7.9715  -17.3200   23.3037 C   0  0  0  0  0  0  0  0  0  0  0  0
    7.6279  -18.1837   22.1268 C   0  0  0  0  0  0  0  0  0  0  0  0
    7.9154  -19.6191   22.5118 C   0  0  0  0  0  0  0  0  0  0  0  0
    7.6768  -20.5530   21.3416 C   0  0  0  0  0  0  0  0  0  0  0  0
    8.1317  -21.8828   21.7021 N   0  0  0  0  0  0  0  0  0  0  0  0
    8.4513  -15.1050   24.1584 C   0  0  0  0  0  0  0  0  0  0  0  0
    9.6881  -14.9212   24.2070 O   0  0  0  0  0  0  0  0  0  0  0  0
    5.9789  -13.1155   27.1173 C   0  0  0  0  0  0  0  0  0  0  0  0
    7.3634  -12.7315   26.7138 C   0  0  2  0  0  0  0  0  0  0  0  0
    7.3113  -11.6838   25.6465 C   0  0  0  0  0  0  0  0  0  0  0  0
    8.2332  -13.9138   26.3459 C   0  0  2  0  0  0  0  0  0  0  0  0
    7.6672  -14.5858   25.2225 N   0  0  0  0  0  0  0  0  0  0  0  0
    8.2676  -14.8313   27.5047 C   0  0  0  0  0  0  0  0  0  0  0  0
    8.9667  -14.5503   28.6735 O   0  0  0  0  0  0  0  0  0  0  0  0
    7.6470  -15.9164   27.4555 O   0  0  0  0  0  0  0  0  0  0  0  0
  1  2  1  0
  2  3  1  0
  4  3  1  0
  5  1  1  0
  5  4  1  0
  5  6  1  1
  7  6  2  0
  8  6  1  0
  9 10  1  1
  9  8  1  0
 10 11  1  0
 12 11  1  0
 13 12  1  0
 13 14  1  0
 15 21  1  0
 15  9  1  0
 16 15  2  0
 18 17  1  6
 19 18  1  0
 20 18  1  0
 20 21  1  6
 22 23  1  0
 22 20  1  0
 24 22  2  0
M  END
$$$$
