PKV.pdb
     RDKit          3D

 24 24  0  0  1  0  0  0  0  0999 V2000
    8.2869  -15.0283   19.0881 N   0  0  0  0  0  0  0  0  0  0  0  0
    7.1176  -14.4727   18.4799 C   0  0  0  0  0  0  0  0  0  0  0  0
    7.2003  -12.9742   18.6284 C   0  0  0  0  0  0  0  0  0  0  0  0
    8.3578  -12.7767   19.5570 C   0  0  0  0  0  0  0  0  0  0  0  0
    8.7028  -14.1265   20.1400 C   0  0  1  0  0  0  0  0  0  0  0  0
    7.9067  -14.4272   21.3556 C   0  0  0  0  0  0  0  0  0  0  0  0
    7.2233  -13.5049   21.8773 O   0  0  0  0  0  0  0  0  0  0  0  0
    7.8864  -15.7166   21.9531 N   0  0  0  0  0  0  0  0  0  0  0  0
    7.3277  -15.9427   23.2455 C   0  0  1  0  0  0  0  0  0  0  0  0
    7.1858  -17.4126   23.5674 C   0  0  0  0  0  0  0  0  0  0  0  0
    6.2158  -18.1191   22.6678 C   0  0  0  0  0  0  0  0  0  0  0  0
    6.2188  -19.5836   23.0502 C   0  0  0  0  0  0  0  0  0  0  0  0
    5.2828  -20.3785   22.1611 C   0  0  0  0  0  0  0  0  0  0  0  0
    5.3894  -21.7841   22.5050 N   0  0  0  0  0  0  0  0  0  0  0  0
    8.1701  -15.3365   24.3340 C   0  0  0  0  0  0  0  0  0  0  0  0
    9.4204  -15.3271   24.2847 O   0  0  0  0  0  0  0  0  0  0  0  0
    6.1596  -13.3927   27.6362 C   0  0  0  0  0  0  0  0  0  0  0  0
    7.4608  -12.9499   27.0550 C   0  0  2  0  0  0  0  0  0  0  0  0
    7.2301  -11.8487   26.0683 C   0  0  0  0  0  0  0  0  0  0  0  0
    8.2887  -14.0866   26.4963 C   0  0  2  0  0  0  0  0  0  0  0  0
    7.5525  -14.7472   25.4688 N   0  0  0  0  0  0  0  0  0  0  0  0
    8.5607  -15.0353   27.5971 C   0  0  0  0  0  0  0  0  0  0  0  0
    8.0603  -16.3325   27.6208 O   0  0  0  0  0  0  0  0  0  0  0  0
    9.2709  -14.6778   28.5629 O   0  0  0  0  0  0  0  0  0  0  0  0
  1  2  1  0
  2  3  1  0
  4  3  1  0
  5  1  1  0
  5  4  1  0
  5  6  1  1
  7  6  2  0
  8  6  1  0
  9 10  1  1
  9  8  1  0
 10 11  1  0
 12 11  1  0
 13 12  1  0
 13 14  1  0
 15 21  1  0
 15  9  1  0
 16 15  2  0
 18 17  1  6
 19 18  1  0
 20 18  1  0
 20 21  1  6
 22 23  1  0
 22 20  1  0
 24 22  2  0
M  END
$$$$
