PKV.pdb
     RDKit          3D

 24 24  0  0  1  0  0  0  0  0999 V2000
    8.1922  -15.3304   18.9903 N   0  0  0  0  0  0  0  0  0  0  0  0
    7.0929  -14.6457   18.3831 C   0  0  0  0  0  0  0  0  0  0  0  0
    7.3105  -13.1682   18.5921 C   0  0  0  0  0  0  0  0  0  0  0  0
    8.4606  -13.1145   19.5489 C   0  0  0  0  0  0  0  0  0  0  0  0
    8.6665  -14.5115   20.0844 C   0  0  1  0  0  0  0  0  0  0  0  0
    7.8195  -14.7822   21.2724 C   0  0  0  0  0  0  0  0  0  0  0  0
    7.0157  -13.8916   21.6606 O   0  0  0  0  0  0  0  0  0  0  0  0
    7.8812  -16.0084   21.9883 N   0  0  0  0  0  0  0  0  0  0  0  0
    7.3566  -16.1412   23.3077 C   0  0  1  0  0  0  0  0  0  0  0  0
    7.3132  -17.5784   23.7731 C   0  0  0  0  0  0  0  0  0  0  0  0
    6.4515  -18.4493   22.9080 C   0  0  0  0  0  0  0  0  0  0  0  0
    6.6205  -19.8769   23.3817 C   0  0  0  0  0  0  0  0  0  0  0  0
    5.8578  -20.8380   22.4912 C   0  0  0  0  0  0  0  0  0  0  0  0
    6.0995  -22.1937   22.9483 N   0  0  0  0  0  0  0  0  0  0  0  0
    8.1742  -15.3803   24.3151 C   0  0  0  0  0  0  0  0  0  0  0  0
    9.4248  -15.3562   24.2798 O   0  0  0  0  0  0  0  0  0  0  0  0
    8.0853  -11.6082   27.4586 C   0  0  0  0  0  0  0  0  0  0  0  0
    7.4096  -12.5786   26.5482 C   0  0  2  0  0  0  0  0  0  0  0  0
    6.0412  -12.8947   27.0648 C   0  0  0  0  0  0  0  0  0  0  0  0
    8.2377  -13.8122   26.2615 C   0  0  2  0  0  0  0  0  0  0  0  0
    7.5316  -14.6551   25.3532 N   0  0  0  0  0  0  0  0  0  0  0  0
    8.4462  -14.5271   27.5387 C   0  0  0  0  0  0  0  0  0  0  0  0
    9.3270  -14.0851   28.5198 O   0  0  0  0  0  0  0  0  0  0  0  0
    7.8124  -15.5804   27.7707 O   0  0  0  0  0  0  0  0  0  0  0  0
  1  2  1  0
  2  3  1  0
  4  3  1  0
  5  1  1  0
  5  4  1  0
  5  6  1  1
  7  6  2  0
  8  6  1  0
  9 10  1  1
  9  8  1  0
 10 11  1  0
 12 11  1  0
 13 12  1  0
 13 14  1  0
 15 21  1  0
 15  9  1  0
 16 15  2  0
 18 17  1  1
 19 18  1  0
 20 18  1  0
 20 21  1  6
 22 23  1  0
 22 20  1  0
 24 22  2  0
M  END
$$$$
