PKV.pdb
     RDKit          3D

 24 24  0  0  1  0  0  0  0  0999 V2000
    8.6447  -14.6181   19.2698 N   0  0  0  0  0  0  0  0  0  0  0  0
    7.3383  -14.2656   18.8060 C   0  0  0  0  0  0  0  0  0  0  0  0
    7.1062  -12.8198   19.1668 C   0  0  0  0  0  0  0  0  0  0  0  0
    8.2634  -12.4899   20.0573 C   0  0  0  0  0  0  0  0  0  0  0  0
    8.9377  -13.7917   20.4204 C   0  0  1  0  0  0  0  0  0  0  0  0
    8.3245  -14.4209   21.6162 C   0  0  0  0  0  0  0  0  0  0  0  0
    7.5245  -13.7428   22.3163 O   0  0  0  0  0  0  0  0  0  0  0  0
    8.6061  -15.7597   22.0013 N   0  0  0  0  0  0  0  0  0  0  0  0
    8.2796  -16.2589   23.2965 C   0  0  1  0  0  0  0  0  0  0  0  0
    8.2209  -17.7685   23.3389 C   0  0  0  0  0  0  0  0  0  0  0  0
    7.0199  -18.3288   22.6368 C   0  0  0  0  0  0  0  0  0  0  0  0
    7.1247  -19.8381   22.6823 C   0  0  0  0  0  0  0  0  0  0  0  0
    5.9246  -20.4855   22.0197 C   0  0  0  0  0  0  0  0  0  0  0  0
    6.1367  -21.9198   21.9630 N   0  0  0  0  0  0  0  0  0  0  0  0
    9.2839  -15.8316   24.3314 C   0  0  0  0  0  0  0  0  0  0  0  0
   10.5135  -15.8097   24.1005 O   0  0  0  0  0  0  0  0  0  0  0  0
   10.1271  -13.1476   28.3006 C   0  0  0  0  0  0  0  0  0  0  0  0
    9.2806  -13.6645   27.1856 C   0  0  2  0  0  0  0  0  0  0  0  0
    7.8419  -13.6688   27.5975 C   0  0  0  0  0  0  0  0  0  0  0  0
    9.7485  -14.9969   26.6420 C   0  0  2  0  0  0  0  0  0  0  0  0
    8.8505  -15.4339   25.6239 N   0  0  0  0  0  0  0  0  0  0  0  0
    9.7440  -15.9694   27.7556 C   0  0  0  0  0  0  0  0  0  0  0  0
   10.7426  -16.0196   28.7221 O   0  0  0  0  0  0  0  0  0  0  0  0
    8.8096  -16.7952   27.8542 O   0  0  0  0  0  0  0  0  0  0  0  0
  1  2  1  0
  2  3  1  0
  4  3  1  0
  5  1  1  0
  5  4  1  0
  5  6  1  1
  7  6  2  0
  8  6  1  0
  9 10  1  6
  9  8  1  0
 10 11  1  0
 12 11  1  0
 13 12  1  0
 13 14  1  0
 15 21  1  0
 15  9  1  0
 16 15  2  0
 18 17  1  1
 19 18  1  0
 20 18  1  0
 20 21  1  6
 22 23  1  0
 22 20  1  0
 24 22  2  0
M  END
$$$$
