PKV.pdb
     RDKit          3D

 24 24  0  0  1  0  0  0  0  0999 V2000
    8.2545  -15.0485   18.9549 N   0  0  0  0  0  0  0  0  0  0  0  0
    7.0239  -14.5520   18.4211 C   0  0  0  0  0  0  0  0  0  0  0  0
    6.9804  -13.0690   18.6915 C   0  0  0  0  0  0  0  0  0  0  0  0
    8.1432  -12.8448   19.6073 C   0  0  0  0  0  0  0  0  0  0  0  0
    8.6213  -14.2011   20.0684 C   0  0  1  0  0  0  0  0  0  0  0  0
    7.8905  -14.6686   21.2723 C   0  0  0  0  0  0  0  0  0  0  0  0
    6.8055  -14.1053   21.5809 O   0  0  0  0  0  0  0  0  0  0  0  0
    8.3690  -15.7280   22.0901 N   0  0  0  0  0  0  0  0  0  0  0  0
    7.8374  -15.9801   23.3891 C   0  0  1  0  0  0  0  0  0  0  0  0
    8.0144  -17.4180   23.8196 C   0  0  0  0  0  0  0  0  0  0  0  0
    7.5086  -17.6814   25.2067 C   0  0  0  0  0  0  0  0  0  0  0  0
    7.6740  -19.1606   25.4820 C   0  0  0  0  0  0  0  0  0  0  0  0
    6.9973  -19.5497   26.7817 C   0  0  0  0  0  0  0  0  0  0  0  0
    7.2747  -20.9474   27.0552 N   0  0  0  0  0  0  0  0  0  0  0  0
    8.4938  -15.1260   24.4387 C   0  0  0  0  0  0  0  0  0  0  0  0
    9.7372  -15.0479   24.5553 O   0  0  0  0  0  0  0  0  0  0  0  0
    5.9626  -12.7558   27.0123 C   0  0  0  0  0  0  0  0  0  0  0  0
    7.3352  -12.3530   26.5872 C   0  0  2  0  0  0  0  0  0  0  0  0
    7.2542  -11.4181   25.4215 C   0  0  0  0  0  0  0  0  0  0  0  0
    8.2596  -13.5266   26.3463 C   0  0  2  0  0  0  0  0  0  0  0  0
    7.7000  -14.3710   25.3423 N   0  0  0  0  0  0  0  0  0  0  0  0
    8.3799  -14.2785   27.6135 C   0  0  0  0  0  0  0  0  0  0  0  0
    9.0700  -13.7944   28.7195 O   0  0  0  0  0  0  0  0  0  0  0  0
    7.8450  -15.4043   27.7201 O   0  0  0  0  0  0  0  0  0  0  0  0
  1  2  1  0
  2  3  1  0
  4  3  1  0
  5  1  1  0
  5  4  1  0
  5  6  1  1
  7  6  2  0
  8  6  1  0
  9 10  1  1
  9  8  1  0
 10 11  1  0
 12 11  1  0
 13 12  1  0
 13 14  1  0
 15 21  1  0
 15  9  1  0
 16 15  2  0
 18 17  1  6
 19 18  1  0
 20 18  1  0
 20 21  1  6
 22 23  1  0
 22 20  1  0
 24 22  2  0
M  END
$$$$
