PKV.pdb
     RDKit          3D

 24 24  0  0  1  0  0  0  0  0999 V2000
    8.8996  -14.9435   19.2075 N   0  0  0  0  0  0  0  0  0  0  0  0
    7.7169  -15.1070   18.4198 C   0  0  0  0  0  0  0  0  0  0  0  0
    7.0493  -13.7582   18.3228 C   0  0  0  0  0  0  0  0  0  0  0  0
    7.8122  -12.9177   19.2988 C   0  0  0  0  0  0  0  0  0  0  0  0
    8.6657  -13.8501   20.1253 C   0  0  1  0  0  0  0  0  0  0  0  0
    7.9331  -14.3771   21.3033 C   0  0  0  0  0  0  0  0  0  0  0  0
    7.1790  -13.5985   21.9475 O   0  0  0  0  0  0  0  0  0  0  0  0
    8.0505  -15.7271   21.7318 N   0  0  0  0  0  0  0  0  0  0  0  0
    7.5244  -16.1731   22.9799 C   0  0  1  0  0  0  0  0  0  0  0  0
    7.6750  -17.6643   23.1737 C   0  0  0  0  0  0  0  0  0  0  0  0
    7.0666  -18.1538   24.4542 C   0  0  0  0  0  0  0  0  0  0  0  0
    7.1817  -19.6630   24.4692 C   0  0  0  0  0  0  0  0  0  0  0  0
    6.5743  -20.2409   25.7323 C   0  0  0  0  0  0  0  0  0  0  0  0
    6.5288  -21.6863   25.6125 N   0  0  0  0  0  0  0  0  0  0  0  0
    8.2069  -15.5101   24.1448 C   0  0  0  0  0  0  0  0  0  0  0  0
    9.4484  -15.5414   24.2983 O   0  0  0  0  0  0  0  0  0  0  0  0
    6.6508  -12.0791   25.2725 C   0  0  0  0  0  0  0  0  0  0  0  0
    7.0866  -12.8631   26.4651 C   0  0  2  0  0  0  0  0  0  0  0  0
    7.6263  -11.9405   27.5124 C   0  0  0  0  0  0  0  0  0  0  0  0
    8.0292  -13.9980   26.1281 C   0  0  2  0  0  0  0  0  0  0  0  0
    7.4412  -14.8174   25.1196 N   0  0  0  0  0  0  0  0  0  0  0  0
    8.2365  -14.7967   27.3548 C   0  0  0  0  0  0  0  0  0  0  0  0
    9.0907  -14.4041   28.3795 O   0  0  0  0  0  0  0  0  0  0  0  0
    7.6267  -15.8791   27.5009 O   0  0  0  0  0  0  0  0  0  0  0  0
  1  2  1  0
  2  3  1  0
  4  3  1  0
  5  1  1  0
  5  4  1  0
  5  6  1  1
  7  6  2  0
  8  6  1  0
  9 10  1  1
  9  8  1  0
 10 11  1  0
 12 11  1  0
 13 12  1  0
 13 14  1  0
 15 21  1  0
 15  9  1  0
 16 15  2  0
 18 17  1  6
 19 18  1  0
 20 18  1  0
 20 21  1  6
 22 23  1  0
 22 20  1  0
 24 22  2  0
M  END
$$$$
