PKV.pdb
     RDKit          3D

 24 24  0  0  1  0  0  0  0  0999 V2000
    7.8983  -15.1835   18.7917 N   0  0  0  0  0  0  0  0  0  0  0  0
    6.9775  -14.1587   18.4072 C   0  0  0  0  0  0  0  0  0  0  0  0
    7.5736  -12.8373   18.8230 C   0  0  0  0  0  0  0  0  0  0  0  0
    8.7495  -13.2308   19.6618 C   0  0  0  0  0  0  0  0  0  0  0  0
    8.6229  -14.7079   19.9499 C   0  0  1  0  0  0  0  0  0  0  0  0
    7.8001  -14.9706   21.1565 C   0  0  0  0  0  0  0  0  0  0  0  0
    6.7773  -14.2619   21.3601 O   0  0  0  0  0  0  0  0  0  0  0  0
    8.1228  -15.9917   22.0909 N   0  0  0  0  0  0  0  0  0  0  0  0
    7.5235  -16.0511   23.3835 C   0  0  1  0  0  0  0  0  0  0  0  0
    7.4837  -17.4554   23.9408 C   0  0  0  0  0  0  0  0  0  0  0  0
    6.5959  -18.3735   23.1545 C   0  0  0  0  0  0  0  0  0  0  0  0
    7.2424  -19.7421   23.1478 C   0  0  0  0  0  0  0  0  0  0  0  0
    6.3939  -20.7393   22.3834 C   0  0  0  0  0  0  0  0  0  0  0  0
    6.9895  -22.0564   22.5096 N   0  0  0  0  0  0  0  0  0  0  0  0
    8.2629  -15.2052   24.3835 C   0  0  0  0  0  0  0  0  0  0  0  0
    9.5121  -15.1943   24.4560 O   0  0  0  0  0  0  0  0  0  0  0  0
    7.9839  -11.2722   27.3291 C   0  0  0  0  0  0  0  0  0  0  0  0
    7.3481  -12.2791   26.4298 C   0  0  2  0  0  0  0  0  0  0  0  0
    5.9567  -12.5726   26.8960 C   0  0  0  0  0  0  0  0  0  0  0  0
    8.1853  -13.5241   26.2327 C   0  0  2  0  0  0  0  0  0  0  0  0
    7.5445  -14.3804   25.2891 N   0  0  0  0  0  0  0  0  0  0  0  0
    8.2879  -14.2143   27.5361 C   0  0  0  0  0  0  0  0  0  0  0  0
    9.1266  -13.7832   28.5581 O   0  0  0  0  0  0  0  0  0  0  0  0
    7.5987  -15.2354   27.7534 O   0  0  0  0  0  0  0  0  0  0  0  0
  1  2  1  0
  2  3  1  0
  4  3  1  0
  5  1  1  0
  5  4  1  0
  5  6  1  1
  7  6  2  0
  8  6  1  0
  9 10  1  1
  9  8  1  0
 10 11  1  0
 12 11  1  0
 13 12  1  0
 13 14  1  0
 15 21  1  0
 15  9  1  0
 16 15  2  0
 18 17  1  1
 19 18  1  0
 20 18  1  0
 20 21  1  6
 22 23  1  0
 22 20  1  0
 24 22  2  0
M  END
$$$$
