PKV.pdb
     RDKit          3D

 24 24  0  0  1  0  0  0  0  0999 V2000
    8.1565  -15.2018   19.2230 N   0  0  0  0  0  0  0  0  0  0  0  0
    6.9907  -14.6610   18.5950 C   0  0  0  0  0  0  0  0  0  0  0  0
    7.0063  -13.1701   18.8219 C   0  0  0  0  0  0  0  0  0  0  0  0
    8.1168  -12.9765   19.8070 C   0  0  0  0  0  0  0  0  0  0  0  0
    8.4931  -14.3404   20.3354 C   0  0  1  0  0  0  0  0  0  0  0  0
    7.6620  -14.7343   21.4999 C   0  0  0  0  0  0  0  0  0  0  0  0
    6.8535  -13.8946   21.9807 O   0  0  0  0  0  0  0  0  0  0  0  0
    7.7440  -16.0233   22.0929 N   0  0  0  0  0  0  0  0  0  0  0  0
    7.2816  -16.2772   23.4177 C   0  0  1  0  0  0  0  0  0  0  0  0
    7.2356  -17.7523   23.7437 C   0  0  0  0  0  0  0  0  0  0  0  0
    6.3110  -18.5222   22.8483 C   0  0  0  0  0  0  0  0  0  0  0  0
    6.4441  -19.9877   23.2029 C   0  0  0  0  0  0  0  0  0  0  0  0
    5.5441  -20.8409   22.3308 C   0  0  0  0  0  0  0  0  0  0  0  0
    5.7812  -22.2390   22.6379 N   0  0  0  0  0  0  0  0  0  0  0  0
    8.1602  -15.6286   24.4519 C   0  0  0  0  0  0  0  0  0  0  0  0
    9.4075  -15.6096   24.3525 O   0  0  0  0  0  0  0  0  0  0  0  0
    6.7022  -12.3661   26.2003 C   0  0  0  0  0  0  0  0  0  0  0  0
    7.4422  -13.2157   27.1789 C   0  0  2  0  0  0  0  0  0  0  0  0
    8.1592  -12.3494   28.1663 C   0  0  0  0  0  0  0  0  0  0  0  0
    8.3405  -14.2434   26.5256 C   0  0  2  0  0  0  0  0  0  0  0  0
    7.5820  -15.0085   25.5911 N   0  0  0  0  0  0  0  0  0  0  0  0
    8.8602  -15.1329   27.5860 C   0  0  0  0  0  0  0  0  0  0  0  0
    9.9060  -14.7756   28.4300 O   0  0  0  0  0  0  0  0  0  0  0  0
    8.3521  -16.2641   27.7511 O   0  0  0  0  0  0  0  0  0  0  0  0
  1  2  1  0
  2  3  1  0
  4  3  1  0
  5  1  1  0
  5  4  1  0
  5  6  1  1
  7  6  2  0
  8  6  1  0
  9 10  1  1
  9  8  1  0
 10 11  1  0
 12 11  1  0
 13 12  1  0
 13 14  1  0
 15 21  1  0
 15  9  1  0
 16 15  2  0
 18 17  1  6
 19 18  1  0
 20 18  1  0
 20 21  1  6
 22 23  1  0
 22 20  1  0
 24 22  2  0
M  END
$$$$
