PKV.pdb
     RDKit          3D

 24 24  0  0  1  0  0  0  0  0999 V2000
    8.8320  -15.0672   19.2368 N   0  0  0  0  0  0  0  0  0  0  0  0
    7.6120  -15.2484   18.5126 C   0  0  0  0  0  0  0  0  0  0  0  0
    6.9860  -13.8879   18.3354 C   0  0  0  0  0  0  0  0  0  0  0  0
    7.8174  -13.0021   19.2101 C   0  0  0  0  0  0  0  0  0  0  0  0
    8.6740  -13.8975   20.0733 C   0  0  1  0  0  0  0  0  0  0  0  0
    7.9755  -14.3038   21.3179 C   0  0  0  0  0  0  0  0  0  0  0  0
    7.3272  -13.4348   21.9617 O   0  0  0  0  0  0  0  0  0  0  0  0
    8.0104  -15.6365   21.8106 N   0  0  0  0  0  0  0  0  0  0  0  0
    7.3988  -16.0026   23.0457 C   0  0  1  0  0  0  0  0  0  0  0  0
    7.4728  -17.4885   23.3120 C   0  0  0  0  0  0  0  0  0  0  0  0
    6.8427  -17.8830   24.6145 C   0  0  0  0  0  0  0  0  0  0  0  0
    6.8735  -19.3939   24.6999 C   0  0  0  0  0  0  0  0  0  0  0  0
    8.1881  -19.8779   25.2795 C   0  0  0  0  0  0  0  0  0  0  0  0
    8.1854  -21.3287   25.3019 N   0  0  0  0  0  0  0  0  0  0  0  0
    8.0464  -15.3162   24.2169 C   0  0  0  0  0  0  0  0  0  0  0  0
    9.2854  -15.3194   24.3920 O   0  0  0  0  0  0  0  0  0  0  0  0
    6.0347  -12.1057   25.7562 C   0  0  0  0  0  0  0  0  0  0  0  0
    6.7259  -12.9359   26.7857 C   0  0  2  0  0  0  0  0  0  0  0  0
    7.2142  -12.0643   27.8998 C   0  0  0  0  0  0  0  0  0  0  0  0
    7.8037  -13.8307   26.2134 C   0  0  2  0  0  0  0  0  0  0  0  0
    7.2490  -14.6330   25.1729 N   0  0  0  0  0  0  0  0  0  0  0  0
    8.2957  -14.7030   27.3009 C   0  0  0  0  0  0  0  0  0  0  0  0
    9.1763  -14.2652   28.2841 O   0  0  0  0  0  0  0  0  0  0  0  0
    7.9168  -15.8937   27.3607 O   0  0  0  0  0  0  0  0  0  0  0  0
  1  2  1  0
  2  3  1  0
  4  3  1  0
  5  1  1  0
  5  4  1  0
  5  6  1  1
  7  6  2  0
  8  6  1  0
  9 10  1  1
  9  8  1  0
 10 11  1  0
 12 11  1  0
 13 12  1  0
 13 14  1  0
 15 21  1  0
 15  9  1  0
 16 15  2  0
 18 17  1  6
 19 18  1  0
 20 18  1  0
 20 21  1  6
 22 23  1  0
 22 20  1  0
 24 22  2  0
M  END
$$$$
