PKV.pdb
     RDKit          3D

 24 24  0  0  1  0  0  0  0  0999 V2000
    8.8933  -14.8789   19.1377 N   0  0  0  0  0  0  0  0  0  0  0  0
    7.7218  -14.7270   18.3312 C   0  0  0  0  0  0  0  0  0  0  0  0
    7.2741  -13.2919   18.4516 C   0  0  0  0  0  0  0  0  0  0  0  0
    8.1307  -12.7479   19.5521 C   0  0  0  0  0  0  0  0  0  0  0  0
    8.8063  -13.9223   20.2194 C   0  0  1  0  0  0  0  0  0  0  0  0
    7.9688  -14.5079   21.2952 C   0  0  0  0  0  0  0  0  0  0  0  0
    6.9296  -13.8930   21.6584 O   0  0  0  0  0  0  0  0  0  0  0  0
    8.2951  -15.7364   21.9311 N   0  0  0  0  0  0  0  0  0  0  0  0
    7.8211  -16.0620   23.2360 C   0  0  1  0  0  0  0  0  0  0  0  0
    8.0880  -17.5024   23.6078 C   0  0  0  0  0  0  0  0  0  0  0  0
    7.1545  -18.0187   24.6620 C   0  0  0  0  0  0  0  0  0  0  0  0
    7.5652  -19.4399   24.9822 C   0  0  0  0  0  0  0  0  0  0  0  0
    6.5660  -20.0966   25.9143 C   0  0  0  0  0  0  0  0  0  0  0  0
    6.9081  -21.4995   26.0561 N   0  0  0  0  0  0  0  0  0  0  0  0
    8.4661  -15.2109   24.2952 C   0  0  0  0  0  0  0  0  0  0  0  0
    9.7008  -15.0109   24.3317 O   0  0  0  0  0  0  0  0  0  0  0  0
    5.9203  -13.3064   27.2378 C   0  0  0  0  0  0  0  0  0  0  0  0
    7.1575  -12.6970   26.6679 C   0  0  2  0  0  0  0  0  0  0  0  0
    6.8002  -11.7679   25.5506 C   0  0  0  0  0  0  0  0  0  0  0  0
    8.2080  -13.7157   26.2825 C   0  0  2  0  0  0  0  0  0  0  0  0
    7.6712  -14.6005   25.3011 N   0  0  0  0  0  0  0  0  0  0  0  0
    8.5655  -14.4817   27.4954 C   0  0  0  0  0  0  0  0  0  0  0  0
    9.3038  -13.9415   28.5428 O   0  0  0  0  0  0  0  0  0  0  0  0
    8.1985  -15.6723   27.6080 O   0  0  0  0  0  0  0  0  0  0  0  0
  1  2  1  0
  2  3  1  0
  4  3  1  0
  5  1  1  0
  5  4  1  0
  5  6  1  1
  7  6  2  0
  8  6  1  0
  9 10  1  1
  9  8  1  0
 10 11  1  0
 12 11  1  0
 13 12  1  0
 13 14  1  0
 15 21  1  0
 15  9  1  0
 16 15  2  0
 18 17  1  6
 19 18  1  0
 20 18  1  0
 20 21  1  6
 22 23  1  0
 22 20  1  0
 24 22  2  0
M  END
$$$$
