PKV.pdb
     RDKit          3D

 24 24  0  0  1  0  0  0  0  0999 V2000
    8.2223  -14.7068   18.8403 N   0  0  0  0  0  0  0  0  0  0  0  0
    7.0587  -13.9420   18.5132 C   0  0  0  0  0  0  0  0  0  0  0  0
    7.3217  -12.5179   18.9341 C   0  0  0  0  0  0  0  0  0  0  0  0
    8.5930  -12.6126   19.7188 C   0  0  0  0  0  0  0  0  0  0  0  0
    8.8530  -14.0773   19.9799 C   0  0  1  0  0  0  0  0  0  0  0  0
    8.1740  -14.5516   21.2111 C   0  0  0  0  0  0  0  0  0  0  0  0
    7.1734  -13.9134   21.6371 O   0  0  0  0  0  0  0  0  0  0  0  0
    8.6103  -15.6989   21.9277 N   0  0  0  0  0  0  0  0  0  0  0  0
    8.0701  -16.0463   23.2008 C   0  0  1  0  0  0  0  0  0  0  0  0
    8.2936  -17.4999   23.5491 C   0  0  0  0  0  0  0  0  0  0  0  0
    7.5562  -18.4402   22.6428 C   0  0  0  0  0  0  0  0  0  0  0  0
    8.5868  -19.2466   21.8821 C   0  0  0  0  0  0  0  0  0  0  0  0
    7.9283  -20.1046   20.8197 C   0  0  0  0  0  0  0  0  0  0  0  0
    7.4592  -21.3331   21.4327 N   0  0  0  0  0  0  0  0  0  0  0  0
    8.6800  -15.2328   24.3093 C   0  0  0  0  0  0  0  0  0  0  0  0
    9.9054  -14.9845   24.3598 O   0  0  0  0  0  0  0  0  0  0  0  0
    6.0503  -13.3585   27.1848 C   0  0  0  0  0  0  0  0  0  0  0  0
    7.3845  -12.8392   26.7642 C   0  0  2  0  0  0  0  0  0  0  0  0
    7.2178  -11.8312   25.6708 C   0  0  0  0  0  0  0  0  0  0  0  0
    8.3750  -13.9308   26.4219 C   0  0  2  0  0  0  0  0  0  0  0  0
    7.8610  -14.7158   25.3478 N   0  0  0  0  0  0  0  0  0  0  0  0
    8.5452  -14.7822   27.6186 C   0  0  0  0  0  0  0  0  0  0  0  0
    9.2158  -14.3588   28.7608 O   0  0  0  0  0  0  0  0  0  0  0  0
    8.0731  -15.9406   27.6281 O   0  0  0  0  0  0  0  0  0  0  0  0
  1  2  1  0
  2  3  1  0
  4  3  1  0
  5  1  1  0
  5  4  1  0
  5  6  1  1
  7  6  2  0
  8  6  1  0
  9 10  1  1
  9  8  1  0
 10 11  1  0
 12 11  1  0
 13 12  1  0
 13 14  1  0
 15 21  1  0
 15  9  1  0
 16 15  2  0
 18 17  1  6
 19 18  1  0
 20 18  1  0
 20 21  1  6
 22 23  1  0
 22 20  1  0
 24 22  2  0
M  END
$$$$
