QHM.pdb
     RDKit          3D

 28 28  0  0  1  0  0  0  0  0999 V2000
   22.1926  -28.2600  -12.5720 N   0  0  0  0  0  0  0  0  0  0  0  0
   20.9048  -27.6761  -12.7881 C   0  0  0  0  0  0  0  0  0  0  0  0
   20.7813  -26.9482  -13.8024 O   0  0  0  0  0  0  0  0  0  0  0  0
   19.8392  -27.9713  -11.8196 C   0  0  0  0  0  0  0  0  0  0  0  0
   20.2873  -28.8409  -10.6839 C   0  0  0  0  0  0  0  0  0  0  0  0
   19.1846  -29.1112   -9.7190 C   0  0  2  0  0  0  0  0  0  0  0  0
   18.0344  -29.5657  -10.5069 N   0  0  0  0  0  0  0  0  0  0  0  0
   18.7925  -27.9031   -8.9451 C   0  0  0  0  0  0  0  0  0  0  0  0
   19.6119  -27.2592   -8.2264 O   0  0  0  0  0  0  0  0  0  0  0  0
   17.4703  -27.4461   -9.0021 N   0  0  0  0  0  0  0  0  0  0  0  0
   16.9650  -26.3226   -8.2417 C   0  0  1  0  0  0  0  0  0  0  0  0
   15.8763  -25.5789   -8.9508 C   0  0  0  0  0  0  0  0  0  0  0  0
   15.5735  -24.2579   -8.3471 C   0  0  0  0  0  0  0  0  0  0  0  0
   16.1332  -23.6104   -7.2701 C   0  0  0  0  0  0  0  0  0  0  0  0
   15.4825  -22.4424   -7.1467 N   0  0  0  0  0  0  0  0  0  0  0  0
   14.5464  -22.3125   -8.0794 C   0  0  0  0  0  0  0  0  0  0  0  0
   14.6142  -23.4376   -8.8109 N   0  0  0  0  0  0  0  0  0  0  0  0
   16.5895  -26.7432   -6.8540 C   0  0  0  0  0  0  0  0  0  0  0  0
   15.7741  -27.6772   -6.6454 O   0  0  0  0  0  0  0  0  0  0  0  0
   20.3510  -25.8943   -0.7448 C   0  0  0  0  0  0  0  0  0  0  0  0
   19.6805  -27.4485   -1.4187 S   0  0  0  0  0  0  0  0  0  0  0  0
   18.1418  -27.2172   -2.2426 C   0  0  0  0  0  0  0  0  0  0  0  0
   18.0597  -26.8720   -3.6520 C   0  0  0  0  0  0  0  0  0  0  0  0
   16.7810  -26.6448   -4.3369 C   0  0  2  0  0  0  0  0  0  0  0  0
   17.1259  -26.1195   -5.7139 N   0  0  0  0  0  0  0  0  0  0  0  0
   15.9837  -25.4935   -3.7776 C   0  0  0  0  0  0  0  0  0  0  0  0
   15.0602  -25.7825   -2.9196 O   0  0  0  0  0  0  0  0  0  0  0  0
   16.1189  -24.1843   -4.0718 O   0  0  0  0  0  0  0  0  0  0  0  0
  1  2  1  0
  2  3  2  0
  4  5  1  0
  4  2  1  0
  5  6  1  0
  6  7  1  6
  8  6  1  0
  8  9  2  0
 10  8  1  0
 11 10  1  0
 11 12  1  6
 13 14  2  0
 13 12  1  0
 15 14  1  0
 16 17  2  0
 16 15  1  0
 17 13  1  0
 18 11  1  0
 19 18  2  0
 21 20  1  0
 22 21  1  0
 24 23  1  1
 23 22  1  0
 24 25  1  0
 25 18  1  0
 26 24  1  0
 27 26  2  0
 28 26  1  0
M  END
$$$$
