QHM.pdb
     RDKit          3D

 28 28  0  0  1  0  0  0  0  0999 V2000
   17.2638  -12.9566  -15.0057 N   0  0  0  0  0  0  0  0  0  0  0  0
   17.7573  -13.6307  -16.1667 C   0  0  0  0  0  0  0  0  0  0  0  0
   17.0379  -14.5470  -16.6325 O   0  0  0  0  0  0  0  0  0  0  0  0
   19.0508  -13.2029  -16.7185 C   0  0  0  0  0  0  0  0  0  0  0  0
   19.6496  -12.0316  -15.9999 C   0  0  0  0  0  0  0  0  0  0  0  0
   20.2309  -11.0356  -16.9433 C   0  0  2  0  0  0  0  0  0  0  0  0
   21.1026  -11.7784  -17.8592 N   0  0  0  0  0  0  0  0  0  0  0  0
   21.0348   -9.9931  -16.2510 C   0  0  0  0  0  0  0  0  0  0  0  0
   20.9412   -9.7753  -15.0074 O   0  0  0  0  0  0  0  0  0  0  0  0
   21.9347   -9.2133  -16.9874 N   0  0  0  0  0  0  0  0  0  0  0  0
   22.7900   -8.1972  -16.4116 C   0  0  1  0  0  0  0  0  0  0  0  0
   24.2287   -8.3590  -16.7930 C   0  0  0  0  0  0  0  0  0  0  0  0
   24.8724   -9.5463  -16.1786 C   0  0  0  0  0  0  0  0  0  0  0  0
   24.3934  -10.4611  -15.2697 C   0  0  0  0  0  0  0  0  0  0  0  0
   25.3900  -11.3320  -15.0436 N   0  0  0  0  0  0  0  0  0  0  0  0
   26.4687  -11.0235  -15.7536 C   0  0  0  0  0  0  0  0  0  0  0  0
   26.1352   -9.9222  -16.4474 N   0  0  0  0  0  0  0  0  0  0  0  0
   22.2530   -6.8269  -16.6905 C   0  0  0  0  0  0  0  0  0  0  0  0
   22.1752   -6.3742  -17.8609 O   0  0  0  0  0  0  0  0  0  0  0  0
   16.4836   -1.9712  -16.5671 C   0  0  0  0  0  0  0  0  0  0  0  0
   17.2659   -3.5835  -16.2384 S   0  0  0  0  0  0  0  0  0  0  0  0
   19.0224   -3.4802  -16.1779 C   0  0  0  0  0  0  0  0  0  0  0  0
   19.8676   -4.6601  -16.1008 C   0  0  0  0  0  0  0  0  0  0  0  0
   21.3300   -4.5795  -15.9983 C   0  0  2  0  0  0  0  0  0  0  0  0
   21.8085   -5.9759  -15.6635 N   0  0  0  0  0  0  0  0  0  0  0  0
   21.8174   -3.8092  -14.7970 C   0  0  0  0  0  0  0  0  0  0  0  0
   21.7546   -2.5192  -14.8633 O   0  0  0  0  0  0  0  0  0  0  0  0
   22.3194   -4.3115  -13.6505 O   0  0  0  0  0  0  0  0  0  0  0  0
  1  2  1  0
  2  3  2  0
  4  5  1  0
  4  2  1  0
  5  6  1  0
  6  7  1  6
  8  6  1  0
  8  9  2  0
 10  8  1  0
 11 10  1  0
 11 12  1  6
 13 14  2  0
 13 12  1  0
 15 14  1  0
 16 17  2  0
 16 15  1  0
 17 13  1  0
 18 11  1  0
 19 18  2  0
 21 20  1  0
 22 21  1  0
 24 23  1  1
 23 22  1  0
 24 25  1  0
 25 18  1  0
 26 24  1  0
 27 26  2  0
 28 26  1  0
M  END
$$$$
