QHM.pdb
     RDKit          3D

 28 28  0  0  1  0  0  0  0  0999 V2000
   18.7355  -14.3130  -15.3473 N   0  0  0  0  0  0  0  0  0  0  0  0
   17.8054  -13.7988  -16.3046 C   0  0  0  0  0  0  0  0  0  0  0  0
   16.6353  -14.2476  -16.2478 O   0  0  0  0  0  0  0  0  0  0  0  0
   18.2850  -12.7964  -17.2668 C   0  0  0  0  0  0  0  0  0  0  0  0
   19.7209  -12.4152  -17.0678 C   0  0  0  0  0  0  0  0  0  0  0  0
   19.9827  -11.0015  -17.4589 C   0  0  2  0  0  0  0  0  0  0  0  0
   20.5392  -11.0336  -18.8153 N   0  0  0  0  0  0  0  0  0  0  0  0
   20.9529  -10.3280  -16.5550 C   0  0  0  0  0  0  0  0  0  0  0  0
   20.7446  -10.1899  -15.3139 O   0  0  0  0  0  0  0  0  0  0  0  0
   22.1480   -9.8214  -17.0796 N   0  0  0  0  0  0  0  0  0  0  0  0
   23.1204   -9.0730  -16.3114 C   0  0  1  0  0  0  0  0  0  0  0  0
   24.5341   -9.4147  -16.6662 C   0  0  0  0  0  0  0  0  0  0  0  0
   24.9054  -10.8119  -16.3328 C   0  0  0  0  0  0  0  0  0  0  0  0
   24.2167  -11.7885  -15.6512 C   0  0  0  0  0  0  0  0  0  0  0  0
   25.0129  -12.8694  -15.6255 N   0  0  0  0  0  0  0  0  0  0  0  0
   26.1618  -12.6355  -16.2487 C   0  0  0  0  0  0  0  0  0  0  0  0
   26.0812  -11.3651  -16.6788 N   0  0  0  0  0  0  0  0  0  0  0  0
   22.8321   -7.6044  -16.3716 C   0  0  0  0  0  0  0  0  0  0  0  0
   22.7382   -6.9946  -17.4671 O   0  0  0  0  0  0  0  0  0  0  0  0
   18.3265   -2.1347  -17.3312 C   0  0  0  0  0  0  0  0  0  0  0  0
   18.9510   -3.8440  -17.2434 S   0  0  0  0  0  0  0  0  0  0  0  0
   20.4471   -3.9683  -16.3236 C   0  0  0  0  0  0  0  0  0  0  0  0
   21.1357   -5.2332  -16.1281 C   0  0  0  0  0  0  0  0  0  0  0  0
   22.3643   -5.3496  -15.3327 C   0  0  2  0  0  0  0  0  0  0  0  0
   22.6515   -6.8307  -15.2117 N   0  0  0  0  0  0  0  0  0  0  0  0
   22.1935   -4.9671  -13.8840 C   0  0  0  0  0  0  0  0  0  0  0  0
   21.9464   -5.9245  -13.0505 O   0  0  0  0  0  0  0  0  0  0  0  0
   22.2654   -3.7311  -13.3495 O   0  0  0  0  0  0  0  0  0  0  0  0
  1  2  1  0
  2  3  2  0
  4  5  1  0
  4  2  1  0
  5  6  1  0
  6  7  1  6
  8  6  1  0
  8  9  2  0
 10  8  1  0
 11 10  1  0
 11 12  1  6
 13 14  2  0
 13 12  1  0
 15 14  1  0
 16 17  2  0
 16 15  1  0
 17 13  1  0
 18 11  1  0
 19 18  2  0
 21 20  1  0
 22 21  1  0
 24 23  1  6
 23 22  1  0
 24 25  1  0
 25 18  1  0
 26 24  1  0
 27 26  2  0
 28 26  1  0
M  END
$$$$
