QHM.pdb
     RDKit          3D

 28 28  0  0  1  0  0  0  0  0999 V2000
   15.1245  -17.8527  -15.6542 N   0  0  0  0  0  0  0  0  0  0  0  0
   15.0505  -16.6842  -14.8327 C   0  0  0  0  0  0  0  0  0  0  0  0
   15.0442  -16.8695  -13.5919 O   0  0  0  0  0  0  0  0  0  0  0  0
   14.9904  -15.3739  -15.4961 C   0  0  0  0  0  0  0  0  0  0  0  0
   16.1937  -14.5177  -15.2395 C   0  0  0  0  0  0  0  0  0  0  0  0
   16.0637  -13.1707  -15.8628 C   0  0  2  0  0  0  0  0  0  0  0  0
   15.4154  -13.3667  -17.1635 N   0  0  0  0  0  0  0  0  0  0  0  0
   17.3787  -12.5085  -16.0739 C   0  0  0  0  0  0  0  0  0  0  0  0
   18.2035  -12.3170  -15.1328 O   0  0  0  0  0  0  0  0  0  0  0  0
   17.7346  -12.0741  -17.3564 N   0  0  0  0  0  0  0  0  0  0  0  0
   19.0387  -11.5508  -17.7046 C   0  0  1  0  0  0  0  0  0  0  0  0
   19.2769  -11.5100  -19.1821 C   0  0  0  0  0  0  0  0  0  0  0  0
   20.6572  -11.1060  -19.5467 C   0  0  0  0  0  0  0  0  0  0  0  0
   21.7590  -10.8552  -18.7622 C   0  0  0  0  0  0  0  0  0  0  0  0
   22.7540  -10.5181  -19.5984 N   0  0  0  0  0  0  0  0  0  0  0  0
   22.3483  -10.5406  -20.8625 C   0  0  0  0  0  0  0  0  0  0  0  0
   21.0557  -10.9041  -20.8151 N   0  0  0  0  0  0  0  0  0  0  0  0
   19.2848  -10.2374  -17.0277 C   0  0  0  0  0  0  0  0  0  0  0  0
   18.3604   -9.4044  -16.8475 O   0  0  0  0  0  0  0  0  0  0  0  0
   22.3019   -6.2430  -11.3668 C   0  0  0  0  0  0  0  0  0  0  0  0
   21.4025   -7.4047  -12.4443 S   0  0  0  0  0  0  0  0  0  0  0  0
   22.2893   -7.7812  -13.9179 C   0  0  0  0  0  0  0  0  0  0  0  0
   21.8406   -8.7961  -14.8565 C   0  0  0  0  0  0  0  0  0  0  0  0
   20.7266   -8.5749  -15.7870 C   0  0  2  0  0  0  0  0  0  0  0  0
   20.5570   -9.8659  -16.5587 N   0  0  0  0  0  0  0  0  0  0  0  0
   21.0430   -7.6093  -16.9013 C   0  0  0  0  0  0  0  0  0  0  0  0
   21.7670   -8.0558  -17.8755 O   0  0  0  0  0  0  0  0  0  0  0  0
   20.6591   -6.3204  -17.0017 O   0  0  0  0  0  0  0  0  0  0  0  0
  1  2  1  0
  2  3  2  0
  4  5  1  0
  4  2  1  0
  5  6  1  0
  6  7  1  6
  8  6  1  0
  8  9  2  0
 10  8  1  0
 11 10  1  0
 11 12  1  6
 13 14  2  0
 13 12  1  0
 15 14  1  0
 16 17  2  0
 16 15  1  0
 17 13  1  0
 18 11  1  0
 19 18  2  0
 21 20  1  0
 22 21  1  0
 24 23  1  1
 23 22  1  0
 24 25  1  0
 25 18  1  0
 26 24  1  0
 27 26  2  0
 28 26  1  0
M  END
$$$$
