QHM.pdb
     RDKit          3D

 28 28  0  0  1  0  0  0  0  0999 V2000
   25.5905   -9.6870  -15.2286 N   0  0  0  0  0  0  0  0  0  0  0  0
   25.1699  -10.8365  -15.9687 C   0  0  0  0  0  0  0  0  0  0  0  0
   26.0098  -11.7593  -16.0981 O   0  0  0  0  0  0  0  0  0  0  0  0
   23.8040  -10.8488  -16.5116 C   0  0  0  0  0  0  0  0  0  0  0  0
   23.0097   -9.6271  -16.1603 C   0  0  0  0  0  0  0  0  0  0  0  0
   21.7646   -9.9658  -15.4153 C   0  0  2  0  0  0  0  0  0  0  0  0
   20.9365  -10.7713  -16.3186 N   0  0  0  0  0  0  0  0  0  0  0  0
   20.9976   -8.7596  -15.0043 C   0  0  0  0  0  0  0  0  0  0  0  0
   20.0711   -8.2676  -15.7129 O   0  0  0  0  0  0  0  0  0  0  0  0
   21.2985   -8.1311  -13.7899 N   0  0  0  0  0  0  0  0  0  0  0  0
   20.6274   -6.9457  -13.2999 C   0  0  1  0  0  0  0  0  0  0  0  0
   20.2457   -7.0447  -11.8557 C   0  0  0  0  0  0  0  0  0  0  0  0
   19.0341   -7.8682  -11.6204 C   0  0  0  0  0  0  0  0  0  0  0  0
   18.1328   -8.4169  -12.5030 C   0  0  0  0  0  0  0  0  0  0  0  0
   17.2186   -9.0635  -11.7621 N   0  0  0  0  0  0  0  0  0  0  0  0
   17.4870   -8.9568  -10.4661 C   0  0  0  0  0  0  0  0  0  0  0  0
   18.6073   -8.2184  -10.3942 N   0  0  0  0  0  0  0  0  0  0  0  0
   21.4170   -5.7141  -13.6216 C   0  0  0  0  0  0  0  0  0  0  0  0
   22.6200   -5.5927  -13.2769 O   0  0  0  0  0  0  0  0  0  0  0  0
   23.3042   -1.0530  -19.4742 C   0  0  0  0  0  0  0  0  0  0  0  0
   22.3696   -2.4469  -18.7648 S   0  0  0  0  0  0  0  0  0  0  0  0
   22.3925   -2.4469  -17.0043 C   0  0  0  0  0  0  0  0  0  0  0  0
   21.7305   -3.4753  -16.2191 C   0  0  0  0  0  0  0  0  0  0  0  0
   21.7402   -3.4775  -14.7509 C   0  0  2  0  0  0  0  0  0  0  0  0
   20.8588   -4.6314  -14.3235 N   0  0  0  0  0  0  0  0  0  0  0  0
   21.0119   -2.3107  -14.1327 C   0  0  0  0  0  0  0  0  0  0  0  0
   19.7564   -2.4761  -13.8705 O   0  0  0  0  0  0  0  0  0  0  0  0
   21.5195   -1.1009  -13.8205 O   0  0  0  0  0  0  0  0  0  0  0  0
  1  2  1  0
  2  3  2  0
  4  5  1  0
  4  2  1  0
  5  6  1  0
  6  7  1  6
  8  6  1  0
  8  9  2  0
 10  8  1  0
 11 10  1  0
 11 12  1  1
 13 14  2  0
 13 12  1  0
 15 14  1  0
 16 17  2  0
 16 15  1  0
 17 13  1  0
 18 11  1  0
 19 18  2  0
 21 20  1  0
 22 21  1  0
 24 23  1  6
 23 22  1  0
 24 25  1  0
 25 18  1  0
 26 24  1  0
 27 26  2  0
 28 26  1  0
M  END
$$$$
