QHM.pdb
     RDKit          3D

 28 28  0  0  1  0  0  0  0  0999 V2000
   32.3451  -30.8421  -23.2399 N   0  0  0  0  0  0  0  0  0  0  0  0
   33.6476  -31.4177  -23.3735 C   0  0  0  0  0  0  0  0  0  0  0  0
   34.1921  -31.3197  -24.4996 O   0  0  0  0  0  0  0  0  0  0  0  0
   34.2409  -32.0692  -22.1970 C   0  0  0  0  0  0  0  0  0  0  0  0
   33.4198  -31.9182  -20.9521 C   0  0  0  0  0  0  0  0  0  0  0  0
   33.8919  -30.7864  -20.1058 C   0  0  2  0  0  0  0  0  0  0  0  0
   35.0567  -31.2729  -19.3594 N   0  0  0  0  0  0  0  0  0  0  0  0
   32.8590  -30.3240  -19.1407 C   0  0  0  0  0  0  0  0  0  0  0  0
   32.7381  -30.8209  -17.9826 O   0  0  0  0  0  0  0  0  0  0  0  0
   31.9782  -29.3004  -19.5102 N   0  0  0  0  0  0  0  0  0  0  0  0
   30.9250  -28.7877  -18.6596 C   0  0  1  0  0  0  0  0  0  0  0  0
   30.5594  -27.3699  -18.9718 C   0  0  0  0  0  0  0  0  0  0  0  0
   29.5237  -26.8140  -18.0664 C   0  0  0  0  0  0  0  0  0  0  0  0
   28.8616  -27.3791  -17.0012 C   0  0  0  0  0  0  0  0  0  0  0  0
   28.0206  -26.4423  -16.5343 N   0  0  0  0  0  0  0  0  0  0  0  0
   28.1109  -25.3206  -17.2390 C   0  0  0  0  0  0  0  0  0  0  0  0
   29.0400  -25.5644  -18.1786 N   0  0  0  0  0  0  0  0  0  0  0  0
   29.7487  -29.7150  -18.6488 C   0  0  0  0  0  0  0  0  0  0  0  0
   29.3273  -30.2586  -19.7013 O   0  0  0  0  0  0  0  0  0  0  0  0
   24.1924  -32.9471  -14.6738 C   0  0  0  0  0  0  0  0  0  0  0  0
   24.8459  -31.8155  -15.9435 S   0  0  0  0  0  0  0  0  0  0  0  0
   26.3632  -31.0646  -15.4601 C   0  0  0  0  0  0  0  0  0  0  0  0
   27.6248  -31.3729  -16.1126 C   0  0  0  0  0  0  0  0  0  0  0  0
   27.9031  -31.0084  -17.5074 C   0  0  2  0  0  0  0  0  0  0  0  0
   29.0545  -30.0269  -17.4667 N   0  0  0  0  0  0  0  0  0  0  0  0
   26.8265  -30.1676  -18.1463 C   0  0  0  0  0  0  0  0  0  0  0  0
   26.8392  -28.9013  -17.8840 O   0  0  0  0  0  0  0  0  0  0  0  0
   25.8394  -30.5848  -18.9650 O   0  0  0  0  0  0  0  0  0  0  0  0
  1  2  1  0
  2  3  2  0
  4  5  1  0
  4  2  1  0
  5  6  1  0
  6  7  1  1
  8  6  1  0
  8  9  2  0
 10  8  1  0
 11 10  1  0
 11 12  1  6
 13 14  2  0
 13 12  1  0
 15 14  1  0
 16 17  2  0
 16 15  1  0
 17 13  1  0
 18 11  1  0
 19 18  2  0
 21 20  1  0
 22 21  1  0
 24 23  1  1
 23 22  1  0
 24 25  1  0
 25 18  1  0
 26 24  1  0
 27 26  2  0
 28 26  1  0
M  END
$$$$
