QHM.pdb
     RDKit          3D

 28 28  0  0  1  0  0  0  0  0999 V2000
   30.4732  -23.0358  -16.6751 N   0  0  0  0  0  0  0  0  0  0  0  0
   30.1995  -22.6726  -18.0312 C   0  0  0  0  0  0  0  0  0  0  0  0
   30.6280  -23.4496  -18.9182 O   0  0  0  0  0  0  0  0  0  0  0  0
   29.4458  -21.4350  -18.2780 C   0  0  0  0  0  0  0  0  0  0  0  0
   29.3896  -20.5220  -17.0906 C   0  0  0  0  0  0  0  0  0  0  0  0
   28.2809  -20.8812  -16.1622 C   0  0  2  0  0  0  0  0  0  0  0  0
   27.7685  -22.1840  -16.5985 N   0  0  0  0  0  0  0  0  0  0  0  0
   27.1701  -19.8924  -16.1878 C   0  0  0  0  0  0  0  0  0  0  0  0
   27.3713  -18.6432  -16.2291 O   0  0  0  0  0  0  0  0  0  0  0  0
   25.8447  -20.3427  -16.1663 N   0  0  0  0  0  0  0  0  0  0  0  0
   24.6909  -19.4711  -16.0966 C   0  0  1  0  0  0  0  0  0  0  0  0
   24.2065  -19.0336  -17.4439 C   0  0  0  0  0  0  0  0  0  0  0  0
   23.0766  -18.0740  -17.3821 C   0  0  0  0  0  0  0  0  0  0  0  0
   23.0529  -16.7274  -17.1018 C   0  0  0  0  0  0  0  0  0  0  0  0
   21.7677  -16.3453  -17.1732 N   0  0  0  0  0  0  0  0  0  0  0  0
   20.9784  -17.3676  -17.4813 C   0  0  0  0  0  0  0  0  0  0  0  0
   21.7980  -18.4249  -17.6068 N   0  0  0  0  0  0  0  0  0  0  0  0
   23.6156  -20.0760  -15.2473 C   0  0  0  0  0  0  0  0  0  0  0  0
   22.5535  -19.4557  -14.9864 O   0  0  0  0  0  0  0  0  0  0  0  0
   27.3289  -21.1643  -10.5860 C   0  0  0  0  0  0  0  0  0  0  0  0
   25.7472  -20.4620  -10.0163 S   0  0  0  0  0  0  0  0  0  0  0  0
   24.3827  -20.9949  -10.9930 C   0  0  0  0  0  0  0  0  0  0  0  0
   24.4589  -21.1032  -12.4403 C   0  0  0  0  0  0  0  0  0  0  0  0
   23.3456  -21.6057  -13.2551 C   0  0  2  0  0  0  0  0  0  0  0  0
   23.7343  -21.3646  -14.6978 N   0  0  0  0  0  0  0  0  0  0  0  0
   22.0890  -20.7786  -13.1502 C   0  0  0  0  0  0  0  0  0  0  0  0
   21.9459  -19.8193  -14.0056 O   0  0  0  0  0  0  0  0  0  0  0  0
   21.0874  -20.9203  -12.2583 O   0  0  0  0  0  0  0  0  0  0  0  0
  1  2  1  0
  2  3  2  0
  4  5  1  0
  4  2  1  0
  5  6  1  0
  6  7  1  6
  8  6  1  0
  8  9  2  0
 10  8  1  0
 11 10  1  0
 11 12  1  6
 13 14  2  0
 13 12  1  0
 15 14  1  0
 16 17  2  0
 16 15  1  0
 17 13  1  0
 18 11  1  0
 19 18  2  0
 21 20  1  0
 22 21  1  0
 24 23  1  1
 23 22  1  0
 24 25  1  0
 25 18  1  0
 26 24  1  0
 27 26  2  0
 28 26  1  0
M  END
$$$$
