QHM.pdb
     RDKit          3D

 28 28  0  0  1  0  0  0  0  0999 V2000
   21.2892  -10.7099  -21.2537 N   0  0  0  0  0  0  0  0  0  0  0  0
   20.2507  -11.6745  -21.0610 C   0  0  0  0  0  0  0  0  0  0  0  0
   20.0787  -12.5065  -21.9842 O   0  0  0  0  0  0  0  0  0  0  0  0
   19.4769  -11.6189  -19.8125 C   0  0  0  0  0  0  0  0  0  0  0  0
   19.8381  -10.4578  -18.9362 C   0  0  0  0  0  0  0  0  0  0  0  0
   21.2486  -10.5337  -18.4620 C   0  0  2  0  0  0  0  0  0  0  0  0
   21.3713  -11.7780  -17.6958 N   0  0  0  0  0  0  0  0  0  0  0  0
   21.6206   -9.3896  -17.5874 C   0  0  0  0  0  0  0  0  0  0  0  0
   21.0815   -9.1915  -16.4592 O   0  0  0  0  0  0  0  0  0  0  0  0
   22.6032   -8.4872  -18.0122 N   0  0  0  0  0  0  0  0  0  0  0  0
   23.0568   -7.3538  -17.2342 C   0  0  1  0  0  0  0  0  0  0  0  0
   24.5299   -7.3790  -16.9685 C   0  0  0  0  0  0  0  0  0  0  0  0
   24.9826   -8.6061  -16.2681 C   0  0  0  0  0  0  0  0  0  0  0  0
   24.2862   -9.7221  -15.8654 C   0  0  0  0  0  0  0  0  0  0  0  0
   25.1757  -10.5325  -15.2697 N   0  0  0  0  0  0  0  0  0  0  0  0
   26.3907   -9.9971  -15.2713 C   0  0  0  0  0  0  0  0  0  0  0  0
   26.2564   -8.8115  -15.8891 N   0  0  0  0  0  0  0  0  0  0  0  0
   22.5854   -6.0676  -17.8401 C   0  0  0  0  0  0  0  0  0  0  0  0
   22.8792   -5.7471  -19.0199 O   0  0  0  0  0  0  0  0  0  0  0  0
   16.5079   -2.1356  -19.9886 C   0  0  0  0  0  0  0  0  0  0  0  0
   17.4028   -3.6001  -19.3773 S   0  0  0  0  0  0  0  0  0  0  0  0
   19.0241   -3.2114  -18.8114 C   0  0  0  0  0  0  0  0  0  0  0  0
   19.9257   -4.2219  -18.2840 C   0  0  0  0  0  0  0  0  0  0  0  0
   21.2799   -3.9050  -17.8134 C   0  0  2  0  0  0  0  0  0  0  0  0
   21.7920   -5.1525  -17.1262 N   0  0  0  0  0  0  0  0  0  0  0  0
   21.3163   -2.9121  -16.6789 C   0  0  0  0  0  0  0  0  0  0  0  0
   21.5177   -3.3854  -15.4924 O   0  0  0  0  0  0  0  0  0  0  0  0
   21.1587   -1.5749  -16.7556 O   0  0  0  0  0  0  0  0  0  0  0  0
  1  2  1  0
  2  3  2  0
  4  5  1  0
  4  2  1  0
  5  6  1  0
  6  7  1  1
  8  6  1  0
  8  9  2  0
 10  8  1  0
 11 10  1  0
 11 12  1  6
 13 14  2  0
 13 12  1  0
 15 14  1  0
 16 17  2  0
 16 15  1  0
 17 13  1  0
 18 11  1  0
 19 18  2  0
 21 20  1  0
 22 21  1  0
 24 23  1  1
 23 22  1  0
 24 25  1  0
 25 18  1  0
 26 24  1  0
 27 26  2  0
 28 26  1  0
M  END
$$$$
