QHM.pdb
     RDKit          3D

 28 28  0  0  1  0  0  0  0  0999 V2000
   22.5660  -17.1673  -17.4187 N   0  0  0  0  0  0  0  0  0  0  0  0
   22.3924  -17.9191  -16.2143 C   0  0  0  0  0  0  0  0  0  0  0  0
   21.2745  -17.8289  -15.6522 O   0  0  0  0  0  0  0  0  0  0  0  0
   23.5211  -18.7299  -15.7354 C   0  0  0  0  0  0  0  0  0  0  0  0
   24.7602  -18.5796  -16.5652 C   0  0  0  0  0  0  0  0  0  0  0  0
   25.5171  -19.8582  -16.6753 C   0  0  2  0  0  0  0  0  0  0  0  0
   24.6306  -20.8192  -17.3394 N   0  0  0  0  0  0  0  0  0  0  0  0
   25.9142  -20.4041  -15.3499 C   0  0  0  0  0  0  0  0  0  0  0  0
   25.1558  -21.1534  -14.6672 O   0  0  0  0  0  0  0  0  0  0  0  0
   27.1715  -20.0875  -14.8218 N   0  0  0  0  0  0  0  0  0  0  0  0
   27.6756  -20.5943  -13.5629 C   0  0  1  0  0  0  0  0  0  0  0  0
   29.1432  -20.3592  -13.3835 C   0  0  0  0  0  0  0  0  0  0  0  0
   29.6707  -20.8748  -12.0961 C   0  0  0  0  0  0  0  0  0  0  0  0
   29.0421  -21.5316  -11.0637 C   0  0  0  0  0  0  0  0  0  0  0  0
   29.9811  -21.7669  -10.1333 N   0  0  0  0  0  0  0  0  0  0  0  0
   31.1639  -21.2990  -10.5145 C   0  0  0  0  0  0  0  0  0  0  0  0
   30.9573  -20.7527  -11.7246 N   0  0  0  0  0  0  0  0  0  0  0  0
   26.8503  -20.0939  -12.4174 C   0  0  0  0  0  0  0  0  0  0  0  0
   26.3642  -18.9344  -12.4111 O   0  0  0  0  0  0  0  0  0  0  0  0
   21.2083  -19.2826  -11.9956 C   0  0  0  0  0  0  0  0  0  0  0  0
   21.4691  -20.4071  -10.5860 S   0  0  0  0  0  0  0  0  0  0  0  0
   23.0977  -20.2948   -9.9268 C   0  0  0  0  0  0  0  0  0  0  0  0
   24.2796  -20.5753  -10.7248 C   0  0  0  0  0  0  0  0  0  0  0  0
   25.6424  -20.3749  -10.2165 C   0  0  2  0  0  0  0  0  0  0  0  0
   26.5752  -20.8897  -11.2916 N   0  0  0  0  0  0  0  0  0  0  0  0
   26.0032  -21.2760   -9.0624 C   0  0  0  0  0  0  0  0  0  0  0  0
   25.9654  -20.7559   -7.8790 O   0  0  0  0  0  0  0  0  0  0  0  0
   26.3679  -22.5732   -9.1191 O   0  0  0  0  0  0  0  0  0  0  0  0
  1  2  1  0
  2  3  2  0
  4  5  1  0
  4  2  1  0
  5  6  1  0
  6  7  1  1
  8  6  1  0
  8  9  2  0
 10  8  1  0
 11 10  1  0
 11 12  1  1
 13 14  2  0
 13 12  1  0
 15 14  1  0
 16 17  2  0
 16 15  1  0
 17 13  1  0
 18 11  1  0
 19 18  2  0
 21 20  1  0
 22 21  1  0
 24 23  1  6
 23 22  1  0
 24 25  1  0
 25 18  1  0
 26 24  1  0
 27 26  2  0
 28 26  1  0
M  END
$$$$
