QHM.pdb
     RDKit          3D

 28 28  0  0  1  0  0  0  0  0999 V2000
   27.8583  -23.2372  -16.9223 N   0  0  0  0  0  0  0  0  0  0  0  0
   29.2430  -22.8883  -16.8400 C   0  0  0  0  0  0  0  0  0  0  0  0
   30.0563  -23.6916  -17.3568 O   0  0  0  0  0  0  0  0  0  0  0  0
   29.6016  -21.6316  -16.1670 C   0  0  0  0  0  0  0  0  0  0  0  0
   28.4214  -20.8913  -15.6140 C   0  0  0  0  0  0  0  0  0  0  0  0
   27.6924  -20.1343  -16.6702 C   0  0  2  0  0  0  0  0  0  0  0  0
   28.5794  -19.0494  -17.1023 N   0  0  0  0  0  0  0  0  0  0  0  0
   26.4175  -19.5479  -16.1771 C   0  0  0  0  0  0  0  0  0  0  0  0
   26.3760  -18.7029  -15.2353 O   0  0  0  0  0  0  0  0  0  0  0  0
   25.2073  -19.9337  -16.7658 N   0  0  0  0  0  0  0  0  0  0  0  0
   23.9077  -19.7284  -16.1619 C   0  0  1  0  0  0  0  0  0  0  0  0
   22.7800  -19.8833  -17.1343 C   0  0  0  0  0  0  0  0  0  0  0  0
   21.4533  -19.5546  -16.5572 C   0  0  0  0  0  0  0  0  0  0  0  0
   21.1047  -19.0795  -15.3141 C   0  0  0  0  0  0  0  0  0  0  0  0
   19.7671  -18.9623  -15.3118 N   0  0  0  0  0  0  0  0  0  0  0  0
   19.2497  -19.3340  -16.4768 C   0  0  0  0  0  0  0  0  0  0  0  0
   20.2995  -19.6959  -17.2333 N   0  0  0  0  0  0  0  0  0  0  0  0
   23.7512  -20.5706  -14.9331 C   0  0  0  0  0  0  0  0  0  0  0  0
   24.0146  -21.8000  -14.9378 O   0  0  0  0  0  0  0  0  0  0  0  0
   27.2186  -20.6370   -9.4563 C   0  0  0  0  0  0  0  0  0  0  0  0
   25.5312  -20.0907   -9.0397 S   0  0  0  0  0  0  0  0  0  0  0  0
   24.3213  -20.7402  -10.1416 C   0  0  0  0  0  0  0  0  0  0  0  0
   24.2016  -20.2879  -11.5176 C   0  0  0  0  0  0  0  0  0  0  0  0
   23.2752  -20.9054  -12.4748 C   0  0  2  0  0  0  0  0  0  0  0  0
   23.3034  -20.0351  -13.7128 N   0  0  0  0  0  0  0  0  0  0  0  0
   21.8243  -20.7989  -12.0774 C   0  0  0  0  0  0  0  0  0  0  0  0
   21.4271  -21.5510  -11.1033 O   0  0  0  0  0  0  0  0  0  0  0  0
   20.8811  -20.0063  -12.6257 O   0  0  0  0  0  0  0  0  0  0  0  0
  1  2  1  0
  2  3  2  0
  4  5  1  0
  4  2  1  0
  5  6  1  0
  6  7  1  1
  8  6  1  0
  8  9  2  0
 10  8  1  0
 11 10  1  0
 11 12  1  6
 13 14  2  0
 13 12  1  0
 15 14  1  0
 16 17  2  0
 16 15  1  0
 17 13  1  0
 18 11  1  0
 19 18  2  0
 21 20  1  0
 22 21  1  0
 24 23  1  1
 23 22  1  0
 24 25  1  0
 25 18  1  0
 26 24  1  0
 27 26  2  0
 28 26  1  0
M  END
$$$$
