QHM.pdb
     RDKit          3D

 28 28  0  0  1  0  0  0  0  0999 V2000
   26.1448  -20.3678  -19.3114 N   0  0  0  0  0  0  0  0  0  0  0  0
   26.2697  -21.7207  -19.7583 C   0  0  0  0  0  0  0  0  0  0  0  0
   25.6534  -22.0246  -20.8080 O   0  0  0  0  0  0  0  0  0  0  0  0
   27.1007  -22.6381  -18.9655 C   0  0  0  0  0  0  0  0  0  0  0  0
   27.7397  -21.9888  -17.7751 C   0  0  0  0  0  0  0  0  0  0  0  0
   27.1658  -22.4856  -16.4930 C   0  0  2  0  0  0  0  0  0  0  0  0
   25.7081  -22.4856  -16.6534 N   0  0  0  0  0  0  0  0  0  0  0  0
   27.5238  -21.6247  -15.3342 C   0  0  0  0  0  0  0  0  0  0  0  0
   28.7221  -21.4300  -14.9751 O   0  0  0  0  0  0  0  0  0  0  0  0
   26.5094  -20.9973  -14.6010 N   0  0  0  0  0  0  0  0  0  0  0  0
   26.7422  -20.1584  -13.4444 C   0  0  1  0  0  0  0  0  0  0  0  0
   26.1676  -18.7841  -13.5938 C   0  0  0  0  0  0  0  0  0  0  0  0
   26.7889  -18.0003  -14.6897 C   0  0  0  0  0  0  0  0  0  0  0  0
   27.8314  -18.3032  -15.5346 C   0  0  0  0  0  0  0  0  0  0  0  0
   27.9935  -17.2392  -16.3374 N   0  0  0  0  0  0  0  0  0  0  0  0
   27.1176  -16.2831  -16.0515 C   0  0  0  0  0  0  0  0  0  0  0  0
   26.3828  -16.7658  -15.0353 N   0  0  0  0  0  0  0  0  0  0  0  0
   26.3085  -20.8493  -12.1881 C   0  0  0  0  0  0  0  0  0  0  0  0
   25.3643  -21.6795  -12.1837 O   0  0  0  0  0  0  0  0  0  0  0  0
   26.9270  -19.1906   -4.8374 C   0  0  0  0  0  0  0  0  0  0  0  0
   27.8467  -20.3801   -5.8663 S   0  0  0  0  0  0  0  0  0  0  0  0
   26.8780  -21.0132   -7.1932 C   0  0  0  0  0  0  0  0  0  0  0  0
   27.2046  -20.7545   -8.5856 C   0  0  0  0  0  0  0  0  0  0  0  0
   26.3854  -21.2561   -9.6960 C   0  0  2  0  0  0  0  0  0  0  0  0
   26.9306  -20.6083  -10.9506 N   0  0  0  0  0  0  0  0  0  0  0  0
   24.9689  -20.7387   -9.6934 C   0  0  0  0  0  0  0  0  0  0  0  0
   24.0909  -21.4383   -9.0516 O   0  0  0  0  0  0  0  0  0  0  0  0
   24.5038  -19.6224  -10.2903 O   0  0  0  0  0  0  0  0  0  0  0  0
  1  2  1  0
  2  3  2  0
  4  5  1  0
  4  2  1  0
  5  6  1  0
  6  7  1  6
  8  6  1  0
  8  9  2  0
 10  8  1  0
 11 10  1  0
 11 12  1  6
 13 14  2  0
 13 12  1  0
 15 14  1  0
 16 17  2  0
 16 15  1  0
 17 13  1  0
 18 11  1  0
 19 18  2  0
 21 20  1  0
 22 21  1  0
 24 23  1  1
 23 22  1  0
 24 25  1  0
 25 18  1  0
 26 24  1  0
 27 26  2  0
 28 26  1  0
M  END
$$$$
