QHM.pdb
     RDKit          3D

 28 28  0  0  1  0  0  0  0  0999 V2000
   27.3243  -14.9777  -15.7859 N   0  0  0  0  0  0  0  0  0  0  0  0
   28.1699  -15.8773  -16.5082 C   0  0  0  0  0  0  0  0  0  0  0  0
   28.7882  -15.4005  -17.4902 O   0  0  0  0  0  0  0  0  0  0  0  0
   28.2497  -17.2715  -16.0497 C   0  0  0  0  0  0  0  0  0  0  0  0
   27.4577  -17.5383  -14.8054 C   0  0  0  0  0  0  0  0  0  0  0  0
   26.7179  -18.8294  -14.8805 C   0  0  2  0  0  0  0  0  0  0  0  0
   25.8520  -18.7532  -16.0615 N   0  0  0  0  0  0  0  0  0  0  0  0
   25.8758  -19.0770  -13.6798 C   0  0  0  0  0  0  0  0  0  0  0  0
   25.1406  -18.1828  -13.1675 O   0  0  0  0  0  0  0  0  0  0  0  0
   25.8840  -20.3421  -13.0800 N   0  0  0  0  0  0  0  0  0  0  0  0
   25.0847  -20.7006  -11.9275 C   0  0  1  0  0  0  0  0  0  0  0  0
   24.1432  -21.8326  -12.1982 C   0  0  0  0  0  0  0  0  0  0  0  0
   23.0153  -21.4625  -13.0883 C   0  0  0  0  0  0  0  0  0  0  0  0
   22.6137  -20.2388  -13.5718 C   0  0  0  0  0  0  0  0  0  0  0  0
   21.5288  -20.4654  -14.3298 N   0  0  0  0  0  0  0  0  0  0  0  0
   21.2206  -21.7567  -14.3547 C   0  0  0  0  0  0  0  0  0  0  0  0
   22.1443  -22.3580  -13.5861 N   0  0  0  0  0  0  0  0  0  0  0  0
   25.9508  -20.9239  -10.7260 C   0  0  0  0  0  0  0  0  0  0  0  0
   26.9927  -21.6252  -10.7846 O   0  0  0  0  0  0  0  0  0  0  0  0
   29.2872  -18.8415   -4.0309 C   0  0  0  0  0  0  0  0  0  0  0  0
   28.6087  -18.4779   -5.6823 S   0  0  0  0  0  0  0  0  0  0  0  0
   27.7216  -19.8389   -6.3608 C   0  0  0  0  0  0  0  0  0  0  0  0
   27.1104  -19.7882   -7.6785 C   0  0  0  0  0  0  0  0  0  0  0  0
   26.3218  -20.8985   -8.2273 C   0  0  2  0  0  0  0  0  0  0  0  0
   25.6477  -20.3640   -9.4725 N   0  0  0  0  0  0  0  0  0  0  0  0
   25.1266  -21.2733   -7.3876 C   0  0  0  0  0  0  0  0  0  0  0  0
   23.9865  -20.7706   -7.7339 O   0  0  0  0  0  0  0  0  0  0  0  0
   25.1061  -22.0768   -6.3046 O   0  0  0  0  0  0  0  0  0  0  0  0
  1  2  1  0
  2  3  2  0
  4  5  1  0
  4  2  1  0
  5  6  1  0
  6  7  1  6
  8  6  1  0
  8  9  2  0
 10  8  1  0
 11 10  1  0
 11 12  1  6
 13 14  2  0
 13 12  1  0
 15 14  1  0
 16 17  2  0
 16 15  1  0
 17 13  1  0
 18 11  1  0
 19 18  2  0
 21 20  1  0
 22 21  1  0
 24 23  1  1
 23 22  1  0
 24 25  1  0
 25 18  1  0
 26 24  1  0
 27 26  2  0
 28 26  1  0
M  END
$$$$
