QHM.pdb
     RDKit          3D

 28 28  0  0  1  0  0  0  0  0999 V2000
   30.3617  -29.5344  -18.7950 N   0  0  0  0  0  0  0  0  0  0  0  0
   29.1863  -30.0406  -18.1561 C   0  0  0  0  0  0  0  0  0  0  0  0
   28.0868  -29.6131  -18.5830 O   0  0  0  0  0  0  0  0  0  0  0  0
   29.3546  -31.0107  -17.0647 C   0  0  0  0  0  0  0  0  0  0  0  0
   30.7883  -31.2935  -16.7315 C   0  0  0  0  0  0  0  0  0  0  0  0
   31.0487  -32.7525  -16.5780 C   0  0  2  0  0  0  0  0  0  0  0  0
   30.7009  -33.1016  -15.1968 N   0  0  0  0  0  0  0  0  0  0  0  0
   32.4720  -33.1085  -16.8220 C   0  0  0  0  0  0  0  0  0  0  0  0
   33.0311  -32.9470  -17.9463 O   0  0  0  0  0  0  0  0  0  0  0  0
   33.2379  -33.6440  -15.7796 N   0  0  0  0  0  0  0  0  0  0  0  0
   34.6441  -33.9704  -15.8886 C   0  0  1  0  0  0  0  0  0  0  0  0
   35.4356  -33.5551  -14.6876 C   0  0  0  0  0  0  0  0  0  0  0  0
   35.9282  -32.1574  -14.7596 C   0  0  0  0  0  0  0  0  0  0  0  0
   35.8857  -31.2391  -15.7830 C   0  0  0  0  0  0  0  0  0  0  0  0
   36.4802  -30.1268  -15.3224 N   0  0  0  0  0  0  0  0  0  0  0  0
   36.8956  -30.2861  -14.0714 C   0  0  0  0  0  0  0  0  0  0  0  0
   36.5489  -31.5409  -13.7383 N   0  0  0  0  0  0  0  0  0  0  0  0
   34.8308  -35.4113  -16.2528 C   0  0  0  0  0  0  0  0  0  0  0  0
   33.9729  -36.2825  -15.9599 O   0  0  0  0  0  0  0  0  0  0  0  0
   38.3776  -37.3922  -21.6631 C   0  0  0  0  0  0  0  0  0  0  0  0
   38.6605  -38.6496  -20.3753 S   0  0  0  0  0  0  0  0  0  0  0  0
   37.4429  -38.5983  -19.1046 C   0  0  0  0  0  0  0  0  0  0  0  0
   37.0858  -37.3667  -18.4204 C   0  0  0  0  0  0  0  0  0  0  0  0
   36.0591  -37.3140  -17.3721 C   0  0  2  0  0  0  0  0  0  0  0  0
   35.9702  -35.8664  -16.9391 N   0  0  0  0  0  0  0  0  0  0  0  0
   36.4679  -37.9790  -16.0818 C   0  0  0  0  0  0  0  0  0  0  0  0
   37.4126  -37.4124  -15.4044 O   0  0  0  0  0  0  0  0  0  0  0  0
   35.9618  -39.1087  -15.5466 O   0  0  0  0  0  0  0  0  0  0  0  0
  1  2  1  0
  2  3  2  0
  4  5  1  0
  4  2  1  0
  5  6  1  0
  6  7  1  1
  8  6  1  0
  8  9  2  0
 10  8  1  0
 11 10  1  0
 11 12  1  1
 13 14  2  0
 13 12  1  0
 15 14  1  0
 16 17  2  0
 16 15  1  0
 17 13  1  0
 18 11  1  0
 19 18  2  0
 21 20  1  0
 22 21  1  0
 24 23  1  6
 23 22  1  0
 24 25  1  0
 25 18  1  0
 26 24  1  0
 27 26  2  0
 28 26  1  0
M  END
$$$$
