LLG.pdb
     RDKit          3D

 21 20  0  0  1  0  0  0  0  0999 V2000
   18.0589   -8.7765  -20.7393 C   0  0  0  0  0  0  0  0  0  0  0  0
   16.9079   -9.1529  -19.8443 C   0  0  2  0  0  0  0  0  0  0  0  0
   15.7400   -8.2638  -20.2309 C   0  0  0  0  0  0  0  0  0  0  0  0
   17.2018   -9.0327  -18.3793 C   0  0  0  0  0  0  0  0  0  0  0  0
   18.4345   -9.7981  -18.0259 C   0  0  2  0  0  0  0  0  0  0  0  0
   18.1580  -11.2092  -18.0509 N   0  0  0  0  0  0  0  0  0  0  0  0
   18.9954   -9.4057  -16.7092 C   0  0  0  0  0  0  0  0  0  0  0  0
   18.5264   -9.9379  -15.6747 O   0  0  0  0  0  0  0  0  0  0  0  0
   23.5946  -10.3912  -14.2754 C   0  0  0  0  0  0  0  0  0  0  0  0
   22.0743  -10.0557  -14.4188 C   0  0  1  0  0  0  0  0  0  0  0  0
   21.7156   -9.6641  -12.9713 C   0  0  0  0  0  0  0  0  0  0  0  0
   21.9160   -8.8811  -15.3072 C   0  0  0  0  0  0  0  0  0  0  0  0
   20.6653   -8.1027  -15.3010 C   0  0  2  0  0  0  0  0  0  0  0  0
   20.0188   -8.4696  -16.6077 N   0  0  0  0  0  0  0  0  0  0  0  0
   20.7299   -6.6438  -15.3304 C   0  0  0  0  0  0  0  0  0  0  0  0
   21.2040   -6.0334  -16.3511 O   0  0  0  0  0  0  0  0  0  0  0  0
   20.2822   -5.7924  -14.2721 N   0  0  0  0  0  0  0  0  0  0  0  0
   20.4563   -4.3687  -14.3987 C   0  0  0  0  0  0  0  0  0  0  0  0
   21.8557   -3.9457  -14.1819 C   0  0  0  0  0  0  0  0  0  0  0  0
   22.2275   -2.6403  -14.4383 O   0  0  0  0  0  0  0  0  0  0  0  0
   22.7303   -4.7395  -13.7679 O   0  0  0  0  0  0  0  0  0  0  0  0
  2  1  1  6
  3  2  1  0
  4  2  1  0
  5  4  1  0
  5  7  1  0
  5  6  1  1
  7  8  2  0
  7 14  1  0
 10  9  1  1
 10 12  1  0
 11 10  1  0
 13 12  1  6
 13 15  1  0
 14 13  1  0
 15 16  2  0
 17 15  1  0
 17 18  1  0
 19 18  1  0
 19 20  1  0
 21 19  2  0
M  END
$$$$
