LLG.pdb
     RDKit          3D

 21 20  0  0  1  0  0  0  0  0999 V2000
   21.6876  -22.7825  -15.6984 C   0  0  0  0  0  0  0  0  0  0  0  0
   21.0460  -21.4205  -15.6766 C   0  0  2  0  0  0  0  0  0  0  0  0
   20.9792  -20.9417  -17.1154 C   0  0  0  0  0  0  0  0  0  0  0  0
   21.7573  -20.4182  -14.8182 C   0  0  0  0  0  0  0  0  0  0  0  0
   22.0783  -21.0036  -13.4824 C   0  0  2  0  0  0  0  0  0  0  0  0
   20.9411  -20.8847  -12.6102 N   0  0  0  0  0  0  0  0  0  0  0  0
   23.2741  -20.3856  -12.8579 C   0  0  0  0  0  0  0  0  0  0  0  0
   23.3074  -19.1381  -12.7305 O   0  0  0  0  0  0  0  0  0  0  0  0
   25.0333  -21.5446   -8.0049 C   0  0  0  0  0  0  0  0  0  0  0  0
   24.8176  -20.6514   -9.2698 C   0  0  1  0  0  0  0  0  0  0  0  0
   25.5114  -19.3446   -8.8363 C   0  0  0  0  0  0  0  0  0  0  0  0
   25.5442  -21.2455  -10.4157 C   0  0  0  0  0  0  0  0  0  0  0  0
   25.5450  -20.5763  -11.7281 C   0  0  2  0  0  0  0  0  0  0  0  0
   24.3431  -21.1588  -12.4182 N   0  0  0  0  0  0  0  0  0  0  0  0
   26.6454  -20.8224  -12.6565 C   0  0  0  0  0  0  0  0  0  0  0  0
   27.8482  -20.5245  -12.3343 O   0  0  0  0  0  0  0  0  0  0  0  0
   26.4943  -21.4019  -13.9552 N   0  0  0  0  0  0  0  0  0  0  0  0
   27.6585  -21.5705  -14.7856 C   0  0  0  0  0  0  0  0  0  0  0  0
   27.3480  -22.2265  -16.0731 C   0  0  0  0  0  0  0  0  0  0  0  0
   28.3674  -22.5271  -16.9555 O   0  0  0  0  0  0  0  0  0  0  0  0
   26.1769  -22.5244  -16.3984 O   0  0  0  0  0  0  0  0  0  0  0  0
  2  1  1  6
  3  2  1  0
  4  2  1  0
  5  4  1  0
  5  7  1  0
  5  6  1  1
  7  8  2  0
  7 14  1  0
 10  9  1  1
 10 12  1  0
 11 10  1  0
 13 12  1  1
 13 15  1  0
 14 13  1  0
 15 16  2  0
 17 15  1  0
 17 18  1  0
 19 18  1  0
 19 20  1  0
 21 19  2  0
M  END
$$$$
