LLG.pdb
     RDKit          3D

 21 20  0  0  1  0  0  0  0  0999 V2000
   26.7935  -19.6379  -16.5326 C   0  0  0  0  0  0  0  0  0  0  0  0
   27.7967  -18.9111  -15.6767 C   0  0  2  0  0  0  0  0  0  0  0  0
   29.1264  -18.9748  -16.4059 C   0  0  0  0  0  0  0  0  0  0  0  0
   27.9295  -19.4556  -14.2863 C   0  0  0  0  0  0  0  0  0  0  0  0
   26.5844  -19.7329  -13.6997 C   0  0  2  0  0  0  0  0  0  0  0  0
   25.8420  -18.5074  -13.5772 N   0  0  0  0  0  0  0  0  0  0  0  0
   26.6621  -20.4222  -12.3878 C   0  0  0  0  0  0  0  0  0  0  0  0
   27.2127  -21.5480  -12.3333 O   0  0  0  0  0  0  0  0  0  0  0  0
   28.0437  -20.9243   -7.2993 C   0  0  0  0  0  0  0  0  0  0  0  0
   26.7084  -20.1452   -7.5316 C   0  0  1  0  0  0  0  0  0  0  0  0
   26.9259  -18.9048   -6.6420 C   0  0  0  0  0  0  0  0  0  0  0  0
   26.6257  -19.7322   -8.9517 C   0  0  0  0  0  0  0  0  0  0  0  0
   25.9732  -20.6017   -9.9460 C   0  0  2  0  0  0  0  0  0  0  0  0
   26.1405  -19.8459  -11.2346 N   0  0  0  0  0  0  0  0  0  0  0  0
   24.5350  -20.8399   -9.8544 C   0  0  0  0  0  0  0  0  0  0  0  0
   24.0352  -21.4217   -8.8292 O   0  0  0  0  0  0  0  0  0  0  0  0
   23.5860  -20.4563  -10.8532 N   0  0  0  0  0  0  0  0  0  0  0  0
   22.1849  -20.6818  -10.6100 C   0  0  0  0  0  0  0  0  0  0  0  0
   21.4708  -21.1675  -11.8093 C   0  0  0  0  0  0  0  0  0  0  0  0
   20.0919  -21.2502  -11.8028 O   0  0  0  0  0  0  0  0  0  0  0  0
   22.0791  -21.5122  -12.8473 O   0  0  0  0  0  0  0  0  0  0  0  0
  2  1  1  6
  3  2  1  0
  4  2  1  0
  5  4  1  0
  5  7  1  0
  5  6  1  1
  7  8  2  0
  7 14  1  0
 10  9  1  6
 10 12  1  0
 11 10  1  0
 13 12  1  1
 13 15  1  0
 14 13  1  0
 15 16  2  0
 17 15  1  0
 17 18  1  0
 19 18  1  0
 19 20  1  0
 21 19  2  0
M  END
$$$$
