LLG.pdb
     RDKit          3D

 21 20  0  0  1  0  0  0  0  0999 V2000
   24.3410  -20.0543  -19.6363 C   0  0  0  0  0  0  0  0  0  0  0  0
   25.5696  -19.6478  -18.8665 C   0  0  2  0  0  0  0  0  0  0  0  0
   26.7407  -19.7331  -19.8284 C   0  0  0  0  0  0  0  0  0  0  0  0
   25.8300  -20.4722  -17.6419 C   0  0  0  0  0  0  0  0  0  0  0  0
   24.9391  -20.0457  -16.5217 C   0  0  2  0  0  0  0  0  0  0  0  0
   25.0268  -18.6216  -16.3422 N   0  0  0  0  0  0  0  0  0  0  0  0
   25.2429  -20.7457  -15.2491 C   0  0  0  0  0  0  0  0  0  0  0  0
   25.3657  -21.9940  -15.2654 O   0  0  0  0  0  0  0  0  0  0  0  0
   29.4312  -19.7946  -12.3677 C   0  0  0  0  0  0  0  0  0  0  0  0
   28.2199  -20.5133  -13.0462 C   0  0  1  0  0  0  0  0  0  0  0  0
   28.5534  -21.9924  -12.7666 C   0  0  0  0  0  0  0  0  0  0  0  0
   26.9732  -20.1407  -12.3384 C   0  0  0  0  0  0  0  0  0  0  0  0
   25.6815  -20.7217  -12.7438 C   0  0  2  0  0  0  0  0  0  0  0  0
   25.3913  -20.0473  -14.0556 N   0  0  0  0  0  0  0  0  0  0  0  0
   24.4934  -20.4594  -11.9356 C   0  0  0  0  0  0  0  0  0  0  0  0
   24.5756  -19.7645  -10.8634 O   0  0  0  0  0  0  0  0  0  0  0  0
   23.1794  -20.9258  -12.2534 N   0  0  0  0  0  0  0  0  0  0  0  0
   22.0896  -20.6021  -11.3697 C   0  0  0  0  0  0  0  0  0  0  0  0
   20.8029  -21.1717  -11.8218 C   0  0  0  0  0  0  0  0  0  0  0  0
   19.6566  -20.9547  -11.0821 O   0  0  0  0  0  0  0  0  0  0  0  0
   20.7122  -21.8543  -12.8668 O   0  0  0  0  0  0  0  0  0  0  0  0
  2  1  1  6
  3  2  1  0
  4  2  1  0
  5  4  1  0
  5  7  1  0
  5  6  1  1
  7  8  2  0
  7 14  1  0
 10  9  1  1
 10 12  1  0
 11 10  1  0
 13 12  1  1
 13 15  1  0
 14 13  1  0
 15 16  2  0
 17 15  1  0
 17 18  1  0
 19 18  1  0
 19 20  1  0
 21 19  2  0
M  END
$$$$
