LLG.pdb
     RDKit          3D

 21 20  0  0  1  0  0  0  0  0999 V2000
   24.9441  -19.7060  -18.5126 C   0  0  0  0  0  0  0  0  0  0  0  0
   24.0889  -20.9363  -18.3629 C   0  0  2  0  0  0  0  0  0  0  0  0
   22.7825  -20.6550  -19.0826 C   0  0  0  0  0  0  0  0  0  0  0  0
   23.8337  -21.3399  -16.9420 C   0  0  0  0  0  0  0  0  0  0  0  0
   25.1193  -21.6228  -16.2367 C   0  0  2  0  0  0  0  0  0  0  0  0
   25.7791  -22.7423  -16.8529 N   0  0  0  0  0  0  0  0  0  0  0  0
   24.9350  -21.8679  -14.7848 C   0  0  0  0  0  0  0  0  0  0  0  0
   24.5698  -23.0080  -14.4105 O   0  0  0  0  0  0  0  0  0  0  0  0
   28.6297  -19.9874  -11.3021 C   0  0  0  0  0  0  0  0  0  0  0  0
   27.5800  -20.9997  -11.8659 C   0  0  1  0  0  0  0  0  0  0  0  0
   27.6570  -22.1272  -10.8171 C   0  0  0  0  0  0  0  0  0  0  0  0
   26.2361  -20.3777  -11.8319 C   0  0  0  0  0  0  0  0  0  0  0  0
   25.0661  -21.0973  -12.3644 C   0  0  2  0  0  0  0  0  0  0  0  0
   25.1583  -20.8656  -13.8469 N   0  0  0  0  0  0  0  0  0  0  0  0
   23.7239  -20.6404  -12.0132 C   0  0  0  0  0  0  0  0  0  0  0  0
   23.3659  -20.5526  -10.7871 O   0  0  0  0  0  0  0  0  0  0  0  0
   22.7257  -20.2559  -12.9624 N   0  0  0  0  0  0  0  0  0  0  0  0
   21.4552  -19.7750  -12.4853 C   0  0  0  0  0  0  0  0  0  0  0  0
   20.5615  -19.3464  -13.5817 C   0  0  0  0  0  0  0  0  0  0  0  0
   19.3366  -18.7789  -13.2890 O   0  0  0  0  0  0  0  0  0  0  0  0
   20.8788  -19.4810  -14.7848 O   0  0  0  0  0  0  0  0  0  0  0  0
  2  1  1  1
  3  2  1  0
  4  2  1  0
  5  4  1  0
  5  7  1  0
  5  6  1  6
  7  8  2  0
  7 14  1  0
 10  9  1  1
 10 12  1  0
 11 10  1  0
 13 12  1  1
 13 15  1  0
 14 13  1  0
 15 16  2  0
 17 15  1  0
 17 18  1  0
 19 18  1  0
 19 20  1  0
 21 19  2  0
M  END
$$$$
