LLG.pdb
     RDKit          3D

 21 20  0  0  1  0  0  0  0  0999 V2000
   26.8601  -15.0630  -15.3780 C   0  0  0  0  0  0  0  0  0  0  0  0
   26.2754  -15.9310  -16.4606 C   0  0  2  0  0  0  0  0  0  0  0  0
   25.0655  -15.1965  -17.0089 C   0  0  0  0  0  0  0  0  0  0  0  0
   25.8972  -17.3092  -16.0081 C   0  0  0  0  0  0  0  0  0  0  0  0
   27.0541  -17.9805  -15.3439 C   0  0  2  0  0  0  0  0  0  0  0  0
   28.0867  -18.2442  -16.3094 N   0  0  0  0  0  0  0  0  0  0  0  0
   26.6677  -19.2323  -14.6469 C   0  0  0  0  0  0  0  0  0  0  0  0
   26.3745  -20.2375  -15.3375 O   0  0  0  0  0  0  0  0  0  0  0  0
   29.4818  -20.9916  -10.4421 C   0  0  0  0  0  0  0  0  0  0  0  0
   28.6654  -20.8629  -11.7692 C   0  0  1  0  0  0  0  0  0  0  0  0
   28.8511  -22.2693  -12.3733 C   0  0  0  0  0  0  0  0  0  0  0  0
   27.2370  -20.6445  -11.4436 C   0  0  0  0  0  0  0  0  0  0  0  0
   26.2318  -20.5517  -12.5165 C   0  0  2  0  0  0  0  0  0  0  0  0
   26.6268  -19.3055  -13.2587 N   0  0  0  0  0  0  0  0  0  0  0  0
   24.8306  -20.3319  -12.1676 C   0  0  0  0  0  0  0  0  0  0  0  0
   24.5047  -19.4320  -11.3171 O   0  0  0  0  0  0  0  0  0  0  0  0
   23.7340  -21.0626  -12.7233 N   0  0  0  0  0  0  0  0  0  0  0  0
   22.3998  -20.7811  -12.2606 C   0  0  0  0  0  0  0  0  0  0  0  0
   21.3801  -21.6243  -12.9191 C   0  0  0  0  0  0  0  0  0  0  0  0
   21.7558  -22.5118  -13.9087 O   0  0  0  0  0  0  0  0  0  0  0  0
   20.1694  -21.5628  -12.6081 O   0  0  0  0  0  0  0  0  0  0  0  0
  2  1  1  1
  3  2  1  0
  4  2  1  0
  5  4  1  0
  5  7  1  0
  5  6  1  6
  7  8  2  0
  7 14  1  0
 10  9  1  1
 10 12  1  0
 11 10  1  0
 13 12  1  1
 13 15  1  0
 14 13  1  0
 15 16  2  0
 17 15  1  0
 17 18  1  0
 19 18  1  0
 19 20  1  0
 21 19  2  0
M  END
$$$$
