LLG.pdb
     RDKit          3D

 21 20  0  0  1  0  0  0  0  0999 V2000
   28.8046  -18.1973  -16.1018 C   0  0  0  0  0  0  0  0  0  0  0  0
   27.7047  -18.9442  -16.8089 C   0  0  2  0  0  0  0  0  0  0  0  0
   27.0472  -17.9624  -17.7616 C   0  0  0  0  0  0  0  0  0  0  0  0
   26.6871  -19.5547  -15.8930 C   0  0  0  0  0  0  0  0  0  0  0  0
   27.3458  -20.4573  -14.9022 C   0  0  2  0  0  0  0  0  0  0  0  0
   27.9620  -21.5641  -15.5831 N   0  0  0  0  0  0  0  0  0  0  0  0
   26.4081  -20.9488  -13.8623 C   0  0  0  0  0  0  0  0  0  0  0  0
   25.7752  -22.0100  -14.0784 O   0  0  0  0  0  0  0  0  0  0  0  0
   25.3891  -21.8481   -8.6027 C   0  0  0  0  0  0  0  0  0  0  0  0
   25.2140  -20.3604   -9.0504 C   0  0  1  0  0  0  0  0  0  0  0  0
   26.0039  -19.6214   -7.9516 C   0  0  0  0  0  0  0  0  0  0  0  0
   25.8781  -20.1640  -10.3598 C   0  0  0  0  0  0  0  0  0  0  0  0
   25.2924  -20.7305  -11.5871 C   0  0  2  0  0  0  0  0  0  0  0  0
   26.2240  -20.2593  -12.6687 N   0  0  0  0  0  0  0  0  0  0  0  0
   23.9750  -20.2779  -12.0266 C   0  0  0  0  0  0  0  0  0  0  0  0
   23.6502  -19.0421  -11.9447 O   0  0  0  0  0  0  0  0  0  0  0  0
   22.9670  -21.1318  -12.5744 N   0  0  0  0  0  0  0  0  0  0  0  0
   21.6752  -20.5779  -12.8868 C   0  0  0  0  0  0  0  0  0  0  0  0
   20.7952  -21.5430  -13.5786 C   0  0  0  0  0  0  0  0  0  0  0  0
   20.9653  -21.7845  -14.9280 O   0  0  0  0  0  0  0  0  0  0  0  0
   19.8871  -22.1593  -12.9771 O   0  0  0  0  0  0  0  0  0  0  0  0
  2  1  1  1
  3  2  1  0
  4  2  1  0
  5  4  1  0
  5  7  1  0
  5  6  1  6
  7  8  2  0
  7 14  1  0
 10  9  1  1
 10 12  1  0
 11 10  1  0
 13 12  1  1
 13 15  1  0
 14 13  1  0
 15 16  2  0
 17 15  1  0
 17 18  1  0
 19 18  1  0
 19 20  1  0
 21 19  2  0
M  END
$$$$
