LLG.pdb
     RDKit          3D

 21 20  0  0  1  0  0  0  0  0999 V2000
   16.8988  -10.9109  -19.7934 C   0  0  0  0  0  0  0  0  0  0  0  0
   17.3058  -11.8140  -18.6592 C   0  0  2  0  0  0  0  0  0  0  0  0
   16.0962  -12.6650  -18.3177 C   0  0  0  0  0  0  0  0  0  0  0  0
   17.8036  -11.0907  -17.4442 C   0  0  0  0  0  0  0  0  0  0  0  0
   18.9536  -10.2046  -17.7942 C   0  0  2  0  0  0  0  0  0  0  0  0
   20.0370  -10.9927  -18.3168 N   0  0  0  0  0  0  0  0  0  0  0  0
   19.4176   -9.3870  -16.6460 C   0  0  0  0  0  0  0  0  0  0  0  0
   18.6183   -9.1661  -15.7049 O   0  0  0  0  0  0  0  0  0  0  0  0
   24.0948  -10.6150  -14.5170 C   0  0  0  0  0  0  0  0  0  0  0  0
   22.6015  -10.1661  -14.6294 C   0  0  1  0  0  0  0  0  0  0  0  0
   22.1745  -10.1705  -13.1479 C   0  0  0  0  0  0  0  0  0  0  0  0
   22.5465   -8.7844  -15.1602 C   0  0  0  0  0  0  0  0  0  0  0  0
   21.2501   -8.1302  -15.4082 C   0  0  2  0  0  0  0  0  0  0  0  0
   20.7077   -8.8696  -16.5994 N   0  0  0  0  0  0  0  0  0  0  0  0
   21.2221   -6.7274  -15.8141 C   0  0  0  0  0  0  0  0  0  0  0  0
   21.9538   -6.3143  -16.7802 O   0  0  0  0  0  0  0  0  0  0  0  0
   20.4049   -5.7246  -15.2043 N   0  0  0  0  0  0  0  0  0  0  0  0
   20.4251   -4.3869  -15.7367 C   0  0  0  0  0  0  0  0  0  0  0  0
   19.4788   -3.4859  -15.0460 C   0  0  0  0  0  0  0  0  0  0  0  0
   19.9536   -2.3864  -14.3576 O   0  0  0  0  0  0  0  0  0  0  0  0
   18.2435   -3.6857  -15.0621 O   0  0  0  0  0  0  0  0  0  0  0  0
  2  1  1  6
  3  2  1  0
  4  2  1  0
  5  4  1  0
  5  7  1  0
  5  6  1  1
  7  8  2  0
  7 14  1  0
 10  9  1  1
 10 12  1  0
 11 10  1  0
 13 12  1  6
 13 15  1  0
 14 13  1  0
 15 16  2  0
 17 15  1  0
 17 18  1  0
 19 18  1  0
 19 20  1  0
 21 19  2  0
M  END
$$$$
