DSP.pdb
     RDKit          3D

 22 22  0  0  1  0  0  0  0  0999 V2000
    9.2744  -17.0223   19.7273 N   0  0  0  0  0  0  0  0  0  0  0  0
    9.5159  -17.4784   21.0798 C   0  0  1  0  0  0  0  0  0  0  0  0
   11.0020  -17.5103   21.3438 C   0  0  0  0  0  0  0  0  0  0  0  0
   11.8006  -17.7649   20.1254 C   0  0  0  0  0  0  0  0  0  0  0  0
   11.2265  -18.1555   19.0842 O   0  0  0  0  0  0  0  0  0  0  0  0
    8.8368  -16.5687   22.0723 C   0  0  0  0  0  0  0  0  0  0  0  0
    8.7662  -15.3401   21.8021 O   0  0  0  0  0  0  0  0  0  0  0  0
   13.1957  -17.5549   20.1900 O   0  0  0  0  0  0  0  0  0  0  0  0
    6.9072  -18.0176   25.4916 O   0  0  0  0  0  0  0  0  0  0  0  0
    6.3906  -16.9218   24.7942 C   0  0  0  0  0  0  0  0  0  0  0  0
    7.5322  -16.1217   24.1757 C   0  0  2  0  0  0  0  0  0  0  0  0
    8.2799  -17.0314   23.2806 N   0  0  0  0  0  0  0  0  0  0  0  0
    8.4439  -15.5870   25.1878 C   0  0  0  0  0  0  0  0  0  0  0  0
    9.6234  -16.1221   25.2020 O   0  0  0  0  0  0  0  0  0  0  0  0
    8.1706  -14.5680   26.1244 N   0  0  0  0  0  0  0  0  0  0  0  0
    6.8843  -13.9438   26.3468 C   0  0  0  0  0  0  0  0  0  0  0  0
    7.3447  -12.4849   26.4646 C   0  0  0  0  0  0  0  0  0  0  0  0
    8.4026  -12.6783   27.5387 C   0  0  0  0  0  0  0  0  0  0  0  0
    9.0582  -13.9672   27.0719 C   0  0  1  0  0  0  0  0  0  0  0  0
    9.1625  -14.8618   28.2808 C   0  0  0  0  0  0  0  0  0  0  0  0
    8.3992  -15.8453   28.4127 O   0  0  0  0  0  0  0  0  0  0  0  0
   10.0997  -14.6108   29.2590 O   0  0  0  0  0  0  0  0  0  0  0  0
  2  1  1  6
  2  3  1  0
  3  4  1  0
  4  8  1  0
  5  4  2  0
  6  2  1  0
  7  6  2  0
  9 10  1  0
 11 10  1  1
 11 13  1  0
 11 12  1  0
 12  6  1  0
 13 15  1  0
 14 13  2  0
 15 16  1  0
 15 19  1  0
 16 17  1  0
 17 18  1  0
 19 20  1  1
 19 18  1  0
 20 22  1  0
 21 20  2  0
M  END
$$$$
