DSP.pdb
     RDKit          3D

 22 22  0  0  1  0  0  0  0  0999 V2000
    9.6168  -16.8928   13.4311 N   0  0  0  0  0  0  0  0  0  0  0  0
   10.0443  -17.2585   14.7649 C   0  0  1  0  0  0  0  0  0  0  0  0
   11.4782  -16.8328   14.9696 C   0  0  0  0  0  0  0  0  0  0  0  0
   12.4528  -17.7990   14.4182 C   0  0  0  0  0  0  0  0  0  0  0  0
   12.3682  -19.0067   14.7352 O   0  0  0  0  0  0  0  0  0  0  0  0
    9.1617  -16.6063   15.7990 C   0  0  0  0  0  0  0  0  0  0  0  0
    8.7780  -15.4239   15.5935 O   0  0  0  0  0  0  0  0  0  0  0  0
   13.4512  -17.3108   13.5467 O   0  0  0  0  0  0  0  0  0  0  0  0
    6.0513  -18.0966   17.6931 O   0  0  0  0  0  0  0  0  0  0  0  0
    7.0031  -17.6459   18.6122 C   0  0  0  0  0  0  0  0  0  0  0  0
    7.8802  -16.5805   17.9631 C   0  0  2  0  0  0  0  0  0  0  0  0
    8.7492  -17.2591   16.9770 N   0  0  0  0  0  0  0  0  0  0  0  0
    8.7165  -15.8827   18.9404 C   0  0  0  0  0  0  0  0  0  0  0  0
    9.8795  -16.4141   19.1471 O   0  0  0  0  0  0  0  0  0  0  0  0
    8.3883  -14.7140   19.6592 N   0  0  0  0  0  0  0  0  0  0  0  0
    7.1911  -13.9200   19.4854 C   0  0  0  0  0  0  0  0  0  0  0  0
    7.8213  -12.5224   19.5473 C   0  0  0  0  0  0  0  0  0  0  0  0
    8.5644  -12.6786   20.8640 C   0  0  0  0  0  0  0  0  0  0  0  0
    9.1132  -14.0885   20.7221 C   0  0  1  0  0  0  0  0  0  0  0  0
    8.8050  -14.8043   22.0126 C   0  0  0  0  0  0  0  0  0  0  0  0
    7.8350  -15.5923   22.0875 O   0  0  0  0  0  0  0  0  0  0  0  0
    9.5863  -14.6025   23.1292 O   0  0  0  0  0  0  0  0  0  0  0  0
  2  1  1  6
  2  3  1  0
  3  4  1  0
  4  8  1  0
  5  4  2  0
  6  2  1  0
  7  6  2  0
  9 10  1  0
 11 10  1  1
 11 13  1  0
 11 12  1  0
 12  6  1  0
 13 15  1  0
 14 13  2  0
 15 16  1  0
 15 19  1  0
 16 17  1  0
 17 18  1  0
 19 20  1  1
 19 18  1  0
 20 22  1  0
 21 20  2  0
M  END
$$$$
