DSP.pdb
     RDKit          3D

 22 22  0  0  1  0  0  0  0  0999 V2000
   10.2057  -16.9288   20.1298 N   0  0  0  0  0  0  0  0  0  0  0  0
   10.9683  -17.0132   21.3573 C   0  0  1  0  0  0  0  0  0  0  0  0
   12.3322  -16.4009   21.1471 C   0  0  0  0  0  0  0  0  0  0  0  0
   13.2316  -17.2547   20.3413 C   0  0  0  0  0  0  0  0  0  0  0  0
   13.9645  -18.0906   20.9161 O   0  0  0  0  0  0  0  0  0  0  0  0
   10.2505  -16.2986   22.4743 C   0  0  0  0  0  0  0  0  0  0  0  0
    9.8939  -15.1051   22.2850 O   0  0  0  0  0  0  0  0  0  0  0  0
   13.2258  -17.0873   18.9389 O   0  0  0  0  0  0  0  0  0  0  0  0
    8.2855  -18.3216   25.3933 O   0  0  0  0  0  0  0  0  0  0  0  0
    7.9212  -17.0267   25.0135 C   0  0  0  0  0  0  0  0  0  0  0  0
    9.1733  -16.1984   24.7450 C   0  0  2  0  0  0  0  0  0  0  0  0
    9.9620  -16.9053   23.7124 N   0  0  0  0  0  0  0  0  0  0  0  0
    9.9933  -16.0317   25.9454 C   0  0  0  0  0  0  0  0  0  0  0  0
   11.0683  -16.7535   25.9809 O   0  0  0  0  0  0  0  0  0  0  0  0
    9.7349  -15.1794   27.0395 N   0  0  0  0  0  0  0  0  0  0  0  0
    8.5704  -14.3357   27.2003 C   0  0  0  0  0  0  0  0  0  0  0  0
    9.2634  -13.0704   27.7230 C   0  0  0  0  0  0  0  0  0  0  0  0
   10.0304  -13.7035   28.8724 C   0  0  0  0  0  0  0  0  0  0  0  0
   10.5123  -14.9912   28.2256 C   0  0  1  0  0  0  0  0  0  0  0  0
   10.2039  -16.1038   29.1950 C   0  0  0  0  0  0  0  0  0  0  0  0
    9.2324  -16.8686   28.9980 O   0  0  0  0  0  0  0  0  0  0  0  0
   10.9865  -16.2961   30.3124 O   0  0  0  0  0  0  0  0  0  0  0  0
  2  1  1  6
  2  3  1  0
  3  4  1  0
  4  8  1  0
  5  4  2  0
  6  2  1  0
  7  6  2  0
  9 10  1  0
 11 10  1  1
 11 13  1  0
 11 12  1  0
 12  6  1  0
 13 15  1  0
 14 13  2  0
 15 16  1  0
 15 19  1  0
 16 17  1  0
 17 18  1  0
 19 20  1  1
 19 18  1  0
 20 22  1  0
 21 20  2  0
M  END
$$$$
