DSP.pdb
     RDKit          3D

 22 22  0  0  1  0  0  0  0  0999 V2000
   10.8592  -17.1477   14.4306 N   0  0  0  0  0  0  0  0  0  0  0  0
   10.2480  -15.9076   14.0017 C   0  0  1  0  0  0  0  0  0  0  0  0
    9.5959  -16.1058   12.6546 C   0  0  0  0  0  0  0  0  0  0  0  0
   10.5460  -16.5495   11.6117 C   0  0  0  0  0  0  0  0  0  0  0  0
   11.7466  -16.2043   11.6864 O   0  0  0  0  0  0  0  0  0  0  0  0
    9.2218  -15.4499   15.0073 C   0  0  0  0  0  0  0  0  0  0  0  0
    8.5897  -14.3861   14.7705 O   0  0  0  0  0  0  0  0  0  0  0  0
   10.0511  -17.3536   10.5614 O   0  0  0  0  0  0  0  0  0  0  0  0
    7.6582  -17.8765   17.8424 O   0  0  0  0  0  0  0  0  0  0  0  0
    7.0063  -16.6731   17.5584 C   0  0  0  0  0  0  0  0  0  0  0  0
    8.0347  -15.5990   17.2198 C   0  0  2  0  0  0  0  0  0  0  0  0
    8.9403  -16.1577   16.1922 N   0  0  0  0  0  0  0  0  0  0  0  0
    8.8213  -15.1995   18.3873 C   0  0  0  0  0  0  0  0  0  0  0  0
    9.9750  -15.7781   18.4964 O   0  0  0  0  0  0  0  0  0  0  0  0
    8.4554  -14.2657   19.3794 N   0  0  0  0  0  0  0  0  0  0  0  0
    7.1848  -13.5791   19.4700 C   0  0  0  0  0  0  0  0  0  0  0  0
    7.6969  -12.1760   19.8210 C   0  0  0  0  0  0  0  0  0  0  0  0
    8.5566  -12.5526   21.0165 C   0  0  0  0  0  0  0  0  0  0  0  0
    9.2096  -13.8293   20.5140 C   0  0  1  0  0  0  0  0  0  0  0  0
    9.0708  -14.8487   21.6159 C   0  0  0  0  0  0  0  0  0  0  0  0
    9.7870  -14.7799   22.6405 O   0  0  0  0  0  0  0  0  0  0  0  0
    8.1536  -15.8714   21.5124 O   0  0  0  0  0  0  0  0  0  0  0  0
  2  1  1  1
  2  3  1  0
  3  4  1  0
  4  8  1  0
  5  4  2  0
  6  2  1  0
  7  6  2  0
  9 10  1  0
 11 10  1  1
 11 13  1  0
 11 12  1  0
 12  6  1  0
 13 15  1  0
 14 13  2  0
 15 16  1  0
 15 19  1  0
 16 17  1  0
 17 18  1  0
 19 20  1  1
 19 18  1  0
 20 22  1  0
 21 20  2  0
M  END
$$$$
