DSP.pdb
     RDKit          3D

 22 22  0  0  1  0  0  0  0  0999 V2000
    9.3190  -16.6840   19.4096 N   0  0  0  0  0  0  0  0  0  0  0  0
    9.8680  -16.6520   20.7487 C   0  0  1  0  0  0  0  0  0  0  0  0
   11.2409  -16.0249   20.7163 C   0  0  0  0  0  0  0  0  0  0  0  0
   12.2608  -16.8971   20.0948 C   0  0  0  0  0  0  0  0  0  0  0  0
   12.8096  -16.5387   19.0287 O   0  0  0  0  0  0  0  0  0  0  0  0
    8.9667  -15.8691   21.6697 C   0  0  0  0  0  0  0  0  0  0  0  0
    8.6792  -14.6835   21.3548 O   0  0  0  0  0  0  0  0  0  0  0  0
   12.5751  -18.1142   20.7388 O   0  0  0  0  0  0  0  0  0  0  0  0
    6.8575  -17.5285   24.9998 O   0  0  0  0  0  0  0  0  0  0  0  0
    6.3618  -16.5780   24.1027 C   0  0  0  0  0  0  0  0  0  0  0  0
    7.4823  -15.6310   23.6862 C   0  0  2  0  0  0  0  0  0  0  0  0
    8.4344  -16.4040   22.8591 N   0  0  0  0  0  0  0  0  0  0  0  0
    8.1904  -15.0723   24.8384 C   0  0  0  0  0  0  0  0  0  0  0  0
    9.3923  -15.5218   25.0153 O   0  0  0  0  0  0  0  0  0  0  0  0
    7.7044  -14.1126   25.7510 N   0  0  0  0  0  0  0  0  0  0  0  0
    6.3895  -13.5087   25.7262 C   0  0  0  0  0  0  0  0  0  0  0  0
    6.7884  -12.0574   26.0244 C   0  0  0  0  0  0  0  0  0  0  0  0
    7.5935  -12.3101   27.2886 C   0  0  0  0  0  0  0  0  0  0  0  0
    8.3566  -13.5655   26.9008 C   0  0  1  0  0  0  0  0  0  0  0  0
    8.2140  -14.5306   28.0502 C   0  0  0  0  0  0  0  0  0  0  0  0
    7.4164  -15.4929   27.9781 O   0  0  0  0  0  0  0  0  0  0  0  0
    8.9595  -14.3685   29.1974 O   0  0  0  0  0  0  0  0  0  0  0  0
  2  1  1  6
  2  3  1  0
  3  4  1  0
  4  8  1  0
  5  4  2  0
  6  2  1  0
  7  6  2  0
  9 10  1  0
 11 10  1  1
 11 13  1  0
 11 12  1  0
 12  6  1  0
 13 15  1  0
 14 13  2  0
 15 16  1  0
 15 19  1  0
 16 17  1  0
 17 18  1  0
 19 20  1  1
 19 18  1  0
 20 22  1  0
 21 20  2  0
M  END
$$$$
