DSP.pdb
     RDKit          3D

 22 22  0  0  1  0  0  0  0  0999 V2000
    9.2399  -17.6961   20.9268 N   0  0  0  0  0  0  0  0  0  0  0  0
    8.6687  -16.4331   20.5095 C   0  0  1  0  0  0  0  0  0  0  0  0
    7.7934  -16.6506   19.2989 C   0  0  0  0  0  0  0  0  0  0  0  0
    8.5498  -17.1055   18.1123 C   0  0  0  0  0  0  0  0  0  0  0  0
    9.7819  -17.3038   18.2072 O   0  0  0  0  0  0  0  0  0  0  0  0
    7.8590  -15.8255   21.6270 C   0  0  0  0  0  0  0  0  0  0  0  0
    7.2944  -14.7185   21.4190 O   0  0  0  0  0  0  0  0  0  0  0  0
    7.8404  -17.2981   16.9064 O   0  0  0  0  0  0  0  0  0  0  0  0
    7.0327  -17.6480   25.4523 O   0  0  0  0  0  0  0  0  0  0  0  0
    6.1762  -16.8152   24.7266 C   0  0  0  0  0  0  0  0  0  0  0  0
    6.9909  -15.7594   23.9868 C   0  0  2  0  0  0  0  0  0  0  0  0
    7.7064  -16.4398   22.8854 N   0  0  0  0  0  0  0  0  0  0  0  0
    7.9651  -15.1021   24.8587 C   0  0  0  0  0  0  0  0  0  0  0  0
    9.1917  -15.4872   24.7004 O   0  0  0  0  0  0  0  0  0  0  0  0
    7.7049  -14.1115   25.8289 N   0  0  0  0  0  0  0  0  0  0  0  0
    6.3997  -13.6040   26.1934 C   0  0  0  0  0  0  0  0  0  0  0  0
    6.7396  -12.1100   26.2754 C   0  0  0  0  0  0  0  0  0  0  0  0
    7.9194  -12.2089   27.2287 C   0  0  0  0  0  0  0  0  0  0  0  0
    8.6323  -13.4344   26.6820 C   0  0  1  0  0  0  0  0  0  0  0  0
    8.9442  -14.3164   27.8642 C   0  0  0  0  0  0  0  0  0  0  0  0
    9.8463  -14.0012   28.6732 O   0  0  0  0  0  0  0  0  0  0  0  0
    8.2412  -15.4827   28.0727 O   0  0  0  0  0  0  0  0  0  0  0  0
  2  1  1  1
  2  3  1  0
  3  4  1  0
  4  8  1  0
  5  4  2  0
  6  2  1  0
  7  6  2  0
  9 10  1  0
 11 10  1  1
 11 13  1  0
 11 12  1  0
 12  6  1  0
 13 15  1  0
 14 13  2  0
 15 16  1  0
 15 19  1  0
 16 17  1  0
 17 18  1  0
 19 20  1  1
 19 18  1  0
 20 22  1  0
 21 20  2  0
M  END
$$$$
