DSP.pdb
     RDKit          3D

 22 22  0  0  1  0  0  0  0  0999 V2000
    8.3648  -18.3848   20.3115 N   0  0  0  0  0  0  0  0  0  0  0  0
    8.8416  -17.0358   20.5315 C   0  0  1  0  0  0  0  0  0  0  0  0
    8.8480  -16.2831   19.2228 C   0  0  0  0  0  0  0  0  0  0  0  0
   10.0347  -16.5788   18.3912 C   0  0  0  0  0  0  0  0  0  0  0  0
    9.8921  -16.7742   17.1633 O   0  0  0  0  0  0  0  0  0  0  0  0
    7.9653  -16.3230   21.5303 C   0  0  0  0  0  0  0  0  0  0  0  0
    6.9159  -15.7661   21.1107 O   0  0  0  0  0  0  0  0  0  0  0  0
   11.2948  -16.6299   19.0269 O   0  0  0  0  0  0  0  0  0  0  0  0
    7.1976  -17.6265   25.1699 O   0  0  0  0  0  0  0  0  0  0  0  0
    6.4336  -16.7315   24.4155 C   0  0  0  0  0  0  0  0  0  0  0  0
    7.3307  -15.6288   23.8631 C   0  0  2  0  0  0  0  0  0  0  0  0
    8.2673  -16.2549   22.9045 N   0  0  0  0  0  0  0  0  0  0  0  0
    8.0964  -14.9601   24.9157 C   0  0  0  0  0  0  0  0  0  0  0  0
    9.3499  -15.2816   24.9716 O   0  0  0  0  0  0  0  0  0  0  0  0
    7.6143  -14.0199   25.8504 N   0  0  0  0  0  0  0  0  0  0  0  0
    6.2418  -13.5800   25.9795 C   0  0  0  0  0  0  0  0  0  0  0  0
    6.4902  -12.0779   26.1705 C   0  0  0  0  0  0  0  0  0  0  0  0
    7.4756  -12.1669   27.3243 C   0  0  0  0  0  0  0  0  0  0  0  0
    8.3343  -13.3402   26.8830 C   0  0  1  0  0  0  0  0  0  0  0  0
    8.4620  -14.2549   28.0745 C   0  0  0  0  0  0  0  0  0  0  0  0
    9.1754  -13.9319   29.0514 O   0  0  0  0  0  0  0  0  0  0  0  0
    7.7955  -15.4602   28.1068 O   0  0  0  0  0  0  0  0  0  0  0  0
  2  1  1  6
  2  3  1  0
  3  4  1  0
  4  8  1  0
  5  4  2  0
  6  2  1  0
  7  6  2  0
  9 10  1  0
 11 10  1  1
 11 13  1  0
 11 12  1  0
 12  6  1  0
 13 15  1  0
 14 13  2  0
 15 16  1  0
 15 19  1  0
 16 17  1  0
 17 18  1  0
 19 20  1  1
 19 18  1  0
 20 22  1  0
 21 20  2  0
M  END
$$$$
