DSP.pdb
     RDKit          3D

 22 22  0  0  1  0  0  0  0  0999 V2000
    9.3477  -16.4556   20.5009 N   0  0  0  0  0  0  0  0  0  0  0  0
    8.8741  -15.1094   20.7432 C   0  0  1  0  0  0  0  0  0  0  0  0
    7.8640  -14.7319   19.6866 C   0  0  0  0  0  0  0  0  0  0  0  0
    8.2282  -15.2182   18.3382 C   0  0  0  0  0  0  0  0  0  0  0  0
    9.3460  -15.7516   18.1579 O   0  0  0  0  0  0  0  0  0  0  0  0
    8.2487  -15.0086   22.1116 C   0  0  0  0  0  0  0  0  0  0  0  0
    7.6904  -13.9256   22.4325 O   0  0  0  0  0  0  0  0  0  0  0  0
    7.2873  -15.0566   17.2975 O   0  0  0  0  0  0  0  0  0  0  0  0
    6.5288  -17.1180   26.0864 O   0  0  0  0  0  0  0  0  0  0  0  0
    6.9743  -17.1855   24.7631 C   0  0  0  0  0  0  0  0  0  0  0  0
    7.7066  -15.8977   24.4012 C   0  0  2  0  0  0  0  0  0  0  0  0
    8.2605  -16.0678   23.0402 N   0  0  0  0  0  0  0  0  0  0  0  0
    8.7978  -15.6027   25.3305 C   0  0  0  0  0  0  0  0  0  0  0  0
    9.9379  -16.1368   25.0262 O   0  0  0  0  0  0  0  0  0  0  0  0
    8.7310  -14.8097   26.4953 N   0  0  0  0  0  0  0  0  0  0  0  0
    7.5500  -14.1436   27.0008 C   0  0  0  0  0  0  0  0  0  0  0  0
    8.1810  -12.7986   27.3843 C   0  0  0  0  0  0  0  0  0  0  0  0
    9.3072  -13.3292   28.2564 C   0  0  0  0  0  0  0  0  0  0  0  0
    9.7662  -14.5265   27.4412 C   0  0  1  0  0  0  0  0  0  0  0  0
    9.8830  -15.6836   28.4005 C   0  0  0  0  0  0  0  0  0  0  0  0
    9.0240  -16.5945   28.4068 O   0  0  0  0  0  0  0  0  0  0  0  0
   10.9368  -15.7565   29.2849 O   0  0  0  0  0  0  0  0  0  0  0  0
  2  1  1  6
  2  3  1  0
  3  4  1  0
  4  8  1  0
  5  4  2  0
  6  2  1  0
  7  6  2  0
  9 10  1  0
 11 10  1  1
 11 13  1  0
 11 12  1  0
 12  6  1  0
 13 15  1  0
 14 13  2  0
 15 16  1  0
 15 19  1  0
 16 17  1  0
 17 18  1  0
 19 20  1  1
 19 18  1  0
 20 22  1  0
 21 20  2  0
M  END
$$$$
