DSP.pdb
     RDKit          3D

 22 22  0  0  1  0  0  0  0  0999 V2000
    6.9640  -17.0229   19.7170 N   0  0  0  0  0  0  0  0  0  0  0  0
    8.0027  -16.4987   20.5783 C   0  0  1  0  0  0  0  0  0  0  0  0
    8.7628  -15.4161   19.8507 C   0  0  0  0  0  0  0  0  0  0  0  0
    9.6471  -15.9438   18.7891 C   0  0  0  0  0  0  0  0  0  0  0  0
    9.4903  -15.5568   17.6093 O   0  0  0  0  0  0  0  0  0  0  0  0
    7.4058  -15.9438   21.8470 C   0  0  0  0  0  0  0  0  0  0  0  0
    6.4318  -15.1506   21.7491 O   0  0  0  0  0  0  0  0  0  0  0  0
   10.6431  -16.8751   19.1568 O   0  0  0  0  0  0  0  0  0  0  0  0
    7.5872  -17.8979   25.4089 O   0  0  0  0  0  0  0  0  0  0  0  0
    6.5834  -16.9979   25.0395 C   0  0  0  0  0  0  0  0  0  0  0  0
    7.2058  -15.7887   24.3494 C   0  0  2  0  0  0  0  0  0  0  0  0
    7.8867  -16.2739   23.1291 N   0  0  0  0  0  0  0  0  0  0  0  0
    8.1786  -15.1055   25.2028 C   0  0  0  0  0  0  0  0  0  0  0  0
    9.4089  -15.4761   25.0390 O   0  0  0  0  0  0  0  0  0  0  0  0
    7.9134  -14.1045   26.1609 N   0  0  0  0  0  0  0  0  0  0  0  0
    6.6226  -13.5074   26.4280 C   0  0  0  0  0  0  0  0  0  0  0  0
    7.0596  -12.0419   26.5533 C   0  0  0  0  0  0  0  0  0  0  0  0
    8.1507  -12.2302   27.5947 C   0  0  0  0  0  0  0  0  0  0  0  0
    8.8162  -13.5002   27.0916 C   0  0  1  0  0  0  0  0  0  0  0  0
    8.9709  -14.4089   28.2844 C   0  0  0  0  0  0  0  0  0  0  0  0
    9.7887  -14.1346   29.1919 O   0  0  0  0  0  0  0  0  0  0  0  0
    8.2145  -15.5552   28.3944 O   0  0  0  0  0  0  0  0  0  0  0  0
  2  1  1  6
  2  3  1  0
  3  4  1  0
  4  8  1  0
  5  4  2  0
  6  2  1  0
  7  6  2  0
  9 10  1  0
 11 10  1  1
 11 13  1  0
 11 12  1  0
 12  6  1  0
 13 15  1  0
 14 13  2  0
 15 16  1  0
 15 19  1  0
 16 17  1  0
 17 18  1  0
 19 20  1  1
 19 18  1  0
 20 22  1  0
 21 20  2  0
M  END
$$$$
