DSP.pdb
     RDKit          3D

 22 22  0  0  1  0  0  0  0  0999 V2000
    9.4893  -18.0659   20.3623 N   0  0  0  0  0  0  0  0  0  0  0  0
   10.4853  -17.4929   21.2426 C   0  0  1  0  0  0  0  0  0  0  0  0
   11.4921  -16.7170   20.4281 C   0  0  0  0  0  0  0  0  0  0  0  0
   12.4949  -17.5827   19.7708 C   0  0  0  0  0  0  0  0  0  0  0  0
   13.1222  -18.4243   20.4523 O   0  0  0  0  0  0  0  0  0  0  0  0
    9.8344  -16.5853   22.2556 C   0  0  0  0  0  0  0  0  0  0  0  0
    9.6409  -15.3813   21.9384 O   0  0  0  0  0  0  0  0  0  0  0  0
   12.7056  -17.4198   18.3838 O   0  0  0  0  0  0  0  0  0  0  0  0
    7.7571  -18.0091   25.5155 O   0  0  0  0  0  0  0  0  0  0  0  0
    7.4738  -16.7696   24.9347 C   0  0  0  0  0  0  0  0  0  0  0  0
    8.7703  -16.1051   24.4835 C   0  0  2  0  0  0  0  0  0  0  0  0
    9.4343  -17.0237   23.5331 N   0  0  0  0  0  0  0  0  0  0  0  0
    9.6731  -15.8380   25.6037 C   0  0  0  0  0  0  0  0  0  0  0  0
   10.7674  -16.5311   25.6046 O   0  0  0  0  0  0  0  0  0  0  0  0
    9.4738  -14.9189   26.6553 N   0  0  0  0  0  0  0  0  0  0  0  0
    8.3562  -14.0090   26.7855 C   0  0  0  0  0  0  0  0  0  0  0  0
    9.1201  -12.7563   27.2344 C   0  0  0  0  0  0  0  0  0  0  0  0
    9.8697  -13.3688   28.4061 C   0  0  0  0  0  0  0  0  0  0  0  0
   10.2763  -14.7110   27.8212 C   0  0  1  0  0  0  0  0  0  0  0  0
    9.9251  -15.7553   28.8501 C   0  0  0  0  0  0  0  0  0  0  0  0
   10.6105  -15.8798   29.8904 O   0  0  0  0  0  0  0  0  0  0  0  0
    8.8443  -16.5886   28.6615 O   0  0  0  0  0  0  0  0  0  0  0  0
  2  1  1  6
  2  3  1  0
  3  4  1  0
  4  8  1  0
  5  4  2  0
  6  2  1  0
  7  6  2  0
  9 10  1  0
 11 10  1  1
 11 13  1  0
 11 12  1  0
 12  6  1  0
 13 15  1  0
 14 13  2  0
 15 16  1  0
 15 19  1  0
 16 17  1  0
 17 18  1  0
 19 20  1  1
 19 18  1  0
 20 22  1  0
 21 20  2  0
M  END
$$$$
