DSP.pdb
     RDKit          3D

 22 22  0  0  1  0  0  0  0  0999 V2000
   10.2385  -16.5218   20.1395 N   0  0  0  0  0  0  0  0  0  0  0  0
   10.7887  -16.9828   21.3965 C   0  0  1  0  0  0  0  0  0  0  0  0
   12.2445  -16.5926   21.4836 C   0  0  0  0  0  0  0  0  0  0  0  0
   13.0962  -17.3163   20.5151 C   0  0  0  0  0  0  0  0  0  0  0  0
   13.4151  -18.5046   20.7443 O   0  0  0  0  0  0  0  0  0  0  0  0
   10.0272  -16.3894   22.5548 C   0  0  0  0  0  0  0  0  0  0  0  0
    9.8145  -15.1475   22.5534 O   0  0  0  0  0  0  0  0  0  0  0  0
   13.5202  -16.6260   19.3582 O   0  0  0  0  0  0  0  0  0  0  0  0
    6.9494  -17.0672   26.2094 O   0  0  0  0  0  0  0  0  0  0  0  0
    7.7189  -17.5883   25.1653 C   0  0  0  0  0  0  0  0  0  0  0  0
    8.7354  -16.5478   24.7071 C   0  0  2  0  0  0  0  0  0  0  0  0
    9.5449  -17.1598   23.6310 N   0  0  0  0  0  0  0  0  0  0  0  0
    9.6206  -16.1248   25.7928 C   0  0  0  0  0  0  0  0  0  0  0  0
   10.7302  -16.7866   25.8863 O   0  0  0  0  0  0  0  0  0  0  0  0
    9.3901  -15.0893   26.7227 N   0  0  0  0  0  0  0  0  0  0  0  0
    8.1601  -14.3416   26.8712 C   0  0  0  0  0  0  0  0  0  0  0  0
    8.7540  -12.9364   27.0357 C   0  0  0  0  0  0  0  0  0  0  0  0
    9.7167  -13.2404   28.1720 C   0  0  0  0  0  0  0  0  0  0  0  0
   10.2702  -14.5852   27.7316 C   0  0  1  0  0  0  0  0  0  0  0  0
   10.2081  -15.4930   28.9337 C   0  0  0  0  0  0  0  0  0  0  0  0
    9.3533  -16.4054   28.9988 O   0  0  0  0  0  0  0  0  0  0  0  0
   11.0912  -15.3325   29.9788 O   0  0  0  0  0  0  0  0  0  0  0  0
  2  1  1  6
  2  3  1  0
  3  4  1  0
  4  8  1  0
  5  4  2  0
  6  2  1  0
  7  6  2  0
  9 10  1  0
 11 10  1  1
 11 13  1  0
 11 12  1  0
 12  6  1  0
 13 15  1  0
 14 13  2  0
 15 16  1  0
 15 19  1  0
 16 17  1  0
 17 18  1  0
 19 20  1  1
 19 18  1  0
 20 22  1  0
 21 20  2  0
M  END
$$$$
