DSP.pdb
     RDKit          3D

 22 22  0  0  1  0  0  0  0  0999 V2000
    9.4320  -17.3116   20.0236 N   0  0  0  0  0  0  0  0  0  0  0  0
   10.2128  -17.2829   21.2422 C   0  0  1  0  0  0  0  0  0  0  0  0
   11.5519  -16.6416   20.9685 C   0  0  0  0  0  0  0  0  0  0  0  0
   12.4587  -17.5078   20.1845 C   0  0  0  0  0  0  0  0  0  0  0  0
   12.0894  -18.6622   19.8727 O   0  0  0  0  0  0  0  0  0  0  0  0
    9.4852  -16.5154   22.3170 C   0  0  0  0  0  0  0  0  0  0  0  0
    9.1513  -15.3247   22.0755 O   0  0  0  0  0  0  0  0  0  0  0  0
   13.7199  -16.9888   19.8174 O   0  0  0  0  0  0  0  0  0  0  0  0
    7.8863  -18.3187   25.7123 O   0  0  0  0  0  0  0  0  0  0  0  0
    7.3340  -17.1605   25.1579 C   0  0  0  0  0  0  0  0  0  0  0  0
    8.4447  -16.2801   24.5947 C   0  0  2  0  0  0  0  0  0  0  0  0
    9.1633  -17.0700   23.5712 N   0  0  0  0  0  0  0  0  0  0  0  0
    9.3914  -15.8571   25.6272 C   0  0  0  0  0  0  0  0  0  0  0  0
   10.5460  -16.4430   25.5871 O   0  0  0  0  0  0  0  0  0  0  0  0
    9.1753  -14.8942   26.6353 N   0  0  0  0  0  0  0  0  0  0  0  0
    7.9525  -14.1504   26.8490 C   0  0  0  0  0  0  0  0  0  0  0  0
    8.5592  -12.7668   27.1168 C   0  0  0  0  0  0  0  0  0  0  0  0
    9.5262  -13.1647   28.2199 C   0  0  0  0  0  0  0  0  0  0  0  0
   10.0657  -14.4761   27.6740 C   0  0  1  0  0  0  0  0  0  0  0  0
   10.0033  -15.4729   28.8033 C   0  0  0  0  0  0  0  0  0  0  0  0
   10.7786  -15.3759   29.7815 O   0  0  0  0  0  0  0  0  0  0  0  0
    9.0920  -16.5057   28.7762 O   0  0  0  0  0  0  0  0  0  0  0  0
  2  1  1  6
  2  3  1  0
  3  4  1  0
  4  8  1  0
  5  4  2  0
  6  2  1  0
  7  6  2  0
  9 10  1  0
 11 10  1  1
 11 13  1  0
 11 12  1  0
 12  6  1  0
 13 15  1  0
 14 13  2  0
 15 16  1  0
 15 19  1  0
 16 17  1  0
 17 18  1  0
 19 20  1  1
 19 18  1  0
 20 22  1  0
 21 20  2  0
M  END
$$$$
