DSP.pdb
     RDKit          3D

 22 22  0  0  1  0  0  0  0  0999 V2000
    8.5092  -16.3457   19.7975 N   0  0  0  0  0  0  0  0  0  0  0  0
    8.3409  -14.9410   20.1041 C   0  0  1  0  0  0  0  0  0  0  0  0
    7.5900  -14.2660   18.9817 C   0  0  0  0  0  0  0  0  0  0  0  0
    8.2949  -14.3458   17.6840 C   0  0  0  0  0  0  0  0  0  0  0  0
    9.4944  -14.7019   17.6566 O   0  0  0  0  0  0  0  0  0  0  0  0
    7.5901  -14.7703   21.4006 C   0  0  0  0  0  0  0  0  0  0  0  0
    6.5969  -13.9951   21.4155 O   0  0  0  0  0  0  0  0  0  0  0  0
    7.5752  -14.0111   16.5158 O   0  0  0  0  0  0  0  0  0  0  0  0
    7.5185  -17.4973   24.5453 O   0  0  0  0  0  0  0  0  0  0  0  0
    6.5327  -16.5699   24.1961 C   0  0  0  0  0  0  0  0  0  0  0  0
    7.1837  -15.2380   23.8383 C   0  0  2  0  0  0  0  0  0  0  0  0
    7.9486  -15.4377   22.5881 N   0  0  0  0  0  0  0  0  0  0  0  0
    8.0902  -14.7669   24.8860 C   0  0  0  0  0  0  0  0  0  0  0  0
    9.3313  -15.1036   24.7307 O   0  0  0  0  0  0  0  0  0  0  0  0
    7.7524  -13.9977   26.0193 N   0  0  0  0  0  0  0  0  0  0  0  0
    6.4246  -13.5406   26.3686 C   0  0  0  0  0  0  0  0  0  0  0  0
    6.7709  -12.1089   26.7981 C   0  0  0  0  0  0  0  0  0  0  0  0
    7.8573  -12.4429   27.8073 C   0  0  0  0  0  0  0  0  0  0  0  0
    8.6047  -13.5450   27.0754 C   0  0  1  0  0  0  0  0  0  0  0  0
    8.7977  -14.6667   28.0638 C   0  0  0  0  0  0  0  0  0  0  0  0
    8.0967  -15.7019   27.9968 O   0  0  0  0  0  0  0  0  0  0  0  0
    9.7487  -14.5701   29.0559 O   0  0  0  0  0  0  0  0  0  0  0  0
  2  1  1  6
  2  3  1  0
  3  4  1  0
  4  8  1  0
  5  4  2  0
  6  2  1  0
  7  6  2  0
  9 10  1  0
 11 10  1  1
 11 13  1  0
 11 12  1  0
 12  6  1  0
 13 15  1  0
 14 13  2  0
 15 16  1  0
 15 19  1  0
 16 17  1  0
 17 18  1  0
 19 20  1  1
 19 18  1  0
 20 22  1  0
 21 20  2  0
M  END
$$$$
