DSP.pdb
     RDKit          3D

 22 22  0  0  1  0  0  0  0  0999 V2000
   10.8113  -17.0750   14.5734 N   0  0  0  0  0  0  0  0  0  0  0  0
   10.1762  -15.7790   14.4613 C   0  0  1  0  0  0  0  0  0  0  0  0
    9.4591  -15.6815   13.1363 C   0  0  0  0  0  0  0  0  0  0  0  0
    9.9049  -16.6999   12.1610 C   0  0  0  0  0  0  0  0  0  0  0  0
   10.8422  -17.4722   12.4632 O   0  0  0  0  0  0  0  0  0  0  0  0
    9.1995  -15.5707   15.5910 C   0  0  0  0  0  0  0  0  0  0  0  0
    8.5872  -14.4713   15.6532 O   0  0  0  0  0  0  0  0  0  0  0  0
    9.2460  -16.7575   10.9131 O   0  0  0  0  0  0  0  0  0  0  0  0
    6.7375  -17.3454   19.3818 O   0  0  0  0  0  0  0  0  0  0  0  0
    7.4966  -17.5664   18.2291 C   0  0  0  0  0  0  0  0  0  0  0  0
    8.0916  -16.2482   17.7450 C   0  0  2  0  0  0  0  0  0  0  0  0
    8.9427  -16.5475   16.5729 N   0  0  0  0  0  0  0  0  0  0  0  0
    8.9031  -15.5973   18.7743 C   0  0  0  0  0  0  0  0  0  0  0  0
   10.0898  -16.0919   18.9323 O   0  0  0  0  0  0  0  0  0  0  0  0
    8.5287  -14.5080   19.5887 N   0  0  0  0  0  0  0  0  0  0  0  0
    7.3167  -13.7284   19.4573 C   0  0  0  0  0  0  0  0  0  0  0  0
    7.9103  -12.3287   19.6643 C   0  0  0  0  0  0  0  0  0  0  0  0
    8.6251  -12.5896   20.9800 C   0  0  0  0  0  0  0  0  0  0  0  0
    9.2119  -13.9675   20.7234 C   0  0  1  0  0  0  0  0  0  0  0  0
    8.8906  -14.8066   21.9340 C   0  0  0  0  0  0  0  0  0  0  0  0
    7.9516  -15.6342   21.9038 O   0  0  0  0  0  0  0  0  0  0  0  0
    9.6255  -14.6758   23.0919 O   0  0  0  0  0  0  0  0  0  0  0  0
  2  1  1  1
  2  3  1  0
  3  4  1  0
  4  8  1  0
  5  4  2  0
  6  2  1  0
  7  6  2  0
  9 10  1  0
 11 10  1  1
 11 13  1  0
 11 12  1  0
 12  6  1  0
 13 15  1  0
 14 13  2  0
 15 16  1  0
 15 19  1  0
 16 17  1  0
 17 18  1  0
 19 20  1  1
 19 18  1  0
 20 22  1  0
 21 20  2  0
M  END
$$$$
