VVL.pdb
     RDKit          3D

 23 22  0  0  1  0  0  0  0  0999 V2000
    5.3664  -12.5873   26.6671 C   0  0  0  0  0  0  0  0  0  0  0  0
    6.4712  -13.4360   26.1282 C   0  0  2  0  0  0  0  0  0  0  0  0
    7.2995  -12.5724   25.1797 C   0  0  0  0  0  0  0  0  0  0  0  0
    6.0270  -14.6312   25.3455 C   0  0  2  0  0  0  0  0  0  0  0  0
    5.0317  -15.4008   26.0480 N   0  0  0  0  0  0  0  0  0  0  0  0
    7.1652  -15.5397   25.0056 C   0  0  0  0  0  0  0  0  0  0  0  0
    7.1775  -16.6176   25.6254 O   0  0  0  0  0  0  0  0  0  0  0  0
   10.7194  -16.0334   21.4844 C   0  0  0  0  0  0  0  0  0  0  0  0
    9.7115  -15.1393   22.2285 C   0  0  1  0  0  0  0  0  0  0  0  0
    8.5306  -15.1175   21.2094 C   0  0  0  0  0  0  0  0  0  0  0  0
    9.1525  -15.9708   23.4058 C   0  0  2  0  0  0  0  0  0  0  0  0
    8.1035  -15.1711   24.0729 N   0  0  0  0  0  0  0  0  0  0  0  0
   10.1706  -16.2411   24.4387 C   0  0  0  0  0  0  0  0  0  0  0  0
   11.2427  -16.8833   24.1283 O   0  0  0  0  0  0  0  0  0  0  0  0
   10.0910  -13.2507   28.9127 C   0  0  0  0  0  0  0  0  0  0  0  0
   10.4549  -14.0512   27.6892 C   0  0  1  0  0  0  0  0  0  0  0  0
   11.6848  -13.3652   27.0887 C   0  0  0  0  0  0  0  0  0  0  0  0
   10.8515  -15.4539   28.0027 C   0  0  0  0  0  0  0  0  0  0  0  0
   11.0840  -16.3255   26.7866 C   0  0  2  0  0  0  0  0  0  0  0  0
   10.1080  -15.8549   25.7941 N   0  0  0  0  0  0  0  0  0  0  0  0
   10.9595  -17.7562   27.0516 C   0  0  0  0  0  0  0  0  0  0  0  0
   10.0160  -18.4351   26.5820 O   0  0  0  0  0  0  0  0  0  0  0  0
   11.8838  -18.4269   27.8368 O   0  0  0  0  0  0  0  0  0  0  0  0
  2  1  1  6
  2  4  1  0
  3  2  1  0
  4  5  1  1
  4  6  1  0
  6 12  1  0
  7  6  2  0
  9  8  1  6
  9 10  1  0
 11 13  1  0
 11  9  1  0
 11 12  1  1
 13 14  2  0
 16 15  1  1
 16 17  1  0
 18 16  1  0
 19 18  1  1
 20 19  1  0
 20 13  1  0
 21 19  1  0
 22 21  2  0
 23 21  1  0
M  END
$$$$
