VVL.pdb
     RDKit          3D

 23 22  0  0  1  0  0  0  0  0999 V2000
   14.2570  -18.3057   20.7986 C   0  0  0  0  0  0  0  0  0  0  0  0
   13.0787  -17.4238   21.0539 C   0  0  2  0  0  0  0  0  0  0  0  0
   12.6963  -17.5741   22.5245 C   0  0  0  0  0  0  0  0  0  0  0  0
   11.8571  -17.7528   20.2554 C   0  0  2  0  0  0  0  0  0  0  0  0
   12.1373  -17.8373   18.8444 N   0  0  0  0  0  0  0  0  0  0  0  0
   10.7641  -16.7519   20.4550 C   0  0  0  0  0  0  0  0  0  0  0  0
   10.9014  -15.6930   19.8176 O   0  0  0  0  0  0  0  0  0  0  0  0
    5.9890  -16.3645   21.4886 C   0  0  0  0  0  0  0  0  0  0  0  0
    7.2663  -17.1712   21.1941 C   0  0  1  0  0  0  0  0  0  0  0  0
    7.2547  -17.1798   19.6342 C   0  0  0  0  0  0  0  0  0  0  0  0
    8.4664  -16.2593   21.5376 C   0  0  2  0  0  0  0  0  0  0  0  0
    9.7071  -17.0231   21.2888 N   0  0  0  0  0  0  0  0  0  0  0  0
    8.5018  -15.8878   22.9650 C   0  0  0  0  0  0  0  0  0  0  0  0
    8.9426  -16.7289   23.8348 O   0  0  0  0  0  0  0  0  0  0  0  0
    8.2945  -12.0898   27.1845 C   0  0  0  0  0  0  0  0  0  0  0  0
    7.0762  -12.6979   26.5393 C   0  0  1  0  0  0  0  0  0  0  0  0
    6.0184  -11.5915   26.5129 C   0  0  0  0  0  0  0  0  0  0  0  0
    7.3059  -13.1109   25.1252 C   0  0  0  0  0  0  0  0  0  0  0  0
    8.0253  -14.4340   24.9684 C   0  0  2  0  0  0  0  0  0  0  0  0
    8.0943  -14.6553   23.5174 N   0  0  0  0  0  0  0  0  0  0  0  0
    7.3830  -15.5431   25.6684 C   0  0  0  0  0  0  0  0  0  0  0  0
    6.2487  -15.9634   25.3395 O   0  0  0  0  0  0  0  0  0  0  0  0
    8.0038  -16.1811   26.7307 O   0  0  0  0  0  0  0  0  0  0  0  0
  2  1  1  6
  2  4  1  0
  3  2  1  0
  4  5  1  6
  4  6  1  0
  6 12  1  0
  7  6  2  0
  9  8  1  1
  9 10  1  0
 11 13  1  0
 11  9  1  0
 11 12  1  1
 13 14  2  0
 16 15  1  6
 16 17  1  0
 18 16  1  0
 19 18  1  6
 20 19  1  0
 20 13  1  0
 21 19  1  0
 22 21  2  0
 23 21  1  0
M  END
$$$$
