VVL.pdb
     RDKit          3D

 23 22  0  0  1  0  0  0  0  0999 V2000
    6.2966  -20.7287   25.4531 C   0  0  0  0  0  0  0  0  0  0  0  0
    7.0590  -19.5730   24.8921 C   0  0  2  0  0  0  0  0  0  0  0  0
    6.8819  -18.3934   25.8454 C   0  0  0  0  0  0  0  0  0  0  0  0
    6.6044  -19.1095   23.5442 C   0  0  2  0  0  0  0  0  0  0  0  0
    6.4956  -20.1966   22.6045 N   0  0  0  0  0  0  0  0  0  0  0  0
    7.5189  -18.0794   22.9621 C   0  0  0  0  0  0  0  0  0  0  0  0
    8.5323  -18.5348   22.4035 O   0  0  0  0  0  0  0  0  0  0  0  0
    7.8090  -13.1519   22.0516 C   0  0  0  0  0  0  0  0  0  0  0  0
    6.9883  -14.4330   22.2837 C   0  0  1  0  0  0  0  0  0  0  0  0
    6.5481  -14.7678   20.8251 C   0  0  0  0  0  0  0  0  0  0  0  0
    7.9927  -15.5587   22.6213 C   0  0  2  0  0  0  0  0  0  0  0  0
    7.2231  -16.7419   23.0602 N   0  0  0  0  0  0  0  0  0  0  0  0
    8.8727  -15.2086   23.7525 C   0  0  0  0  0  0  0  0  0  0  0  0
    9.0873  -13.9712   24.0376 O   0  0  0  0  0  0  0  0  0  0  0  0
   10.5217  -13.3262   27.9505 C   0  0  0  0  0  0  0  0  0  0  0  0
    9.6876  -14.5794   28.0134 C   0  0  1  0  0  0  0  0  0  0  0  0
    8.4512  -14.2200   28.8417 C   0  0  0  0  0  0  0  0  0  0  0  0
    9.1987  -15.0261   26.6775 C   0  0  0  0  0  0  0  0  0  0  0  0
   10.2564  -15.6724   25.8078 C   0  0  2  0  0  0  0  0  0  0  0  0
    9.5364  -16.1150   24.6058 N   0  0  0  0  0  0  0  0  0  0  0  0
   10.9713  -16.7661   26.4601 C   0  0  0  0  0  0  0  0  0  0  0  0
   10.4687  -17.9090   26.5730 O   0  0  0  0  0  0  0  0  0  0  0  0
   12.2417  -16.5857   26.9837 O   0  0  0  0  0  0  0  0  0  0  0  0
  2  1  1  1
  2  4  1  0
  3  2  1  0
  4  5  1  6
  4  6  1  0
  6 12  1  0
  7  6  2  0
  9  8  1  6
  9 10  1  0
 11 13  1  0
 11  9  1  0
 11 12  1  1
 13 14  2  0
 16 15  1  6
 16 17  1  0
 18 16  1  0
 19 18  1  1
 20 19  1  0
 20 13  1  0
 21 19  1  0
 22 21  2  0
 23 21  1  0
M  END
$$$$
