VVL.pdb
     RDKit          3D

 23 22  0  0  1  0  0  0  0  0999 V2000
   12.3533  -20.0644   20.6918 C   0  0  0  0  0  0  0  0  0  0  0  0
   11.7886  -18.8338   21.3226 C   0  0  2  0  0  0  0  0  0  0  0  0
   10.5919  -19.2551   22.1725 C   0  0  0  0  0  0  0  0  0  0  0  0
   11.2917  -17.8008   20.3612 C   0  0  2  0  0  0  0  0  0  0  0  0
   12.3066  -17.4039   19.4184 N   0  0  0  0  0  0  0  0  0  0  0  0
   10.7949  -16.5734   21.0564 C   0  0  0  0  0  0  0  0  0  0  0  0
   11.6833  -15.8502   21.5401 O   0  0  0  0  0  0  0  0  0  0  0  0
    6.6252  -13.8542   21.6668 C   0  0  0  0  0  0  0  0  0  0  0  0
    7.4254  -14.9447   20.9323 C   0  0  1  0  0  0  0  0  0  0  0  0
    7.8870  -14.1648   19.6625 C   0  0  0  0  0  0  0  0  0  0  0  0
    8.7383  -15.1515   21.7218 C   0  0  2  0  0  0  0  0  0  0  0  0
    9.4503  -16.3045   21.1313 N   0  0  0  0  0  0  0  0  0  0  0  0
    8.4974  -15.5071   23.1332 C   0  0  0  0  0  0  0  0  0  0  0  0
    8.3472  -16.7421   23.4657 O   0  0  0  0  0  0  0  0  0  0  0  0
    7.0447  -11.8878   27.4162 C   0  0  0  0  0  0  0  0  0  0  0  0
    6.9835  -13.1759   26.6369 C   0  0  1  0  0  0  0  0  0  0  0  0
    6.4599  -12.8020   25.2477 C   0  0  0  0  0  0  0  0  0  0  0  0
    8.3203  -13.8065   26.4403 C   0  0  0  0  0  0  0  0  0  0  0  0
    8.2996  -15.0713   25.6081 C   0  0  2  0  0  0  0  0  0  0  0  0
    8.4133  -14.6090   24.2179 N   0  0  0  0  0  0  0  0  0  0  0  0
    7.1167  -15.9006   25.8216 C   0  0  0  0  0  0  0  0  0  0  0  0
    6.9975  -16.6334   26.8317 O   0  0  0  0  0  0  0  0  0  0  0  0
    6.0708  -15.9120   24.9123 O   0  0  0  0  0  0  0  0  0  0  0  0
  2  1  1  6
  2  4  1  0
  3  2  1  0
  4  5  1  6
  4  6  1  0
  6 12  1  0
  7  6  2  0
  9  8  1  1
  9 10  1  0
 11 13  1  0
 11  9  1  0
 11 12  1  6
 13 14  2  0
 16 15  1  1
 16 17  1  0
 18 16  1  0
 19 18  1  1
 20 19  1  0
 20 13  1  0
 21 19  1  0
 22 21  2  0
 23 21  1  0
M  END
$$$$
