VVL.pdb
     RDKit          3D

 23 22  0  0  1  0  0  0  0  0999 V2000
    8.1392  -12.2672   18.5320 C   0  0  0  0  0  0  0  0  0  0  0  0
    7.9107  -13.2256   19.6547 C   0  0  2  0  0  0  0  0  0  0  0  0
    8.5255  -12.6201   20.9145 C   0  0  0  0  0  0  0  0  0  0  0  0
    8.5368  -14.5724   19.4745 C   0  0  2  0  0  0  0  0  0  0  0  0
    8.1230  -15.2036   18.2469 N   0  0  0  0  0  0  0  0  0  0  0  0
    8.2213  -15.4989   20.6051 C   0  0  0  0  0  0  0  0  0  0  0  0
    7.1294  -16.0867   20.5109 O   0  0  0  0  0  0  0  0  0  0  0  0
    9.9936  -18.6637   23.7563 C   0  0  0  0  0  0  0  0  0  0  0  0
   10.1658  -17.6316   22.6277 C   0  0  1  0  0  0  0  0  0  0  0  0
    9.6839  -18.4598   21.3967 C   0  0  0  0  0  0  0  0  0  0  0  0
    9.0510  -16.5756   22.8066 C   0  0  2  0  0  0  0  0  0  0  0  0
    9.0998  -15.6583   21.6485 N   0  0  0  0  0  0  0  0  0  0  0  0
    9.2603  -15.7311   23.9981 C   0  0  0  0  0  0  0  0  0  0  0  0
   10.3702  -15.0947   24.1449 O   0  0  0  0  0  0  0  0  0  0  0  0
    5.6057  -12.4853   26.1626 C   0  0  0  0  0  0  0  0  0  0  0  0
    6.8970  -13.1250   25.7229 C   0  0  1  0  0  0  0  0  0  0  0  0
    7.9192  -11.9889   25.6323 C   0  0  0  0  0  0  0  0  0  0  0  0
    7.4296  -14.1087   26.7088 C   0  0  0  0  0  0  0  0  0  0  0  0
    8.7032  -14.8032   26.2747 C   0  0  2  0  0  0  0  0  0  0  0  0
    8.3395  -15.5231   25.0464 N   0  0  0  0  0  0  0  0  0  0  0  0
    9.2697  -15.6882   27.2889 C   0  0  0  0  0  0  0  0  0  0  0  0
    8.9572  -16.9003   27.3566 O   0  0  0  0  0  0  0  0  0  0  0  0
   10.1813  -15.2230   28.2234 O   0  0  0  0  0  0  0  0  0  0  0  0
  2  1  1  6
  2  4  1  0
  3  2  1  0
  4  5  1  6
  4  6  1  0
  6 12  1  0
  7  6  2  0
  9  8  1  1
  9 10  1  0
 11 13  1  0
 11  9  1  0
 11 12  1  6
 13 14  2  0
 16 15  1  1
 16 17  1  0
 18 16  1  0
 19 18  1  1
 20 19  1  0
 20 13  1  0
 21 19  1  0
 22 21  2  0
 23 21  1  0
M  END
$$$$
