VVL.pdb
     RDKit          3D

 23 22  0  0  1  0  0  0  0  0999 V2000
    7.7386  -12.5467   18.9139 C   0  0  0  0  0  0  0  0  0  0  0  0
    7.6991  -13.3728   20.1578 C   0  0  2  0  0  0  0  0  0  0  0  0
    8.6402  -12.7284   21.1731 C   0  0  0  0  0  0  0  0  0  0  0  0
    8.1501  -14.7895   19.9912 C   0  0  2  0  0  0  0  0  0  0  0  0
    7.4172  -15.4745   18.9567 N   0  0  0  0  0  0  0  0  0  0  0  0
    8.0193  -15.5773   21.2555 C   0  0  0  0  0  0  0  0  0  0  0  0
    6.8694  -15.9797   21.5049 O   0  0  0  0  0  0  0  0  0  0  0  0
   10.5065  -18.5009   24.3138 C   0  0  0  0  0  0  0  0  0  0  0  0
   10.4788  -17.5523   23.1021 C   0  0  1  0  0  0  0  0  0  0  0  0
   10.0449  -18.5345   21.9705 C   0  0  0  0  0  0  0  0  0  0  0  0
    9.2452  -16.6363   23.2730 C   0  0  2  0  0  0  0  0  0  0  0  0
    9.1131  -15.8146   22.0514 N   0  0  0  0  0  0  0  0  0  0  0  0
    9.4023  -15.6807   24.3859 C   0  0  0  0  0  0  0  0  0  0  0  0
   10.4019  -14.8689   24.3966 O   0  0  0  0  0  0  0  0  0  0  0  0
    5.6483  -12.5854   26.3757 C   0  0  0  0  0  0  0  0  0  0  0  0
    6.9511  -13.2181   25.9601 C   0  0  1  0  0  0  0  0  0  0  0  0
    7.9061  -12.0584   25.6652 C   0  0  0  0  0  0  0  0  0  0  0  0
    7.5788  -14.0317   27.0405 C   0  0  0  0  0  0  0  0  0  0  0  0
    8.8814  -14.6962   26.6472 C   0  0  2  0  0  0  0  0  0  0  0  0
    8.5402  -15.5400   25.4937 N   0  0  0  0  0  0  0  0  0  0  0  0
    9.5063  -15.4574   27.7255 C   0  0  0  0  0  0  0  0  0  0  0  0
    9.3449  -16.6953   27.8395 O   0  0  0  0  0  0  0  0  0  0  0  0
   10.3083  -14.8403   28.6724 O   0  0  0  0  0  0  0  0  0  0  0  0
  2  1  1  6
  2  4  1  0
  3  2  1  0
  4  5  1  6
  4  6  1  0
  6 12  1  0
  7  6  2  0
  9  8  1  1
  9 10  1  0
 11 13  1  0
 11  9  1  0
 11 12  1  6
 13 14  2  0
 16 15  1  1
 16 17  1  0
 18 16  1  0
 19 18  1  1
 20 19  1  0
 20 13  1  0
 21 19  1  0
 22 21  2  0
 23 21  1  0
M  END
$$$$
