VVL.pdb
     RDKit          3D

 23 22  0  0  1  0  0  0  0  0999 V2000
    8.3828  -12.3697   18.4748 C   0  0  0  0  0  0  0  0  0  0  0  0
    7.9813  -13.2732   19.5946 C   0  0  2  0  0  0  0  0  0  0  0  0
    8.4231  -12.6178   20.9011 C   0  0  0  0  0  0  0  0  0  0  0  0
    8.6027  -14.6339   19.5637 C   0  0  2  0  0  0  0  0  0  0  0  0
    8.3333  -15.3257   18.3286 N   0  0  0  0  0  0  0  0  0  0  0  0
    8.1346  -15.4953   20.6928 C   0  0  0  0  0  0  0  0  0  0  0  0
    7.1228  -16.1755   20.4477 O   0  0  0  0  0  0  0  0  0  0  0  0
    8.7774  -18.3350   21.6880 C   0  0  0  0  0  0  0  0  0  0  0  0
    9.3346  -17.6471   22.9471 C   0  0  1  0  0  0  0  0  0  0  0  0
   10.7401  -17.1997   22.4393 C   0  0  0  0  0  0  0  0  0  0  0  0
    8.5712  -16.3126   23.1086 C   0  0  2  0  0  0  0  0  0  0  0  0
    8.8019  -15.5037   21.8931 N   0  0  0  0  0  0  0  0  0  0  0  0
    9.0805  -15.5042   24.2328 C   0  0  0  0  0  0  0  0  0  0  0  0
   10.2763  -15.0282   24.1890 O   0  0  0  0  0  0  0  0  0  0  0  0
    5.8159  -12.3094   26.8329 C   0  0  0  0  0  0  0  0  0  0  0  0
    6.9482  -13.0563   26.1769 C   0  0  1  0  0  0  0  0  0  0  0  0
    7.7257  -12.0146   25.3680 C   0  0  0  0  0  0  0  0  0  0  0  0
    7.9056  -13.6472   27.1554 C   0  0  0  0  0  0  0  0  0  0  0  0
    9.0136  -14.4679   26.5297 C   0  0  2  0  0  0  0  0  0  0  0  0
    8.3748  -15.1691   25.4075 N   0  0  0  0  0  0  0  0  0  0  0  0
    9.6659  -15.3868   27.4585 C   0  0  0  0  0  0  0  0  0  0  0  0
    9.4415  -16.6199   27.4344 O   0  0  0  0  0  0  0  0  0  0  0  0
   10.5653  -14.9321   28.4099 O   0  0  0  0  0  0  0  0  0  0  0  0
  2  1  1  6
  2  4  1  0
  3  2  1  0
  4  5  1  6
  4  6  1  0
  6 12  1  0
  7  6  2  0
  9  8  1  6
  9 10  1  0
 11 13  1  0
 11  9  1  0
 11 12  1  6
 13 14  2  0
 16 15  1  1
 16 17  1  0
 18 16  1  0
 19 18  1  1
 20 19  1  0
 20 13  1  0
 21 19  1  0
 22 21  2  0
 23 21  1  0
M  END
$$$$
