VVL.pdb
     RDKit          3D

 23 22  0  0  1  0  0  0  0  0999 V2000
    6.6872  -20.6796   22.7987 C   0  0  0  0  0  0  0  0  0  0  0  0
    7.2300  -19.2893   22.8591 C   0  0  2  0  0  0  0  0  0  0  0  0
    6.2588  -18.4472   23.6832 C   0  0  0  0  0  0  0  0  0  0  0  0
    7.3740  -18.6080   21.5349 C   0  0  2  0  0  0  0  0  0  0  0  0
    7.9902  -19.4606   20.5500 N   0  0  0  0  0  0  0  0  0  0  0  0
    8.1763  -17.3497   21.6303 C   0  0  0  0  0  0  0  0  0  0  0  0
    9.4091  -17.5123   21.6124 O   0  0  0  0  0  0  0  0  0  0  0  0
    7.6413  -12.3583   21.4545 C   0  0  0  0  0  0  0  0  0  0  0  0
    7.0485  -13.7712   21.3091 C   0  0  1  0  0  0  0  0  0  0  0  0
    7.0597  -13.9358   19.7579 C   0  0  0  0  0  0  0  0  0  0  0  0
    8.1321  -14.7671   21.7821 C   0  0  2  0  0  0  0  0  0  0  0  0
    7.5571  -16.1278   21.7290 N   0  0  0  0  0  0  0  0  0  0  0  0
    8.5225  -14.5498   23.1882 C   0  0  0  0  0  0  0  0  0  0  0  0
    9.0093  -13.4135   23.5492 O   0  0  0  0  0  0  0  0  0  0  0  0
    6.1772  -12.1654   25.9667 C   0  0  0  0  0  0  0  0  0  0  0  0
    7.4588  -12.8927   25.6524 C   0  0  1  0  0  0  0  0  0  0  0  0
    8.5429  -12.2177   26.4968 C   0  0  0  0  0  0  0  0  0  0  0  0
    7.4309  -14.3291   26.0516 C   0  0  0  0  0  0  0  0  0  0  0  0
    8.6570  -15.1170   25.6406 C   0  0  2  0  0  0  0  0  0  0  0  0
    8.4152  -15.4852   24.2388 N   0  0  0  0  0  0  0  0  0  0  0  0
    8.9216  -16.2810   26.4818 C   0  0  0  0  0  0  0  0  0  0  0  0
    9.1667  -16.1689   27.7061 O   0  0  0  0  0  0  0  0  0  0  0  0
    8.9123  -17.5647   25.9596 O   0  0  0  0  0  0  0  0  0  0  0  0
  2  1  1  6
  2  4  1  0
  3  2  1  0
  4  5  1  6
  4  6  1  0
  6 12  1  0
  7  6  2  0
  9  8  1  6
  9 10  1  0
 11 13  1  0
 11  9  1  0
 11 12  1  1
 13 14  2  0
 16 15  1  1
 16 17  1  0
 18 16  1  0
 19 18  1  1
 20 19  1  0
 20 13  1  0
 21 19  1  0
 22 21  2  0
 23 21  1  0
M  END
$$$$
