VVL.pdb
     RDKit          3D

 23 22  0  0  1  0  0  0  0  0999 V2000
   10.9343  -19.2029   22.1853 C   0  0  0  0  0  0  0  0  0  0  0  0
   10.1087  -19.0160   20.9544 C   0  0  2  0  0  0  0  0  0  0  0  0
   10.2459  -20.2789   20.1072 C   0  0  0  0  0  0  0  0  0  0  0  0
   10.5179  -17.8684   20.0862 C   0  0  2  0  0  0  0  0  0  0  0  0
   11.9062  -17.9424   19.7073 N   0  0  0  0  0  0  0  0  0  0  0  0
   10.2845  -16.5475   20.7473 C   0  0  0  0  0  0  0  0  0  0  0  0
   11.2965  -16.0269   21.2485 O   0  0  0  0  0  0  0  0  0  0  0  0
    6.8607  -12.9262   21.2348 C   0  0  0  0  0  0  0  0  0  0  0  0
    7.3740  -14.2019   20.5433 C   0  0  1  0  0  0  0  0  0  0  0  0
    8.0639  -13.5950   19.2827 C   0  0  0  0  0  0  0  0  0  0  0  0
    8.5614  -14.7252   21.3836 C   0  0  2  0  0  0  0  0  0  0  0  0
    9.0305  -15.9882   20.7755 N   0  0  0  0  0  0  0  0  0  0  0  0
    8.1686  -15.0648   22.7645 C   0  0  0  0  0  0  0  0  0  0  0  0
    7.5247  -16.1556   22.9972 O   0  0  0  0  0  0  0  0  0  0  0  0
    8.2638  -11.9809   26.7302 C   0  0  0  0  0  0  0  0  0  0  0  0
    6.9783  -12.7664   26.7057 C   0  0  1  0  0  0  0  0  0  0  0  0
    5.8520  -11.7305   26.7518 C   0  0  0  0  0  0  0  0  0  0  0  0
    6.7941  -13.5507   25.4511 C   0  0  0  0  0  0  0  0  0  0  0  0
    7.8385  -14.6233   25.2242 C   0  0  2  0  0  0  0  0  0  0  0  0
    8.4331  -14.2999   23.9200 N   0  0  0  0  0  0  0  0  0  0  0  0
    7.3091  -15.9836   25.2702 C   0  0  0  0  0  0  0  0  0  0  0  0
    6.4195  -16.3731   24.4775 O   0  0  0  0  0  0  0  0  0  0  0  0
    7.7705  -16.9056   26.1963 O   0  0  0  0  0  0  0  0  0  0  0  0
  2  1  1  1
  2  4  1  0
  3  2  1  0
  4  5  1  1
  4  6  1  0
  6 12  1  0
  7  6  2  0
  9  8  1  1
  9 10  1  0
 11 13  1  0
 11  9  1  0
 11 12  1  6
 13 14  2  0
 16 15  1  6
 16 17  1  0
 18 16  1  0
 19 18  1  6
 20 19  1  0
 20 13  1  0
 21 19  1  0
 22 21  2  0
 23 21  1  0
M  END
$$$$
