VVL.pdb
     RDKit          3D

 23 22  0  0  1  0  0  0  0  0999 V2000
    7.4768  -12.6548   27.3635 C   0  0  0  0  0  0  0  0  0  0  0  0
    6.8639  -12.3145   26.0444 C   0  0  2  0  0  0  0  0  0  0  0  0
    6.0157  -11.0594   26.2367 C   0  0  0  0  0  0  0  0  0  0  0  0
    5.9595  -13.3628   25.4775 C   0  0  2  0  0  0  0  0  0  0  0  0
    4.9659  -13.7943   26.4277 N   0  0  0  0  0  0  0  0  0  0  0  0
    6.7127  -14.5673   25.0105 C   0  0  0  0  0  0  0  0  0  0  0  0
    6.5968  -15.5708   25.7358 O   0  0  0  0  0  0  0  0  0  0  0  0
    9.2741  -16.3531   21.1041 C   0  0  0  0  0  0  0  0  0  0  0  0
    8.5936  -15.1511   21.7833 C   0  0  1  0  0  0  0  0  0  0  0  0
    7.1716  -15.2203   21.1458 C   0  0  0  0  0  0  0  0  0  0  0  0
    8.3444  -15.5458   23.2570 C   0  0  2  0  0  0  0  0  0  0  0  0
    7.4636  -14.5242   23.8614 N   0  0  0  0  0  0  0  0  0  0  0  0
    9.5819  -15.5366   24.0602 C   0  0  0  0  0  0  0  0  0  0  0  0
   10.4725  -14.6297   23.8536 O   0  0  0  0  0  0  0  0  0  0  0  0
   10.7479  -15.5683   28.7737 C   0  0  0  0  0  0  0  0  0  0  0  0
   10.4132  -14.9530   27.4397 C   0  0  1  0  0  0  0  0  0  0  0  0
   10.3832  -13.4398   27.6707 C   0  0  0  0  0  0  0  0  0  0  0  0
   11.4487  -15.2114   26.3984 C   0  0  0  0  0  0  0  0  0  0  0  0
   11.2733  -16.5168   25.6515 C   0  0  2  0  0  0  0  0  0  0  0  0
    9.9198  -16.4467   25.0838 N   0  0  0  0  0  0  0  0  0  0  0  0
   11.4659  -17.7033   26.4808 C   0  0  0  0  0  0  0  0  0  0  0  0
   10.5159  -18.4688   26.7692 O   0  0  0  0  0  0  0  0  0  0  0  0
   12.7131  -18.0349   26.9860 O   0  0  0  0  0  0  0  0  0  0  0  0
  2  1  1  1
  2  4  1  0
  3  2  1  0
  4  5  1  1
  4  6  1  0
  6 12  1  0
  7  6  2  0
  9  8  1  6
  9 10  1  0
 11 13  1  0
 11  9  1  0
 11 12  1  1
 13 14  2  0
 16 15  1  1
 16 17  1  0
 18 16  1  0
 19 18  1  1
 20 19  1  0
 20 13  1  0
 21 19  1  0
 22 21  2  0
 23 21  1  0
M  END
$$$$
