VVL.pdb
     RDKit          3D

 23 22  0  0  1  0  0  0  0  0999 V2000
   14.1514  -14.7298   20.2157 C   0  0  0  0  0  0  0  0  0  0  0  0
   12.7632  -14.5031   20.7186 C   0  0  2  0  0  0  0  0  0  0  0  0
   12.6660  -15.1252   22.1097 C   0  0  0  0  0  0  0  0  0  0  0  0
   11.6815  -15.1242   19.8925 C   0  0  2  0  0  0  0  0  0  0  0  0
   11.7102  -14.6653   18.5268 N   0  0  0  0  0  0  0  0  0  0  0  0
   10.3195  -14.8530   20.4474 C   0  0  0  0  0  0  0  0  0  0  0  0
    9.8425  -13.7450   20.1456 O   0  0  0  0  0  0  0  0  0  0  0  0
    6.2430  -17.0855   22.1039 C   0  0  0  0  0  0  0  0  0  0  0  0
    7.5853  -17.0441   21.3520 C   0  0  1  0  0  0  0  0  0  0  0  0
    7.1049  -16.6767   19.9140 C   0  0  0  0  0  0  0  0  0  0  0  0
    8.3257  -15.7696   21.8182 C   0  0  2  0  0  0  0  0  0  0  0  0
    9.6804  -15.7857   21.2270 N   0  0  0  0  0  0  0  0  0  0  0  0
    8.5247  -15.7358   23.2796 C   0  0  0  0  0  0  0  0  0  0  0  0
    9.4571  -16.4443   23.8154 O   0  0  0  0  0  0  0  0  0  0  0  0
    6.2081  -11.7389   26.2465 C   0  0  0  0  0  0  0  0  0  0  0  0
    7.2893  -12.7057   25.8383 C   0  0  1  0  0  0  0  0  0  0  0  0
    8.5550  -12.2547   26.5720 C   0  0  0  0  0  0  0  0  0  0  0  0
    7.0158  -14.1069   26.2684 C   0  0  0  0  0  0  0  0  0  0  0  0
    7.9387  -15.1406   25.6579 C   0  0  2  0  0  0  0  0  0  0  0  0
    7.7800  -14.9764   24.2064 N   0  0  0  0  0  0  0  0  0  0  0  0
    7.6671  -16.5075   26.0942 C   0  0  0  0  0  0  0  0  0  0  0  0
    6.7255  -17.1799   25.6117 O   0  0  0  0  0  0  0  0  0  0  0  0
    8.4429  -17.1219   27.0645 O   0  0  0  0  0  0  0  0  0  0  0  0
  2  1  1  6
  2  4  1  0
  3  2  1  0
  4  5  1  6
  4  6  1  0
  6 12  1  0
  7  6  2  0
  9  8  1  1
  9 10  1  0
 11 13  1  0
 11  9  1  0
 11 12  1  6
 13 14  2  0
 16 15  1  1
 16 17  1  0
 18 16  1  0
 19 18  1  1
 20 19  1  0
 20 13  1  0
 21 19  1  0
 22 21  2  0
 23 21  1  0
M  END
$$$$
