VVL.pdb
     RDKit          3D

 23 22  0  0  1  0  0  0  0  0999 V2000
    8.1872  -12.3060   18.2897 C   0  0  0  0  0  0  0  0  0  0  0  0
    7.8322  -13.2942   19.3521 C   0  0  2  0  0  0  0  0  0  0  0  0
    8.2250  -12.6899   20.6982 C   0  0  0  0  0  0  0  0  0  0  0  0
    8.5334  -14.6119   19.2505 C   0  0  2  0  0  0  0  0  0  0  0  0
    8.3460  -15.2287   17.9617 N   0  0  0  0  0  0  0  0  0  0  0  0
    8.0802  -15.5763   20.2997 C   0  0  0  0  0  0  0  0  0  0  0  0
    7.2978  -16.4560   19.8991 O   0  0  0  0  0  0  0  0  0  0  0  0
    9.3134  -18.5744   23.5897 C   0  0  0  0  0  0  0  0  0  0  0  0
    9.3470  -17.6290   22.3757 C   0  0  1  0  0  0  0  0  0  0  0  0
    8.4935  -18.4376   21.3504 C   0  0  0  0  0  0  0  0  0  0  0  0
    8.4451  -16.4211   22.7180 C   0  0  2  0  0  0  0  0  0  0  0  0
    8.5199  -15.4619   21.5957 N   0  0  0  0  0  0  0  0  0  0  0  0
    8.9146  -15.6860   23.9078 C   0  0  0  0  0  0  0  0  0  0  0  0
   10.1461  -15.3182   23.9885 O   0  0  0  0  0  0  0  0  0  0  0  0
    5.8275  -12.1403   26.4370 C   0  0  0  0  0  0  0  0  0  0  0  0
    6.9266  -12.9684   25.8232 C   0  0  1  0  0  0  0  0  0  0  0  0
    7.9720  -11.9706   25.3179 C   0  0  0  0  0  0  0  0  0  0  0  0
    7.6131  -13.8535   26.8072 C   0  0  0  0  0  0  0  0  0  0  0  0
    8.7224  -14.7006   26.2200 C   0  0  2  0  0  0  0  0  0  0  0  0
    8.1331  -15.3144   25.0220 N   0  0  0  0  0  0  0  0  0  0  0  0
    9.2604  -15.6946   27.1447 C   0  0  0  0  0  0  0  0  0  0  0  0
    8.8330  -16.8728   27.1698 O   0  0  0  0  0  0  0  0  0  0  0  0
   10.2715  -15.3757   28.0373 O   0  0  0  0  0  0  0  0  0  0  0  0
  2  1  1  6
  2  4  1  0
  3  2  1  0
  4  5  1  6
  4  6  1  0
  6 12  1  0
  7  6  2  0
  9  8  1  1
  9 10  1  0
 11 13  1  0
 11  9  1  0
 11 12  1  6
 13 14  2  0
 16 15  1  1
 16 17  1  0
 18 16  1  0
 19 18  1  1
 20 19  1  0
 20 13  1  0
 21 19  1  0
 22 21  2  0
 23 21  1  0
M  END
$$$$
