SAH.pdb
     RDKit          3D

 22 22  0  0  1  0  0  0  0  0999 V2000
   29.1442  -33.4685   -5.0913 O   0  0  0  0  0  0  0  0  0  0  0  0
   28.8473  -33.8242   -3.7858 C   0  0  0  0  0  0  0  0  0  0  0  0
   29.2468  -35.2666   -3.5650 C   0  0  2  0  0  0  0  0  0  0  0  0
   28.4200  -36.1673   -4.3355 N   0  0  0  0  0  0  0  0  0  0  0  0
   29.1341  -35.5282   -2.1051 C   0  0  0  0  0  0  0  0  0  0  0  0
   27.9725  -35.6832   -1.6441 O   0  0  0  0  0  0  0  0  0  0  0  0
   31.4770  -36.1109    0.7517 C   0  0  0  0  0  0  0  0  0  0  0  0
   30.0776  -35.9149    0.1513 C   0  0  2  0  0  0  0  0  0  0  0  0
   30.2606  -35.6065   -1.2407 N   0  0  0  0  0  0  0  0  0  0  0  0
   29.4787  -34.7814    0.9048 C   0  0  0  0  0  0  0  0  0  0  0  0
   29.6573  -33.6211    0.4573 O   0  0  0  0  0  0  0  0  0  0  0  0
   28.7282  -34.9354    2.0833 N   0  0  0  0  0  0  0  0  0  0  0  0
   28.0894  -33.8307    2.8068 C   0  0  1  0  0  0  0  0  0  0  0  0
   27.0078  -33.2075    1.9615 C   0  0  0  0  0  0  0  0  0  0  0  0
   26.3521  -32.1318    2.7286 C   0  0  0  0  0  0  0  0  0  0  0  0
   26.9976  -31.1300    3.4565 C   0  0  0  0  0  0  0  0  0  0  0  0
   26.0882  -30.3286    4.0234 N   0  0  0  0  0  0  0  0  0  0  0  0
   24.8824  -30.7942    3.6752 C   0  0  0  0  0  0  0  0  0  0  0  0
   25.0528  -31.8941    2.8855 N   0  0  0  0  0  0  0  0  0  0  0  0
   27.4568  -34.4618    3.9883 C   0  0  0  0  0  0  0  0  0  0  0  0
   27.1563  -35.8164    4.0718 O   0  0  0  0  0  0  0  0  0  0  0  0
   27.1705  -33.7520    4.9736 O   0  0  0  0  0  0  0  0  0  0  0  0
  2  1  1  0
  3  4  1  6
  3  2  1  0
  5  3  1  0
  5  6  2  0
  8  7  1  1
  8  9  1  0
  8 10  1  0
  9  5  1  0
 10 12  1  0
 11 10  2  0
 12 13  1  0
 13 20  1  0
 14 15  1  0
 13 14  1  6
 15 16  2  0
 17 16  1  0
 18 17  1  0
 19 18  2  0
 19 15  1  0
 20 22  2  0
 20 21  1  0
M  END
$$$$
