SAH.pdb
     RDKit          3D

 22 22  0  0  1  0  0  0  0  0999 V2000
   21.1829   -9.0905  -21.4035 O   0  0  0  0  0  0  0  0  0  0  0  0
   20.3384   -8.8316  -20.3363 C   0  0  0  0  0  0  0  0  0  0  0  0
   20.3394  -10.0248  -19.4063 C   0  0  2  0  0  0  0  0  0  0  0  0
   19.1879  -10.8692  -19.6296 N   0  0  0  0  0  0  0  0  0  0  0  0
   20.3704   -9.4916  -18.0181 C   0  0  0  0  0  0  0  0  0  0  0  0
   19.2836   -9.0589  -17.5517 O   0  0  0  0  0  0  0  0  0  0  0  0
   22.6791   -9.5669  -15.1239 C   0  0  0  0  0  0  0  0  0  0  0  0
   21.4997   -8.9434  -15.8838 C   0  0  2  0  0  0  0  0  0  0  0  0
   21.5508   -9.4559  -17.2258 N   0  0  0  0  0  0  0  0  0  0  0  0
   21.7281   -7.4749  -15.8332 C   0  0  0  0  0  0  0  0  0  0  0  0
   22.5379   -6.9793  -16.6560 O   0  0  0  0  0  0  0  0  0  0  0  0
   21.0916   -6.6155  -14.9208 N   0  0  0  0  0  0  0  0  0  0  0  0
   21.3727   -5.1806  -14.8028 C   0  0  1  0  0  0  0  0  0  0  0  0
   20.1008   -4.4190  -14.5285 C   0  0  0  0  0  0  0  0  0  0  0  0
   19.3593   -4.2427  -15.7913 C   0  0  0  0  0  0  0  0  0  0  0  0
   19.9140   -4.2056  -17.0723 C   0  0  0  0  0  0  0  0  0  0  0  0
   18.9442   -4.0317  -17.9778 N   0  0  0  0  0  0  0  0  0  0  0  0
   17.7884   -3.9574  -17.3066 C   0  0  0  0  0  0  0  0  0  0  0  0
   18.0510   -4.0870  -15.9736 N   0  0  0  0  0  0  0  0  0  0  0  0
   22.2567   -5.0595  -13.6203 C   0  0  0  0  0  0  0  0  0  0  0  0
   22.9449   -3.8989  -13.2865 O   0  0  0  0  0  0  0  0  0  0  0  0
   22.4034   -6.0457  -12.8702 O   0  0  0  0  0  0  0  0  0  0  0  0
  2  1  1  0
  3  4  1  1
  3  2  1  0
  5  3  1  0
  5  6  2  0
  8  7  1  1
  8  9  1  0
  8 10  1  0
  9  5  1  0
 10 12  1  0
 11 10  2  0
 12 13  1  0
 13 20  1  0
 14 15  1  0
 13 14  1  1
 15 16  2  0
 17 16  1  0
 18 17  1  0
 19 18  2  0
 19 15  1  0
 20 22  2  0
 20 21  1  0
M  END
$$$$
