SAH.pdb
     RDKit          3D

 22 22  0  0  1  0  0  0  0  0999 V2000
   18.9546  -15.6284  -14.8201 O   0  0  0  0  0  0  0  0  0  0  0  0
   19.1031  -14.3028  -15.1940 C   0  0  0  0  0  0  0  0  0  0  0  0
   18.2192  -14.0262  -16.3902 C   0  0  2  0  0  0  0  0  0  0  0  0
   18.7107  -14.6920  -17.5750 N   0  0  0  0  0  0  0  0  0  0  0  0
   18.1776  -12.5497  -16.5654 C   0  0  0  0  0  0  0  0  0  0  0  0
   19.0398  -12.0444  -17.3319 O   0  0  0  0  0  0  0  0  0  0  0  0
   16.0059   -9.7176  -15.4474 C   0  0  0  0  0  0  0  0  0  0  0  0
   17.2653  -10.2932  -16.1107 C   0  0  2  0  0  0  0  0  0  0  0  0
   17.2256  -11.7168  -15.9157 N   0  0  0  0  0  0  0  0  0  0  0  0
   18.4099   -9.6600  -15.4035 C   0  0  0  0  0  0  0  0  0  0  0  0
   18.9818  -10.3238  -14.5033 O   0  0  0  0  0  0  0  0  0  0  0  0
   18.8845   -8.3672  -15.6850 N   0  0  0  0  0  0  0  0  0  0  0  0
   20.1466   -7.8207  -15.1747 C   0  0  1  0  0  0  0  0  0  0  0  0
   21.2907   -8.2212  -16.0711 C   0  0  0  0  0  0  0  0  0  0  0  0
   22.1089   -9.2403  -15.3871 C   0  0  0  0  0  0  0  0  0  0  0  0
   21.9347   -9.6907  -14.0768 C   0  0  0  0  0  0  0  0  0  0  0  0
   22.8578  -10.6169  -13.7928 N   0  0  0  0  0  0  0  0  0  0  0  0
   23.6137  -10.7670  -14.8875 C   0  0  0  0  0  0  0  0  0  0  0  0
   23.1498   -9.9235  -15.8548 N   0  0  0  0  0  0  0  0  0  0  0  0
   19.9848   -6.3500  -15.2487 C   0  0  0  0  0  0  0  0  0  0  0  0
   20.4470   -5.4726  -14.2748 O   0  0  0  0  0  0  0  0  0  0  0  0
   19.4030   -5.8535  -16.2344 O   0  0  0  0  0  0  0  0  0  0  0  0
  2  1  1  0
  3  4  1  6
  3  2  1  0
  5  3  1  0
  5  6  2  0
  8  7  1  1
  8  9  1  0
  8 10  1  0
  9  5  1  0
 10 12  1  0
 11 10  2  0
 12 13  1  0
 13 20  1  0
 14 15  1  0
 13 14  1  6
 15 16  2  0
 17 16  1  0
 18 17  1  0
 19 18  2  0
 19 15  1  0
 20 22  2  0
 20 21  1  0
M  END
$$$$
