SAH.pdb
     RDKit          3D

 22 22  0  0  1  0  0  0  0  0999 V2000
   33.9004  -35.0106   -4.5727 O   0  0  0  0  0  0  0  0  0  0  0  0
   32.6483  -34.5906   -4.1545 C   0  0  0  0  0  0  0  0  0  0  0  0
   31.6117  -35.0654   -5.1488 C   0  0  2  0  0  0  0  0  0  0  0  0
   31.6771  -34.3117   -6.3802 N   0  0  0  0  0  0  0  0  0  0  0  0
   30.2854  -34.9292   -4.4895 C   0  0  0  0  0  0  0  0  0  0  0  0
   29.7203  -33.8072   -4.5773 O   0  0  0  0  0  0  0  0  0  0  0  0
   27.7350  -37.2017   -3.0415 C   0  0  0  0  0  0  0  0  0  0  0  0
   28.3442  -35.8045   -3.2259 C   0  0  2  0  0  0  0  0  0  0  0  0
   29.6549  -35.9919   -3.7855 N   0  0  0  0  0  0  0  0  0  0  0  0
   28.3936  -35.2112   -1.8633 C   0  0  0  0  0  0  0  0  0  0  0  0
   29.4143  -35.4320   -1.1649 O   0  0  0  0  0  0  0  0  0  0  0  0
   27.3674  -34.4213   -1.3166 N   0  0  0  0  0  0  0  0  0  0  0  0
   27.3405  -33.9453    0.0707 C   0  0  1  0  0  0  0  0  0  0  0  0
   26.1636  -33.0281    0.2866 C   0  0  0  0  0  0  0  0  0  0  0  0
   26.0238  -32.7498    1.7283 C   0  0  0  0  0  0  0  0  0  0  0  0
   27.0637  -32.4625    2.6149 C   0  0  0  0  0  0  0  0  0  0  0  0
   26.5674  -32.2646    3.8418 N   0  0  0  0  0  0  0  0  0  0  0  0
   25.2402  -32.4184    3.7584 C   0  0  0  0  0  0  0  0  0  0  0  0
   24.9174  -32.7141    2.4658 N   0  0  0  0  0  0  0  0  0  0  0  0
   27.1427  -35.1636    0.8898 C   0  0  0  0  0  0  0  0  0  0  0  0
   27.8226  -35.4153    2.0758 O   0  0  0  0  0  0  0  0  0  0  0  0
   26.3229  -36.0234    0.5085 O   0  0  0  0  0  0  0  0  0  0  0  0
  2  1  1  0
  3  4  1  6
  3  2  1  0
  5  3  1  0
  5  6  2  0
  8  7  1  1
  8  9  1  0
  8 10  1  0
  9  5  1  0
 10 12  1  0
 11 10  2  0
 12 13  1  0
 13 20  1  0
 14 15  1  0
 13 14  1  6
 15 16  2  0
 17 16  1  0
 18 17  1  0
 19 18  2  0
 19 15  1  0
 20 22  2  0
 20 21  1  0
M  END
$$$$
