SAH.pdb
     RDKit          3D

 22 22  0  0  1  0  0  0  0  0999 V2000
   29.9318  -23.2823  -15.7495 O   0  0  0  0  0  0  0  0  0  0  0  0
   28.7722  -22.6414  -16.1540 C   0  0  0  0  0  0  0  0  0  0  0  0
   27.7000  -23.6776  -16.4097 C   0  0  2  0  0  0  0  0  0  0  0  0
   28.0468  -24.5331  -17.5216 N   0  0  0  0  0  0  0  0  0  0  0  0
   26.4336  -22.9379  -16.6580 C   0  0  0  0  0  0  0  0  0  0  0  0
   26.3626  -22.2768  -17.7276 O   0  0  0  0  0  0  0  0  0  0  0  0
   23.4224  -23.0973  -17.1776 C   0  0  0  0  0  0  0  0  0  0  0  0
   24.1190  -22.2646  -16.0918 C   0  0  2  0  0  0  0  0  0  0  0  0
   25.3352  -22.9528  -15.7549 N   0  0  0  0  0  0  0  0  0  0  0  0
   23.1636  -22.2199  -14.9532 C   0  0  0  0  0  0  0  0  0  0  0  0
   22.8280  -23.3103  -14.4272 O   0  0  0  0  0  0  0  0  0  0  0  0
   22.6185  -21.0320  -14.4360 N   0  0  0  0  0  0  0  0  0  0  0  0
   21.8037  -20.9580  -13.2184 C   0  0  1  0  0  0  0  0  0  0  0  0
   21.6857  -19.5286  -12.7537 C   0  0  0  0  0  0  0  0  0  0  0  0
   21.4077  -18.6626  -13.9148 C   0  0  0  0  0  0  0  0  0  0  0  0
   21.3015  -19.0781  -15.2438 C   0  0  0  0  0  0  0  0  0  0  0  0
   21.0433  -18.0234  -16.0259 N   0  0  0  0  0  0  0  0  0  0  0  0
   20.9826  -16.9491  -15.2295 C   0  0  0  0  0  0  0  0  0  0  0  0
   21.2060  -17.3482  -13.9436 N   0  0  0  0  0  0  0  0  0  0  0  0
   20.4608  -21.4313  -13.6268 C   0  0  0  0  0  0  0  0  0  0  0  0
   20.1289  -21.7806  -14.9306 O   0  0  0  0  0  0  0  0  0  0  0  0
   19.5644  -21.5280  -12.7643 O   0  0  0  0  0  0  0  0  0  0  0  0
  2  1  1  0
  3  4  1  6
  3  2  1  0
  5  3  1  0
  5  6  2  0
  8  7  1  6
  8  9  1  0
  8 10  1  0
  9  5  1  0
 10 12  1  0
 11 10  2  0
 12 13  1  0
 13 20  1  0
 14 15  1  0
 13 14  1  6
 15 16  2  0
 17 16  1  0
 18 17  1  0
 19 18  2  0
 19 15  1  0
 20 22  2  0
 20 21  1  0
M  END
$$$$
