SAH.pdb
     RDKit          3D

 22 22  0  0  1  0  0  0  0  0999 V2000
   15.7588  -11.0806  -18.4848 O   0  0  0  0  0  0  0  0  0  0  0  0
   16.8369  -10.4109  -17.9298 C   0  0  0  0  0  0  0  0  0  0  0  0
   18.0660  -11.2872  -18.0297 C   0  0  2  0  0  0  0  0  0  0  0  0
   17.8045  -12.6214  -17.5396 N   0  0  0  0  0  0  0  0  0  0  0  0
   19.1410  -10.6154  -17.2515 C   0  0  0  0  0  0  0  0  0  0  0  0
   19.1887  -10.8638  -16.0178 O   0  0  0  0  0  0  0  0  0  0  0  0
   22.1273   -8.4981  -17.9883 C   0  0  0  0  0  0  0  0  0  0  0  0
   21.1172   -9.1406  -17.0269 C   0  0  2  0  0  0  0  0  0  0  0  0
   20.0866   -9.7296  -17.8376 N   0  0  0  0  0  0  0  0  0  0  0  0
   20.6046   -8.0252  -16.1877 C   0  0  0  0  0  0  0  0  0  0  0  0
   19.5991   -7.3955  -16.6010 O   0  0  0  0  0  0  0  0  0  0  0  0
   21.1796   -7.6385  -14.9647 N   0  0  0  0  0  0  0  0  0  0  0  0
   20.7160   -6.5069  -14.1545 C   0  0  1  0  0  0  0  0  0  0  0  0
   20.7712   -6.8554  -12.6887 C   0  0  0  0  0  0  0  0  0  0  0  0
   19.6395   -7.7417  -12.3580 C   0  0  0  0  0  0  0  0  0  0  0  0
   18.6379   -8.1591  -13.2370 C   0  0  0  0  0  0  0  0  0  0  0  0
   17.7772   -8.9561  -12.5929 N   0  0  0  0  0  0  0  0  0  0  0  0
   18.2052   -9.0562  -11.3284 C   0  0  0  0  0  0  0  0  0  0  0  0
   19.3415   -8.3123  -11.1941 N   0  0  0  0  0  0  0  0  0  0  0  0
   21.6915   -5.4233  -14.4164 C   0  0  0  0  0  0  0  0  0  0  0  0
   21.5691   -4.1351  -13.9086 O   0  0  0  0  0  0  0  0  0  0  0  0
   22.6854   -5.6628  -15.1315 O   0  0  0  0  0  0  0  0  0  0  0  0
  2  1  1  0
  3  4  1  1
  3  2  1  0
  5  3  1  0
  5  6  2  0
  8  7  1  6
  8  9  1  0
  8 10  1  0
  9  5  1  0
 10 12  1  0
 11 10  2  0
 12 13  1  0
 13 20  1  0
 14 15  1  0
 13 14  1  1
 15 16  2  0
 17 16  1  0
 18 17  1  0
 19 18  2  0
 19 15  1  0
 20 22  2  0
 20 21  1  0
M  END
$$$$
