SAH.pdb
     RDKit          3D

 22 22  0  0  1  0  0  0  0  0999 V2000
   14.2119  -12.6167  -18.0366 O   0  0  0  0  0  0  0  0  0  0  0  0
   14.8186  -12.1155  -16.8966 C   0  0  0  0  0  0  0  0  0  0  0  0
   16.0206  -12.9709  -16.5613 C   0  0  2  0  0  0  0  0  0  0  0  0
   15.6244  -14.2903  -16.1247 N   0  0  0  0  0  0  0  0  0  0  0  0
   16.7855  -12.2492  -15.5093 C   0  0  0  0  0  0  0  0  0  0  0  0
   16.3367  -12.3158  -14.3346 O   0  0  0  0  0  0  0  0  0  0  0  0
   19.9702  -10.2985  -15.2948 C   0  0  0  0  0  0  0  0  0  0  0  0
   18.6596  -10.8428  -14.7089 C   0  0  2  0  0  0  0  0  0  0  0  0
   17.9699  -11.5099  -15.7792 N   0  0  0  0  0  0  0  0  0  0  0  0
   17.9191   -9.6498  -14.2195 C   0  0  0  0  0  0  0  0  0  0  0  0
   17.2272   -9.0087  -15.0494 O   0  0  0  0  0  0  0  0  0  0  0  0
   17.9503   -9.2022  -12.8874 N   0  0  0  0  0  0  0  0  0  0  0  0
   17.2618   -8.0011  -12.4026 C   0  0  1  0  0  0  0  0  0  0  0  0
   17.1086   -8.0546  -10.9037 C   0  0  0  0  0  0  0  0  0  0  0  0
   16.5485   -6.7759  -10.4274 C   0  0  0  0  0  0  0  0  0  0  0  0
   17.2343   -5.7952   -9.7077 C   0  0  0  0  0  0  0  0  0  0  0  0
   16.4124   -4.7721   -9.4455 N   0  0  0  0  0  0  0  0  0  0  0  0
   15.2231   -5.0766   -9.9792 C   0  0  0  0  0  0  0  0  0  0  0  0
   15.3152   -6.3005  -10.5761 N   0  0  0  0  0  0  0  0  0  0  0  0
   18.1660   -6.8780  -12.7422 C   0  0  0  0  0  0  0  0  0  0  0  0
   17.7234   -5.5979  -13.0550 O   0  0  0  0  0  0  0  0  0  0  0  0
   19.3981   -7.0743  -12.7531 O   0  0  0  0  0  0  0  0  0  0  0  0
  2  1  1  0
  3  4  1  1
  3  2  1  0
  5  3  1  0
  5  6  2  0
  8  7  1  6
  8  9  1  0
  8 10  1  0
  9  5  1  0
 10 12  1  0
 11 10  2  0
 12 13  1  0
 13 20  1  0
 14 15  1  0
 13 14  1  1
 15 16  2  0
 17 16  1  0
 18 17  1  0
 19 18  2  0
 19 15  1  0
 20 22  2  0
 20 21  1  0
M  END
$$$$
