SAH.pdb
     RDKit          3D

 22 22  0  0  1  0  0  0  0  0999 V2000
   18.2423  -14.2322  -15.2940 O   0  0  0  0  0  0  0  0  0  0  0  0
   17.9095  -12.8896  -15.3687 C   0  0  0  0  0  0  0  0  0  0  0  0
   16.4775  -12.7109  -14.9147 C   0  0  2  0  0  0  0  0  0  0  0  0
   15.5450  -13.0191  -15.9750 N   0  0  0  0  0  0  0  0  0  0  0  0
   16.3419  -11.3031  -14.4542 C   0  0  0  0  0  0  0  0  0  0  0  0
   16.4971  -10.4042  -15.3225 O   0  0  0  0  0  0  0  0  0  0  0  0
   15.5120   -9.5401  -11.2574 C   0  0  0  0  0  0  0  0  0  0  0  0
   15.8893   -9.5692  -12.7454 C   0  0  2  0  0  0  0  0  0  0  0  0
   16.0520  -10.9508  -13.1073 N   0  0  0  0  0  0  0  0  0  0  0  0
   17.1624   -8.8075  -12.8460 C   0  0  0  0  0  0  0  0  0  0  0  0
   18.2377   -9.4442  -12.7168 O   0  0  0  0  0  0  0  0  0  0  0  0
   17.2289   -7.4224  -13.0762 N   0  0  0  0  0  0  0  0  0  0  0  0
   18.4779   -6.6707  -13.2400 C   0  0  1  0  0  0  0  0  0  0  0  0
   19.2547   -7.1970  -14.4200 C   0  0  0  0  0  0  0  0  0  0  0  0
   20.4395   -6.3462  -14.6393 C   0  0  0  0  0  0  0  0  0  0  0  0
   21.6577   -6.4432  -13.9635 C   0  0  0  0  0  0  0  0  0  0  0  0
   22.5019   -5.5114  -14.4216 N   0  0  0  0  0  0  0  0  0  0  0  0
   21.8527   -4.8252  -15.3702 C   0  0  0  0  0  0  0  0  0  0  0  0
   20.5955   -5.3411  -15.4963 N   0  0  0  0  0  0  0  0  0  0  0  0
   18.0535   -5.2832  -13.5385 C   0  0  0  0  0  0  0  0  0  0  0  0
   18.8202   -4.1614  -13.2453 O   0  0  0  0  0  0  0  0  0  0  0  0
   16.9478   -5.0920  -14.0840 O   0  0  0  0  0  0  0  0  0  0  0  0
  2  1  1  0
  3  4  1  6
  3  2  1  0
  5  3  1  0
  5  6  2  0
  8  7  1  1
  8  9  1  0
  8 10  1  0
  9  5  1  0
 10 12  1  0
 11 10  2  0
 12 13  1  0
 13 20  1  0
 14 15  1  0
 13 14  1  6
 15 16  2  0
 17 16  1  0
 18 17  1  0
 19 18  2  0
 19 15  1  0
 20 22  2  0
 20 21  1  0
M  END
$$$$
