SAH.pdb
     RDKit          3D

 22 22  0  0  1  0  0  0  0  0999 V2000
   42.9487  -10.1335   -4.0668 O   0  0  0  0  0  0  0  0  0  0  0  0
   43.0481   -9.7835   -5.4035 C   0  0  0  0  0  0  0  0  0  0  0  0
   42.6555  -10.9711   -6.2544 C   0  0  2  0  0  0  0  0  0  0  0  0
   43.7947  -11.5177   -6.9560 N   0  0  0  0  0  0  0  0  0  0  0  0
   41.6034  -10.5007   -7.1948 C   0  0  0  0  0  0  0  0  0  0  0  0
   41.9953  -10.0184   -8.2902 O   0  0  0  0  0  0  0  0  0  0  0  0
   37.8717  -10.1959   -7.1838 C   0  0  0  0  0  0  0  0  0  0  0  0
   39.2590   -9.9936   -7.8096 C   0  0  2  0  0  0  0  0  0  0  0  0
   40.2130  -10.5758   -6.9057 N   0  0  0  0  0  0  0  0  0  0  0  0
   39.4268   -8.5212   -7.9332 C   0  0  0  0  0  0  0  0  0  0  0  0
   39.7285   -7.8772   -6.8976 O   0  0  0  0  0  0  0  0  0  0  0  0
   39.2673   -7.8143   -9.1376 N   0  0  0  0  0  0  0  0  0  0  0  0
   39.4957   -6.3730   -9.2867 C   0  0  1  0  0  0  0  0  0  0  0  0
   40.8244   -6.1198   -9.9526 C   0  0  0  0  0  0  0  0  0  0  0  0
   41.0346   -4.6652  -10.0779 C   0  0  0  0  0  0  0  0  0  0  0  0
   40.4201   -3.6762   -9.3070 C   0  0  0  0  0  0  0  0  0  0  0  0
   40.8483   -2.4701   -9.6978 N   0  0  0  0  0  0  0  0  0  0  0  0
   41.7183   -2.6663  -10.6961 C   0  0  0  0  0  0  0  0  0  0  0  0
   41.8258   -4.0081  -10.9213 N   0  0  0  0  0  0  0  0  0  0  0  0
   38.4202   -5.9064  -10.1921 C   0  0  0  0  0  0  0  0  0  0  0  0
   37.9928   -6.6118  -11.3110 O   0  0  0  0  0  0  0  0  0  0  0  0
   37.8549   -4.8204   -9.9519 O   0  0  0  0  0  0  0  0  0  0  0  0
  2  1  1  0
  3  4  1  6
  3  2  1  0
  5  3  1  0
  5  6  2  0
  8  7  1  1
  8  9  1  0
  8 10  1  0
  9  5  1  0
 10 12  1  0
 11 10  2  0
 12 13  1  0
 13 20  1  0
 14 15  1  0
 13 14  1  6
 15 16  2  0
 17 16  1  0
 18 17  1  0
 19 18  2  0
 19 15  1  0
 20 22  2  0
 20 21  1  0
M  END
$$$$
