SAH.pdb
     RDKit          3D

 22 22  0  0  1  0  0  0  0  0999 V2000
   22.0623   -9.9524  -17.4959 O   0  0  0  0  0  0  0  0  0  0  0  0
   22.2762  -11.3206  -17.5307 C   0  0  0  0  0  0  0  0  0  0  0  0
   22.4257  -11.8322  -16.1148 C   0  0  2  0  0  0  0  0  0  0  0  0
   21.2236  -11.6106  -15.3437 N   0  0  0  0  0  0  0  0  0  0  0  0
   23.5967  -11.1317  -15.5229 C   0  0  0  0  0  0  0  0  0  0  0  0
   23.3506  -10.1869  -14.7273 O   0  0  0  0  0  0  0  0  0  0  0  0
   27.2805  -11.6302  -15.3511 C   0  0  0  0  0  0  0  0  0  0  0  0
   26.0242  -10.7594  -15.2070 C   0  0  2  0  0  0  0  0  0  0  0  0
   24.9428  -11.4835  -15.8172 N   0  0  0  0  0  0  0  0  0  0  0  0
   26.3333   -9.4962  -15.9282 C   0  0  0  0  0  0  0  0  0  0  0  0
   27.2524   -8.7712  -15.4721 O   0  0  0  0  0  0  0  0  0  0  0  0
   25.6578   -9.0708  -17.0852 N   0  0  0  0  0  0  0  0  0  0  0  0
   25.9826   -7.8496  -17.8300 C   0  0  1  0  0  0  0  0  0  0  0  0
   26.2544   -8.1755  -19.2767 C   0  0  0  0  0  0  0  0  0  0  0  0
   27.4766   -8.9963  -19.3675 C   0  0  0  0  0  0  0  0  0  0  0  0
   27.5619  -10.2891  -19.8886 C   0  0  0  0  0  0  0  0  0  0  0  0
   28.8252  -10.7235  -19.8100 N   0  0  0  0  0  0  0  0  0  0  0  0
   29.5446   -9.7414  -19.2531 C   0  0  0  0  0  0  0  0  0  0  0  0
   28.7140   -8.6919  -18.9865 N   0  0  0  0  0  0  0  0  0  0  0  0
   24.7575   -7.0198  -17.7580 C   0  0  0  0  0  0  0  0  0  0  0  0
   24.6467   -5.7559  -18.3257 O   0  0  0  0  0  0  0  0  0  0  0  0
   23.7588   -7.4652  -17.1573 O   0  0  0  0  0  0  0  0  0  0  0  0
  2  1  1  0
  3  4  1  1
  3  2  1  0
  5  3  1  0
  5  6  2  0
  8  7  1  6
  8  9  1  0
  8 10  1  0
  9  5  1  0
 10 12  1  0
 11 10  2  0
 12 13  1  0
 13 20  1  0
 14 15  1  0
 13 14  1  6
 15 16  2  0
 17 16  1  0
 18 17  1  0
 19 18  2  0
 19 15  1  0
 20 22  2  0
 20 21  1  0
M  END
$$$$
