SAH.pdb
     RDKit          3D

 22 22  0  0  1  0  0  0  0  0999 V2000
   13.6946  -11.2552  -15.3965 O   0  0  0  0  0  0  0  0  0  0  0  0
   14.2974  -10.5191  -14.3897 C   0  0  0  0  0  0  0  0  0  0  0  0
   15.6219  -11.1592  -14.0366 C   0  0  2  0  0  0  0  0  0  0  0  0
   15.4420  -12.5022  -13.5339 N   0  0  0  0  0  0  0  0  0  0  0  0
   16.2743  -10.2778  -13.0316 C   0  0  0  0  0  0  0  0  0  0  0  0
   15.9095  -10.4151  -11.8341 O   0  0  0  0  0  0  0  0  0  0  0  0
   19.0027   -7.7191  -12.9987 C   0  0  0  0  0  0  0  0  0  0  0  0
   17.8604   -8.5063  -12.3408 C   0  0  2  0  0  0  0  0  0  0  0  0
   17.2654   -9.3155  -13.3691 N   0  0  0  0  0  0  0  0  0  0  0  0
   16.9206   -7.4788  -11.8190 C   0  0  0  0  0  0  0  0  0  0  0  0
   16.0743   -7.0009  -12.6150 O   0  0  0  0  0  0  0  0  0  0  0  0
   16.9269   -7.0152  -10.4920 N   0  0  0  0  0  0  0  0  0  0  0  0
   15.9937   -6.0157   -9.9611 C   0  0  1  0  0  0  0  0  0  0  0  0
   15.8215   -6.1979   -8.4745 C   0  0  0  0  0  0  0  0  0  0  0  0
   14.7672   -7.1995   -8.2275 C   0  0  0  0  0  0  0  0  0  0  0  0
   13.9515   -7.7902   -9.1949 C   0  0  0  0  0  0  0  0  0  0  0  0
   13.1104   -8.6509   -8.6097 N   0  0  0  0  0  0  0  0  0  0  0  0
   13.3699   -8.6229   -7.2967 C   0  0  0  0  0  0  0  0  0  0  0  0
   14.3817   -7.7349   -7.0726 N   0  0  0  0  0  0  0  0  0  0  0  0
   16.6527   -4.7109  -10.2009 C   0  0  0  0  0  0  0  0  0  0  0  0
   15.9787   -3.4952  -10.2076 O   0  0  0  0  0  0  0  0  0  0  0  0
   17.8823   -4.6828  -10.4107 O   0  0  0  0  0  0  0  0  0  0  0  0
  2  1  1  0
  3  4  1  1
  3  2  1  0
  5  3  1  0
  5  6  2  0
  8  7  1  6
  8  9  1  0
  8 10  1  0
  9  5  1  0
 10 12  1  0
 11 10  2  0
 12 13  1  0
 13 20  1  0
 14 15  1  0
 13 14  1  1
 15 16  2  0
 17 16  1  0
 18 17  1  0
 19 18  2  0
 19 15  1  0
 20 22  2  0
 20 21  1  0
M  END
$$$$
