SAH.pdb
     RDKit          3D

 22 22  0  0  1  0  0  0  0  0999 V2000
   16.7265  -13.1424  -13.3397 O   0  0  0  0  0  0  0  0  0  0  0  0
   15.8795  -12.6047  -14.2949 C   0  0  0  0  0  0  0  0  0  0  0  0
   16.3173  -13.0773  -15.6637 C   0  0  2  0  0  0  0  0  0  0  0  0
   16.7808  -14.4456  -15.6267 N   0  0  0  0  0  0  0  0  0  0  0  0
   17.3834  -12.1469  -16.1223 C   0  0  0  0  0  0  0  0  0  0  0  0
   18.5527  -12.6103  -16.1855 O   0  0  0  0  0  0  0  0  0  0  0  0
   17.5553   -8.7423  -17.6277 C   0  0  0  0  0  0  0  0  0  0  0  0
   18.2031   -9.9708  -16.9731 C   0  0  2  0  0  0  0  0  0  0  0  0
   17.1325  -10.7937  -16.4803 N   0  0  0  0  0  0  0  0  0  0  0  0
   19.0510   -9.4339  -15.8758 C   0  0  0  0  0  0  0  0  0  0  0  0
   18.5556   -9.3868  -14.7223 O   0  0  0  0  0  0  0  0  0  0  0  0
   20.3686   -8.9787  -16.0569 N   0  0  0  0  0  0  0  0  0  0  0  0
   21.2105   -8.4366  -14.9850 C   0  0  1  0  0  0  0  0  0  0  0  0
   22.6614   -8.4658  -15.3935 C   0  0  0  0  0  0  0  0  0  0  0  0
   23.1324   -9.8635  -15.4104 C   0  0  0  0  0  0  0  0  0  0  0  0
   22.4378  -10.9712  -14.9199 C   0  0  0  0  0  0  0  0  0  0  0  0
   23.1684  -12.0774  -15.1021 N   0  0  0  0  0  0  0  0  0  0  0  0
   24.3084  -11.7022  -15.6952 C   0  0  0  0  0  0  0  0  0  0  0  0
   24.2779  -10.3503  -15.8794 N   0  0  0  0  0  0  0  0  0  0  0  0
   20.7904   -7.0229  -14.8459 C   0  0  0  0  0  0  0  0  0  0  0  0
   21.0882   -6.2341  -13.7408 O   0  0  0  0  0  0  0  0  0  0  0  0
   20.1309   -6.4939  -15.7635 O   0  0  0  0  0  0  0  0  0  0  0  0
  2  1  1  0
  3  4  1  1
  3  2  1  0
  5  3  1  0
  5  6  2  0
  8  7  1  1
  8  9  1  0
  8 10  1  0
  9  5  1  0
 10 12  1  0
 11 10  2  0
 12 13  1  0
 13 20  1  0
 14 15  1  0
 13 14  1  6
 15 16  2  0
 17 16  1  0
 18 17  1  0
 19 18  2  0
 19 15  1  0
 20 22  2  0
 20 21  1  0
M  END
$$$$
