SAH.pdb
     RDKit          3D

 22 22  0  0  1  0  0  0  0  0999 V2000
   32.1088  -35.6289   -1.7694 O   0  0  0  0  0  0  0  0  0  0  0  0
   30.7337  -35.6306   -1.6018 C   0  0  0  0  0  0  0  0  0  0  0  0
   30.4174  -35.7150   -0.1248 C   0  0  2  0  0  0  0  0  0  0  0  0
   30.7110  -37.0275    0.4040 N   0  0  0  0  0  0  0  0  0  0  0  0
   28.9794  -35.3677    0.0304 C   0  0  0  0  0  0  0  0  0  0  0  0
   28.1458  -36.2811   -0.2079 O   0  0  0  0  0  0  0  0  0  0  0  0
   26.9858  -32.5144    1.3617 C   0  0  0  0  0  0  0  0  0  0  0  0
   27.1228  -33.8182    0.5626 C   0  0  2  0  0  0  0  0  0  0  0  0
   28.5300  -34.0780    0.4268 N   0  0  0  0  0  0  0  0  0  0  0  0
   26.4709  -33.5505   -0.7468 C   0  0  0  0  0  0  0  0  0  0  0  0
   25.2616  -33.2102   -0.7403 O   0  0  0  0  0  0  0  0  0  0  0  0
   27.1292  -33.6564   -1.9843 N   0  0  0  0  0  0  0  0  0  0  0  0
   26.5212  -33.3180   -3.2756 C   0  0  1  0  0  0  0  0  0  0  0  0
   27.5819  -33.2121   -4.3418 C   0  0  0  0  0  0  0  0  0  0  0  0
   26.9405  -32.9132   -5.6360 C   0  0  0  0  0  0  0  0  0  0  0  0
   25.5849  -32.6468   -5.8397 C   0  0  0  0  0  0  0  0  0  0  0  0
   25.3612  -32.4201   -7.1394 N   0  0  0  0  0  0  0  0  0  0  0  0
   26.5382  -32.5353   -7.7668 C   0  0  0  0  0  0  0  0  0  0  0  0
   27.4958  -32.8362   -6.8422 N   0  0  0  0  0  0  0  0  0  0  0  0
   25.6438  -34.4669   -3.5987 C   0  0  0  0  0  0  0  0  0  0  0  0
   26.0615  -35.7922   -3.5598 O   0  0  0  0  0  0  0  0  0  0  0  0
   24.4594  -34.2513   -3.9264 O   0  0  0  0  0  0  0  0  0  0  0  0
  2  1  1  0
  3  4  1  6
  3  2  1  0
  5  3  1  0
  5  6  2  0
  8  7  1  1
  8  9  1  0
  8 10  1  0
  9  5  1  0
 10 12  1  0
 11 10  2  0
 12 13  1  0
 13 20  1  0
 14 15  1  0
 13 14  1  6
 15 16  2  0
 17 16  1  0
 18 17  1  0
 19 18  2  0
 19 15  1  0
 20 22  2  0
 20 21  1  0
M  END
$$$$
