IFV.pdb
     RDKit          3D

 27 27  0  0  1  0  0  0  0  0999 V2000
    8.9227  -21.0587   19.6064 C   0  0  0  0  0  0  0  0  0  0  0  0
    8.7033  -19.5783   19.4626 C   0  0  0  0  0  0  0  0  0  0  0  0
    9.0255  -18.7882   20.6929 C   0  0  2  0  0  0  0  0  0  0  0  0
    8.2739  -19.2743   21.9108 C   0  0  0  0  0  0  0  0  0  0  0  0
    8.6796  -17.3382   20.4828 C   0  0  2  0  0  0  0  0  0  0  0  0
    9.4501  -16.8468   19.3602 N   0  0  0  0  0  0  0  0  0  0  0  0
    8.9339  -16.5001   21.6513 C   0  0  0  0  0  0  0  0  0  0  0  0
   10.1173  -16.2533   21.9901 O   0  0  0  0  0  0  0  0  0  0  0  0
    7.9097  -15.9273   22.4552 N   0  0  0  0  0  0  0  0  0  0  0  0
    8.2100  -15.1383   23.6241 C   0  0  1  0  0  0  0  0  0  0  0  0
    7.0134  -14.2425   23.8614 C   0  0  0  0  0  0  0  0  0  0  0  0
    7.1420  -13.4506   25.0935 C   0  0  0  0  0  0  0  0  0  0  0  0
    8.0243  -12.3948   25.1296 C   0  0  0  0  0  0  0  0  0  0  0  0
    8.1274  -11.6676   26.2901 C   0  0  0  0  0  0  0  0  0  0  0  0
    7.3546  -11.9992   27.3944 C   0  0  0  0  0  0  0  0  0  0  0  0
    6.4690  -13.0693   27.3385 C   0  0  0  0  0  0  0  0  0  0  0  0
    6.3550  -13.8085   26.1796 C   0  0  0  0  0  0  0  0  0  0  0  0
    8.4909  -16.0086   24.7837 C   0  0  0  0  0  0  0  0  0  0  0  0
    7.6066  -16.8162   25.1696 O   0  0  0  0  0  0  0  0  0  0  0  0
   12.5427  -16.6610   25.8027 C   0  0  0  0  0  0  0  0  0  0  0  0
   11.4224  -17.6823   25.9095 C   0  0  1  0  0  0  0  0  0  0  0  0
   11.8944  -18.7940   26.7874 C   0  0  0  0  0  0  0  0  0  0  0  0
   10.1419  -17.0452   26.3964 C   0  0  2  0  0  0  0  0  0  0  0  0
    9.7064  -15.9943   25.4997 N   0  0  0  0  0  0  0  0  0  0  0  0
   10.2132  -16.6144   27.7922 C   0  0  0  0  0  0  0  0  0  0  0  0
   10.1121  -15.2787   28.2088 O   0  0  0  0  0  0  0  0  0  0  0  0
   10.3745  -17.4585   28.7102 O   0  0  0  0  0  0  0  0  0  0  0  0
  1  2  1  0
  3  5  1  0
  3  2  1  0
  3  4  1  1
  5  6  1  6
  7  8  2  0
  7  5  1  0
  9  7  1  0
 10  9  1  0
 10 11  1  1
 11 12  1  0
 12 17  2  0
 12 13  1  0
 13 14  2  0
 14 15  1  0
 16 15  2  0
 17 16  1  0
 18 19  2  0
 18 10  1  0
 21 20  1  1
 22 21  1  0
 23 21  1  0
 23 24  1  6
 24 18  1  0
 25 23  1  0
 26 25  1  0
 27 25  2  0
M  END
$$$$
