IFV.pdb
     RDKit          3D

 27 27  0  0  1  0  0  0  0  0999 V2000
    8.8481  -20.3411   18.6039 C   0  0  0  0  0  0  0  0  0  0  0  0
    8.6558  -18.8500   18.6272 C   0  0  0  0  0  0  0  0  0  0  0  0
    8.9530  -18.2140   19.9497 C   0  0  2  0  0  0  0  0  0  0  0  0
    8.2157  -18.8739   21.0922 C   0  0  0  0  0  0  0  0  0  0  0  0
    8.5633  -16.7602   19.9245 C   0  0  2  0  0  0  0  0  0  0  0  0
    9.2814  -16.1173   18.8445 N   0  0  0  0  0  0  0  0  0  0  0  0
    8.8368  -16.0587   21.1757 C   0  0  0  0  0  0  0  0  0  0  0  0
   10.0258  -15.8613   21.5274 O   0  0  0  0  0  0  0  0  0  0  0  0
    7.8259  -15.5694   22.0487 N   0  0  0  0  0  0  0  0  0  0  0  0
    8.1453  -14.8985   23.2844 C   0  0  1  0  0  0  0  0  0  0  0  0
    6.9215  -14.0964   23.6709 C   0  0  0  0  0  0  0  0  0  0  0  0
    7.0902  -13.4008   24.9552 C   0  0  0  0  0  0  0  0  0  0  0  0
    7.8945  -12.2857   25.0196 C   0  0  0  0  0  0  0  0  0  0  0  0
    8.0368  -11.6505   26.2290 C   0  0  0  0  0  0  0  0  0  0  0  0
    7.3798  -12.1313   27.3532 C   0  0  0  0  0  0  0  0  0  0  0  0
    6.5717  -13.2593   27.2680 C   0  0  0  0  0  0  0  0  0  0  0  0
    6.4195  -13.9074   26.0601 C   0  0  0  0  0  0  0  0  0  0  0  0
    8.5215  -15.8747   24.3268 C   0  0  0  0  0  0  0  0  0  0  0  0
    7.7119  -16.7900   24.6269 O   0  0  0  0  0  0  0  0  0  0  0  0
   12.1207  -18.4197   26.4735 C   0  0  0  0  0  0  0  0  0  0  0  0
   11.6119  -17.3442   25.5282 C   0  0  1  0  0  0  0  0  0  0  0  0
   11.7062  -17.8730   24.1350 C   0  0  0  0  0  0  0  0  0  0  0  0
   10.2166  -16.9000   25.9004 C   0  0  2  0  0  0  0  0  0  0  0  0
    9.7499  -15.8487   25.0200 N   0  0  0  0  0  0  0  0  0  0  0  0
   10.0838  -16.5619   27.3171 C   0  0  0  0  0  0  0  0  0  0  0  0
    9.8218  -17.4988   28.3277 O   0  0  0  0  0  0  0  0  0  0  0  0
   10.2040  -15.3701   27.6999 O   0  0  0  0  0  0  0  0  0  0  0  0
  1  2  1  0
  3  5  1  0
  3  2  1  0
  3  4  1  1
  5  6  1  6
  7  8  2  0
  7  5  1  0
  9  7  1  0
 10  9  1  0
 10 11  1  1
 11 12  1  0
 12 17  2  0
 12 13  1  0
 13 14  2  0
 14 15  1  0
 16 15  2  0
 17 16  1  0
 18 19  2  0
 18 10  1  0
 21 20  1  1
 22 21  1  0
 23 21  1  0
 23 24  1  6
 24 18  1  0
 25 23  1  0
 26 25  1  0
 27 25  2  0
M  END
$$$$
