IFV.pdb
     RDKit          3D

 27 27  0  0  1  0  0  0  0  0999 V2000
    9.1205  -20.3234   18.6704 C   0  0  0  0  0  0  0  0  0  0  0  0
    9.0365  -18.8225   18.6978 C   0  0  0  0  0  0  0  0  0  0  0  0
    9.2050  -18.2236   20.0597 C   0  0  2  0  0  0  0  0  0  0  0  0
    8.2023  -18.7553   21.0579 C   0  0  0  0  0  0  0  0  0  0  0  0
    9.0434  -16.7285   19.9916 C   0  0  2  0  0  0  0  0  0  0  0  0
   10.0000  -16.2124   19.0356 N   0  0  0  0  0  0  0  0  0  0  0  0
    9.2309  -16.0600   21.2764 C   0  0  0  0  0  0  0  0  0  0  0  0
   10.3878  -15.9418   21.7494 O   0  0  0  0  0  0  0  0  0  0  0  0
    8.1684  -15.5182   22.0516 N   0  0  0  0  0  0  0  0  0  0  0  0
    8.4002  -14.8900   23.3286 C   0  0  1  0  0  0  0  0  0  0  0  0
    7.1987  -14.0120   23.6041 C   0  0  0  0  0  0  0  0  0  0  0  0
    7.2689  -13.3639   24.9220 C   0  0  0  0  0  0  0  0  0  0  0  0
    6.4596  -13.8136   25.9405 C   0  0  0  0  0  0  0  0  0  0  0  0
    6.5424  -13.1949   27.1638 C   0  0  0  0  0  0  0  0  0  0  0  0
    7.4255  -12.1415   27.3566 C   0  0  0  0  0  0  0  0  0  0  0  0
    8.2349  -11.7015   26.3154 C   0  0  0  0  0  0  0  0  0  0  0  0
    8.1624  -12.3134   25.0814 C   0  0  0  0  0  0  0  0  0  0  0  0
    8.5991  -15.9058   24.3821 C   0  0  0  0  0  0  0  0  0  0  0  0
    7.7017  -16.7656   24.5786 O   0  0  0  0  0  0  0  0  0  0  0  0
   11.7103  -18.8356   26.7200 C   0  0  0  0  0  0  0  0  0  0  0  0
   11.3507  -17.7415   25.7285 C   0  0  1  0  0  0  0  0  0  0  0  0
   11.3326  -18.3449   24.3629 C   0  0  0  0  0  0  0  0  0  0  0  0
   10.0480  -17.0711   26.0977 C   0  0  2  0  0  0  0  0  0  0  0  0
    9.7488  -15.9772   25.1966 N   0  0  0  0  0  0  0  0  0  0  0  0
    9.9832  -16.6863   27.5072 C   0  0  0  0  0  0  0  0  0  0  0  0
    9.7430  -17.5850   28.5572 O   0  0  0  0  0  0  0  0  0  0  0  0
   10.1467  -15.4865   27.8465 O   0  0  0  0  0  0  0  0  0  0  0  0
  1  2  1  0
  3  5  1  0
  3  2  1  0
  3  4  1  1
  5  6  1  6
  7  8  2  0
  7  5  1  0
  9  7  1  0
 10  9  1  0
 10 11  1  1
 11 12  1  0
 12 17  2  0
 12 13  1  0
 13 14  2  0
 14 15  1  0
 16 15  2  0
 17 16  1  0
 18 19  2  0
 18 10  1  0
 21 20  1  1
 22 21  1  0
 23 21  1  0
 23 24  1  6
 24 18  1  0
 25 23  1  0
 26 25  1  0
 27 25  2  0
M  END
$$$$
