IFV.pdb
     RDKit          3D

 27 27  0  0  1  0  0  0  0  0999 V2000
    8.9532  -18.6988   19.1430 C   0  0  0  0  0  0  0  0  0  0  0  0
    8.8269  -17.2150   19.3511 C   0  0  0  0  0  0  0  0  0  0  0  0
    7.4250  -16.6988   19.2507 C   0  0  2  0  0  0  0  0  0  0  0  0
    6.7792  -17.0218   17.9229 C   0  0  0  0  0  0  0  0  0  0  0  0
    7.4103  -15.2033   19.4218 C   0  0  2  0  0  0  0  0  0  0  0  0
    8.2261  -14.6198   18.3781 N   0  0  0  0  0  0  0  0  0  0  0  0
    7.8962  -14.7581   20.7250 C   0  0  0  0  0  0  0  0  0  0  0  0
    9.0863  -14.3762   20.8443 O   0  0  0  0  0  0  0  0  0  0  0  0
    7.0968  -14.7247   21.9010 N   0  0  0  0  0  0  0  0  0  0  0  0
    7.6483  -14.3802   23.1880 C   0  0  1  0  0  0  0  0  0  0  0  0
    6.5207  -13.7728   23.9942 C   0  0  0  0  0  0  0  0  0  0  0  0
    6.9528  -13.3564   25.3364 C   0  0  0  0  0  0  0  0  0  0  0  0
    7.6000  -12.1520   25.4950 C   0  0  0  0  0  0  0  0  0  0  0  0
    7.9935  -11.7818   26.7577 C   0  0  0  0  0  0  0  0  0  0  0  0
    7.7390  -12.6114   27.8410 C   0  0  0  0  0  0  0  0  0  0  0  0
    7.0840  -13.8243   27.6606 C   0  0  0  0  0  0  0  0  0  0  0  0
    6.6830  -14.2090   26.3982 C   0  0  0  0  0  0  0  0  0  0  0  0
    8.2226  -15.5712   23.8459 C   0  0  0  0  0  0  0  0  0  0  0  0
    7.5452  -16.6305   23.8905 O   0  0  0  0  0  0  0  0  0  0  0  0
   12.0950  -18.2772   25.1154 C   0  0  0  0  0  0  0  0  0  0  0  0
   11.4769  -17.0362   24.4933 C   0  0  1  0  0  0  0  0  0  0  0  0
   11.4881  -17.2097   23.0103 C   0  0  0  0  0  0  0  0  0  0  0  0
   10.0970  -16.7715   25.0487 C   0  0  2  0  0  0  0  0  0  0  0  0
    9.5029  -15.6002   24.4378 N   0  0  0  0  0  0  0  0  0  0  0  0
   10.0676  -16.7325   26.5104 C   0  0  0  0  0  0  0  0  0  0  0  0
    9.8637  -17.8577   27.3230 O   0  0  0  0  0  0  0  0  0  0  0  0
   10.2304  -15.6450   27.1205 O   0  0  0  0  0  0  0  0  0  0  0  0
  1  2  1  0
  3  5  1  0
  3  2  1  0
  3  4  1  6
  5  6  1  6
  7  8  2  0
  7  5  1  0
  9  7  1  0
 10  9  1  0
 10 11  1  1
 11 12  1  0
 12 17  2  0
 12 13  1  0
 13 14  2  0
 14 15  1  0
 16 15  2  0
 17 16  1  0
 18 19  2  0
 18 10  1  0
 21 20  1  1
 22 21  1  0
 23 21  1  0
 23 24  1  6
 24 18  1  0
 25 23  1  0
 26 25  1  0
 27 25  2  0
M  END
$$$$
