IFV.pdb
     RDKit          3D

 27 27  0  0  1  0  0  0  0  0999 V2000
    9.7166  -20.5341   18.7312 C   0  0  0  0  0  0  0  0  0  0  0  0
    9.5723  -19.0375   18.7438 C   0  0  0  0  0  0  0  0  0  0  0  0
    9.6530  -18.4252   20.1077 C   0  0  2  0  0  0  0  0  0  0  0  0
    8.6845  -19.0505   21.0851 C   0  0  0  0  0  0  0  0  0  0  0  0
    9.3504  -16.9524   20.0330 C   0  0  2  0  0  0  0  0  0  0  0  0
   10.2711  -16.3478   19.0938 N   0  0  0  0  0  0  0  0  0  0  0  0
    9.4489  -16.2683   21.3194 C   0  0  0  0  0  0  0  0  0  0  0  0
   10.5696  -16.1486   21.8726 O   0  0  0  0  0  0  0  0  0  0  0  0
    8.3364  -15.7123   22.0099 N   0  0  0  0  0  0  0  0  0  0  0  0
    8.4672  -15.1316   23.3232 C   0  0  1  0  0  0  0  0  0  0  0  0
    7.2578  -14.2450   23.5274 C   0  0  0  0  0  0  0  0  0  0  0  0
    7.2680  -13.5763   24.8367 C   0  0  0  0  0  0  0  0  0  0  0  0
    8.1441  -12.5381   25.0589 C   0  0  0  0  0  0  0  0  0  0  0  0
    8.1357  -11.9267   26.2887 C   0  0  0  0  0  0  0  0  0  0  0  0
    7.2597  -12.3545   27.2766 C   0  0  0  0  0  0  0  0  0  0  0  0
    6.3823  -13.4050   27.0332 C   0  0  0  0  0  0  0  0  0  0  0  0
    6.3795  -14.0284   25.8028 C   0  0  0  0  0  0  0  0  0  0  0  0
    8.5634  -16.1856   24.3532 C   0  0  0  0  0  0  0  0  0  0  0  0
    8.1448  -17.3415   24.0851 O   0  0  0  0  0  0  0  0  0  0  0  0
   11.7166  -18.6037   26.4303 C   0  0  0  0  0  0  0  0  0  0  0  0
   10.9649  -17.5586   25.6229 C   0  0  1  0  0  0  0  0  0  0  0  0
   10.5484  -18.1846   24.3329 C   0  0  0  0  0  0  0  0  0  0  0  0
    9.8059  -16.9875   26.4060 C   0  0  2  0  0  0  0  0  0  0  0  0
    9.1034  -15.9786   25.6400 N   0  0  0  0  0  0  0  0  0  0  0  0
   10.1892  -16.5295   27.7410 C   0  0  0  0  0  0  0  0  0  0  0  0
    9.9918  -17.2730   28.9141 O   0  0  0  0  0  0  0  0  0  0  0  0
   10.7325  -15.4059   27.8957 O   0  0  0  0  0  0  0  0  0  0  0  0
  1  2  1  0
  3  5  1  0
  3  2  1  0
  3  4  1  1
  5  6  1  6
  7  8  2  0
  7  5  1  0
  9  7  1  0
 10  9  1  0
 10 11  1  1
 11 12  1  0
 12 17  2  0
 12 13  1  0
 13 14  2  0
 14 15  1  0
 16 15  2  0
 17 16  1  0
 18 19  2  0
 18 10  1  0
 21 20  1  1
 22 21  1  0
 23 21  1  0
 23 24  1  6
 24 18  1  0
 25 23  1  0
 26 25  1  0
 27 25  2  0
M  END
$$$$
