IFV.pdb
     RDKit          3D

 27 27  0  0  1  0  0  0  0  0999 V2000
   11.1236  -20.4129   21.7831 C   0  0  0  0  0  0  0  0  0  0  0  0
   10.5909  -19.0484   21.4440 C   0  0  0  0  0  0  0  0  0  0  0  0
    9.1171  -19.0130   21.1826 C   0  0  2  0  0  0  0  0  0  0  0  0
    8.7009  -19.9440   20.0671 C   0  0  0  0  0  0  0  0  0  0  0  0
    8.6911  -17.6191   20.8063 C   0  0  2  0  0  0  0  0  0  0  0  0
    9.4464  -17.2139   19.6398 N   0  0  0  0  0  0  0  0  0  0  0  0
    8.8818  -16.6403   21.8732 C   0  0  0  0  0  0  0  0  0  0  0  0
    9.9367  -15.9605   21.9081 O   0  0  0  0  0  0  0  0  0  0  0  0
    7.9325  -16.3946   22.9036 N   0  0  0  0  0  0  0  0  0  0  0  0
    8.1901  -15.4585   23.9698 C   0  0  1  0  0  0  0  0  0  0  0  0
    6.8425  -14.9543   24.4388 C   0  0  0  0  0  0  0  0  0  0  0  0
    6.9579  -13.9955   25.5474 C   0  0  0  0  0  0  0  0  0  0  0  0
    6.8491  -14.4448   26.8439 C   0  0  0  0  0  0  0  0  0  0  0  0
    6.9616  -13.5323   27.8643 C   0  0  0  0  0  0  0  0  0  0  0  0
    7.1800  -12.1909   27.5822 C   0  0  0  0  0  0  0  0  0  0  0  0
    7.2871  -11.7564   26.2660 C   0  0  0  0  0  0  0  0  0  0  0  0
    7.1761  -12.6615   25.2312 C   0  0  0  0  0  0  0  0  0  0  0  0
    8.9515  -16.1034   25.0586 C   0  0  0  0  0  0  0  0  0  0  0  0
    8.5168  -17.1739   25.5568 O   0  0  0  0  0  0  0  0  0  0  0  0
   13.3470  -16.8738   27.1683 C   0  0  0  0  0  0  0  0  0  0  0  0
   12.4607  -16.0927   26.2124 C   0  0  1  0  0  0  0  0  0  0  0  0
   12.8130  -16.5004   24.8199 C   0  0  0  0  0  0  0  0  0  0  0  0
   10.9976  -16.2878   26.5350 C   0  0  2  0  0  0  0  0  0  0  0  0
   10.1550  -15.5898   25.5859 N   0  0  0  0  0  0  0  0  0  0  0  0
   10.6732  -15.9761   27.9267 C   0  0  0  0  0  0  0  0  0  0  0  0
   10.7372  -16.9051   28.9759 O   0  0  0  0  0  0  0  0  0  0  0  0
   10.3095  -14.8166   28.2500 O   0  0  0  0  0  0  0  0  0  0  0  0
  1  2  1  0
  3  5  1  0
  3  2  1  0
  3  4  1  6
  5  6  1  6
  7  8  2  0
  7  5  1  0
  9  7  1  0
 10  9  1  0
 10 11  1  1
 11 12  1  0
 12 17  2  0
 12 13  1  0
 13 14  2  0
 14 15  1  0
 16 15  2  0
 17 16  1  0
 18 19  2  0
 18 10  1  0
 21 20  1  1
 22 21  1  0
 23 21  1  0
 23 24  1  6
 24 18  1  0
 25 23  1  0
 26 25  1  0
 27 25  2  0
M  END
$$$$
