IFV.pdb
     RDKit          3D

 27 27  0  0  1  0  0  0  0  0999 V2000
    9.6789  -20.5306   19.2923 C   0  0  0  0  0  0  0  0  0  0  0  0
    9.1697  -19.1180   19.2152 C   0  0  0  0  0  0  0  0  0  0  0  0
    9.4481  -18.2982   20.4368 C   0  0  2  0  0  0  0  0  0  0  0  0
    8.9660  -18.9622   21.7061 C   0  0  0  0  0  0  0  0  0  0  0  0
    8.7697  -16.9589   20.3276 C   0  0  2  0  0  0  0  0  0  0  0  0
    9.2500  -16.3042   19.1292 N   0  0  0  0  0  0  0  0  0  0  0  0
    8.9972  -16.0914   21.4801 C   0  0  0  0  0  0  0  0  0  0  0  0
   10.1488  -15.6414   21.6983 O   0  0  0  0  0  0  0  0  0  0  0  0
    7.9805  -15.7087   22.3983 N   0  0  0  0  0  0  0  0  0  0  0  0
    8.2677  -14.9108   23.5645 C   0  0  1  0  0  0  0  0  0  0  0  0
    7.0551  -14.0368   23.8011 C   0  0  0  0  0  0  0  0  0  0  0  0
    7.1565  -13.2634   25.0474 C   0  0  0  0  0  0  0  0  0  0  0  0
    8.0496  -12.2189   25.1241 C   0  0  0  0  0  0  0  0  0  0  0  0
    8.1269  -11.5088   26.2972 C   0  0  0  0  0  0  0  0  0  0  0  0
    7.3180  -11.8461   27.3736 C   0  0  0  0  0  0  0  0  0  0  0  0
    6.4220  -12.9046   27.2768 C   0  0  0  0  0  0  0  0  0  0  0  0
    6.3336  -13.6266   26.1049 C   0  0  0  0  0  0  0  0  0  0  0  0
    8.5667  -15.7723   24.7262 C   0  0  0  0  0  0  0  0  0  0  0  0
    7.7589  -16.6874   25.0318 O   0  0  0  0  0  0  0  0  0  0  0  0
   12.6158  -16.0583   25.8044 C   0  0  0  0  0  0  0  0  0  0  0  0
   11.5863  -17.1753   25.8445 C   0  0  1  0  0  0  0  0  0  0  0  0
   12.1553  -18.2978   26.6482 C   0  0  0  0  0  0  0  0  0  0  0  0
   10.2593  -16.6817   26.3720 C   0  0  2  0  0  0  0  0  0  0  0  0
    9.7182  -15.6350   25.5297 N   0  0  0  0  0  0  0  0  0  0  0  0
   10.3091  -16.3111   27.7859 C   0  0  0  0  0  0  0  0  0  0  0  0
   10.0505  -15.0200   28.2697 O   0  0  0  0  0  0  0  0  0  0  0  0
   10.5974  -17.1699   28.6581 O   0  0  0  0  0  0  0  0  0  0  0  0
  1  2  1  0
  3  5  1  0
  3  2  1  0
  3  4  1  1
  5  6  1  6
  7  8  2  0
  7  5  1  0
  9  7  1  0
 10  9  1  0
 10 11  1  1
 11 12  1  0
 12 17  2  0
 12 13  1  0
 13 14  2  0
 14 15  1  0
 16 15  2  0
 17 16  1  0
 18 19  2  0
 18 10  1  0
 21 20  1  1
 22 21  1  0
 23 21  1  0
 23 24  1  6
 24 18  1  0
 25 23  1  0
 26 25  1  0
 27 25  2  0
M  END
$$$$
