IFV.pdb
     RDKit          3D

 27 27  0  0  1  0  0  0  0  0999 V2000
    9.9521  -20.9271   19.6141 C   0  0  0  0  0  0  0  0  0  0  0  0
    9.3701  -19.5475   19.4772 C   0  0  0  0  0  0  0  0  0  0  0  0
    9.6474  -18.6468   20.6406 C   0  0  2  0  0  0  0  0  0  0  0  0
    9.1832  -19.2324   21.9543 C   0  0  0  0  0  0  0  0  0  0  0  0
    8.9514  -17.3256   20.4502 C   0  0  2  0  0  0  0  0  0  0  0  0
    9.4467  -16.7243   19.2302 N   0  0  0  0  0  0  0  0  0  0  0  0
    9.1418  -16.3978   21.5617 C   0  0  0  0  0  0  0  0  0  0  0  0
   10.2770  -15.9023   21.7668 O   0  0  0  0  0  0  0  0  0  0  0  0
    8.1056  -16.0039   22.4531 N   0  0  0  0  0  0  0  0  0  0  0  0
    8.3628  -15.1659   23.5980 C   0  0  1  0  0  0  0  0  0  0  0  0
    7.1009  -14.3669   23.8424 C   0  0  0  0  0  0  0  0  0  0  0  0
    7.1872  -13.5405   25.0553 C   0  0  0  0  0  0  0  0  0  0  0  0
    6.4045  -13.8531   26.1435 C   0  0  0  0  0  0  0  0  0  0  0  0
    6.5021  -13.0688   27.2668 C   0  0  0  0  0  0  0  0  0  0  0  0
    7.3734  -11.9887   27.2921 C   0  0  0  0  0  0  0  0  0  0  0  0
    8.1559  -11.6888   26.1828 C   0  0  0  0  0  0  0  0  0  0  0  0
    8.0683  -12.4677   25.0479 C   0  0  0  0  0  0  0  0  0  0  0  0
    8.7385  -15.9829   24.7695 C   0  0  0  0  0  0  0  0  0  0  0  0
    7.9703  -16.9076   25.1409 O   0  0  0  0  0  0  0  0  0  0  0  0
   11.8282  -18.0045   25.0844 C   0  0  0  0  0  0  0  0  0  0  0  0
   11.7592  -17.1658   26.3497 C   0  0  1  0  0  0  0  0  0  0  0  0
   12.7723  -16.0749   26.2353 C   0  0  0  0  0  0  0  0  0  0  0  0
   10.3595  -16.6517   26.5932 C   0  0  2  0  0  0  0  0  0  0  0  0
    9.9225  -15.7919   25.5125 N   0  0  0  0  0  0  0  0  0  0  0  0
   10.1968  -16.0415   27.9123 C   0  0  0  0  0  0  0  0  0  0  0  0
    9.8732  -14.6924   28.1200 O   0  0  0  0  0  0  0  0  0  0  0  0
   10.3467  -16.7301   28.9539 O   0  0  0  0  0  0  0  0  0  0  0  0
  1  2  1  0
  3  5  1  0
  3  2  1  0
  3  4  1  1
  5  6  1  6
  7  8  2  0
  7  5  1  0
  9  7  1  0
 10  9  1  0
 10 11  1  1
 11 12  1  0
 12 17  2  0
 12 13  1  0
 13 14  2  0
 14 15  1  0
 16 15  2  0
 17 16  1  0
 18 19  2  0
 18 10  1  0
 21 20  1  6
 22 21  1  0
 23 21  1  0
 23 24  1  6
 24 18  1  0
 25 23  1  0
 26 25  1  0
 27 25  2  0
M  END
$$$$
