IFV.pdb
     RDKit          3D

 27 27  0  0  1  0  0  0  0  0999 V2000
    8.7430  -19.8434   17.8460 C   0  0  0  0  0  0  0  0  0  0  0  0
    8.5490  -18.3590   17.9864 C   0  0  0  0  0  0  0  0  0  0  0  0
    8.8872  -17.8219   19.3424 C   0  0  2  0  0  0  0  0  0  0  0  0
    8.1855  -18.5660   20.4552 C   0  0  0  0  0  0  0  0  0  0  0  0
    8.4973  -16.3710   19.4369 C   0  0  2  0  0  0  0  0  0  0  0  0
    9.1899  -15.6468   18.3923 N   0  0  0  0  0  0  0  0  0  0  0  0
    8.8003  -15.7662   20.7311 C   0  0  0  0  0  0  0  0  0  0  0  0
    9.9970  -15.5802   21.0623 O   0  0  0  0  0  0  0  0  0  0  0  0
    7.8107  -15.3612   21.6691 N   0  0  0  0  0  0  0  0  0  0  0  0
    8.1593  -14.7797   22.9417 C   0  0  1  0  0  0  0  0  0  0  0  0
    6.9364  -14.0308   23.4256 C   0  0  0  0  0  0  0  0  0  0  0  0
    7.1268  -13.4526   24.7639 C   0  0  0  0  0  0  0  0  0  0  0  0
    6.5518  -14.0662   25.8536 C   0  0  0  0  0  0  0  0  0  0  0  0
    6.7437  -13.5100   27.0946 C   0  0  0  0  0  0  0  0  0  0  0  0
    7.5018  -12.3557   27.2341 C   0  0  0  0  0  0  0  0  0  0  0  0
    8.0745  -11.7504   26.1213 C   0  0  0  0  0  0  0  0  0  0  0  0
    7.8902  -12.2978   24.8688 C   0  0  0  0  0  0  0  0  0  0  0  0
    8.5839  -15.8248   23.8948 C   0  0  0  0  0  0  0  0  0  0  0  0
    7.8522  -16.8351   24.0591 O   0  0  0  0  0  0  0  0  0  0  0  0
   12.2716  -18.2853   25.9744 C   0  0  0  0  0  0  0  0  0  0  0  0
   11.7260  -17.1582   25.1134 C   0  0  1  0  0  0  0  0  0  0  0  0
   11.9149  -17.5388   23.6820 C   0  0  0  0  0  0  0  0  0  0  0  0
   10.2884  -16.8480   25.4596 C   0  0  2  0  0  0  0  0  0  0  0  0
    9.7765  -15.7643   24.6461 N   0  0  0  0  0  0  0  0  0  0  0  0
   10.0784  -16.6379   26.8916 C   0  0  0  0  0  0  0  0  0  0  0  0
    9.7743  -17.6626   27.8002 O   0  0  0  0  0  0  0  0  0  0  0  0
   10.1657  -15.4841   27.3841 O   0  0  0  0  0  0  0  0  0  0  0  0
  1  2  1  0
  3  5  1  0
  3  2  1  0
  3  4  1  1
  5  6  1  6
  7  8  2  0
  7  5  1  0
  9  7  1  0
 10  9  1  0
 10 11  1  1
 11 12  1  0
 12 17  2  0
 12 13  1  0
 13 14  2  0
 14 15  1  0
 16 15  2  0
 17 16  1  0
 18 19  2  0
 18 10  1  0
 21 20  1  1
 22 21  1  0
 23 21  1  0
 23 24  1  6
 24 18  1  0
 25 23  1  0
 26 25  1  0
 27 25  2  0
M  END
$$$$
