IFV.pdb
     RDKit          3D

 27 27  0  0  1  0  0  0  0  0999 V2000
    9.5103  -20.4601   18.8283 C   0  0  0  0  0  0  0  0  0  0  0  0
    9.2742  -18.9752   18.8317 C   0  0  0  0  0  0  0  0  0  0  0  0
    9.4984  -18.3216   20.1599 C   0  0  2  0  0  0  0  0  0  0  0  0
    8.6204  -18.8967   21.2476 C   0  0  0  0  0  0  0  0  0  0  0  0
    9.2139  -16.8464   20.0660 C   0  0  2  0  0  0  0  0  0  0  0  0
   10.0948  -16.2778   19.0679 N   0  0  0  0  0  0  0  0  0  0  0  0
    9.3869  -16.1349   21.3294 C   0  0  0  0  0  0  0  0  0  0  0  0
   10.5449  -15.8935   21.7502 O   0  0  0  0  0  0  0  0  0  0  0  0
    8.3089  -15.6830   22.1399 N   0  0  0  0  0  0  0  0  0  0  0  0
    8.5296  -15.0110   23.3964 C   0  0  1  0  0  0  0  0  0  0  0  0
    7.2924  -14.1828   23.6681 C   0  0  0  0  0  0  0  0  0  0  0  0
    7.3393  -13.5191   24.9792 C   0  0  0  0  0  0  0  0  0  0  0  0
    6.5525  -13.9920   26.0048 C   0  0  0  0  0  0  0  0  0  0  0  0
    6.6131  -13.3581   27.2218 C   0  0  0  0  0  0  0  0  0  0  0  0
    7.4520  -12.2669   27.4011 C   0  0  0  0  0  0  0  0  0  0  0  0
    8.2392  -11.8040   26.3528 C   0  0  0  0  0  0  0  0  0  0  0  0
    8.1886  -12.4307   25.1252 C   0  0  0  0  0  0  0  0  0  0  0  0
    8.7911  -15.9881   24.4725 C   0  0  0  0  0  0  0  0  0  0  0  0
    7.9577  -16.9081   24.6778 O   0  0  0  0  0  0  0  0  0  0  0  0
   12.1134  -18.5997   26.9156 C   0  0  0  0  0  0  0  0  0  0  0  0
   11.6941  -17.5326   25.9182 C   0  0  1  0  0  0  0  0  0  0  0  0
   11.8184  -18.1095   24.5467 C   0  0  0  0  0  0  0  0  0  0  0  0
   10.3078  -17.0126   26.2192 C   0  0  2  0  0  0  0  0  0  0  0  0
    9.9336  -15.9579   25.2996 N   0  0  0  0  0  0  0  0  0  0  0  0
   10.1300  -16.6394   27.6220 C   0  0  0  0  0  0  0  0  0  0  0  0
    9.8566  -17.5537   28.6502 O   0  0  0  0  0  0  0  0  0  0  0  0
   10.2187  -15.4358   27.9755 O   0  0  0  0  0  0  0  0  0  0  0  0
  1  2  1  0
  3  5  1  0
  3  2  1  0
  3  4  1  1
  5  6  1  6
  7  8  2  0
  7  5  1  0
  9  7  1  0
 10  9  1  0
 10 11  1  1
 11 12  1  0
 12 17  2  0
 12 13  1  0
 13 14  2  0
 14 15  1  0
 16 15  2  0
 17 16  1  0
 18 19  2  0
 18 10  1  0
 21 20  1  1
 22 21  1  0
 23 21  1  0
 23 24  1  6
 24 18  1  0
 25 23  1  0
 26 25  1  0
 27 25  2  0
M  END
$$$$
