IFV.pdb
     RDKit          3D

 27 27  0  0  1  0  0  0  0  0999 V2000
    8.7925  -20.0914   17.9356 C   0  0  0  0  0  0  0  0  0  0  0  0
    8.3048  -18.6769   18.0840 C   0  0  0  0  0  0  0  0  0  0  0  0
    8.7157  -18.0177   19.3639 C   0  0  2  0  0  0  0  0  0  0  0  0
    8.3144  -18.8139   20.5842 C   0  0  0  0  0  0  0  0  0  0  0  0
    8.0842  -16.6554   19.4709 C   0  0  2  0  0  0  0  0  0  0  0  0
    8.4791  -15.8808   18.3135 N   0  0  0  0  0  0  0  0  0  0  0  0
    8.4503  -15.9340   20.6867 C   0  0  0  0  0  0  0  0  0  0  0  0
    9.6303  -15.5321   20.8364 O   0  0  0  0  0  0  0  0  0  0  0  0
    7.5416  -15.6456   21.7424 N   0  0  0  0  0  0  0  0  0  0  0  0
    7.9658  -14.9925   22.9560 C   0  0  1  0  0  0  0  0  0  0  0  0
    6.7793  -14.1985   23.4582 C   0  0  0  0  0  0  0  0  0  0  0  0
    7.0511  -13.5372   24.7429 C   0  0  0  0  0  0  0  0  0  0  0  0
    7.6138  -12.2811   24.7510 C   0  0  0  0  0  0  0  0  0  0  0  0
    7.8578  -11.6811   25.9622 C   0  0  0  0  0  0  0  0  0  0  0  0
    7.5400  -12.3362   27.1439 C   0  0  0  0  0  0  0  0  0  0  0  0
    6.9721  -13.6048   27.1152 C   0  0  0  0  0  0  0  0  0  0  0  0
    6.7215  -14.2195   25.9062 C   0  0  0  0  0  0  0  0  0  0  0  0
    8.4308  -15.9834   23.9474 C   0  0  0  0  0  0  0  0  0  0  0  0
    7.6491  -16.9018   24.3059 O   0  0  0  0  0  0  0  0  0  0  0  0
   11.5516  -17.9969   23.5415 C   0  0  0  0  0  0  0  0  0  0  0  0
   11.5896  -17.4714   24.9668 C   0  0  1  0  0  0  0  0  0  0  0  0
   12.6351  -16.4078   25.0381 C   0  0  0  0  0  0  0  0  0  0  0  0
   10.2275  -16.9946   25.4139 C   0  0  2  0  0  0  0  0  0  0  0  0
    9.7161  -15.9681   24.5290 N   0  0  0  0  0  0  0  0  0  0  0  0
   10.1928  -16.6054   26.8232 C   0  0  0  0  0  0  0  0  0  0  0  0
    9.9900  -15.2917   27.2713 O   0  0  0  0  0  0  0  0  0  0  0  0
   10.3500  -17.4681   27.7247 O   0  0  0  0  0  0  0  0  0  0  0  0
  1  2  1  0
  3  5  1  0
  3  2  1  0
  3  4  1  1
  5  6  1  6
  7  8  2  0
  7  5  1  0
  9  7  1  0
 10  9  1  0
 10 11  1  1
 11 12  1  0
 12 17  2  0
 12 13  1  0
 13 14  2  0
 14 15  1  0
 16 15  2  0
 17 16  1  0
 18 19  2  0
 18 10  1  0
 21 20  1  6
 22 21  1  0
 23 21  1  0
 23 24  1  6
 24 18  1  0
 25 23  1  0
 26 25  1  0
 27 25  2  0
M  END
$$$$
