IFV.pdb
     RDKit          3D

 27 27  0  0  1  0  0  0  0  0999 V2000
    7.8470  -12.6706   18.6271 C   0  0  0  0  0  0  0  0  0  0  0  0
    8.1302  -13.8410   19.5273 C   0  0  0  0  0  0  0  0  0  0  0  0
    9.4327  -14.5260   19.2513 C   0  0  2  0  0  0  0  0  0  0  0  0
    9.4395  -15.2521   17.9258 C   0  0  0  0  0  0  0  0  0  0  0  0
    9.7285  -15.5312   20.3321 C   0  0  2  0  0  0  0  0  0  0  0  0
    8.8124  -16.6417   20.1810 N   0  0  0  0  0  0  0  0  0  0  0  0
    9.6163  -14.9886   21.6832 C   0  0  0  0  0  0  0  0  0  0  0  0
   10.3969  -14.0765   22.0507 O   0  0  0  0  0  0  0  0  0  0  0  0
    8.6601  -15.4307   22.6391 N   0  0  0  0  0  0  0  0  0  0  0  0
    8.5418  -14.8172   23.9386 C   0  0  1  0  0  0  0  0  0  0  0  0
    7.0624  -14.7407   24.2487 C   0  0  0  0  0  0  0  0  0  0  0  0
    6.7482  -13.6863   25.2239 C   0  0  0  0  0  0  0  0  0  0  0  0
    5.9291  -13.9753   26.2916 C   0  0  0  0  0  0  0  0  0  0  0  0
    5.6498  -12.9759   27.1914 C   0  0  0  0  0  0  0  0  0  0  0  0
    6.1870  -11.7079   27.0175 C   0  0  0  0  0  0  0  0  0  0  0  0
    7.0123  -11.4354   25.9324 C   0  0  0  0  0  0  0  0  0  0  0  0
    7.3013  -12.4293   25.0208 C   0  0  0  0  0  0  0  0  0  0  0  0
    9.2823  -15.5945   24.9527 C   0  0  0  0  0  0  0  0  0  0  0  0
    9.7741  -16.7069   24.6303 O   0  0  0  0  0  0  0  0  0  0  0  0
   11.2864  -15.7472   29.5533 C   0  0  0  0  0  0  0  0  0  0  0  0
   10.2648  -15.1600   28.5937 C   0  0  1  0  0  0  0  0  0  0  0  0
   10.5013  -13.6880   28.5127 C   0  0  0  0  0  0  0  0  0  0  0  0
   10.3181  -15.8439   27.2475 C   0  0  2  0  0  0  0  0  0  0  0  0
    9.4786  -15.1647   26.2820 N   0  0  0  0  0  0  0  0  0  0  0  0
   10.0544  -17.2803   27.3258 C   0  0  0  0  0  0  0  0  0  0  0  0
    8.7732  -17.8487   27.2690 O   0  0  0  0  0  0  0  0  0  0  0  0
   11.0042  -18.0947   27.4524 O   0  0  0  0  0  0  0  0  0  0  0  0
  1  2  1  0
  3  5  1  0
  3  2  1  0
  3  4  1  6
  5  6  1  1
  7  8  2  0
  7  5  1  0
  9  7  1  0
 10  9  1  0
 10 11  1  1
 11 12  1  0
 12 17  2  0
 12 13  1  0
 13 14  2  0
 14 15  1  0
 16 15  2  0
 17 16  1  0
 18 19  2  0
 18 10  1  0
 21 20  1  1
 22 21  1  0
 23 21  1  0
 23 24  1  6
 24 18  1  0
 25 23  1  0
 26 25  1  0
 27 25  2  0
M  END
$$$$
