IFV.pdb
     RDKit          3D

 27 27  0  0  1  0  0  0  0  0999 V2000
   13.2337  -19.9360   20.0425 C   0  0  0  0  0  0  0  0  0  0  0  0
   12.1346  -18.9309   19.8366 C   0  0  0  0  0  0  0  0  0  0  0  0
   11.9052  -18.0248   21.0063 C   0  0  2  0  0  0  0  0  0  0  0  0
   11.6627  -18.7827   22.2913 C   0  0  0  0  0  0  0  0  0  0  0  0
   10.7096  -17.1457   20.7538 C   0  0  2  0  0  0  0  0  0  0  0  0
   10.9564  -16.3799   19.5505 N   0  0  0  0  0  0  0  0  0  0  0  0
   10.4083  -16.2361   21.8558 C   0  0  0  0  0  0  0  0  0  0  0  0
   11.1710  -15.2651   22.0831 O   0  0  0  0  0  0  0  0  0  0  0  0
    9.2821  -16.3744   22.7137 N   0  0  0  0  0  0  0  0  0  0  0  0
    9.0173  -15.4409   23.7803 C   0  0  1  0  0  0  0  0  0  0  0  0
    7.5427  -15.1081   23.7088 C   0  0  0  0  0  0  0  0  0  0  0  0
    7.1611  -14.0484   24.6538 C   0  0  0  0  0  0  0  0  0  0  0  0
    7.5649  -12.7540   24.4172 C   0  0  0  0  0  0  0  0  0  0  0  0
    7.1960  -11.7795   25.3120 C   0  0  0  0  0  0  0  0  0  0  0  0
    6.4336  -12.1046   26.4254 C   0  0  0  0  0  0  0  0  0  0  0  0
    6.0354  -13.4180   26.6472 C   0  0  0  0  0  0  0  0  0  0  0  0
    6.3986  -14.4070   25.7571 C   0  0  0  0  0  0  0  0  0  0  0  0
    9.3934  -16.0193   25.0861 C   0  0  0  0  0  0  0  0  0  0  0  0
    9.3227  -17.2654   25.2452 O   0  0  0  0  0  0  0  0  0  0  0  0
   11.4390  -13.5691   27.7824 C   0  0  0  0  0  0  0  0  0  0  0  0
   10.6856  -14.7282   28.4133 C   0  0  1  0  0  0  0  0  0  0  0  0
    9.4547  -14.1814   29.0579 C   0  0  0  0  0  0  0  0  0  0  0  0
   10.3935  -15.8107   27.4007 C   0  0  2  0  0  0  0  0  0  0  0  0
    9.8348  -15.2538   26.1859 N   0  0  0  0  0  0  0  0  0  0  0  0
    9.5940  -16.9055   27.9496 C   0  0  0  0  0  0  0  0  0  0  0  0
    8.2947  -17.2200   27.5246 O   0  0  0  0  0  0  0  0  0  0  0  0
   10.0589  -17.6369   28.8608 O   0  0  0  0  0  0  0  0  0  0  0  0
  1  2  1  0
  3  5  1  0
  3  2  1  0
  3  4  1  1
  5  6  1  6
  7  8  2  0
  7  5  1  0
  9  7  1  0
 10  9  1  0
 10 11  1  1
 11 12  1  0
 12 17  2  0
 12 13  1  0
 13 14  2  0
 14 15  1  0
 16 15  2  0
 17 16  1  0
 18 19  2  0
 18 10  1  0
 21 20  1  6
 22 21  1  0
 23 21  1  0
 23 24  1  6
 24 18  1  0
 25 23  1  0
 26 25  1  0
 27 25  2  0
M  END
$$$$
