IFV.pdb
     RDKit          3D

 27 27  0  0  1  0  0  0  0  0999 V2000
    7.3265  -18.2008   17.6231 C   0  0  0  0  0  0  0  0  0  0  0  0
    6.9282  -16.8916   18.2459 C   0  0  0  0  0  0  0  0  0  0  0  0
    7.7076  -16.5341   19.4732 C   0  0  2  0  0  0  0  0  0  0  0  0
    7.7145  -17.6414   20.5019 C   0  0  0  0  0  0  0  0  0  0  0  0
    7.1236  -15.3057   20.1182 C   0  0  2  0  0  0  0  0  0  0  0  0
    7.2277  -14.2084   19.1798 N   0  0  0  0  0  0  0  0  0  0  0  0
    7.7749  -14.9366   21.3721 C   0  0  0  0  0  0  0  0  0  0  0  0
    8.9289  -14.4428   21.3481 O   0  0  0  0  0  0  0  0  0  0  0  0
    7.1799  -15.1005   22.6537 N   0  0  0  0  0  0  0  0  0  0  0  0
    7.8595  -14.7125   23.8647 C   0  0  1  0  0  0  0  0  0  0  0  0
    6.7849  -14.3962   24.8824 C   0  0  0  0  0  0  0  0  0  0  0  0
    7.3356  -13.8201   26.1179 C   0  0  0  0  0  0  0  0  0  0  0  0
    7.3318  -12.4542   26.2873 C   0  0  0  0  0  0  0  0  0  0  0  0
    7.8497  -11.9375   27.4497 C   0  0  0  0  0  0  0  0  0  0  0  0
    8.3622  -12.7831   28.4237 C   0  0  0  0  0  0  0  0  0  0  0  0
    8.3572  -14.1604   28.2343 C   0  0  0  0  0  0  0  0  0  0  0  0
    7.8403  -14.6933   27.0719 C   0  0  0  0  0  0  0  0  0  0  0  0
    8.7612  -15.7877   24.3252 C   0  0  0  0  0  0  0  0  0  0  0  0
    8.3090  -16.9561   24.4411 O   0  0  0  0  0  0  0  0  0  0  0  0
   13.3465  -17.5700   24.5948 C   0  0  0  0  0  0  0  0  0  0  0  0
   12.3526  -16.4811   24.2264 C   0  0  1  0  0  0  0  0  0  0  0  0
   12.1838  -16.4939   22.7429 C   0  0  0  0  0  0  0  0  0  0  0  0
   11.0498  -16.6501   24.9727 C   0  0  2  0  0  0  0  0  0  0  0  0
   10.1198  -15.5880   24.6488 N   0  0  0  0  0  0  0  0  0  0  0  0
   11.2355  -16.8299   26.4122 C   0  0  0  0  0  0  0  0  0  0  0  0
   10.9654  -15.8406   27.3694 O   0  0  0  0  0  0  0  0  0  0  0  0
   11.6618  -17.9224   26.8664 O   0  0  0  0  0  0  0  0  0  0  0  0
  1  2  1  0
  3  5  1  0
  3  2  1  0
  3  4  1  1
  5  6  1  6
  7  8  2  0
  7  5  1  0
  9  7  1  0
 10  9  1  0
 10 11  1  1
 11 12  1  0
 12 17  2  0
 12 13  1  0
 13 14  2  0
 14 15  1  0
 16 15  2  0
 17 16  1  0
 18 19  2  0
 18 10  1  0
 21 20  1  6
 22 21  1  0
 23 21  1  0
 23 24  1  1
 24 18  1  0
 25 23  1  0
 26 25  1  0
 27 25  2  0
M  END
$$$$
