IFV.pdb
     RDKit          3D

 27 27  0  0  1  0  0  0  0  0999 V2000
    7.8643  -19.9848   18.5117 C   0  0  0  0  0  0  0  0  0  0  0  0
    7.4339  -18.5581   18.7114 C   0  0  0  0  0  0  0  0  0  0  0  0
    8.0635  -17.8872   19.8927 C   0  0  2  0  0  0  0  0  0  0  0  0
    7.9473  -18.7059   21.1578 C   0  0  0  0  0  0  0  0  0  0  0  0
    7.4092  -16.5545   20.1411 C   0  0  2  0  0  0  0  0  0  0  0  0
    7.6116  -15.7255   18.9718 N   0  0  0  0  0  0  0  0  0  0  0  0
    7.9192  -15.8627   21.3218 C   0  0  0  0  0  0  0  0  0  0  0  0
    9.0286  -15.2778   21.2654 O   0  0  0  0  0  0  0  0  0  0  0  0
    7.2307  -15.8019   22.5651 N   0  0  0  0  0  0  0  0  0  0  0  0
    7.7898  -15.1334   23.7139 C   0  0  1  0  0  0  0  0  0  0  0  0
    6.6272  -14.5319   24.4735 C   0  0  0  0  0  0  0  0  0  0  0  0
    7.0636  -13.7594   25.6459 C   0  0  0  0  0  0  0  0  0  0  0  0
    7.4249  -14.4228   26.7965 C   0  0  0  0  0  0  0  0  0  0  0  0
    7.8309  -13.6816   27.8791 C   0  0  0  0  0  0  0  0  0  0  0  0
    7.8719  -12.2963   27.8027 C   0  0  0  0  0  0  0  0  0  0  0  0
    7.5031  -11.6443   26.6316 C   0  0  0  0  0  0  0  0  0  0  0  0
    7.0932  -12.3757   25.5364 C   0  0  0  0  0  0  0  0  0  0  0  0
    8.5650  -16.0788   24.5424 C   0  0  0  0  0  0  0  0  0  0  0  0
    8.0036  -17.1223   24.9656 O   0  0  0  0  0  0  0  0  0  0  0  0
   12.0427  -17.2201   23.4794 C   0  0  0  0  0  0  0  0  0  0  0  0
   12.1126  -16.9515   24.9735 C   0  0  1  0  0  0  0  0  0  0  0  0
   12.9214  -15.7138   25.1818 C   0  0  0  0  0  0  0  0  0  0  0  0
   10.7324  -16.8672   25.5824 C   0  0  2  0  0  0  0  0  0  0  0  0
    9.9170  -15.8860   24.8965 N   0  0  0  0  0  0  0  0  0  0  0  0
   10.7586  -16.6777   27.0323 C   0  0  0  0  0  0  0  0  0  0  0  0
   10.2844  -15.5293   27.6838 O   0  0  0  0  0  0  0  0  0  0  0  0
   11.2261  -17.5727   27.7818 O   0  0  0  0  0  0  0  0  0  0  0  0
  1  2  1  0
  3  5  1  0
  3  2  1  0
  3  4  1  1
  5  6  1  6
  7  8  2  0
  7  5  1  0
  9  7  1  0
 10  9  1  0
 10 11  1  1
 11 12  1  0
 12 17  2  0
 12 13  1  0
 13 14  2  0
 14 15  1  0
 16 15  2  0
 17 16  1  0
 18 19  2  0
 18 10  1  0
 21 20  1  6
 22 21  1  0
 23 21  1  0
 23 24  1  6
 24 18  1  0
 25 23  1  0
 26 25  1  0
 27 25  2  0
M  END
$$$$
