IFV.pdb
     RDKit          3D

 27 27  0  0  1  0  0  0  0  0999 V2000
   12.6849  -20.7829   20.6994 C   0  0  0  0  0  0  0  0  0  0  0  0
   11.6318  -19.7538   20.3952 C   0  0  0  0  0  0  0  0  0  0  0  0
   11.4880  -18.6949   21.4439 C   0  0  2  0  0  0  0  0  0  0  0  0
   11.2264  -19.2676   22.8179 C   0  0  0  0  0  0  0  0  0  0  0  0
   10.3463  -17.7762   21.0994 C   0  0  2  0  0  0  0  0  0  0  0  0
   10.6030  -17.2043   19.7946 N   0  0  0  0  0  0  0  0  0  0  0  0
   10.1445  -16.7035   22.0694 C   0  0  0  0  0  0  0  0  0  0  0  0
   11.0143  -15.8061   22.1897 O   0  0  0  0  0  0  0  0  0  0  0  0
    9.0024  -16.5989   22.9108 N   0  0  0  0  0  0  0  0  0  0  0  0
    8.8060  -15.4754   23.7931 C   0  0  1  0  0  0  0  0  0  0  0  0
    7.3373  -15.1179   23.7192 C   0  0  0  0  0  0  0  0  0  0  0  0
    6.9767  -14.0363   24.6475 C   0  0  0  0  0  0  0  0  0  0  0  0
    6.1631  -14.3116   25.7231 C   0  0  0  0  0  0  0  0  0  0  0  0
    5.8401  -13.2868   26.5785 C   0  0  0  0  0  0  0  0  0  0  0  0
    6.3286  -12.0073   26.3532 C   0  0  0  0  0  0  0  0  0  0  0  0
    7.1491  -11.7489   25.2611 C   0  0  0  0  0  0  0  0  0  0  0  0
    7.4819  -12.7683   24.3937 C   0  0  0  0  0  0  0  0  0  0  0  0
    9.2275  -15.8111   25.1681 C   0  0  0  0  0  0  0  0  0  0  0  0
    8.5400  -16.6265   25.8356 O   0  0  0  0  0  0  0  0  0  0  0  0
   10.4291  -14.2032   29.4255 C   0  0  0  0  0  0  0  0  0  0  0  0
   10.0414  -14.1844   27.9563 C   0  0  1  0  0  0  0  0  0  0  0  0
   10.4410  -12.8614   27.3911 C   0  0  0  0  0  0  0  0  0  0  0  0
   10.6450  -15.3532   27.2130 C   0  0  2  0  0  0  0  0  0  0  0  0
   10.3700  -15.2689   25.7934 N   0  0  0  0  0  0  0  0  0  0  0  0
   10.2818  -16.6466   27.7912 C   0  0  0  0  0  0  0  0  0  0  0  0
   11.1969  -17.5244   28.3911 O   0  0  0  0  0  0  0  0  0  0  0  0
    9.0869  -17.0380   27.7721 O   0  0  0  0  0  0  0  0  0  0  0  0
  1  2  1  0
  3  5  1  0
  3  2  1  0
  3  4  1  1
  5  6  1  6
  7  8  2  0
  7  5  1  0
  9  7  1  0
 10  9  1  0
 10 11  1  1
 11 12  1  0
 12 17  2  0
 12 13  1  0
 13 14  2  0
 14 15  1  0
 16 15  2  0
 17 16  1  0
 18 19  2  0
 18 10  1  0
 21 20  1  1
 22 21  1  0
 23 21  1  0
 23 24  1  6
 24 18  1  0
 25 23  1  0
 26 25  1  0
 27 25  2  0
M  END
$$$$
