IFV.pdb
     RDKit          3D

 27 27  0  0  1  0  0  0  0  0999 V2000
    8.1824  -17.5663   16.6886 C   0  0  0  0  0  0  0  0  0  0  0  0
    7.8036  -16.2184   17.2368 C   0  0  0  0  0  0  0  0  0  0  0  0
    8.3136  -15.9532   18.6192 C   0  0  2  0  0  0  0  0  0  0  0  0
    8.0125  -17.0824   19.5777 C   0  0  0  0  0  0  0  0  0  0  0  0
    7.6896  -14.6989   19.1699 C   0  0  2  0  0  0  0  0  0  0  0  0
    8.0399  -13.5980   18.2976 N   0  0  0  0  0  0  0  0  0  0  0  0
    8.1049  -14.3887   20.5351 C   0  0  0  0  0  0  0  0  0  0  0  0
    9.3054  -14.1035   20.7671 O   0  0  0  0  0  0  0  0  0  0  0  0
    7.2235  -14.3860   21.6515 N   0  0  0  0  0  0  0  0  0  0  0  0
    7.6950  -14.1546   22.9944 C   0  0  1  0  0  0  0  0  0  0  0  0
    6.5244  -13.5968   23.7747 C   0  0  0  0  0  0  0  0  0  0  0  0
    6.8828  -13.2648   25.1614 C   0  0  0  0  0  0  0  0  0  0  0  0
    7.6875  -12.1761   25.4096 C   0  0  0  0  0  0  0  0  0  0  0  0
    8.0086  -11.8831   26.7125 C   0  0  0  0  0  0  0  0  0  0  0  0
    7.5267  -12.6739   27.7464 C   0  0  0  0  0  0  0  0  0  0  0  0
    6.7150  -13.7696   27.4756 C   0  0  0  0  0  0  0  0  0  0  0  0
    6.3844  -14.0758   26.1720 C   0  0  0  0  0  0  0  0  0  0  0  0
    8.2140  -15.4032   23.5882 C   0  0  0  0  0  0  0  0  0  0  0  0
    7.5067  -16.4427   23.5392 O   0  0  0  0  0  0  0  0  0  0  0  0
   11.9796  -18.2892   24.7926 C   0  0  0  0  0  0  0  0  0  0  0  0
   11.4064  -16.9996   24.2292 C   0  0  1  0  0  0  0  0  0  0  0  0
   11.4586  -17.0842   22.7394 C   0  0  0  0  0  0  0  0  0  0  0  0
   10.0162  -16.7375   24.7596 C   0  0  2  0  0  0  0  0  0  0  0  0
    9.4722  -15.5095   24.2174 N   0  0  0  0  0  0  0  0  0  0  0  0
    9.9401  -16.8028   26.2187 C   0  0  0  0  0  0  0  0  0  0  0  0
   10.3004  -15.7499   27.0727 O   0  0  0  0  0  0  0  0  0  0  0  0
    9.5323  -17.8476   26.7876 O   0  0  0  0  0  0  0  0  0  0  0  0
  1  2  1  0
  3  5  1  0
  3  2  1  0
  3  4  1  1
  5  6  1  6
  7  8  2  0
  7  5  1  0
  9  7  1  0
 10  9  1  0
 10 11  1  1
 11 12  1  0
 12 17  2  0
 12 13  1  0
 13 14  2  0
 14 15  1  0
 16 15  2  0
 17 16  1  0
 18 19  2  0
 18 10  1  0
 21 20  1  1
 22 21  1  0
 23 21  1  0
 23 24  1  1
 24 18  1  0
 25 23  1  0
 26 25  1  0
 27 25  2  0
M  END
$$$$
