RWD.pdb
     RDKit          3D

 34 35  0  0  1  0  0  0  0  0999 V2000
    8.9926  -15.3134   17.0286 N   0  0  0  0  0  0  0  0  0  0  0  0
    8.1886  -14.3136   16.4383 C   0  0  0  0  0  0  0  0  0  0  0  0
    7.7746  -14.3688   15.2148 N   0  0  0  0  0  0  0  0  0  0  0  0
    7.8363  -13.1937   17.2753 N   0  0  0  0  0  0  0  0  0  0  0  0
    8.3378  -13.1496   18.6396 C   0  0  0  0  0  0  0  0  0  0  0  0
    7.5505  -14.1626   19.4466 C   0  0  0  0  0  0  0  0  0  0  0  0
    7.9862  -14.1778   20.8931 C   0  0  0  0  0  0  0  0  0  0  0  0
    8.5688  -15.5449   21.2029 C   0  0  2  0  0  0  0  0  0  0  0  0
    7.5325  -16.5691   21.1474 N   0  0  0  0  0  0  0  0  0  0  0  0
    9.1586  -15.5898   22.5606 C   0  0  0  0  0  0  0  0  0  0  0  0
   10.1328  -14.8649   22.8319 O   0  0  0  0  0  0  0  0  0  0  0  0
    7.3360  -13.5428   14.7880 N   0  0  0  0  0  0  0  0  0  0  0  0
    8.6649  -16.4406   23.6100 C   0  0  1  0  0  0  0  0  0  0  0  0
    9.3120  -16.5847   24.8683 C   0  0  0  0  0  0  0  0  0  0  0  0
    8.3262  -16.6591   26.0016 C   0  0  0  0  0  0  0  0  0  0  0  0
    7.3882  -15.5144   25.9402 C   0  0  0  0  0  0  0  0  0  0  0  0
    6.0377  -15.6206   25.5704 N   0  0  0  0  0  0  0  0  0  0  0  0
    5.5296  -14.3936   25.6779 C   0  0  0  0  0  0  0  0  0  0  0  0
    6.4687  -13.5280   26.0885 C   0  0  0  0  0  0  0  0  0  0  0  0
    6.3826  -12.1717   26.3249 C   0  0  0  0  0  0  0  0  0  0  0  0
    7.5075  -11.5056   26.7381 C   0  0  0  0  0  0  0  0  0  0  0  0
    8.7004  -12.1656   26.9159 C   0  0  0  0  0  0  0  0  0  0  0  0
    8.7956  -13.5132   26.6836 C   0  0  0  0  0  0  0  0  0  0  0  0
    7.6808  -14.2043   26.2696 C   0  0  0  0  0  0  0  0  0  0  0  0
   10.2812  -17.7320   24.8813 O   0  0  0  0  0  0  0  0  0  0  0  0
    9.8704  -18.9089   25.0344 N   0  0  0  0  0  0  0  0  0  0  0  0
   11.6733  -17.5099   24.7224 C   0  0  1  0  0  0  0  0  0  0  0  0
   12.5776  -18.6702   24.5773 C   0  0  0  0  0  0  0  0  0  0  0  0
   12.8958  -18.9138   23.1448 C   0  0  0  0  0  0  0  0  0  0  0  0
   13.9775  -18.0141   22.6970 O   0  0  0  0  0  0  0  0  0  0  0  0
   14.9962  -17.8919   23.4641 C   0  0  0  0  0  0  0  0  0  0  0  0
   13.7699  -18.3470   25.4042 O   0  0  0  0  0  0  0  0  0  0  0  0
   14.6968  -19.1665   25.5174 O   0  0  0  0  0  0  0  0  0  0  0  0
   14.0041  -17.2864   21.5362 O   0  0  0  0  0  0  0  0  0  0  0  0
  1  2  1  0
  2  4  1  0
  3  2  2  0
  4  5  1  0
  5  6  1  0
  7  6  1  0
  7  8  1  0
  8  9  1  1
 10 11  2  0
 10  8  1  0
 12 10  1  0
 13 12  1  0
 13 24  1  0
 13 14  1  6
 15 14  1  0
 16 15  2  0
 17 18  1  0
 17 16  1  0
 18 23  2  0
 19 20  2  0
 19 18  1  0
 20 21  1  0
 21 22  2  0
 23 15  1  0
 23 22  1  0
 24 26  1  0
 25 24  2  0
 26 27  1  0
 27 31  1  0
 28 29  1  0
 27 28  1  1
 29 30  2  0
 31 32  2  0
 31 34  1  0
 33 29  1  0
M  END
$$$$
