RWD.pdb
     RDKit          3D

 34 35  0  0  1  0  0  0  0  0999 V2000
    8.1628  -14.1493   15.5885 N   0  0  0  0  0  0  0  0  0  0  0  0
    7.9570  -13.5297   16.8408 C   0  0  0  0  0  0  0  0  0  0  0  0
    7.9770  -12.2479   17.0082 N   0  0  0  0  0  0  0  0  0  0  0  0
    7.7176  -14.4057   17.9606 N   0  0  0  0  0  0  0  0  0  0  0  0
    8.8542  -14.9144   18.7117 C   0  0  0  0  0  0  0  0  0  0  0  0
    8.8479  -14.2311   20.0646 C   0  0  0  0  0  0  0  0  0  0  0  0
    8.1165  -15.0553   21.0982 C   0  0  0  0  0  0  0  0  0  0  0  0
    9.1308  -15.9176   21.8275 C   0  0  2  0  0  0  0  0  0  0  0  0
    8.9737  -17.3191   21.4573 N   0  0  0  0  0  0  0  0  0  0  0  0
    8.9633  -15.8297   23.2963 C   0  0  0  0  0  0  0  0  0  0  0  0
    8.3837  -14.8462   23.7912 O   0  0  0  0  0  0  0  0  0  0  0  0
    7.8285  -11.8548   17.9464 N   0  0  0  0  0  0  0  0  0  0  0  0
    9.4417  -16.8335   24.2088 C   0  0  2  0  0  0  0  0  0  0  0  0
    9.1158  -16.8497   25.5931 C   0  0  0  0  0  0  0  0  0  0  0  0
    7.6293  -16.8326   25.8204 C   0  0  0  0  0  0  0  0  0  0  0  0
    7.0832  -15.4856   25.5354 C   0  0  0  0  0  0  0  0  0  0  0  0
    6.0794  -15.2258   24.5884 N   0  0  0  0  0  0  0  0  0  0  0  0
    5.8383  -13.9172   24.6579 C   0  0  0  0  0  0  0  0  0  0  0  0
    6.6220  -13.3412   25.5820 C   0  0  0  0  0  0  0  0  0  0  0  0
    6.7074  -12.0218   25.9750 C   0  0  0  0  0  0  0  0  0  0  0  0
    7.6092  -11.6857   26.9516 C   0  0  0  0  0  0  0  0  0  0  0  0
    8.4157  -12.6355   27.5328 C   0  0  0  0  0  0  0  0  0  0  0  0
    8.3377  -13.9490   27.1490 C   0  0  0  0  0  0  0  0  0  0  0  0
    7.4400  -14.3118   26.1721 C   0  0  0  0  0  0  0  0  0  0  0  0
    9.7898  -17.9762   26.3228 O   0  0  0  0  0  0  0  0  0  0  0  0
    9.5723  -18.1613   27.5457 N   0  0  0  0  0  0  0  0  0  0  0  0
   10.6822  -18.8488   25.6482 C   0  0  1  0  0  0  0  0  0  0  0  0
   11.5735  -19.7230   26.4397 C   0  0  0  0  0  0  0  0  0  0  0  0
   12.8052  -20.0515   25.6733 C   0  0  0  0  0  0  0  0  0  0  0  0
   12.4564  -20.5875   24.3424 O   0  0  0  0  0  0  0  0  0  0  0  0
   11.2117  -20.6857   24.0557 C   0  0  0  0  0  0  0  0  0  0  0  0
   11.8381  -18.9797   27.6996 O   0  0  0  0  0  0  0  0  0  0  0  0
   11.6413  -19.5199   28.8009 O   0  0  0  0  0  0  0  0  0  0  0  0
   13.3341  -20.9980   23.3735 O   0  0  0  0  0  0  0  0  0  0  0  0
  1  2  1  0
  2  4  1  0
  3  2  2  0
  4  5  1  0
  5  6  1  0
  7  6  1  0
  7  8  1  0
  8  9  1  6
 10 11  2  0
 10  8  1  0
 12 10  1  0
 13 12  1  0
 13 24  1  0
 13 14  1  1
 15 14  1  0
 16 15  2  0
 17 18  1  0
 17 16  1  0
 18 23  2  0
 19 20  2  0
 19 18  1  0
 20 21  1  0
 21 22  2  0
 23 15  1  0
 23 22  1  0
 24 26  1  0
 25 24  2  0
 26 27  1  0
 27 31  1  0
 28 29  1  0
 27 28  1  1
 29 30  2  0
 31 32  2  0
 31 34  1  0
 33 29  1  0
M  END
$$$$
