RWD.pdb
     RDKit          3D

 34 35  0  0  1  0  0  0  0  0999 V2000
    8.7761  -13.0801   18.5683 N   0  0  0  0  0  0  0  0  0  0  0  0
    8.7894  -13.7581   17.3295 C   0  0  0  0  0  0  0  0  0  0  0  0
    9.7268  -13.6101   16.4515 N   0  0  0  0  0  0  0  0  0  0  0  0
    7.6848  -14.6480   17.0710 N   0  0  0  0  0  0  0  0  0  0  0  0
    6.7299  -14.9120   18.1355 C   0  0  0  0  0  0  0  0  0  0  0  0
    7.2234  -16.1248   18.8988 C   0  0  0  0  0  0  0  0  0  0  0  0
    8.0313  -15.7253   20.1113 C   0  0  0  0  0  0  0  0  0  0  0  0
    7.4518  -16.4290   21.3253 C   0  0  2  0  0  0  0  0  0  0  0  0
    5.9956  -16.4549   21.2570 N   0  0  0  0  0  0  0  0  0  0  0  0
    7.8205  -15.7377   22.5820 C   0  0  0  0  0  0  0  0  0  0  0  0
    7.4796  -14.5537   22.7552 O   0  0  0  0  0  0  0  0  0  0  0  0
    9.6273  -14.0405   15.5233 N   0  0  0  0  0  0  0  0  0  0  0  0
    8.5675  -16.3639   23.6398 C   0  0  1  0  0  0  0  0  0  0  0  0
    9.3327  -15.6361   24.5925 C   0  0  0  0  0  0  0  0  0  0  0  0
    8.8185  -15.8306   25.9923 C   0  0  0  0  0  0  0  0  0  0  0  0
    7.5259  -15.1282   26.1652 C   0  0  0  0  0  0  0  0  0  0  0  0
    6.2748  -15.7657   26.1569 N   0  0  0  0  0  0  0  0  0  0  0  0
    5.3738  -14.8102   26.3815 C   0  0  0  0  0  0  0  0  0  0  0  0
    5.9749  -13.6198   26.5289 C   0  0  0  0  0  0  0  0  0  0  0  0
    5.4310  -12.3750   26.7682 C   0  0  0  0  0  0  0  0  0  0  0  0
    6.2753  -11.2997   26.8720 C   0  0  0  0  0  0  0  0  0  0  0  0
    7.6359  -11.4480   26.7418 C   0  0  0  0  0  0  0  0  0  0  0  0
    8.1855  -12.6810   26.5041 C   0  0  0  0  0  0  0  0  0  0  0  0
    7.3597  -13.7757   26.3972 C   0  0  0  0  0  0  0  0  0  0  0  0
   10.8024  -15.9245   24.4812 O   0  0  0  0  0  0  0  0  0  0  0  0
   11.5844  -15.6066   25.4111 N   0  0  0  0  0  0  0  0  0  0  0  0
   11.3340  -16.5579   23.3285 C   0  0  1  0  0  0  0  0  0  0  0  0
   12.7866  -16.8221   23.2549 C   0  0  0  0  0  0  0  0  0  0  0  0
   13.2501  -17.5558   24.4630 C   0  0  0  0  0  0  0  0  0  0  0  0
   14.6791  -17.9056   24.3366 O   0  0  0  0  0  0  0  0  0  0  0  0
   14.9621  -19.1017   23.9757 C   0  0  0  0  0  0  0  0  0  0  0  0
   12.9870  -17.5750   21.9890 O   0  0  0  0  0  0  0  0  0  0  0  0
   14.1282  -17.9143   21.6338 O   0  0  0  0  0  0  0  0  0  0  0  0
   15.7448  -17.0767   24.5708 O   0  0  0  0  0  0  0  0  0  0  0  0
  1  2  1  0
  2  4  1  0
  3  2  2  0
  4  5  1  0
  5  6  1  0
  7  6  1  0
  7  8  1  0
  8  9  1  6
 10 11  2  0
 10  8  1  0
 12 10  1  0
 13 12  1  0
 13 24  1  0
 13 14  1  1
 15 14  1  0
 16 15  2  0
 17 18  1  0
 17 16  1  0
 18 23  2  0
 19 20  2  0
 19 18  1  0
 20 21  1  0
 21 22  2  0
 23 15  1  0
 23 22  1  0
 24 26  1  0
 25 24  2  0
 26 27  1  0
 27 31  1  0
 28 29  1  0
 27 28  1  6
 29 30  2  0
 31 32  2  0
 31 34  1  0
 33 29  1  0
M  END
$$$$
