RWD.pdb
     RDKit          3D

 34 35  0  0  1  0  0  0  0  0999 V2000
    8.0345  -12.0549   18.2200 N   0  0  0  0  0  0  0  0  0  0  0  0
    9.1940  -12.8472   18.3689 C   0  0  0  0  0  0  0  0  0  0  0  0
   10.3877  -12.3532   18.4168 N   0  0  0  0  0  0  0  0  0  0  0  0
    8.9918  -14.2714   18.4674 N   0  0  0  0  0  0  0  0  0  0  0  0
    7.6362  -14.7829   18.5910 C   0  0  0  0  0  0  0  0  0  0  0  0
    7.5949  -15.6698   19.8194 C   0  0  0  0  0  0  0  0  0  0  0  0
    8.5117  -16.8617   19.6734 C   0  0  0  0  0  0  0  0  0  0  0  0
    8.3749  -17.7252   20.9144 C   0  0  2  0  0  0  0  0  0  0  0  0
    7.0270  -17.6275   21.4617 N   0  0  0  0  0  0  0  0  0  0  0  0
    9.3131  -17.3005   21.9786 C   0  0  0  0  0  0  0  0  0  0  0  0
   10.5395  -17.3852   21.7867 O   0  0  0  0  0  0  0  0  0  0  0  0
   11.1960  -12.9826   18.5025 N   0  0  0  0  0  0  0  0  0  0  0  0
    8.8850  -16.7852   23.2515 C   0  0  1  0  0  0  0  0  0  0  0  0
    9.7871  -16.3908   24.2780 C   0  0  0  0  0  0  0  0  0  0  0  0
    9.5682  -14.9641   24.7001 C   0  0  0  0  0  0  0  0  0  0  0  0
    8.1850  -14.7839   25.1982 C   0  0  0  0  0  0  0  0  0  0  0  0
    7.2332  -15.8137   25.2723 N   0  0  0  0  0  0  0  0  0  0  0  0
    6.1408  -15.2670   25.8044 C   0  0  0  0  0  0  0  0  0  0  0  0
    6.3436  -13.9671   26.0674 C   0  0  0  0  0  0  0  0  0  0  0  0
    5.4909  -13.0282   26.6095 C   0  0  0  0  0  0  0  0  0  0  0  0
    5.9461  -11.7450   26.7710 C   0  0  0  0  0  0  0  0  0  0  0  0
    7.2229  -11.3913   26.4035 C   0  0  0  0  0  0  0  0  0  0  0  0
    8.0773  -12.3174   25.8641 C   0  0  0  0  0  0  0  0  0  0  0  0
    7.6448  -13.6118   25.6932 C   0  0  0  0  0  0  0  0  0  0  0  0
    9.7713  -17.3377   25.4436 O   0  0  0  0  0  0  0  0  0  0  0  0
    8.7239  -17.9646   25.7387 N   0  0  0  0  0  0  0  0  0  0  0  0
   10.9336  -17.5409   26.2313 C   0  0  1  0  0  0  0  0  0  0  0  0
   11.0417  -18.7622   27.0570 C   0  0  0  0  0  0  0  0  0  0  0  0
   12.0690  -19.6838   26.5022 C   0  0  0  0  0  0  0  0  0  0  0  0
   12.2679  -20.8364   27.4034 O   0  0  0  0  0  0  0  0  0  0  0  0
   11.4703  -21.8302   27.2719 C   0  0  0  0  0  0  0  0  0  0  0  0
   11.3518  -18.2840   28.4300 O   0  0  0  0  0  0  0  0  0  0  0  0
   11.6904  -17.1044   28.6228 O   0  0  0  0  0  0  0  0  0  0  0  0
   13.2243  -20.9536   28.3777 O   0  0  0  0  0  0  0  0  0  0  0  0
  1  2  1  0
  2  4  1  0
  3  2  2  0
  4  5  1  0
  5  6  1  0
  7  6  1  0
  7  8  1  0
  8  9  1  1
 10 11  2  0
 10  8  1  0
 12 10  1  0
 13 12  1  0
 13 24  1  0
 13 14  1  1
 15 14  1  0
 16 15  2  0
 17 18  1  0
 17 16  1  0
 18 23  2  0
 19 20  2  0
 19 18  1  0
 20 21  1  0
 21 22  2  0
 23 15  1  0
 23 22  1  0
 24 26  1  0
 25 24  2  0
 26 27  1  0
 27 31  1  0
 28 29  1  0
 27 28  1  1
 29 30  2  0
 31 32  2  0
 31 34  1  0
 33 29  1  0
M  END
$$$$
