RWD.pdb
     RDKit          3D

 34 35  0  0  1  0  0  0  0  0999 V2000
    8.1218  -15.3859   15.8226 N   0  0  0  0  0  0  0  0  0  0  0  0
    7.9470  -14.0239   16.1523 C   0  0  0  0  0  0  0  0  0  0  0  0
    7.7447  -13.1020   15.2688 N   0  0  0  0  0  0  0  0  0  0  0  0
    8.0055  -13.6883   17.5533 N   0  0  0  0  0  0  0  0  0  0  0  0
    8.4450  -14.6995   18.5014 C   0  0  0  0  0  0  0  0  0  0  0  0
    7.3620  -14.8389   19.5525 C   0  0  0  0  0  0  0  0  0  0  0  0
    7.8892  -14.5340   20.9351 C   0  0  0  0  0  0  0  0  0  0  0  0
    8.6818  -15.7344   21.4202 C   0  0  2  0  0  0  0  0  0  0  0  0
    7.8013  -16.8755   21.6412 N   0  0  0  0  0  0  0  0  0  0  0  0
    9.3655  -15.4522   22.7032 C   0  0  0  0  0  0  0  0  0  0  0  0
   10.1702  -14.5060   22.7759 O   0  0  0  0  0  0  0  0  0  0  0  0
    7.6789  -12.1195   15.5643 N   0  0  0  0  0  0  0  0  0  0  0  0
    9.1537  -16.2230   23.8990 C   0  0  1  0  0  0  0  0  0  0  0  0
    9.8520  -15.9859   25.1152 C   0  0  0  0  0  0  0  0  0  0  0  0
    8.9431  -16.0707   26.3103 C   0  0  0  0  0  0  0  0  0  0  0  0
    7.7418  -15.2299   26.1007 C   0  0  0  0  0  0  0  0  0  0  0  0
    6.4672  -15.7369   25.7999 N   0  0  0  0  0  0  0  0  0  0  0  0
    5.6588  -14.6802   25.7287 C   0  0  0  0  0  0  0  0  0  0  0  0
    6.3395  -13.5482   25.9636 C   0  0  0  0  0  0  0  0  0  0  0  0
    5.9045  -12.2394   25.9844 C   0  0  0  0  0  0  0  0  0  0  0  0
    6.8161  -11.2496   26.2470 C   0  0  0  0  0  0  0  0  0  0  0  0
    8.1377  -11.5444   26.4855 C   0  0  0  0  0  0  0  0  0  0  0  0
    8.5792  -12.8419   26.4671 C   0  0  0  0  0  0  0  0  0  0  0  0
    7.6838  -13.8531   26.2074 C   0  0  0  0  0  0  0  0  0  0  0  0
   11.0617  -16.8647   25.2571 O   0  0  0  0  0  0  0  0  0  0  0  0
   11.6749  -16.9297   26.3511 N   0  0  0  0  0  0  0  0  0  0  0  0
   11.5338  -17.6344   24.1628 C   0  0  1  0  0  0  0  0  0  0  0  0
   12.6876  -18.5371   24.3596 C   0  0  0  0  0  0  0  0  0  0  0  0
   12.4846  -19.8177   23.6306 C   0  0  0  0  0  0  0  0  0  0  0  0
   11.3263  -20.5475   24.1837 O   0  0  0  0  0  0  0  0  0  0  0  0
   11.1382  -20.4798   25.4490 C   0  0  0  0  0  0  0  0  0  0  0  0
   13.8727  -17.7698   23.8943 O   0  0  0  0  0  0  0  0  0  0  0  0
   13.7323  -16.6475   23.3803 O   0  0  0  0  0  0  0  0  0  0  0  0
   10.4244  -21.2999   23.4778 O   0  0  0  0  0  0  0  0  0  0  0  0
  1  2  1  0
  2  4  1  0
  3  2  2  0
  4  5  1  0
  5  6  1  0
  7  6  1  0
  7  8  1  0
  8  9  1  1
 10 11  2  0
 10  8  1  0
 12 10  1  0
 13 12  1  0
 13 24  1  0
 13 14  1  1
 15 14  1  0
 16 15  2  0
 17 18  1  0
 17 16  1  0
 18 23  2  0
 19 20  2  0
 19 18  1  0
 20 21  1  0
 21 22  2  0
 23 15  1  0
 23 22  1  0
 24 26  1  0
 25 24  2  0
 26 27  1  0
 27 31  1  0
 28 29  1  0
 27 28  1  6
 29 30  2  0
 31 32  2  0
 31 34  1  0
 33 29  1  0
M  END
$$$$
