RWD.pdb
     RDKit          3D

 34 35  0  0  1  0  0  0  0  0999 V2000
    6.9132  -14.5634   18.1755 N   0  0  0  0  0  0  0  0  0  0  0  0
    7.9795  -13.6569   17.9871 C   0  0  0  0  0  0  0  0  0  0  0  0
    7.9260  -12.4163   18.3468 N   0  0  0  0  0  0  0  0  0  0  0  0
    9.1664  -14.1812   17.3583 N   0  0  0  0  0  0  0  0  0  0  0  0
    9.1669  -15.5597   16.8951 C   0  0  0  0  0  0  0  0  0  0  0  0
    9.3758  -16.4464   18.1064 C   0  0  0  0  0  0  0  0  0  0  0  0
   10.5711  -16.0040   18.9175 C   0  0  0  0  0  0  0  0  0  0  0  0
   10.6301  -16.8448   20.1801 C   0  0  2  0  0  0  0  0  0  0  0  0
    9.6980  -17.9629   20.0963 N   0  0  0  0  0  0  0  0  0  0  0  0
   10.2619  -16.0546   21.3773 C   0  0  0  0  0  0  0  0  0  0  0  0
   11.0286  -15.1638   21.7857 O   0  0  0  0  0  0  0  0  0  0  0  0
    8.7159  -11.7918   18.1397 N   0  0  0  0  0  0  0  0  0  0  0  0
    9.0449  -16.2585   22.1164 C   0  0  1  0  0  0  0  0  0  0  0  0
    8.7147  -15.5317   23.2936 C   0  0  0  0  0  0  0  0  0  0  0  0
    7.2311  -15.3266   23.4293 C   0  0  0  0  0  0  0  0  0  0  0  0
    6.9107  -14.7737   24.7656 C   0  0  0  0  0  0  0  0  0  0  0  0
    6.3290  -15.5149   25.8068 N   0  0  0  0  0  0  0  0  0  0  0  0
    6.2396  -14.6837   26.8443 C   0  0  0  0  0  0  0  0  0  0  0  0
    6.7244  -13.4746   26.5236 C   0  0  0  0  0  0  0  0  0  0  0  0
    6.8214  -12.3276   27.2836 C   0  0  0  0  0  0  0  0  0  0  0  0
    7.3579  -11.2041   26.7094 C   0  0  0  0  0  0  0  0  0  0  0  0
    7.7925  -11.2098   25.4051 C   0  0  0  0  0  0  0  0  0  0  0  0
    7.7003  -12.3448   24.6421 C   0  0  0  0  0  0  0  0  0  0  0  0
    7.1671  -13.4854   25.1957 C   0  0  0  0  0  0  0  0  0  0  0  0
    9.3199  -16.1403   24.5261 O   0  0  0  0  0  0  0  0  0  0  0  0
    9.1261  -15.6196   25.6524 N   0  0  0  0  0  0  0  0  0  0  0  0
   10.1195  -17.3092   24.4425 C   0  0  1  0  0  0  0  0  0  0  0  0
   10.7477  -17.8434   25.6693 C   0  0  0  0  0  0  0  0  0  0  0  0
   10.0195  -19.0470   26.1526 C   0  0  0  0  0  0  0  0  0  0  0  0
   10.7211  -19.6451   27.3059 O   0  0  0  0  0  0  0  0  0  0  0  0
   11.7505  -19.0275   27.7530 C   0  0  0  0  0  0  0  0  0  0  0  0
   12.1630  -18.1124   25.3028 O   0  0  0  0  0  0  0  0  0  0  0  0
   13.0796  -17.8447   26.0975 O   0  0  0  0  0  0  0  0  0  0  0  0
   10.3844  -20.8055   27.9524 O   0  0  0  0  0  0  0  0  0  0  0  0
  1  2  1  0
  2  4  1  0
  3  2  2  0
  4  5  1  0
  5  6  1  0
  7  6  1  0
  7  8  1  0
  8  9  1  6
 10 11  2  0
 10  8  1  0
 12 10  1  0
 13 12  1  0
 13 24  1  0
 13 14  1  1
 15 14  1  0
 16 15  2  0
 17 18  1  0
 17 16  1  0
 18 23  2  0
 19 20  2  0
 19 18  1  0
 20 21  1  0
 21 22  2  0
 23 15  1  0
 23 22  1  0
 24 26  1  0
 25 24  2  0
 26 27  1  0
 27 31  1  0
 28 29  1  0
 27 28  1  6
 29 30  2  0
 31 32  2  0
 31 34  1  0
 33 29  1  0
M  END
$$$$
