RWD.pdb
     RDKit          3D

 34 35  0  0  1  0  0  0  0  0999 V2000
    8.4912  -12.2470   15.8258 N   0  0  0  0  0  0  0  0  0  0  0  0
    7.5550  -13.3010   15.9104 C   0  0  0  0  0  0  0  0  0  0  0  0
    6.9081  -13.7572   14.8882 N   0  0  0  0  0  0  0  0  0  0  0  0
    7.3393  -13.8666   17.2191 N   0  0  0  0  0  0  0  0  0  0  0  0
    8.3996  -14.6525   17.8295 C   0  0  0  0  0  0  0  0  0  0  0  0
    7.7628  -15.5312   18.8877 C   0  0  0  0  0  0  0  0  0  0  0  0
    8.2135  -15.1416   20.2760 C   0  0  0  0  0  0  0  0  0  0  0  0
    9.1062  -16.2442   20.8162 C   0  0  2  0  0  0  0  0  0  0  0  0
    8.4340  -17.5355   20.7337 N   0  0  0  0  0  0  0  0  0  0  0  0
    9.4498  -16.0179   22.2388 C   0  0  0  0  0  0  0  0  0  0  0  0
   10.1101  -15.0133   22.5594 O   0  0  0  0  0  0  0  0  0  0  0  0
    6.2620  -14.5480   15.0063 N   0  0  0  0  0  0  0  0  0  0  0  0
    9.0600  -16.9090   23.2985 C   0  0  1  0  0  0  0  0  0  0  0  0
    9.3290  -16.6546   24.6717 C   0  0  0  0  0  0  0  0  0  0  0  0
    8.0667  -16.5691   25.4847 C   0  0  0  0  0  0  0  0  0  0  0  0
    7.3104  -15.3462   25.1290 C   0  0  0  0  0  0  0  0  0  0  0  0
    6.3042  -15.2979   24.1507 N   0  0  0  0  0  0  0  0  0  0  0  0
    5.8451  -14.0471   24.1571 C   0  0  0  0  0  0  0  0  0  0  0  0
    6.4947  -13.3104   25.0709 C   0  0  0  0  0  0  0  0  0  0  0  0
    6.3464  -11.9808   25.4067 C   0  0  0  0  0  0  0  0  0  0  0  0
    7.1512  -11.4583   26.3860 C   0  0  0  0  0  0  0  0  0  0  0  0
    8.0890  -12.2341   27.0255 C   0  0  0  0  0  0  0  0  0  0  0  0
    8.2435  -13.5562   26.6987 C   0  0  0  0  0  0  0  0  0  0  0  0
    7.4471  -14.1043   25.7204 C   0  0  0  0  0  0  0  0  0  0  0  0
   10.3123  -17.6321   25.2492 O   0  0  0  0  0  0  0  0  0  0  0  0
   10.1343  -18.8678   25.1130 N   0  0  0  0  0  0  0  0  0  0  0  0
   11.4557  -17.1808   25.9574 C   0  0  1  0  0  0  0  0  0  0  0  0
   12.3212  -18.1687   26.6357 C   0  0  0  0  0  0  0  0  0  0  0  0
   13.7292  -17.6912   26.6822 C   0  0  0  0  0  0  0  0  0  0  0  0
   14.3326  -17.7342   25.3353 O   0  0  0  0  0  0  0  0  0  0  0  0
   13.6002  -18.1641   24.3762 C   0  0  0  0  0  0  0  0  0  0  0  0
   11.7162  -18.3668   27.9790 O   0  0  0  0  0  0  0  0  0  0  0  0
   10.7422  -17.6834   28.3363 O   0  0  0  0  0  0  0  0  0  0  0  0
   15.6084  -17.3616   25.0015 O   0  0  0  0  0  0  0  0  0  0  0  0
  1  2  1  0
  2  4  1  0
  3  2  2  0
  4  5  1  0
  5  6  1  0
  7  6  1  0
  7  8  1  0
  8  9  1  1
 10 11  2  0
 10  8  1  0
 12 10  1  0
 13 12  1  0
 13 24  1  0
 13 14  1  6
 15 14  1  0
 16 15  2  0
 17 18  1  0
 17 16  1  0
 18 23  2  0
 19 20  2  0
 19 18  1  0
 20 21  1  0
 21 22  2  0
 23 15  1  0
 23 22  1  0
 24 26  1  0
 25 24  2  0
 26 27  1  0
 27 31  1  0
 28 29  1  0
 27 28  1  1
 29 30  2  0
 31 32  2  0
 31 34  1  0
 33 29  1  0
M  END
$$$$
