RWD.pdb
     RDKit          3D

 34 35  0  0  1  0  0  0  0  0999 V2000
    7.8475  -12.3512   17.7500 N   0  0  0  0  0  0  0  0  0  0  0  0
    7.6282  -13.3838   16.8119 C   0  0  0  0  0  0  0  0  0  0  0  0
    8.0793  -13.3477   15.6009 N   0  0  0  0  0  0  0  0  0  0  0  0
    6.8578  -14.5142   17.2676 N   0  0  0  0  0  0  0  0  0  0  0  0
    6.8327  -14.8218   18.6886 C   0  0  0  0  0  0  0  0  0  0  0  0
    8.1520  -15.4830   19.0343 C   0  0  0  0  0  0  0  0  0  0  0  0
    8.5842  -15.1536   20.4440 C   0  0  0  0  0  0  0  0  0  0  0  0
    8.8831  -16.4536   21.1687 C   0  0  2  0  0  0  0  0  0  0  0  0
    7.6701  -17.2489   21.3177 N   0  0  0  0  0  0  0  0  0  0  0  0
    9.4173  -16.2080   22.5280 C   0  0  0  0  0  0  0  0  0  0  0  0
   10.4063  -15.4676   22.6754 O   0  0  0  0  0  0  0  0  0  0  0  0
    7.9184  -14.1462   14.9738 N   0  0  0  0  0  0  0  0  0  0  0  0
    8.8517  -16.7872   23.7170 C   0  0  1  0  0  0  0  0  0  0  0  0
    9.3973  -16.5930   25.0161 C   0  0  0  0  0  0  0  0  0  0  0  0
    8.3298  -16.5666   26.0751 C   0  0  0  0  0  0  0  0  0  0  0  0
    7.3738  -15.4665   25.8112 C   0  0  0  0  0  0  0  0  0  0  0  0
    6.0863  -15.6507   25.2816 N   0  0  0  0  0  0  0  0  0  0  0  0
    5.5320  -14.4401   25.2332 C   0  0  0  0  0  0  0  0  0  0  0  0
    6.3837  -13.5121   25.6952 C   0  0  0  0  0  0  0  0  0  0  0  0
    6.2272  -12.1472   25.8185 C   0  0  0  0  0  0  0  0  0  0  0  0
    7.2686  -11.4106   26.3212 C   0  0  0  0  0  0  0  0  0  0  0  0
    8.4477  -12.0096   26.6971 C   0  0  0  0  0  0  0  0  0  0  0  0
    8.6124  -13.3652   26.5784 C   0  0  0  0  0  0  0  0  0  0  0  0
    7.5819  -14.1263   26.0780 C   0  0  0  0  0  0  0  0  0  0  0  0
   10.4851  -17.5801   25.3294 O   0  0  0  0  0  0  0  0  0  0  0  0
   10.2470  -18.8131   25.3166 N   0  0  0  0  0  0  0  0  0  0  0  0
   11.7965  -17.1409   25.6454 C   0  0  1  0  0  0  0  0  0  0  0  0
   12.8038  -18.1309   26.0818 C   0  0  0  0  0  0  0  0  0  0  0  0
   14.1763  -17.5673   25.9760 C   0  0  0  0  0  0  0  0  0  0  0  0
   14.5496  -17.3823   24.5594 O   0  0  0  0  0  0  0  0  0  0  0  0
   13.8672  -18.0208   23.6832 C   0  0  0  0  0  0  0  0  0  0  0  0
   12.4185  -18.5005   27.4691 O   0  0  0  0  0  0  0  0  0  0  0  0
   11.9281  -17.6517   28.2322 O   0  0  0  0  0  0  0  0  0  0  0  0
   15.5622  -16.5934   24.0798 O   0  0  0  0  0  0  0  0  0  0  0  0
  1  2  1  0
  2  4  1  0
  3  2  2  0
  4  5  1  0
  5  6  1  0
  7  6  1  0
  7  8  1  0
  8  9  1  1
 10 11  2  0
 10  8  1  0
 12 10  1  0
 13 12  1  0
 13 24  1  0
 13 14  1  1
 15 14  1  0
 16 15  2  0
 17 18  1  0
 17 16  1  0
 18 23  2  0
 19 20  2  0
 19 18  1  0
 20 21  1  0
 21 22  2  0
 23 15  1  0
 23 22  1  0
 24 26  1  0
 25 24  2  0
 26 27  1  0
 27 31  1  0
 28 29  1  0
 27 28  1  1
 29 30  2  0
 31 32  2  0
 31 34  1  0
 33 29  1  0
M  END
$$$$
