RWD.pdb
     RDKit          3D

 34 35  0  0  1  0  0  0  0  0999 V2000
    8.0004  -12.1971   19.6062 N   0  0  0  0  0  0  0  0  0  0  0  0
    8.0658  -12.9702   18.4262 C   0  0  0  0  0  0  0  0  0  0  0  0
    9.0332  -12.8799   17.5733 N   0  0  0  0  0  0  0  0  0  0  0  0
    6.9801  -13.8915   18.1995 N   0  0  0  0  0  0  0  0  0  0  0  0
    7.1877  -15.3047   18.4724 C   0  0  0  0  0  0  0  0  0  0  0  0
    6.7198  -15.5678   19.8898 C   0  0  0  0  0  0  0  0  0  0  0  0
    7.7402  -15.1077   20.9045 C   0  0  0  0  0  0  0  0  0  0  0  0
    8.5080  -16.3219   21.3951 C   0  0  2  0  0  0  0  0  0  0  0  0
    7.6139  -17.4613   21.5629 N   0  0  0  0  0  0  0  0  0  0  0  0
    9.1469  -16.0678   22.7068 C   0  0  0  0  0  0  0  0  0  0  0  0
    9.9261  -15.1063   22.8351 O   0  0  0  0  0  0  0  0  0  0  0  0
    9.0075  -13.4422   16.7131 N   0  0  0  0  0  0  0  0  0  0  0  0
    8.9187  -16.8836   23.8693 C   0  0  1  0  0  0  0  0  0  0  0  0
    9.5536  -16.6545   25.1212 C   0  0  0  0  0  0  0  0  0  0  0  0
    8.5564  -16.4909   26.2350 C   0  0  0  0  0  0  0  0  0  0  0  0
    7.5772  -15.4330   25.8943 C   0  0  0  0  0  0  0  0  0  0  0  0
    6.3102  -15.6798   25.3414 N   0  0  0  0  0  0  0  0  0  0  0  0
    5.7235  -14.4896   25.2210 C   0  0  0  0  0  0  0  0  0  0  0  0
    6.5360  -13.5162   25.6596 C   0  0  0  0  0  0  0  0  0  0  0  0
    6.3379  -12.1522   25.7134 C   0  0  0  0  0  0  0  0  0  0  0  0
    7.3442  -11.3625   26.2067 C   0  0  0  0  0  0  0  0  0  0  0  0
    8.5292  -11.9082   26.6408 C   0  0  0  0  0  0  0  0  0  0  0  0
    8.7351  -13.2624   26.5914 C   0  0  0  0  0  0  0  0  0  0  0  0
    7.7403  -14.0763   26.1019 C   0  0  0  0  0  0  0  0  0  0  0  0
   10.5888  -17.6970   25.4331 O   0  0  0  0  0  0  0  0  0  0  0  0
   10.2951  -18.9172   25.3882 N   0  0  0  0  0  0  0  0  0  0  0  0
   11.9123  -17.3256   25.7840 C   0  0  1  0  0  0  0  0  0  0  0  0
   12.8716  -18.3731   26.1932 C   0  0  0  0  0  0  0  0  0  0  0  0
   14.2716  -17.8992   26.0263 C   0  0  0  0  0  0  0  0  0  0  0  0
   14.4666  -17.3330   24.6767 O   0  0  0  0  0  0  0  0  0  0  0  0
   14.1164  -18.0565   23.6792 C   0  0  0  0  0  0  0  0  0  0  0  0
   12.5195  -18.7030   27.5992 O   0  0  0  0  0  0  0  0  0  0  0  0
   11.5843  -18.1147   28.1673 O   0  0  0  0  0  0  0  0  0  0  0  0
   14.9913  -16.1031   24.3768 O   0  0  0  0  0  0  0  0  0  0  0  0
  1  2  1  0
  2  4  1  0
  3  2  2  0
  4  5  1  0
  5  6  1  0
  7  6  1  0
  7  8  1  0
  8  9  1  1
 10 11  2  0
 10  8  1  0
 12 10  1  0
 13 12  1  0
 13 24  1  0
 13 14  1  1
 15 14  1  0
 16 15  2  0
 17 18  1  0
 17 16  1  0
 18 23  2  0
 19 20  2  0
 19 18  1  0
 20 21  1  0
 21 22  2  0
 23 15  1  0
 23 22  1  0
 24 26  1  0
 25 24  2  0
 26 27  1  0
 27 31  1  0
 28 29  1  0
 27 28  1  1
 29 30  2  0
 31 32  2  0
 31 34  1  0
 33 29  1  0
M  END
$$$$
