RWD.pdb
     RDKit          3D

 34 35  0  0  1  0  0  0  0  0999 V2000
    8.7409  -16.3493   16.3774 N   0  0  0  0  0  0  0  0  0  0  0  0
    9.6300  -17.4221   16.6075 C   0  0  0  0  0  0  0  0  0  0  0  0
   10.1156  -18.1549   15.6595 N   0  0  0  0  0  0  0  0  0  0  0  0
    9.9864  -17.6793   17.9807 N   0  0  0  0  0  0  0  0  0  0  0  0
    8.9377  -18.0236   18.9273 C   0  0  0  0  0  0  0  0  0  0  0  0
    8.5947  -16.7674   19.7030 C   0  0  0  0  0  0  0  0  0  0  0  0
    7.6238  -17.0561   20.8239 C   0  0  0  0  0  0  0  0  0  0  0  0
    7.3758  -15.7668   21.5859 C   0  0  2  0  0  0  0  0  0  0  0  0
    7.3082  -14.6342   20.6701 N   0  0  0  0  0  0  0  0  0  0  0  0
    8.4641  -15.4873   22.5506 C   0  0  0  0  0  0  0  0  0  0  0  0
    9.3935  -14.7265   22.2256 O   0  0  0  0  0  0  0  0  0  0  0  0
   10.7300  -18.9458   15.8915 N   0  0  0  0  0  0  0  0  0  0  0  0
    8.5163  -16.0553   23.8711 C   0  0  1  0  0  0  0  0  0  0  0  0
    9.6361  -15.9176   24.7370 C   0  0  0  0  0  0  0  0  0  0  0  0
    9.2337  -15.4329   26.1026 C   0  0  0  0  0  0  0  0  0  0  0  0
    7.9021  -14.7867   26.0447 C   0  0  0  0  0  0  0  0  0  0  0  0
    6.6932  -15.4843   25.8907 N   0  0  0  0  0  0  0  0  0  0  0  0
    5.7305  -14.5639   25.9264 C   0  0  0  0  0  0  0  0  0  0  0  0
    6.2538  -13.3396   26.0914 C   0  0  0  0  0  0  0  0  0  0  0  0
    5.6300  -12.1123   26.1771 C   0  0  0  0  0  0  0  0  0  0  0  0
    6.4048  -10.9931   26.3410 C   0  0  0  0  0  0  0  0  0  0  0  0
    7.7747  -11.0811   26.4192 C   0  0  0  0  0  0  0  0  0  0  0  0
    8.4034  -12.2962   26.3352 C   0  0  0  0  0  0  0  0  0  0  0  0
    7.6481  -13.4340   26.1720 C   0  0  0  0  0  0  0  0  0  0  0  0
   10.4644  -17.1690   24.7989 O   0  0  0  0  0  0  0  0  0  0  0  0
   10.6475  -17.7561   25.8939 N   0  0  0  0  0  0  0  0  0  0  0  0
   11.0542  -17.7094   23.6273 C   0  0  1  0  0  0  0  0  0  0  0  0
   12.0787  -18.7670   23.7567 C   0  0  0  0  0  0  0  0  0  0  0  0
   12.3490  -19.4024   22.4392 C   0  0  0  0  0  0  0  0  0  0  0  0
   11.0988  -19.9259   21.8534 O   0  0  0  0  0  0  0  0  0  0  0  0
   11.1511  -20.3638   20.6507 C   0  0  0  0  0  0  0  0  0  0  0  0
   13.2662  -18.0958   24.3475 O   0  0  0  0  0  0  0  0  0  0  0  0
   13.2636  -16.8683   24.5389 O   0  0  0  0  0  0  0  0  0  0  0  0
    9.8754  -19.9900   22.4674 O   0  0  0  0  0  0  0  0  0  0  0  0
  1  2  1  0
  2  4  1  0
  3  2  2  0
  4  5  1  0
  5  6  1  0
  7  6  1  0
  7  8  1  0
  8  9  1  6
 10 11  2  0
 10  8  1  0
 12 10  1  0
 13 12  1  0
 13 24  1  0
 13 14  1  1
 15 14  1  0
 16 15  2  0
 17 18  1  0
 17 16  1  0
 18 23  2  0
 19 20  2  0
 19 18  1  0
 20 21  1  0
 21 22  2  0
 23 15  1  0
 23 22  1  0
 24 26  1  0
 25 24  2  0
 26 27  1  0
 27 31  1  0
 28 29  1  0
 27 28  1  1
 29 30  2  0
 31 32  2  0
 31 34  1  0
 33 29  1  0
M  END
$$$$
