RWD.pdb
     RDKit          3D

 34 35  0  0  1  0  0  0  0  0999 V2000
    9.0614  -14.1669   15.8216 N   0  0  0  0  0  0  0  0  0  0  0  0
    8.2625  -13.7727   16.9174 C   0  0  0  0  0  0  0  0  0  0  0  0
    7.1894  -13.0628   16.7921 N   0  0  0  0  0  0  0  0  0  0  0  0
    8.7016  -14.2030   18.2216 N   0  0  0  0  0  0  0  0  0  0  0  0
    7.9939  -15.2898   18.8793 C   0  0  0  0  0  0  0  0  0  0  0  0
    6.8348  -14.6813   19.6432 C   0  0  0  0  0  0  0  0  0  0  0  0
    7.1164  -14.6269   21.1265 C   0  0  0  0  0  0  0  0  0  0  0  0
    8.2300  -15.6103   21.4383 C   0  0  2  0  0  0  0  0  0  0  0  0
    7.6965  -16.9588   21.5899 N   0  0  0  0  0  0  0  0  0  0  0  0
    8.9210  -15.2666   22.7022 C   0  0  0  0  0  0  0  0  0  0  0  0
    9.4591  -14.1514   22.8251 O   0  0  0  0  0  0  0  0  0  0  0  0
    6.6434  -12.8138   17.6268 N   0  0  0  0  0  0  0  0  0  0  0  0
    9.0128  -16.1633   23.8231 C   0  0  1  0  0  0  0  0  0  0  0  0
    9.7281  -15.8555   25.0133 C   0  0  0  0  0  0  0  0  0  0  0  0
    8.8635  -15.9837   26.2371 C   0  0  0  0  0  0  0  0  0  0  0  0
    7.6381  -15.1654   26.0863 C   0  0  0  0  0  0  0  0  0  0  0  0
    6.3832  -15.6834   25.7275 N   0  0  0  0  0  0  0  0  0  0  0  0
    5.5423  -14.6500   25.7380 C   0  0  0  0  0  0  0  0  0  0  0  0
    6.1845  -13.5222   26.0779 C   0  0  0  0  0  0  0  0  0  0  0  0
    5.7078  -12.2342   26.2062 C   0  0  0  0  0  0  0  0  0  0  0  0
    6.5851  -11.2432   26.5643 C   0  0  0  0  0  0  0  0  0  0  0  0
    7.9130  -11.5166   26.7924 C   0  0  0  0  0  0  0  0  0  0  0  0
    8.3958  -12.7933   26.6675 C   0  0  0  0  0  0  0  0  0  0  0  0
    7.5354  -13.8054   26.3107 C   0  0  0  0  0  0  0  0  0  0  0  0
   11.0014  -16.6433   25.1313 O   0  0  0  0  0  0  0  0  0  0  0  0
   11.1680  -17.4422   26.0859 N   0  0  0  0  0  0  0  0  0  0  0  0
   12.0366  -16.5003   24.1719 C   0  0  2  0  0  0  0  0  0  0  0  0
   13.1838  -17.4320   24.2033 C   0  0  0  0  0  0  0  0  0  0  0  0
   12.7171  -18.8436   24.1573 C   0  0  0  0  0  0  0  0  0  0  0  0
   13.7043  -19.7339   24.7999 O   0  0  0  0  0  0  0  0  0  0  0  0
   14.7581  -19.1906   25.2850 C   0  0  0  0  0  0  0  0  0  0  0  0
   14.0346  -17.0494   23.0460 O   0  0  0  0  0  0  0  0  0  0  0  0
   13.5549  -16.4019   22.1004 O   0  0  0  0  0  0  0  0  0  0  0  0
   13.6113  -21.0949   24.9299 O   0  0  0  0  0  0  0  0  0  0  0  0
  1  2  1  0
  2  4  1  0
  3  2  2  0
  4  5  1  0
  5  6  1  0
  7  6  1  0
  7  8  1  0
  8  9  1  1
 10 11  2  0
 10  8  1  0
 12 10  1  0
 13 12  1  0
 13 24  1  0
 13 14  1  6
 15 14  1  0
 16 15  2  0
 17 18  1  0
 17 16  1  0
 18 23  2  0
 19 20  2  0
 19 18  1  0
 20 21  1  0
 21 22  2  0
 23 15  1  0
 23 22  1  0
 24 26  1  0
 25 24  2  0
 26 27  1  0
 27 31  1  0
 28 29  1  0
 27 28  1  1
 29 30  2  0
 31 32  2  0
 31 34  1  0
 33 29  1  0
M  END
$$$$
