CAE.pdb
     RDKit          3D

 21 20  0  0  1  0  0  0  0  0999 V2000
   14.6361  -11.3542  -10.6895 N   0  0  0  0  0  0  0  0  0  0  0  0
   15.8112  -10.6514  -10.2586 C   0  0  1  0  0  0  0  0  0  0  0  0
   17.0127  -11.0385  -11.0648 C   0  0  0  0  0  0  0  0  0  0  0  0
   17.3943  -12.7841  -10.6875 S   0  0  0  0  0  0  0  0  0  0  0  0
   15.5430   -9.1967  -10.2826 C   0  0  0  0  0  0  0  0  0  0  0  0
   15.0256   -8.6489  -11.3029 O   0  0  0  0  0  0  0  0  0  0  0  0
   15.0838   -6.4505   -7.9334 C   0  0  0  0  0  0  0  0  0  0  0  0
   15.6290   -6.9051   -9.2788 C   0  0  2  0  0  0  0  0  0  0  0  0
   15.8399   -8.3334   -9.1896 N   0  0  0  0  0  0  0  0  0  0  0  0
   16.8511   -6.1704   -9.6531 C   0  0  0  0  0  0  0  0  0  0  0  0
   17.9274   -6.4773   -9.0777 O   0  0  0  0  0  0  0  0  0  0  0  0
   16.9119   -5.1400  -10.6144 N   0  0  0  0  0  0  0  0  0  0  0  0
   18.1350   -4.5859  -11.1579 C   0  0  1  0  0  0  0  0  0  0  0  0
   19.0650   -5.6293  -11.6862 C   0  0  0  0  0  0  0  0  0  0  0  0
   20.2923   -5.0570  -12.3499 C   0  0  0  0  0  0  0  0  0  0  0  0
   21.1864   -6.1357  -12.8443 C   0  0  0  0  0  0  0  0  0  0  0  0
   20.9656   -7.3573  -12.6081 O   0  0  0  0  0  0  0  0  0  0  0  0
   17.8632   -3.4970  -12.1290 C   0  0  0  0  0  0  0  0  0  0  0  0
   16.8090   -3.4706  -12.8121 O   0  0  0  0  0  0  0  0  0  0  0  0
   22.3331   -5.8724  -13.6045 O   0  0  0  0  0  0  0  0  0  0  0  0
   18.7579   -2.4518  -12.3334 O   0  0  0  0  0  0  0  0  0  0  0  0
  2  3  1  0
  2  1  1  6
  4  3  1  0
  5  2  1  0
  6  5  2  0
  8  7  1  1
  8  9  1  0
  9  5  1  0
 10  8  1  0
 10 12  1  0
 11 10  2  0
 13 12  1  0
 13 14  1  6
 13 18  1  0
 15 14  1  0
 16 15  1  0
 17 16  2  0
 18 19  2  0
 18 21  1  0
 20 16  1  0
M  END
$$$$
