CAE.pdb
     RDKit          3D

 21 20  0  0  1  0  0  0  0  0999 V2000
   22.2906  -10.5214  -16.3577 N   0  0  0  0  0  0  0  0  0  0  0  0
   22.0387   -9.6474  -15.2474 C   0  0  1  0  0  0  0  0  0  0  0  0
   23.3093   -9.2353  -14.5698 C   0  0  0  0  0  0  0  0  0  0  0  0
   24.0040  -10.7116  -13.7494 S   0  0  0  0  0  0  0  0  0  0  0  0
   21.2301   -8.4976  -15.7084 C   0  0  0  0  0  0  0  0  0  0  0  0
   21.4904   -7.9199  -16.8072 O   0  0  0  0  0  0  0  0  0  0  0  0
   17.9949   -6.9230  -14.8076 C   0  0  0  0  0  0  0  0  0  0  0  0
   19.3713   -6.8408  -15.4501 C   0  0  2  0  0  0  0  0  0  0  0  0
   20.1317   -7.9734  -14.9689 N   0  0  0  0  0  0  0  0  0  0  0  0
   20.0309   -5.5518  -15.1731 C   0  0  0  0  0  0  0  0  0  0  0  0
   20.7985   -5.4799  -14.1785 O   0  0  0  0  0  0  0  0  0  0  0  0
   19.8691   -4.3799  -15.9412 N   0  0  0  0  0  0  0  0  0  0  0  0
   20.5138   -3.1127  -15.6639 C   0  0  1  0  0  0  0  0  0  0  0  0
   20.3006   -2.1002  -16.7419 C   0  0  0  0  0  0  0  0  0  0  0  0
   21.0845   -0.8289  -16.5331 C   0  0  0  0  0  0  0  0  0  0  0  0
   20.7842    0.1663  -17.5945 C   0  0  0  0  0  0  0  0  0  0  0  0
   20.0183   -0.0924  -18.5659 O   0  0  0  0  0  0  0  0  0  0  0  0
   20.1763   -2.6071  -14.3098 C   0  0  0  0  0  0  0  0  0  0  0  0
   19.0042   -2.6582  -13.8602 O   0  0  0  0  0  0  0  0  0  0  0  0
   21.3285    1.4569  -17.5909 O   0  0  0  0  0  0  0  0  0  0  0  0
   21.1363   -2.0522  -13.4702 O   0  0  0  0  0  0  0  0  0  0  0  0
  2  3  1  0
  2  1  1  6
  4  3  1  0
  5  2  1  0
  6  5  2  0
  8  7  1  1
  8  9  1  0
  9  5  1  0
 10  8  1  0
 10 12  1  0
 11 10  2  0
 13 12  1  0
 13 14  1  6
 13 18  1  0
 15 14  1  0
 16 15  1  0
 17 16  2  0
 18 19  2  0
 18 21  1  0
 20 16  1  0
M  END
$$$$
