CAE.pdb
     RDKit          3D

 21 20  0  0  1  0  0  0  0  0999 V2000
   16.3644  -12.5021  -15.6279 N   0  0  0  0  0  0  0  0  0  0  0  0
   16.1904  -11.5349  -14.5818 C   0  0  1  0  0  0  0  0  0  0  0  0
   17.1817  -11.7328  -13.4765 C   0  0  0  0  0  0  0  0  0  0  0  0
   16.7383  -13.2746  -12.6040 S   0  0  0  0  0  0  0  0  0  0  0  0
   16.2378  -10.1758  -15.1644 C   0  0  0  0  0  0  0  0  0  0  0  0
   17.1797   -9.8358  -15.9429 O   0  0  0  0  0  0  0  0  0  0  0  0
   14.0007   -7.2015  -15.3508 C   0  0  0  0  0  0  0  0  0  0  0  0
   15.3808   -7.8376  -15.4189 C   0  0  2  0  0  0  0  0  0  0  0  0
   15.2542   -9.1811  -14.8979 N   0  0  0  0  0  0  0  0  0  0  0  0
   16.3898   -7.0395  -14.6991 C   0  0  0  0  0  0  0  0  0  0  0  0
   16.5370   -7.2421  -13.4659 O   0  0  0  0  0  0  0  0  0  0  0  0
   17.2124   -6.0563  -15.2876 N   0  0  0  0  0  0  0  0  0  0  0  0
   18.2057   -5.2755  -14.5790 C   0  0  1  0  0  0  0  0  0  0  0  0
   19.5959   -5.7905  -14.7655 C   0  0  0  0  0  0  0  0  0  0  0  0
   20.6364   -4.9868  -14.0270 C   0  0  0  0  0  0  0  0  0  0  0  0
   22.0079   -5.4515  -14.3593 C   0  0  0  0  0  0  0  0  0  0  0  0
   22.4502   -6.5742  -13.9838 O   0  0  0  0  0  0  0  0  0  0  0  0
   18.0745   -3.8252  -14.8660 C   0  0  0  0  0  0  0  0  0  0  0  0
   17.6630   -3.4075  -15.9773 O   0  0  0  0  0  0  0  0  0  0  0  0
   22.9026   -4.6782  -15.1101 O   0  0  0  0  0  0  0  0  0  0  0  0
   18.3987   -2.8553  -13.9233 O   0  0  0  0  0  0  0  0  0  0  0  0
  2  3  1  0
  2  1  1  6
  4  3  1  0
  5  2  1  0
  6  5  2  0
  8  7  1  1
  8  9  1  0
  9  5  1  0
 10  8  1  0
 10 12  1  0
 11 10  2  0
 13 12  1  0
 13 14  1  6
 13 18  1  0
 15 14  1  0
 16 15  1  0
 17 16  2  0
 18 19  2  0
 18 21  1  0
 20 16  1  0
M  END
$$$$
