CAE.pdb
     RDKit          3D

 21 20  0  0  1  0  0  0  0  0999 V2000
   21.4530  -13.1432  -18.1374 N   0  0  0  0  0  0  0  0  0  0  0  0
   22.4368  -12.1649  -18.5056 C   0  0  1  0  0  0  0  0  0  0  0  0
   22.0420  -11.4248  -19.7465 C   0  0  0  0  0  0  0  0  0  0  0  0
   21.9509  -12.6369  -21.1093 S   0  0  0  0  0  0  0  0  0  0  0  0
   22.6868  -11.2707  -17.3538 C   0  0  0  0  0  0  0  0  0  0  0  0
   21.7253  -10.8283  -16.6549 O   0  0  0  0  0  0  0  0  0  0  0  0
   25.6791   -9.8662  -15.5944 C   0  0  0  0  0  0  0  0  0  0  0  0
   24.1879   -9.8999  -15.8929 C   0  0  2  0  0  0  0  0  0  0  0  0
   23.9912  -10.8556  -16.9609 N   0  0  0  0  0  0  0  0  0  0  0  0
   23.6629   -8.5620  -16.2209 C   0  0  0  0  0  0  0  0  0  0  0  0
   23.8224   -8.1331  -17.3933 O   0  0  0  0  0  0  0  0  0  0  0  0
   22.9889   -7.7145  -15.3169 N   0  0  0  0  0  0  0  0  0  0  0  0
   22.4704   -6.4017  -15.6424 C   0  0  1  0  0  0  0  0  0  0  0  0
   21.0905   -6.4436  -16.2142 C   0  0  0  0  0  0  0  0  0  0  0  0
   20.5271   -5.0786  -16.5199 C   0  0  0  0  0  0  0  0  0  0  0  0
   19.1674   -5.1799  -17.1101 C   0  0  0  0  0  0  0  0  0  0  0  0
   18.6157   -6.2914  -17.3486 O   0  0  0  0  0  0  0  0  0  0  0  0
   22.6052   -5.4580  -14.5049 C   0  0  0  0  0  0  0  0  0  0  0  0
   22.6445   -5.8606  -13.3153 O   0  0  0  0  0  0  0  0  0  0  0  0
   18.4058   -4.0520  -17.4417 O   0  0  0  0  0  0  0  0  0  0  0  0
   22.6948   -4.0831  -14.6948 O   0  0  0  0  0  0  0  0  0  0  0  0
  2  3  1  0
  2  1  1  1
  4  3  1  0
  5  2  1  0
  6  5  2  0
  8  7  1  6
  8  9  1  0
  9  5  1  0
 10  8  1  0
 10 12  1  0
 11 10  2  0
 13 12  1  0
 13 14  1  1
 13 18  1  0
 15 14  1  0
 16 15  1  0
 17 16  2  0
 18 19  2  0
 18 21  1  0
 20 16  1  0
M  END
$$$$
