CAE.pdb
     RDKit          3D

 21 20  0  0  1  0  0  0  0  0999 V2000
   25.9006  -14.3727  -17.4415 N   0  0  0  0  0  0  0  0  0  0  0  0
   25.1205  -14.1859  -16.2512 C   0  0  1  0  0  0  0  0  0  0  0  0
   25.9892  -13.9832  -15.0480 C   0  0  0  0  0  0  0  0  0  0  0  0
   26.9777  -15.5011  -14.8159 S   0  0  0  0  0  0  0  0  0  0  0  0
   24.1636  -13.0785  -16.4667 C   0  0  0  0  0  0  0  0  0  0  0  0
   24.5077  -12.0385  -17.1060 O   0  0  0  0  0  0  0  0  0  0  0  0
   20.4937  -12.5911  -16.0196 C   0  0  0  0  0  0  0  0  0  0  0  0
   21.8863  -12.0512  -16.3081 C   0  0  2  0  0  0  0  0  0  0  0  0
   22.8243  -13.1034  -15.9832 N   0  0  0  0  0  0  0  0  0  0  0  0
   22.1541  -10.8014  -15.5736 C   0  0  0  0  0  0  0  0  0  0  0  0
   22.6289  -10.8865  -14.4113 O   0  0  0  0  0  0  0  0  0  0  0  0
   21.9185   -9.5038  -16.0740 N   0  0  0  0  0  0  0  0  0  0  0  0
   22.2399   -8.2762  -15.3754 C   0  0  1  0  0  0  0  0  0  0  0  0
   22.4335   -7.1142  -16.2947 C   0  0  0  0  0  0  0  0  0  0  0  0
   22.7059   -5.8184  -15.5729 C   0  0  0  0  0  0  0  0  0  0  0  0
   22.9014   -4.7012  -16.5326 C   0  0  0  0  0  0  0  0  0  0  0  0
   22.8304   -3.4893  -16.1820 O   0  0  0  0  0  0  0  0  0  0  0  0
   21.2820   -8.0004  -14.2758 C   0  0  0  0  0  0  0  0  0  0  0  0
   21.6161   -7.3401  -13.2604 O   0  0  0  0  0  0  0  0  0  0  0  0
   23.1773   -4.9149  -17.8892 O   0  0  0  0  0  0  0  0  0  0  0  0
   19.9686   -8.4568  -14.3110 O   0  0  0  0  0  0  0  0  0  0  0  0
  2  3  1  0
  2  1  1  6
  4  3  1  0
  5  2  1  0
  6  5  2  0
  8  7  1  1
  8  9  1  0
  9  5  1  0
 10  8  1  0
 10 12  1  0
 11 10  2  0
 13 12  1  0
 13 14  1  6
 13 18  1  0
 15 14  1  0
 16 15  1  0
 17 16  2  0
 18 19  2  0
 18 21  1  0
 20 16  1  0
M  END
$$$$
