CAE.pdb
     RDKit          3D

 21 20  0  0  1  0  0  0  0  0999 V2000
   12.2116  -11.7616   -9.3931 N   0  0  0  0  0  0  0  0  0  0  0  0
   12.1313  -10.3392   -9.2180 C   0  0  1  0  0  0  0  0  0  0  0  0
   12.7696   -9.9040   -7.9348 C   0  0  0  0  0  0  0  0  0  0  0  0
   11.9303  -10.7834   -6.5721 S   0  0  0  0  0  0  0  0  0  0  0  0
   12.7064   -9.6706  -10.4058 C   0  0  0  0  0  0  0  0  0  0  0  0
   13.5752  -10.2545  -11.1221 O   0  0  0  0  0  0  0  0  0  0  0  0
   11.8893   -6.6952  -12.4683 C   0  0  0  0  0  0  0  0  0  0  0  0
   12.8747   -7.7630  -12.0180 C   0  0  2  0  0  0  0  0  0  0  0  0
   12.3338   -8.3588  -10.8159 N   0  0  0  0  0  0  0  0  0  0  0  0
   14.2288   -7.2140  -11.8230 C   0  0  0  0  0  0  0  0  0  0  0  0
   14.5498   -6.8220  -10.6710 O   0  0  0  0  0  0  0  0  0  0  0  0
   15.2043   -7.0911  -12.8344 N   0  0  0  0  0  0  0  0  0  0  0  0
   16.5225   -6.5201  -12.6482 C   0  0  1  0  0  0  0  0  0  0  0  0
   17.6245   -7.4786  -12.9637 C   0  0  0  0  0  0  0  0  0  0  0  0
   17.7354   -7.8014  -14.4326 C   0  0  0  0  0  0  0  0  0  0  0  0
   18.7619   -8.8476  -14.6754 C   0  0  0  0  0  0  0  0  0  0  0  0
   20.0001   -8.6151  -14.5760 O   0  0  0  0  0  0  0  0  0  0  0  0
   16.6621   -5.2167  -13.3443 C   0  0  0  0  0  0  0  0  0  0  0  0
   15.8573   -4.8580  -14.2399 O   0  0  0  0  0  0  0  0  0  0  0  0
   18.4279  -10.1608  -15.0304 O   0  0  0  0  0  0  0  0  0  0  0  0
   17.6875   -4.3266  -13.0430 O   0  0  0  0  0  0  0  0  0  0  0  0
  2  3  1  0
  2  1  1  6
  4  3  1  0
  5  2  1  0
  6  5  2  0
  8  7  1  1
  8  9  1  0
  9  5  1  0
 10  8  1  0
 10 12  1  0
 11 10  2  0
 13 12  1  0
 13 14  1  6
 13 18  1  0
 15 14  1  0
 16 15  1  0
 17 16  2  0
 18 19  2  0
 18 21  1  0
 20 16  1  0
M  END
$$$$
