CAE.pdb
     RDKit          3D

 21 20  0  0  1  0  0  0  0  0999 V2000
   16.8712  -10.4756  -10.4407 N   0  0  0  0  0  0  0  0  0  0  0  0
   15.8381   -9.9430  -11.2829 C   0  0  1  0  0  0  0  0  0  0  0  0
   14.7310  -10.9304  -11.4900 C   0  0  0  0  0  0  0  0  0  0  0  0
   15.3721  -12.2661  -12.5575 S   0  0  0  0  0  0  0  0  0  0  0  0
   15.3687   -8.6573  -10.7213 C   0  0  0  0  0  0  0  0  0  0  0  0
   14.5487   -7.9308  -11.3603 O   0  0  0  0  0  0  0  0  0  0  0  0
   15.4271   -6.9663   -7.4231 C   0  0  0  0  0  0  0  0  0  0  0  0
   15.3039   -6.9018   -8.9379 C   0  0  2  0  0  0  0  0  0  0  0  0
   15.7947   -8.1597   -9.4568 N   0  0  0  0  0  0  0  0  0  0  0  0
   16.0142   -5.7377   -9.4979 C   0  0  0  0  0  0  0  0  0  0  0  0
   17.2492   -5.8446   -9.7152 O   0  0  0  0  0  0  0  0  0  0  0  0
   15.4149   -4.5003   -9.8132 N   0  0  0  0  0  0  0  0  0  0  0  0
   16.0138   -3.4792  -10.6480 C   0  0  1  0  0  0  0  0  0  0  0  0
   16.2493   -3.9354  -12.0512 C   0  0  0  0  0  0  0  0  0  0  0  0
   16.8114   -2.8585  -12.9448 C   0  0  0  0  0  0  0  0  0  0  0  0
   16.9368   -3.3362  -14.3460 C   0  0  0  0  0  0  0  0  0  0  0  0
   16.6042   -4.5047  -14.6936 O   0  0  0  0  0  0  0  0  0  0  0  0
   15.2737   -2.1954  -10.5654 C   0  0  0  0  0  0  0  0  0  0  0  0
   14.0262   -2.1617  -10.4193 O   0  0  0  0  0  0  0  0  0  0  0  0
   17.4314   -2.5252  -15.3755 O   0  0  0  0  0  0  0  0  0  0  0  0
   15.9194   -0.9661  -10.6450 O   0  0  0  0  0  0  0  0  0  0  0  0
  2  3  1  0
  2  1  1  1
  4  3  1  0
  5  2  1  0
  6  5  2  0
  8  7  1  1
  8  9  1  0
  9  5  1  0
 10  8  1  0
 10 12  1  0
 11 10  2  0
 13 12  1  0
 13 14  1  6
 13 18  1  0
 15 14  1  0
 16 15  1  0
 17 16  2  0
 18 19  2  0
 18 21  1  0
 20 16  1  0
M  END
$$$$
