CAE.pdb
     RDKit          3D

 21 20  0  0  1  0  0  0  0  0999 V2000
   24.8228  -10.6432  -17.6412 N   0  0  0  0  0  0  0  0  0  0  0  0
   23.8432  -10.7011  -16.5938 C   0  0  1  0  0  0  0  0  0  0  0  0
   24.4293  -10.3235  -15.2681 C   0  0  0  0  0  0  0  0  0  0  0  0
   25.6218  -11.6245  -14.7987 S   0  0  0  0  0  0  0  0  0  0  0  0
   22.6802   -9.8677  -16.9702 C   0  0  0  0  0  0  0  0  0  0  0  0
   22.8324   -8.6529  -17.3017 O   0  0  0  0  0  0  0  0  0  0  0  0
   19.0420  -10.4043  -17.6137 C   0  0  0  0  0  0  0  0  0  0  0  0
   20.2283   -9.4999  -17.3159 C   0  0  2  0  0  0  0  0  0  0  0  0
   21.3439  -10.3596  -16.9856 N   0  0  0  0  0  0  0  0  0  0  0  0
   19.9236   -8.5265  -16.2515 C   0  0  0  0  0  0  0  0  0  0  0  0
   20.2014   -8.8391  -15.0646 O   0  0  0  0  0  0  0  0  0  0  0  0
   19.3395   -7.2594  -16.4584 N   0  0  0  0  0  0  0  0  0  0  0  0
   19.0654   -6.2937  -15.4141 C   0  0  1  0  0  0  0  0  0  0  0  0
   20.2705   -5.9591  -14.5966 C   0  0  0  0  0  0  0  0  0  0  0  0
   21.2660   -5.0912  -15.3246 C   0  0  0  0  0  0  0  0  0  0  0  0
   22.4177   -4.7482  -14.4509 C   0  0  0  0  0  0  0  0  0  0  0  0
   23.4949   -4.2722  -14.9092 O   0  0  0  0  0  0  0  0  0  0  0  0
   18.3633   -5.0967  -15.9405 C   0  0  0  0  0  0  0  0  0  0  0  0
   18.2596   -4.8826  -17.1743 O   0  0  0  0  0  0  0  0  0  0  0  0
   22.3881   -4.9288  -13.0622 O   0  0  0  0  0  0  0  0  0  0  0  0
   17.7851   -4.1522  -15.0991 O   0  0  0  0  0  0  0  0  0  0  0  0
  2  3  1  0
  2  1  1  6
  4  3  1  0
  5  2  1  0
  6  5  2  0
  8  7  1  1
  8  9  1  0
  9  5  1  0
 10  8  1  0
 10 12  1  0
 11 10  2  0
 13 12  1  0
 13 14  1  6
 13 18  1  0
 15 14  1  0
 16 15  1  0
 17 16  2  0
 18 19  2  0
 18 21  1  0
 20 16  1  0
M  END
$$$$
