CAE.pdb
     RDKit          3D

 21 20  0  0  1  0  0  0  0  0999 V2000
   25.5572  -32.7989  -15.0430 N   0  0  0  0  0  0  0  0  0  0  0  0
   26.2962  -33.9361  -14.5729 C   0  0  1  0  0  0  0  0  0  0  0  0
   27.7706  -33.6726  -14.5675 C   0  0  0  0  0  0  0  0  0  0  0  0
   28.0873  -32.3183  -13.3841 S   0  0  0  0  0  0  0  0  0  0  0  0
   25.7760  -34.3391  -13.2478 C   0  0  0  0  0  0  0  0  0  0  0  0
   25.0148  -33.5687  -12.5877 O   0  0  0  0  0  0  0  0  0  0  0  0
   25.5485  -37.4437  -11.2372 C   0  0  0  0  0  0  0  0  0  0  0  0
   25.5954  -35.9255  -11.3198 C   0  0  2  0  0  0  0  0  0  0  0  0
   26.0866  -35.5879  -12.6379 N   0  0  0  0  0  0  0  0  0  0  0  0
   26.4117  -35.3414  -10.2400 C   0  0  0  0  0  0  0  0  0  0  0  0
   27.6522  -35.2376  -10.4242 O   0  0  0  0  0  0  0  0  0  0  0  0
   25.9089  -34.8848   -9.0038 N   0  0  0  0  0  0  0  0  0  0  0  0
   26.7179  -34.3502   -7.9277 C   0  0  1  0  0  0  0  0  0  0  0  0
   25.9048  -33.7354   -6.8351 C   0  0  0  0  0  0  0  0  0  0  0  0
   26.7372  -33.2052   -5.6949 C   0  0  0  0  0  0  0  0  0  0  0  0
   25.8782  -32.7378   -4.5764 C   0  0  0  0  0  0  0  0  0  0  0  0
   24.6184  -32.8319   -4.6073 O   0  0  0  0  0  0  0  0  0  0  0  0
   27.7063  -35.3421   -7.4357 C   0  0  0  0  0  0  0  0  0  0  0  0
   28.8797  -35.0096   -7.1335 O   0  0  0  0  0  0  0  0  0  0  0  0
   26.4054  -32.1618   -3.4134 O   0  0  0  0  0  0  0  0  0  0  0  0
   27.3871  -36.6872   -7.2837 O   0  0  0  0  0  0  0  0  0  0  0  0
  2  3  1  0
  2  1  1  1
  4  3  1  0
  5  2  1  0
  6  5  2  0
  8  7  1  1
  8  9  1  0
  9  5  1  0
 10  8  1  0
 10 12  1  0
 11 10  2  0
 13 12  1  0
 13 14  1  1
 13 18  1  0
 15 14  1  0
 16 15  1  0
 17 16  2  0
 18 19  2  0
 18 21  1  0
 20 16  1  0
M  END
$$$$
