CAE.pdb
     RDKit          3D

 21 20  0  0  1  0  0  0  0  0999 V2000
   16.9157  -12.3589  -16.7839 N   0  0  0  0  0  0  0  0  0  0  0  0
   16.9596  -11.5052  -15.6308 C   0  0  1  0  0  0  0  0  0  0  0  0
   17.9577  -11.9882  -14.6239 C   0  0  0  0  0  0  0  0  0  0  0  0
   17.2503  -13.4586  -13.8037 S   0  0  0  0  0  0  0  0  0  0  0  0
   17.2054  -10.1130  -16.0667 C   0  0  0  0  0  0  0  0  0  0  0  0
   18.1635   -9.8380  -16.8510 O   0  0  0  0  0  0  0  0  0  0  0  0
   15.3910   -6.8608  -15.8324 C   0  0  0  0  0  0  0  0  0  0  0  0
   16.6358   -7.6766  -16.1468 C   0  0  2  0  0  0  0  0  0  0  0  0
   16.4036   -9.0137  -15.6461 N   0  0  0  0  0  0  0  0  0  0  0  0
   17.8524   -7.0609  -15.5862 C   0  0  0  0  0  0  0  0  0  0  0  0
   18.2591   -7.4644  -14.4658 O   0  0  0  0  0  0  0  0  0  0  0  0
   18.6053   -6.0450  -16.2112 N   0  0  0  0  0  0  0  0  0  0  0  0
   19.7311   -5.3601  -15.6098 C   0  0  1  0  0  0  0  0  0  0  0  0
   21.0191   -6.1005  -15.7700 C   0  0  0  0  0  0  0  0  0  0  0  0
   22.1849   -5.4285  -15.0892 C   0  0  0  0  0  0  0  0  0  0  0  0
   22.1540   -5.6589  -13.6218 C   0  0  0  0  0  0  0  0  0  0  0  0
   21.9824   -6.8067  -13.1218 O   0  0  0  0  0  0  0  0  0  0  0  0
   19.8113   -3.9434  -16.0452 C   0  0  0  0  0  0  0  0  0  0  0  0
   19.3922   -3.5750  -17.1710 O   0  0  0  0  0  0  0  0  0  0  0  0
   22.3127   -4.6214  -12.6942 O   0  0  0  0  0  0  0  0  0  0  0  0
   20.3525   -2.9525  -15.2331 O   0  0  0  0  0  0  0  0  0  0  0  0
  2  3  1  0
  2  1  1  6
  4  3  1  0
  5  2  1  0
  6  5  2  0
  8  7  1  1
  8  9  1  0
  9  5  1  0
 10  8  1  0
 10 12  1  0
 11 10  2  0
 13 12  1  0
 13 14  1  6
 13 18  1  0
 15 14  1  0
 16 15  1  0
 17 16  2  0
 18 19  2  0
 18 21  1  0
 20 16  1  0
M  END
$$$$
