DSS.pdb
     RDKit          3D

 21 20  0  0  1  0  0  0  0  0999 V2000
   16.0035  -14.0058  -15.8694 N   0  0  0  0  0  0  0  0  0  0  0  0
   16.8079  -13.4183  -14.8336 C   0  0  1  0  0  0  0  0  0  0  0  0
   17.9019  -14.4149  -14.5013 C   0  0  0  0  0  0  0  0  0  0  0  0
   17.2683  -15.5613  -13.8277 C   0  0  0  0  0  0  0  0  0  0  0  0
   17.9361  -16.5767  -13.5664 O   0  0  0  0  0  0  0  0  0  0  0  0
   17.3637  -12.0925  -15.2046 C   0  0  0  0  0  0  0  0  0  0  0  0
   18.3661  -12.0862  -15.9571 O   0  0  0  0  0  0  0  0  0  0  0  0
   15.9381  -15.5110  -13.4869 O   0  0  0  0  0  0  0  0  0  0  0  0
   15.6877   -8.5694  -13.5498 O   0  0  0  0  0  0  0  0  0  0  0  0
   16.2595   -8.4890  -14.8076 C   0  0  0  0  0  0  0  0  0  0  0  0
   17.2644   -9.5502  -15.1138 C   0  0  2  0  0  0  0  0  0  0  0  0
   16.8107  -10.8695  -14.7469 N   0  0  0  0  0  0  0  0  0  0  0  0
   18.6261   -9.2610  -14.6150 C   0  0  0  0  0  0  0  0  0  0  0  0
   18.9699   -9.6080  -13.4561 O   0  0  0  0  0  0  0  0  0  0  0  0
   21.9776   -9.4683  -16.7412 O   0  0  0  0  0  0  0  0  0  0  0  0
   21.8900   -8.2583  -16.0635 C   0  0  0  0  0  0  0  0  0  0  0  0
   20.9721   -8.4050  -14.8409 C   0  0  2  0  0  0  0  0  0  0  0  0
   19.6326   -8.5941  -15.3627 N   0  0  0  0  0  0  0  0  0  0  0  0
   20.9919   -7.1427  -14.0706 C   0  0  0  0  0  0  0  0  0  0  0  0
   21.9946   -6.8116  -13.1642 O   0  0  0  0  0  0  0  0  0  0  0  0
   20.0720   -6.2978  -14.2137 O   0  0  0  0  0  0  0  0  0  0  0  0
  2  1  1  6
  2  3  1  0
  3  4  1  0
  4  8  1  0
  5  4  2  0
  6  2  1  0
  7  6  2  0
 11 10  1  1
 10  9  1  0
 11 13  1  0
 11 12  1  0
 12  6  1  0
 13 14  2  0
 16 15  1  0
 17 16  1  6
 18 17  1  0
 18 13  1  0
 19 20  1  0
 19 17  1  0
 21 19  2  0
M  END
$$$$
