DSS.pdb
     RDKit          3D

 21 20  0  0  1  0  0  0  0  0999 V2000
   16.9913  -10.9937  -16.7464 N   0  0  0  0  0  0  0  0  0  0  0  0
   17.5933  -10.9737  -15.4417 C   0  0  1  0  0  0  0  0  0  0  0  0
   18.7537  -11.9499  -15.4725 C   0  0  0  0  0  0  0  0  0  0  0  0
   18.1905  -13.3050  -15.5996 C   0  0  0  0  0  0  0  0  0  0  0  0
   17.2657  -13.6675  -14.8521 O   0  0  0  0  0  0  0  0  0  0  0  0
   18.0241   -9.6182  -15.0161 C   0  0  0  0  0  0  0  0  0  0  0  0
   18.6967   -8.9511  -15.8369 O   0  0  0  0  0  0  0  0  0  0  0  0
   18.6860  -14.1712  -16.5443 O   0  0  0  0  0  0  0  0  0  0  0  0
   18.0506   -8.1187  -10.8892 O   0  0  0  0  0  0  0  0  0  0  0  0
   17.4783   -7.4337  -11.9469 C   0  0  0  0  0  0  0  0  0  0  0  0
   18.0532   -7.7484  -13.2886 C   0  0  2  0  0  0  0  0  0  0  0  0
   17.7066   -9.0716  -13.7466 N   0  0  0  0  0  0  0  0  0  0  0  0
   19.4999   -7.4678  -13.4117 C   0  0  0  0  0  0  0  0  0  0  0  0
   20.3500   -8.3223  -13.0530 O   0  0  0  0  0  0  0  0  0  0  0  0
   21.1035   -5.0583  -16.1581 O   0  0  0  0  0  0  0  0  0  0  0  0
   21.8277   -6.0435  -15.4977 C   0  0  0  0  0  0  0  0  0  0  0  0
   21.4762   -6.0422  -14.0026 C   0  0  2  0  0  0  0  0  0  0  0  0
   20.0450   -6.2609  -13.9247 N   0  0  0  0  0  0  0  0  0  0  0  0
   21.7689   -4.7057  -13.4411 C   0  0  0  0  0  0  0  0  0  0  0  0
   20.7836   -3.8062  -13.0452 O   0  0  0  0  0  0  0  0  0  0  0  0
   22.9583   -4.3243  -13.2981 O   0  0  0  0  0  0  0  0  0  0  0  0
  2  1  1  6
  2  3  1  0
  3  4  1  0
  4  8  1  0
  5  4  2  0
  6  2  1  0
  7  6  2  0
 11 10  1  1
 10  9  1  0
 11 13  1  0
 11 12  1  0
 12  6  1  0
 13 14  2  0
 16 15  1  0
 17 16  1  6
 18 17  1  0
 18 13  1  0
 19 20  1  0
 19 17  1  0
 21 19  2  0
M  END
$$$$
