DSS.pdb
     RDKit          3D

 21 20  0  0  1  0  0  0  0  0999 V2000
   19.1214  -12.3320  -16.8348 N   0  0  0  0  0  0  0  0  0  0  0  0
   18.3631  -11.1821  -16.4252 C   0  0  1  0  0  0  0  0  0  0  0  0
   17.8864  -11.4452  -15.0096 C   0  0  0  0  0  0  0  0  0  0  0  0
   16.9489  -12.5801  -15.0607 C   0  0  0  0  0  0  0  0  0  0  0  0
   15.8662  -12.4667  -15.6609 O   0  0  0  0  0  0  0  0  0  0  0  0
   19.1260   -9.9122  -16.5232 C   0  0  0  0  0  0  0  0  0  0  0  0
   20.2989   -9.9176  -16.0810 O   0  0  0  0  0  0  0  0  0  0  0  0
   17.2688  -13.7663  -14.4452 O   0  0  0  0  0  0  0  0  0  0  0  0
   17.2787   -6.1064  -17.5490 O   0  0  0  0  0  0  0  0  0  0  0  0
   18.5178   -6.4794  -18.0397 C   0  0  0  0  0  0  0  0  0  0  0  0
   19.2625   -7.4605  -17.1955 C   0  0  2  0  0  0  0  0  0  0  0  0
   18.5837   -8.7286  -17.0855 N   0  0  0  0  0  0  0  0  0  0  0  0
   19.6907   -6.9320  -15.8825 C   0  0  0  0  0  0  0  0  0  0  0  0
   19.1506   -7.3390  -14.8221 O   0  0  0  0  0  0  0  0  0  0  0  0
   22.3663   -6.3673  -12.5085 O   0  0  0  0  0  0  0  0  0  0  0  0
   21.8341   -6.7283  -13.7404 C   0  0  0  0  0  0  0  0  0  0  0  0
   21.1228   -5.5262  -14.3791 C   0  0  2  0  0  0  0  0  0  0  0  0
   20.7080   -5.9581  -15.6996 N   0  0  0  0  0  0  0  0  0  0  0  0
   22.0941   -4.4226  -14.5398 C   0  0  0  0  0  0  0  0  0  0  0  0
   22.4647   -3.5687  -13.5053 O   0  0  0  0  0  0  0  0  0  0  0  0
   22.6358   -4.2117  -15.6546 O   0  0  0  0  0  0  0  0  0  0  0  0
  2  1  1  1
  2  3  1  0
  3  4  1  0
  4  8  1  0
  5  4  2  0
  6  2  1  0
  7  6  2  0
 11 10  1  1
 10  9  1  0
 11 13  1  0
 11 12  1  0
 12  6  1  0
 13 14  2  0
 16 15  1  0
 17 16  1  6
 18 17  1  0
 18 13  1  0
 19 20  1  0
 19 17  1  0
 21 19  2  0
M  END
$$$$
