DSS.pdb
     RDKit          3D

 21 20  0  0  1  0  0  0  0  0999 V2000
   19.0804  -11.3586  -18.2107 N   0  0  0  0  0  0  0  0  0  0  0  0
   20.2045  -10.8919  -17.4469 C   0  0  1  0  0  0  0  0  0  0  0  0
   21.3366  -10.6472  -18.4261 C   0  0  0  0  0  0  0  0  0  0  0  0
   21.9396  -11.9532  -18.7428 C   0  0  0  0  0  0  0  0  0  0  0  0
   22.7109  -12.0644  -19.7113 O   0  0  0  0  0  0  0  0  0  0  0  0
   19.9027   -9.6832  -16.6394 C   0  0  0  0  0  0  0  0  0  0  0  0
   19.3686   -8.7190  -17.2363 O   0  0  0  0  0  0  0  0  0  0  0  0
   21.6510  -13.0512  -17.9686 O   0  0  0  0  0  0  0  0  0  0  0  0
   18.9678   -9.6243  -12.5196 O   0  0  0  0  0  0  0  0  0  0  0  0
   19.9723   -8.7795  -12.9586 C   0  0  0  0  0  0  0  0  0  0  0  0
   19.9275   -8.4473  -14.4138 C   0  0  2  0  0  0  0  0  0  0  0  0
   20.1919   -9.5895  -15.2542 N   0  0  0  0  0  0  0  0  0  0  0  0
   20.7329   -7.2667  -14.7936 C   0  0  0  0  0  0  0  0  0  0  0  0
   21.9000   -7.4057  -15.2410 O   0  0  0  0  0  0  0  0  0  0  0  0
   21.0041   -2.4314  -15.3375 O   0  0  0  0  0  0  0  0  0  0  0  0
   20.2466   -3.5635  -15.0624 C   0  0  0  0  0  0  0  0  0  0  0  0
   21.1499   -4.8051  -15.0248 C   0  0  2  0  0  0  0  0  0  0  0  0
   20.2864   -5.9222  -14.6951 N   0  0  0  0  0  0  0  0  0  0  0  0
   22.1368   -4.6487  -13.9345 C   0  0  0  0  0  0  0  0  0  0  0  0
   21.9929   -5.2310  -12.6787 O   0  0  0  0  0  0  0  0  0  0  0  0
   23.1740   -3.9607  -14.1116 O   0  0  0  0  0  0  0  0  0  0  0  0
  2  1  1  6
  2  3  1  0
  3  4  1  0
  4  8  1  0
  5  4  2  0
  6  2  1  0
  7  6  2  0
 11 10  1  1
 10  9  1  0
 11 13  1  0
 11 12  1  0
 12  6  1  0
 13 14  2  0
 16 15  1  0
 17 16  1  1
 18 17  1  0
 18 13  1  0
 19 20  1  0
 19 17  1  0
 21 19  2  0
M  END
$$$$
