DSS.pdb
     RDKit          3D

 21 20  0  0  1  0  0  0  0  0999 V2000
   16.6903  -11.3134  -15.1119 N   0  0  0  0  0  0  0  0  0  0  0  0
   18.1002  -11.3226  -15.3894 C   0  0  1  0  0  0  0  0  0  0  0  0
   18.3169  -12.2635  -16.5591 C   0  0  0  0  0  0  0  0  0  0  0  0
   17.8889  -13.6070  -16.1332 C   0  0  0  0  0  0  0  0  0  0  0  0
   18.7366  -14.4585  -15.8142 O   0  0  0  0  0  0  0  0  0  0  0  0
   18.6530   -9.9713  -15.6588 C   0  0  0  0  0  0  0  0  0  0  0  0
   19.8626   -9.9053  -15.9805 O   0  0  0  0  0  0  0  0  0  0  0  0
   16.5522  -13.9221  -16.0877 O   0  0  0  0  0  0  0  0  0  0  0  0
   17.6262   -5.1757  -16.2739 O   0  0  0  0  0  0  0  0  0  0  0  0
   17.2400   -6.4969  -16.1305 C   0  0  0  0  0  0  0  0  0  0  0  0
   18.3480   -7.4490  -15.8210 C   0  0  2  0  0  0  0  0  0  0  0  0
   17.8765   -8.7882  -15.5660 N   0  0  0  0  0  0  0  0  0  0  0  0
   19.2877   -6.9726  -14.7833 C   0  0  0  0  0  0  0  0  0  0  0  0
   19.0118   -7.1009  -13.5631 O   0  0  0  0  0  0  0  0  0  0  0  0
   23.2327   -6.1848  -15.5116 O   0  0  0  0  0  0  0  0  0  0  0  0
   22.7768   -6.5319  -14.2456 C   0  0  0  0  0  0  0  0  0  0  0  0
   21.4050   -5.8917  -13.9862 C   0  0  2  0  0  0  0  0  0  0  0  0
   20.5369   -6.3528  -15.0520 N   0  0  0  0  0  0  0  0  0  0  0  0
   21.5313   -4.4224  -14.0986 C   0  0  0  0  0  0  0  0  0  0  0  0
   22.1733   -3.6318  -13.1503 O   0  0  0  0  0  0  0  0  0  0  0  0
   21.0461   -3.8180  -15.0884 O   0  0  0  0  0  0  0  0  0  0  0  0
  2  1  1  6
  2  3  1  0
  3  4  1  0
  4  8  1  0
  5  4  2  0
  6  2  1  0
  7  6  2  0
 11 10  1  1
 10  9  1  0
 11 13  1  0
 11 12  1  0
 12  6  1  0
 13 14  2  0
 16 15  1  0
 17 16  1  6
 18 17  1  0
 18 13  1  0
 19 20  1  0
 19 17  1  0
 21 19  2  0
M  END
$$$$
