DSS.pdb
     RDKit          3D

 21 20  0  0  1  0  0  0  0  0999 V2000
   16.5506   -9.6171  -10.9888 N   0  0  0  0  0  0  0  0  0  0  0  0
   17.1497   -9.6625  -12.2941 C   0  0  1  0  0  0  0  0  0  0  0  0
   16.1063   -9.1718  -13.2795 C   0  0  0  0  0  0  0  0  0  0  0  0
   15.0108  -10.1563  -13.2929 C   0  0  0  0  0  0  0  0  0  0  0  0
   15.2637  -11.3677  -13.4109 O   0  0  0  0  0  0  0  0  0  0  0  0
   18.4083   -8.8807  -12.3885 C   0  0  0  0  0  0  0  0  0  0  0  0
   18.4439   -7.7846  -11.7815 O   0  0  0  0  0  0  0  0  0  0  0  0
   13.7072   -9.7379  -13.1752 O   0  0  0  0  0  0  0  0  0  0  0  0
   21.7602  -10.3584  -14.6361 O   0  0  0  0  0  0  0  0  0  0  0  0
   21.9343   -9.4877  -13.5744 C   0  0  0  0  0  0  0  0  0  0  0  0
   20.7711   -8.5949  -13.2923 C   0  0  2  0  0  0  0  0  0  0  0  0
   19.5378   -9.3237  -13.1227 N   0  0  0  0  0  0  0  0  0  0  0  0
   20.6335   -7.4600  -14.2303 C   0  0  0  0  0  0  0  0  0  0  0  0
   19.8948   -7.5538  -15.2438 O   0  0  0  0  0  0  0  0  0  0  0  0
   19.8784   -3.8973  -13.5106 O   0  0  0  0  0  0  0  0  0  0  0  0
   19.8516   -4.4414  -14.7890 C   0  0  0  0  0  0  0  0  0  0  0  0
   21.1748   -5.1644  -15.0812 C   0  0  2  0  0  0  0  0  0  0  0  0
   21.2917   -6.2102  -14.0838 N   0  0  0  0  0  0  0  0  0  0  0  0
   22.2934   -4.2165  -14.8876 C   0  0  0  0  0  0  0  0  0  0  0  0
   22.5197   -3.1169  -15.7100 O   0  0  0  0  0  0  0  0  0  0  0  0
   23.1052   -4.3782  -13.9413 O   0  0  0  0  0  0  0  0  0  0  0  0
  2  1  1  1
  2  3  1  0
  3  4  1  0
  4  8  1  0
  5  4  2  0
  6  2  1  0
  7  6  2  0
 11 10  1  6
 10  9  1  0
 11 13  1  0
 11 12  1  0
 12  6  1  0
 13 14  2  0
 16 15  1  0
 17 16  1  1
 18 17  1  0
 18 13  1  0
 19 20  1  0
 19 17  1  0
 21 19  2  0
M  END
$$$$
