DSS.pdb
     RDKit          3D

 21 20  0  0  1  0  0  0  0  0999 V2000
   17.6838   -9.2759  -14.5270 N   0  0  0  0  0  0  0  0  0  0  0  0
   18.0419   -7.9274  -14.1829 C   0  0  1  0  0  0  0  0  0  0  0  0
   17.8171   -7.0785  -15.4196 C   0  0  0  0  0  0  0  0  0  0  0  0
   18.8587   -7.4351  -16.3980 C   0  0  0  0  0  0  0  0  0  0  0  0
   20.0538   -7.2011  -16.1483 O   0  0  0  0  0  0  0  0  0  0  0  0
   17.2952   -7.4039  -13.0113 C   0  0  0  0  0  0  0  0  0  0  0  0
   16.0498   -7.5452  -13.0211 O   0  0  0  0  0  0  0  0  0  0  0  0
   18.5119   -8.0269  -17.5887 O   0  0  0  0  0  0  0  0  0  0  0  0
   17.6134   -5.4376   -8.4853 O   0  0  0  0  0  0  0  0  0  0  0  0
   18.1975   -5.9846   -9.6144 C   0  0  0  0  0  0  0  0  0  0  0  0
   17.2645   -6.2244  -10.7554 C   0  0  2  0  0  0  0  0  0  0  0  0
   17.9299   -6.7678  -11.9142 N   0  0  0  0  0  0  0  0  0  0  0  0
   16.4006   -5.0712  -11.0878 C   0  0  0  0  0  0  0  0  0  0  0  0
   16.8176   -4.1562  -11.8431 O   0  0  0  0  0  0  0  0  0  0  0  0
   12.1071   -3.1920  -11.7946 O   0  0  0  0  0  0  0  0  0  0  0  0
   12.9384   -4.2537  -11.4586 C   0  0  0  0  0  0  0  0  0  0  0  0
   14.2893   -3.7253  -10.9539 C   0  0  2  0  0  0  0  0  0  0  0  0
   15.0756   -4.8935  -10.6085 N   0  0  0  0  0  0  0  0  0  0  0  0
   14.0676   -2.9388   -9.7212 C   0  0  0  0  0  0  0  0  0  0  0  0
   13.6578   -1.6089   -9.7217 O   0  0  0  0  0  0  0  0  0  0  0  0
   14.2483   -3.4634   -8.5930 O   0  0  0  0  0  0  0  0  0  0  0  0
  2  1  1  6
  2  3  1  0
  3  4  1  0
  4  8  1  0
  5  4  2  0
  6  2  1  0
  7  6  2  0
 11 10  1  1
 10  9  1  0
 11 13  1  0
 11 12  1  0
 12  6  1  0
 13 14  2  0
 16 15  1  0
 17 16  1  1
 18 17  1  0
 18 13  1  0
 19 20  1  0
 19 17  1  0
 21 19  2  0
M  END
$$$$
