DSS.pdb
     RDKit          3D

 21 20  0  0  1  0  0  0  0  0999 V2000
   17.4468  -11.3259  -16.8226 N   0  0  0  0  0  0  0  0  0  0  0  0
   17.1119  -10.4748  -15.7142 C   0  0  1  0  0  0  0  0  0  0  0  0
   17.4892  -11.2226  -14.4497 C   0  0  0  0  0  0  0  0  0  0  0  0
   16.4459  -12.2327  -14.2034 C   0  0  0  0  0  0  0  0  0  0  0  0
   16.6773  -13.1966  -13.4532 O   0  0  0  0  0  0  0  0  0  0  0  0
   17.7623   -9.1419  -15.7817 C   0  0  0  0  0  0  0  0  0  0  0  0
   19.0062   -9.1230  -15.9354 O   0  0  0  0  0  0  0  0  0  0  0  0
   15.2150  -12.1120  -14.8021 O   0  0  0  0  0  0  0  0  0  0  0  0
   17.0449   -4.2483  -15.9973 O   0  0  0  0  0  0  0  0  0  0  0  0
   16.5592   -5.5345  -15.8385 C   0  0  0  0  0  0  0  0  0  0  0  0
   17.6026   -6.6011  -15.7792 C   0  0  2  0  0  0  0  0  0  0  0  0
   17.0400   -7.9257  -15.6806 N   0  0  0  0  0  0  0  0  0  0  0  0
   18.6626   -6.3604  -14.7765 C   0  0  0  0  0  0  0  0  0  0  0  0
   18.5012   -6.7087  -13.5789 O   0  0  0  0  0  0  0  0  0  0  0  0
   23.2641   -6.0704  -13.7370 O   0  0  0  0  0  0  0  0  0  0  0  0
   22.1955   -6.2613  -14.6047 C   0  0  0  0  0  0  0  0  0  0  0  0
   20.9332   -5.5929  -14.0402 C   0  0  2  0  0  0  0  0  0  0  0  0
   19.9097   -5.7413  -15.0564 N   0  0  0  0  0  0  0  0  0  0  0  0
   21.1946   -4.1487  -13.8577 C   0  0  0  0  0  0  0  0  0  0  0  0
   21.8283   -3.6182  -12.7380 O   0  0  0  0  0  0  0  0  0  0  0  0
   20.8409   -3.3239  -14.7380 O   0  0  0  0  0  0  0  0  0  0  0  0
  2  1  1  6
  2  3  1  0
  3  4  1  0
  4  8  1  0
  5  4  2  0
  6  2  1  0
  7  6  2  0
 11 10  1  1
 10  9  1  0
 11 13  1  0
 11 12  1  0
 12  6  1  0
 13 14  2  0
 16 15  1  0
 17 16  1  6
 18 17  1  0
 18 13  1  0
 19 20  1  0
 19 17  1  0
 21 19  2  0
M  END
$$$$
