DSS.pdb
     RDKit          3D

 21 20  0  0  1  0  0  0  0  0999 V2000
   21.0636  -21.5933  -15.1753 N   0  0  0  0  0  0  0  0  0  0  0  0
   20.7308  -20.4286  -14.4022 C   0  0  1  0  0  0  0  0  0  0  0  0
   20.6539  -20.8649  -12.9517 C   0  0  0  0  0  0  0  0  0  0  0  0
   19.5156  -21.7913  -12.8266 C   0  0  0  0  0  0  0  0  0  0  0  0
   19.6298  -22.9717  -13.1994 O   0  0  0  0  0  0  0  0  0  0  0  0
   21.6858  -19.3077  -14.5912 C   0  0  0  0  0  0  0  0  0  0  0  0
   21.4974  -18.2775  -13.9023 O   0  0  0  0  0  0  0  0  0  0  0  0
   18.3255  -21.3530  -12.2979 O   0  0  0  0  0  0  0  0  0  0  0  0
   25.9232  -17.7592  -16.5465 O   0  0  0  0  0  0  0  0  0  0  0  0
   24.9701  -18.7478  -16.3739 C   0  0  0  0  0  0  0  0  0  0  0  0
   23.6676  -18.2789  -15.8141 C   0  0  2  0  0  0  0  0  0  0  0  0
   22.7726  -19.3658  -15.5003 N   0  0  0  0  0  0  0  0  0  0  0  0
   23.0117  -17.2166  -16.6067 C   0  0  0  0  0  0  0  0  0  0  0  0
   22.0005  -17.4742  -17.3085 O   0  0  0  0  0  0  0  0  0  0  0  0
   21.0477  -13.1830  -17.0609 O   0  0  0  0  0  0  0  0  0  0  0  0
   21.6624  -14.2803  -16.4698 C   0  0  0  0  0  0  0  0  0  0  0  0
   22.7256  -14.8601  -17.4144 C   0  0  2  0  0  0  0  0  0  0  0  0
   23.4404  -15.8633  -16.6495 N   0  0  0  0  0  0  0  0  0  0  0  0
   23.6808  -13.7909  -17.7772 C   0  0  0  0  0  0  0  0  0  0  0  0
   23.4014  -12.7944  -18.7075 O   0  0  0  0  0  0  0  0  0  0  0  0
   24.8160  -13.7451  -17.2389 O   0  0  0  0  0  0  0  0  0  0  0  0
  2  1  1  6
  2  3  1  0
  3  4  1  0
  4  8  1  0
  5  4  2  0
  6  2  1  0
  7  6  2  0
 11 10  1  6
 10  9  1  0
 11 13  1  0
 11 12  1  0
 12  6  1  0
 13 14  2  0
 16 15  1  0
 17 16  1  1
 18 17  1  0
 18 13  1  0
 19 20  1  0
 19 17  1  0
 21 19  2  0
M  END
$$$$
