DSS.pdb
     RDKit          3D

 21 20  0  0  1  0  0  0  0  0999 V2000
   15.6989   -9.1739   -9.4863 N   0  0  0  0  0  0  0  0  0  0  0  0
   15.3782   -9.1835  -10.8870 C   0  0  1  0  0  0  0  0  0  0  0  0
   13.9392   -8.7225  -11.0168 C   0  0  0  0  0  0  0  0  0  0  0  0
   13.0921   -9.7137  -10.3316 C   0  0  0  0  0  0  0  0  0  0  0  0
   13.2135  -10.9231  -10.5925 O   0  0  0  0  0  0  0  0  0  0  0  0
   16.2990   -8.3539  -11.7045 C   0  0  0  0  0  0  0  0  0  0  0  0
   16.6600   -7.2567  -11.2176 O   0  0  0  0  0  0  0  0  0  0  0  0
   12.1659   -9.3039   -9.4029 O   0  0  0  0  0  0  0  0  0  0  0  0
   19.1971   -9.8623  -14.2223 O   0  0  0  0  0  0  0  0  0  0  0  0
   18.4090   -8.8760  -14.7893 C   0  0  0  0  0  0  0  0  0  0  0  0
   17.6819   -8.0098  -13.8141 C   0  0  2  0  0  0  0  0  0  0  0  0
   16.7686   -8.7538  -12.9815 N   0  0  0  0  0  0  0  0  0  0  0  0
   17.0540   -6.8127  -14.4137 C   0  0  0  0  0  0  0  0  0  0  0  0
   15.9312   -6.8924  -14.9746 O   0  0  0  0  0  0  0  0  0  0  0  0
   17.0237   -3.1704  -13.0408 O   0  0  0  0  0  0  0  0  0  0  0  0
   16.1854   -3.6531  -14.0385 C   0  0  0  0  0  0  0  0  0  0  0  0
   17.0062   -4.4013  -15.0993 C   0  0  2  0  0  0  0  0  0  0  0  0
   17.6315   -5.5153  -14.4135 N   0  0  0  0  0  0  0  0  0  0  0  0
   18.0751   -3.5090  -15.5976 C   0  0  0  0  0  0  0  0  0  0  0  0
   17.8290   -2.3358  -16.3046 O   0  0  0  0  0  0  0  0  0  0  0  0
   19.2831   -3.7902  -15.3924 O   0  0  0  0  0  0  0  0  0  0  0  0
  2  1  1  1
  2  3  1  0
  3  4  1  0
  4  8  1  0
  5  4  2  0
  6  2  1  0
  7  6  2  0
 11 10  1  6
 10  9  1  0
 11 13  1  0
 11 12  1  0
 12  6  1  0
 13 14  2  0
 16 15  1  0
 17 16  1  1
 18 17  1  0
 18 13  1  0
 19 20  1  0
 19 17  1  0
 21 19  2  0
M  END
$$$$
