VWK.pdb
     RDKit          3D

 31 32  0  0  1  0  0  0  0  0999 V2000
    9.1404  -16.6262   19.1367 C   0  0  0  0  0  0  0  0  0  0  0  0
    7.7808  -16.8989   19.7177 C   0  0  2  0  0  0  0  0  0  0  0  0
    6.7781  -17.3149   18.6685 C   0  0  0  0  0  0  0  0  0  0  0  0
    7.2612  -15.7106   20.4860 C   0  0  2  0  0  0  0  0  0  0  0  0
    7.0619  -14.5920   19.6191 N   0  0  0  0  0  0  0  0  0  0  0  0
    8.1764  -15.3625   21.6075 C   0  0  0  0  0  0  0  0  0  0  0  0
    8.9552  -14.3770   21.5582 O   0  0  0  0  0  0  0  0  0  0  0  0
    8.1645  -16.1736   22.7657 N   0  0  0  0  0  0  0  0  0  0  0  0
    9.1311  -15.9011   23.8615 C   0  0  1  0  0  0  0  0  0  0  0  0
    8.3876  -16.1626   25.1130 C   0  0  0  0  0  0  0  0  0  0  0  0
    7.2911  -15.2670   25.4754 C   0  0  0  0  0  0  0  0  0  0  0  0
    5.9201  -15.5439   25.4837 C   0  0  0  0  0  0  0  0  0  0  0  0
    5.2816  -14.4337   25.8799 N   0  0  0  0  0  0  0  0  0  0  0  0
    6.1650  -13.4486   26.1302 C   0  0  0  0  0  0  0  0  0  0  0  0
    6.0743  -12.1440   26.5636 C   0  0  0  0  0  0  0  0  0  0  0  0
    7.1809  -11.3336   26.7562 C   0  0  0  0  0  0  0  0  0  0  0  0
    8.4355  -11.8608   26.5010 C   0  0  0  0  0  0  0  0  0  0  0  0
    8.5529  -13.1459   26.0722 C   0  0  0  0  0  0  0  0  0  0  0  0
    7.4321  -13.9554   25.8807 C   0  0  0  0  0  0  0  0  0  0  0  0
   10.3862  -16.5812   23.6227 C   0  0  0  0  0  0  0  0  0  0  0  0
   10.3347  -17.8036   23.2481 O   0  0  0  0  0  0  0  0  0  0  0  0
   11.6444  -15.9597   23.7738 N   0  0  0  0  0  0  0  0  0  0  0  0
   12.8479  -16.8621   23.5491 C   0  0  1  0  0  0  0  0  0  0  0  0
   13.9241  -15.8812   23.1727 C   0  0  0  0  0  0  0  0  0  0  0  0
   15.3226  -16.2749   23.0113 C   0  0  0  0  0  0  0  0  0  0  0  0
   15.8724  -16.3943   21.6497 C   0  0  0  0  0  0  0  0  0  0  0  0
   17.3073  -16.9641   21.6818 C   0  0  0  0  0  0  0  0  0  0  0  0
   17.8030  -17.1823   20.3549 N   0  0  0  0  0  0  0  0  0  0  0  0
   13.0084  -17.4953   24.8649 C   0  0  0  0  0  0  0  0  0  0  0  0
   13.7033  -18.5113   25.0805 O   0  0  0  0  0  0  0  0  0  0  0  0
   12.3647  -16.9669   25.9963 O   0  0  0  0  0  0  0  0  0  0  0  0
  2  1  1  6
  2  3  1  0
  4  2  1  0
  4  5  1  6
  6  4  1  0
  6  7  2  0
  8  6  1  0
  9  8  1  0
  9 10  1  1
 10 11  1  0
 11 19  1  0
 11 12  2  0
 12 13  1  0
 14 15  2  0
 14 13  1  0
 16 15  1  0
 17 16  2  0
 18 17  1  0
 18 19  2  0
 19 14  1  0
 20  9  1  0
 21 20  2  0
 22 20  1  0
 23 24  1  1
 23 22  1  0
 24 25  1  0
 25 26  1  0
 26 27  1  0
 27 28  1  0
 29 23  1  0
 30 29  2  0
 31 29  1  0
M  END
$$$$
