VWK.pdb
     RDKit          3D

 31 32  0  0  1  0  0  0  0  0999 V2000
    8.5545  -17.7218   19.2042 C   0  0  0  0  0  0  0  0  0  0  0  0
    7.3730  -17.9998   20.0915 C   0  0  2  0  0  0  0  0  0  0  0  0
    6.2222  -18.6248   19.3404 C   0  0  0  0  0  0  0  0  0  0  0  0
    6.9102  -16.7525   20.8002 C   0  0  2  0  0  0  0  0  0  0  0  0
    6.4622  -15.7713   19.8626 N   0  0  0  0  0  0  0  0  0  0  0  0
    7.9866  -16.2076   21.6725 C   0  0  0  0  0  0  0  0  0  0  0  0
    8.6906  -15.2223   21.3351 O   0  0  0  0  0  0  0  0  0  0  0  0
    8.2204  -16.8251   22.9228 N   0  0  0  0  0  0  0  0  0  0  0  0
    9.2556  -16.2692   23.8330 C   0  0  1  0  0  0  0  0  0  0  0  0
    8.6394  -16.2770   25.1775 C   0  0  0  0  0  0  0  0  0  0  0  0
    7.5502  -15.3425   25.4533 C   0  0  0  0  0  0  0  0  0  0  0  0
    6.1752  -15.5984   25.4521 C   0  0  0  0  0  0  0  0  0  0  0  0
    5.5465  -14.4540   25.7562 N   0  0  0  0  0  0  0  0  0  0  0  0
    6.4402  -13.4667   25.9557 C   0  0  0  0  0  0  0  0  0  0  0  0
    6.3615  -12.1337   26.2951 C   0  0  0  0  0  0  0  0  0  0  0  0
    7.4767  -11.3278   26.4540 C   0  0  0  0  0  0  0  0  0  0  0  0
    8.7277  -11.8896   26.2626 C   0  0  0  0  0  0  0  0  0  0  0  0
    8.8333  -13.2032   25.9272 C   0  0  0  0  0  0  0  0  0  0  0  0
    7.7039  -14.0079   25.7690 C   0  0  0  0  0  0  0  0  0  0  0  0
   10.5286  -16.9267   23.6285 C   0  0  0  0  0  0  0  0  0  0  0  0
   10.5154  -18.1887   23.4173 O   0  0  0  0  0  0  0  0  0  0  0  0
   11.7637  -16.2438   23.6422 N   0  0  0  0  0  0  0  0  0  0  0  0
   12.9944  -17.1193   23.4622 C   0  0  1  0  0  0  0  0  0  0  0  0
   14.0252  -16.1361   22.9799 C   0  0  0  0  0  0  0  0  0  0  0  0
   15.3535  -16.5493   22.5310 C   0  0  0  0  0  0  0  0  0  0  0  0
   16.0794  -15.6893   21.5801 C   0  0  0  0  0  0  0  0  0  0  0  0
   17.5012  -16.2324   21.3190 C   0  0  0  0  0  0  0  0  0  0  0  0
   18.2814  -15.2907   20.5717 N   0  0  0  0  0  0  0  0  0  0  0  0
   13.2070  -17.6353   24.8210 C   0  0  0  0  0  0  0  0  0  0  0  0
   12.8514  -18.7682   25.2107 O   0  0  0  0  0  0  0  0  0  0  0  0
   13.8510  -16.8502   25.7918 O   0  0  0  0  0  0  0  0  0  0  0  0
  2  1  1  6
  2  3  1  0
  4  2  1  0
  4  5  1  6
  6  4  1  0
  6  7  2  0
  8  6  1  0
  9  8  1  0
  9 10  1  1
 10 11  1  0
 11 19  1  0
 11 12  2  0
 12 13  1  0
 14 15  2  0
 14 13  1  0
 16 15  1  0
 17 16  2  0
 18 17  1  0
 18 19  2  0
 19 14  1  0
 20  9  1  0
 21 20  2  0
 22 20  1  0
 23 24  1  1
 23 22  1  0
 24 25  1  0
 25 26  1  0
 26 27  1  0
 27 28  1  0
 29 23  1  0
 30 29  2  0
 31 29  1  0
M  END
$$$$
