VWK.pdb
     RDKit          3D

 31 32  0  0  1  0  0  0  0  0999 V2000
    7.0892  -13.7407   19.0318 C   0  0  0  0  0  0  0  0  0  0  0  0
    8.0333  -14.0777   20.1523 C   0  0  2  0  0  0  0  0  0  0  0  0
    9.3611  -14.5935   19.6522 C   0  0  0  0  0  0  0  0  0  0  0  0
    7.4216  -15.0689   21.1092 C   0  0  2  0  0  0  0  0  0  0  0  0
    6.0515  -14.7514   21.3635 N   0  0  0  0  0  0  0  0  0  0  0  0
    8.2005  -15.1330   22.3764 C   0  0  0  0  0  0  0  0  0  0  0  0
    8.8174  -14.1392   22.8370 O   0  0  0  0  0  0  0  0  0  0  0  0
    8.2442  -16.3580   23.0812 N   0  0  0  0  0  0  0  0  0  0  0  0
    9.0214  -16.4495   24.3449 C   0  0  1  0  0  0  0  0  0  0  0  0
    8.0108  -16.4825   25.4243 C   0  0  0  0  0  0  0  0  0  0  0  0
    7.2049  -15.2873   25.6647 C   0  0  0  0  0  0  0  0  0  0  0  0
    5.8263  -15.1289   25.4895 C   0  0  0  0  0  0  0  0  0  0  0  0
    5.5137  -13.8699   25.8278 N   0  0  0  0  0  0  0  0  0  0  0  0
    6.6163  -13.2005   26.2143 C   0  0  0  0  0  0  0  0  0  0  0  0
    6.8749  -11.9245   26.6649 C   0  0  0  0  0  0  0  0  0  0  0  0
    8.1419  -11.4908   27.0186 C   0  0  0  0  0  0  0  0  0  0  0  0
    9.1961  -12.3824   26.9139 C   0  0  0  0  0  0  0  0  0  0  0  0
    8.9680  -13.6480   26.4718 C   0  0  0  0  0  0  0  0  0  0  0  0
    7.6878  -14.0764   26.1174 C   0  0  0  0  0  0  0  0  0  0  0  0
   10.0134  -17.5004   24.2649 C   0  0  0  0  0  0  0  0  0  0  0  0
    9.6596  -18.6086   23.7322 O   0  0  0  0  0  0  0  0  0  0  0  0
   11.3367  -17.3531   24.7335 N   0  0  0  0  0  0  0  0  0  0  0  0
   12.2063  -18.5967   24.6311 C   0  0  1  0  0  0  0  0  0  0  0  0
   13.5887  -18.0175   24.5070 C   0  0  0  0  0  0  0  0  0  0  0  0
   14.6672  -18.7065   23.8006 C   0  0  0  0  0  0  0  0  0  0  0  0
   16.0131  -18.1073   23.8049 C   0  0  0  0  0  0  0  0  0  0  0  0
   17.0206  -19.0077   23.0573 C   0  0  0  0  0  0  0  0  0  0  0  0
   18.3335  -18.4333   23.0741 N   0  0  0  0  0  0  0  0  0  0  0  0
   11.9227  -19.2766   25.9020 C   0  0  0  0  0  0  0  0  0  0  0  0
   11.9986  -20.5119   26.0753 O   0  0  0  0  0  0  0  0  0  0  0  0
   11.5390  -18.5419   27.0363 O   0  0  0  0  0  0  0  0  0  0  0  0
  2  1  1  6
  2  3  1  0
  4  2  1  0
  4  5  1  1
  6  4  1  0
  6  7  2  0
  8  6  1  0
  9  8  1  0
  9 10  1  1
 10 11  1  0
 11 19  1  0
 11 12  2  0
 12 13  1  0
 14 15  2  0
 14 13  1  0
 16 15  1  0
 17 16  2  0
 18 17  1  0
 18 19  2  0
 19 14  1  0
 20  9  1  0
 21 20  2  0
 22 20  1  0
 23 24  1  1
 23 22  1  0
 24 25  1  0
 25 26  1  0
 26 27  1  0
 27 28  1  0
 29 23  1  0
 30 29  2  0
 31 29  1  0
M  END
$$$$
