VWK.pdb
     RDKit          3D

 31 32  0  0  1  0  0  0  0  0999 V2000
    8.9403  -18.1994   19.7104 C   0  0  0  0  0  0  0  0  0  0  0  0
    7.4983  -18.0699   20.1159 C   0  0  2  0  0  0  0  0  0  0  0  0
    6.5506  -18.3721   18.9803 C   0  0  0  0  0  0  0  0  0  0  0  0
    7.2057  -16.7042   20.6831 C   0  0  2  0  0  0  0  0  0  0  0  0
    7.3607  -15.6945   19.6836 N   0  0  0  0  0  0  0  0  0  0  0  0
    8.0670  -16.4248   21.8647 C   0  0  0  0  0  0  0  0  0  0  0  0
    9.1043  -15.7188   21.7883 O   0  0  0  0  0  0  0  0  0  0  0  0
    7.7000  -16.9765   23.1138 N   0  0  0  0  0  0  0  0  0  0  0  0
    8.6143  -16.8312   24.2767 C   0  0  1  0  0  0  0  0  0  0  0  0
    7.7338  -16.5757   25.4372 C   0  0  0  0  0  0  0  0  0  0  0  0
    7.0116  -15.3068   25.5013 C   0  0  0  0  0  0  0  0  0  0  0  0
    5.6899  -15.0485   25.1238 C   0  0  0  0  0  0  0  0  0  0  0  0
    5.4463  -13.7501   25.3518 N   0  0  0  0  0  0  0  0  0  0  0  0
    6.5400  -13.1497   25.8583 C   0  0  0  0  0  0  0  0  0  0  0  0
    6.8461  -11.8736   26.2781 C   0  0  0  0  0  0  0  0  0  0  0  0
    8.0856  -11.5230   26.7871 C   0  0  0  0  0  0  0  0  0  0  0  0
    9.0610  -12.5016   26.8778 C   0  0  0  0  0  0  0  0  0  0  0  0
    8.7848  -13.7692   26.4703 C   0  0  0  0  0  0  0  0  0  0  0  0
    7.5328  -14.1136   25.9583 C   0  0  0  0  0  0  0  0  0  0  0  0
    9.5613  -17.9246   24.3275 C   0  0  0  0  0  0  0  0  0  0  0  0
    9.1710  -19.0656   23.8997 O   0  0  0  0  0  0  0  0  0  0  0  0
   10.8795  -17.7850   24.8123 N   0  0  0  0  0  0  0  0  0  0  0  0
   11.7169  -19.0547   24.7977 C   0  0  1  0  0  0  0  0  0  0  0  0
   12.6977  -18.7848   23.6899 C   0  0  0  0  0  0  0  0  0  0  0  0
   13.7151  -19.7549   23.2895 C   0  0  0  0  0  0  0  0  0  0  0  0
   15.0471  -19.2633   22.8964 C   0  0  0  0  0  0  0  0  0  0  0  0
   16.0051  -20.4385   22.6038 C   0  0  0  0  0  0  0  0  0  0  0  0
   17.2844  -19.9619   22.1675 N   0  0  0  0  0  0  0  0  0  0  0  0
   12.2866  -19.0638   26.1517 C   0  0  0  0  0  0  0  0  0  0  0  0
   12.8854  -20.0356   26.6602 O   0  0  0  0  0  0  0  0  0  0  0  0
   12.1863  -17.9318   26.9777 O   0  0  0  0  0  0  0  0  0  0  0  0
  2  1  1  6
  2  3  1  0
  4  2  1  0
  4  5  1  6
  6  4  1  0
  6  7  2  0
  8  6  1  0
  9  8  1  0
  9 10  1  1
 10 11  1  0
 11 19  1  0
 11 12  2  0
 12 13  1  0
 14 15  2  0
 14 13  1  0
 16 15  1  0
 17 16  2  0
 18 17  1  0
 18 19  2  0
 19 14  1  0
 20  9  1  0
 21 20  2  0
 22 20  1  0
 23 24  1  6
 23 22  1  0
 24 25  1  0
 25 26  1  0
 26 27  1  0
 27 28  1  0
 29 23  1  0
 30 29  2  0
 31 29  1  0
M  END
$$$$
