VWK.pdb
     RDKit          3D

 31 32  0  0  1  0  0  0  0  0999 V2000
    7.0406  -13.3573   21.5490 C   0  0  0  0  0  0  0  0  0  0  0  0
    7.7501  -14.0235   20.4030 C   0  0  2  0  0  0  0  0  0  0  0  0
    6.9271  -14.0247   19.1375 C   0  0  0  0  0  0  0  0  0  0  0  0
    8.1615  -15.4310   20.7527 C   0  0  2  0  0  0  0  0  0  0  0  0
    7.0162  -16.2714   20.9096 N   0  0  0  0  0  0  0  0  0  0  0  0
    9.0094  -15.4474   21.9763 C   0  0  0  0  0  0  0  0  0  0  0  0
   10.0679  -14.7757   22.0694 O   0  0  0  0  0  0  0  0  0  0  0  0
    8.6043  -16.2493   23.0682 N   0  0  0  0  0  0  0  0  0  0  0  0
    9.4208  -16.2634   24.3102 C   0  0  1  0  0  0  0  0  0  0  0  0
    8.4443  -16.2356   25.4207 C   0  0  0  0  0  0  0  0  0  0  0  0
    7.4245  -15.1889   25.4293 C   0  0  0  0  0  0  0  0  0  0  0  0
    6.0872  -15.2865   25.0314 C   0  0  0  0  0  0  0  0  0  0  0  0
    5.5203  -14.0844   25.2065 N   0  0  0  0  0  0  0  0  0  0  0  0
    6.4181  -13.2094   25.6979 C   0  0  0  0  0  0  0  0  0  0  0  0
    6.3851  -11.8832   26.0700 C   0  0  0  0  0  0  0  0  0  0  0  0
    7.4870  -11.2130   26.5749 C   0  0  0  0  0  0  0  0  0  0  0  0
    8.6758  -11.9095   26.7115 C   0  0  0  0  0  0  0  0  0  0  0  0
    8.7354  -13.2195   26.3517 C   0  0  0  0  0  0  0  0  0  0  0  0
    7.6199  -13.8871   25.8435 C   0  0  0  0  0  0  0  0  0  0  0  0
   10.4151  -17.3141   24.2614 C   0  0  0  0  0  0  0  0  0  0  0  0
   10.0169  -18.4917   23.9582 O   0  0  0  0  0  0  0  0  0  0  0  0
   11.7853  -17.0959   24.5205 N   0  0  0  0  0  0  0  0  0  0  0  0
   12.6642  -18.3360   24.4658 C   0  0  1  0  0  0  0  0  0  0  0  0
   13.7752  -17.9069   23.5473 C   0  0  0  0  0  0  0  0  0  0  0  0
   14.5440  -16.6828   23.7648 C   0  0  0  0  0  0  0  0  0  0  0  0
   15.7336  -16.4358   22.9316 C   0  0  0  0  0  0  0  0  0  0  0  0
   16.4515  -15.1391   23.3648 C   0  0  0  0  0  0  0  0  0  0  0  0
   17.6401  -14.9274   22.5925 N   0  0  0  0  0  0  0  0  0  0  0  0
   13.0450  -18.5063   25.8743 C   0  0  0  0  0  0  0  0  0  0  0  0
   12.7245  -17.7222   26.7931 O   0  0  0  0  0  0  0  0  0  0  0  0
   13.8186  -19.6073   26.2781 O   0  0  0  0  0  0  0  0  0  0  0  0
  2  1  1  1
  2  3  1  0
  4  2  1  0
  4  5  1  1
  6  4  1  0
  6  7  2  0
  8  6  1  0
  9  8  1  0
  9 10  1  1
 10 11  1  0
 11 19  1  0
 11 12  2  0
 12 13  1  0
 14 15  2  0
 14 13  1  0
 16 15  1  0
 17 16  2  0
 18 17  1  0
 18 19  2  0
 19 14  1  0
 20  9  1  0
 21 20  2  0
 22 20  1  0
 23 24  1  6
 23 22  1  0
 24 25  1  0
 25 26  1  0
 26 27  1  0
 27 28  1  0
 29 23  1  0
 30 29  2  0
 31 29  1  0
M  END
$$$$
