VWK.pdb
     RDKit          3D

 31 32  0  0  1  0  0  0  0  0999 V2000
    9.8826  -18.7979   19.0153 C   0  0  0  0  0  0  0  0  0  0  0  0
    8.4509  -18.4108   18.7690 C   0  0  2  0  0  0  0  0  0  0  0  0
    7.9024  -19.0092   17.4961 C   0  0  0  0  0  0  0  0  0  0  0  0
    8.2800  -16.9132   18.7509 C   0  0  2  0  0  0  0  0  0  0  0  0
    9.0178  -16.3301   17.6747 N   0  0  0  0  0  0  0  0  0  0  0  0
    8.6769  -16.3181   20.0565 C   0  0  0  0  0  0  0  0  0  0  0  0
    9.8301  -15.8629   20.2648 O   0  0  0  0  0  0  0  0  0  0  0  0
    7.7184  -16.2668   21.0948 N   0  0  0  0  0  0  0  0  0  0  0  0
    8.1046  -15.7225   22.4230 C   0  0  1  0  0  0  0  0  0  0  0  0
    6.8289  -15.4373   23.1149 C   0  0  0  0  0  0  0  0  0  0  0  0
    6.8678  -15.0602   24.5263 C   0  0  0  0  0  0  0  0  0  0  0  0
    6.9250  -15.9026   25.6413 C   0  0  0  0  0  0  0  0  0  0  0  0
    6.9419  -15.1298   26.7366 N   0  0  0  0  0  0  0  0  0  0  0  0
    6.8993  -13.8285   26.3932 C   0  0  0  0  0  0  0  0  0  0  0  0
    6.9062  -12.6365   27.0841 C   0  0  0  0  0  0  0  0  0  0  0  0
    6.8685  -11.4011   26.4590 C   0  0  0  0  0  0  0  0  0  0  0  0
    6.8218  -11.3643   25.0756 C   0  0  0  0  0  0  0  0  0  0  0  0
    6.8140  -12.5264   24.3697 C   0  0  0  0  0  0  0  0  0  0  0  0
    6.8520  -13.7671   25.0079 C   0  0  0  0  0  0  0  0  0  0  0  0
    9.0877  -16.5713   23.0617 C   0  0  0  0  0  0  0  0  0  0  0  0
    8.9622  -17.8361   22.9147 O   0  0  0  0  0  0  0  0  0  0  0  0
   10.1677  -16.0700   23.8197 N   0  0  0  0  0  0  0  0  0  0  0  0
   11.1513  -17.1153   24.3228 C   0  0  1  0  0  0  0  0  0  0  0  0
   12.4503  -16.6567   23.7193 C   0  0  0  0  0  0  0  0  0  0  0  0
   13.7191  -17.3334   23.9815 C   0  0  0  0  0  0  0  0  0  0  0  0
   14.9421  -16.8192   23.3408 C   0  0  0  0  0  0  0  0  0  0  0  0
   16.1447  -17.7457   23.6233 C   0  0  0  0  0  0  0  0  0  0  0  0
   17.3424  -17.2277   23.0307 N   0  0  0  0  0  0  0  0  0  0  0  0
   11.0472  -16.9605   25.7799 C   0  0  0  0  0  0  0  0  0  0  0  0
   10.4649  -16.0134   26.3504 O   0  0  0  0  0  0  0  0  0  0  0  0
   11.6177  -17.9110   26.6428 O   0  0  0  0  0  0  0  0  0  0  0  0
  2  1  1  6
  2  3  1  0
  4  2  1  0
  4  5  1  6
  6  4  1  0
  6  7  2  0
  8  6  1  0
  9  8  1  0
  9 10  1  1
 10 11  1  0
 11 19  1  0
 11 12  2  0
 12 13  1  0
 14 15  2  0
 14 13  1  0
 16 15  1  0
 17 16  2  0
 18 17  1  0
 18 19  2  0
 19 14  1  0
 20  9  1  0
 21 20  2  0
 22 20  1  0
 23 24  1  6
 23 22  1  0
 24 25  1  0
 25 26  1  0
 26 27  1  0
 27 28  1  0
 29 23  1  0
 30 29  2  0
 31 29  1  0
M  END
$$$$
