VWK.pdb
     RDKit          3D

 31 32  0  0  1  0  0  0  0  0999 V2000
    7.6869  -18.3021   19.0324 C   0  0  0  0  0  0  0  0  0  0  0  0
    8.5693  -17.8995   20.1812 C   0  0  2  0  0  0  0  0  0  0  0  0
    9.0717  -19.0871   20.9663 C   0  0  0  0  0  0  0  0  0  0  0  0
    7.8697  -16.9313   21.1007 C   0  0  2  0  0  0  0  0  0  0  0  0
    7.4032  -15.7900   20.3779 N   0  0  0  0  0  0  0  0  0  0  0  0
    8.7607  -16.5271   22.2228 C   0  0  0  0  0  0  0  0  0  0  0  0
    9.6480  -15.6461   22.0925 O   0  0  0  0  0  0  0  0  0  0  0  0
    8.5984  -17.1609   23.4763 N   0  0  0  0  0  0  0  0  0  0  0  0
    9.4691  -16.7677   24.6150 C   0  0  1  0  0  0  0  0  0  0  0  0
    8.5545  -16.5890   25.7635 C   0  0  0  0  0  0  0  0  0  0  0  0
    7.4790  -15.6055   25.6548 C   0  0  0  0  0  0  0  0  0  0  0  0
    6.1254  -15.8358   25.3885 C   0  0  0  0  0  0  0  0  0  0  0  0
    5.5034  -14.6482   25.3780 N   0  0  0  0  0  0  0  0  0  0  0  0
    6.3810  -13.6570   25.6240 C   0  0  0  0  0  0  0  0  0  0  0  0
    6.2973  -12.2867   25.7410 C   0  0  0  0  0  0  0  0  0  0  0  0
    7.3908  -11.4847   26.0226 C   0  0  0  0  0  0  0  0  0  0  0  0
    8.6244  -12.0897   26.1943 C   0  0  0  0  0  0  0  0  0  0  0  0
    8.7344  -13.4405   26.0841 C   0  0  0  0  0  0  0  0  0  0  0  0
    7.6271  -14.2412   25.7998 C   0  0  0  0  0  0  0  0  0  0  0  0
   10.5973  -17.6662   24.7353 C   0  0  0  0  0  0  0  0  0  0  0  0
   10.3613  -18.9226   24.6810 O   0  0  0  0  0  0  0  0  0  0  0  0
   11.9271  -17.2217   24.8976 N   0  0  0  0  0  0  0  0  0  0  0  0
   12.9703  -18.3210   25.0270 C   0  0  1  0  0  0  0  0  0  0  0  0
   14.1223  -17.7713   24.2317 C   0  0  0  0  0  0  0  0  0  0  0  0
   15.0845  -16.8263   24.7954 C   0  0  0  0  0  0  0  0  0  0  0  0
   16.2078  -16.3735   23.9565 C   0  0  0  0  0  0  0  0  0  0  0  0
   17.1290  -15.4125   24.7390 C   0  0  0  0  0  0  0  0  0  0  0  0
   18.3259  -16.0783   25.1610 N   0  0  0  0  0  0  0  0  0  0  0  0
   13.1807  -18.3768   26.4798 C   0  0  0  0  0  0  0  0  0  0  0  0
   13.9065  -19.2142   27.0573 O   0  0  0  0  0  0  0  0  0  0  0  0
   12.5533  -17.4506   27.3296 O   0  0  0  0  0  0  0  0  0  0  0  0
  2  1  1  6
  2  3  1  0
  4  2  1  0
  4  5  1  6
  6  4  1  0
  6  7  2  0
  8  6  1  0
  9  8  1  0
  9 10  1  1
 10 11  1  0
 11 19  1  0
 11 12  2  0
 12 13  1  0
 14 15  2  0
 14 13  1  0
 16 15  1  0
 17 16  2  0
 18 17  1  0
 18 19  2  0
 19 14  1  0
 20  9  1  0
 21 20  2  0
 22 20  1  0
 23 24  1  6
 23 22  1  0
 24 25  1  0
 25 26  1  0
 26 27  1  0
 27 28  1  0
 29 23  1  0
 30 29  2  0
 31 29  1  0
M  END
$$$$
