VWK.pdb
     RDKit          3D

 31 32  0  0  1  0  0  0  0  0999 V2000
    6.5092  -13.4028   19.5127 C   0  0  0  0  0  0  0  0  0  0  0  0
    7.3745  -13.5517   20.7331 C   0  0  2  0  0  0  0  0  0  0  0  0
    8.4515  -12.4965   20.8087 C   0  0  0  0  0  0  0  0  0  0  0  0
    7.9914  -14.9252   20.8074 C   0  0  2  0  0  0  0  0  0  0  0  0
    6.9865  -15.9387   20.7321 N   0  0  0  0  0  0  0  0  0  0  0  0
    8.8098  -15.0732   22.0421 C   0  0  0  0  0  0  0  0  0  0  0  0
    9.7758  -14.3122   22.3033 O   0  0  0  0  0  0  0  0  0  0  0  0
    8.4841  -16.1085   22.9484 N   0  0  0  0  0  0  0  0  0  0  0  0
    9.2492  -16.2411   24.2159 C   0  0  1  0  0  0  0  0  0  0  0  0
    8.2279  -16.3385   25.2811 C   0  0  0  0  0  0  0  0  0  0  0  0
    7.3322  -15.2041   25.4973 C   0  0  0  0  0  0  0  0  0  0  0  0
    5.9476  -15.1518   25.3066 C   0  0  0  0  0  0  0  0  0  0  0  0
    5.5380  -13.9155   25.6245 N   0  0  0  0  0  0  0  0  0  0  0  0
    6.5832  -13.1604   26.0125 C   0  0  0  0  0  0  0  0  0  0  0  0
    6.7408  -11.8628   26.4481 C   0  0  0  0  0  0  0  0  0  0  0  0
    7.9679  -11.3309   26.8081 C   0  0  0  0  0  0  0  0  0  0  0  0
    9.0870  -12.1422   26.7259 C   0  0  0  0  0  0  0  0  0  0  0  0
    8.9590  -13.4269   26.2990 C   0  0  0  0  0  0  0  0  0  0  0  0
    7.7183  -13.9547   25.9380 C   0  0  0  0  0  0  0  0  0  0  0  0
   10.2608  -17.2700   24.1020 C   0  0  0  0  0  0  0  0  0  0  0  0
    9.8962  -18.4107   23.6515 O   0  0  0  0  0  0  0  0  0  0  0  0
   11.6131  -17.0681   24.4522 N   0  0  0  0  0  0  0  0  0  0  0  0
   12.5145  -18.2835   24.2981 C   0  0  1  0  0  0  0  0  0  0  0  0
   13.8254  -17.6671   23.8938 C   0  0  0  0  0  0  0  0  0  0  0  0
   15.0598  -18.4437   23.7944 C   0  0  0  0  0  0  0  0  0  0  0  0
   16.2986  -17.7566   23.3896 C   0  0  0  0  0  0  0  0  0  0  0  0
   17.4683  -18.7566   23.2626 C   0  0  0  0  0  0  0  0  0  0  0  0
   18.6211  -18.1283   22.6879 N   0  0  0  0  0  0  0  0  0  0  0  0
   12.4834  -18.8634   25.6474 C   0  0  0  0  0  0  0  0  0  0  0  0
   12.9023  -20.0048   25.9361 O   0  0  0  0  0  0  0  0  0  0  0  0
   11.9627  -18.1326   26.7283 O   0  0  0  0  0  0  0  0  0  0  0  0
  2  1  1  6
  2  3  1  0
  4  2  1  0
  4  5  1  1
  6  4  1  0
  6  7  2  0
  8  6  1  0
  9  8  1  0
  9 10  1  1
 10 11  1  0
 11 19  1  0
 11 12  2  0
 12 13  1  0
 14 15  2  0
 14 13  1  0
 16 15  1  0
 17 16  2  0
 18 17  1  0
 18 19  2  0
 19 14  1  0
 20  9  1  0
 21 20  2  0
 22 20  1  0
 23 24  1  1
 23 22  1  0
 24 25  1  0
 25 26  1  0
 26 27  1  0
 27 28  1  0
 29 23  1  0
 30 29  2  0
 31 29  1  0
M  END
$$$$
