VWK.pdb
     RDKit          3D

 31 32  0  0  1  0  0  0  0  0999 V2000
    8.5764  -16.7986   19.2761 C   0  0  0  0  0  0  0  0  0  0  0  0
    7.3817  -17.2673   20.0593 C   0  0  2  0  0  0  0  0  0  0  0  0
    6.2672  -17.7630   19.1697 C   0  0  0  0  0  0  0  0  0  0  0  0
    6.8676  -16.1890   20.9787 C   0  0  2  0  0  0  0  0  0  0  0  0
    6.4113  -15.0590   20.2320 N   0  0  0  0  0  0  0  0  0  0  0  0
    7.9087  -15.7932   21.9665 C   0  0  0  0  0  0  0  0  0  0  0  0
    8.6401  -14.7837   21.8041 O   0  0  0  0  0  0  0  0  0  0  0  0
    8.0759  -16.5854   23.1257 N   0  0  0  0  0  0  0  0  0  0  0  0
    9.1076  -16.2100   24.1278 C   0  0  1  0  0  0  0  0  0  0  0  0
    8.3878  -16.1238   25.4170 C   0  0  0  0  0  0  0  0  0  0  0  0
    7.3915  -15.0691   25.5927 C   0  0  0  0  0  0  0  0  0  0  0  0
    5.9998  -15.1758   25.5028 C   0  0  0  0  0  0  0  0  0  0  0  0
    5.4814  -13.9612   25.7333 N   0  0  0  0  0  0  0  0  0  0  0  0
    6.4625  -13.0695   25.9691 C   0  0  0  0  0  0  0  0  0  0  0  0
    6.5079  -11.7253   26.2681 C   0  0  0  0  0  0  0  0  0  0  0  0
    7.6916  -11.0391   26.4833 C   0  0  0  0  0  0  0  0  0  0  0  0
    8.8836  -11.7380   26.3934 C   0  0  0  0  0  0  0  0  0  0  0  0
    8.8667  -13.0656   26.0996 C   0  0  0  0  0  0  0  0  0  0  0  0
    7.6691  -13.7492   25.8841 C   0  0  0  0  0  0  0  0  0  0  0  0
   10.2698  -17.0652   24.0161 C   0  0  0  0  0  0  0  0  0  0  0  0
   10.0705  -18.3055   23.7728 O   0  0  0  0  0  0  0  0  0  0  0  0
   11.5934  -16.5944   24.1525 N   0  0  0  0  0  0  0  0  0  0  0  0
   12.6810  -17.6344   23.9314 C   0  0  1  0  0  0  0  0  0  0  0  0
   13.7339  -16.8525   23.1952 C   0  0  0  0  0  0  0  0  0  0  0  0
   15.0456  -17.4123   22.8744 C   0  0  0  0  0  0  0  0  0  0  0  0
   15.8394  -16.7878   21.8018 C   0  0  0  0  0  0  0  0  0  0  0  0
   17.1947  -17.5071   21.6278 C   0  0  0  0  0  0  0  0  0  0  0  0
   18.0516  -16.7799   20.7385 N   0  0  0  0  0  0  0  0  0  0  0  0
   13.0286  -18.0142   25.3072 C   0  0  0  0  0  0  0  0  0  0  0  0
   13.8993  -18.8582   25.6090 O   0  0  0  0  0  0  0  0  0  0  0  0
   12.3752  -17.4205   26.4000 O   0  0  0  0  0  0  0  0  0  0  0  0
  2  1  1  6
  2  3  1  0
  4  2  1  0
  4  5  1  6
  6  4  1  0
  6  7  2  0
  8  6  1  0
  9  8  1  0
  9 10  1  1
 10 11  1  0
 11 19  1  0
 11 12  2  0
 12 13  1  0
 14 15  2  0
 14 13  1  0
 16 15  1  0
 17 16  2  0
 18 17  1  0
 18 19  2  0
 19 14  1  0
 20  9  1  0
 21 20  2  0
 22 20  1  0
 23 24  1  1
 23 22  1  0
 24 25  1  0
 25 26  1  0
 26 27  1  0
 27 28  1  0
 29 23  1  0
 30 29  2  0
 31 29  1  0
M  END
$$$$
