VWK.pdb
     RDKit          3D

 31 32  0  0  1  0  0  0  0  0999 V2000
   10.2802  -18.9645   19.3002 C   0  0  0  0  0  0  0  0  0  0  0  0
    8.8458  -18.6464   18.9815 C   0  0  2  0  0  0  0  0  0  0  0  0
    8.3863  -19.2838   17.6924 C   0  0  0  0  0  0  0  0  0  0  0  0
    8.6082  -17.1585   18.9350 C   0  0  2  0  0  0  0  0  0  0  0  0
    9.3618  -16.5558   17.8807 N   0  0  0  0  0  0  0  0  0  0  0  0
    8.9248  -16.5295   20.2467 C   0  0  0  0  0  0  0  0  0  0  0  0
   10.0124  -15.9376   20.4631 O   0  0  0  0  0  0  0  0  0  0  0  0
    7.9639  -16.6047   21.2814 N   0  0  0  0  0  0  0  0  0  0  0  0
    8.2538  -15.9791   22.5981 C   0  0  1  0  0  0  0  0  0  0  0  0
    6.9373  -15.5753   23.1378 C   0  0  0  0  0  0  0  0  0  0  0  0
    6.8556  -15.1421   24.5312 C   0  0  0  0  0  0  0  0  0  0  0  0
    6.5720  -15.9191   25.6591 C   0  0  0  0  0  0  0  0  0  0  0  0
    6.5986  -15.1113   26.7286 N   0  0  0  0  0  0  0  0  0  0  0  0
    6.8851  -13.8493   26.3563 C   0  0  0  0  0  0  0  0  0  0  0  0
    7.0493  -12.6510   27.0161 C   0  0  0  0  0  0  0  0  0  0  0  0
    7.3663  -11.4690   26.3674 C   0  0  0  0  0  0  0  0  0  0  0  0
    7.5253  -11.4948   24.9922 C   0  0  0  0  0  0  0  0  0  0  0  0
    7.3688  -12.6646   24.3168 C   0  0  0  0  0  0  0  0  0  0  0  0
    7.0491  -13.8511   24.9786 C   0  0  0  0  0  0  0  0  0  0  0  0
    9.1202  -16.8250   23.3911 C   0  0  0  0  0  0  0  0  0  0  0  0
    8.9108  -18.0867   23.3536 O   0  0  0  0  0  0  0  0  0  0  0  0
   10.1758  -16.3254   24.1837 N   0  0  0  0  0  0  0  0  0  0  0  0
   11.0499  -17.3802   24.8446 C   0  0  1  0  0  0  0  0  0  0  0  0
   12.4060  -17.0898   24.2627 C   0  0  0  0  0  0  0  0  0  0  0  0
   12.7989  -17.5373   22.9277 C   0  0  0  0  0  0  0  0  0  0  0  0
   14.1178  -17.1385   22.4063 C   0  0  0  0  0  0  0  0  0  0  0  0
   14.2664  -17.5329   20.9207 C   0  0  0  0  0  0  0  0  0  0  0  0
   15.5031  -17.0486   20.3820 N   0  0  0  0  0  0  0  0  0  0  0  0
   10.8968  -17.0587   26.2697 C   0  0  0  0  0  0  0  0  0  0  0  0
   11.3510  -17.7534   27.2039 O   0  0  0  0  0  0  0  0  0  0  0  0
   10.2059  -15.9036   26.6723 O   0  0  0  0  0  0  0  0  0  0  0  0
  2  1  1  6
  2  3  1  0
  4  2  1  0
  4  5  1  6
  6  4  1  0
  6  7  2  0
  8  6  1  0
  9  8  1  0
  9 10  1  1
 10 11  1  0
 11 19  1  0
 11 12  2  0
 12 13  1  0
 14 15  2  0
 14 13  1  0
 16 15  1  0
 17 16  2  0
 18 17  1  0
 18 19  2  0
 19 14  1  0
 20  9  1  0
 21 20  2  0
 22 20  1  0
 23 24  1  6
 23 22  1  0
 24 25  1  0
 25 26  1  0
 26 27  1  0
 27 28  1  0
 29 23  1  0
 30 29  2  0
 31 29  1  0
M  END
$$$$
