NDC.pdb
     RDKit          3D

 23 22  0  0  1  0  0  0  0  0999 V2000
   13.6616  -14.0503  -14.0934 N   0  0  0  0  0  0  0  0  0  0  0  0
   13.5241  -13.5338  -12.7692 C   0  0  0  0  0  0  0  0  0  0  0  0
   12.5294  -13.8652  -12.0786 O   0  0  0  0  0  0  0  0  0  0  0  0
   14.5052  -12.6127  -12.1520 C   0  0  0  0  0  0  0  0  0  0  0  0
   15.6636  -12.3272  -13.0842 C   0  0  2  0  0  0  0  0  0  0  0  0
   16.3965  -13.5023  -13.3472 N   0  0  0  0  0  0  0  0  0  0  0  0
   16.4156  -11.1953  -12.5527 C   0  0  0  0  0  0  0  0  0  0  0  0
   17.2135  -11.4100  -11.6037 O   0  0  0  0  0  0  0  0  0  0  0  0
   16.2886   -9.8885  -13.0498 N   0  0  0  0  0  0  0  0  0  0  0  0
   17.0347   -8.7530  -12.6024 C   0  0  1  0  0  0  0  0  0  0  0  0
   17.5356   -7.9014  -13.7583 C   0  0  0  0  0  0  0  0  0  0  0  0
   18.3777   -6.7871  -13.3030 C   0  0  0  0  0  0  0  0  0  0  0  0
   19.0620   -6.8681  -12.2737 O   0  0  0  0  0  0  0  0  0  0  0  0
   16.1238   -7.8564  -11.8070 C   0  0  0  0  0  0  0  0  0  0  0  0
   14.9843   -7.5727  -12.2658 O   0  0  0  0  0  0  0  0  0  0  0  0
   18.4029   -5.6224  -14.0459 O   0  0  0  0  0  0  0  0  0  0  0  0
   16.4835   -7.3104  -10.5596 N   0  0  0  0  0  0  0  0  0  0  0  0
   15.5897   -6.4994   -9.7548 C   0  0  1  0  0  0  0  0  0  0  0  0
   15.8278   -6.7217   -8.2754 C   0  0  0  0  0  0  0  0  0  0  0  0
   15.2802   -8.3398   -7.7302 S   0  0  0  0  0  0  0  0  0  0  0  0
   15.7248   -5.0669  -10.1205 C   0  0  0  0  0  0  0  0  0  0  0  0
   14.9965   -4.1905   -9.6061 O   0  0  0  0  0  0  0  0  0  0  0  0
   16.6713   -4.6621  -11.0505 O   0  0  0  0  0  0  0  0  0  0  0  0
  1  2  1  0
  2  4  1  0
  3  2  2  0
  5  4  1  0
  5  6  1  1
  5  7  1  0
  7  8  2  0
  9  7  1  0
  9 10  1  0
 10 14  1  0
 10 11  1  6
 11 12  1  0
 12 16  1  0
 13 12  2  0
 14 15  2  0
 17 14  1  0
 17 18  1  0
 18 21  1  0
 18 19  1  1
 19 20  1  0
 21 22  2  0
 21 23  1  0
M  END
$$$$
