NDC.pdb
     RDKit          3D

 23 22  0  0  1  0  0  0  0  0999 V2000
   15.0659  -12.3755  -14.9701 N   0  0  0  0  0  0  0  0  0  0  0  0
   16.1538  -11.9523  -14.1477 C   0  0  0  0  0  0  0  0  0  0  0  0
   16.1773  -12.2850  -12.9373 O   0  0  0  0  0  0  0  0  0  0  0  0
   17.2770  -11.1283  -14.6492 C   0  0  0  0  0  0  0  0  0  0  0  0
   17.0674  -10.7209  -16.0923 C   0  0  2  0  0  0  0  0  0  0  0  0
   17.4389  -11.7628  -16.9661 N   0  0  0  0  0  0  0  0  0  0  0  0
   17.7131   -9.4299  -16.3058 C   0  0  0  0  0  0  0  0  0  0  0  0
   18.9156   -9.4253  -16.6764 O   0  0  0  0  0  0  0  0  0  0  0  0
   17.0567   -8.2032  -16.1173 N   0  0  0  0  0  0  0  0  0  0  0  0
   17.6277   -6.9116  -16.3444 C   0  0  1  0  0  0  0  0  0  0  0  0
   16.5705   -5.8222  -16.4331 C   0  0  0  0  0  0  0  0  0  0  0  0
   17.1509   -4.5092  -16.7450 C   0  0  0  0  0  0  0  0  0  0  0  0
   16.6678   -3.4614  -16.2942 O   0  0  0  0  0  0  0  0  0  0  0  0
   18.4851   -6.5452  -15.1625 C   0  0  0  0  0  0  0  0  0  0  0  0
   18.0007   -6.6263  -14.0013 O   0  0  0  0  0  0  0  0  0  0  0  0
   18.2634   -4.4481  -17.5621 O   0  0  0  0  0  0  0  0  0  0  0  0
   19.8188   -6.1105  -15.2882 N   0  0  0  0  0  0  0  0  0  0  0  0
   20.6176   -5.6491  -14.1686 C   0  0  1  0  0  0  0  0  0  0  0  0
   21.7044   -6.6456  -13.8212 C   0  0  0  0  0  0  0  0  0  0  0  0
   22.7287   -6.0924  -12.4573 S   0  0  0  0  0  0  0  0  0  0  0  0
   21.1802   -4.3058  -14.4566 C   0  0  0  0  0  0  0  0  0  0  0  0
   21.3132   -3.8915  -15.6286 O   0  0  0  0  0  0  0  0  0  0  0  0
   21.5758   -3.4697  -13.4226 O   0  0  0  0  0  0  0  0  0  0  0  0
  1  2  1  0
  2  4  1  0
  3  2  2  0
  5  4  1  0
  5  6  1  6
  5  7  1  0
  7  8  2  0
  9  7  1  0
  9 10  1  0
 10 14  1  0
 10 11  1  1
 11 12  1  0
 12 16  1  0
 13 12  2  0
 14 15  2  0
 17 14  1  0
 17 18  1  0
 18 21  1  0
 18 19  1  6
 19 20  1  0
 21 22  2  0
 21 23  1  0
M  END
$$$$
