NDC.pdb
     RDKit          3D

 23 22  0  0  1  0  0  0  0  0999 V2000
   22.9891  -29.9131   -9.3987 N   0  0  0  0  0  0  0  0  0  0  0  0
   21.6709  -29.5439   -9.8047 C   0  0  0  0  0  0  0  0  0  0  0  0
   20.7670  -30.4149   -9.8296 O   0  0  0  0  0  0  0  0  0  0  0  0
   21.3013  -28.1674  -10.2056 C   0  0  0  0  0  0  0  0  0  0  0  0
   20.0951  -28.1591  -11.1207 C   0  0  2  0  0  0  0  0  0  0  0  0
   20.3157  -28.9763  -12.2479 N   0  0  0  0  0  0  0  0  0  0  0  0
   19.7248  -26.7724  -11.3836 C   0  0  0  0  0  0  0  0  0  0  0  0
   19.3913  -26.0547  -10.4053 O   0  0  0  0  0  0  0  0  0  0  0  0
   19.7243  -26.2090  -12.6695 N   0  0  0  0  0  0  0  0  0  0  0  0
   19.4716  -24.8346  -12.9746 C   0  0  1  0  0  0  0  0  0  0  0  0
   19.8348  -24.4872  -14.4098 C   0  0  0  0  0  0  0  0  0  0  0  0
   20.5743  -23.2214  -14.5047 C   0  0  0  0  0  0  0  0  0  0  0  0
   20.6106  -22.4176  -13.5628 O   0  0  0  0  0  0  0  0  0  0  0  0
   17.9931  -24.5757  -12.8595 C   0  0  0  0  0  0  0  0  0  0  0  0
   17.1867  -25.3263  -13.4724 O   0  0  0  0  0  0  0  0  0  0  0  0
   21.2441  -22.9257  -15.6765 O   0  0  0  0  0  0  0  0  0  0  0  0
   17.4564  -23.5237  -12.0920 N   0  0  0  0  0  0  0  0  0  0  0  0
   16.0348  -23.2534  -11.9905 C   0  0  1  0  0  0  0  0  0  0  0  0
   15.5785  -23.2462  -10.5460 C   0  0  0  0  0  0  0  0  0  0  0  0
   16.1527  -24.6833   -9.6402 S   0  0  0  0  0  0  0  0  0  0  0  0
   15.7032  -21.9782  -12.6744 C   0  0  0  0  0  0  0  0  0  0  0  0
   14.5342  -21.5357  -12.6991 O   0  0  0  0  0  0  0  0  0  0  0  0
   16.6916  -21.2395  -13.3085 O   0  0  0  0  0  0  0  0  0  0  0  0
  1  2  1  0
  2  4  1  0
  3  2  2  0
  5  4  1  0
  5  6  1  6
  5  7  1  0
  7  8  2  0
  9  7  1  0
  9 10  1  0
 10 14  1  0
 10 11  1  6
 11 12  1  0
 12 16  1  0
 13 12  2  0
 14 15  2  0
 17 14  1  0
 17 18  1  0
 18 21  1  0
 18 19  1  1
 19 20  1  0
 21 22  2  0
 21 23  1  0
M  END
$$$$
