NDC.pdb
     RDKit          3D

 23 22  0  0  1  0  0  0  0  0999 V2000
   29.1625  -21.9087  -11.3847 N   0  0  0  0  0  0  0  0  0  0  0  0
   28.9909  -20.4918  -11.4291 C   0  0  0  0  0  0  0  0  0  0  0  0
   29.8810  -19.7477  -10.9493 O   0  0  0  0  0  0  0  0  0  0  0  0
   27.8014  -19.8370  -12.0195 C   0  0  0  0  0  0  0  0  0  0  0  0
   26.8273  -20.8523  -12.5788 C   0  0  2  0  0  0  0  0  0  0  0  0
   27.4154  -21.5846  -13.6300 N   0  0  0  0  0  0  0  0  0  0  0  0
   25.5732  -20.1706  -12.8814 C   0  0  0  0  0  0  0  0  0  0  0  0
   24.9107  -19.6993  -11.9211 O   0  0  0  0  0  0  0  0  0  0  0  0
   25.0779  -20.0189  -14.1863 N   0  0  0  0  0  0  0  0  0  0  0  0
   23.8422  -19.3904  -14.5384 C   0  0  1  0  0  0  0  0  0  0  0  0
   23.8640  -18.8288  -15.9514 C   0  0  0  0  0  0  0  0  0  0  0  0
   22.6464  -18.0695  -16.2661 C   0  0  0  0  0  0  0  0  0  0  0  0
   21.5912  -18.2455  -15.6417 O   0  0  0  0  0  0  0  0  0  0  0  0
   22.7514  -20.4278  -14.5343 C   0  0  0  0  0  0  0  0  0  0  0  0
   23.0629  -21.6493  -14.5171 O   0  0  0  0  0  0  0  0  0  0  0  0
   22.6857  -17.1372  -17.2851 O   0  0  0  0  0  0  0  0  0  0  0  0
   21.3817  -20.1001  -14.5490 N   0  0  0  0  0  0  0  0  0  0  0  0
   20.3514  -20.9474  -13.9789 C   0  0  1  0  0  0  0  0  0  0  0  0
   20.6423  -21.2651  -12.5266 C   0  0  0  0  0  0  0  0  0  0  0  0
   19.5985  -22.5775  -11.8913 S   0  0  0  0  0  0  0  0  0  0  0  0
   19.0173  -20.3172  -14.1435 C   0  0  0  0  0  0  0  0  0  0  0  0
   18.8435  -19.0955  -13.9436 O   0  0  0  0  0  0  0  0  0  0  0  0
   17.9208  -21.0758  -14.5267 O   0  0  0  0  0  0  0  0  0  0  0  0
  1  2  1  0
  2  4  1  0
  3  2  2  0
  5  4  1  0
  5  6  1  6
  5  7  1  0
  7  8  2  0
  9  7  1  0
  9 10  1  0
 10 14  1  0
 10 11  1  6
 11 12  1  0
 12 16  1  0
 13 12  2  0
 14 15  2  0
 17 14  1  0
 17 18  1  0
 18 21  1  0
 18 19  1  1
 19 20  1  0
 21 22  2  0
 21 23  1  0
M  END
$$$$
