NDC.pdb
     RDKit          3D

 23 22  0  0  1  0  0  0  0  0999 V2000
   13.4769   -7.5595   -8.3650 N   0  0  0  0  0  0  0  0  0  0  0  0
   14.8465   -7.1564   -8.3388 C   0  0  0  0  0  0  0  0  0  0  0  0
   15.2860   -6.5311   -7.3428 O   0  0  0  0  0  0  0  0  0  0  0  0
   15.7961   -7.4385   -9.4391 C   0  0  0  0  0  0  0  0  0  0  0  0
   15.1599   -8.2872  -10.5196 C   0  0  2  0  0  0  0  0  0  0  0  0
   14.8500   -9.5722  -10.0298 N   0  0  0  0  0  0  0  0  0  0  0  0
   16.0035   -8.2290  -11.7087 C   0  0  0  0  0  0  0  0  0  0  0  0
   16.4534   -9.3111  -12.1669 O   0  0  0  0  0  0  0  0  0  0  0  0
   16.3322   -7.0285  -12.3582 N   0  0  0  0  0  0  0  0  0  0  0  0
   17.0630   -6.9193  -13.5830 C   0  0  1  0  0  0  0  0  0  0  0  0
   16.7962   -5.6037  -14.2973 C   0  0  0  0  0  0  0  0  0  0  0  0
   15.4518   -5.5549  -14.8875 C   0  0  0  0  0  0  0  0  0  0  0  0
   15.1819   -6.1502  -15.9397 O   0  0  0  0  0  0  0  0  0  0  0  0
   18.5357   -6.9165  -13.2709 C   0  0  0  0  0  0  0  0  0  0  0  0
   18.9472   -6.3078  -12.2464 O   0  0  0  0  0  0  0  0  0  0  0  0
   14.4681   -4.8250  -14.2481 O   0  0  0  0  0  0  0  0  0  0  0  0
   19.4912   -7.5675  -14.0753 N   0  0  0  0  0  0  0  0  0  0  0  0
   20.9133   -7.5619  -13.7895 C   0  0  1  0  0  0  0  0  0  0  0  0
   21.6443   -8.5996  -14.6164 C   0  0  0  0  0  0  0  0  0  0  0  0
   23.4135   -8.5842  -14.3246 S   0  0  0  0  0  0  0  0  0  0  0  0
   21.4748   -6.2034  -13.9974 C   0  0  0  0  0  0  0  0  0  0  0  0
   21.1934   -5.5292  -15.0118 O   0  0  0  0  0  0  0  0  0  0  0  0
   22.3334   -5.6439  -13.0623 O   0  0  0  0  0  0  0  0  0  0  0  0
  1  2  1  0
  2  4  1  0
  3  2  2  0
  5  4  1  0
  5  6  1  1
  5  7  1  0
  7  8  2  0
  9  7  1  0
  9 10  1  0
 10 14  1  0
 10 11  1  1
 11 12  1  0
 12 16  1  0
 13 12  2  0
 14 15  2  0
 17 14  1  0
 17 18  1  0
 18 21  1  0
 18 19  1  6
 19 20  1  0
 21 22  2  0
 21 23  1  0
M  END
$$$$
