NDC.pdb
     RDKit          3D

 23 22  0  0  1  0  0  0  0  0999 V2000
   26.6386  -31.9960   -9.5679 N   0  0  0  0  0  0  0  0  0  0  0  0
   25.5530  -31.7827   -8.6652 C   0  0  0  0  0  0  0  0  0  0  0  0
   24.8709  -30.7329   -8.7586 O   0  0  0  0  0  0  0  0  0  0  0  0
   25.1783  -32.7461   -7.6052 C   0  0  0  0  0  0  0  0  0  0  0  0
   26.0942  -33.9517   -7.5997 C   0  0  2  0  0  0  0  0  0  0  0  0
   25.8277  -34.7884   -8.7024 N   0  0  0  0  0  0  0  0  0  0  0  0
   26.0322  -34.5724   -6.2806 C   0  0  0  0  0  0  0  0  0  0  0  0
   24.9050  -34.9249   -5.8464 O   0  0  0  0  0  0  0  0  0  0  0  0
   27.1657  -34.7916   -5.4817 N   0  0  0  0  0  0  0  0  0  0  0  0
   27.1674  -35.4166   -4.1952 C   0  0  1  0  0  0  0  0  0  0  0  0
   28.5697  -35.5528   -3.6231 C   0  0  0  0  0  0  0  0  0  0  0  0
   29.0905  -36.9207   -3.7491 C   0  0  0  0  0  0  0  0  0  0  0  0
   28.3763  -37.8547   -4.1388 O   0  0  0  0  0  0  0  0  0  0  0  0
   26.4215  -34.5374   -3.2273 C   0  0  0  0  0  0  0  0  0  0  0  0
   26.5423  -33.2854   -3.3133 O   0  0  0  0  0  0  0  0  0  0  0  0
   30.4109  -37.1649   -3.4234 O   0  0  0  0  0  0  0  0  0  0  0  0
   25.5839  -35.0479   -2.2165 N   0  0  0  0  0  0  0  0  0  0  0  0
   24.8080  -34.2093   -1.3227 C   0  0  1  0  0  0  0  0  0  0  0  0
   23.8440  -33.3300   -2.0923 C   0  0  0  0  0  0  0  0  0  0  0  0
   22.8123  -32.3377   -1.0123 S   0  0  0  0  0  0  0  0  0  0  0  0
   24.1028  -35.0432   -0.3171 C   0  0  0  0  0  0  0  0  0  0  0  0
   23.9864  -36.2797   -0.4605 O   0  0  0  0  0  0  0  0  0  0  0  0
   23.5505  -34.4654    0.8168 O   0  0  0  0  0  0  0  0  0  0  0  0
  1  2  1  0
  2  4  1  0
  3  2  2  0
  5  4  1  0
  5  6  1  6
  5  7  1  0
  7  8  2  0
  9  7  1  0
  9 10  1  0
 10 14  1  0
 10 11  1  1
 11 12  1  0
 12 16  1  0
 13 12  2  0
 14 15  2  0
 17 14  1  0
 17 18  1  0
 18 21  1  0
 18 19  1  6
 19 20  1  0
 21 22  2  0
 21 23  1  0
M  END
$$$$
