NDC.pdb
     RDKit          3D

 23 22  0  0  1  0  0  0  0  0999 V2000
   17.7301  -13.8763  -16.2558 N   0  0  0  0  0  0  0  0  0  0  0  0
   18.9086  -13.0720  -16.1992 C   0  0  0  0  0  0  0  0  0  0  0  0
   20.0044  -13.5569  -16.5737 O   0  0  0  0  0  0  0  0  0  0  0  0
   18.9131  -11.6728  -15.7152 C   0  0  0  0  0  0  0  0  0  0  0  0
   17.5368  -11.2373  -15.2588 C   0  0  2  0  0  0  0  0  0  0  0  0
   16.6025  -11.3482  -16.3086 N   0  0  0  0  0  0  0  0  0  0  0  0
   17.6533   -9.9277  -14.6259 C   0  0  0  0  0  0  0  0  0  0  0  0
   17.4221   -8.9097  -15.3285 O   0  0  0  0  0  0  0  0  0  0  0  0
   18.0092   -9.7556  -13.2787 N   0  0  0  0  0  0  0  0  0  0  0  0
   18.1086   -8.5009  -12.5992 C   0  0  1  0  0  0  0  0  0  0  0  0
   17.9072   -8.6414  -11.0985 C   0  0  0  0  0  0  0  0  0  0  0  0
   16.4863   -8.7197  -10.7338 C   0  0  0  0  0  0  0  0  0  0  0  0
   15.5907   -8.4633  -11.5502 O   0  0  0  0  0  0  0  0  0  0  0  0
   19.5054   -7.9659  -12.7695 C   0  0  0  0  0  0  0  0  0  0  0  0
   20.4848   -8.7500  -12.6455 O   0  0  0  0  0  0  0  0  0  0  0  0
   16.1469   -9.0892   -9.4464 O   0  0  0  0  0  0  0  0  0  0  0  0
   19.7787   -6.6160  -13.0643 N   0  0  0  0  0  0  0  0  0  0  0  0
   21.0997   -6.1250  -13.4080 C   0  0  1  0  0  0  0  0  0  0  0  0
   21.6975   -6.9126  -14.5557 C   0  0  0  0  0  0  0  0  0  0  0  0
   23.2694   -6.2424  -15.0995 S   0  0  0  0  0  0  0  0  0  0  0  0
   21.0462   -4.6728  -13.7117 C   0  0  0  0  0  0  0  0  0  0  0  0
   20.0695   -4.1656  -14.3047 O   0  0  0  0  0  0  0  0  0  0  0  0
   22.0884   -3.8353  -13.3413 O   0  0  0  0  0  0  0  0  0  0  0  0
  1  2  1  0
  2  4  1  0
  3  2  2  0
  5  4  1  0
  5  6  1  6
  5  7  1  0
  7  8  2  0
  9  7  1  0
  9 10  1  0
 10 14  1  0
 10 11  1  1
 11 12  1  0
 12 16  1  0
 13 12  2  0
 14 15  2  0
 17 14  1  0
 17 18  1  0
 18 21  1  0
 18 19  1  6
 19 20  1  0
 21 22  2  0
 21 23  1  0
M  END
$$$$
