NDC.pdb
     RDKit          3D

 23 22  0  0  1  0  0  0  0  0999 V2000
   16.7682  -13.0269  -15.5532 N   0  0  0  0  0  0  0  0  0  0  0  0
   17.6692  -12.0441  -16.0644 C   0  0  0  0  0  0  0  0  0  0  0  0
   18.1271  -12.1727  -17.2262 O   0  0  0  0  0  0  0  0  0  0  0  0
   18.1028  -10.8598  -15.2887 C   0  0  0  0  0  0  0  0  0  0  0  0
   19.0459   -9.9857  -16.0881 C   0  0  2  0  0  0  0  0  0  0  0  0
   20.2539  -10.6626  -16.3519 N   0  0  0  0  0  0  0  0  0  0  0  0
   19.1556   -8.6934  -15.4196 C   0  0  0  0  0  0  0  0  0  0  0  0
   18.1051   -8.1752  -14.9602 O   0  0  0  0  0  0  0  0  0  0  0  0
   20.3720   -8.0088  -15.2680 N   0  0  0  0  0  0  0  0  0  0  0  0
   20.5395   -6.7459  -14.6177 C   0  0  1  0  0  0  0  0  0  0  0  0
   22.0035   -6.4096  -14.3814 C   0  0  0  0  0  0  0  0  0  0  0  0
   22.1765   -5.0935  -13.7521 C   0  0  0  0  0  0  0  0  0  0  0  0
   22.4890   -4.0933  -14.4126 O   0  0  0  0  0  0  0  0  0  0  0  0
   20.0183   -5.6613  -15.5222 C   0  0  0  0  0  0  0  0  0  0  0  0
   20.2626   -5.7191  -16.7577 O   0  0  0  0  0  0  0  0  0  0  0  0
   21.9843   -4.9748  -12.3890 O   0  0  0  0  0  0  0  0  0  0  0  0
   19.2612   -4.5700  -15.0535 N   0  0  0  0  0  0  0  0  0  0  0  0
   18.6956   -3.5571  -15.9244 C   0  0  1  0  0  0  0  0  0  0  0  0
   17.5218   -4.1023  -16.7116 C   0  0  0  0  0  0  0  0  0  0  0  0
   16.5487   -2.8041  -17.4755 S   0  0  0  0  0  0  0  0  0  0  0  0
   18.3156   -2.3563  -15.1384 C   0  0  0  0  0  0  0  0  0  0  0  0
   18.0209   -2.4362  -13.9261 O   0  0  0  0  0  0  0  0  0  0  0  0
   18.2779   -1.1047  -15.7357 O   0  0  0  0  0  0  0  0  0  0  0  0
  1  2  1  0
  2  4  1  0
  3  2  2  0
  5  4  1  0
  5  6  1  1
  5  7  1  0
  7  8  2  0
  9  7  1  0
  9 10  1  0
 10 14  1  0
 10 11  1  6
 11 12  1  0
 12 16  1  0
 13 12  2  0
 14 15  2  0
 17 14  1  0
 17 18  1  0
 18 21  1  0
 18 19  1  1
 19 20  1  0
 21 22  2  0
 21 23  1  0
M  END
$$$$
