NDC.pdb
     RDKit          3D

 23 22  0  0  1  0  0  0  0  0999 V2000
   21.3626  -13.4456  -17.0555 N   0  0  0  0  0  0  0  0  0  0  0  0
   21.5727  -12.0461  -17.2454 C   0  0  0  0  0  0  0  0  0  0  0  0
   22.0893  -11.6399  -18.3151 O   0  0  0  0  0  0  0  0  0  0  0  0
   21.2098  -11.0269  -16.2346 C   0  0  0  0  0  0  0  0  0  0  0  0
   22.3592  -10.0800  -15.9613 C   0  0  2  0  0  0  0  0  0  0  0  0
   23.4857  -10.7829  -15.4880 N   0  0  0  0  0  0  0  0  0  0  0  0
   21.8705   -8.9911  -15.1219 C   0  0  0  0  0  0  0  0  0  0  0  0
   21.6578   -9.2330  -13.9056 O   0  0  0  0  0  0  0  0  0  0  0  0
   21.6295   -7.6963  -15.6083 N   0  0  0  0  0  0  0  0  0  0  0  0
   21.1425   -6.5955  -14.8355 C   0  0  1  0  0  0  0  0  0  0  0  0
   22.0937   -5.4094  -14.8601 C   0  0  0  0  0  0  0  0  0  0  0  0
   21.6109   -4.2931  -14.0361 C   0  0  0  0  0  0  0  0  0  0  0  0
   20.5263   -4.3469  -13.4401 O   0  0  0  0  0  0  0  0  0  0  0  0
   19.8626   -6.0980  -15.4522 C   0  0  0  0  0  0  0  0  0  0  0  0
   19.8403   -5.8132  -16.6802 O   0  0  0  0  0  0  0  0  0  0  0  0
   22.3906   -3.1577  -13.9271 O   0  0  0  0  0  0  0  0  0  0  0  0
   18.6720   -5.9317  -14.7184 N   0  0  0  0  0  0  0  0  0  0  0  0
   17.4356   -5.4458  -15.3012 C   0  0  1  0  0  0  0  0  0  0  0  0
   16.3369   -6.4841  -15.2042 C   0  0  0  0  0  0  0  0  0  0  0  0
   14.7406   -5.8397  -15.7063 S   0  0  0  0  0  0  0  0  0  0  0  0
   17.0348   -4.1657  -14.6650 C   0  0  0  0  0  0  0  0  0  0  0  0
   17.0671   -4.0153  -13.4243 O   0  0  0  0  0  0  0  0  0  0  0  0
   16.6109   -3.0952  -15.4390 O   0  0  0  0  0  0  0  0  0  0  0  0
  1  2  1  0
  2  4  1  0
  3  2  2  0
  5  4  1  0
  5  6  1  1
  5  7  1  0
  7  8  2  0
  9  7  1  0
  9 10  1  0
 10 14  1  0
 10 11  1  6
 11 12  1  0
 12 16  1  0
 13 12  2  0
 14 15  2  0
 17 14  1  0
 17 18  1  0
 18 21  1  0
 18 19  1  1
 19 20  1  0
 21 22  2  0
 21 23  1  0
M  END
$$$$
