NDC.pdb
     RDKit          3D

 23 22  0  0  1  0  0  0  0  0999 V2000
   13.1061  -12.5242  -13.6934 N   0  0  0  0  0  0  0  0  0  0  0  0
   14.4315  -12.6826  -14.2005 C   0  0  0  0  0  0  0  0  0  0  0  0
   14.6935  -13.6575  -14.9469 O   0  0  0  0  0  0  0  0  0  0  0  0
   15.5356  -11.7460  -13.8910 C   0  0  0  0  0  0  0  0  0  0  0  0
   16.2677  -11.3150  -15.1443 C   0  0  2  0  0  0  0  0  0  0  0  0
   16.8214  -12.4281  -15.8089 N   0  0  0  0  0  0  0  0  0  0  0  0
   17.1903  -10.2404  -14.7933 C   0  0  0  0  0  0  0  0  0  0  0  0
   16.8743   -9.4774  -13.8440 O   0  0  0  0  0  0  0  0  0  0  0  0
   18.4048  -10.0226  -15.4632 N   0  0  0  0  0  0  0  0  0  0  0  0
   19.3921   -9.0535  -15.0999 C   0  0  1  0  0  0  0  0  0  0  0  0
   20.7939   -9.4792  -15.5072 C   0  0  0  0  0  0  0  0  0  0  0  0
   21.8167   -8.5250  -15.0580 C   0  0  0  0  0  0  0  0  0  0  0  0
   21.5162   -7.4886  -14.4498 O   0  0  0  0  0  0  0  0  0  0  0  0
   19.1229   -7.7794  -15.8552 C   0  0  0  0  0  0  0  0  0  0  0  0
   18.7169   -7.8439  -17.0470 O   0  0  0  0  0  0  0  0  0  0  0  0
   23.1452   -8.7961  -15.3237 O   0  0  0  0  0  0  0  0  0  0  0  0
   19.3035   -6.5013  -15.2917 N   0  0  0  0  0  0  0  0  0  0  0  0
   18.8959   -5.2738  -15.9485 C   0  0  1  0  0  0  0  0  0  0  0  0
   17.4132   -5.2825  -16.2586 C   0  0  0  0  0  0  0  0  0  0  0  0
   16.8220   -3.6843  -16.8172 S   0  0  0  0  0  0  0  0  0  0  0  0
   19.2746   -4.0986  -15.1241 C   0  0  0  0  0  0  0  0  0  0  0  0
   19.0750   -4.0755  -13.8902 O   0  0  0  0  0  0  0  0  0  0  0  0
   19.8647   -2.9872  -15.7083 O   0  0  0  0  0  0  0  0  0  0  0  0
  1  2  1  0
  2  4  1  0
  3  2  2  0
  5  4  1  0
  5  6  1  1
  5  7  1  0
  7  8  2  0
  9  7  1  0
  9 10  1  0
 10 14  1  0
 10 11  1  6
 11 12  1  0
 12 16  1  0
 13 12  2  0
 14 15  2  0
 17 14  1  0
 17 18  1  0
 18 21  1  0
 18 19  1  1
 19 20  1  0
 21 22  2  0
 21 23  1  0
M  END
$$$$
