NDC.pdb
     RDKit          3D

 23 22  0  0  1  0  0  0  0  0999 V2000
   20.1744  -14.8627  -17.1738 N   0  0  0  0  0  0  0  0  0  0  0  0
   19.4344  -14.1705  -18.1799 C   0  0  0  0  0  0  0  0  0  0  0  0
   18.8563  -14.8265  -19.0808 O   0  0  0  0  0  0  0  0  0  0  0  0
   19.3070  -12.6960  -18.2229 C   0  0  0  0  0  0  0  0  0  0  0  0
   19.7590  -12.0602  -16.9253 C   0  0  2  0  0  0  0  0  0  0  0  0
   19.0591  -12.6053  -15.8298 N   0  0  0  0  0  0  0  0  0  0  0  0
   19.7033  -10.6101  -17.0779 C   0  0  0  0  0  0  0  0  0  0  0  0
   20.2958  -10.0968  -18.0621 O   0  0  0  0  0  0  0  0  0  0  0  0
   19.0231   -9.7700  -16.1820 N   0  0  0  0  0  0  0  0  0  0  0  0
   18.9764   -8.3422  -16.2540 C   0  0  1  0  0  0  0  0  0  0  0  0
   17.6207   -7.7891  -15.8435 C   0  0  0  0  0  0  0  0  0  0  0  0
   16.5670   -8.1282  -16.8094 C   0  0  0  0  0  0  0  0  0  0  0  0
   16.6361   -7.7791  -17.9959 O   0  0  0  0  0  0  0  0  0  0  0  0
   19.9591   -7.7739  -15.2654 C   0  0  0  0  0  0  0  0  0  0  0  0
   19.8506   -8.0754  -14.0460 O   0  0  0  0  0  0  0  0  0  0  0  0
   15.4741   -8.8549  -16.3774 O   0  0  0  0  0  0  0  0  0  0  0  0
   21.0082   -6.9106  -15.6370 N   0  0  0  0  0  0  0  0  0  0  0  0
   21.9603   -6.3576  -14.6925 C   0  0  1  0  0  0  0  0  0  0  0  0
   23.3488   -6.2804  -15.2932 C   0  0  0  0  0  0  0  0  0  0  0  0
   23.9454   -7.8792  -15.8441 S   0  0  0  0  0  0  0  0  0  0  0  0
   21.4982   -5.0308  -14.2129 C   0  0  0  0  0  0  0  0  0  0  0  0
   22.0917   -4.4262  -13.2937 O   0  0  0  0  0  0  0  0  0  0  0  0
   20.3862   -4.4239  -14.7784 O   0  0  0  0  0  0  0  0  0  0  0  0
  1  2  1  0
  2  4  1  0
  3  2  2  0
  5  4  1  0
  5  6  1  1
  5  7  1  0
  7  8  2  0
  9  7  1  0
  9 10  1  0
 10 14  1  0
 10 11  1  1
 11 12  1  0
 12 16  1  0
 13 12  2  0
 14 15  2  0
 17 14  1  0
 17 18  1  0
 18 21  1  0
 18 19  1  6
 19 20  1  0
 21 22  2  0
 21 23  1  0
M  END
$$$$
