NDC.pdb
     RDKit          3D

 23 22  0  0  1  0  0  0  0  0999 V2000
   17.9082  -11.9953  -16.9180 N   0  0  0  0  0  0  0  0  0  0  0  0
   18.0073  -11.9045  -15.4964 C   0  0  0  0  0  0  0  0  0  0  0  0
   17.5644  -12.8405  -14.7866 O   0  0  0  0  0  0  0  0  0  0  0  0
   18.6135  -10.7483  -14.7979 C   0  0  0  0  0  0  0  0  0  0  0  0
   19.0933   -9.6965  -15.7755 C   0  0  2  0  0  0  0  0  0  0  0  0
   20.2090  -10.1595  -16.5021 N   0  0  0  0  0  0  0  0  0  0  0  0
   19.2613   -8.4389  -15.0548 C   0  0  0  0  0  0  0  0  0  0  0  0
   18.2986   -8.0242  -14.3586 O   0  0  0  0  0  0  0  0  0  0  0  0
   20.4402   -7.6780  -15.1039 N   0  0  0  0  0  0  0  0  0  0  0  0
   20.6350   -6.4061  -14.4793 C   0  0  1  0  0  0  0  0  0  0  0  0
   22.1053   -6.0294  -14.3864 C   0  0  0  0  0  0  0  0  0  0  0  0
   22.3061   -4.7355  -13.7203 C   0  0  0  0  0  0  0  0  0  0  0  0
   22.2028   -4.6139  -12.4919 O   0  0  0  0  0  0  0  0  0  0  0  0
   20.0004   -5.3426  -15.3352 C   0  0  0  0  0  0  0  0  0  0  0  0
   20.2648   -5.3044  -16.5673 O   0  0  0  0  0  0  0  0  0  0  0  0
   22.6179   -3.6303  -14.4888 O   0  0  0  0  0  0  0  0  0  0  0  0
   19.1142   -4.3746  -14.8239 N   0  0  0  0  0  0  0  0  0  0  0  0
   18.5050   -3.3399  -15.6380 C   0  0  1  0  0  0  0  0  0  0  0  0
   17.0723   -3.6871  -15.9866 C   0  0  0  0  0  0  0  0  0  0  0  0
   16.1668   -4.3424  -14.5843 S   0  0  0  0  0  0  0  0  0  0  0  0
   18.5975   -2.0256  -14.9539 C   0  0  0  0  0  0  0  0  0  0  0  0
   19.1314   -1.9114  -13.8292 O   0  0  0  0  0  0  0  0  0  0  0  0
   18.0891   -0.8815  -15.5516 O   0  0  0  0  0  0  0  0  0  0  0  0
  1  2  1  0
  2  4  1  0
  3  2  2  0
  5  4  1  0
  5  6  1  1
  5  7  1  0
  7  8  2  0
  9  7  1  0
  9 10  1  0
 10 14  1  0
 10 11  1  6
 11 12  1  0
 12 16  1  0
 13 12  2  0
 14 15  2  0
 17 14  1  0
 17 18  1  0
 18 21  1  0
 18 19  1  1
 19 20  1  0
 21 22  2  0
 21 23  1  0
M  END
$$$$
