NDC.pdb
     RDKit          3D

 23 22  0  0  1  0  0  0  0  0999 V2000
   19.3530  -14.1479  -15.7699 N   0  0  0  0  0  0  0  0  0  0  0  0
   20.4151  -13.1973  -15.8547 C   0  0  0  0  0  0  0  0  0  0  0  0
   21.5901  -13.5620  -15.6046 O   0  0  0  0  0  0  0  0  0  0  0  0
   20.2070  -11.7797  -16.2277 C   0  0  0  0  0  0  0  0  0  0  0  0
   18.7369  -11.4581  -16.3946 C   0  0  2  0  0  0  0  0  0  0  0  0
   18.1797  -12.1979  -17.4573 N   0  0  0  0  0  0  0  0  0  0  0  0
   18.5862  -10.0083  -16.4605 C   0  0  0  0  0  0  0  0  0  0  0  0
   18.9082   -9.4293  -17.5303 O   0  0  0  0  0  0  0  0  0  0  0  0
   18.1017   -9.2379  -15.3915 N   0  0  0  0  0  0  0  0  0  0  0  0
   17.9674   -7.8138  -15.3872 C   0  0  1  0  0  0  0  0  0  0  0  0
   16.7064   -7.3566  -14.6708 C   0  0  0  0  0  0  0  0  0  0  0  0
   15.4903   -7.6675  -15.4341 C   0  0  0  0  0  0  0  0  0  0  0  0
   15.3994   -7.4145  -16.6433 O   0  0  0  0  0  0  0  0  0  0  0  0
   19.1106   -7.2207  -14.6078 C   0  0  0  0  0  0  0  0  0  0  0  0
   19.8027   -7.9677  -13.8646 O   0  0  0  0  0  0  0  0  0  0  0  0
   14.4246   -8.2568  -14.7812 O   0  0  0  0  0  0  0  0  0  0  0  0
   19.4520   -5.8555  -14.6666 N   0  0  0  0  0  0  0  0  0  0  0  0
   20.6637   -5.3093  -14.0854 C   0  0  1  0  0  0  0  0  0  0  0  0
   21.8985   -5.8759  -14.7553 C   0  0  0  0  0  0  0  0  0  0  0  0
   23.4032   -5.0640  -14.2147 S   0  0  0  0  0  0  0  0  0  0  0  0
   20.6408   -3.8261  -14.1471 C   0  0  0  0  0  0  0  0  0  0  0  0
   20.1302   -3.2209  -15.1145 O   0  0  0  0  0  0  0  0  0  0  0  0
   21.1907   -3.0686  -13.1231 O   0  0  0  0  0  0  0  0  0  0  0  0
  1  2  1  0
  2  4  1  0
  3  2  2  0
  5  4  1  0
  5  6  1  6
  5  7  1  0
  7  8  2  0
  9  7  1  0
  9 10  1  0
 10 14  1  0
 10 11  1  1
 11 12  1  0
 12 16  1  0
 13 12  2  0
 14 15  2  0
 17 14  1  0
 17 18  1  0
 18 21  1  0
 18 19  1  6
 19 20  1  0
 21 22  2  0
 21 23  1  0
M  END
$$$$
