SIK.pdb
     RDKit          3D

 24 23  0  0  1  0  0  0  0  0999 V2000
   26.9716  -18.9943  -15.9235 O   0  0  0  0  0  0  0  0  0  0  0  0
   27.8444  -19.0324  -14.8472 C   0  0  0  0  0  0  0  0  0  0  0  0
   28.0694  -20.4655  -14.3852 C   0  0  2  0  0  0  0  0  0  0  0  0
   28.2685  -21.3335  -15.5579 N   0  0  0  0  0  0  0  0  0  0  0  0
   26.8740  -20.9537  -13.6696 C   0  0  0  0  0  0  0  0  0  0  0  0
   26.1083  -21.8224  -14.1780 O   0  0  0  0  0  0  0  0  0  0  0  0
   26.8423  -20.4567   -8.2911 C   0  0  0  0  0  0  0  0  0  0  0  0
   26.6234  -21.2220   -9.6119 C   0  0  0  0  0  0  0  0  0  0  0  0
   25.4817  -20.5579  -10.2902 C   0  0  2  0  0  0  0  0  0  0  0  0
   24.1634  -20.7866   -9.5610 C   0  0  0  0  0  0  0  0  0  0  0  0
   25.2753  -20.8595  -11.7365 C   0  0  2  0  0  0  0  0  0  0  0  0
   26.5410  -20.4709  -12.3937 N   0  0  0  0  0  0  0  0  0  0  0  0
   24.1395  -20.2386  -12.3903 C   0  0  0  0  0  0  0  0  0  0  0  0
   24.2063  -19.0497  -12.8486 O   0  0  0  0  0  0  0  0  0  0  0  0
   22.9088  -20.9072  -12.5613 N   0  0  0  0  0  0  0  0  0  0  0  0
   21.7976  -20.2393  -13.2779 C   0  0  1  0  0  0  0  0  0  0  0  0
   22.1329  -20.4496  -14.7384 C   0  0  0  0  0  0  0  0  0  0  0  0
   21.0679  -20.0422  -15.6915 C   0  0  0  0  0  0  0  0  0  0  0  0
   21.5816  -20.4159  -17.0923 C   0  0  0  0  0  0  0  0  0  0  0  0
   20.5261  -19.9481  -18.0729 C   0  0  0  0  0  0  0  0  0  0  0  0
   20.9618  -20.3026  -19.4266 N   0  0  0  0  0  0  0  0  0  0  0  0
   20.5469  -20.9449  -12.9381 C   0  0  0  0  0  0  0  0  0  0  0  0
   19.4255  -20.3591  -13.0505 O   0  0  0  0  0  0  0  0  0  0  0  0
   20.5061  -22.2402  -12.4918 O   0  0  0  0  0  0  0  0  0  0  0  0
  1  2  1  0
  2  3  1  0
  3  5  1  0
  3  4  1  6
  5 12  1  0
  6  5  2  0
  7  8  1  0
  9 11  1  0
  9 10  1  1
  9  8  1  0
 11 12  1  6
 13 11  1  0
 13 14  2  0
 15 13  1  0
 16 15  1  0
 16 22  1  0
 16 17  1  6
 18 17  1  0
 18 19  1  0
 20 19  1  0
 21 20  1  0
 22 23  2  0
 22 24  1  0
M  END
$$$$
