SIK.pdb
     RDKit          3D

 24 23  0  0  1  0  0  0  0  0999 V2000
   15.8226   -9.2555  -17.5576 O   0  0  0  0  0  0  0  0  0  0  0  0
   16.8619   -8.7814  -16.7723 C   0  0  0  0  0  0  0  0  0  0  0  0
   17.4137   -9.8866  -15.8825 C   0  0  2  0  0  0  0  0  0  0  0  0
   16.4042  -10.2565  -14.8763 N   0  0  0  0  0  0  0  0  0  0  0  0
   18.6038   -9.3981  -15.1582 C   0  0  0  0  0  0  0  0  0  0  0  0
   18.4987   -8.7219  -14.0946 O   0  0  0  0  0  0  0  0  0  0  0  0
   23.1748  -12.2471  -14.9086 C   0  0  0  0  0  0  0  0  0  0  0  0
   21.9613  -11.3841  -14.5078 C   0  0  0  0  0  0  0  0  0  0  0  0
   22.1737  -10.0553  -15.1352 C   0  0  2  0  0  0  0  0  0  0  0  0
   23.4829   -9.4110  -14.6959 C   0  0  0  0  0  0  0  0  0  0  0  0
   21.0837   -9.0472  -14.9893 C   0  0  2  0  0  0  0  0  0  0  0  0
   19.9011   -9.6666  -15.6238 N   0  0  0  0  0  0  0  0  0  0  0  0
   21.3263   -7.7223  -15.5266 C   0  0  0  0  0  0  0  0  0  0  0  0
   21.7187   -7.5558  -16.7292 O   0  0  0  0  0  0  0  0  0  0  0  0
   21.1393   -6.5516  -14.7614 N   0  0  0  0  0  0  0  0  0  0  0  0
   21.4354   -5.2262  -15.3529 C   0  0  1  0  0  0  0  0  0  0  0  0
   20.0809   -4.5561  -15.4312 C   0  0  0  0  0  0  0  0  0  0  0  0
   20.0958   -3.1730  -15.9746 C   0  0  0  0  0  0  0  0  0  0  0  0
   18.6245   -2.7346  -16.0691 C   0  0  0  0  0  0  0  0  0  0  0  0
   18.6226   -1.3953  -16.7768 C   0  0  0  0  0  0  0  0  0  0  0  0
   17.2318   -0.9762  -16.9715 N   0  0  0  0  0  0  0  0  0  0  0  0
   22.3099   -4.4943  -14.4165 C   0  0  0  0  0  0  0  0  0  0  0  0
   22.3507   -4.8150  -13.1882 O   0  0  0  0  0  0  0  0  0  0  0  0
   23.1151   -3.4505  -14.7919 O   0  0  0  0  0  0  0  0  0  0  0  0
  1  2  1  0
  2  3  1  0
  3  5  1  0
  3  4  1  1
  5 12  1  0
  6  5  2  0
  7  8  1  0
  9 11  1  0
  9 10  1  1
  9  8  1  0
 11 12  1  6
 13 11  1  0
 13 14  2  0
 15 13  1  0
 16 15  1  0
 16 22  1  0
 16 17  1  1
 18 17  1  0
 18 19  1  0
 20 19  1  0
 21 20  1  0
 22 23  2  0
 22 24  1  0
M  END
$$$$
