SIK.pdb
     RDKit          3D

 24 23  0  0  1  0  0  0  0  0999 V2000
   28.2466  -18.2394  -16.0876 O   0  0  0  0  0  0  0  0  0  0  0  0
   27.2302  -18.9947  -15.5238 C   0  0  0  0  0  0  0  0  0  0  0  0
   27.8023  -20.1223  -14.6759 C   0  0  2  0  0  0  0  0  0  0  0  0
   28.4218  -21.1300  -15.5529 N   0  0  0  0  0  0  0  0  0  0  0  0
   26.7154  -20.7895  -13.9321 C   0  0  0  0  0  0  0  0  0  0  0  0
   26.0272  -21.7130  -14.4544 O   0  0  0  0  0  0  0  0  0  0  0  0
   26.7181  -20.5045   -8.4879 C   0  0  0  0  0  0  0  0  0  0  0  0
   26.5876  -21.2079   -9.8540 C   0  0  0  0  0  0  0  0  0  0  0  0
   25.3802  -20.6347  -10.5005 C   0  0  2  0  0  0  0  0  0  0  0  0
   24.0994  -20.9990   -9.7596 C   0  0  0  0  0  0  0  0  0  0  0  0
   25.1794  -20.9202  -11.9509 C   0  0  2  0  0  0  0  0  0  0  0  0
   26.4041  -20.4232  -12.6127 N   0  0  0  0  0  0  0  0  0  0  0  0
   23.9921  -20.3731  -12.5787 C   0  0  0  0  0  0  0  0  0  0  0  0
   23.8186  -19.1135  -12.6851 O   0  0  0  0  0  0  0  0  0  0  0  0
   22.9727  -21.1924  -13.1083 N   0  0  0  0  0  0  0  0  0  0  0  0
   21.7966  -20.5775  -13.7662 C   0  0  1  0  0  0  0  0  0  0  0  0
   21.7347  -21.2675  -15.1115 C   0  0  0  0  0  0  0  0  0  0  0  0
   20.5240  -20.9628  -15.9177 C   0  0  0  0  0  0  0  0  0  0  0  0
   20.6118  -21.8478  -17.1726 C   0  0  0  0  0  0  0  0  0  0  0  0
   20.9894  -20.9299  -18.3168 C   0  0  0  0  0  0  0  0  0  0  0  0
   21.0825  -21.7300  -19.5412 N   0  0  0  0  0  0  0  0  0  0  0  0
   20.6012  -20.9130  -12.9688 C   0  0  0  0  0  0  0  0  0  0  0  0
   20.6124  -21.9063  -12.1772 O   0  0  0  0  0  0  0  0  0  0  0  0
   19.4314  -20.2007  -13.0224 O   0  0  0  0  0  0  0  0  0  0  0  0
  1  2  1  0
  2  3  1  0
  3  5  1  0
  3  4  1  6
  5 12  1  0
  6  5  2  0
  7  8  1  0
  9 11  1  0
  9 10  1  1
  9  8  1  0
 11 12  1  6
 13 11  1  0
 13 14  2  0
 15 13  1  0
 16 15  1  0
 16 22  1  0
 16 17  1  6
 18 17  1  0
 18 19  1  0
 20 19  1  0
 21 20  1  0
 22 23  2  0
 22 24  1  0
M  END
$$$$
