SIK.pdb
     RDKit          3D

 24 23  0  0  1  0  0  0  0  0999 V2000
   25.9121  -19.2385  -15.0684 O   0  0  0  0  0  0  0  0  0  0  0  0
   27.2598  -19.2084  -14.7450 C   0  0  0  0  0  0  0  0  0  0  0  0
   27.6856  -20.5121  -14.0843 C   0  0  2  0  0  0  0  0  0  0  0  0
   28.0027  -21.5075  -15.1220 N   0  0  0  0  0  0  0  0  0  0  0  0
   26.5723  -21.0509  -13.2780 C   0  0  0  0  0  0  0  0  0  0  0  0
   25.9464  -22.0925  -13.6283 O   0  0  0  0  0  0  0  0  0  0  0  0
   26.9951  -20.2648   -7.9624 C   0  0  0  0  0  0  0  0  0  0  0  0
   26.8128  -21.0187   -9.2952 C   0  0  0  0  0  0  0  0  0  0  0  0
   25.4967  -20.5926   -9.8345 C   0  0  2  0  0  0  0  0  0  0  0  0
   24.3455  -20.9567   -8.9049 C   0  0  0  0  0  0  0  0  0  0  0  0
   25.1446  -21.0401  -11.2134 C   0  0  2  0  0  0  0  0  0  0  0  0
   26.1654  -20.4258  -12.0883 N   0  0  0  0  0  0  0  0  0  0  0  0
   23.8072  -20.7421  -11.6884 C   0  0  0  0  0  0  0  0  0  0  0  0
   22.7741  -21.1607  -11.0675 O   0  0  0  0  0  0  0  0  0  0  0  0
   23.5720  -19.9754  -12.8494 N   0  0  0  0  0  0  0  0  0  0  0  0
   22.1832  -19.6807  -13.2723 C   0  0  1  0  0  0  0  0  0  0  0  0
   22.3178  -19.3446  -14.7415 C   0  0  0  0  0  0  0  0  0  0  0  0
   21.0320  -19.2064  -15.4738 C   0  0  0  0  0  0  0  0  0  0  0  0
   21.1758  -17.9564  -16.3585 C   0  0  0  0  0  0  0  0  0  0  0  0
   19.8557  -17.7920  -17.0829 C   0  0  0  0  0  0  0  0  0  0  0  0
   19.9166  -16.5663  -17.8842 N   0  0  0  0  0  0  0  0  0  0  0  0
   21.3851  -20.9105  -13.1045 C   0  0  0  0  0  0  0  0  0  0  0  0
   20.2212  -20.8595  -12.5984 O   0  0  0  0  0  0  0  0  0  0  0  0
   21.8270  -22.1552  -13.4706 O   0  0  0  0  0  0  0  0  0  0  0  0
  1  2  1  0
  2  3  1  0
  3  5  1  0
  3  4  1  6
  5 12  1  0
  6  5  2  0
  7  8  1  0
  9 11  1  0
  9 10  1  1
  9  8  1  0
 11 12  1  6
 13 11  1  0
 13 14  2  0
 15 13  1  0
 16 15  1  0
 16 22  1  0
 16 17  1  6
 18 17  1  0
 18 19  1  0
 20 19  1  0
 21 20  1  0
 22 23  2  0
 22 24  1  0
M  END
$$$$
