SIK.pdb
     RDKit          3D

 24 23  0  0  1  0  0  0  0  0999 V2000
   33.1387  -25.3417  -15.3328 O   0  0  0  0  0  0  0  0  0  0  0  0
   31.8206  -25.2294  -15.7471 C   0  0  0  0  0  0  0  0  0  0  0  0
   31.6446  -25.7990  -17.1479 C   0  0  2  0  0  0  0  0  0  0  0  0
   32.3494  -24.9439  -18.1175 N   0  0  0  0  0  0  0  0  0  0  0  0
   30.2140  -25.7972  -17.5124 C   0  0  0  0  0  0  0  0  0  0  0  0
   29.7355  -24.9373  -18.3069 O   0  0  0  0  0  0  0  0  0  0  0  0
   28.1405  -30.0656  -19.4030 C   0  0  0  0  0  0  0  0  0  0  0  0
   28.4775  -28.5826  -19.1474 C   0  0  0  0  0  0  0  0  0  0  0  0
   27.7158  -28.1885  -17.9355 C   0  0  2  0  0  0  0  0  0  0  0  0
   26.2192  -28.4309  -18.0889 C   0  0  0  0  0  0  0  0  0  0  0  0
   27.9153  -26.8019  -17.4223 C   0  0  2  0  0  0  0  0  0  0  0  0
   29.3278  -26.7528  -16.9896 N   0  0  0  0  0  0  0  0  0  0  0  0
   27.0326  -26.3507  -16.3639 C   0  0  0  0  0  0  0  0  0  0  0  0
   26.9366  -26.9886  -15.2631 O   0  0  0  0  0  0  0  0  0  0  0  0
   26.2409  -25.1890  -16.4854 N   0  0  0  0  0  0  0  0  0  0  0  0
   25.3112  -24.8104  -15.3961 C   0  0  1  0  0  0  0  0  0  0  0  0
   24.9495  -23.3759  -15.7136 C   0  0  0  0  0  0  0  0  0  0  0  0
   23.8981  -22.7868  -14.8441 C   0  0  0  0  0  0  0  0  0  0  0  0
   23.7016  -21.3408  -15.3301 C   0  0  0  0  0  0  0  0  0  0  0  0
   22.6900  -20.7100  -14.3956 C   0  0  0  0  0  0  0  0  0  0  0  0
   22.4976  -19.3133  -14.7958 N   0  0  0  0  0  0  0  0  0  0  0  0
   24.1157  -25.6694  -15.4982 C   0  0  0  0  0  0  0  0  0  0  0  0
   23.7175  -26.0880  -16.6294 O   0  0  0  0  0  0  0  0  0  0  0  0
   23.3734  -26.0648  -14.4160 O   0  0  0  0  0  0  0  0  0  0  0  0
  1  2  1  0
  2  3  1  0
  3  5  1  0
  3  4  1  6
  5 12  1  0
  6  5  2  0
  7  8  1  0
  9 11  1  0
  9 10  1  6
  9  8  1  0
 11 12  1  1
 13 11  1  0
 13 14  2  0
 15 13  1  0
 16 15  1  0
 16 22  1  0
 16 17  1  6
 18 17  1  0
 18 19  1  0
 20 19  1  0
 21 20  1  0
 22 23  2  0
 22 24  1  0
M  END
$$$$
