SIK.pdb
     RDKit          3D

 24 23  0  0  1  0  0  0  0  0999 V2000
   28.5786  -17.8582  -14.7210 O   0  0  0  0  0  0  0  0  0  0  0  0
   27.7042  -18.9135  -14.5127 C   0  0  0  0  0  0  0  0  0  0  0  0
   28.3981  -20.0527  -13.7790 C   0  0  2  0  0  0  0  0  0  0  0  0
   29.0499  -20.9408  -14.7560 N   0  0  0  0  0  0  0  0  0  0  0  0
   27.4001  -20.8564  -13.0456 C   0  0  0  0  0  0  0  0  0  0  0  0
   26.8230  -21.8448  -13.5837 O   0  0  0  0  0  0  0  0  0  0  0  0
   26.9833  -20.3594   -7.5919 C   0  0  0  0  0  0  0  0  0  0  0  0
   27.0059  -21.1133   -8.9370 C   0  0  0  0  0  0  0  0  0  0  0  0
   25.8324  -20.6250   -9.7044 C   0  0  2  0  0  0  0  0  0  0  0  0
   24.5119  -21.0092   -9.0482 C   0  0  0  0  0  0  0  0  0  0  0  0
   25.7603  -20.9880  -11.1496 C   0  0  2  0  0  0  0  0  0  0  0  0
   27.0531  -20.5533  -11.7192 N   0  0  0  0  0  0  0  0  0  0  0  0
   24.6504  -20.4541  -11.9152 C   0  0  0  0  0  0  0  0  0  0  0  0
   24.5674  -19.2094  -12.1833 O   0  0  0  0  0  0  0  0  0  0  0  0
   23.6113  -21.2713  -12.4083 N   0  0  0  0  0  0  0  0  0  0  0  0
   22.5234  -20.6761  -13.2187 C   0  0  1  0  0  0  0  0  0  0  0  0
   22.3594  -21.6455  -14.3690 C   0  0  0  0  0  0  0  0  0  0  0  0
   21.1748  -21.4001  -15.2321 C   0  0  0  0  0  0  0  0  0  0  0  0
   21.1626  -22.5317  -16.2737 C   0  0  0  0  0  0  0  0  0  0  0  0
   19.9866  -22.2576  -17.1882 C   0  0  0  0  0  0  0  0  0  0  0  0
   20.0463  -23.1950  -18.3133 N   0  0  0  0  0  0  0  0  0  0  0  0
   21.2998  -20.6558  -12.3942 C   0  0  0  0  0  0  0  0  0  0  0  0
   21.1714  -21.4505  -11.4117 O   0  0  0  0  0  0  0  0  0  0  0  0
   20.2485  -19.8061  -12.6210 O   0  0  0  0  0  0  0  0  0  0  0  0
  1  2  1  0
  2  3  1  0
  3  5  1  0
  3  4  1  6
  5 12  1  0
  6  5  2  0
  7  8  1  0
  9 11  1  0
  9 10  1  1
  9  8  1  0
 11 12  1  6
 13 11  1  0
 13 14  2  0
 15 13  1  0
 16 15  1  0
 16 22  1  0
 16 17  1  6
 18 17  1  0
 18 19  1  0
 20 19  1  0
 21 20  1  0
 22 23  2  0
 22 24  1  0
M  END
$$$$
