SIK.pdb
     RDKit          3D

 24 23  0  0  1  0  0  0  0  0999 V2000
   16.9695  -10.7281  -18.6042 O   0  0  0  0  0  0  0  0  0  0  0  0
   17.4740  -10.4394  -17.3457 C   0  0  0  0  0  0  0  0  0  0  0  0
   18.4453  -11.5205  -16.8925 C   0  0  2  0  0  0  0  0  0  0  0  0
   17.7025  -12.5919  -16.2080 N   0  0  0  0  0  0  0  0  0  0  0  0
   19.4046  -10.9560  -15.9225 C   0  0  0  0  0  0  0  0  0  0  0  0
   19.1599  -10.9439  -14.6817 O   0  0  0  0  0  0  0  0  0  0  0  0
   25.0904  -10.9477  -14.8065 C   0  0  0  0  0  0  0  0  0  0  0  0
   23.8920  -10.0164  -14.5334 C   0  0  0  0  0  0  0  0  0  0  0  0
   22.8071  -10.4607  -15.4445 C   0  0  2  0  0  0  0  0  0  0  0  0
   23.2625  -10.5264  -16.8971 C   0  0  0  0  0  0  0  0  0  0  0  0
   21.5185   -9.7109  -15.3912 C   0  0  2  0  0  0  0  0  0  0  0  0
   20.6285  -10.4101  -16.3419 N   0  0  0  0  0  0  0  0  0  0  0  0
   21.5637   -8.2891  -15.6729 C   0  0  0  0  0  0  0  0  0  0  0  0
   21.9248   -7.8504  -16.8154 O   0  0  0  0  0  0  0  0  0  0  0  0
   21.2095   -7.3177  -14.7127 N   0  0  0  0  0  0  0  0  0  0  0  0
   21.3534   -5.8778  -15.0294 C   0  0  1  0  0  0  0  0  0  0  0  0
   19.9351   -5.3533  -14.9732 C   0  0  0  0  0  0  0  0  0  0  0  0
   19.8108   -3.8735  -15.0323 C   0  0  0  0  0  0  0  0  0  0  0  0
   19.2441   -3.5472  -16.4245 C   0  0  0  0  0  0  0  0  0  0  0  0
   19.0742   -2.0428  -16.4744 C   0  0  0  0  0  0  0  0  0  0  0  0
   18.6108   -1.6731  -17.8147 N   0  0  0  0  0  0  0  0  0  0  0  0
   22.1664   -5.2564  -13.9663 C   0  0  0  0  0  0  0  0  0  0  0  0
   22.8483   -4.2114  -14.2039 O   0  0  0  0  0  0  0  0  0  0  0  0
   22.2419   -5.7452  -12.6880 O   0  0  0  0  0  0  0  0  0  0  0  0
  1  2  1  0
  2  3  1  0
  3  5  1  0
  3  4  1  1
  5 12  1  0
  6  5  2  0
  7  8  1  0
  9 11  1  0
  9 10  1  6
  9  8  1  0
 11 12  1  6
 13 11  1  0
 13 14  2  0
 15 13  1  0
 16 15  1  0
 16 22  1  0
 16 17  1  1
 18 17  1  0
 18 19  1  0
 20 19  1  0
 21 20  1  0
 22 23  2  0
 22 24  1  0
M  END
$$$$
