SIK.pdb
     RDKit          3D

 24 23  0  0  1  0  0  0  0  0999 V2000
   20.1617  -10.4971  -18.9667 O   0  0  0  0  0  0  0  0  0  0  0  0
   20.1237  -11.8763  -18.8323 C   0  0  0  0  0  0  0  0  0  0  0  0
   21.5154  -12.4309  -18.5616 C   0  0  2  0  0  0  0  0  0  0  0  0
   21.4267  -13.8795  -18.3132 N   0  0  0  0  0  0  0  0  0  0  0  0
   22.0750  -11.8059  -17.3467 C   0  0  0  0  0  0  0  0  0  0  0  0
   21.6113  -12.0620  -16.1983 O   0  0  0  0  0  0  0  0  0  0  0  0
   27.0618  -10.7669  -14.7357 C   0  0  0  0  0  0  0  0  0  0  0  0
   25.6790  -10.0853  -14.7748 C   0  0  0  0  0  0  0  0  0  0  0  0
   24.9765  -10.6429  -15.9580 C   0  0  2  0  0  0  0  0  0  0  0  0
   25.7943  -10.5011  -17.2360 C   0  0  0  0  0  0  0  0  0  0  0  0
   23.5948  -10.1499  -16.2291 C   0  0  2  0  0  0  0  0  0  0  0  0
   23.1464  -10.9012  -17.4204 N   0  0  0  0  0  0  0  0  0  0  0  0
   23.4233   -8.7227  -16.4210 C   0  0  0  0  0  0  0  0  0  0  0  0
   23.8724   -8.1345  -17.4603 O   0  0  0  0  0  0  0  0  0  0  0  0
   22.7518   -7.9104  -15.4829 N   0  0  0  0  0  0  0  0  0  0  0  0
   22.5816   -6.4626  -15.7460 C   0  0  1  0  0  0  0  0  0  0  0  0
   21.1864   -6.3629  -16.3231 C   0  0  0  0  0  0  0  0  0  0  0  0
   20.7179   -4.9793  -16.5965 C   0  0  0  0  0  0  0  0  0  0  0  0
   19.2728   -5.1100  -17.1068 C   0  0  0  0  0  0  0  0  0  0  0  0
   18.7965   -3.7033  -17.4049 C   0  0  0  0  0  0  0  0  0  0  0  0
   17.4234   -3.7768  -17.9121 N   0  0  0  0  0  0  0  0  0  0  0  0
   22.6476   -5.7537  -14.4535 C   0  0  0  0  0  0  0  0  0  0  0  0
   22.4257   -6.3727  -13.3668 O   0  0  0  0  0  0  0  0  0  0  0  0
   22.9437   -4.4206  -14.3359 O   0  0  0  0  0  0  0  0  0  0  0  0
  1  2  1  0
  2  3  1  0
  3  5  1  0
  3  4  1  1
  5 12  1  0
  6  5  2  0
  7  8  1  0
  9 11  1  0
  9 10  1  6
  9  8  1  0
 11 12  1  6
 13 11  1  0
 13 14  2  0
 15 13  1  0
 16 15  1  0
 16 22  1  0
 16 17  1  1
 18 17  1  0
 18 19  1  0
 20 19  1  0
 21 20  1  0
 22 23  2  0
 22 24  1  0
M  END
$$$$
