SIK.pdb
     RDKit          3D

 24 23  0  0  1  0  0  0  0  0999 V2000
   20.9880  -22.8176  -11.6646 O   0  0  0  0  0  0  0  0  0  0  0  0
   21.7280  -21.7673  -12.1852 C   0  0  0  0  0  0  0  0  0  0  0  0
   22.9780  -21.5222  -11.3514 C   0  0  2  0  0  0  0  0  0  0  0  0
   22.5963  -20.9364  -10.0555 N   0  0  0  0  0  0  0  0  0  0  0  0
   23.8536  -20.5511  -12.0367 C   0  0  0  0  0  0  0  0  0  0  0  0
   23.6511  -19.3054  -11.9539 O   0  0  0  0  0  0  0  0  0  0  0  0
   28.9428  -20.9280  -11.4270 C   0  0  0  0  0  0  0  0  0  0  0  0
   27.5122  -20.3737  -11.5828 C   0  0  0  0  0  0  0  0  0  0  0  0
   27.2191  -20.3891  -13.0382 C   0  0  2  0  0  0  0  0  0  0  0  0
   28.2196  -19.5640  -13.8383 C   0  0  0  0  0  0  0  0  0  0  0  0
   25.8436  -19.9986  -13.4637 C   0  0  2  0  0  0  0  0  0  0  0  0
   24.9478  -20.9747  -12.8081 N   0  0  0  0  0  0  0  0  0  0  0  0
   25.5820  -19.9301  -14.8884 C   0  0  0  0  0  0  0  0  0  0  0  0
   25.6084  -20.9760  -15.6188 O   0  0  0  0  0  0  0  0  0  0  0  0
   25.2806  -18.7169  -15.5429 N   0  0  0  0  0  0  0  0  0  0  0  0
   24.9504  -18.7178  -16.9870 C   0  0  1  0  0  0  0  0  0  0  0  0
   24.4012  -17.3292  -17.2317 C   0  0  0  0  0  0  0  0  0  0  0  0
   24.1053  -17.0132  -18.6534 C   0  0  0  0  0  0  0  0  0  0  0  0
   23.6407  -15.5472  -18.6781 C   0  0  0  0  0  0  0  0  0  0  0  0
   23.2552  -15.2455  -20.1115 C   0  0  0  0  0  0  0  0  0  0  0  0
   21.9501  -15.8564  -20.3787 N   0  0  0  0  0  0  0  0  0  0  0  0
   26.2045  -18.9073  -17.7411 C   0  0  0  0  0  0  0  0  0  0  0  0
   26.2117  -19.5723  -18.8233 O   0  0  0  0  0  0  0  0  0  0  0  0
   27.4121  -18.3963  -17.3419 O   0  0  0  0  0  0  0  0  0  0  0  0
  1  2  1  0
  2  3  1  0
  3  5  1  0
  3  4  1  1
  5 12  1  0
  6  5  2  0
  7  8  1  0
  9 11  1  0
  9 10  1  6
  9  8  1  0
 11 12  1  1
 13 11  1  0
 13 14  2  0
 15 13  1  0
 16 15  1  0
 16 22  1  0
 16 17  1  6
 18 17  1  0
 18 19  1  0
 20 19  1  0
 21 20  1  0
 22 23  2  0
 22 24  1  0
M  END
$$$$
