SIK.pdb
     RDKit          3D

 24 23  0  0  1  0  0  0  0  0999 V2000
   27.2819  -18.6903  -15.6239 O   0  0  0  0  0  0  0  0  0  0  0  0
   28.2232  -18.8542  -14.6196 C   0  0  0  0  0  0  0  0  0  0  0  0
   28.3607  -20.3229  -14.2432 C   0  0  2  0  0  0  0  0  0  0  0  0
   28.5457  -21.1269  -15.4629 N   0  0  0  0  0  0  0  0  0  0  0  0
   27.1226  -20.7891  -13.5880 C   0  0  0  0  0  0  0  0  0  0  0  0
   26.3198  -21.5720  -14.1729 O   0  0  0  0  0  0  0  0  0  0  0  0
   26.9639  -20.6129   -8.1408 C   0  0  0  0  0  0  0  0  0  0  0  0
   26.8465  -21.2290   -9.5496 C   0  0  0  0  0  0  0  0  0  0  0  0
   25.6996  -20.5497  -10.2036 C   0  0  2  0  0  0  0  0  0  0  0  0
   24.3795  -20.8353   -9.4979 C   0  0  0  0  0  0  0  0  0  0  0  0
   25.5092  -20.7818  -11.6649 C   0  0  2  0  0  0  0  0  0  0  0  0
   26.7885  -20.3802  -12.2868 N   0  0  0  0  0  0  0  0  0  0  0  0
   24.3903  -20.1165  -12.3041 C   0  0  0  0  0  0  0  0  0  0  0  0
   24.2990  -18.8440  -12.3245 O   0  0  0  0  0  0  0  0  0  0  0  0
   23.3512  -20.8290  -12.9391 N   0  0  0  0  0  0  0  0  0  0  0  0
   22.1889  -20.1003  -13.4982 C   0  0  1  0  0  0  0  0  0  0  0  0
   22.0822  -20.6244  -14.9137 C   0  0  0  0  0  0  0  0  0  0  0  0
   20.8901  -20.1563  -15.6677 C   0  0  0  0  0  0  0  0  0  0  0  0
   20.9173  -20.8986  -17.0146 C   0  0  0  0  0  0  0  0  0  0  0  0
   19.7549  -20.3596  -17.8226 C   0  0  0  0  0  0  0  0  0  0  0  0
   19.7865  -20.9796  -19.1502 N   0  0  0  0  0  0  0  0  0  0  0  0
   20.9937  -20.4857  -12.7232 C   0  0  0  0  0  0  0  0  0  0  0  0
   19.9786  -19.7234  -12.6824 O   0  0  0  0  0  0  0  0  0  0  0  0
   20.8956  -21.6553  -12.0153 O   0  0  0  0  0  0  0  0  0  0  0  0
  1  2  1  0
  2  3  1  0
  3  5  1  0
  3  4  1  6
  5 12  1  0
  6  5  2  0
  7  8  1  0
  9 11  1  0
  9 10  1  1
  9  8  1  0
 11 12  1  6
 13 11  1  0
 13 14  2  0
 15 13  1  0
 16 15  1  0
 16 22  1  0
 16 17  1  6
 18 17  1  0
 18 19  1  0
 20 19  1  0
 21 20  1  0
 22 23  2  0
 22 24  1  0
M  END
$$$$
