SIK.pdb
     RDKit          3D

 24 23  0  0  1  0  0  0  0  0999 V2000
   29.4571  -20.5831  -12.6034 O   0  0  0  0  0  0  0  0  0  0  0  0
   30.4275  -20.1203  -11.7284 C   0  0  0  0  0  0  0  0  0  0  0  0
   30.6187  -21.0913  -10.5716 C   0  0  2  0  0  0  0  0  0  0  0  0
   31.1083  -22.3802  -11.0885 N   0  0  0  0  0  0  0  0  0  0  0  0
   29.3229  -21.3420   -9.9099 C   0  0  0  0  0  0  0  0  0  0  0  0
   28.6798  -22.4140  -10.1010 O   0  0  0  0  0  0  0  0  0  0  0  0
   28.3295  -19.6318   -4.9316 C   0  0  0  0  0  0  0  0  0  0  0  0
   28.4632  -20.4748   -6.2160 C   0  0  0  0  0  0  0  0  0  0  0  0
   27.4162  -19.9808   -7.1456 C   0  0  2  0  0  0  0  0  0  0  0  0
   26.0181  -20.0813   -6.5480 C   0  0  0  0  0  0  0  0  0  0  0  0
   27.3833  -20.5707   -8.5155 C   0  0  2  0  0  0  0  0  0  0  0  0
   28.7540  -20.3972   -9.0407 N   0  0  0  0  0  0  0  0  0  0  0  0
   26.4017  -20.0435   -9.4436 C   0  0  0  0  0  0  0  0  0  0  0  0
   26.3887  -18.8088   -9.7650 O   0  0  0  0  0  0  0  0  0  0  0  0
   25.4174  -20.8571  -10.0439 N   0  0  0  0  0  0  0  0  0  0  0  0
   24.5275  -20.2943  -11.0859 C   0  0  1  0  0  0  0  0  0  0  0  0
   24.8426  -21.1209  -12.3135 C   0  0  0  0  0  0  0  0  0  0  0  0
   24.0194  -20.8059  -13.5101 C   0  0  0  0  0  0  0  0  0  0  0  0
   24.4166  -21.8321  -14.5848 C   0  0  0  0  0  0  0  0  0  0  0  0
   23.7076  -21.4145  -15.8566 C   0  0  0  0  0  0  0  0  0  0  0  0
   24.0988  -22.3343  -16.9285 N   0  0  0  0  0  0  0  0  0  0  0  0
   23.1317  -20.5229  -10.6651 C   0  0  0  0  0  0  0  0  0  0  0  0
   22.1688  -20.0314  -11.3318 O   0  0  0  0  0  0  0  0  0  0  0  0
   22.7849  -21.2579   -9.5614 O   0  0  0  0  0  0  0  0  0  0  0  0
  1  2  1  0
  2  3  1  0
  3  5  1  0
  3  4  1  6
  5 12  1  0
  6  5  2  0
  7  8  1  0
  9 11  1  0
  9 10  1  1
  9  8  1  0
 11 12  1  6
 13 11  1  0
 13 14  2  0
 15 13  1  0
 16 15  1  0
 16 22  1  0
 16 17  1  6
 18 17  1  0
 18 19  1  0
 20 19  1  0
 21 20  1  0
 22 23  2  0
 22 24  1  0
M  END
$$$$
