SIK.pdb
     RDKit          3D

 24 23  0  0  1  0  0  0  0  0999 V2000
   19.1005  -12.6545  -18.3947 O   0  0  0  0  0  0  0  0  0  0  0  0
   19.7966  -11.8705  -17.4880 C   0  0  0  0  0  0  0  0  0  0  0  0
   21.0676  -12.5730  -17.0311 C   0  0  2  0  0  0  0  0  0  0  0  0
   20.7135  -13.7950  -16.2898 N   0  0  0  0  0  0  0  0  0  0  0  0
   21.8194  -11.6975  -16.1102 C   0  0  0  0  0  0  0  0  0  0  0  0
   21.4809  -11.5668  -14.8987 O   0  0  0  0  0  0  0  0  0  0  0  0
   26.9863  -11.7824  -15.5292 C   0  0  0  0  0  0  0  0  0  0  0  0
   25.4726  -11.6746  -15.2553 C   0  0  0  0  0  0  0  0  0  0  0  0
   25.0600  -10.3319  -15.7363 C   0  0  2  0  0  0  0  0  0  0  0  0
   25.8459   -9.2112  -15.0668 C   0  0  0  0  0  0  0  0  0  0  0  0
   23.6086   -9.9946  -15.6630 C   0  0  2  0  0  0  0  0  0  0  0  0
   22.9420  -10.9751  -16.5456 N   0  0  0  0  0  0  0  0  0  0  0  0
   23.2221   -8.6400  -16.0073 C   0  0  0  0  0  0  0  0  0  0  0  0
   23.4994   -8.1407  -17.1482 O   0  0  0  0  0  0  0  0  0  0  0  0
   22.5192   -7.8053  -15.1127 N   0  0  0  0  0  0  0  0  0  0  0  0
   22.1997   -6.4111  -15.4982 C   0  0  1  0  0  0  0  0  0  0  0  0
   20.6884   -6.3953  -15.5724 C   0  0  0  0  0  0  0  0  0  0  0  0
   20.1126   -7.0486  -16.7767 C   0  0  0  0  0  0  0  0  0  0  0  0
   18.5850   -6.9445  -16.6307 C   0  0  0  0  0  0  0  0  0  0  0  0
   17.9930   -7.5950  -17.8639 C   0  0  0  0  0  0  0  0  0  0  0  0
   16.5388   -7.4154  -17.8296 N   0  0  0  0  0  0  0  0  0  0  0  0
   22.6636   -5.5215  -14.4161 C   0  0  0  0  0  0  0  0  0  0  0  0
   22.9210   -5.9887  -13.2634 O   0  0  0  0  0  0  0  0  0  0  0  0
   22.8446   -4.1718  -14.5715 O   0  0  0  0  0  0  0  0  0  0  0  0
  1  2  1  0
  2  3  1  0
  3  5  1  0
  3  4  1  1
  5 12  1  0
  6  5  2  0
  7  8  1  0
  9 11  1  0
  9 10  1  1
  9  8  1  0
 11 12  1  6
 13 11  1  0
 13 14  2  0
 15 13  1  0
 16 15  1  0
 16 22  1  0
 16 17  1  1
 18 17  1  0
 18 19  1  0
 20 19  1  0
 21 20  1  0
 22 23  2  0
 22 24  1  0
M  END
$$$$
