SIK.pdb
     RDKit          3D

 24 23  0  0  1  0  0  0  0  0999 V2000
   17.7236  -12.6669  -19.1347 O   0  0  0  0  0  0  0  0  0  0  0  0
   17.7252  -11.8122  -18.0433 C   0  0  0  0  0  0  0  0  0  0  0  0
   18.7735  -12.2390  -17.0251 C   0  0  2  0  0  0  0  0  0  0  0  0
   18.2711  -13.3903  -16.2567 N   0  0  0  0  0  0  0  0  0  0  0  0
   19.0186  -11.1407  -16.0695 C   0  0  0  0  0  0  0  0  0  0  0  0
   18.3200  -11.0062  -15.0239 O   0  0  0  0  0  0  0  0  0  0  0  0
   23.5408  -10.3430  -13.8509 C   0  0  0  0  0  0  0  0  0  0  0  0
   22.0339  -10.4534  -14.1596 C   0  0  0  0  0  0  0  0  0  0  0  0
   21.6717   -9.2178  -14.8987 C   0  0  2  0  0  0  0  0  0  0  0  0
   22.0579   -7.9549  -14.1384 C   0  0  0  0  0  0  0  0  0  0  0  0
   20.2560   -9.0791  -15.3483 C   0  0  2  0  0  0  0  0  0  0  0  0
   20.0397  -10.2013  -16.2857 N   0  0  0  0  0  0  0  0  0  0  0  0
   19.8697   -7.8180  -15.9511 C   0  0  0  0  0  0  0  0  0  0  0  0
   20.4391   -7.3861  -17.0081 O   0  0  0  0  0  0  0  0  0  0  0  0
   18.8487   -7.0059  -15.4135 N   0  0  0  0  0  0  0  0  0  0  0  0
   18.4810   -5.7382  -16.0858 C   0  0  1  0  0  0  0  0  0  0  0  0
   16.9724   -5.6964  -15.9755 C   0  0  0  0  0  0  0  0  0  0  0  0
   16.3488   -4.4112  -16.3855 C   0  0  0  0  0  0  0  0  0  0  0  0
   14.8408   -4.5651  -16.1246 C   0  0  0  0  0  0  0  0  0  0  0  0
   14.1972   -3.2652  -16.5612 C   0  0  0  0  0  0  0  0  0  0  0  0
   12.7423   -3.4135  -16.4653 N   0  0  0  0  0  0  0  0  0  0  0  0
   19.0765   -4.6266  -15.3195 C   0  0  0  0  0  0  0  0  0  0  0  0
   19.2929   -4.7458  -14.0736 O   0  0  0  0  0  0  0  0  0  0  0  0
   19.4278   -3.4252  -15.8781 O   0  0  0  0  0  0  0  0  0  0  0  0
  1  2  1  0
  2  3  1  0
  3  5  1  0
  3  4  1  1
  5 12  1  0
  6  5  2  0
  7  8  1  0
  9 11  1  0
  9 10  1  1
  9  8  1  0
 11 12  1  6
 13 11  1  0
 13 14  2  0
 15 13  1  0
 16 15  1  0
 16 22  1  0
 16 17  1  1
 18 17  1  0
 18 19  1  0
 20 19  1  0
 21 20  1  0
 22 23  2  0
 22 24  1  0
M  END
$$$$
