ACW.pdb
     RDKit          3D

 26 27  0  0  1  0  0  0  0  0999 V2000
   10.4436  -17.5796   17.0809 C   0  0  0  0  0  0  0  0  0  0  0  0
   10.2730  -18.3349   18.3773 C   0  0  2  0  0  0  0  0  0  0  0  0
    9.2142  -19.3226   18.3092 N   0  0  0  0  0  0  0  0  0  0  0  0
    9.9575  -17.3923   19.4806 C   0  0  0  0  0  0  0  0  0  0  0  0
   10.8086  -16.5111   19.8013 O   0  0  0  0  0  0  0  0  0  0  0  0
    8.7405  -17.4411   20.1886 N   0  0  0  0  0  0  0  0  0  0  0  0
    8.5363  -16.6240   21.3637 C   0  0  1  0  0  0  0  0  0  0  0  0
    7.0894  -16.2048   21.5265 C   0  0  0  0  0  0  0  0  0  0  0  0
    6.4268  -16.6246   23.1429 S   0  0  0  0  0  0  0  0  0  0  0  0
    9.0460  -17.3007   22.5895 C   0  0  0  0  0  0  0  0  0  0  0  0
    8.4453  -18.3301   22.9786 O   0  0  0  0  0  0  0  0  0  0  0  0
   10.1566  -16.8388   23.3157 N   0  0  0  0  0  0  0  0  0  0  0  0
   10.0906  -16.1166   24.5822 C   0  0  1  0  0  0  0  0  0  0  0  0
    9.3249  -14.8568   24.4493 C   0  0  0  0  0  0  0  0  0  0  0  0
    8.9296  -14.3000   25.7497 C   0  0  0  0  0  0  0  0  0  0  0  0
    9.4747  -14.6145   27.0009 C   0  0  0  0  0  0  0  0  0  0  0  0
    8.8364  -13.9389   27.9551 N   0  0  0  0  0  0  0  0  0  0  0  0
    7.8948  -13.1957   27.3620 C   0  0  0  0  0  0  0  0  0  0  0  0
    6.9790  -12.3087   27.9211 C   0  0  0  0  0  0  0  0  0  0  0  0
    6.1155  -11.6430   27.0811 C   0  0  0  0  0  0  0  0  0  0  0  0
    6.1211  -11.8192   25.7125 C   0  0  0  0  0  0  0  0  0  0  0  0
    7.0286  -12.6980   25.1687 C   0  0  0  0  0  0  0  0  0  0  0  0
    7.9046  -13.3770   25.9976 C   0  0  0  0  0  0  0  0  0  0  0  0
    9.8254  -16.9405   25.7454 C   0  0  0  0  0  0  0  0  0  0  0  0
   10.6139  -16.9706   26.7256 O   0  0  0  0  0  0  0  0  0  0  0  0
    8.6769  -17.7398   25.8452 O   0  0  0  0  0  0  0  0  0  0  0  0
  2  4  1  0
  2  1  1  6
  3  2  1  0
  4  5  2  0
  6  7  1  0
  6  4  1  0
  8  9  1  0
  7  8  1  1
 10 12  1  0
 10  7  1  0
 11 10  2  0
 13 12  1  0
 13 14  1  6
 14 15  1  0
 15 16  2  0
 16 17  1  0
 18 19  2  0
 18 17  1  0
 20 19  1  0
 21 20  2  0
 22 21  1  0
 22 23  2  0
 23 15  1  0
 23 18  1  0
 24 13  1  0
 25 24  2  0
 26 24  1  0
M  END
$$$$
