ACW.pdb
     RDKit          3D

 26 27  0  0  1  0  0  0  0  0999 V2000
    7.8022  -12.3349   20.3461 C   0  0  0  0  0  0  0  0  0  0  0  0
    7.9420  -13.6268   19.5770 C   0  0  2  0  0  0  0  0  0  0  0  0
    6.8367  -13.8536   18.6670 N   0  0  0  0  0  0  0  0  0  0  0  0
    8.0130  -14.7756   20.5154 C   0  0  0  0  0  0  0  0  0  0  0  0
    6.9497  -15.3964   20.8118 O   0  0  0  0  0  0  0  0  0  0  0  0
    9.2248  -15.2038   21.0922 N   0  0  0  0  0  0  0  0  0  0  0  0
    9.2638  -16.3651   21.9525 C   0  0  1  0  0  0  0  0  0  0  0  0
    9.9879  -17.5308   21.3103 C   0  0  0  0  0  0  0  0  0  0  0  0
    9.9511  -19.0113   22.3275 S   0  0  0  0  0  0  0  0  0  0  0  0
    9.8439  -16.0336   23.2844 C   0  0  0  0  0  0  0  0  0  0  0  0
   10.8406  -15.2735   23.3123 O   0  0  0  0  0  0  0  0  0  0  0  0
    9.3263  -16.5306   24.4923 N   0  0  0  0  0  0  0  0  0  0  0  0
    9.9207  -16.3238   25.8090 C   0  0  1  0  0  0  0  0  0  0  0  0
    8.8840  -16.1669   26.8539 C   0  0  0  0  0  0  0  0  0  0  0  0
    7.7281  -15.3907   26.3862 C   0  0  0  0  0  0  0  0  0  0  0  0
    6.5473  -15.8939   25.8260 C   0  0  0  0  0  0  0  0  0  0  0  0
    5.7426  -14.8877   25.4876 N   0  0  0  0  0  0  0  0  0  0  0  0
    6.3644  -13.7478   25.8112 C   0  0  0  0  0  0  0  0  0  0  0  0
    5.9353  -12.4306   25.6729 C   0  0  0  0  0  0  0  0  0  0  0  0
    6.7660  -11.4224   26.1065 C   0  0  0  0  0  0  0  0  0  0  0  0
    8.0020  -11.6641   26.6704 C   0  0  0  0  0  0  0  0  0  0  0  0
    8.4182  -12.9683   26.8025 C   0  0  0  0  0  0  0  0  0  0  0  0
    7.5969  -13.9955   26.3716 C   0  0  0  0  0  0  0  0  0  0  0  0
   11.0520  -17.1782   26.1129 C   0  0  0  0  0  0  0  0  0  0  0  0
   11.7373  -17.0186   27.1560 O   0  0  0  0  0  0  0  0  0  0  0  0
   11.4386  -18.2297   25.2686 O   0  0  0  0  0  0  0  0  0  0  0  0
  2  4  1  0
  2  1  1  1
  3  2  1  0
  4  5  2  0
  6  7  1  0
  6  4  1  0
  8  9  1  0
  7  8  1  6
 10 12  1  0
 10  7  1  0
 11 10  2  0
 13 12  1  0
 13 14  1  1
 14 15  1  0
 15 16  2  0
 16 17  1  0
 18 19  2  0
 18 17  1  0
 20 19  1  0
 21 20  2  0
 22 21  1  0
 22 23  2  0
 23 15  1  0
 23 18  1  0
 24 13  1  0
 25 24  2  0
 26 24  1  0
M  END
$$$$
