ACW.pdb
     RDKit          3D

 26 27  0  0  1  0  0  0  0  0999 V2000
    8.3680  -12.2572   19.1789 C   0  0  0  0  0  0  0  0  0  0  0  0
    8.4169  -13.6352   18.5635 C   0  0  2  0  0  0  0  0  0  0  0  0
    7.3519  -13.8530   17.6045 N   0  0  0  0  0  0  0  0  0  0  0  0
    8.3075  -14.6719   19.6212 C   0  0  0  0  0  0  0  0  0  0  0  0
    7.1601  -15.0090   20.0379 O   0  0  0  0  0  0  0  0  0  0  0  0
    9.4377  -15.2984   20.1823 N   0  0  0  0  0  0  0  0  0  0  0  0
    9.2890  -16.4021   21.1043 C   0  0  1  0  0  0  0  0  0  0  0  0
    9.7301  -17.7189   20.4985 C   0  0  0  0  0  0  0  0  0  0  0  0
    9.8575  -19.0316   21.7186 S   0  0  0  0  0  0  0  0  0  0  0  0
    9.9935  -16.1332   22.3894 C   0  0  0  0  0  0  0  0  0  0  0  0
   11.1934  -15.7744   22.3314 O   0  0  0  0  0  0  0  0  0  0  0  0
    9.3763  -16.2631   23.6449 N   0  0  0  0  0  0  0  0  0  0  0  0
   10.0608  -16.1733   24.9306 C   0  0  1  0  0  0  0  0  0  0  0  0
    9.8225  -14.8657   25.5822 C   0  0  0  0  0  0  0  0  0  0  0  0
    8.3984  -14.6203   25.8448 C   0  0  0  0  0  0  0  0  0  0  0  0
    7.3484  -15.5380   25.7161 C   0  0  0  0  0  0  0  0  0  0  0  0
    6.1911  -14.9446   26.0045 N   0  0  0  0  0  0  0  0  0  0  0  0
    6.4579  -13.6709   26.3165 C   0  0  0  0  0  0  0  0  0  0  0  0
    5.5935  -12.6502   26.7028 C   0  0  0  0  0  0  0  0  0  0  0  0
    6.1268  -11.4147   26.9918 C   0  0  0  0  0  0  0  0  0  0  0  0
    7.4785  -11.1484   26.9143 C   0  0  0  0  0  0  0  0  0  0  0  0
    8.3251  -12.1624   26.5312 C   0  0  0  0  0  0  0  0  0  0  0  0
    7.8072  -13.4113   26.2358 C   0  0  0  0  0  0  0  0  0  0  0  0
    9.9687  -17.3595   25.7592 C   0  0  0  0  0  0  0  0  0  0  0  0
   10.6557  -17.4878   26.8056 O   0  0  0  0  0  0  0  0  0  0  0  0
    9.1072  -18.4214   25.4458 O   0  0  0  0  0  0  0  0  0  0  0  0
  2  4  1  0
  2  1  1  1
  3  2  1  0
  4  5  2  0
  6  7  1  0
  6  4  1  0
  8  9  1  0
  7  8  1  6
 10 12  1  0
 10  7  1  0
 11 10  2  0
 13 12  1  0
 13 14  1  1
 14 15  1  0
 15 16  2  0
 16 17  1  0
 18 19  2  0
 18 17  1  0
 20 19  1  0
 21 20  2  0
 22 21  1  0
 22 23  2  0
 23 15  1  0
 23 18  1  0
 24 13  1  0
 25 24  2  0
 26 24  1  0
M  END
$$$$
