ACW.pdb
     RDKit          3D

 26 27  0  0  1  0  0  0  0  0999 V2000
   10.1582  -18.0285   18.0230 C   0  0  0  0  0  0  0  0  0  0  0  0
   10.1636  -18.1256   19.5298 C   0  0  2  0  0  0  0  0  0  0  0  0
    9.1598  -19.0437   20.0306 N   0  0  0  0  0  0  0  0  0  0  0  0
    9.9111  -16.7906   20.1293 C   0  0  0  0  0  0  0  0  0  0  0  0
   10.7193  -15.8450   19.8915 O   0  0  0  0  0  0  0  0  0  0  0  0
    8.8006  -16.5341   20.9573 N   0  0  0  0  0  0  0  0  0  0  0  0
    8.5609  -15.2084   21.4820 C   0  0  1  0  0  0  0  0  0  0  0  0
    7.2442  -14.6315   21.0032 C   0  0  0  0  0  0  0  0  0  0  0  0
    5.8330  -15.6246   21.5033 S   0  0  0  0  0  0  0  0  0  0  0  0
    8.6526  -15.1894   22.9691 C   0  0  0  0  0  0  0  0  0  0  0  0
    8.0801  -14.2533   23.5756 O   0  0  0  0  0  0  0  0  0  0  0  0
    9.3441  -16.1641   23.7079 N   0  0  0  0  0  0  0  0  0  0  0  0
   10.1022  -15.9112   24.9291 C   0  0  1  0  0  0  0  0  0  0  0  0
    9.2860  -16.1665   26.1372 C   0  0  0  0  0  0  0  0  0  0  0  0
    8.0219  -15.4188   26.1294 C   0  0  0  0  0  0  0  0  0  0  0  0
    6.7500  -15.9188   25.8232 C   0  0  0  0  0  0  0  0  0  0  0  0
    5.8514  -14.9374   25.8846 N   0  0  0  0  0  0  0  0  0  0  0  0
    6.5005  -13.8167   26.2215 C   0  0  0  0  0  0  0  0  0  0  0  0
    6.0075  -12.5311   26.4266 C   0  0  0  0  0  0  0  0  0  0  0  0
    6.8917  -11.5410   26.7905 C   0  0  0  0  0  0  0  0  0  0  0  0
    8.2418  -11.7709   26.9593 C   0  0  0  0  0  0  0  0  0  0  0  0
    8.7203  -13.0439   26.7538 C   0  0  0  0  0  0  0  0  0  0  0  0
    7.8465  -14.0524   26.3868 C   0  0  0  0  0  0  0  0  0  0  0  0
   11.4620  -16.4143   24.9225 C   0  0  0  0  0  0  0  0  0  0  0  0
   12.2470  -16.2051   25.8835 O   0  0  0  0  0  0  0  0  0  0  0  0
   11.9729  -17.1647   23.8531 O   0  0  0  0  0  0  0  0  0  0  0  0
  2  4  1  0
  2  1  1  6
  3  2  1  0
  4  5  2  0
  6  7  1  0
  6  4  1  0
  8  9  1  0
  7  8  1  1
 10 12  1  0
 10  7  1  0
 11 10  2  0
 13 12  1  0
 13 14  1  1
 14 15  1  0
 15 16  2  0
 16 17  1  0
 18 19  2  0
 18 17  1  0
 20 19  1  0
 21 20  2  0
 22 21  1  0
 22 23  2  0
 23 15  1  0
 23 18  1  0
 24 13  1  0
 25 24  2  0
 26 24  1  0
M  END
$$$$
