ACW.pdb
     RDKit          3D

 26 27  0  0  1  0  0  0  0  0999 V2000
    9.5841  -19.5875   19.7849 C   0  0  0  0  0  0  0  0  0  0  0  0
    9.7851  -18.2507   19.1123 C   0  0  2  0  0  0  0  0  0  0  0  0
   10.9617  -18.2264   18.2659 N   0  0  0  0  0  0  0  0  0  0  0  0
    9.9259  -17.1808   20.1326 C   0  0  0  0  0  0  0  0  0  0  0  0
   11.0649  -16.9579   20.6393 O   0  0  0  0  0  0  0  0  0  0  0  0
    8.8346  -16.3997   20.5611 N   0  0  0  0  0  0  0  0  0  0  0  0
    9.0098  -15.3721   21.5629 C   0  0  1  0  0  0  0  0  0  0  0  0
    7.9055  -14.3356   21.5207 C   0  0  0  0  0  0  0  0  0  0  0  0
    6.2782  -15.0497   21.7853 S   0  0  0  0  0  0  0  0  0  0  0  0
    9.1492  -15.9610   22.9246 C   0  0  0  0  0  0  0  0  0  0  0  0
    8.6730  -17.1050   23.1156 O   0  0  0  0  0  0  0  0  0  0  0  0
    9.7839  -15.2961   23.9871 N   0  0  0  0  0  0  0  0  0  0  0  0
   10.0614  -15.8783   25.2963 C   0  0  1  0  0  0  0  0  0  0  0  0
    8.8469  -16.4802   25.8910 C   0  0  0  0  0  0  0  0  0  0  0  0
    7.7005  -15.5622   25.8771 C   0  0  0  0  0  0  0  0  0  0  0  0
    6.3962  -15.8505   25.4565 C   0  0  0  0  0  0  0  0  0  0  0  0
    5.6382  -14.7594   25.5527 N   0  0  0  0  0  0  0  0  0  0  0  0
    6.4100  -13.7724   26.0230 C   0  0  0  0  0  0  0  0  0  0  0  0
    6.0847  -12.4501   26.3119 C   0  0  0  0  0  0  0  0  0  0  0  0
    7.0691  -11.6276   26.8110 C   0  0  0  0  0  0  0  0  0  0  0  0
    8.3602  -12.0597   27.0353 C   0  0  0  0  0  0  0  0  0  0  0  0
    8.6730  -13.3675   26.7463 C   0  0  0  0  0  0  0  0  0  0  0  0
    7.6966  -14.2094   26.2431 C   0  0  0  0  0  0  0  0  0  0  0  0
   11.2940  -16.6371   25.3818 C   0  0  0  0  0  0  0  0  0  0  0  0
   12.0877  -16.7171   24.4087 O   0  0  0  0  0  0  0  0  0  0  0  0
   11.6716  -17.3144   26.5508 O   0  0  0  0  0  0  0  0  0  0  0  0
  2  4  1  0
  2  1  1  1
  3  2  1  0
  4  5  2  0
  6  7  1  0
  6  4  1  0
  8  9  1  0
  7  8  1  1
 10 12  1  0
 10  7  1  0
 11 10  2  0
 13 12  1  0
 13 14  1  6
 14 15  1  0
 15 16  2  0
 16 17  1  0
 18 19  2  0
 18 17  1  0
 20 19  1  0
 21 20  2  0
 22 21  1  0
 22 23  2  0
 23 15  1  0
 23 18  1  0
 24 13  1  0
 25 24  2  0
 26 24  1  0
M  END
$$$$
