ACW.pdb
     RDKit          3D

 26 27  0  0  1  0  0  0  0  0999 V2000
    7.9939  -12.3117   18.7327 C   0  0  0  0  0  0  0  0  0  0  0  0
    8.4637  -13.5795   18.0605 C   0  0  2  0  0  0  0  0  0  0  0  0
    7.3789  -14.3130   17.4387 N   0  0  0  0  0  0  0  0  0  0  0  0
    9.1183  -14.4714   19.0512 C   0  0  0  0  0  0  0  0  0  0  0  0
    8.4110  -15.3000   19.6970 O   0  0  0  0  0  0  0  0  0  0  0  0
   10.5040  -14.4308   19.3020 N   0  0  0  0  0  0  0  0  0  0  0  0
   11.1060  -15.3206   20.2695 C   0  0  1  0  0  0  0  0  0  0  0  0
   12.6071  -15.4282   20.0936 C   0  0  0  0  0  0  0  0  0  0  0  0
   13.4293  -13.8337   20.1898 S   0  0  0  0  0  0  0  0  0  0  0  0
   10.7499  -14.9279   21.6620 C   0  0  0  0  0  0  0  0  0  0  0  0
   10.6779  -13.7033   21.9211 O   0  0  0  0  0  0  0  0  0  0  0  0
   10.4946  -15.8608   22.6811 N   0  0  0  0  0  0  0  0  0  0  0  0
    9.6730  -15.6117   23.8612 C   0  0  1  0  0  0  0  0  0  0  0  0
    8.2972  -15.2113   23.4899 C   0  0  0  0  0  0  0  0  0  0  0  0
    7.4793  -14.8615   24.6586 C   0  0  0  0  0  0  0  0  0  0  0  0
    6.5651  -15.6879   25.3241 C   0  0  0  0  0  0  0  0  0  0  0  0
    5.9838  -15.0136   26.3149 N   0  0  0  0  0  0  0  0  0  0  0  0
    6.4926  -13.7759   26.3132 C   0  0  0  0  0  0  0  0  0  0  0  0
    6.2228  -12.7024   27.1576 C   0  0  0  0  0  0  0  0  0  0  0  0
    6.9035  -11.5233   26.9556 C   0  0  0  0  0  0  0  0  0  0  0  0
    7.8387  -11.3633   25.9537 C   0  0  0  0  0  0  0  0  0  0  0  0
    8.0984  -12.4288   25.1237 C   0  0  0  0  0  0  0  0  0  0  0  0
    7.4234  -13.6224   25.3109 C   0  0  0  0  0  0  0  0  0  0  0  0
    9.8217  -16.5818   24.9285 C   0  0  0  0  0  0  0  0  0  0  0  0
    9.7538  -17.8189   24.7092 O   0  0  0  0  0  0  0  0  0  0  0  0
   10.0558  -16.1968   26.2570 O   0  0  0  0  0  0  0  0  0  0  0  0
  2  4  1  0
  2  1  1  1
  3  2  1  0
  4  5  2  0
  6  7  1  0
  6  4  1  0
  8  9  1  0
  7  8  1  1
 10 12  1  0
 10  7  1  0
 11 10  2  0
 13 12  1  0
 13 14  1  6
 14 15  1  0
 15 16  2  0
 16 17  1  0
 18 19  2  0
 18 17  1  0
 20 19  1  0
 21 20  2  0
 22 21  1  0
 22 23  2  0
 23 15  1  0
 23 18  1  0
 24 13  1  0
 25 24  2  0
 26 24  1  0
M  END
$$$$
