ACW.pdb
     RDKit          3D

 26 27  0  0  1  0  0  0  0  0999 V2000
    7.7903  -12.4992   18.4602 C   0  0  0  0  0  0  0  0  0  0  0  0
    8.7247  -13.6661   18.6724 C   0  0  2  0  0  0  0  0  0  0  0  0
    8.7113  -14.5973   17.5616 N   0  0  0  0  0  0  0  0  0  0  0  0
    8.3467  -14.4069   19.9028 C   0  0  0  0  0  0  0  0  0  0  0  0
    8.2972  -13.7862   21.0056 O   0  0  0  0  0  0  0  0  0  0  0  0
    8.0393  -15.7816   19.8904 N   0  0  0  0  0  0  0  0  0  0  0  0
    7.6315  -16.4584   21.1011 C   0  0  1  0  0  0  0  0  0  0  0  0
    7.0699  -17.8384   20.8255 C   0  0  0  0  0  0  0  0  0  0  0  0
    6.8182  -18.7935   22.3263 S   0  0  0  0  0  0  0  0  0  0  0  0
    8.7430  -16.5131   22.0920 C   0  0  0  0  0  0  0  0  0  0  0  0
    9.8592  -16.9213   21.6926 O   0  0  0  0  0  0  0  0  0  0  0  0
    8.5930  -16.1309   23.4356 N   0  0  0  0  0  0  0  0  0  0  0  0
    9.6646  -16.1045   24.4259 C   0  0  1  0  0  0  0  0  0  0  0  0
    9.5908  -14.8930   25.2733 C   0  0  0  0  0  0  0  0  0  0  0  0
    8.2201  -14.5945   25.7081 C   0  0  0  0  0  0  0  0  0  0  0  0
    7.1626  -15.5030   25.8419 C   0  0  0  0  0  0  0  0  0  0  0  0
    6.0596  -14.8604   26.2223 N   0  0  0  0  0  0  0  0  0  0  0  0
    6.3686  -13.5636   26.3400 C   0  0  0  0  0  0  0  0  0  0  0  0
    5.5694  -12.4904   26.7239 C   0  0  0  0  0  0  0  0  0  0  0  0
    6.1388  -11.2388   26.7849 C   0  0  0  0  0  0  0  0  0  0  0  0
    7.4648  -11.0063   26.4819 C   0  0  0  0  0  0  0  0  0  0  0  0
    8.2469  -12.0723   26.1028 C   0  0  0  0  0  0  0  0  0  0  0  0
    7.6918  -13.3382   26.0350 C   0  0  0  0  0  0  0  0  0  0  0  0
    9.9196  -17.3688   25.0882 C   0  0  0  0  0  0  0  0  0  0  0  0
    9.0712  -18.2980   25.0842 O   0  0  0  0  0  0  0  0  0  0  0  0
   11.1235  -17.6276   25.7603 O   0  0  0  0  0  0  0  0  0  0  0  0
  2  4  1  0
  2  1  1  6
  3  2  1  0
  4  5  2  0
  6  7  1  0
  6  4  1  0
  8  9  1  0
  7  8  1  6
 10 12  1  0
 10  7  1  0
 11 10  2  0
 13 12  1  0
 13 14  1  1
 14 15  1  0
 15 16  2  0
 16 17  1  0
 18 19  2  0
 18 17  1  0
 20 19  1  0
 21 20  2  0
 22 21  1  0
 22 23  2  0
 23 15  1  0
 23 18  1  0
 24 13  1  0
 25 24  2  0
 26 24  1  0
M  END
$$$$
