ACW.pdb
     RDKit          3D

 26 27  0  0  1  0  0  0  0  0999 V2000
    9.3789  -18.7353   18.1732 C   0  0  0  0  0  0  0  0  0  0  0  0
    9.4555  -18.8712   19.6750 C   0  0  2  0  0  0  0  0  0  0  0  0
    8.3139  -19.5729   20.2279 N   0  0  0  0  0  0  0  0  0  0  0  0
    9.5254  -17.5293   20.3072 C   0  0  0  0  0  0  0  0  0  0  0  0
   10.5391  -16.8001   20.0959 O   0  0  0  0  0  0  0  0  0  0  0  0
    8.5014  -17.0332   21.1379 N   0  0  0  0  0  0  0  0  0  0  0  0
    8.5703  -15.6927   21.6751 C   0  0  1  0  0  0  0  0  0  0  0  0
    7.1969  -15.0927   21.8977 C   0  0  0  0  0  0  0  0  0  0  0  0
    7.2685  -13.4734   22.6726 S   0  0  0  0  0  0  0  0  0  0  0  0
    9.3894  -15.6489   22.9191 C   0  0  0  0  0  0  0  0  0  0  0  0
   10.2856  -14.7754   22.9954 O   0  0  0  0  0  0  0  0  0  0  0  0
    9.2003  -16.5335   23.9941 N   0  0  0  0  0  0  0  0  0  0  0  0
   10.0707  -16.6352   25.1611 C   0  0  1  0  0  0  0  0  0  0  0  0
    9.3190  -16.4254   26.4188 C   0  0  0  0  0  0  0  0  0  0  0  0
    8.0512  -15.7158   26.2037 C   0  0  0  0  0  0  0  0  0  0  0  0
    6.8142  -16.2835   25.8735 C   0  0  0  0  0  0  0  0  0  0  0  0
    5.9024  -15.3244   25.7218 N   0  0  0  0  0  0  0  0  0  0  0  0
    6.5090  -14.1525   25.9437 C   0  0  0  0  0  0  0  0  0  0  0  0
    5.9863  -12.8624   25.9220 C   0  0  0  0  0  0  0  0  0  0  0  0
    6.8265  -11.8104   26.2080 C   0  0  0  0  0  0  0  0  0  0  0  0
    8.1610  -11.9828   26.5140 C   0  0  0  0  0  0  0  0  0  0  0  0
    8.6692  -13.2606   26.5325 C   0  0  0  0  0  0  0  0  0  0  0  0
    7.8397  -14.3311   26.2469 C   0  0  0  0  0  0  0  0  0  0  0  0
   11.0204  -17.7302   25.1248 C   0  0  0  0  0  0  0  0  0  0  0  0
   10.9590  -18.6273   24.2446 O   0  0  0  0  0  0  0  0  0  0  0  0
   12.0598  -17.8454   26.0599 O   0  0  0  0  0  0  0  0  0  0  0  0
  2  4  1  0
  2  1  1  6
  3  2  1  0
  4  5  2  0
  6  7  1  0
  6  4  1  0
  8  9  1  0
  7  8  1  1
 10 12  1  0
 10  7  1  0
 11 10  2  0
 13 12  1  0
 13 14  1  1
 14 15  1  0
 15 16  2  0
 16 17  1  0
 18 19  2  0
 18 17  1  0
 20 19  1  0
 21 20  2  0
 22 21  1  0
 22 23  2  0
 23 15  1  0
 23 18  1  0
 24 13  1  0
 25 24  2  0
 26 24  1  0
M  END
$$$$
