ACW.pdb
     RDKit          3D

 26 27  0  0  1  0  0  0  0  0999 V2000
    9.6786  -19.9803   21.1708 C   0  0  0  0  0  0  0  0  0  0  0  0
    9.2885  -19.0198   20.0730 C   0  0  2  0  0  0  0  0  0  0  0  0
   10.0792  -19.1994   18.8714 N   0  0  0  0  0  0  0  0  0  0  0  0
    9.4587  -17.6187   20.5348 C   0  0  0  0  0  0  0  0  0  0  0  0
   10.5818  -17.0525   20.3862 O   0  0  0  0  0  0  0  0  0  0  0  0
    8.4128  -16.8908   21.1356 N   0  0  0  0  0  0  0  0  0  0  0  0
    8.5879  -15.4992   21.4866 C   0  0  1  0  0  0  0  0  0  0  0  0
    7.2993  -14.7112   21.3676 C   0  0  0  0  0  0  0  0  0  0  0  0
    5.8574  -15.6694   21.8476 S   0  0  0  0  0  0  0  0  0  0  0  0
    9.1893  -15.3539   22.8422 C   0  0  0  0  0  0  0  0  0  0  0  0
    9.5868  -14.2148   23.1835 O   0  0  0  0  0  0  0  0  0  0  0  0
    9.3263  -16.4258   23.7400 N   0  0  0  0  0  0  0  0  0  0  0  0
   10.0685  -16.3799   24.9958 C   0  0  1  0  0  0  0  0  0  0  0  0
    9.1698  -16.5243   26.1630 C   0  0  0  0  0  0  0  0  0  0  0  0
    7.9807  -15.6677   26.0657 C   0  0  0  0  0  0  0  0  0  0  0  0
    6.6702  -16.0752   25.7864 C   0  0  0  0  0  0  0  0  0  0  0  0
    5.8662  -15.0140   25.7424 N   0  0  0  0  0  0  0  0  0  0  0  0
    6.6141  -13.9311   25.9847 C   0  0  0  0  0  0  0  0  0  0  0  0
    6.2412  -12.5921   26.0622 C   0  0  0  0  0  0  0  0  0  0  0  0
    7.2108  -11.6577   26.3473 C   0  0  0  0  0  0  0  0  0  0  0  0
    8.5323  -11.9939   26.5584 C   0  0  0  0  0  0  0  0  0  0  0  0
    8.8920  -13.3190   26.4792 C   0  0  0  0  0  0  0  0  0  0  0  0
    7.9311  -14.2729   26.1928 C   0  0  0  0  0  0  0  0  0  0  0  0
   11.3046  -17.1377   25.0062 C   0  0  0  0  0  0  0  0  0  0  0  0
   11.6167  -17.9031   24.0575 O   0  0  0  0  0  0  0  0  0  0  0  0
   12.2201  -17.0540   26.0659 O   0  0  0  0  0  0  0  0  0  0  0  0
  2  4  1  0
  2  1  1  1
  3  2  1  0
  4  5  2  0
  6  7  1  0
  6  4  1  0
  8  9  1  0
  7  8  1  1
 10 12  1  0
 10  7  1  0
 11 10  2  0
 13 12  1  0
 13 14  1  1
 14 15  1  0
 15 16  2  0
 16 17  1  0
 18 19  2  0
 18 17  1  0
 20 19  1  0
 21 20  2  0
 22 21  1  0
 22 23  2  0
 23 15  1  0
 23 18  1  0
 24 13  1  0
 25 24  2  0
 26 24  1  0
M  END
$$$$
