ACW.pdb
     RDKit          3D

 26 27  0  0  1  0  0  0  0  0999 V2000
   10.6285  -17.6475   16.1025 C   0  0  0  0  0  0  0  0  0  0  0  0
   11.0381  -18.0693   17.4932 C   0  0  2  0  0  0  0  0  0  0  0  0
   10.5350  -19.3822   17.8460 N   0  0  0  0  0  0  0  0  0  0  0  0
   10.5320  -17.0949   18.4931 C   0  0  0  0  0  0  0  0  0  0  0  0
   10.9162  -15.8899   18.4292 O   0  0  0  0  0  0  0  0  0  0  0  0
    9.6356  -17.4617   19.5162 N   0  0  0  0  0  0  0  0  0  0  0  0
    9.2544  -16.5139   20.5392 C   0  0  1  0  0  0  0  0  0  0  0  0
    7.7888  -16.1388   20.4562 C   0  0  0  0  0  0  0  0  0  0  0  0
    6.7347  -17.2658   21.3764 S   0  0  0  0  0  0  0  0  0  0  0  0
    9.6110  -17.0106   21.8981 C   0  0  0  0  0  0  0  0  0  0  0  0
    9.3954  -18.2195   22.1510 O   0  0  0  0  0  0  0  0  0  0  0  0
   10.1714  -16.1911   22.8922 N   0  0  0  0  0  0  0  0  0  0  0  0
    9.4576  -15.6743   24.0555 C   0  0  1  0  0  0  0  0  0  0  0  0
    8.1851  -15.0255   23.6674 C   0  0  0  0  0  0  0  0  0  0  0  0
    7.3691  -14.6494   24.8292 C   0  0  0  0  0  0  0  0  0  0  0  0
    6.5227  -15.4845   25.5692 C   0  0  0  0  0  0  0  0  0  0  0  0
    5.9185  -14.7825   26.5266 N   0  0  0  0  0  0  0  0  0  0  0  0
    6.3468  -13.5182   26.4309 C   0  0  0  0  0  0  0  0  0  0  0  0
    6.0251  -12.4092   27.2083 C   0  0  0  0  0  0  0  0  0  0  0  0
    6.6248  -11.2060   26.9127 C   0  0  0  0  0  0  0  0  0  0  0  0
    7.5284  -11.0560   25.8807 C   0  0  0  0  0  0  0  0  0  0  0  0
    7.8399  -12.1568   25.1173 C   0  0  0  0  0  0  0  0  0  0  0  0
    7.2464  -13.3749   25.3990 C   0  0  0  0  0  0  0  0  0  0  0  0
    9.4335  -16.5593   25.2038 C   0  0  0  0  0  0  0  0  0  0  0  0
    8.9206  -17.7066   25.1413 O   0  0  0  0  0  0  0  0  0  0  0  0
    9.9846  -16.1900   26.4399 O   0  0  0  0  0  0  0  0  0  0  0  0
  2  4  1  0
  2  1  1  6
  3  2  1  0
  4  5  2  0
  6  7  1  0
  6  4  1  0
  8  9  1  0
  7  8  1  1
 10 12  1  0
 10  7  1  0
 11 10  2  0
 13 12  1  0
 13 14  1  6
 14 15  1  0
 15 16  2  0
 16 17  1  0
 18 19  2  0
 18 17  1  0
 20 19  1  0
 21 20  2  0
 22 21  1  0
 22 23  2  0
 23 15  1  0
 23 18  1  0
 24 13  1  0
 25 24  2  0
 26 24  1  0
M  END
$$$$
