ACW.pdb
     RDKit          3D

 26 27  0  0  1  0  0  0  0  0999 V2000
    9.3900  -18.6825   18.6323 C   0  0  0  0  0  0  0  0  0  0  0  0
    9.5219  -18.6311   20.1356 C   0  0  2  0  0  0  0  0  0  0  0  0
    8.3669  -19.1859   20.8135 N   0  0  0  0  0  0  0  0  0  0  0  0
    9.6936  -17.2266   20.5863 C   0  0  0  0  0  0  0  0  0  0  0  0
   10.7343  -16.5916   20.2432 O   0  0  0  0  0  0  0  0  0  0  0  0
    8.7377  -16.5694   21.3856 N   0  0  0  0  0  0  0  0  0  0  0  0
    8.9538  -15.2102   21.8285 C   0  0  1  0  0  0  0  0  0  0  0  0
    7.7228  -14.3454   21.6477 C   0  0  0  0  0  0  0  0  0  0  0  0
    6.2153  -15.1734   22.1673 S   0  0  0  0  0  0  0  0  0  0  0  0
    9.4430  -15.1699   23.2354 C   0  0  0  0  0  0  0  0  0  0  0  0
    9.8494  -14.0700   23.6791 O   0  0  0  0  0  0  0  0  0  0  0  0
    9.4662  -16.2981   24.0725 N   0  0  0  0  0  0  0  0  0  0  0  0
   10.1728  -16.3841   25.3465 C   0  0  1  0  0  0  0  0  0  0  0  0
    9.2308  -16.4709   26.4849 C   0  0  0  0  0  0  0  0  0  0  0  0
    7.9606  -15.7841   26.2163 C   0  0  0  0  0  0  0  0  0  0  0  0
    6.7842  -16.3554   25.7151 C   0  0  0  0  0  0  0  0  0  0  0  0
    5.8520  -15.4154   25.5677 N   0  0  0  0  0  0  0  0  0  0  0  0
    6.3866  -14.2525   25.9581 C   0  0  0  0  0  0  0  0  0  0  0  0
    5.8157  -12.9838   26.0087 C   0  0  0  0  0  0  0  0  0  0  0  0
    6.5817  -11.9391   26.4738 C   0  0  0  0  0  0  0  0  0  0  0  0
    7.8876  -12.0983   26.8900 C   0  0  0  0  0  0  0  0  0  0  0  0
    8.4439  -13.3550   26.8359 C   0  0  0  0  0  0  0  0  0  0  0  0
    7.6894  -14.4178   26.3705 C   0  0  0  0  0  0  0  0  0  0  0  0
   11.3158  -17.2762   25.3553 C   0  0  0  0  0  0  0  0  0  0  0  0
   11.5373  -18.0734   24.4073 O   0  0  0  0  0  0  0  0  0  0  0  0
   12.2376  -17.2946   26.4126 O   0  0  0  0  0  0  0  0  0  0  0  0
  2  4  1  0
  2  1  1  6
  3  2  1  0
  4  5  2  0
  6  7  1  0
  6  4  1  0
  8  9  1  0
  7  8  1  1
 10 12  1  0
 10  7  1  0
 11 10  2  0
 13 12  1  0
 13 14  1  1
 14 15  1  0
 15 16  2  0
 16 17  1  0
 18 19  2  0
 18 17  1  0
 20 19  1  0
 21 20  2  0
 22 21  1  0
 22 23  2  0
 23 15  1  0
 23 18  1  0
 24 13  1  0
 25 24  2  0
 26 24  1  0
M  END
$$$$
