ACW.pdb
     RDKit          3D

 26 27  0  0  1  0  0  0  0  0999 V2000
    9.0471  -19.0227   18.9607 C   0  0  0  0  0  0  0  0  0  0  0  0
    9.1867  -18.9519   20.4625 C   0  0  2  0  0  0  0  0  0  0  0  0
    7.9691  -19.3312   21.1517 N   0  0  0  0  0  0  0  0  0  0  0  0
    9.5441  -17.5718   20.8785 C   0  0  0  0  0  0  0  0  0  0  0  0
   10.6787  -17.1067   20.5621 O   0  0  0  0  0  0  0  0  0  0  0  0
    8.6643  -16.7553   21.6160 N   0  0  0  0  0  0  0  0  0  0  0  0
    9.0113  -15.3863   21.9254 C   0  0  1  0  0  0  0  0  0  0  0  0
    7.8438  -14.4406   21.7304 C   0  0  0  0  0  0  0  0  0  0  0  0
    6.3309  -15.0465   22.4867 S   0  0  0  0  0  0  0  0  0  0  0  0
    9.5815  -15.2685   23.2970 C   0  0  0  0  0  0  0  0  0  0  0  0
   10.1509  -14.1934   23.6003 O   0  0  0  0  0  0  0  0  0  0  0  0
    9.5074  -16.2982   24.2501 N   0  0  0  0  0  0  0  0  0  0  0  0
   10.3436  -16.4014   25.4417 C   0  0  1  0  0  0  0  0  0  0  0  0
    9.6074  -15.9912   26.6585 C   0  0  0  0  0  0  0  0  0  0  0  0
    8.2593  -15.4917   26.3578 C   0  0  0  0  0  0  0  0  0  0  0  0
    7.1539  -16.2471   25.9469 C   0  0  0  0  0  0  0  0  0  0  0  0
    6.1123  -15.4448   25.7327 N   0  0  0  0  0  0  0  0  0  0  0  0
    6.5074  -14.1929   25.9921 C   0  0  0  0  0  0  0  0  0  0  0  0
    5.7874  -13.0029   25.9328 C   0  0  0  0  0  0  0  0  0  0  0  0
    6.4275  -11.8326   26.2721 C   0  0  0  0  0  0  0  0  0  0  0  0
    7.7491  -11.7919   26.6668 C   0  0  0  0  0  0  0  0  0  0  0  0
    8.4531  -12.9722   26.7219 C   0  0  0  0  0  0  0  0  0  0  0  0
    7.8265  -14.1590   26.3838 C   0  0  0  0  0  0  0  0  0  0  0  0
   11.1515  -17.6026   25.5224 C   0  0  0  0  0  0  0  0  0  0  0  0
   12.0038  -17.7639   26.4339 O   0  0  0  0  0  0  0  0  0  0  0  0
   11.0230  -18.6496   24.5976 O   0  0  0  0  0  0  0  0  0  0  0  0
  2  4  1  0
  2  1  1  6
  3  2  1  0
  4  5  2  0
  6  7  1  0
  6  4  1  0
  8  9  1  0
  7  8  1  1
 10 12  1  0
 10  7  1  0
 11 10  2  0
 13 12  1  0
 13 14  1  1
 14 15  1  0
 15 16  2  0
 16 17  1  0
 18 19  2  0
 18 17  1  0
 20 19  1  0
 21 20  2  0
 22 21  1  0
 22 23  2  0
 23 15  1  0
 23 18  1  0
 24 13  1  0
 25 24  2  0
 26 24  1  0
M  END
$$$$
