ACW.pdb
     RDKit          3D

 26 27  0  0  1  0  0  0  0  0999 V2000
    9.6131  -19.4041   18.3580 C   0  0  0  0  0  0  0  0  0  0  0  0
    9.6309  -19.2061   19.8548 C   0  0  2  0  0  0  0  0  0  0  0  0
    8.4393  -19.7241   20.4976 N   0  0  0  0  0  0  0  0  0  0  0  0
    9.7409  -17.7608   20.1782 C   0  0  0  0  0  0  0  0  0  0  0  0
   10.7822  -17.1288   19.8315 O   0  0  0  0  0  0  0  0  0  0  0  0
    8.7255  -17.0616   20.8600 N   0  0  0  0  0  0  0  0  0  0  0  0
    8.8720  -15.6555   21.1624 C   0  0  1  0  0  0  0  0  0  0  0  0
    7.6038  -14.8741   20.8855 C   0  0  0  0  0  0  0  0  0  0  0  0
    6.2471  -15.3569   21.9599 S   0  0  0  0  0  0  0  0  0  0  0  0
    9.3423  -15.4481   22.5610 C   0  0  0  0  0  0  0  0  0  0  0  0
    9.3215  -14.2796   23.0149 O   0  0  0  0  0  0  0  0  0  0  0  0
    9.8008  -16.4939   23.3796 N   0  0  0  0  0  0  0  0  0  0  0  0
   10.2607  -16.3429   24.7564 C   0  0  1  0  0  0  0  0  0  0  0  0
    9.9415  -15.0000   25.2910 C   0  0  0  0  0  0  0  0  0  0  0  0
    8.5345  -14.8755   25.6934 C   0  0  0  0  0  0  0  0  0  0  0  0
    7.5826  -15.9009   25.7548 C   0  0  0  0  0  0  0  0  0  0  0  0
    6.4043  -15.4026   26.1259 N   0  0  0  0  0  0  0  0  0  0  0  0
    6.5623  -14.0862   26.3076 C   0  0  0  0  0  0  0  0  0  0  0  0
    5.6373  -13.1268   26.7099 C   0  0  0  0  0  0  0  0  0  0  0  0
    6.0606  -11.8237   26.8415 C   0  0  0  0  0  0  0  0  0  0  0  0
    7.3599  -11.4320   26.5915 C   0  0  0  0  0  0  0  0  0  0  0  0
    8.2669  -12.3863   26.1938 C   0  0  0  0  0  0  0  0  0  0  0  0
    7.8596  -13.7017   26.0552 C   0  0  0  0  0  0  0  0  0  0  0  0
   10.0072  -17.4823   25.6166 C   0  0  0  0  0  0  0  0  0  0  0  0
   10.4907  -17.5534   26.7761 O   0  0  0  0  0  0  0  0  0  0  0  0
    9.2067  -18.5596   25.2085 O   0  0  0  0  0  0  0  0  0  0  0  0
  2  4  1  0
  2  1  1  6
  3  2  1  0
  4  5  2  0
  6  7  1  0
  6  4  1  0
  8  9  1  0
  7  8  1  1
 10 12  1  0
 10  7  1  0
 11 10  2  0
 13 12  1  0
 13 14  1  1
 14 15  1  0
 15 16  2  0
 16 17  1  0
 18 19  2  0
 18 17  1  0
 20 19  1  0
 21 20  2  0
 22 21  1  0
 22 23  2  0
 23 15  1  0
 23 18  1  0
 24 13  1  0
 25 24  2  0
 26 24  1  0
M  END
$$$$
