ACW.pdb
     RDKit          3D

 26 27  0  0  1  0  0  0  0  0999 V2000
   10.8327  -19.5403   19.7644 C   0  0  0  0  0  0  0  0  0  0  0  0
   10.4772  -18.2593   19.0484 C   0  0  2  0  0  0  0  0  0  0  0  0
   11.5371  -17.8003   18.1726 N   0  0  0  0  0  0  0  0  0  0  0  0
   10.1919  -17.1851   20.0333 C   0  0  0  0  0  0  0  0  0  0  0  0
   11.1541  -16.5126   20.5084 O   0  0  0  0  0  0  0  0  0  0  0  0
    8.8843  -16.8836   20.4622 N   0  0  0  0  0  0  0  0  0  0  0  0
    8.6430  -15.8069   21.3964 C   0  0  1  0  0  0  0  0  0  0  0  0
    7.2525  -15.2229   21.2518 C   0  0  0  0  0  0  0  0  0  0  0  0
    6.8050  -14.1572   22.6273 S   0  0  0  0  0  0  0  0  0  0  0  0
    8.9078  -16.2364   22.7984 C   0  0  0  0  0  0  0  0  0  0  0  0
    8.4640  -17.3522   23.1590 O   0  0  0  0  0  0  0  0  0  0  0  0
    9.6247  -15.4533   23.7186 N   0  0  0  0  0  0  0  0  0  0  0  0
   10.0876  -15.9068   25.0262 C   0  0  1  0  0  0  0  0  0  0  0  0
    8.9700  -16.4219   25.8489 C   0  0  0  0  0  0  0  0  0  0  0  0
    7.7968  -15.5389   25.8185 C   0  0  0  0  0  0  0  0  0  0  0  0
    6.4984  -15.8777   25.4173 C   0  0  0  0  0  0  0  0  0  0  0  0
    5.7091  -14.8071   25.4888 N   0  0  0  0  0  0  0  0  0  0  0  0
    6.4547  -13.7847   25.9242 C   0  0  0  0  0  0  0  0  0  0  0  0
    6.0923  -12.4647   26.1781 C   0  0  0  0  0  0  0  0  0  0  0  0
    7.0555  -11.5996   26.6453 C   0  0  0  0  0  0  0  0  0  0  0  0
    8.3606  -11.9867   26.8709 C   0  0  0  0  0  0  0  0  0  0  0  0
    8.7100  -13.2924   26.6166 C   0  0  0  0  0  0  0  0  0  0  0  0
    7.7553  -14.1769   26.1459 C   0  0  0  0  0  0  0  0  0  0  0  0
   11.3156  -16.6776   25.0092 C   0  0  0  0  0  0  0  0  0  0  0  0
   11.3045  -17.9358   25.0223 O   0  0  0  0  0  0  0  0  0  0  0  0
   12.5776  -16.0663   24.9699 O   0  0  0  0  0  0  0  0  0  0  0  0
  2  4  1  0
  2  1  1  1
  3  2  1  0
  4  5  2  0
  6  7  1  0
  6  4  1  0
  8  9  1  0
  7  8  1  1
 10 12  1  0
 10  7  1  0
 11 10  2  0
 13 12  1  0
 13 14  1  6
 14 15  1  0
 15 16  2  0
 16 17  1  0
 18 19  2  0
 18 17  1  0
 20 19  1  0
 21 20  2  0
 22 21  1  0
 22 23  2  0
 23 15  1  0
 23 18  1  0
 24 13  1  0
 25 24  2  0
 26 24  1  0
M  END
$$$$
