ACW.pdb
     RDKit          3D

 26 27  0  0  1  0  0  0  0  0999 V2000
    5.1646  -19.3217   23.2835 C   0  0  0  0  0  0  0  0  0  0  0  0
    5.3979  -19.0758   21.8121 C   0  0  2  0  0  0  0  0  0  0  0  0
    5.7427  -20.2873   21.0946 N   0  0  0  0  0  0  0  0  0  0  0  0
    6.4992  -18.0972   21.6254 C   0  0  0  0  0  0  0  0  0  0  0  0
    7.6986  -18.4963   21.7023 O   0  0  0  0  0  0  0  0  0  0  0  0
    6.2595  -16.7336   21.3646 N   0  0  0  0  0  0  0  0  0  0  0  0
    7.3480  -15.7822   21.3481 C   0  0  1  0  0  0  0  0  0  0  0  0
    6.9781  -14.4998   20.6310 C   0  0  0  0  0  0  0  0  0  0  0  0
    8.3454  -13.3374   20.5462 S   0  0  0  0  0  0  0  0  0  0  0  0
    7.8496  -15.5088   22.7243 C   0  0  0  0  0  0  0  0  0  0  0  0
    7.2510  -14.6386   23.3999 O   0  0  0  0  0  0  0  0  0  0  0  0
    8.9497  -16.1773   23.2872 N   0  0  0  0  0  0  0  0  0  0  0  0
    9.8809  -15.5989   24.2507 C   0  0  1  0  0  0  0  0  0  0  0  0
    9.4053  -15.7795   25.6407 C   0  0  0  0  0  0  0  0  0  0  0  0
    8.1023  -15.1438   25.8757 C   0  0  0  0  0  0  0  0  0  0  0  0
    6.8443  -15.7567   25.8195 C   0  0  0  0  0  0  0  0  0  0  0  0
    5.8913  -14.8556   26.0522 N   0  0  0  0  0  0  0  0  0  0  0  0
    6.4919  -13.6775   26.2580 C   0  0  0  0  0  0  0  0  0  0  0  0
    5.9362  -12.4359   26.5539 C   0  0  0  0  0  0  0  0  0  0  0  0
    6.7832  -11.3672   26.7411 C   0  0  0  0  0  0  0  0  0  0  0  0
    8.1555  -11.4770   26.6476 C   0  0  0  0  0  0  0  0  0  0  0  0
    8.6959  -12.7073   26.3542 C   0  0  0  0  0  0  0  0  0  0  0  0
    7.8600  -13.7935   26.1618 C   0  0  0  0  0  0  0  0  0  0  0  0
   11.2817  -15.8613   23.9841 C   0  0  0  0  0  0  0  0  0  0  0  0
   11.6435  -16.6280   23.0542 O   0  0  0  0  0  0  0  0  0  0  0  0
   12.3063  -15.2719   24.7395 O   0  0  0  0  0  0  0  0  0  0  0  0
  2  4  1  0
  2  1  1  1
  3  2  1  0
  4  5  2  0
  6  7  1  0
  6  4  1  0
  8  9  1  0
  7  8  1  1
 10 12  1  0
 10  7  1  0
 11 10  2  0
 13 12  1  0
 13 14  1  1
 14 15  1  0
 15 16  2  0
 16 17  1  0
 18 19  2  0
 18 17  1  0
 20 19  1  0
 21 20  2  0
 22 21  1  0
 22 23  2  0
 23 15  1  0
 23 18  1  0
 24 13  1  0
 25 24  2  0
 26 24  1  0
M  END
$$$$
