TDT.pdb
     RDKit          3D

 23 22  0  0  1  0  0  0  0  0999 V2000
    8.2139  -12.2400   20.3318 C   0  0  0  0  0  0  0  0  0  0  0  0
    7.7447  -13.2339   19.3192 C   0  0  1  0  0  0  0  0  0  0  0  0
    8.0817  -12.6799   18.0515 O   0  0  0  0  0  0  0  0  0  0  0  0
    8.5201  -14.5439   19.3619 C   0  0  2  0  0  0  0  0  0  0  0  0
    7.9537  -15.4288   18.3219 N   0  0  0  0  0  0  0  0  0  0  0  0
    8.2423  -15.2117   20.6444 C   0  0  0  0  0  0  0  0  0  0  0  0
    7.2674  -16.0060   20.7396 O   0  0  0  0  0  0  0  0  0  0  0  0
    9.0221  -15.0094   21.7887 N   0  0  0  0  0  0  0  0  0  0  0  0
    8.8650  -15.8303   22.9993 C   0  0  1  0  0  0  0  0  0  0  0  0
    9.8278  -16.9854   22.9271 C   0  0  0  0  0  0  0  0  0  0  0  0
    9.7780  -17.8011   24.1560 C   0  0  0  0  0  0  0  0  0  0  0  0
    8.6885  -18.0149   24.7208 O   0  0  0  0  0  0  0  0  0  0  0  0
    9.1160  -14.9633   24.1647 C   0  0  0  0  0  0  0  0  0  0  0  0
   10.2663  -14.5306   24.3693 O   0  0  0  0  0  0  0  0  0  0  0  0
   10.9381  -18.3348   24.6909 O   0  0  0  0  0  0  0  0  0  0  0  0
    6.7383  -11.8686   25.4942 C   0  0  0  0  0  0  0  0  0  0  0  0
    7.0177  -12.9242   26.5054 C   0  0  1  0  0  0  0  0  0  0  0  0
    5.9335  -13.7778   26.5857 O   0  0  0  0  0  0  0  0  0  0  0  0
    8.2438  -13.7507   26.2015 C   0  0  2  0  0  0  0  0  0  0  0  0
    8.0619  -14.6105   25.0639 N   0  0  0  0  0  0  0  0  0  0  0  0
    8.7652  -14.4571   27.3806 C   0  0  0  0  0  0  0  0  0  0  0  0
    9.1053  -13.7900   28.5347 O   0  0  0  0  0  0  0  0  0  0  0  0
    8.9060  -15.6956   27.3418 O   0  0  0  0  0  0  0  0  0  0  0  0
  2  1  1  1
  2  4  1  0
  3  2  1  0
  4  6  1  0
  4  5  1  6
  6  8  1  0
  6  7  2  0
  8  9  1  0
  9 13  1  0
  9 10  1  6
 10 11  1  0
 11 15  1  0
 12 11  2  0
 13 14  2  0
 17 16  1  6
 17 19  1  0
 17 18  1  0
 19 21  1  0
 20 13  1  0
 19 20  1  6
 21 22  1  0
 23 21  2  0
M  END
$$$$
