TDT.pdb
     RDKit          3D

 23 22  0  0  1  0  0  0  0  0999 V2000
    7.3478  -12.1916   18.5076 C   0  0  0  0  0  0  0  0  0  0  0  0
    8.5247  -12.9960   18.9563 C   0  0  1  0  0  0  0  0  0  0  0  0
    7.9950  -14.0189   19.7933 O   0  0  0  0  0  0  0  0  0  0  0  0
    9.1932  -13.7626   17.8230 C   0  0  2  0  0  0  0  0  0  0  0  0
    8.1614  -14.6149   17.1948 N   0  0  0  0  0  0  0  0  0  0  0  0
   10.1766  -14.6929   18.4021 C   0  0  0  0  0  0  0  0  0  0  0  0
    9.8847  -15.9129   18.5321 O   0  0  0  0  0  0  0  0  0  0  0  0
   11.4479  -14.2866   18.8229 N   0  0  0  0  0  0  0  0  0  0  0  0
   12.3884  -15.2086   19.4782 C   0  0  1  0  0  0  0  0  0  0  0  0
   13.7913  -14.8205   19.0935 C   0  0  0  0  0  0  0  0  0  0  0  0
   14.7845  -15.7150   19.7190 C   0  0  0  0  0  0  0  0  0  0  0  0
   14.5444  -16.9319   19.8353 O   0  0  0  0  0  0  0  0  0  0  0  0
   12.1616  -15.1223   20.9321 C   0  0  0  0  0  0  0  0  0  0  0  0
   12.6675  -14.1832   21.5758 O   0  0  0  0  0  0  0  0  0  0  0  0
   15.9887  -15.2118   20.1810 O   0  0  0  0  0  0  0  0  0  0  0  0
    8.8308  -14.7435   22.5072 C   0  0  0  0  0  0  0  0  0  0  0  0
    9.4682  -15.9236   23.1523 C   0  0  1  0  0  0  0  0  0  0  0  0
    8.9406  -17.0805   22.6102 O   0  0  0  0  0  0  0  0  0  0  0  0
   10.9683  -15.9713   22.9899 C   0  0  2  0  0  0  0  0  0  0  0  0
   11.3710  -16.0978   21.6158 N   0  0  0  0  0  0  0  0  0  0  0  0
   11.6087  -16.9578   23.8717 C   0  0  0  0  0  0  0  0  0  0  0  0
   11.5090  -16.8796   25.2416 O   0  0  0  0  0  0  0  0  0  0  0  0
   12.2624  -17.8949   23.3720 O   0  0  0  0  0  0  0  0  0  0  0  0
  2  1  1  6
  2  4  1  0
  3  2  1  0
  4  6  1  0
  4  5  1  1
  6  8  1  0
  6  7  2  0
  8  9  1  0
  9 13  1  0
  9 10  1  1
 10 11  1  0
 11 15  1  0
 12 11  2  0
 13 14  2  0
 17 16  1  6
 17 19  1  0
 17 18  1  0
 19 21  1  0
 20 13  1  0
 19 20  1  6
 21 22  1  0
 23 21  2  0
M  END
$$$$
