TDT.pdb
     RDKit          3D

 23 22  0  0  1  0  0  0  0  0999 V2000
    8.1948  -12.3211   18.3914 C   0  0  0  0  0  0  0  0  0  0  0  0
    8.6635  -13.3415   19.3775 C   0  0  1  0  0  0  0  0  0  0  0  0
    7.6050  -13.4806   20.3197 O   0  0  0  0  0  0  0  0  0  0  0  0
    8.8025  -14.7344   18.7777 C   0  0  2  0  0  0  0  0  0  0  0  0
    7.4584  -15.1634   18.3364 N   0  0  0  0  0  0  0  0  0  0  0  0
    9.1853  -15.6699   19.8483 C   0  0  0  0  0  0  0  0  0  0  0  0
    8.2940  -16.3086   20.4713 O   0  0  0  0  0  0  0  0  0  0  0  0
   10.5161  -15.8954   20.2178 N   0  0  0  0  0  0  0  0  0  0  0  0
   10.8888  -16.8859   21.2395 C   0  0  1  0  0  0  0  0  0  0  0  0
   12.3092  -17.3206   20.9945 C   0  0  0  0  0  0  0  0  0  0  0  0
   12.3894  -18.2829   19.8785 C   0  0  0  0  0  0  0  0  0  0  0  0
   11.3653  -18.8761   19.4897 O   0  0  0  0  0  0  0  0  0  0  0  0
   10.7156  -16.2547   22.5602 C   0  0  0  0  0  0  0  0  0  0  0  0
   11.5120  -15.3685   22.9243 O   0  0  0  0  0  0  0  0  0  0  0  0
   13.5997  -18.5346   19.2551 O   0  0  0  0  0  0  0  0  0  0  0  0
    7.8982  -14.2335   23.8945 C   0  0  0  0  0  0  0  0  0  0  0  0
    8.0731  -15.3830   24.8236 C   0  0  1  0  0  0  0  0  0  0  0  0
    7.1034  -16.3328   24.5622 O   0  0  0  0  0  0  0  0  0  0  0  0
    9.4232  -16.0505   24.7207 C   0  0  2  0  0  0  0  0  0  0  0  0
    9.6494  -16.6424   23.4304 N   0  0  0  0  0  0  0  0  0  0  0  0
    9.6924  -16.9727   25.8334 C   0  0  0  0  0  0  0  0  0  0  0  0
   10.0640  -18.2798   25.6189 O   0  0  0  0  0  0  0  0  0  0  0  0
    9.5832  -16.5667   27.0074 O   0  0  0  0  0  0  0  0  0  0  0  0
  2  1  1  6
  2  4  1  0
  3  2  1  0
  4  6  1  0
  4  5  1  1
  6  8  1  0
  6  7  2  0
  8  9  1  0
  9 13  1  0
  9 10  1  6
 10 11  1  0
 11 15  1  0
 12 11  2  0
 13 14  2  0
 17 16  1  6
 17 19  1  0
 17 18  1  0
 19 21  1  0
 20 13  1  0
 19 20  1  6
 21 22  1  0
 23 21  2  0
M  END
$$$$
