TDT.pdb
     RDKit          3D

 23 22  0  0  1  0  0  0  0  0999 V2000
    7.8969  -12.3391   19.0383 C   0  0  0  0  0  0  0  0  0  0  0  0
    8.3873  -13.3866   19.9847 C   0  0  1  0  0  0  0  0  0  0  0  0
    7.4955  -13.3506   21.0941 O   0  0  0  0  0  0  0  0  0  0  0  0
    8.2367  -14.8016   19.4422 C   0  0  2  0  0  0  0  0  0  0  0  0
    6.7967  -15.0329   19.2001 N   0  0  0  0  0  0  0  0  0  0  0  0
    8.6184  -15.7524   20.4996 C   0  0  0  0  0  0  0  0  0  0  0  0
    7.7267  -16.2903   21.2109 O   0  0  0  0  0  0  0  0  0  0  0  0
    9.9481  -16.1010   20.7614 N   0  0  0  0  0  0  0  0  0  0  0  0
   10.3126  -17.0765   21.8005 C   0  0  1  0  0  0  0  0  0  0  0  0
   11.7113  -17.5655   21.5336 C   0  0  0  0  0  0  0  0  0  0  0  0
   11.7568  -18.4308   20.3390 C   0  0  0  0  0  0  0  0  0  0  0  0
   10.7745  -19.1363   20.0402 O   0  0  0  0  0  0  0  0  0  0  0  0
   10.1932  -16.4053   23.1073 C   0  0  0  0  0  0  0  0  0  0  0  0
   11.0256  -15.5351   23.4269 O   0  0  0  0  0  0  0  0  0  0  0  0
   12.8881  -18.4666   19.5417 O   0  0  0  0  0  0  0  0  0  0  0  0
    7.3830  -14.3340   24.5861 C   0  0  0  0  0  0  0  0  0  0  0  0
    7.6300  -15.4893   25.4914 C   0  0  1  0  0  0  0  0  0  0  0  0
    6.6660  -16.4553   25.2720 O   0  0  0  0  0  0  0  0  0  0  0  0
    8.9850  -16.1288   25.3082 C   0  0  2  0  0  0  0  0  0  0  0  0
    9.1385  -16.7360   24.0142 N   0  0  0  0  0  0  0  0  0  0  0  0
    9.3485  -17.0273   26.4135 C   0  0  0  0  0  0  0  0  0  0  0  0
    9.4155  -16.5866   27.7149 O   0  0  0  0  0  0  0  0  0  0  0  0
    9.6047  -18.2239   26.1730 O   0  0  0  0  0  0  0  0  0  0  0  0
  2  1  1  6
  2  4  1  0
  3  2  1  0
  4  6  1  0
  4  5  1  1
  6  8  1  0
  6  7  2  0
  8  9  1  0
  9 13  1  0
  9 10  1  6
 10 11  1  0
 11 15  1  0
 12 11  2  0
 13 14  2  0
 17 16  1  6
 17 19  1  0
 17 18  1  0
 19 21  1  0
 20 13  1  0
 19 20  1  6
 21 22  1  0
 23 21  2  0
M  END
$$$$
