TDT.pdb
     RDKit          3D

 23 22  0  0  1  0  0  0  0  0999 V2000
   10.0324  -12.5052   18.0117 C   0  0  0  0  0  0  0  0  0  0  0  0
    9.7008  -13.2941   19.2368 C   0  0  1  0  0  0  0  0  0  0  0  0
    9.3735  -12.3337   20.2359 O   0  0  0  0  0  0  0  0  0  0  0  0
    8.4279  -14.1176   19.0925 C   0  0  2  0  0  0  0  0  0  0  0  0
    7.2956  -13.1716   19.0006 N   0  0  0  0  0  0  0  0  0  0  0  0
    8.2136  -14.8720   20.3386 C   0  0  0  0  0  0  0  0  0  0  0  0
    7.3156  -14.5076   21.1457 O   0  0  0  0  0  0  0  0  0  0  0  0
    8.9686  -15.9992   20.6815 N   0  0  0  0  0  0  0  0  0  0  0  0
    8.5981  -16.8803   21.7998 C   0  0  1  0  0  0  0  0  0  0  0  0
    9.3181  -18.1926   21.6390 C   0  0  0  0  0  0  0  0  0  0  0  0
    8.9332  -19.1474   22.6964 C   0  0  0  0  0  0  0  0  0  0  0  0
    7.9993  -18.8752   23.4747 O   0  0  0  0  0  0  0  0  0  0  0  0
    8.9601  -16.1920   23.0520 C   0  0  0  0  0  0  0  0  0  0  0  0
   10.1407  -15.8396   23.2375 O   0  0  0  0  0  0  0  0  0  0  0  0
    9.6042  -20.3506   22.8331 O   0  0  0  0  0  0  0  0  0  0  0  0
    6.7213  -13.2261   24.7935 C   0  0  0  0  0  0  0  0  0  0  0  0
    7.0636  -14.3530   25.7034 C   0  0  1  0  0  0  0  0  0  0  0  0
    5.9778  -15.2020   25.8072 O   0  0  0  0  0  0  0  0  0  0  0  0
    8.2520  -15.1650   25.2482 C   0  0  2  0  0  0  0  0  0  0  0  0
    7.9796  -15.9221   24.0570 N   0  0  0  0  0  0  0  0  0  0  0  0
    8.8382  -15.9758   26.3253 C   0  0  0  0  0  0  0  0  0  0  0  0
    9.2003  -15.4256   27.5330 O   0  0  0  0  0  0  0  0  0  0  0  0
    9.0153  -17.1973   26.1472 O   0  0  0  0  0  0  0  0  0  0  0  0
  2  1  1  6
  2  4  1  0
  3  2  1  0
  4  6  1  0
  4  5  1  1
  6  8  1  0
  6  7  2  0
  8  9  1  0
  9 13  1  0
  9 10  1  6
 10 11  1  0
 11 15  1  0
 12 11  2  0
 13 14  2  0
 17 16  1  6
 17 19  1  0
 17 18  1  0
 19 21  1  0
 20 13  1  0
 19 20  1  6
 21 22  1  0
 23 21  2  0
M  END
$$$$
