TDT.pdb
     RDKit          3D

 23 22  0  0  1  0  0  0  0  0999 V2000
    8.0993  -12.0424   19.0242 C   0  0  0  0  0  0  0  0  0  0  0  0
    8.6897  -13.1900   19.7777 C   0  0  1  0  0  0  0  0  0  0  0  0
    7.6316  -13.7120   20.5749 O   0  0  0  0  0  0  0  0  0  0  0  0
    9.0802  -14.3575   18.8812 C   0  0  2  0  0  0  0  0  0  0  0  0
    7.8416  -14.8745   18.2613 N   0  0  0  0  0  0  0  0  0  0  0  0
    9.5853  -15.4508   19.7283 C   0  0  0  0  0  0  0  0  0  0  0  0
    8.8212  -16.4029   20.0450 O   0  0  0  0  0  0  0  0  0  0  0  0
   10.8988  -15.4920   20.2093 N   0  0  0  0  0  0  0  0  0  0  0  0
   11.3677  -16.5491   21.1185 C   0  0  1  0  0  0  0  0  0  0  0  0
   12.8345  -16.7821   20.8715 C   0  0  0  0  0  0  0  0  0  0  0  0
   13.3598  -17.8535   21.7398 C   0  0  0  0  0  0  0  0  0  0  0  0
   12.6154  -18.7827   22.1063 O   0  0  0  0  0  0  0  0  0  0  0  0
   11.0947  -16.1077   22.4981 C   0  0  0  0  0  0  0  0  0  0  0  0
   11.8562  -15.2832   23.0390 O   0  0  0  0  0  0  0  0  0  0  0  0
   14.6807  -17.8360   22.1541 O   0  0  0  0  0  0  0  0  0  0  0  0
    8.0958  -14.3684   24.0025 C   0  0  0  0  0  0  0  0  0  0  0  0
    8.2883  -15.6523   24.7303 C   0  0  1  0  0  0  0  0  0  0  0  0
    7.3777  -16.5820   24.2644 O   0  0  0  0  0  0  0  0  0  0  0  0
    9.6725  -16.2361   24.5815 C   0  0  2  0  0  0  0  0  0  0  0  0
    9.9711  -16.6098   23.2259 N   0  0  0  0  0  0  0  0  0  0  0  0
    9.9493  -17.3074   25.5493 C   0  0  0  0  0  0  0  0  0  0  0  0
   10.3910  -18.5482   25.1519 O   0  0  0  0  0  0  0  0  0  0  0  0
    9.7815  -17.0936   26.7664 O   0  0  0  0  0  0  0  0  0  0  0  0
  2  1  1  6
  2  4  1  0
  3  2  1  0
  4  6  1  0
  4  5  1  1
  6  8  1  0
  6  7  2  0
  8  9  1  0
  9 13  1  0
  9 10  1  1
 10 11  1  0
 11 15  1  0
 12 11  2  0
 13 14  2  0
 17 16  1  6
 17 19  1  0
 17 18  1  0
 19 21  1  0
 20 13  1  0
 19 20  1  6
 21 22  1  0
 23 21  2  0
M  END
$$$$
