TDT.pdb
     RDKit          3D

 23 22  0  0  1  0  0  0  0  0999 V2000
    8.5654  -12.4263   20.6573 C   0  0  0  0  0  0  0  0  0  0  0  0
    7.6388  -13.3290   19.9090 C   0  0  1  0  0  0  0  0  0  0  0  0
    7.6488  -12.8613   18.5641 O   0  0  0  0  0  0  0  0  0  0  0  0
    8.1528  -14.7586   19.8012 C   0  0  2  0  0  0  0  0  0  0  0  0
    7.1134  -15.5528   19.1123 N   0  0  0  0  0  0  0  0  0  0  0  0
    8.2507  -15.3252   21.1567 C   0  0  0  0  0  0  0  0  0  0  0  0
    7.2027  -15.6560   21.7753 O   0  0  0  0  0  0  0  0  0  0  0  0
    9.4730  -15.5232   21.8088 N   0  0  0  0  0  0  0  0  0  0  0  0
    9.5582  -16.1258   23.1481 C   0  0  1  0  0  0  0  0  0  0  0  0
   10.8405  -16.9088   23.2440 C   0  0  0  0  0  0  0  0  0  0  0  0
   10.8069  -18.0995   22.3729 C   0  0  0  0  0  0  0  0  0  0  0  0
   11.6309  -18.2198   21.4464 O   0  0  0  0  0  0  0  0  0  0  0  0
    9.4928  -15.0338   24.1361 C   0  0  0  0  0  0  0  0  0  0  0  0
   10.3333  -14.1153   24.0897 O   0  0  0  0  0  0  0  0  0  0  0  0
    9.8622  -19.0909   22.5765 O   0  0  0  0  0  0  0  0  0  0  0  0
    6.9299  -12.3730   25.0928 C   0  0  0  0  0  0  0  0  0  0  0  0
    7.1357  -13.2846   26.2511 C   0  0  1  0  0  0  0  0  0  0  0  0
    6.1063  -14.2060   26.2954 O   0  0  0  0  0  0  0  0  0  0  0  0
    8.4411  -14.0416   26.2070 C   0  0  2  0  0  0  0  0  0  0  0  0
    8.4814  -15.0111   25.1464 N   0  0  0  0  0  0  0  0  0  0  0  0
    8.8244  -14.5986   27.5123 C   0  0  0  0  0  0  0  0  0  0  0  0
    8.9590  -13.8058   28.6285 O   0  0  0  0  0  0  0  0  0  0  0  0
    9.0353  -15.8231   27.6192 O   0  0  0  0  0  0  0  0  0  0  0  0
  2  1  1  1
  2  4  1  0
  3  2  1  0
  4  6  1  0
  4  5  1  6
  6  8  1  0
  6  7  2  0
  8  9  1  0
  9 13  1  0
  9 10  1  6
 10 11  1  0
 11 15  1  0
 12 11  2  0
 13 14  2  0
 17 16  1  6
 17 19  1  0
 17 18  1  0
 19 21  1  0
 20 13  1  0
 19 20  1  6
 21 22  1  0
 23 21  2  0
M  END
$$$$
