TDT.pdb
     RDKit          3D

 23 22  0  0  1  0  0  0  0  0999 V2000
    8.2011  -12.6138   18.9662 C   0  0  0  0  0  0  0  0  0  0  0  0
    8.4343  -13.3656   20.2365 C   0  0  1  0  0  0  0  0  0  0  0  0
    7.8303  -12.5844   21.2624 O   0  0  0  0  0  0  0  0  0  0  0  0
    7.6824  -14.6886   20.2959 C   0  0  2  0  0  0  0  0  0  0  0  0
    6.2413  -14.3861   20.1649 N   0  0  0  0  0  0  0  0  0  0  0  0
    7.8462  -15.2610   21.6426 C   0  0  0  0  0  0  0  0  0  0  0  0
    6.8999  -15.1903   22.4733 O   0  0  0  0  0  0  0  0  0  0  0  0
    9.0217  -15.8963   22.0582 N   0  0  0  0  0  0  0  0  0  0  0  0
    9.1370  -16.5508   23.3706 C   0  0  1  0  0  0  0  0  0  0  0  0
   10.2585  -17.5536   23.3127 C   0  0  0  0  0  0  0  0  0  0  0  0
   10.4557  -18.2120   24.6186 C   0  0  0  0  0  0  0  0  0  0  0  0
   11.5889  -18.2505   25.1346 O   0  0  0  0  0  0  0  0  0  0  0  0
    9.3759  -15.5001   24.3764 C   0  0  0  0  0  0  0  0  0  0  0  0
   10.4367  -14.8475   24.3398 O   0  0  0  0  0  0  0  0  0  0  0  0
    9.3865  -18.7912   25.2805 O   0  0  0  0  0  0  0  0  0  0  0  0
    7.0551  -12.4687   25.3276 C   0  0  0  0  0  0  0  0  0  0  0  0
    7.3374  -13.3200   26.5153 C   0  0  1  0  0  0  0  0  0  0  0  0
    6.2597  -14.1545   26.7453 O   0  0  0  0  0  0  0  0  0  0  0  0
    8.5719  -14.1769   26.3720 C   0  0  2  0  0  0  0  0  0  0  0  0
    8.4112  -15.2172   25.3929 N   0  0  0  0  0  0  0  0  0  0  0  0
    9.0789  -14.6710   27.6604 C   0  0  0  0  0  0  0  0  0  0  0  0
    9.3647  -13.8197   28.7025 O   0  0  0  0  0  0  0  0  0  0  0  0
    9.2577  -15.8947   27.8212 O   0  0  0  0  0  0  0  0  0  0  0  0
  2  1  1  6
  2  4  1  0
  3  2  1  0
  4  6  1  0
  4  5  1  1
  6  8  1  0
  6  7  2  0
  8  9  1  0
  9 13  1  0
  9 10  1  6
 10 11  1  0
 11 15  1  0
 12 11  2  0
 13 14  2  0
 17 16  1  6
 17 19  1  0
 17 18  1  0
 19 21  1  0
 20 13  1  0
 19 20  1  6
 21 22  1  0
 23 21  2  0
M  END
$$$$
