TDT.pdb
     RDKit          3D

 23 22  0  0  1  0  0  0  0  0999 V2000
    7.8504  -12.1624   19.3386 C   0  0  0  0  0  0  0  0  0  0  0  0
    8.3441  -13.2843   20.1936 C   0  0  1  0  0  0  0  0  0  0  0  0
    7.4745  -13.3207   21.3205 O   0  0  0  0  0  0  0  0  0  0  0  0
    8.1630  -14.6524   19.5496 C   0  0  2  0  0  0  0  0  0  0  0  0
    6.7168  -14.8408   19.3074 N   0  0  0  0  0  0  0  0  0  0  0  0
    8.5383  -15.6854   20.5294 C   0  0  0  0  0  0  0  0  0  0  0  0
    7.6429  -16.2727   21.1956 O   0  0  0  0  0  0  0  0  0  0  0  0
    9.8659  -16.0607   20.7641 N   0  0  0  0  0  0  0  0  0  0  0  0
   10.2263  -17.0922   21.7491 C   0  0  1  0  0  0  0  0  0  0  0  0
   11.6063  -17.6026   21.4300 C   0  0  0  0  0  0  0  0  0  0  0  0
   12.0109  -18.6710   22.3641 C   0  0  0  0  0  0  0  0  0  0  0  0
   11.1967  -19.1165   23.1951 O   0  0  0  0  0  0  0  0  0  0  0  0
   10.1508  -16.4798   23.0877 C   0  0  0  0  0  0  0  0  0  0  0  0
   11.0061  -15.6392   23.4255 O   0  0  0  0  0  0  0  0  0  0  0  0
   13.2952  -19.1867   22.3258 O   0  0  0  0  0  0  0  0  0  0  0  0
    7.5963  -14.3077   24.7659 C   0  0  0  0  0  0  0  0  0  0  0  0
    7.7225  -15.5551   25.5679 C   0  0  1  0  0  0  0  0  0  0  0  0
    6.6755  -16.4035   25.2602 O   0  0  0  0  0  0  0  0  0  0  0  0
    9.0143  -16.3011   25.3363 C   0  0  2  0  0  0  0  0  0  0  0  0
    9.1128  -16.8341   24.0049 N   0  0  0  0  0  0  0  0  0  0  0  0
    9.2945  -17.2987   26.3790 C   0  0  0  0  0  0  0  0  0  0  0  0
    9.3528  -16.9595   27.7110 O   0  0  0  0  0  0  0  0  0  0  0  0
    9.4858  -18.4877   26.0555 O   0  0  0  0  0  0  0  0  0  0  0  0
  2  1  1  6
  2  4  1  0
  3  2  1  0
  4  6  1  0
  4  5  1  1
  6  8  1  0
  6  7  2  0
  8  9  1  0
  9 13  1  0
  9 10  1  6
 10 11  1  0
 11 15  1  0
 12 11  2  0
 13 14  2  0
 17 16  1  6
 17 19  1  0
 17 18  1  0
 19 21  1  0
 20 13  1  0
 19 20  1  6
 21 22  1  0
 23 21  2  0
M  END
$$$$
