TDT.pdb
     RDKit          3D

 23 22  0  0  1  0  0  0  0  0999 V2000
    8.0032  -11.9828   18.5474 C   0  0  0  0  0  0  0  0  0  0  0  0
    8.6851  -13.0690   19.3146 C   0  0  1  0  0  0  0  0  0  0  0  0
    7.6442  -13.7981   19.9569 O   0  0  0  0  0  0  0  0  0  0  0  0
    9.3559  -14.1032   18.4204 C   0  0  2  0  0  0  0  0  0  0  0  0
    8.2978  -14.7399   17.6075 N   0  0  0  0  0  0  0  0  0  0  0  0
    9.9012  -15.1748   19.2702 C   0  0  0  0  0  0  0  0  0  0  0  0
    9.2274  -16.2224   19.4681 O   0  0  0  0  0  0  0  0  0  0  0  0
   11.1572  -15.0921   19.8817 N   0  0  0  0  0  0  0  0  0  0  0  0
   11.6810  -16.1625   20.7443 C   0  0  1  0  0  0  0  0  0  0  0  0
   13.1693  -16.2618   20.5397 C   0  0  0  0  0  0  0  0  0  0  0  0
   13.4910  -16.8085   19.2072 C   0  0  0  0  0  0  0  0  0  0  0  0
   14.0211  -16.0823   18.3448 O   0  0  0  0  0  0  0  0  0  0  0  0
   11.3274  -15.8302   22.1361 C   0  0  0  0  0  0  0  0  0  0  0  0
   12.0523  -15.0496   22.7822 O   0  0  0  0  0  0  0  0  0  0  0  0
   13.2076  -18.1292   18.9039 O   0  0  0  0  0  0  0  0  0  0  0  0
    8.1759  -14.2231   23.4337 C   0  0  0  0  0  0  0  0  0  0  0  0
    8.3437  -15.5186   24.1468 C   0  0  1  0  0  0  0  0  0  0  0  0
    7.4959  -16.4585   23.5914 O   0  0  0  0  0  0  0  0  0  0  0  0
    9.7496  -16.0660   24.0943 C   0  0  2  0  0  0  0  0  0  0  0  0
   10.1668  -16.3885   22.7570 N   0  0  0  0  0  0  0  0  0  0  0  0
    9.9736  -17.1618   25.0483 C   0  0  0  0  0  0  0  0  0  0  0  0
    9.7746  -16.9994   26.3998 O   0  0  0  0  0  0  0  0  0  0  0  0
   10.3547  -18.2726   24.6289 O   0  0  0  0  0  0  0  0  0  0  0  0
  2  1  1  6
  2  4  1  0
  3  2  1  0
  4  6  1  0
  4  5  1  6
  6  8  1  0
  6  7  2  0
  8  9  1  0
  9 13  1  0
  9 10  1  1
 10 11  1  0
 11 15  1  0
 12 11  2  0
 13 14  2  0
 17 16  1  6
 17 19  1  0
 17 18  1  0
 19 21  1  0
 20 13  1  0
 19 20  1  6
 21 22  1  0
 23 21  2  0
M  END
$$$$
