TDT.pdb
     RDKit          3D

 23 22  0  0  1  0  0  0  0  0999 V2000
    7.9067  -12.7775   19.6818 C   0  0  0  0  0  0  0  0  0  0  0  0
    8.8603  -13.0607   18.5664 C   0  0  1  0  0  0  0  0  0  0  0  0
   10.1529  -12.7518   19.0776 O   0  0  0  0  0  0  0  0  0  0  0  0
    8.9509  -14.5402   18.2172 C   0  0  2  0  0  0  0  0  0  0  0  0
    7.6424  -14.9457   17.6613 N   0  0  0  0  0  0  0  0  0  0  0  0
    9.1065  -15.3078   19.4640 C   0  0  0  0  0  0  0  0  0  0  0  0
    8.0859  -15.6528   20.1196 O   0  0  0  0  0  0  0  0  0  0  0  0
   10.3551  -15.6859   19.9703 N   0  0  0  0  0  0  0  0  0  0  0  0
   10.4939  -16.6371   21.0839 C   0  0  1  0  0  0  0  0  0  0  0  0
   11.8588  -17.2683   21.0118 C   0  0  0  0  0  0  0  0  0  0  0  0
   11.9047  -18.3280   19.9856 C   0  0  0  0  0  0  0  0  0  0  0  0
   10.8490  -18.8434   19.5715 O   0  0  0  0  0  0  0  0  0  0  0  0
   10.2865  -15.8918   22.3386 C   0  0  0  0  0  0  0  0  0  0  0  0
   10.9517  -14.8609   22.5554 O   0  0  0  0  0  0  0  0  0  0  0  0
   13.1178  -18.7578   19.4752 O   0  0  0  0  0  0  0  0  0  0  0  0
    7.5190  -13.9204   23.7203 C   0  0  0  0  0  0  0  0  0  0  0  0
    7.7408  -15.0507   24.6629 C   0  0  1  0  0  0  0  0  0  0  0  0
    6.8093  -16.0413   24.4149 O   0  0  0  0  0  0  0  0  0  0  0  0
    9.1162  -15.6652   24.5654 C   0  0  2  0  0  0  0  0  0  0  0  0
    9.3352  -16.3321   23.3109 N   0  0  0  0  0  0  0  0  0  0  0  0
    9.4549  -16.4984   25.7282 C   0  0  0  0  0  0  0  0  0  0  0  0
    9.3471  -16.0260   27.0157 O   0  0  0  0  0  0  0  0  0  0  0  0
    9.8519  -17.6673   25.5511 O   0  0  0  0  0  0  0  0  0  0  0  0
  2  1  1  1
  2  4  1  0
  3  2  1  0
  4  6  1  0
  4  5  1  1
  6  8  1  0
  6  7  2  0
  8  9  1  0
  9 13  1  0
  9 10  1  1
 10 11  1  0
 11 15  1  0
 12 11  2  0
 13 14  2  0
 17 16  1  6
 17 19  1  0
 17 18  1  0
 19 21  1  0
 20 13  1  0
 19 20  1  6
 21 22  1  0
 23 21  2  0
M  END
$$$$
