LNH.pdb
     RDKit          3D

 27 27  0  0  1  0  0  0  0  0999 V2000
   31.1195  -14.9693  -17.5403 C   0  0  0  0  0  0  0  0  0  0  0  0
   29.6611  -14.6630  -17.6219 C   0  0  1  0  0  0  0  0  0  0  0  0
   28.9160  -16.0003  -17.7560 C   0  0  0  0  0  0  0  0  0  0  0  0
   29.0903  -13.9766  -16.4165 C   0  0  0  0  0  0  0  0  0  0  0  0
   27.6590  -13.5958  -16.7111 C   0  0  2  0  0  0  0  0  0  0  0  0
   27.5139  -13.6786  -18.1722 N   0  0  0  0  0  0  0  0  0  0  0  0
   27.3710  -12.1892  -16.3353 C   0  0  0  0  0  0  0  0  0  0  0  0
   27.4672  -11.8400  -15.1389 O   0  0  0  0  0  0  0  0  0  0  0  0
   30.0328   -9.5704  -18.6548 N   0  0  0  0  0  0  0  0  0  0  0  0
   29.0643   -9.1359  -17.6753 C   0  0  0  0  0  0  0  0  0  0  0  0
   29.5118   -8.8072  -16.5508 O   0  0  0  0  0  0  0  0  0  0  0  0
   27.6208   -9.0849  -18.0038 C   0  0  0  0  0  0  0  0  0  0  0  0
   26.7586   -9.8322  -16.9966 C   0  0  2  0  0  0  0  0  0  0  0  0
   26.9933  -11.2566  -17.3151 N   0  0  0  0  0  0  0  0  0  0  0  0
   25.3493   -9.5010  -17.1589 C   0  0  0  0  0  0  0  0  0  0  0  0
   24.7617   -9.9541  -18.2055 O   0  0  0  0  0  0  0  0  0  0  0  0
   24.6240   -8.7277  -16.2379 N   0  0  0  0  0  0  0  0  0  0  0  0
   23.1583   -8.6155  -16.4354 C   0  0  1  0  0  0  0  0  0  0  0  0
   22.6514  -10.0050  -16.2795 C   0  0  0  0  0  0  0  0  0  0  0  0
   21.1965  -10.1688  -16.2457 C   0  0  0  0  0  0  0  0  0  0  0  0
   20.2036   -9.2303  -16.3565 C   0  0  0  0  0  0  0  0  0  0  0  0
   19.0089   -9.8851  -16.3342 N   0  0  0  0  0  0  0  0  0  0  0  0
   19.2512  -11.2019  -16.2125 C   0  0  0  0  0  0  0  0  0  0  0  0
   20.5614  -11.3726  -16.1595 N   0  0  0  0  0  0  0  0  0  0  0  0
   22.7077   -7.7124  -15.3359 C   0  0  0  0  0  0  0  0  0  0  0  0
   21.4219   -7.2797  -15.2187 O   0  0  0  0  0  0  0  0  0  0  0  0
   23.5309   -7.3316  -14.4802 O   0  0  0  0  0  0  0  0  0  0  0  0
  2  1  1  1
  2  4  1  0
  2  3  1  0
  4  5  1  0
  5  7  1  0
  5  6  1  6
  7  8  2  0
  9 10  1  0
 10 12  1  0
 11 10  2  0
 13 12  1  6
 14 13  1  0
 14  7  1  0
 15 13  1  0
 16 15  2  0
 17 15  1  0
 18 19  1  1
 18 17  1  0
 20 19  1  0
 21 20  2  0
 22 21  1  0
 23 22  1  0
 23 24  2  0
 24 20  1  0
 25 26  1  0
 25 18  1  0
 27 25  2  0
M  END
$$$$
