LNH.pdb
     RDKit          3D

 27 27  0  0  1  0  0  0  0  0999 V2000
   25.6912  -15.3968  -17.1391 C   0  0  0  0  0  0  0  0  0  0  0  0
   24.5797  -14.9330  -16.2576 C   0  0  1  0  0  0  0  0  0  0  0  0
   25.1768  -14.6591  -14.8684 C   0  0  0  0  0  0  0  0  0  0  0  0
   23.9150  -13.6609  -16.6936 C   0  0  0  0  0  0  0  0  0  0  0  0
   22.7704  -13.3681  -15.7531 C   0  0  2  0  0  0  0  0  0  0  0  0
   21.9317  -14.5761  -15.7529 N   0  0  0  0  0  0  0  0  0  0  0  0
   21.9168  -12.2591  -16.2472 C   0  0  0  0  0  0  0  0  0  0  0  0
   22.4300  -11.3425  -16.9247 O   0  0  0  0  0  0  0  0  0  0  0  0
   15.7829  -11.2726  -16.6628 N   0  0  0  0  0  0  0  0  0  0  0  0
   17.1749  -10.9481  -16.8710 C   0  0  0  0  0  0  0  0  0  0  0  0
   17.4165   -9.9290  -17.5608 O   0  0  0  0  0  0  0  0  0  0  0  0
   18.2469  -11.7873  -16.2877 C   0  0  0  0  0  0  0  0  0  0  0  0
   19.6372  -11.2093  -16.5101 C   0  0  2  0  0  0  0  0  0  0  0  0
   20.5429  -12.2382  -15.9565 N   0  0  0  0  0  0  0  0  0  0  0  0
   19.8054   -9.9490  -15.7992 C   0  0  0  0  0  0  0  0  0  0  0  0
   19.9040  -10.0101  -14.5215 O   0  0  0  0  0  0  0  0  0  0  0  0
   19.8658   -8.7004  -16.4393 N   0  0  0  0  0  0  0  0  0  0  0  0
   20.0153   -7.4956  -15.5873 C   0  0  1  0  0  0  0  0  0  0  0  0
   21.3157   -6.9035  -15.9998 C   0  0  0  0  0  0  0  0  0  0  0  0
   21.6140   -5.5638  -15.4891 C   0  0  0  0  0  0  0  0  0  0  0  0
   20.9544   -4.8143  -14.5499 C   0  0  0  0  0  0  0  0  0  0  0  0
   21.6598   -3.6630  -14.3672 N   0  0  0  0  0  0  0  0  0  0  0  0
   22.7350   -3.6938  -15.1737 C   0  0  0  0  0  0  0  0  0  0  0  0
   22.7082   -4.8322  -15.8460 N   0  0  0  0  0  0  0  0  0  0  0  0
   18.8505   -6.6383  -15.9559 C   0  0  0  0  0  0  0  0  0  0  0  0
   18.1575   -6.7972  -17.1173 O   0  0  0  0  0  0  0  0  0  0  0  0
   18.4836   -5.7361  -15.1772 O   0  0  0  0  0  0  0  0  0  0  0  0
  2  1  1  6
  2  4  1  0
  2  3  1  0
  4  5  1  0
  5  7  1  0
  5  6  1  6
  7  8  2  0
  9 10  1  0
 10 12  1  0
 11 10  2  0
 13 12  1  1
 14 13  1  0
 14  7  1  0
 15 13  1  0
 16 15  2  0
 17 15  1  0
 18 19  1  6
 18 17  1  0
 20 19  1  0
 21 20  2  0
 22 21  1  0
 23 22  1  0
 23 24  2  0
 24 20  1  0
 25 26  1  0
 25 18  1  0
 27 25  2  0
M  END
$$$$
