LNH.pdb
     RDKit          3D

 27 27  0  0  1  0  0  0  0  0999 V2000
   17.9586  -15.3898  -17.1262 C   0  0  0  0  0  0  0  0  0  0  0  0
   18.7679  -14.1398  -17.2264 C   0  0  1  0  0  0  0  0  0  0  0  0
   19.1187  -13.9353  -18.7086 C   0  0  0  0  0  0  0  0  0  0  0  0
   18.0640  -12.8928  -16.7795 C   0  0  0  0  0  0  0  0  0  0  0  0
   19.0015  -11.7216  -16.9527 C   0  0  2  0  0  0  0  0  0  0  0  0
   20.1510  -11.9945  -16.0771 N   0  0  0  0  0  0  0  0  0  0  0  0
   18.3971  -10.4527  -16.4762 C   0  0  0  0  0  0  0  0  0  0  0  0
   17.3653  -10.0162  -17.0308 O   0  0  0  0  0  0  0  0  0  0  0  0
   16.0483   -8.2971  -13.2882 N   0  0  0  0  0  0  0  0  0  0  0  0
   17.2943   -8.5639  -12.6082 C   0  0  0  0  0  0  0  0  0  0  0  0
   17.2331   -8.7212  -11.3655 O   0  0  0  0  0  0  0  0  0  0  0  0
   18.5681   -8.6469  -13.3596 C   0  0  0  0  0  0  0  0  0  0  0  0
   18.3772   -8.5119  -14.8635 C   0  0  2  0  0  0  0  0  0  0  0  0
   18.9788   -9.7465  -15.4106 N   0  0  0  0  0  0  0  0  0  0  0  0
   19.0678   -7.3381  -15.3805 C   0  0  0  0  0  0  0  0  0  0  0  0
   20.3130   -7.4711  -15.6591 O   0  0  0  0  0  0  0  0  0  0  0  0
   18.4414   -6.0978  -15.5846 N   0  0  0  0  0  0  0  0  0  0  0  0
   19.1560   -5.0919  -16.4076 C   0  0  1  0  0  0  0  0  0  0  0  0
   19.3220   -5.7426  -17.7346 C   0  0  0  0  0  0  0  0  0  0  0  0
   19.8462   -4.9016  -18.8128 C   0  0  0  0  0  0  0  0  0  0  0  0
   20.3602   -3.6317  -18.7660 C   0  0  0  0  0  0  0  0  0  0  0  0
   20.7794   -3.3069  -20.0211 N   0  0  0  0  0  0  0  0  0  0  0  0
   20.5330   -4.3504  -20.8320 C   0  0  0  0  0  0  0  0  0  0  0  0
   19.9740   -5.3060  -20.1089 N   0  0  0  0  0  0  0  0  0  0  0  0
   18.2257   -3.9256  -16.4517 C   0  0  0  0  0  0  0  0  0  0  0  0
   18.6601   -2.6416  -16.5821 O   0  0  0  0  0  0  0  0  0  0  0  0
   16.9966   -4.1193  -16.3690 O   0  0  0  0  0  0  0  0  0  0  0  0
  2  1  1  6
  2  4  1  0
  2  3  1  0
  4  5  1  0
  5  7  1  0
  5  6  1  1
  7  8  2  0
  9 10  1  0
 10 12  1  0
 11 10  2  0
 13 12  1  1
 14 13  1  0
 14  7  1  0
 15 13  1  0
 16 15  2  0
 17 15  1  0
 18 19  1  6
 18 17  1  0
 20 19  1  0
 21 20  2  0
 22 21  1  0
 23 22  1  0
 23 24  2  0
 24 20  1  0
 25 26  1  0
 25 18  1  0
 27 25  2  0
M  END
$$$$
