LNH.pdb
     RDKit          3D

 27 27  0  0  1  0  0  0  0  0999 V2000
   21.1349  -11.9370  -21.3751 C   0  0  0  0  0  0  0  0  0  0  0  0
   21.5119  -11.1068  -20.1935 C   0  0  1  0  0  0  0  0  0  0  0  0
   23.0213  -10.8333  -20.2849 C   0  0  0  0  0  0  0  0  0  0  0  0
   20.8401   -9.7676  -20.1209 C   0  0  0  0  0  0  0  0  0  0  0  0
   21.3246   -9.0517  -18.8826 C   0  0  2  0  0  0  0  0  0  0  0  0
   21.0797   -9.9740  -17.7637 N   0  0  0  0  0  0  0  0  0  0  0  0
   20.5328   -7.8276  -18.6045 C   0  0  0  0  0  0  0  0  0  0  0  0
   20.6000   -6.8592  -19.3920 O   0  0  0  0  0  0  0  0  0  0  0  0
   16.1975   -7.2650  -18.8879 N   0  0  0  0  0  0  0  0  0  0  0  0
   16.8675   -7.9438  -17.8031 C   0  0  0  0  0  0  0  0  0  0  0  0
   16.8450   -9.1974  -17.8263 O   0  0  0  0  0  0  0  0  0  0  0  0
   17.5437   -7.1792  -16.7298 C   0  0  0  0  0  0  0  0  0  0  0  0
   18.8687   -6.5785  -17.1768 C   0  0  2  0  0  0  0  0  0  0  0  0
   19.7140   -7.7564  -17.4656 N   0  0  0  0  0  0  0  0  0  0  0  0
   19.4659   -5.7715  -16.1211 C   0  0  0  0  0  0  0  0  0  0  0  0
   18.8027   -4.7469  -15.7260 O   0  0  0  0  0  0  0  0  0  0  0  0
   20.7061   -6.0635  -15.5302 N   0  0  0  0  0  0  0  0  0  0  0  0
   21.1585   -5.1979  -14.4140 C   0  0  1  0  0  0  0  0  0  0  0  0
   21.6986   -6.1436  -13.4012 C   0  0  0  0  0  0  0  0  0  0  0  0
   20.7316   -7.0409  -12.7653 C   0  0  0  0  0  0  0  0  0  0  0  0
   19.3851   -7.1780  -12.9822 C   0  0  0  0  0  0  0  0  0  0  0  0
   18.9388   -8.1951  -12.1931 N   0  0  0  0  0  0  0  0  0  0  0  0
   19.9830   -8.6815  -11.5000 C   0  0  0  0  0  0  0  0  0  0  0  0
   21.0573   -7.9907  -11.8423 N   0  0  0  0  0  0  0  0  0  0  0  0
   22.2176   -4.3393  -15.0212 C   0  0  0  0  0  0  0  0  0  0  0  0
   22.8588   -3.3590  -14.3268 O   0  0  0  0  0  0  0  0  0  0  0  0
   22.5412   -4.5165  -16.2124 O   0  0  0  0  0  0  0  0  0  0  0  0
  2  1  1  6
  2  4  1  0
  2  3  1  0
  4  5  1  0
  5  7  1  0
  5  6  1  1
  7  8  2  0
  9 10  1  0
 10 12  1  0
 11 10  2  0
 13 12  1  1
 14 13  1  0
 14  7  1  0
 15 13  1  0
 16 15  2  0
 17 15  1  0
 18 19  1  1
 18 17  1  0
 20 19  1  0
 21 20  2  0
 22 21  1  0
 23 22  1  0
 23 24  2  0
 24 20  1  0
 25 26  1  0
 25 18  1  0
 27 25  2  0
M  END
$$$$
