LNH.pdb
     RDKit          3D

 27 27  0  0  1  0  0  0  0  0999 V2000
   28.6893  -21.3518  -11.4301 C   0  0  0  0  0  0  0  0  0  0  0  0
   27.2408  -21.6063  -11.6846 C   0  0  1  0  0  0  0  0  0  0  0  0
   26.5174  -21.5470  -10.3301 C   0  0  0  0  0  0  0  0  0  0  0  0
   26.5679  -20.6006  -12.5710 C   0  0  0  0  0  0  0  0  0  0  0  0
   25.1153  -20.9853  -12.7207 C   0  0  2  0  0  0  0  0  0  0  0  0
   25.1153  -22.3303  -13.3152 N   0  0  0  0  0  0  0  0  0  0  0  0
   24.4028  -20.0997  -13.6750 C   0  0  0  0  0  0  0  0  0  0  0  0
   24.2717  -18.8857  -13.4074 O   0  0  0  0  0  0  0  0  0  0  0  0
   23.4790  -22.4899  -18.0562 N   0  0  0  0  0  0  0  0  0  0  0  0
   24.2467  -21.5617  -17.2591 C   0  0  0  0  0  0  0  0  0  0  0  0
   25.2371  -22.0308  -16.6495 O   0  0  0  0  0  0  0  0  0  0  0  0
   23.8683  -20.1317  -17.1819 C   0  0  0  0  0  0  0  0  0  0  0  0
   23.1955  -19.7684  -15.8660 C   0  0  2  0  0  0  0  0  0  0  0  0
   23.8793  -20.6201  -14.8698 N   0  0  0  0  0  0  0  0  0  0  0  0
   21.7708  -20.0705  -15.9000 C   0  0  0  0  0  0  0  0  0  0  0  0
   21.4227  -21.2690  -15.6030 O   0  0  0  0  0  0  0  0  0  0  0  0
   20.7862  -19.1261  -16.2332 N   0  0  0  0  0  0  0  0  0  0  0  0
   19.3694  -19.5622  -16.1877 C   0  0  1  0  0  0  0  0  0  0  0  0
   18.7301  -18.6575  -15.1954 C   0  0  0  0  0  0  0  0  0  0  0  0
   18.7370  -19.1081  -13.8020 C   0  0  0  0  0  0  0  0  0  0  0  0
   19.2710  -20.2424  -13.2479 C   0  0  0  0  0  0  0  0  0  0  0  0
   19.0805  -20.1756  -11.9004 N   0  0  0  0  0  0  0  0  0  0  0  0
   18.4426  -19.0258  -11.6204 C   0  0  0  0  0  0  0  0  0  0  0  0
   18.2366  -18.3858  -12.7591 N   0  0  0  0  0  0  0  0  0  0  0  0
   18.8708  -19.3365  -17.5763 C   0  0  0  0  0  0  0  0  0  0  0  0
   17.6587  -19.7846  -18.0055 O   0  0  0  0  0  0  0  0  0  0  0  0
   19.5817  -18.7114  -18.3879 O   0  0  0  0  0  0  0  0  0  0  0  0
  2  1  1  1
  2  4  1  0
  2  3  1  0
  4  5  1  0
  5  7  1  0
  5  6  1  6
  7  8  2  0
  9 10  1  0
 10 12  1  0
 11 10  2  0
 13 12  1  6
 14 13  1  0
 14  7  1  0
 15 13  1  0
 16 15  2  0
 17 15  1  0
 18 19  1  1
 18 17  1  0
 20 19  1  0
 21 20  2  0
 22 21  1  0
 23 22  1  0
 23 24  2  0
 24 20  1  0
 25 26  1  0
 25 18  1  0
 27 25  2  0
M  END
$$$$
