LNH.pdb
     RDKit          3D

 27 27  0  0  1  0  0  0  0  0999 V2000
   25.3039  -13.4049  -19.3618 C   0  0  0  0  0  0  0  0  0  0  0  0
   24.6570  -12.6718  -18.2342 C   0  0  1  0  0  0  0  0  0  0  0  0
   25.6274  -12.7090  -17.0432 C   0  0  0  0  0  0  0  0  0  0  0  0
   24.3685  -11.2246  -18.5032 C   0  0  0  0  0  0  0  0  0  0  0  0
   23.6259  -10.6528  -17.3191 C   0  0  2  0  0  0  0  0  0  0  0  0
   22.5342  -11.5965  -17.0360 N   0  0  0  0  0  0  0  0  0  0  0  0
   22.9890   -9.3513  -17.6401 C   0  0  0  0  0  0  0  0  0  0  0  0
   23.6963   -8.4034  -18.0449 O   0  0  0  0  0  0  0  0  0  0  0  0
   18.7053   -9.8287  -20.1117 N   0  0  0  0  0  0  0  0  0  0  0  0
   19.5870   -8.7727  -19.6714 C   0  0  0  0  0  0  0  0  0  0  0  0
   20.3627   -8.2935  -20.5324 O   0  0  0  0  0  0  0  0  0  0  0  0
   19.5579   -8.2924  -18.2705 C   0  0  0  0  0  0  0  0  0  0  0  0
   20.9327   -7.8931  -17.7538 C   0  0  2  0  0  0  0  0  0  0  0  0
   21.6025   -9.1843  -17.4906 N   0  0  0  0  0  0  0  0  0  0  0  0
   20.8303   -7.1146  -16.5268 C   0  0  0  0  0  0  0  0  0  0  0  0
   20.2733   -7.6838  -15.5211 O   0  0  0  0  0  0  0  0  0  0  0  0
   21.3074   -5.7996  -16.4014 N   0  0  0  0  0  0  0  0  0  0  0  0
   21.2034   -5.1527  -15.0708 C   0  0  1  0  0  0  0  0  0  0  0  0
   22.0944   -5.9566  -14.1922 C   0  0  0  0  0  0  0  0  0  0  0  0
   21.4429   -6.9500  -13.3359 C   0  0  0  0  0  0  0  0  0  0  0  0
   20.1180   -7.2858  -13.2302 C   0  0  0  0  0  0  0  0  0  0  0  0
   20.0203   -8.3169  -12.3450 N   0  0  0  0  0  0  0  0  0  0  0  0
   21.2558   -8.6176  -11.9086 C   0  0  0  0  0  0  0  0  0  0  0  0
   22.1085   -7.7993  -12.5018 N   0  0  0  0  0  0  0  0  0  0  0  0
   21.7138   -3.7682  -15.2946 C   0  0  0  0  0  0  0  0  0  0  0  0
   21.6679   -2.8024  -14.3358 O   0  0  0  0  0  0  0  0  0  0  0  0
   22.2077   -3.4690  -16.3999 O   0  0  0  0  0  0  0  0  0  0  0  0
  2  1  1  6
  2  4  1  0
  2  3  1  0
  4  5  1  0
  5  7  1  0
  5  6  1  6
  7  8  2  0
  9 10  1  0
 10 12  1  0
 11 10  2  0
 13 12  1  1
 14 13  1  0
 14  7  1  0
 15 13  1  0
 16 15  2  0
 17 15  1  0
 18 19  1  1
 18 17  1  0
 20 19  1  0
 21 20  2  0
 22 21  1  0
 23 22  1  0
 23 24  2  0
 24 20  1  0
 25 26  1  0
 25 18  1  0
 27 25  2  0
M  END
$$$$
