LNH.pdb
     RDKit          3D

 27 27  0  0  1  0  0  0  0  0999 V2000
   19.5395  -13.7877  -18.0231 C   0  0  0  0  0  0  0  0  0  0  0  0
   20.4908  -12.6610  -17.7922 C   0  0  1  0  0  0  0  0  0  0  0  0
   21.3707  -12.5363  -19.0458 C   0  0  0  0  0  0  0  0  0  0  0  0
   19.8474  -11.3214  -17.5886 C   0  0  0  0  0  0  0  0  0  0  0  0
   19.0968  -11.3412  -16.2783 C   0  0  2  0  0  0  0  0  0  0  0  0
   17.7543  -11.8526  -16.5922 N   0  0  0  0  0  0  0  0  0  0  0  0
   18.9122   -9.9766  -15.7246 C   0  0  0  0  0  0  0  0  0  0  0  0
   18.2844   -9.1231  -16.3880 O   0  0  0  0  0  0  0  0  0  0  0  0
   16.6555   -8.6368  -13.1449 N   0  0  0  0  0  0  0  0  0  0  0  0
   17.6672   -8.7595  -12.1213 C   0  0  0  0  0  0  0  0  0  0  0  0
   17.2724   -9.0953  -10.9794 O   0  0  0  0  0  0  0  0  0  0  0  0
   19.0933   -8.5009  -12.4267 C   0  0  0  0  0  0  0  0  0  0  0  0
   19.3491   -8.2780  -13.9104 C   0  0  2  0  0  0  0  0  0  0  0  0
   19.4382   -9.6453  -14.4653 N   0  0  0  0  0  0  0  0  0  0  0  0
   20.5969   -7.5587  -14.1292 C   0  0  0  0  0  0  0  0  0  0  0  0
   21.6584   -8.2649  -14.2720 O   0  0  0  0  0  0  0  0  0  0  0  0
   20.6833   -6.1584  -14.1919 N   0  0  0  0  0  0  0  0  0  0  0  0
   21.9794   -5.5656  -14.6025 C   0  0  1  0  0  0  0  0  0  0  0  0
   22.2471   -6.1433  -15.9465 C   0  0  0  0  0  0  0  0  0  0  0  0
   23.3996   -5.6035  -16.6710 C   0  0  0  0  0  0  0  0  0  0  0  0
   24.5232   -4.9790  -16.1949 C   0  0  0  0  0  0  0  0  0  0  0  0
   25.3378   -4.7236  -17.2568 N   0  0  0  0  0  0  0  0  0  0  0  0
   24.7363   -5.1785  -18.3697 C   0  0  0  0  0  0  0  0  0  0  0  0
   23.5753   -5.7058  -18.0196 N   0  0  0  0  0  0  0  0  0  0  0  0
   21.7131   -4.0978  -14.6504 C   0  0  0  0  0  0  0  0  0  0  0  0
   20.4896   -3.5622  -14.3848 O   0  0  0  0  0  0  0  0  0  0  0  0
   22.6402   -3.3165  -14.9422 O   0  0  0  0  0  0  0  0  0  0  0  0
  2  1  1  6
  2  4  1  0
  2  3  1  0
  4  5  1  0
  5  7  1  0
  5  6  1  6
  7  8  2  0
  9 10  1  0
 10 12  1  0
 11 10  2  0
 13 12  1  1
 14 13  1  0
 14  7  1  0
 15 13  1  0
 16 15  2  0
 17 15  1  0
 18 19  1  6
 18 17  1  0
 20 19  1  0
 21 20  2  0
 22 21  1  0
 23 22  1  0
 23 24  2  0
 24 20  1  0
 25 26  1  0
 25 18  1  0
 27 25  2  0
M  END
$$$$
