LNH.pdb
     RDKit          3D

 27 27  0  0  1  0  0  0  0  0999 V2000
   24.9216  -14.5339  -17.8296 C   0  0  0  0  0  0  0  0  0  0  0  0
   24.4121  -13.2646  -17.2323 C   0  0  1  0  0  0  0  0  0  0  0  0
   25.5960  -12.5746  -16.5367 C   0  0  0  0  0  0  0  0  0  0  0  0
   23.8634  -12.2767  -18.2188 C   0  0  0  0  0  0  0  0  0  0  0  0
   23.3881  -11.0569  -17.4661 C   0  0  2  0  0  0  0  0  0  0  0  0
   22.4752  -11.5566  -16.4271 N   0  0  0  0  0  0  0  0  0  0  0  0
   22.5924  -10.1484  -18.3286 C   0  0  0  0  0  0  0  0  0  0  0  0
   23.1400   -9.5889  -19.3032 O   0  0  0  0  0  0  0  0  0  0  0  0
   18.6288   -8.5376  -21.2215 N   0  0  0  0  0  0  0  0  0  0  0  0
   18.1585   -9.1103  -19.9817 C   0  0  0  0  0  0  0  0  0  0  0  0
   16.9301   -9.0134  -19.7489 O   0  0  0  0  0  0  0  0  0  0  0  0
   19.0956   -9.7769  -19.0482 C   0  0  0  0  0  0  0  0  0  0  0  0
   20.4051   -9.0189  -18.8834 C   0  0  2  0  0  0  0  0  0  0  0  0
   21.2346   -9.9180  -18.0534 N   0  0  0  0  0  0  0  0  0  0  0  0
   20.1975   -7.7475  -18.2032 C   0  0  0  0  0  0  0  0  0  0  0  0
   19.4248   -6.8995  -18.7774 O   0  0  0  0  0  0  0  0  0  0  0  0
   20.7914   -7.4207  -16.9732 N   0  0  0  0  0  0  0  0  0  0  0  0
   20.4899   -6.0888  -16.3945 C   0  0  1  0  0  0  0  0  0  0  0  0
   19.2739   -6.3062  -15.5664 C   0  0  0  0  0  0  0  0  0  0  0  0
   17.9913   -5.9760  -16.1912 C   0  0  0  0  0  0  0  0  0  0  0  0
   17.7176   -5.5543  -17.4665 C   0  0  0  0  0  0  0  0  0  0  0  0
   16.3647   -5.4465  -17.5869 N   0  0  0  0  0  0  0  0  0  0  0  0
   15.8072   -5.7933  -16.4138 C   0  0  0  0  0  0  0  0  0  0  0  0
   16.7809   -6.1107  -15.5773 N   0  0  0  0  0  0  0  0  0  0  0  0
   21.6936   -5.7639  -15.5740 C   0  0  0  0  0  0  0  0  0  0  0  0
   21.7751   -4.6499  -14.7951 O   0  0  0  0  0  0  0  0  0  0  0  0
   22.6725   -6.5362  -15.5906 O   0  0  0  0  0  0  0  0  0  0  0  0
  2  1  1  6
  2  4  1  0
  2  3  1  0
  4  5  1  0
  5  7  1  0
  5  6  1  1
  7  8  2  0
  9 10  1  0
 10 12  1  0
 11 10  2  0
 13 12  1  1
 14 13  1  0
 14  7  1  0
 15 13  1  0
 16 15  2  0
 17 15  1  0
 18 19  1  1
 18 17  1  0
 20 19  1  0
 21 20  2  0
 22 21  1  0
 23 22  1  0
 23 24  2  0
 24 20  1  0
 25 26  1  0
 25 18  1  0
 27 25  2  0
M  END
$$$$
