LNH.pdb
     RDKit          3D

 27 27  0  0  1  0  0  0  0  0999 V2000
   11.7020  -10.9518  -11.0376 C   0  0  0  0  0  0  0  0  0  0  0  0
   12.9788  -10.4781  -10.4269 C   0  0  1  0  0  0  0  0  0  0  0  0
   12.7660  -10.4128   -8.9063 C   0  0  0  0  0  0  0  0  0  0  0  0
   14.1595  -11.3750  -10.6534 C   0  0  0  0  0  0  0  0  0  0  0  0
   14.6057  -11.2314  -12.0890 C   0  0  2  0  0  0  0  0  0  0  0  0
   15.2980  -12.4853  -12.4218 N   0  0  0  0  0  0  0  0  0  0  0  0
   15.5993  -10.1414  -12.2543 C   0  0  0  0  0  0  0  0  0  0  0  0
   16.6193  -10.1238  -11.5318 O   0  0  0  0  0  0  0  0  0  0  0  0
   18.1989   -9.6056  -14.6844 N   0  0  0  0  0  0  0  0  0  0  0  0
   17.4299   -8.6806  -15.4840 C   0  0  0  0  0  0  0  0  0  0  0  0
   17.6577   -8.6807  -16.7172 O   0  0  0  0  0  0  0  0  0  0  0  0
   16.4258   -7.7884  -14.8598 C   0  0  0  0  0  0  0  0  0  0  0  0
   16.3137   -7.9859  -13.3549 C   0  0  2  0  0  0  0  0  0  0  0  0
   15.3965   -9.1368  -13.2146 N   0  0  0  0  0  0  0  0  0  0  0  0
   15.7528   -6.8076  -12.7076 C   0  0  0  0  0  0  0  0  0  0  0  0
   14.4959   -6.6017  -12.8616 O   0  0  0  0  0  0  0  0  0  0  0  0
   16.5120   -5.9110  -11.9380 N   0  0  0  0  0  0  0  0  0  0  0  0
   15.8079   -4.7537  -11.3341 C   0  0  1  0  0  0  0  0  0  0  0  0
   16.1222   -4.8391   -9.8830 C   0  0  0  0  0  0  0  0  0  0  0  0
   15.4086   -5.8655   -9.1201 C   0  0  0  0  0  0  0  0  0  0  0  0
   15.8768   -7.0199   -8.5481 C   0  0  0  0  0  0  0  0  0  0  0  0
   14.8396   -7.6059   -7.8867 N   0  0  0  0  0  0  0  0  0  0  0  0
   13.7496   -6.8346   -8.0424 C   0  0  0  0  0  0  0  0  0  0  0  0
   14.0896   -5.7919   -8.7811 N   0  0  0  0  0  0  0  0  0  0  0  0
   16.4289   -3.5642  -11.9877 C   0  0  0  0  0  0  0  0  0  0  0  0
   16.0456   -2.2874  -11.7099 O   0  0  0  0  0  0  0  0  0  0  0  0
   17.3393   -3.7305  -12.8234 O   0  0  0  0  0  0  0  0  0  0  0  0
  2  1  1  6
  2  4  1  0
  2  3  1  0
  4  5  1  0
  5  7  1  0
  5  6  1  1
  7  8  2  0
  9 10  1  0
 10 12  1  0
 11 10  2  0
 13 12  1  6
 14 13  1  0
 14  7  1  0
 15 13  1  0
 16 15  2  0
 17 15  1  0
 18 19  1  1
 18 17  1  0
 20 19  1  0
 21 20  2  0
 22 21  1  0
 23 22  1  0
 23 24  2  0
 24 20  1  0
 25 26  1  0
 25 18  1  0
 27 25  2  0
M  END
$$$$
