LNH.pdb
     RDKit          3D

 27 27  0  0  1  0  0  0  0  0999 V2000
   24.0603  -34.9962  -12.3547 C   0  0  0  0  0  0  0  0  0  0  0  0
   24.3169  -33.9057  -11.3686 C   0  0  1  0  0  0  0  0  0  0  0  0
   22.9984  -33.1407  -11.1736 C   0  0  0  0  0  0  0  0  0  0  0  0
   24.7445  -34.3706  -10.0081 C   0  0  0  0  0  0  0  0  0  0  0  0
   25.0377  -33.1597   -9.1547 C   0  0  2  0  0  0  0  0  0  0  0  0
   25.9762  -32.3376   -9.9330 N   0  0  0  0  0  0  0  0  0  0  0  0
   25.7354  -33.5239   -7.8965 C   0  0  0  0  0  0  0  0  0  0  0  0
   26.9822  -33.4519   -7.8413 O   0  0  0  0  0  0  0  0  0  0  0  0
   26.6288  -34.2914   -2.8511 N   0  0  0  0  0  0  0  0  0  0  0  0
   26.7023  -33.0548   -3.5940 C   0  0  0  0  0  0  0  0  0  0  0  0
   27.2222  -32.0768   -3.0061 O   0  0  0  0  0  0  0  0  0  0  0  0
   26.1872  -32.9688   -4.9801 C   0  0  0  0  0  0  0  0  0  0  0  0
   25.6534  -34.2974   -5.4960 C   0  0  2  0  0  0  0  0  0  0  0  0
   25.0020  -33.9463   -6.7758 N   0  0  0  0  0  0  0  0  0  0  0  0
   24.6832  -34.8712   -4.5730 C   0  0  0  0  0  0  0  0  0  0  0  0
   23.6222  -34.1873   -4.3444 O   0  0  0  0  0  0  0  0  0  0  0  0
   24.8558  -36.1134   -3.9409 N   0  0  0  0  0  0  0  0  0  0  0  0
   23.9352  -37.2130   -4.3192 C   0  0  1  0  0  0  0  0  0  0  0  0
   24.3010  -37.5422   -5.7227 C   0  0  0  0  0  0  0  0  0  0  0  0
   23.6578  -38.7220   -6.3050 C   0  0  0  0  0  0  0  0  0  0  0  0
   22.7536  -39.5922   -5.7536 C   0  0  0  0  0  0  0  0  0  0  0  0
   22.3987  -40.4881   -6.7169 N   0  0  0  0  0  0  0  0  0  0  0  0
   23.0661  -40.1834   -7.8435 C   0  0  0  0  0  0  0  0  0  0  0  0
   23.8205  -39.1256   -7.5975 N   0  0  0  0  0  0  0  0  0  0  0  0
   24.2657  -38.3129   -3.3660 C   0  0  0  0  0  0  0  0  0  0  0  0
   25.5456  -38.6519   -3.0477 O   0  0  0  0  0  0  0  0  0  0  0  0
   23.3420  -38.9559   -2.8290 O   0  0  0  0  0  0  0  0  0  0  0  0
  2  1  1  6
  2  4  1  0
  2  3  1  0
  4  5  1  0
  5  7  1  0
  5  6  1  6
  7  8  2  0
  9 10  1  0
 10 12  1  0
 11 10  2  0
 13 12  1  1
 14 13  1  0
 14  7  1  0
 15 13  1  0
 16 15  2  0
 17 15  1  0
 18 19  1  6
 18 17  1  0
 20 19  1  0
 21 20  2  0
 22 21  1  0
 23 22  1  0
 23 24  2  0
 24 20  1  0
 25 26  1  0
 25 18  1  0
 27 25  2  0
M  END
$$$$
