LNH.pdb
     RDKit          3D

 27 27  0  0  1  0  0  0  0  0999 V2000
   30.2072  -11.6151  -18.4445 C   0  0  0  0  0  0  0  0  0  0  0  0
   29.0928  -11.5300  -17.4554 C   0  0  1  0  0  0  0  0  0  0  0  0
   29.3673  -10.3152  -16.5551 C   0  0  0  0  0  0  0  0  0  0  0  0
   27.7325  -11.3195  -18.0514 C   0  0  0  0  0  0  0  0  0  0  0  0
   26.7201  -11.2583  -16.9326 C   0  0  2  0  0  0  0  0  0  0  0  0
   26.6980  -12.6026  -16.3369 N   0  0  0  0  0  0  0  0  0  0  0  0
   25.3498  -10.9960  -17.4387 C   0  0  0  0  0  0  0  0  0  0  0  0
   25.1990  -10.4799  -18.5672 O   0  0  0  0  0  0  0  0  0  0  0  0
   23.1029  -13.3813  -18.9510 N   0  0  0  0  0  0  0  0  0  0  0  0
   22.3678  -13.6014  -17.7273 C   0  0  0  0  0  0  0  0  0  0  0  0
   21.9018  -14.7523  -17.5517 O   0  0  0  0  0  0  0  0  0  0  0  0
   22.1882  -12.5107  -16.7414 C   0  0  0  0  0  0  0  0  0  0  0  0
   22.8496  -11.2094  -17.1724 C   0  0  2  0  0  0  0  0  0  0  0  0
   24.2303  -11.3244  -16.6568 N   0  0  0  0  0  0  0  0  0  0  0  0
   22.1817  -10.0567  -16.5829 C   0  0  0  0  0  0  0  0  0  0  0  0
   22.3335   -9.8782  -15.3216 O   0  0  0  0  0  0  0  0  0  0  0  0
   21.4001   -9.1530  -17.3209 N   0  0  0  0  0  0  0  0  0  0  0  0
   20.8202   -7.9942  -16.5992 C   0  0  1  0  0  0  0  0  0  0  0  0
   21.3686   -6.8029  -17.3005 C   0  0  0  0  0  0  0  0  0  0  0  0
   22.7243   -6.3930  -16.9279 C   0  0  0  0  0  0  0  0  0  0  0  0
   23.3513   -6.4342  -15.7096 C   0  0  0  0  0  0  0  0  0  0  0  0
   24.6328   -6.0070  -15.8875 N   0  0  0  0  0  0  0  0  0  0  0  0
   24.8014   -5.7066  -17.1870 C   0  0  0  0  0  0  0  0  0  0  0  0
   23.6586   -5.9376  -17.8109 N   0  0  0  0  0  0  0  0  0  0  0  0
   19.3472   -8.1443  -16.7871 C   0  0  0  0  0  0  0  0  0  0  0  0
   18.4393   -7.3526  -16.1520 O   0  0  0  0  0  0  0  0  0  0  0  0
   18.9147   -9.0255  -17.5561 O   0  0  0  0  0  0  0  0  0  0  0  0
  2  1  1  6
  2  4  1  0
  2  3  1  0
  4  5  1  0
  5  7  1  0
  5  6  1  6
  7  8  2  0
  9 10  1  0
 10 12  1  0
 11 10  2  0
 13 12  1  1
 14 13  1  0
 14  7  1  0
 15 13  1  0
 16 15  2  0
 17 15  1  0
 18 19  1  6
 18 17  1  0
 20 19  1  0
 21 20  2  0
 22 21  1  0
 23 22  1  0
 23 24  2  0
 24 20  1  0
 25 26  1  0
 25 18  1  0
 27 25  2  0
M  END
$$$$
