RTH.pdb
     RDKit          3D

 29 29  0  0  1  0  0  0  0  0999 V2000
    9.2791  -13.1548   15.0854 N   0  0  0  0  0  0  0  0  0  0  0  0
    8.2825  -14.0614   15.5120 C   0  0  0  0  0  0  0  0  0  0  0  0
    8.2799  -15.2758   15.0624 N   0  0  0  0  0  0  0  0  0  0  0  0
    7.2855  -13.6286   16.4373 N   0  0  0  0  0  0  0  0  0  0  0  0
    7.5807  -13.3561   17.8116 C   0  0  0  0  0  0  0  0  0  0  0  0
    7.5411  -14.6205   18.6582 C   0  0  0  0  0  0  0  0  0  0  0  0
    7.9333  -14.2647   20.0663 C   0  0  0  0  0  0  0  0  0  0  0  0
    7.8530  -15.4501   21.0160 C   0  0  2  0  0  0  0  0  0  0  0  0
    6.6443  -16.2037   20.5998 N   0  0  0  0  0  0  0  0  0  0  0  0
    7.6637  -15.0993   22.4160 C   0  0  0  0  0  0  0  0  0  0  0  0
    7.5192  -13.8787   22.7837 O   0  0  0  0  0  0  0  0  0  0  0  0
    7.5201  -15.9399   15.3393 C   0  0  0  0  0  0  0  0  0  0  0  0
    6.4398  -14.0236   25.1325 C   0  0  2  0  0  0  0  0  0  0  0  0
    6.9724  -15.3210   25.6972 O   0  0  0  0  0  0  0  0  0  0  0  0
    5.9895  -16.2740   25.6091 C   0  0  2  0  0  0  0  0  0  0  0  0
    8.1617  -15.7191   24.8202 N   0  0  0  0  0  0  0  0  0  0  0  0
    7.6130  -16.0164   23.5117 C   0  0  0  0  0  0  0  0  0  0  0  0
    8.9267  -16.8250   25.3929 O   0  0  0  0  0  0  0  0  0  0  0  0
    8.8237  -17.9715   24.8869 N   0  0  0  0  0  0  0  0  0  0  0  0
    9.7740  -16.5972   26.5081 C   0  0  1  0  0  0  0  0  0  0  0  0
   10.4351  -17.7009   27.2202 C   0  0  0  0  0  0  0  0  0  0  0  0
   11.9346  -17.5835   27.0766 C   0  0  0  0  0  0  0  0  0  0  0  0
   12.4504  -17.9452   25.7514 C   0  0  0  0  0  0  0  0  0  0  0  0
   11.7650  -18.3388   24.6279 N   0  0  0  0  0  0  0  0  0  0  0  0
   12.6519  -18.5852   23.6369 C   0  0  0  0  0  0  0  0  0  0  0  0
   13.8570  -18.3454   24.1510 N   0  0  0  0  0  0  0  0  0  0  0  0
   13.7527  -17.9575   25.4287 C   0  0  0  0  0  0  0  0  0  0  0  0
   10.0869  -17.5951   28.6488 O   0  0  0  0  0  0  0  0  0  0  0  0
    9.4632  -16.5830   29.0512 O   0  0  0  0  0  0  0  0  0  0  0  0
  1  2  1  0
  2  3  2  0
  4  5  1  0
  4  2  1  0
  6  5  1  0
  7  6  1  0
  8  7  1  0
  8  9  1  6
  8 10  1  0
 10 11  2  0
 13 12  1  1
 13 14  1  0
 13 15  1  0
 15 17  1  0
 16 10  1  0
 15 16  1  1
 17 18  2  0
 19 17  1  0
 19 20  1  0
 20 27  1  0
 20 21  1  1
 22 21  1  0
 23 22  2  0
 24 23  1  0
 25 24  1  0
 25 26  2  0
 26 22  1  0
 27 28  2  0
 27 29  1  0
M  END
$$$$
