RTH.pdb
     RDKit          3D

 29 29  0  0  1  0  0  0  0  0999 V2000
    9.8136  -12.5105   17.3522 N   0  0  0  0  0  0  0  0  0  0  0  0
    9.0065  -12.4660   18.5113 C   0  0  0  0  0  0  0  0  0  0  0  0
    9.4879  -11.9892   19.6148 N   0  0  0  0  0  0  0  0  0  0  0  0
    7.6643  -12.9485   18.4544 N   0  0  0  0  0  0  0  0  0  0  0  0
    7.3233  -14.3056   18.7577 C   0  0  0  0  0  0  0  0  0  0  0  0
    6.4059  -14.3994   19.9688 C   0  0  0  0  0  0  0  0  0  0  0  0
    7.2495  -14.6521   21.1884 C   0  0  0  0  0  0  0  0  0  0  0  0
    7.9437  -16.0050   21.1527 C   0  0  2  0  0  0  0  0  0  0  0  0
    6.9468  -16.9412   20.5768 N   0  0  0  0  0  0  0  0  0  0  0  0
    8.3107  -16.5377   22.4567 C   0  0  0  0  0  0  0  0  0  0  0  0
    7.4434  -17.1047   23.2133 O   0  0  0  0  0  0  0  0  0  0  0  0
    8.8862  -11.9226   20.4683 C   0  0  0  0  0  0  0  0  0  0  0  0
   10.6608  -19.0223   23.1624 C   0  0  2  0  0  0  0  0  0  0  0  0
   11.0940  -17.9875   24.1759 O   0  0  0  0  0  0  0  0  0  0  0  0
   12.1691  -17.3016   23.6705 C   0  0  2  0  0  0  0  0  0  0  0  0
    9.9092  -17.0358   24.3565 N   0  0  0  0  0  0  0  0  0  0  0  0
    9.6160  -16.5063   23.0392 C   0  0  0  0  0  0  0  0  0  0  0  0
   10.1777  -15.9993   25.3513 O   0  0  0  0  0  0  0  0  0  0  0  0
   10.4707  -14.8385   24.9668 N   0  0  0  0  0  0  0  0  0  0  0  0
   10.1062  -16.3095   26.7342 C   0  0  1  0  0  0  0  0  0  0  0  0
   10.3866  -15.3056   27.7714 C   0  0  0  0  0  0  0  0  0  0  0  0
    9.0962  -14.8521   28.4134 C   0  0  0  0  0  0  0  0  0  0  0  0
    8.2484  -14.0170   27.5549 C   0  0  0  0  0  0  0  0  0  0  0  0
    8.5770  -12.8954   26.8331 N   0  0  0  0  0  0  0  0  0  0  0  0
    7.4722  -12.4441   26.1968 C   0  0  0  0  0  0  0  0  0  0  0  0
    6.4880  -13.2785   26.5274 N   0  0  0  0  0  0  0  0  0  0  0  0
    6.9408  -14.2352   27.3482 C   0  0  0  0  0  0  0  0  0  0  0  0
   11.2309  -15.9377   28.8013 O   0  0  0  0  0  0  0  0  0  0  0  0
   11.5344  -17.1496   28.6816 O   0  0  0  0  0  0  0  0  0  0  0  0
  1  2  1  0
  2  3  2  0
  4  5  1  0
  4  2  1  0
  6  5  1  0
  7  6  1  0
  8  7  1  0
  8  9  1  1
  8 10  1  0
 10 11  2  0
 13 12  1  1
 13 14  1  0
 13 15  1  0
 15 17  1  0
 16 10  1  0
 15 16  1  1
 17 18  2  0
 19 17  1  0
 19 20  1  0
 20 27  1  0
 20 21  1  1
 22 21  1  0
 23 22  2  0
 24 23  1  0
 25 24  1  0
 25 26  2  0
 26 22  1  0
 27 28  2  0
 27 29  1  0
M  END
$$$$
