RTH.pdb
     RDKit          3D

 29 29  0  0  1  0  0  0  0  0999 V2000
   17.8830  -17.7390   11.0663 N   0  0  0  0  0  0  0  0  0  0  0  0
   16.9978  -18.7164   11.5745 C   0  0  0  0  0  0  0  0  0  0  0  0
   16.3833  -19.5154   10.7616 N   0  0  0  0  0  0  0  0  0  0  0  0
   16.7891  -18.8138   12.9833 N   0  0  0  0  0  0  0  0  0  0  0  0
   16.1527  -17.7770   13.7382 C   0  0  0  0  0  0  0  0  0  0  0  0
   14.9866  -17.1608   12.9782 C   0  0  0  0  0  0  0  0  0  0  0  0
   14.4066  -16.0509   13.8117 C   0  0  0  0  0  0  0  0  0  0  0  0
   13.1403  -16.4666   14.5447 C   0  0  2  0  0  0  0  0  0  0  0  0
   12.0215  -15.9757   13.7025 N   0  0  0  0  0  0  0  0  0  0  0  0
   12.9688  -15.8631   15.8582 C   0  0  0  0  0  0  0  0  0  0  0  0
   13.0923  -14.5979   16.0317 O   0  0  0  0  0  0  0  0  0  0  0  0
   15.7151  -20.2317   11.1295 C   0  0  0  0  0  0  0  0  0  0  0  0
   10.1688  -16.2628   18.1022 C   0  0  2  0  0  0  0  0  0  0  0  0
   11.3291  -16.4899   19.0444 O   0  0  0  0  0  0  0  0  0  0  0  0
   11.4913  -17.8404   19.2230 C   0  0  2  0  0  0  0  0  0  0  0  0
   12.5654  -15.9047   18.3578 N   0  0  0  0  0  0  0  0  0  0  0  0
   12.6542  -16.5587   17.0671 C   0  0  0  0  0  0  0  0  0  0  0  0
   13.7724  -16.0551   19.1681 O   0  0  0  0  0  0  0  0  0  0  0  0
   14.4640  -17.0990   19.0540 N   0  0  0  0  0  0  0  0  0  0  0  0
   14.1515  -15.0283   20.0712 C   0  0  1  0  0  0  0  0  0  0  0  0
   15.3673  -15.1255   20.8925 C   0  0  0  0  0  0  0  0  0  0  0  0
   16.0593  -13.7836   20.9515 C   0  0  0  0  0  0  0  0  0  0  0  0
   16.7293  -13.3876   19.7076 C   0  0  0  0  0  0  0  0  0  0  0  0
   17.0850  -14.1576   18.6270 N   0  0  0  0  0  0  0  0  0  0  0  0
   17.6948  -13.3720   17.7105 C   0  0  0  0  0  0  0  0  0  0  0  0
   17.7094  -12.1441   18.2267 N   0  0  0  0  0  0  0  0  0  0  0  0
   17.1294  -12.1366   19.4340 C   0  0  0  0  0  0  0  0  0  0  0  0
   14.9659  -15.5113   22.2575 O   0  0  0  0  0  0  0  0  0  0  0  0
   13.7486  -15.4944   22.5628 O   0  0  0  0  0  0  0  0  0  0  0  0
  1  2  1  0
  2  3  2  0
  4  5  1  0
  4  2  1  0
  6  5  1  0
  7  6  1  0
  8  7  1  0
  8  9  1  6
  8 10  1  0
 10 11  2  0
 13 12  1  1
 13 14  1  0
 13 15  1  0
 15 17  1  0
 16 10  1  0
 15 16  1  1
 17 18  2  0
 19 17  1  0
 19 20  1  0
 20 27  1  0
 20 21  1  1
 22 21  1  0
 23 22  2  0
 24 23  1  0
 25 24  1  0
 25 26  2  0
 26 22  1  0
 27 28  2  0
 27 29  1  0
M  END
$$$$
