RTH.pdb
     RDKit          3D

 29 29  0  0  1  0  0  0  0  0999 V2000
    7.5013  -12.3892   17.4694 N   0  0  0  0  0  0  0  0  0  0  0  0
    8.0687  -13.6829   17.5072 C   0  0  0  0  0  0  0  0  0  0  0  0
    8.2410  -14.3443   16.4073 N   0  0  0  0  0  0  0  0  0  0  0  0
    8.4479  -14.2498   18.7613 N   0  0  0  0  0  0  0  0  0  0  0  0
    7.5724  -15.0927   19.5183 C   0  0  0  0  0  0  0  0  0  0  0  0
    6.9942  -14.3666   20.7247 C   0  0  0  0  0  0  0  0  0  0  0  0
    8.1267  -13.7462   21.4965 C   0  0  0  0  0  0  0  0  0  0  0  0
    9.3522  -14.6445   21.5657 C   0  0  2  0  0  0  0  0  0  0  0  0
    9.3029  -15.4693   20.3331 N   0  0  0  0  0  0  0  0  0  0  0  0
    9.3669  -15.5722   22.6874 C   0  0  0  0  0  0  0  0  0  0  0  0
    8.3112  -15.7958   23.3814 O   0  0  0  0  0  0  0  0  0  0  0  0
    8.5996  -15.3270   16.4326 C   0  0  0  0  0  0  0  0  0  0  0  0
   10.3953  -18.9799   22.3408 C   0  0  2  0  0  0  0  0  0  0  0  0
   11.1441  -18.5693   23.5883 O   0  0  0  0  0  0  0  0  0  0  0  0
   12.4220  -18.2155   23.2364 C   0  0  2  0  0  0  0  0  0  0  0  0
   10.4066  -17.3542   24.1557 N   0  0  0  0  0  0  0  0  0  0  0  0
   10.4964  -16.3216   23.1422 C   0  0  0  0  0  0  0  0  0  0  0  0
   10.9369  -16.9404   25.4533 O   0  0  0  0  0  0  0  0  0  0  0  0
   11.7720  -16.0019   25.5058 N   0  0  0  0  0  0  0  0  0  0  0  0
   10.5078  -17.5972   26.6357 C   0  0  1  0  0  0  0  0  0  0  0  0
   11.0390  -17.2402   27.9595 C   0  0  0  0  0  0  0  0  0  0  0  0
    9.9833  -16.5151   28.7612 C   0  0  0  0  0  0  0  0  0  0  0  0
    9.6641  -15.1689   28.2727 C   0  0  0  0  0  0  0  0  0  0  0  0
   10.5043  -14.1111   28.0232 N   0  0  0  0  0  0  0  0  0  0  0  0
    9.7698  -13.0587   27.5965 C   0  0  0  0  0  0  0  0  0  0  0  0
    8.5032  -13.4710   27.5873 N   0  0  0  0  0  0  0  0  0  0  0  0
    8.4222  -14.7447   27.9936 C   0  0  0  0  0  0  0  0  0  0  0  0
   11.3918  -18.4879   28.6609 O   0  0  0  0  0  0  0  0  0  0  0  0
   11.1087  -19.5883   28.1276 O   0  0  0  0  0  0  0  0  0  0  0  0
  1  2  1  0
  2  3  2  0
  4  5  1  0
  4  2  1  0
  6  5  1  0
  7  6  1  0
  8  7  1  0
  8  9  1  6
  8 10  1  0
 10 11  2  0
 13 12  1  1
 13 14  1  0
 13 15  1  0
 15 17  1  0
 16 10  1  0
 15 16  1  1
 17 18  2  0
 19 17  1  0
 19 20  1  0
 20 27  1  0
 20 21  1  1
 22 21  1  0
 23 22  2  0
 24 23  1  0
 25 24  1  0
 25 26  2  0
 26 22  1  0
 27 28  2  0
 27 29  1  0
M  END
$$$$
