RTH.pdb
     RDKit          3D

 29 29  0  0  1  0  0  0  0  0999 V2000
    8.3971  -11.9374   18.7619 N   0  0  0  0  0  0  0  0  0  0  0  0
    9.3286  -12.9397   18.4083 C   0  0  0  0  0  0  0  0  0  0  0  0
   10.5888  -12.7626   18.6476 N   0  0  0  0  0  0  0  0  0  0  0  0
    8.8698  -14.1412   17.7889 N   0  0  0  0  0  0  0  0  0  0  0  0
    7.9755  -15.0483   18.4427 C   0  0  0  0  0  0  0  0  0  0  0  0
    7.3781  -14.4404   19.7039 C   0  0  0  0  0  0  0  0  0  0  0  0
    6.7961  -15.5485   20.5385 C   0  0  0  0  0  0  0  0  0  0  0  0
    7.7675  -16.7005   20.7456 C   0  0  2  0  0  0  0  0  0  0  0  0
    7.1891  -17.8404   19.9918 N   0  0  0  0  0  0  0  0  0  0  0  0
    7.9066  -17.1415   22.1259 C   0  0  0  0  0  0  0  0  0  0  0  0
    7.1322  -18.0368   22.6208 O   0  0  0  0  0  0  0  0  0  0  0  0
   11.2827  -13.5060   18.4012 C   0  0  0  0  0  0  0  0  0  0  0  0
   11.0401  -18.3565   23.5096 C   0  0  2  0  0  0  0  0  0  0  0  0
    9.6973  -18.6173   24.1535 O   0  0  0  0  0  0  0  0  0  0  0  0
    9.9022  -19.2413   25.3580 C   0  0  1  0  0  0  0  0  0  0  0  0
    9.0530  -17.2479   24.3813 N   0  0  0  0  0  0  0  0  0  0  0  0
    8.8732  -16.6658   23.0658 C   0  0  0  0  0  0  0  0  0  0  0  0
    9.8389  -16.4090   25.2838 O   0  0  0  0  0  0  0  0  0  0  0  0
   10.9556  -15.9739   24.9035 N   0  0  0  0  0  0  0  0  0  0  0  0
    9.3384  -16.0944   26.5738 C   0  0  1  0  0  0  0  0  0  0  0  0
   10.0263  -15.1484   27.4649 C   0  0  0  0  0  0  0  0  0  0  0  0
    9.0138  -14.3681   28.2706 C   0  0  0  0  0  0  0  0  0  0  0  0
    8.1063  -13.5383   27.4701 C   0  0  0  0  0  0  0  0  0  0  0  0
    8.3583  -12.8352   26.3171 N   0  0  0  0  0  0  0  0  0  0  0  0
    7.2270  -12.2007   25.9343 C   0  0  0  0  0  0  0  0  0  0  0  0
    6.3025  -12.5134   26.8408 N   0  0  0  0  0  0  0  0  0  0  0  0
    6.8181  -13.3214   27.7763 C   0  0  0  0  0  0  0  0  0  0  0  0
   10.8702  -15.9254   28.3908 O   0  0  0  0  0  0  0  0  0  0  0  0
   10.8095  -17.1788   28.3651 O   0  0  0  0  0  0  0  0  0  0  0  0
  1  2  1  0
  2  3  2  0
  4  5  1  0
  4  2  1  0
  6  5  1  0
  7  6  1  0
  8  7  1  0
  8  9  1  6
  8 10  1  0
 10 11  2  0
 13 12  1  6
 13 14  1  0
 13 15  1  0
 15 17  1  0
 16 10  1  0
 15 16  1  6
 17 18  2  0
 19 17  1  0
 19 20  1  0
 20 27  1  0
 20 21  1  1
 22 21  1  0
 23 22  2  0
 24 23  1  0
 25 24  1  0
 25 26  2  0
 26 22  1  0
 27 28  2  0
 27 29  1  0
M  END
$$$$
