RTH.pdb
     RDKit          3D

 29 29  0  0  1  0  0  0  0  0999 V2000
    9.3769  -14.5603   12.6231 N   0  0  0  0  0  0  0  0  0  0  0  0
    8.1763  -15.1406   12.1555 C   0  0  0  0  0  0  0  0  0  0  0  0
    7.7360  -14.8483   10.9733 N   0  0  0  0  0  0  0  0  0  0  0  0
    7.4582  -16.0461   12.9934 N   0  0  0  0  0  0  0  0  0  0  0  0
    8.1061  -16.8565   13.9800 C   0  0  0  0  0  0  0  0  0  0  0  0
    9.0351  -16.0352   14.8629 C   0  0  0  0  0  0  0  0  0  0  0  0
    9.9845  -16.9721   15.5586 C   0  0  0  0  0  0  0  0  0  0  0  0
    9.5221  -17.3444   16.9590 C   0  0  2  0  0  0  0  0  0  0  0  0
    8.0809  -17.6704   16.8214 N   0  0  0  0  0  0  0  0  0  0  0  0
    9.6147  -16.2713   17.9382 C   0  0  0  0  0  0  0  0  0  0  0  0
   10.7228  -15.6628   18.1574 O   0  0  0  0  0  0  0  0  0  0  0  0
    6.8555  -15.2854   10.6146 C   0  0  0  0  0  0  0  0  0  0  0  0
    7.8555  -12.6085   20.5176 C   0  0  1  0  0  0  0  0  0  0  0  0
    7.6370  -13.7072   19.5023 O   0  0  0  0  0  0  0  0  0  0  0  0
    7.7897  -13.1796   18.2452 C   0  0  1  0  0  0  0  0  0  0  0  0
    8.7206  -14.7568   19.7601 N   0  0  0  0  0  0  0  0  0  0  0  0
    8.5426  -15.7746   18.7432 C   0  0  0  0  0  0  0  0  0  0  0  0
    8.6691  -15.2833   21.1225 O   0  0  0  0  0  0  0  0  0  0  0  0
    7.5872  -15.7501   21.5613 N   0  0  0  0  0  0  0  0  0  0  0  0
    9.8332  -15.2635   21.9337 C   0  0  1  0  0  0  0  0  0  0  0  0
   10.1127  -16.3196   22.9179 C   0  0  0  0  0  0  0  0  0  0  0  0
   10.2373  -17.6547   22.2214 C   0  0  0  0  0  0  0  0  0  0  0  0
   10.5546  -18.7787   23.1097 C   0  0  0  0  0  0  0  0  0  0  0  0
   10.7093  -18.7930   24.4746 N   0  0  0  0  0  0  0  0  0  0  0  0
   11.0120  -20.0510   24.8685 C   0  0  0  0  0  0  0  0  0  0  0  0
   11.0409  -20.7888   23.7599 N   0  0  0  0  0  0  0  0  0  0  0  0
   10.7665  -20.0345   22.6877 C   0  0  0  0  0  0  0  0  0  0  0  0
   11.3960  -16.0055   23.5718 O   0  0  0  0  0  0  0  0  0  0  0  0
   12.2617  -15.3565   22.9357 O   0  0  0  0  0  0  0  0  0  0  0  0
  1  2  1  0
  2  3  2  0
  4  5  1  0
  4  2  1  0
  6  5  1  0
  7  6  1  0
  8  7  1  0
  8  9  1  6
  8 10  1  0
 10 11  2  0
 13 12  1  6
 13 14  1  0
 13 15  1  0
 15 17  1  0
 16 10  1  0
 15 16  1  1
 17 18  2  0
 19 17  1  0
 19 20  1  0
 20 27  1  0
 20 21  1  1
 22 21  1  0
 23 22  2  0
 24 23  1  0
 25 24  1  0
 25 26  2  0
 26 22  1  0
 27 28  2  0
 27 29  1  0
M  END
$$$$
