RTH.pdb
     RDKit          3D

 29 29  0  0  1  0  0  0  0  0999 V2000
    7.3909  -12.7316   16.9605 N   0  0  0  0  0  0  0  0  0  0  0  0
    7.7212  -13.5647   15.8678 C   0  0  0  0  0  0  0  0  0  0  0  0
    7.2332  -13.3142   14.6948 N   0  0  0  0  0  0  0  0  0  0  0  0
    8.5924  -14.6777   16.0683 N   0  0  0  0  0  0  0  0  0  0  0  0
    9.2964  -14.8894   17.2969 C   0  0  0  0  0  0  0  0  0  0  0  0
    8.4041  -14.6503   18.5066 C   0  0  0  0  0  0  0  0  0  0  0  0
    8.4097  -15.8913   19.3569 C   0  0  0  0  0  0  0  0  0  0  0  0
    9.7809  -16.1984   19.9392 C   0  0  2  0  0  0  0  0  0  0  0  0
   10.4136  -17.1350   18.9776 N   0  0  0  0  0  0  0  0  0  0  0  0
    9.7596  -16.8755   21.2276 C   0  0  0  0  0  0  0  0  0  0  0  0
    9.1354  -16.3778   22.2320 O   0  0  0  0  0  0  0  0  0  0  0  0
    7.5217  -13.8885   13.8691 C   0  0  0  0  0  0  0  0  0  0  0  0
   10.9183  -20.7823   24.0397 C   0  0  2  0  0  0  0  0  0  0  0  0
   11.0055  -20.1102   22.6883 O   0  0  0  0  0  0  0  0  0  0  0  0
   10.3344  -20.8793   21.7717 C   0  0  1  0  0  0  0  0  0  0  0  0
   10.3127  -18.7533   22.8340 N   0  0  0  0  0  0  0  0  0  0  0  0
   10.3939  -18.1200   21.5324 C   0  0  0  0  0  0  0  0  0  0  0  0
   10.8916  -17.9481   23.9075 O   0  0  0  0  0  0  0  0  0  0  0  0
   12.0473  -17.4733   23.7659 N   0  0  0  0  0  0  0  0  0  0  0  0
   10.1495  -17.7102   25.0933 C   0  0  1  0  0  0  0  0  0  0  0  0
   10.6928  -16.9139   26.2037 C   0  0  0  0  0  0  0  0  0  0  0  0
    9.6494  -15.9401   26.6999 C   0  0  0  0  0  0  0  0  0  0  0  0
   10.0007  -15.2534   27.9480 C   0  0  0  0  0  0  0  0  0  0  0  0
   11.1126  -15.4026   28.7408 N   0  0  0  0  0  0  0  0  0  0  0  0
   11.0085  -14.5722   29.8032 C   0  0  0  0  0  0  0  0  0  0  0  0
    9.8512  -13.9289   29.6579 N   0  0  0  0  0  0  0  0  0  0  0  0
    9.2296  -14.3294   28.5411 C   0  0  0  0  0  0  0  0  0  0  0  0
   11.0382  -17.8367   27.3003 O   0  0  0  0  0  0  0  0  0  0  0  0
   10.4500  -18.9429   27.3745 O   0  0  0  0  0  0  0  0  0  0  0  0
  1  2  1  0
  2  3  2  0
  4  5  1  0
  4  2  1  0
  6  5  1  0
  7  6  1  0
  8  7  1  0
  8  9  1  6
  8 10  1  0
 10 11  2  0
 13 12  1  6
 13 14  1  0
 13 15  1  0
 15 17  1  0
 16 10  1  0
 15 16  1  6
 17 18  2  0
 19 17  1  0
 19 20  1  0
 20 27  1  0
 20 21  1  1
 22 21  1  0
 23 22  2  0
 24 23  1  0
 25 24  1  0
 25 26  2  0
 26 22  1  0
 27 28  2  0
 27 29  1  0
M  END
$$$$
