RTH.pdb
     RDKit          3D

 29 29  0  0  1  0  0  0  0  0999 V2000
   11.1212  -18.3503   14.0198 N   0  0  0  0  0  0  0  0  0  0  0  0
    9.9938  -19.2013   14.0636 C   0  0  0  0  0  0  0  0  0  0  0  0
   10.1266  -20.4284   14.4553 N   0  0  0  0  0  0  0  0  0  0  0  0
    8.7158  -18.6984   13.6746 N   0  0  0  0  0  0  0  0  0  0  0  0
    8.5613  -17.4723   12.9516 C   0  0  0  0  0  0  0  0  0  0  0  0
    9.1274  -16.2880   13.7223 C   0  0  0  0  0  0  0  0  0  0  0  0
    8.4928  -16.2584   15.0859 C   0  0  0  0  0  0  0  0  0  0  0  0
    8.0907  -14.8562   15.5166 C   0  0  2  0  0  0  0  0  0  0  0  0
    8.5448  -13.9648   14.4206 N   0  0  0  0  0  0  0  0  0  0  0  0
    8.7351  -14.3825   16.7328 C   0  0  0  0  0  0  0  0  0  0  0  0
    9.9013  -13.8482   16.7046 O   0  0  0  0  0  0  0  0  0  0  0  0
    9.3065  -21.0783   14.4433 C   0  0  0  0  0  0  0  0  0  0  0  0
    7.1840  -12.5597   19.7518 C   0  0  2  0  0  0  0  0  0  0  0  0
    7.9425  -13.7404   20.3142 O   0  0  0  0  0  0  0  0  0  0  0  0
    7.0575  -14.7650   20.5357 C   0  0  2  0  0  0  0  0  0  0  0  0
    8.9569  -14.1526   19.2449 N   0  0  0  0  0  0  0  0  0  0  0  0
    8.1862  -14.4419   18.0516 C   0  0  0  0  0  0  0  0  0  0  0  0
    9.7957  -15.2683   19.6778 O   0  0  0  0  0  0  0  0  0  0  0  0
   10.0542  -16.1945   18.8676 N   0  0  0  0  0  0  0  0  0  0  0  0
   10.3084  -15.2971   21.0007 C   0  0  1  0  0  0  0  0  0  0  0  0
   11.7159  -15.6166   21.2820 C   0  0  0  0  0  0  0  0  0  0  0  0
   12.6139  -14.5500   20.6997 C   0  0  0  0  0  0  0  0  0  0  0  0
   13.4831  -15.0119   19.6115 C   0  0  0  0  0  0  0  0  0  0  0  0
   13.4767  -16.2109   18.9412 N   0  0  0  0  0  0  0  0  0  0  0  0
   14.4683  -16.2046   18.0215 C   0  0  0  0  0  0  0  0  0  0  0  0
   15.0676  -15.0202   18.1319 N   0  0  0  0  0  0  0  0  0  0  0  0
   14.4839  -14.2871   19.0889 C   0  0  0  0  0  0  0  0  0  0  0  0
   11.8949  -15.6388   22.7451 O   0  0  0  0  0  0  0  0  0  0  0  0
   11.1212  -14.9611   23.4644 O   0  0  0  0  0  0  0  0  0  0  0  0
  1  2  1  0
  2  3  2  0
  4  5  1  0
  4  2  1  0
  6  5  1  0
  7  6  1  0
  8  7  1  0
  8  9  1  6
  8 10  1  0
 10 11  2  0
 13 12  1  1
 13 14  1  0
 13 15  1  0
 15 17  1  0
 16 10  1  0
 15 16  1  1
 17 18  2  0
 19 17  1  0
 19 20  1  0
 20 27  1  0
 20 21  1  1
 22 21  1  0
 23 22  2  0
 24 23  1  0
 25 24  1  0
 25 26  2  0
 26 22  1  0
 27 28  2  0
 27 29  1  0
M  END
$$$$
