RTH.pdb
     RDKit          3D

 29 29  0  0  1  0  0  0  0  0999 V2000
   15.7299  -18.9192   19.1217 N   0  0  0  0  0  0  0  0  0  0  0  0
   15.1622  -19.5328   17.9823 C   0  0  0  0  0  0  0  0  0  0  0  0
   15.9231  -19.9010   17.0013 N   0  0  0  0  0  0  0  0  0  0  0  0
   13.7513  -19.7416   17.9237 N   0  0  0  0  0  0  0  0  0  0  0  0
   12.8623  -19.2654   18.9400 C   0  0  0  0  0  0  0  0  0  0  0  0
   12.0801  -18.0440   18.4779 C   0  0  0  0  0  0  0  0  0  0  0  0
   11.2414  -17.5519   19.6257 C   0  0  0  0  0  0  0  0  0  0  0  0
    9.7639  -17.8690   19.4522 C   0  0  2  0  0  0  0  0  0  0  0  0
    9.3143  -17.0286   18.3148 N   0  0  0  0  0  0  0  0  0  0  0  0
    8.9257  -17.5152   20.5885 C   0  0  0  0  0  0  0  0  0  0  0  0
    8.4040  -16.3478   20.6941 O   0  0  0  0  0  0  0  0  0  0  0  0
   15.5071  -20.3318   16.1432 C   0  0  0  0  0  0  0  0  0  0  0  0
    7.6924  -20.3059   23.4620 C   0  0  2  0  0  0  0  0  0  0  0  0
    6.7911  -19.1734   23.0255 O   0  0  0  0  0  0  0  0  0  0  0  0
    5.9260  -18.8816   24.0496 C   0  0  1  0  0  0  0  0  0  0  0  0
    7.7022  -17.9733   22.7577 N   0  0  0  0  0  0  0  0  0  0  0  0
    8.5857  -18.3734   21.6803 C   0  0  0  0  0  0  0  0  0  0  0  0
    8.4126  -17.5381   23.9586 O   0  0  0  0  0  0  0  0  0  0  0  0
    9.6637  -17.6533   24.0091 N   0  0  0  0  0  0  0  0  0  0  0  0
    7.6892  -16.9927   25.0507 C   0  0  1  0  0  0  0  0  0  0  0  0
    8.3606  -16.5322   26.2752 C   0  0  0  0  0  0  0  0  0  0  0  0
    7.4263  -15.6579   27.0789 C   0  0  0  0  0  0  0  0  0  0  0  0
    7.2404  -14.3063   26.5389 C   0  0  0  0  0  0  0  0  0  0  0  0
    8.0269  -13.6048   25.6578 N   0  0  0  0  0  0  0  0  0  0  0  0
    7.4754  -12.3873   25.4511 C   0  0  0  0  0  0  0  0  0  0  0  0
    6.3714  -12.3500   26.1954 N   0  0  0  0  0  0  0  0  0  0  0  0
    6.2149  -13.5027   26.8594 C   0  0  0  0  0  0  0  0  0  0  0  0
    8.7071  -17.7184   27.0790 O   0  0  0  0  0  0  0  0  0  0  0  0
    8.2289  -18.8335   26.7578 O   0  0  0  0  0  0  0  0  0  0  0  0
  1  2  1  0
  2  3  2  0
  4  5  1  0
  4  2  1  0
  6  5  1  0
  7  6  1  0
  8  7  1  0
  8  9  1  6
  8 10  1  0
 10 11  2  0
 13 12  1  6
 13 14  1  0
 13 15  1  0
 15 17  1  0
 16 10  1  0
 15 16  1  6
 17 18  2  0
 19 17  1  0
 19 20  1  0
 20 27  1  0
 20 21  1  1
 22 21  1  0
 23 22  2  0
 24 23  1  0
 25 24  1  0
 25 26  2  0
 26 22  1  0
 27 28  2  0
 27 29  1  0
M  END
$$$$
