RTH.pdb
     RDKit          3D

 29 29  0  0  1  0  0  0  0  0999 V2000
   16.6236  -14.0996   13.4973 N   0  0  0  0  0  0  0  0  0  0  0  0
   15.8868  -14.3916   14.6673 C   0  0  0  0  0  0  0  0  0  0  0  0
   15.9126  -13.5701   15.6679 N   0  0  0  0  0  0  0  0  0  0  0  0
   15.1187  -15.5929   14.7349 N   0  0  0  0  0  0  0  0  0  0  0  0
   14.1174  -15.9190   13.7647 C   0  0  0  0  0  0  0  0  0  0  0  0
   12.7292  -15.4942   14.2223 C   0  0  0  0  0  0  0  0  0  0  0  0
   12.4523  -16.1276   15.5584 C   0  0  0  0  0  0  0  0  0  0  0  0
   11.2426  -17.0492   15.5325 C   0  0  2  0  0  0  0  0  0  0  0  0
   10.2734  -16.3970   14.6174 N   0  0  0  0  0  0  0  0  0  0  0  0
   10.5667  -17.2061   16.8121 C   0  0  0  0  0  0  0  0  0  0  0  0
    9.9049  -16.2415   17.3391 O   0  0  0  0  0  0  0  0  0  0  0  0
   15.4118  -13.8041   16.5564 C   0  0  0  0  0  0  0  0  0  0  0  0
    9.1257  -20.0556   20.5851 C   0  0  2  0  0  0  0  0  0  0  0  0
    9.9268  -19.9431   19.3078 O   0  0  0  0  0  0  0  0  0  0  0  0
    9.3261  -20.7127   18.3441 C   0  0  1  0  0  0  0  0  0  0  0  0
    9.8827  -18.4694   18.8975 N   0  0  0  0  0  0  0  0  0  0  0  0
   10.5467  -18.3915   17.6111 C   0  0  0  0  0  0  0  0  0  0  0  0
   10.4734  -17.5948   19.9085 O   0  0  0  0  0  0  0  0  0  0  0  0
   11.7216  -17.4458   19.9399 N   0  0  0  0  0  0  0  0  0  0  0  0
    9.6388  -16.9253   20.8406 C   0  0  1  0  0  0  0  0  0  0  0  0
   10.1756  -15.9590   21.8104 C   0  0  0  0  0  0  0  0  0  0  0  0
    9.1248  -14.9265   22.1462 C   0  0  0  0  0  0  0  0  0  0  0  0
    8.7501  -14.0521   21.0291 C   0  0  0  0  0  0  0  0  0  0  0  0
    9.3675  -13.8782   19.8143 N   0  0  0  0  0  0  0  0  0  0  0  0
    8.6788  -12.9594   19.0998 C   0  0  0  0  0  0  0  0  0  0  0  0
    7.6592  -12.5810   19.8689 N   0  0  0  0  0  0  0  0  0  0  0  0
    7.6880  -13.2324   21.0389 C   0  0  0  0  0  0  0  0  0  0  0  0
   10.5268  -16.6937   23.0393 O   0  0  0  0  0  0  0  0  0  0  0  0
   10.0364  -17.8332   23.2298 O   0  0  0  0  0  0  0  0  0  0  0  0
  1  2  1  0
  2  3  2  0
  4  5  1  0
  4  2  1  0
  6  5  1  0
  7  6  1  0
  8  7  1  0
  8  9  1  6
  8 10  1  0
 10 11  2  0
 13 12  1  1
 13 14  1  0
 13 15  1  0
 15 17  1  0
 16 10  1  0
 15 16  1  1
 17 18  2  0
 19 17  1  0
 19 20  1  0
 20 27  1  0
 20 21  1  1
 22 21  1  0
 23 22  2  0
 24 23  1  0
 25 24  1  0
 25 26  2  0
 26 22  1  0
 27 28  2  0
 27 29  1  0
M  END
$$$$
