WVT.pdb
     RDKit          3D

 29 30  0  0  1  0  0  0  0  0999 V2000
    5.9816  -18.6586   24.8990 N   0  0  0  0  0  0  0  0  0  0  0  0
    6.3224  -17.2737   24.7301 C   0  0  1  0  0  0  0  0  0  0  0  0
    7.1278  -16.7492   25.8938 C   0  0  0  0  0  0  0  0  0  0  0  0
    6.7732  -15.3990   26.3301 C   0  0  0  0  0  0  0  0  0  0  0  0
    5.5154  -14.9898   26.7151 C   0  0  0  0  0  0  0  0  0  0  0  0
    5.5684  -13.6947   27.0717 N   0  0  0  0  0  0  0  0  0  0  0  0
    6.8176  -13.2259   26.9372 C   0  0  0  0  0  0  0  0  0  0  0  0
    7.3477  -11.9793   27.1731 C   0  0  0  0  0  0  0  0  0  0  0  0
    8.6953  -11.7852   26.9338 C   0  0  0  0  0  0  0  0  0  0  0  0
    9.4633  -12.8294   26.4715 C   0  0  0  0  0  0  0  0  0  0  0  0
    8.9422  -14.0870   26.2308 C   0  0  0  0  0  0  0  0  0  0  0  0
    7.5814  -14.2940   26.4702 C   0  0  0  0  0  0  0  0  0  0  0  0
    7.2167  -17.1528   23.5320 C   0  0  0  0  0  0  0  0  0  0  0  0
    7.8956  -18.1659   23.2273 O   0  0  0  0  0  0  0  0  0  0  0  0
    6.7514  -14.3460   20.5154 C   0  0  0  0  0  0  0  0  0  0  0  0
    8.1534  -14.5787   20.9810 C   0  0  2  0  0  0  0  0  0  0  0  0
    9.1583  -14.4577   19.8541 C   0  0  0  0  0  0  0  0  0  0  0  0
    8.2663  -15.9248   21.6751 C   0  0  2  0  0  0  0  0  0  0  0  0
    7.2937  -15.9519   22.7775 N   0  0  0  0  0  0  0  0  0  0  0  0
    9.6242  -16.1204   22.1643 C   0  0  0  0  0  0  0  0  0  0  0  0
   10.0001  -15.3898   23.1622 O   0  0  0  0  0  0  0  0  0  0  0  0
   13.7589  -18.7820   22.9061 C   0  0  0  0  0  0  0  0  0  0  0  0
   12.3679  -18.5855   22.4122 C   0  0  1  0  0  0  0  0  0  0  0  0
   11.4832  -19.3424   23.1778 O   0  0  0  0  0  0  0  0  0  0  0  0
   11.9146  -17.1440   22.3605 C   0  0  2  0  0  0  0  0  0  0  0  0
   10.6214  -17.0120   21.7112 N   0  0  0  0  0  0  0  0  0  0  0  0
   12.9154  -16.3844   21.5840 C   0  0  0  0  0  0  0  0  0  0  0  0
   12.8414  -16.2718   20.3211 O   0  0  0  0  0  0  0  0  0  0  0  0
   14.0061  -15.7376   22.1577 O   0  0  0  0  0  0  0  0  0  0  0  0
  2  1  1  1
  2 13  1  0
  3  2  1  0
  3  4  1  0
  4 12  1  0
  5  6  1  0
  5  4  2  0
  6  7  1  0
  7 12  2  0
  7  8  1  0
  8  9  2  0
  9 10  1  0
 11 10  2  0
 12 11  1  0
 13 19  1  0
 13 14  2  0
 16 15  1  6
 16 18  1  0
 16 17  1  0
 18 20  1  0
 18 19  1  1
 20 21  2  0
 23 22  1  1
 23 24  1  0
 23 25  1  0
 25 27  1  0
 25 26  1  6
 26 20  1  0
 27 29  1  0
 28 27  2  0
M  END
$$$$
