WVT.pdb
     RDKit          3D

 29 30  0  0  1  0  0  0  0  0999 V2000
    6.0827  -16.7379   25.2295 N   0  0  0  0  0  0  0  0  0  0  0  0
    6.8242  -15.6660   24.6263 C   0  0  1  0  0  0  0  0  0  0  0  0
    8.0843  -15.3542   25.3962 C   0  0  0  0  0  0  0  0  0  0  0  0
    7.9227  -14.3789   26.4741 C   0  0  0  0  0  0  0  0  0  0  0  0
    8.4369  -14.5037   27.7461 C   0  0  0  0  0  0  0  0  0  0  0  0
    8.1098  -13.4109   28.4576 N   0  0  0  0  0  0  0  0  0  0  0  0
    7.3951  -12.5621   27.7045 C   0  0  0  0  0  0  0  0  0  0  0  0
    6.8441  -11.3364   27.9956 C   0  0  0  0  0  0  0  0  0  0  0  0
    6.1407  -10.6823   27.0014 C   0  0  0  0  0  0  0  0  0  0  0  0
    6.0104  -11.2653   25.7616 C   0  0  0  0  0  0  0  0  0  0  0  0
    6.5598  -12.4967   25.4568 C   0  0  0  0  0  0  0  0  0  0  0  0
    7.2732  -13.1658   26.4543 C   0  0  0  0  0  0  0  0  0  0  0  0
    7.2795  -16.1151   23.2696 C   0  0  0  0  0  0  0  0  0  0  0  0
    7.2860  -17.3538   23.0555 O   0  0  0  0  0  0  0  0  0  0  0  0
    8.9776  -13.5347   20.3110 C   0  0  0  0  0  0  0  0  0  0  0  0
    8.0171  -14.6212   19.9455 C   0  0  2  0  0  0  0  0  0  0  0  0
    6.6045  -14.1024   19.7729 C   0  0  0  0  0  0  0  0  0  0  0  0
    8.0689  -15.7427   20.9683 C   0  0  2  0  0  0  0  0  0  0  0  0
    7.6844  -15.1865   22.2740 N   0  0  0  0  0  0  0  0  0  0  0  0
    9.4075  -16.3151   21.0120 C   0  0  0  0  0  0  0  0  0  0  0  0
   10.2397  -15.7996   21.8560 O   0  0  0  0  0  0  0  0  0  0  0  0
   12.5904  -20.1071   20.4181 C   0  0  0  0  0  0  0  0  0  0  0  0
   11.2643  -19.4523   20.2449 C   0  0  1  0  0  0  0  0  0  0  0  0
   10.3051  -20.1193   21.0043 O   0  0  0  0  0  0  0  0  0  0  0  0
   11.2451  -17.9734   20.5588 C   0  0  2  0  0  0  0  0  0  0  0  0
    9.9533  -17.3790   20.2602 N   0  0  0  0  0  0  0  0  0  0  0  0
   12.2725  -17.3216   19.7215 C   0  0  0  0  0  0  0  0  0  0  0  0
   12.0212  -16.9154   18.5446 O   0  0  0  0  0  0  0  0  0  0  0  0
   13.5808  -17.0994   20.1412 O   0  0  0  0  0  0  0  0  0  0  0  0
  2  1  1  1
  2 13  1  0
  3  2  1  0
  3  4  1  0
  4 12  1  0
  5  6  1  0
  5  4  2  0
  6  7  1  0
  7 12  2  0
  7  8  1  0
  8  9  2  0
  9 10  1  0
 11 10  2  0
 12 11  1  0
 13 19  1  0
 13 14  2  0
 16 15  1  1
 16 18  1  0
 16 17  1  0
 18 20  1  0
 18 19  1  1
 20 21  2  0
 23 22  1  1
 23 24  1  0
 23 25  1  0
 25 27  1  0
 25 26  1  6
 26 20  1  0
 27 29  1  0
 28 27  2  0
M  END
$$$$
