WVT.pdb
     RDKit          3D

 29 30  0  0  1  0  0  0  0  0999 V2000
    6.0936  -18.3662   24.7572 N   0  0  0  0  0  0  0  0  0  0  0  0
    6.3897  -16.9750   24.5580 C   0  0  1  0  0  0  0  0  0  0  0  0
    7.1879  -16.4028   25.7040 C   0  0  0  0  0  0  0  0  0  0  0  0
    6.7177  -15.1085   26.1970 C   0  0  0  0  0  0  0  0  0  0  0  0
    5.4282  -14.8259   26.5909 C   0  0  0  0  0  0  0  0  0  0  0  0
    5.3691  -13.5482   27.0048 N   0  0  0  0  0  0  0  0  0  0  0  0
    6.5740  -12.9689   26.9001 C   0  0  0  0  0  0  0  0  0  0  0  0
    6.9947  -11.6934   27.1946 C   0  0  0  0  0  0  0  0  0  0  0  0
    8.3215  -11.3745   26.9736 C   0  0  0  0  0  0  0  0  0  0  0  0
    9.1776  -12.3276   26.4710 C   0  0  0  0  0  0  0  0  0  0  0  0
    8.7667  -13.6131   26.1712 C   0  0  0  0  0  0  0  0  0  0  0  0
    7.4279  -13.9460   26.3916 C   0  0  0  0  0  0  0  0  0  0  0  0
    7.2698  -16.8503   23.3499 C   0  0  0  0  0  0  0  0  0  0  0  0
    7.8890  -17.8838   22.9909 O   0  0  0  0  0  0  0  0  0  0  0  0
    6.6499  -14.0855   20.3464 C   0  0  0  0  0  0  0  0  0  0  0  0
    8.0775  -14.3038   20.7347 C   0  0  2  0  0  0  0  0  0  0  0  0
    9.0163  -14.1912   19.5515 C   0  0  0  0  0  0  0  0  0  0  0  0
    8.2385  -15.6403   21.4380 C   0  0  2  0  0  0  0  0  0  0  0  0
    7.3985  -15.6242   22.6447 N   0  0  0  0  0  0  0  0  0  0  0  0
    9.6387  -15.8615   21.7725 C   0  0  0  0  0  0  0  0  0  0  0  0
   10.2014  -14.9941   22.5481 O   0  0  0  0  0  0  0  0  0  0  0  0
   11.9683  -18.5385   23.7093 C   0  0  0  0  0  0  0  0  0  0  0  0
   12.3005  -18.3115   22.2756 C   0  0  1  0  0  0  0  0  0  0  0  0
   11.7350  -19.3173   21.4945 O   0  0  0  0  0  0  0  0  0  0  0  0
   11.9064  -16.9519   21.7444 C   0  0  2  0  0  0  0  0  0  0  0  0
   10.5014  -16.9072   21.3764 N   0  0  0  0  0  0  0  0  0  0  0  0
   12.7209  -16.6844   20.5418 C   0  0  0  0  0  0  0  0  0  0  0  0
   12.2350  -16.7605   19.3709 O   0  0  0  0  0  0  0  0  0  0  0  0
   14.0666  -16.3317   20.5859 O   0  0  0  0  0  0  0  0  0  0  0  0
  2  1  1  1
  2 13  1  0
  3  2  1  0
  3  4  1  0
  4 12  1  0
  5  6  1  0
  5  4  2  0
  6  7  1  0
  7 12  2  0
  7  8  1  0
  8  9  2  0
  9 10  1  0
 11 10  2  0
 12 11  1  0
 13 19  1  0
 13 14  2  0
 16 15  1  6
 16 18  1  0
 16 17  1  0
 18 20  1  0
 18 19  1  1
 20 21  2  0
 23 22  1  1
 23 24  1  0
 23 25  1  0
 25 27  1  0
 25 26  1  6
 26 20  1  0
 27 29  1  0
 28 27  2  0
M  END
$$$$
