WVT.pdb
     RDKit          3D

 29 30  0  0  1  0  0  0  0  0999 V2000
    6.1752  -18.4118   24.2556 N   0  0  0  0  0  0  0  0  0  0  0  0
    6.4606  -17.0078   24.1554 C   0  0  1  0  0  0  0  0  0  0  0  0
    7.3234  -16.5290   25.2974 C   0  0  0  0  0  0  0  0  0  0  0  0
    6.8538  -15.3102   25.9558 C   0  0  0  0  0  0  0  0  0  0  0  0
    5.6529  -15.1729   26.6166 C   0  0  0  0  0  0  0  0  0  0  0  0
    5.5692  -13.9269   27.1144 N   0  0  0  0  0  0  0  0  0  0  0  0
    6.6723  -13.2285   26.8081 C   0  0  0  0  0  0  0  0  0  0  0  0
    7.0323  -11.9324   27.0931 C   0  0  0  0  0  0  0  0  0  0  0  0
    8.2530  -11.4758   26.6322 C   0  0  0  0  0  0  0  0  0  0  0  0
    9.0672  -12.3172   25.9091 C   0  0  0  0  0  0  0  0  0  0  0  0
    8.7166  -13.6220   25.6163 C   0  0  0  0  0  0  0  0  0  0  0  0
    7.4853  -14.0937   26.0781 C   0  0  0  0  0  0  0  0  0  0  0  0
    7.2703  -16.7805   22.9136 C   0  0  0  0  0  0  0  0  0  0  0  0
    7.8658  -17.7788   22.4349 O   0  0  0  0  0  0  0  0  0  0  0  0
    6.5648  -13.8381   20.2140 C   0  0  0  0  0  0  0  0  0  0  0  0
    8.0197  -14.0241   20.5064 C   0  0  2  0  0  0  0  0  0  0  0  0
    8.8793  -13.8439   19.2724 C   0  0  0  0  0  0  0  0  0  0  0  0
    8.2632  -15.3768   21.1524 C   0  0  2  0  0  0  0  0  0  0  0  0
    7.3610  -15.4994   22.3069 N   0  0  0  0  0  0  0  0  0  0  0  0
    9.6575  -15.4913   21.5576 C   0  0  0  0  0  0  0  0  0  0  0  0
   10.5342  -14.8892   20.8229 O   0  0  0  0  0  0  0  0  0  0  0  0
   11.4902  -15.2445   25.3582 C   0  0  0  0  0  0  0  0  0  0  0  0
   11.8759  -16.3671   24.4590 C   0  0  1  0  0  0  0  0  0  0  0  0
   11.2301  -17.5355   24.8580 O   0  0  0  0  0  0  0  0  0  0  0  0
   11.6325  -16.1100   22.9891 C   0  0  2  0  0  0  0  0  0  0  0  0
   10.2181  -16.1708   22.6616 N   0  0  0  0  0  0  0  0  0  0  0  0
   12.3421  -17.1560   22.2250 C   0  0  0  0  0  0  0  0  0  0  0  0
   11.7194  -18.0424   21.5620 O   0  0  0  0  0  0  0  0  0  0  0  0
   13.7288  -17.2594   22.1657 O   0  0  0  0  0  0  0  0  0  0  0  0
  2  1  1  1
  2 13  1  0
  3  2  1  0
  3  4  1  0
  4 12  1  0
  5  6  1  0
  5  4  2  0
  6  7  1  0
  7 12  2  0
  7  8  1  0
  8  9  2  0
  9 10  1  0
 11 10  2  0
 12 11  1  0
 13 19  1  0
 13 14  2  0
 16 15  1  6
 16 18  1  0
 16 17  1  0
 18 20  1  0
 18 19  1  1
 20 21  2  0
 23 22  1  1
 23 24  1  0
 23 25  1  0
 25 27  1  0
 25 26  1  1
 26 20  1  0
 27 29  1  0
 28 27  2  0
M  END
$$$$
