WVT.pdb
     RDKit          3D

 29 30  0  0  1  0  0  0  0  0999 V2000
    5.6833  -18.0168   24.4978 N   0  0  0  0  0  0  0  0  0  0  0  0
    6.1765  -16.6913   24.2474 C   0  0  1  0  0  0  0  0  0  0  0  0
    7.0722  -16.2074   25.3616 C   0  0  0  0  0  0  0  0  0  0  0  0
    6.6817  -14.9289   25.9552 C   0  0  0  0  0  0  0  0  0  0  0  0
    5.4301  -14.6263   26.4448 C   0  0  0  0  0  0  0  0  0  0  0  0
    5.4441  -13.3736   26.9327 N   0  0  0  0  0  0  0  0  0  0  0  0
    6.6612  -12.8303   26.7849 C   0  0  0  0  0  0  0  0  0  0  0  0
    7.1465  -11.5892   27.1235 C   0  0  0  0  0  0  0  0  0  0  0  0
    8.4684  -11.3030   26.8376 C   0  0  0  0  0  0  0  0  0  0  0  0
    9.2559  -12.2536   26.2293 C   0  0  0  0  0  0  0  0  0  0  0  0
    8.7798  -13.5048   25.8843 C   0  0  0  0  0  0  0  0  0  0  0  0
    7.4453  -13.8044   26.1696 C   0  0  0  0  0  0  0  0  0  0  0  0
    7.0417  -16.7356   23.0230 C   0  0  0  0  0  0  0  0  0  0  0  0
    7.5251  -17.8533   22.7110 O   0  0  0  0  0  0  0  0  0  0  0  0
    6.7169  -14.1069   19.8627 C   0  0  0  0  0  0  0  0  0  0  0  0
    8.1152  -14.4438   20.2723 C   0  0  2  0  0  0  0  0  0  0  0  0
    9.0605  -14.4988   19.0901 C   0  0  0  0  0  0  0  0  0  0  0  0
    8.1405  -15.7443   21.0564 C   0  0  2  0  0  0  0  0  0  0  0  0
    7.3032  -15.5714   22.2526 N   0  0  0  0  0  0  0  0  0  0  0  0
    9.5109  -16.0823   21.4158 C   0  0  0  0  0  0  0  0  0  0  0  0
   10.0645  -15.3784   22.3479 O   0  0  0  0  0  0  0  0  0  0  0  0
   13.4274  -19.1712   21.7003 C   0  0  0  0  0  0  0  0  0  0  0  0
   12.0685  -18.8155   21.2059 C   0  0  1  0  0  0  0  0  0  0  0  0
   11.1232  -19.6748   21.7624 O   0  0  0  0  0  0  0  0  0  0  0  0
   11.6691  -17.3760   21.4392 C   0  0  2  0  0  0  0  0  0  0  0  0
   10.3522  -17.0906   20.8956 N   0  0  0  0  0  0  0  0  0  0  0  0
   12.6598  -16.5175   20.7588 C   0  0  0  0  0  0  0  0  0  0  0  0
   12.6056  -16.2886   19.5107 O   0  0  0  0  0  0  0  0  0  0  0  0
   13.7190  -15.8958   21.4136 O   0  0  0  0  0  0  0  0  0  0  0  0
  2  1  1  1
  2 13  1  0
  3  2  1  0
  3  4  1  0
  4 12  1  0
  5  6  1  0
  5  4  2  0
  6  7  1  0
  7 12  2  0
  7  8  1  0
  8  9  2  0
  9 10  1  0
 11 10  2  0
 12 11  1  0
 13 19  1  0
 13 14  2  0
 16 15  1  6
 16 18  1  0
 16 17  1  0
 18 20  1  0
 18 19  1  1
 20 21  2  0
 23 22  1  1
 23 24  1  0
 23 25  1  0
 25 27  1  0
 25 26  1  6
 26 20  1  0
 27 29  1  0
 28 27  2  0
M  END
$$$$
