WVT.pdb
     RDKit          3D

 29 30  0  0  1  0  0  0  0  0999 V2000
    5.9596  -18.5827   24.8745 N   0  0  0  0  0  0  0  0  0  0  0  0
    6.2944  -17.1961   24.7072 C   0  0  1  0  0  0  0  0  0  0  0  0
    7.0391  -16.6519   25.9019 C   0  0  0  0  0  0  0  0  0  0  0  0
    6.6666  -15.2928   26.2937 C   0  0  0  0  0  0  0  0  0  0  0  0
    5.4012  -14.8858   26.6554 C   0  0  0  0  0  0  0  0  0  0  0  0
    5.4374  -13.5799   26.9728 N   0  0  0  0  0  0  0  0  0  0  0  0
    6.6828  -13.1020   26.8349 C   0  0  0  0  0  0  0  0  0  0  0  0
    7.1977  -11.8432   27.0372 C   0  0  0  0  0  0  0  0  0  0  0  0
    8.5453  -11.6420   26.8037 C   0  0  0  0  0  0  0  0  0  0  0  0
    9.3283  -12.6914   26.3799 C   0  0  0  0  0  0  0  0  0  0  0  0
    8.8225  -13.9612   26.1732 C   0  0  0  0  0  0  0  0  0  0  0  0
    7.4618  -14.1755   26.4071 C   0  0  0  0  0  0  0  0  0  0  0  0
    7.2425  -17.0779   23.5511 C   0  0  0  0  0  0  0  0  0  0  0  0
    8.0138  -18.0499   23.3493 O   0  0  0  0  0  0  0  0  0  0  0  0
    6.7833  -14.4009   20.3561 C   0  0  0  0  0  0  0  0  0  0  0  0
    8.1566  -14.5750   20.9222 C   0  0  2  0  0  0  0  0  0  0  0  0
    9.2332  -14.4335   19.8662 C   0  0  0  0  0  0  0  0  0  0  0  0
    8.2685  -15.9058   21.6454 C   0  0  2  0  0  0  0  0  0  0  0  0
    7.2689  -15.9238   22.7236 N   0  0  0  0  0  0  0  0  0  0  0  0
    9.6159  -16.0746   22.1720 C   0  0  0  0  0  0  0  0  0  0  0  0
    9.9469  -15.3425   23.1846 O   0  0  0  0  0  0  0  0  0  0  0  0
   13.6580  -18.6352   23.3115 C   0  0  0  0  0  0  0  0  0  0  0  0
   12.2838  -18.4508   22.7681 C   0  0  1  0  0  0  0  0  0  0  0  0
   11.3485  -18.9657   23.6635 O   0  0  0  0  0  0  0  0  0  0  0  0
   11.9341  -17.0246   22.4080 C   0  0  2  0  0  0  0  0  0  0  0  0
   10.6453  -16.9409   21.7422 N   0  0  0  0  0  0  0  0  0  0  0  0
   12.9763  -16.5231   21.4895 C   0  0  0  0  0  0  0  0  0  0  0  0
   12.8961  -16.6815   20.2319 O   0  0  0  0  0  0  0  0  0  0  0  0
   14.1157  -15.8456   21.9138 O   0  0  0  0  0  0  0  0  0  0  0  0
  2  1  1  1
  2 13  1  0
  3  2  1  0
  3  4  1  0
  4 12  1  0
  5  6  1  0
  5  4  2  0
  6  7  1  0
  7 12  2  0
  7  8  1  0
  8  9  2  0
  9 10  1  0
 11 10  2  0
 12 11  1  0
 13 19  1  0
 13 14  2  0
 16 15  1  6
 16 18  1  0
 16 17  1  0
 18 20  1  0
 18 19  1  1
 20 21  2  0
 23 22  1  1
 23 24  1  0
 23 25  1  0
 25 27  1  0
 25 26  1  6
 26 20  1  0
 27 29  1  0
 28 27  2  0
M  END
$$$$
