WVT.pdb
     RDKit          3D

 29 30  0  0  1  0  0  0  0  0999 V2000
    6.0487  -18.5793   24.9174 N   0  0  0  0  0  0  0  0  0  0  0  0
    6.3008  -17.1795   24.7184 C   0  0  1  0  0  0  0  0  0  0  0  0
    6.9643  -16.5536   25.9209 C   0  0  0  0  0  0  0  0  0  0  0  0
    6.4953  -15.2086   26.2532 C   0  0  0  0  0  0  0  0  0  0  0  0
    5.1819  -14.8523   26.4675 C   0  0  0  0  0  0  0  0  0  0  0  0
    5.1293  -13.5438   26.7717 N   0  0  0  0  0  0  0  0  0  0  0  0
    6.3618  -13.0152   26.7672 C   0  0  0  0  0  0  0  0  0  0  0  0
    6.7992  -11.7346   27.0107 C   0  0  0  0  0  0  0  0  0  0  0  0
    8.1550  -11.4788   26.9258 C   0  0  0  0  0  0  0  0  0  0  0  0
    9.0224  -12.4975   26.6037 C   0  0  0  0  0  0  0  0  0  0  0  0
    8.5950  -13.7888   26.3570 C   0  0  0  0  0  0  0  0  0  0  0  0
    7.2267  -14.0582   26.4410 C   0  0  0  0  0  0  0  0  0  0  0  0
    7.2823  -17.0342   23.5935 C   0  0  0  0  0  0  0  0  0  0  0  0
    8.0360  -18.0150   23.3691 O   0  0  0  0  0  0  0  0  0  0  0  0
    6.7223  -14.5195   20.3851 C   0  0  0  0  0  0  0  0  0  0  0  0
    8.1209  -14.5668   20.9127 C   0  0  2  0  0  0  0  0  0  0  0  0
    9.1529  -14.4376   19.8115 C   0  0  0  0  0  0  0  0  0  0  0  0
    8.3400  -15.8314   21.7248 C   0  0  2  0  0  0  0  0  0  0  0  0
    7.3575  -15.8463   22.8187 N   0  0  0  0  0  0  0  0  0  0  0  0
    9.7025  -15.8633   22.2386 C   0  0  0  0  0  0  0  0  0  0  0  0
   10.0361  -14.9375   23.0767 O   0  0  0  0  0  0  0  0  0  0  0  0
   11.8251  -18.0421   24.7056 C   0  0  0  0  0  0  0  0  0  0  0  0
   12.4007  -17.9547   23.3350 C   0  0  1  0  0  0  0  0  0  0  0  0
   12.0260  -19.0729   22.5928 O   0  0  0  0  0  0  0  0  0  0  0  0
   12.0544  -16.6883   22.5850 C   0  0  2  0  0  0  0  0  0  0  0  0
   10.7445  -16.7757   21.9622 N   0  0  0  0  0  0  0  0  0  0  0  0
   13.0700  -16.4974   21.5298 C   0  0  0  0  0  0  0  0  0  0  0  0
   12.8203  -16.7322   20.3069 O   0  0  0  0  0  0  0  0  0  0  0  0
   14.3648  -16.0515   21.7787 O   0  0  0  0  0  0  0  0  0  0  0  0
  2  1  1  1
  2 13  1  0
  3  2  1  0
  3  4  1  0
  4 12  1  0
  5  6  1  0
  5  4  2  0
  6  7  1  0
  7 12  2  0
  7  8  1  0
  8  9  2  0
  9 10  1  0
 11 10  2  0
 12 11  1  0
 13 19  1  0
 13 14  2  0
 16 15  1  6
 16 18  1  0
 16 17  1  0
 18 20  1  0
 18 19  1  1
 20 21  2  0
 23 22  1  1
 23 24  1  0
 23 25  1  0
 25 27  1  0
 25 26  1  6
 26 20  1  0
 27 29  1  0
 28 27  2  0
M  END
$$$$
