WVT.pdb
     RDKit          3D

 29 30  0  0  1  0  0  0  0  0999 V2000
    5.8585  -18.1287   24.1409 N   0  0  0  0  0  0  0  0  0  0  0  0
    6.2531  -16.7486   24.0899 C   0  0  1  0  0  0  0  0  0  0  0  0
    7.0235  -16.3407   25.3219 C   0  0  0  0  0  0  0  0  0  0  0  0
    6.5343  -15.1307   25.9822 C   0  0  0  0  0  0  0  0  0  0  0  0
    5.3101  -14.9989   26.6001 C   0  0  0  0  0  0  0  0  0  0  0  0
    5.2126  -13.7608   27.1147 N   0  0  0  0  0  0  0  0  0  0  0  0
    6.3290  -13.0623   26.8611 C   0  0  0  0  0  0  0  0  0  0  0  0
    6.6829  -11.7726   27.1805 C   0  0  0  0  0  0  0  0  0  0  0  0
    7.9216  -11.3138   26.7729 C   0  0  0  0  0  0  0  0  0  0  0  0
    8.7590  -12.1469   26.0668 C   0  0  0  0  0  0  0  0  0  0  0  0
    8.4147  -13.4453   25.7399 C   0  0  0  0  0  0  0  0  0  0  0  0
    7.1653  -13.9191   26.1478 C   0  0  0  0  0  0  0  0  0  0  0  0
    7.2030  -16.5738   22.9423 C   0  0  0  0  0  0  0  0  0  0  0  0
    7.8573  -17.5874   22.5891 O   0  0  0  0  0  0  0  0  0  0  0  0
    6.8448  -13.5732   20.1087 C   0  0  0  0  0  0  0  0  0  0  0  0
    8.2387  -13.8916   20.5470 C   0  0  2  0  0  0  0  0  0  0  0  0
    9.2406  -13.7448   19.4206 C   0  0  0  0  0  0  0  0  0  0  0  0
    8.2994  -15.2806   21.1581 C   0  0  2  0  0  0  0  0  0  0  0  0
    7.3568  -15.3238   22.2858 N   0  0  0  0  0  0  0  0  0  0  0  0
    9.6578  -15.5738   21.5942 C   0  0  0  0  0  0  0  0  0  0  0  0
   10.1271  -14.8673   22.5696 O   0  0  0  0  0  0  0  0  0  0  0  0
   11.4491  -18.4386   23.5009 C   0  0  0  0  0  0  0  0  0  0  0  0
   12.0719  -18.1554   22.1783 C   0  0  1  0  0  0  0  0  0  0  0  0
   11.6019  -19.0624   21.2306 O   0  0  0  0  0  0  0  0  0  0  0  0
   11.8866  -16.7385   21.6842 C   0  0  2  0  0  0  0  0  0  0  0  0
   10.5669  -16.5399   21.1094 N   0  0  0  0  0  0  0  0  0  0  0  0
   12.9014  -16.4888   20.6405 C   0  0  0  0  0  0  0  0  0  0  0  0
   14.0866  -16.1338   20.9275 O   0  0  0  0  0  0  0  0  0  0  0  0
   12.6523  -16.6185   19.2774 O   0  0  0  0  0  0  0  0  0  0  0  0
  2  1  1  1
  2 13  1  0
  3  2  1  0
  3  4  1  0
  4 12  1  0
  5  6  1  0
  5  4  2  0
  6  7  1  0
  7 12  2  0
  7  8  1  0
  8  9  2  0
  9 10  1  0
 11 10  2  0
 12 11  1  0
 13 19  1  0
 13 14  2  0
 16 15  1  6
 16 18  1  0
 16 17  1  0
 18 20  1  0
 18 19  1  1
 20 21  2  0
 23 22  1  1
 23 24  1  0
 23 25  1  0
 25 27  1  0
 25 26  1  6
 26 20  1  0
 27 29  1  0
 28 27  2  0
M  END
$$$$
