WVT.pdb
     RDKit          3D

 29 30  0  0  1  0  0  0  0  0999 V2000
    6.2049  -18.5119   25.1744 N   0  0  0  0  0  0  0  0  0  0  0  0
    6.5996  -17.1373   25.0431 C   0  0  1  0  0  0  0  0  0  0  0  0
    7.6265  -16.7482   26.0785 C   0  0  0  0  0  0  0  0  0  0  0  0
    7.4512  -15.4130   26.6492 C   0  0  0  0  0  0  0  0  0  0  0  0
    6.3461  -14.6094   26.4732 C   0  0  0  0  0  0  0  0  0  0  0  0
    6.5237  -13.4675   27.1600 N   0  0  0  0  0  0  0  0  0  0  0  0
    7.7089  -13.4814   27.7874 C   0  0  0  0  0  0  0  0  0  0  0  0
    8.3190  -12.5482   28.5921 C   0  0  0  0  0  0  0  0  0  0  0  0
    9.5696  -12.8419   29.1027 C   0  0  0  0  0  0  0  0  0  0  0  0
   10.1659  -14.0441   28.7975 C   0  0  0  0  0  0  0  0  0  0  0  0
    9.5627  -14.9902   27.9901 C   0  0  0  0  0  0  0  0  0  0  0  0
    8.2983  -14.7037   27.4695 C   0  0  0  0  0  0  0  0  0  0  0  0
    7.2787  -16.9683   23.7164 C   0  0  0  0  0  0  0  0  0  0  0  0
    7.8634  -17.9771   23.2466 O   0  0  0  0  0  0  0  0  0  0  0  0
    8.3817  -14.2152   19.7785 C   0  0  0  0  0  0  0  0  0  0  0  0
    7.7402  -14.3052   21.1265 C   0  0  2  0  0  0  0  0  0  0  0  0
    8.2780  -13.2650   22.0871 C   0  0  0  0  0  0  0  0  0  0  0  0
    7.8901  -15.7060   21.6938 C   0  0  2  0  0  0  0  0  0  0  0  0
    7.2627  -15.7285   23.0235 N   0  0  0  0  0  0  0  0  0  0  0  0
    9.2998  -16.0644   21.7693 C   0  0  0  0  0  0  0  0  0  0  0  0
   10.0085  -15.4736   22.6744 O   0  0  0  0  0  0  0  0  0  0  0  0
   11.3608  -19.6149   22.2445 C   0  0  0  0  0  0  0  0  0  0  0  0
   11.7159  -18.7703   21.0706 C   0  0  1  0  0  0  0  0  0  0  0  0
   11.0774  -19.2537   19.9302 O   0  0  0  0  0  0  0  0  0  0  0  0
   11.4308  -17.2958   21.2451 C   0  0  2  0  0  0  0  0  0  0  0  0
   10.0340  -16.9864   20.9910 N   0  0  0  0  0  0  0  0  0  0  0  0
   12.2647  -16.5576   20.2749 C   0  0  0  0  0  0  0  0  0  0  0  0
   11.7704  -16.0237   19.2339 O   0  0  0  0  0  0  0  0  0  0  0  0
   13.6387  -16.3856   20.4144 O   0  0  0  0  0  0  0  0  0  0  0  0
  2  1  1  1
  2 13  1  0
  3  2  1  0
  3  4  1  0
  4 12  1  0
  5  6  1  0
  5  4  2  0
  6  7  1  0
  7 12  2  0
  7  8  1  0
  8  9  2  0
  9 10  1  0
 11 10  2  0
 12 11  1  0
 13 19  1  0
 13 14  2  0
 16 15  1  6
 16 18  1  0
 16 17  1  0
 18 20  1  0
 18 19  1  1
 20 21  2  0
 23 22  1  1
 23 24  1  0
 23 25  1  0
 25 27  1  0
 25 26  1  6
 26 20  1  0
 27 29  1  0
 28 27  2  0
M  END
$$$$
