WVT.pdb
     RDKit          3D

 29 30  0  0  1  0  0  0  0  0999 V2000
    6.3968  -17.6172   25.5180 N   0  0  0  0  0  0  0  0  0  0  0  0
    6.9277  -16.3442   25.1174 C   0  0  1  0  0  0  0  0  0  0  0  0
    8.1167  -15.9443   25.9567 C   0  0  0  0  0  0  0  0  0  0  0  0
    7.8664  -14.8559   26.9011 C   0  0  0  0  0  0  0  0  0  0  0  0
    8.1727  -14.8793   28.2441 C   0  0  0  0  0  0  0  0  0  0  0  0
    7.8231  -13.7022   28.7914 N   0  0  0  0  0  0  0  0  0  0  0  0
    7.2939  -12.8950   27.8603 C   0  0  0  0  0  0  0  0  0  0  0  0
    6.7966  -11.6160   27.9468 C   0  0  0  0  0  0  0  0  0  0  0  0
    6.3009  -11.0275   26.7985 C   0  0  0  0  0  0  0  0  0  0  0  0
    6.3163  -11.7260   25.6128 C   0  0  0  0  0  0  0  0  0  0  0  0
    6.8137  -13.0119   25.5130 C   0  0  0  0  0  0  0  0  0  0  0  0
    7.3179  -13.6156   26.6677 C   0  0  0  0  0  0  0  0  0  0  0  0
    7.4462  -16.4715   23.7158 C   0  0  0  0  0  0  0  0  0  0  0  0
    7.4422  -17.6235   23.2127 O   0  0  0  0  0  0  0  0  0  0  0  0
    6.7425  -13.8352   20.8476 C   0  0  0  0  0  0  0  0  0  0  0  0
    8.1711  -14.2775   20.8349 C   0  0  2  0  0  0  0  0  0  0  0  0
    8.7211  -14.3965   19.4287 C   0  0  0  0  0  0  0  0  0  0  0  0
    8.3309  -15.5803   21.5990 C   0  0  2  0  0  0  0  0  0  0  0  0
    7.9194  -15.3454   22.9910 N   0  0  0  0  0  0  0  0  0  0  0  0
    9.7131  -16.0336   21.5266 C   0  0  0  0  0  0  0  0  0  0  0  0
   10.6134  -15.2571   22.0339 O   0  0  0  0  0  0  0  0  0  0  0  0
   11.7059  -19.3461   22.8254 C   0  0  0  0  0  0  0  0  0  0  0  0
   11.8624  -19.0193   21.3811 C   0  0  1  0  0  0  0  0  0  0  0  0
   11.0149  -19.8222   20.6203 O   0  0  0  0  0  0  0  0  0  0  0  0
   11.6514  -17.5621   21.0375 C   0  0  2  0  0  0  0  0  0  0  0  0
   10.2393  -17.2245   20.9792 N   0  0  0  0  0  0  0  0  0  0  0  0
   12.2526  -17.3202   19.7103 C   0  0  0  0  0  0  0  0  0  0  0  0
   11.5435  -17.2008   18.6635 O   0  0  0  0  0  0  0  0  0  0  0  0
   13.6227  -17.2039   19.4952 O   0  0  0  0  0  0  0  0  0  0  0  0
  2  1  1  1
  2 13  1  0
  3  2  1  0
  3  4  1  0
  4 12  1  0
  5  6  1  0
  5  4  2  0
  6  7  1  0
  7 12  2  0
  7  8  1  0
  8  9  2  0
  9 10  1  0
 11 10  2  0
 12 11  1  0
 13 19  1  0
 13 14  2  0
 16 15  1  6
 16 18  1  0
 16 17  1  0
 18 20  1  0
 18 19  1  1
 20 21  2  0
 23 22  1  1
 23 24  1  0
 23 25  1  0
 25 27  1  0
 25 26  1  6
 26 20  1  0
 27 29  1  0
 28 27  2  0
M  END
$$$$
