WVT.pdb
     RDKit          3D

 29 30  0  0  1  0  0  0  0  0999 V2000
    6.1697  -17.2195   24.9043 N   0  0  0  0  0  0  0  0  0  0  0  0
    6.8367  -15.9951   24.5599 C   0  0  1  0  0  0  0  0  0  0  0  0
    8.0760  -15.7789   25.3938 C   0  0  0  0  0  0  0  0  0  0  0  0
    7.9007  -14.8851   26.5382 C   0  0  0  0  0  0  0  0  0  0  0  0
    8.2661  -15.1698   27.8356 C   0  0  0  0  0  0  0  0  0  0  0  0
    7.9765  -14.1113   28.6122 N   0  0  0  0  0  0  0  0  0  0  0  0
    7.4303  -13.1311   27.8780 C   0  0  0  0  0  0  0  0  0  0  0  0
    6.9755  -11.8819   28.2292 C   0  0  0  0  0  0  0  0  0  0  0  0
    6.4464  -11.0756   27.2389 C   0  0  0  0  0  0  0  0  0  0  0  0
    6.3879  -11.5359   25.9433 C   0  0  0  0  0  0  0  0  0  0  0  0
    6.8420  -12.7894   25.5776 C   0  0  0  0  0  0  0  0  0  0  0  0
    7.3794  -13.6120   26.5709 C   0  0  0  0  0  0  0  0  0  0  0  0
    7.3163  -16.1039   23.1430 C   0  0  0  0  0  0  0  0  0  0  0  0
    7.2532  -17.2404   22.6092 O   0  0  0  0  0  0  0  0  0  0  0  0
    6.9520  -13.1755   20.3794 C   0  0  0  0  0  0  0  0  0  0  0  0
    8.2884  -13.8463   20.3515 C   0  0  2  0  0  0  0  0  0  0  0  0
    8.8348  -13.9756   18.9447 C   0  0  0  0  0  0  0  0  0  0  0  0
    8.2188  -15.1984   21.0398 C   0  0  2  0  0  0  0  0  0  0  0  0
    7.8180  -14.9781   22.4372 N   0  0  0  0  0  0  0  0  0  0  0  0
    9.5115  -15.8647   20.9603 C   0  0  0  0  0  0  0  0  0  0  0  0
   10.4508  -15.4182   21.7279 O   0  0  0  0  0  0  0  0  0  0  0  0
   12.4256  -19.7848   19.8306 C   0  0  0  0  0  0  0  0  0  0  0  0
   11.1497  -19.0260   19.7127 C   0  0  1  0  0  0  0  0  0  0  0  0
   10.1009  -19.7810   20.2338 O   0  0  0  0  0  0  0  0  0  0  0  0
   11.1716  -17.6531   20.3455 C   0  0  2  0  0  0  0  0  0  0  0  0
    9.9102  -16.9566   20.1580 N   0  0  0  0  0  0  0  0  0  0  0  0
   12.2451  -16.8742   19.6956 C   0  0  0  0  0  0  0  0  0  0  0  0
   12.0875  -16.3329   18.5576 O   0  0  0  0  0  0  0  0  0  0  0  0
   13.4994  -16.6690   20.2631 O   0  0  0  0  0  0  0  0  0  0  0  0
  2  1  1  1
  2 13  1  0
  3  2  1  0
  3  4  1  0
  4 12  1  0
  5  6  1  0
  5  4  2  0
  6  7  1  0
  7 12  2  0
  7  8  1  0
  8  9  2  0
  9 10  1  0
 11 10  2  0
 12 11  1  0
 13 19  1  0
 13 14  2  0
 16 15  1  6
 16 18  1  0
 16 17  1  0
 18 20  1  0
 18 19  1  1
 20 21  2  0
 23 22  1  1
 23 24  1  0
 23 25  1  0
 25 27  1  0
 25 26  1  6
 26 20  1  0
 27 29  1  0
 28 27  2  0
M  END
$$$$
