WNE.pdb
     RDKit          3D

 32 33  0  0  1  0  0  0  0  0999 V2000
    7.9520  -16.5229   25.3632 N   0  0  0  0  0  0  0  0  0  0  0  0
    7.1747  -16.9329   24.1716 C   0  0  1  0  0  0  0  0  0  0  0  0
    6.1489  -15.8775   23.9901 C   0  0  0  0  0  0  0  0  0  0  0  0
    6.5782  -14.4920   24.0229 C   0  0  0  0  0  0  0  0  0  0  0  0
    7.0913  -13.7841   22.9681 C   0  0  0  0  0  0  0  0  0  0  0  0
    7.3880  -12.5476   23.3671 N   0  0  0  0  0  0  0  0  0  0  0  0
    7.0841  -12.4146   24.6650 C   0  0  0  0  0  0  0  0  0  0  0  0
    7.2124  -11.3186   25.5223 C   0  0  0  0  0  0  0  0  0  0  0  0
    6.8252  -11.4254   26.8396 C   0  0  0  0  0  0  0  0  0  0  0  0
    6.3145  -12.6370   27.2706 C   0  0  0  0  0  0  0  0  0  0  0  0
    6.1916  -13.7130   26.4177 C   0  0  0  0  0  0  0  0  0  0  0  0
    6.5741  -13.6274   25.0925 C   0  0  0  0  0  0  0  0  0  0  0  0
    8.1205  -17.1448   23.0875 C   0  0  0  0  0  0  0  0  0  0  0  0
    7.8269  -18.0166   22.1989 O   0  0  0  0  0  0  0  0  0  0  0  0
   12.4874  -18.1547   20.5818 N   0  0  0  0  0  0  0  0  0  0  0  0
   11.5775  -17.2398   20.0034 C   0  0  0  0  0  0  0  0  0  0  0  0
   11.7263  -16.9384   18.7980 O   0  0  0  0  0  0  0  0  0  0  0  0
   10.4805  -16.6557   20.8008 C   0  0  0  0  0  0  0  0  0  0  0  0
   10.4835  -17.1827   22.2545 C   0  0  2  0  0  0  0  0  0  0  0  0
    9.3615  -16.4818   22.8889 N   0  0  0  0  0  0  0  0  0  0  0  0
   11.7751  -16.9153   22.8968 C   0  0  0  0  0  0  0  0  0  0  0  0
   12.8517  -17.4170   22.4188 O   0  0  0  0  0  0  0  0  0  0  0  0
   11.9609  -16.1188   24.0458 N   0  0  0  0  0  0  0  0  0  0  0  0
   12.8716  -16.4923   25.1539 C   0  0  1  0  0  0  0  0  0  0  0  0
   12.0816  -16.9436   26.3284 C   0  0  0  0  0  0  0  0  0  0  0  0
   12.0451  -18.4378   26.4396 C   0  0  0  0  0  0  0  0  0  0  0  0
   11.2373  -18.7962   27.6649 C   0  0  0  0  0  0  0  0  0  0  0  0
   10.0779  -19.2337   27.4882 O   0  0  0  0  0  0  0  0  0  0  0  0
   13.7386  -17.5503   24.6363 C   0  0  0  0  0  0  0  0  0  0  0  0
   15.0181  -17.4398   24.6074 O   0  0  0  0  0  0  0  0  0  0  0  0
   11.8199  -18.6221   28.9010 O   0  0  0  0  0  0  0  0  0  0  0  0
   13.2197  -18.7359   24.1501 O   0  0  0  0  0  0  0  0  0  0  0  0
  2  1  1  1
  2 13  1  0
  2  3  1  0
  4  3  1  0
  4  5  2  0
  6  5  1  0
  7  6  1  0
  8  7  2  0
  9  8  1  0
 10  9  2  0
 10 11  1  0
 11 12  2  0
 12  7  1  0
 12  4  1  0
 13 14  2  0
 15 16  1  0
 16 18  1  0
 17 16  2  0
 19 18  1  6
 20 19  1  0
 20 13  1  0
 21 22  2  0
 21 19  1  0
 23 21  1  0
 24 29  1  0
 24 23  1  0
 24 25  1  1
 26 25  1  0
 27 26  1  0
 27 28  2  0
 29 32  1  0
 30 29  2  0
 31 27  1  0
M  END
$$$$
