WNE.pdb
     RDKit          3D

 32 33  0  0  1  0  0  0  0  0999 V2000
    6.6749  -17.7205   23.6498 N   0  0  0  0  0  0  0  0  0  0  0  0
    6.9212  -16.3158   23.2521 C   0  0  1  0  0  0  0  0  0  0  0  0
    7.8394  -15.7717   24.2816 C   0  0  0  0  0  0  0  0  0  0  0  0
    7.2652  -15.0293   25.3881 C   0  0  0  0  0  0  0  0  0  0  0  0
    6.5988  -15.5673   26.4574 C   0  0  0  0  0  0  0  0  0  0  0  0
    6.2003  -14.5882   27.2691 N   0  0  0  0  0  0  0  0  0  0  0  0
    6.5861  -13.4086   26.7650 C   0  0  0  0  0  0  0  0  0  0  0  0
    6.4049  -12.1095   27.2470 C   0  0  0  0  0  0  0  0  0  0  0  0
    6.9008  -11.0369   26.5399 C   0  0  0  0  0  0  0  0  0  0  0  0
    7.5721  -11.2926   25.3573 C   0  0  0  0  0  0  0  0  0  0  0  0
    7.7462  -12.5775   24.8894 C   0  0  0  0  0  0  0  0  0  0  0  0
    7.2566  -13.6679   25.5831 C   0  0  0  0  0  0  0  0  0  0  0  0
    7.3879  -16.3295   21.8748 C   0  0  0  0  0  0  0  0  0  0  0  0
    7.8103  -17.4381   21.3970 O   0  0  0  0  0  0  0  0  0  0  0  0
    8.0108  -15.3098   16.6614 N   0  0  0  0  0  0  0  0  0  0  0  0
    8.0275  -14.1483   17.4677 C   0  0  0  0  0  0  0  0  0  0  0  0
    8.5025  -13.0971   16.9825 O   0  0  0  0  0  0  0  0  0  0  0  0
    7.4982  -14.1751   18.8460 C   0  0  0  0  0  0  0  0  0  0  0  0
    8.0267  -15.3917   19.6406 C   0  0  2  0  0  0  0  0  0  0  0  0
    7.4296  -15.2334   20.9715 N   0  0  0  0  0  0  0  0  0  0  0  0
    9.4937  -15.3981   19.6577 C   0  0  0  0  0  0  0  0  0  0  0  0
   10.1528  -15.5413   18.5694 O   0  0  0  0  0  0  0  0  0  0  0  0
   10.2928  -15.2532   20.8108 N   0  0  0  0  0  0  0  0  0  0  0  0
   11.7518  -15.5139   20.8253 C   0  0  1  0  0  0  0  0  0  0  0  0
   12.2021  -15.7947   22.2131 C   0  0  0  0  0  0  0  0  0  0  0  0
   13.6776  -16.0481   22.2838 C   0  0  0  0  0  0  0  0  0  0  0  0
   14.0531  -16.2235   23.7366 C   0  0  0  0  0  0  0  0  0  0  0  0
   13.1354  -16.4893   24.5452 O   0  0  0  0  0  0  0  0  0  0  0  0
   11.9762  -16.6520   19.9347 C   0  0  0  0  0  0  0  0  0  0  0  0
   11.4900  -17.8174   20.1704 O   0  0  0  0  0  0  0  0  0  0  0  0
   15.3778  -16.0816   24.0870 O   0  0  0  0  0  0  0  0  0  0  0  0
   12.7279  -16.5289   18.7809 O   0  0  0  0  0  0  0  0  0  0  0  0
  2  1  1  1
  2 13  1  0
  2  3  1  0
  4  3  1  0
  4  5  2  0
  6  5  1  0
  7  6  1  0
  8  7  2  0
  9  8  1  0
 10  9  2  0
 10 11  1  0
 11 12  2  0
 12  7  1  0
 12  4  1  0
 13 14  2  0
 15 16  1  0
 16 18  1  0
 17 16  2  0
 19 18  1  6
 20 19  1  0
 20 13  1  0
 21 22  2  0
 21 19  1  0
 23 21  1  0
 24 29  1  0
 24 23  1  0
 24 25  1  1
 26 25  1  0
 27 26  1  0
 27 28  2  0
 29 32  1  0
 30 29  2  0
 31 27  1  0
M  END
$$$$
