WNE.pdb
     RDKit          3D

 32 33  0  0  1  0  0  0  0  0999 V2000
    7.4315  -15.9874   22.3391 N   0  0  0  0  0  0  0  0  0  0  0  0
    8.8290  -15.6170   22.6585 C   0  0  1  0  0  0  0  0  0  0  0  0
    8.8529  -15.4037   24.1258 C   0  0  0  0  0  0  0  0  0  0  0  0
    7.6789  -14.8267   24.7534 C   0  0  0  0  0  0  0  0  0  0  0  0
    6.5524  -15.5087   25.1314 C   0  0  0  0  0  0  0  0  0  0  0  0
    5.6757  -14.6562   25.6615 N   0  0  0  0  0  0  0  0  0  0  0  0
    6.1924  -13.4203   25.6456 C   0  0  0  0  0  0  0  0  0  0  0  0
    5.6605  -12.2055   26.0860 C   0  0  0  0  0  0  0  0  0  0  0  0
    6.3941  -11.0467   25.9616 C   0  0  0  0  0  0  0  0  0  0  0  0
    7.6533  -11.1327   25.3946 C   0  0  0  0  0  0  0  0  0  0  0  0
    8.1701  -12.3355   24.9628 C   0  0  0  0  0  0  0  0  0  0  0  0
    7.4508  -13.5099   25.0781 C   0  0  0  0  0  0  0  0  0  0  0  0
    9.6890  -16.6567   22.1161 C   0  0  0  0  0  0  0  0  0  0  0  0
    9.2890  -17.2810   21.0740 O   0  0  0  0  0  0  0  0  0  0  0  0
   11.7392  -16.3684   18.9461 N   0  0  0  0  0  0  0  0  0  0  0  0
   12.1954  -15.3615   19.8279 C   0  0  0  0  0  0  0  0  0  0  0  0
   13.0138  -14.5203   19.3938 O   0  0  0  0  0  0  0  0  0  0  0  0
   11.7183  -15.3041   21.2242 C   0  0  0  0  0  0  0  0  0  0  0  0
   12.1904  -16.5278   22.0431 C   0  0  2  0  0  0  0  0  0  0  0  0
   10.9533  -17.0718   22.6144 N   0  0  0  0  0  0  0  0  0  0  0  0
   13.1706  -16.1225   23.0567 C   0  0  0  0  0  0  0  0  0  0  0  0
   14.2882  -15.6056   22.7056 O   0  0  0  0  0  0  0  0  0  0  0  0
   12.9969  -16.2493   24.4505 N   0  0  0  0  0  0  0  0  0  0  0  0
   14.0113  -16.8589   25.3428 C   0  0  1  0  0  0  0  0  0  0  0  0
   13.4544  -18.0779   25.9843 C   0  0  0  0  0  0  0  0  0  0  0  0
   12.1124  -17.8240   26.6014 C   0  0  0  0  0  0  0  0  0  0  0  0
   11.5997  -19.1305   27.1604 C   0  0  0  0  0  0  0  0  0  0  0  0
   12.2762  -20.1607   26.9414 O   0  0  0  0  0  0  0  0  0  0  0  0
   15.1704  -17.1612   24.5037 C   0  0  0  0  0  0  0  0  0  0  0  0
   15.0765  -17.8440   23.4197 O   0  0  0  0  0  0  0  0  0  0  0  0
   10.4227  -19.1138   27.8759 O   0  0  0  0  0  0  0  0  0  0  0  0
   16.4376  -16.7201   24.8366 O   0  0  0  0  0  0  0  0  0  0  0  0
  2  1  1  1
  2 13  1  0
  2  3  1  0
  4  3  1  0
  4  5  2  0
  6  5  1  0
  7  6  1  0
  8  7  2  0
  9  8  1  0
 10  9  2  0
 10 11  1  0
 11 12  2  0
 12  7  1  0
 12  4  1  0
 13 14  2  0
 15 16  1  0
 16 18  1  0
 17 16  2  0
 19 18  1  1
 20 19  1  0
 20 13  1  0
 21 22  2  0
 21 19  1  0
 23 21  1  0
 24 29  1  0
 24 23  1  0
 24 25  1  6
 26 25  1  0
 27 26  1  0
 27 28  2  0
 29 32  1  0
 30 29  2  0
 31 27  1  0
M  END
$$$$
