WNE.pdb
     RDKit          3D

 32 33  0  0  1  0  0  0  0  0999 V2000
    7.9925  -17.9285   22.1822 N   0  0  0  0  0  0  0  0  0  0  0  0
    7.5443  -16.9048   23.1534 C   0  0  1  0  0  0  0  0  0  0  0  0
    6.4315  -16.1891   22.4838 C   0  0  0  0  0  0  0  0  0  0  0  0
    6.7502  -15.3179   21.3682 C   0  0  0  0  0  0  0  0  0  0  0  0
    6.6932  -15.6566   20.0419 C   0  0  0  0  0  0  0  0  0  0  0  0
    7.0666  -14.6129   19.3019 N   0  0  0  0  0  0  0  0  0  0  0  0
    7.3716  -13.5852   20.1052 C   0  0  0  0  0  0  0  0  0  0  0  0
    7.8091  -12.2927   19.8037 C   0  0  0  0  0  0  0  0  0  0  0  0
    8.0622  -11.3968   20.8184 C   0  0  0  0  0  0  0  0  0  0  0  0
    7.8696  -11.8198   22.1217 C   0  0  0  0  0  0  0  0  0  0  0  0
    7.4378  -13.0968   22.4099 C   0  0  0  0  0  0  0  0  0  0  0  0
    7.1781  -14.0114   21.4070 C   0  0  0  0  0  0  0  0  0  0  0  0
    7.2486  -17.5899   24.4016 C   0  0  0  0  0  0  0  0  0  0  0  0
    6.8125  -16.8903   25.3795 O   0  0  0  0  0  0  0  0  0  0  0  0
    6.7172  -20.8772   28.3933 N   0  0  0  0  0  0  0  0  0  0  0  0
    6.2812  -21.4781   27.1899 C   0  0  0  0  0  0  0  0  0  0  0  0
    5.6615  -22.5630   27.2601 O   0  0  0  0  0  0  0  0  0  0  0  0
    6.5498  -20.8419   25.8846 C   0  0  0  0  0  0  0  0  0  0  0  0
    7.2657  -19.4808   26.0457 C   0  0  2  0  0  0  0  0  0  0  0  0
    7.3860  -18.9779   24.6726 N   0  0  0  0  0  0  0  0  0  0  0  0
    8.5584  -19.6549   26.7172 C   0  0  0  0  0  0  0  0  0  0  0  0
    8.6092  -20.0927   27.9193 O   0  0  0  0  0  0  0  0  0  0  0  0
    9.8158  -19.3761   26.1426 N   0  0  0  0  0  0  0  0  0  0  0  0
   11.0955  -19.5349   26.8734 C   0  0  1  0  0  0  0  0  0  0  0  0
   12.2323  -19.1699   25.9890 C   0  0  0  0  0  0  0  0  0  0  0  0
   12.1116  -17.7695   25.4689 C   0  0  0  0  0  0  0  0  0  0  0  0
   12.6418  -17.7484   24.0545 C   0  0  0  0  0  0  0  0  0  0  0  0
   13.0468  -18.8293   23.5703 O   0  0  0  0  0  0  0  0  0  0  0  0
   11.0113  -18.6651   28.0461 C   0  0  0  0  0  0  0  0  0  0  0  0
   10.0397  -17.8444   28.2266 O   0  0  0  0  0  0  0  0  0  0  0  0
   12.6493  -16.5465   23.3813 O   0  0  0  0  0  0  0  0  0  0  0  0
   11.9814  -18.6848   29.0309 O   0  0  0  0  0  0  0  0  0  0  0  0
  2  1  1  6
  2 13  1  0
  2  3  1  0
  4  3  1  0
  4  5  2  0
  6  5  1  0
  7  6  1  0
  8  7  2  0
  9  8  1  0
 10  9  2  0
 10 11  1  0
 11 12  2  0
 12  7  1  0
 12  4  1  0
 13 14  2  0
 15 16  1  0
 16 18  1  0
 17 16  2  0
 19 18  1  6
 20 19  1  0
 20 13  1  0
 21 22  2  0
 21 19  1  0
 23 21  1  0
 24 29  1  0
 24 23  1  0
 24 25  1  6
 26 25  1  0
 27 26  1  0
 27 28  2  0
 29 32  1  0
 30 29  2  0
 31 27  1  0
M  END
$$$$
