WNE.pdb
     RDKit          3D

 32 33  0  0  1  0  0  0  0  0999 V2000
    7.0642  -16.6888   22.9360 N   0  0  0  0  0  0  0  0  0  0  0  0
    8.3614  -15.9803   23.0227 C   0  0  1  0  0  0  0  0  0  0  0  0
    8.6288  -15.8274   24.4733 C   0  0  0  0  0  0  0  0  0  0  0  0
    7.7278  -14.9990   25.2524 C   0  0  0  0  0  0  0  0  0  0  0  0
    6.6786  -15.4462   26.0116 C   0  0  0  0  0  0  0  0  0  0  0  0
    6.0647  -14.4061   26.5750 N   0  0  0  0  0  0  0  0  0  0  0  0
    6.6810  -13.2745   26.2085 C   0  0  0  0  0  0  0  0  0  0  0  0
    6.4107  -11.9433   26.5363 C   0  0  0  0  0  0  0  0  0  0  0  0
    7.1985  -10.9348   26.0275 C   0  0  0  0  0  0  0  0  0  0  0  0
    8.2470  -11.2862   25.1959 C   0  0  0  0  0  0  0  0  0  0  0  0
    8.5063  -12.6022   24.8778 C   0  0  0  0  0  0  0  0  0  0  0  0
    7.7284  -13.6294   25.3772 C   0  0  0  0  0  0  0  0  0  0  0  0
    9.3234  -16.7376   22.2379 C   0  0  0  0  0  0  0  0  0  0  0  0
    9.3161  -18.0117   22.3491 O   0  0  0  0  0  0  0  0  0  0  0  0
   13.1584  -14.9459   19.0887 N   0  0  0  0  0  0  0  0  0  0  0  0
   11.7633  -15.1660   19.1584 C   0  0  0  0  0  0  0  0  0  0  0  0
   11.0083  -14.1693   19.2102 O   0  0  0  0  0  0  0  0  0  0  0  0
   11.2120  -16.5358   19.1694 C   0  0  0  0  0  0  0  0  0  0  0  0
   11.1763  -17.1290   20.5969 C   0  0  2  0  0  0  0  0  0  0  0  0
   10.2934  -16.2207   21.3372 N   0  0  0  0  0  0  0  0  0  0  0  0
   12.5304  -17.2086   21.1558 C   0  0  0  0  0  0  0  0  0  0  0  0
   13.4319  -17.9046   20.5708 O   0  0  0  0  0  0  0  0  0  0  0  0
   12.9626  -16.5613   22.3319 N   0  0  0  0  0  0  0  0  0  0  0  0
   14.1439  -16.9995   23.1125 C   0  0  1  0  0  0  0  0  0  0  0  0
   15.2636  -16.0428   22.9165 C   0  0  0  0  0  0  0  0  0  0  0  0
   15.9722  -16.2671   21.6150 C   0  0  0  0  0  0  0  0  0  0  0  0
   16.5532  -14.9472   21.1650 C   0  0  0  0  0  0  0  0  0  0  0  0
   16.3605  -14.6031   19.9770 O   0  0  0  0  0  0  0  0  0  0  0  0
   13.7148  -17.0634   24.5091 C   0  0  0  0  0  0  0  0  0  0  0  0
   12.6477  -16.4845   24.9290 O   0  0  0  0  0  0  0  0  0  0  0  0
   17.2585  -14.2009   22.0832 O   0  0  0  0  0  0  0  0  0  0  0  0
   14.4417  -17.7598   25.4567 O   0  0  0  0  0  0  0  0  0  0  0  0
  2  1  1  1
  2 13  1  0
  2  3  1  0
  4  3  1  0
  4  5  2  0
  6  5  1  0
  7  6  1  0
  8  7  2  0
  9  8  1  0
 10  9  2  0
 10 11  1  0
 11 12  2  0
 12  7  1  0
 12  4  1  0
 13 14  2  0
 15 16  1  0
 16 18  1  0
 17 16  2  0
 19 18  1  6
 20 19  1  0
 20 13  1  0
 21 22  2  0
 21 19  1  0
 23 21  1  0
 24 29  1  0
 24 23  1  0
 24 25  1  1
 26 25  1  0
 27 26  1  0
 27 28  2  0
 29 32  1  0
 30 29  2  0
 31 27  1  0
M  END
$$$$
