WNE.pdb
     RDKit          3D

 32 33  0  0  1  0  0  0  0  0999 V2000
    8.8647  -15.4304   21.7650 N   0  0  0  0  0  0  0  0  0  0  0  0
    9.4790  -15.5661   23.1053 C   0  0  1  0  0  0  0  0  0  0  0  0
    8.3407  -15.6803   24.0489 C   0  0  0  0  0  0  0  0  0  0  0  0
    7.4543  -14.5409   24.1940 C   0  0  0  0  0  0  0  0  0  0  0  0
    6.4772  -14.1648   23.3103 C   0  0  0  0  0  0  0  0  0  0  0  0
    5.8716  -13.0664   23.7608 N   0  0  0  0  0  0  0  0  0  0  0  0
    6.4230  -12.7012   24.9258 C   0  0  0  0  0  0  0  0  0  0  0  0
    6.1338  -11.6283   25.7732 C   0  0  0  0  0  0  0  0  0  0  0  0
    6.8501  -11.4569   26.9368 C   0  0  0  0  0  0  0  0  0  0  0  0
    7.8472  -12.3714   27.2266 C   0  0  0  0  0  0  0  0  0  0  0  0
    8.1257  -13.4268   26.3847 C   0  0  0  0  0  0  0  0  0  0  0  0
    7.4192  -13.6172   25.2124 C   0  0  0  0  0  0  0  0  0  0  0  0
   10.4153  -16.6772   23.0437 C   0  0  0  0  0  0  0  0  0  0  0  0
   10.0967  -17.6895   22.3300 O   0  0  0  0  0  0  0  0  0  0  0  0
   14.4543  -15.9770   23.0348 N   0  0  0  0  0  0  0  0  0  0  0  0
   14.2513  -16.7883   24.1751 C   0  0  0  0  0  0  0  0  0  0  0  0
   14.6334  -16.3557   25.2854 O   0  0  0  0  0  0  0  0  0  0  0  0
   13.6052  -18.1110   24.0585 C   0  0  0  0  0  0  0  0  0  0  0  0
   12.0848  -18.0333   24.3293 C   0  0  2  0  0  0  0  0  0  0  0  0
   11.6746  -16.7757   23.6945 N   0  0  0  0  0  0  0  0  0  0  0  0
   11.8155  -18.0727   25.7709 C   0  0  0  0  0  0  0  0  0  0  0  0
   10.7047  -17.6354   26.2337 O   0  0  0  0  0  0  0  0  0  0  0  0
   12.7011  -18.5709   26.7489 N   0  0  0  0  0  0  0  0  0  0  0  0
   12.3667  -18.6311   28.1916 C   0  0  1  0  0  0  0  0  0  0  0  0
   11.1773  -19.4967   28.3999 C   0  0  0  0  0  0  0  0  0  0  0  0
   11.3581  -20.8548   27.7923 C   0  0  0  0  0  0  0  0  0  0  0  0
   10.1430  -21.6853   28.1328 C   0  0  0  0  0  0  0  0  0  0  0  0
   10.1033  -22.8597   27.7014 O   0  0  0  0  0  0  0  0  0  0  0  0
   13.5524  -19.1557   28.8682 C   0  0  0  0  0  0  0  0  0  0  0  0
   14.5816  -19.5781   28.2259 O   0  0  0  0  0  0  0  0  0  0  0  0
    9.1526  -21.1057   28.8950 O   0  0  0  0  0  0  0  0  0  0  0  0
   13.6274  -19.2211   30.2471 O   0  0  0  0  0  0  0  0  0  0  0  0
  2  1  1  6
  2 13  1  0
  2  3  1  0
  4  3  1  0
  4  5  2  0
  6  5  1  0
  7  6  1  0
  8  7  2  0
  9  8  1  0
 10  9  2  0
 10 11  1  0
 11 12  2  0
 12  7  1  0
 12  4  1  0
 13 14  2  0
 15 16  1  0
 16 18  1  0
 17 16  2  0
 19 18  1  1
 20 19  1  0
 20 13  1  0
 21 22  2  0
 21 19  1  0
 23 21  1  0
 24 29  1  0
 24 23  1  0
 24 25  1  6
 26 25  1  0
 27 26  1  0
 27 28  2  0
 29 32  1  0
 30 29  2  0
 31 27  1  0
M  END
$$$$
