WNE.pdb
     RDKit          3D

 32 33  0  0  1  0  0  0  0  0999 V2000
    5.5178  -16.4686   23.0726 N   0  0  0  0  0  0  0  0  0  0  0  0
    6.8120  -15.7713   22.8970 C   0  0  1  0  0  0  0  0  0  0  0  0
    7.3990  -15.6850   24.2560 C   0  0  0  0  0  0  0  0  0  0  0  0
    6.7041  -14.8926   25.2533 C   0  0  0  0  0  0  0  0  0  0  0  0
    5.8403  -15.3724   26.2023 C   0  0  0  0  0  0  0  0  0  0  0  0
    5.3816  -14.3591   26.9363 N   0  0  0  0  0  0  0  0  0  0  0  0
    5.9204  -13.2135   26.4982 C   0  0  0  0  0  0  0  0  0  0  0  0
    5.7497  -11.8992   26.9412 C   0  0  0  0  0  0  0  0  0  0  0  0
    6.4226  -10.8702   26.3208 C   0  0  0  0  0  0  0  0  0  0  0  0
    7.2573  -11.1843   25.2629 C   0  0  0  0  0  0  0  0  0  0  0  0
    7.4196  -12.4838   24.8326 C   0  0  0  0  0  0  0  0  0  0  0  0
    6.7539  -13.5311   25.4408 C   0  0  0  0  0  0  0  0  0  0  0  0
    7.5631  -16.4973   21.8851 C   0  0  0  0  0  0  0  0  0  0  0  0
    6.9155  -16.9926   20.8997 O   0  0  0  0  0  0  0  0  0  0  0  0
    7.4310  -13.1517   20.1416 N   0  0  0  0  0  0  0  0  0  0  0  0
    8.5956  -13.9472   20.0392 C   0  0  0  0  0  0  0  0  0  0  0  0
    9.0332  -14.2125   18.8972 O   0  0  0  0  0  0  0  0  0  0  0  0
    9.2774  -14.4514   21.2481 C   0  0  0  0  0  0  0  0  0  0  0  0
    9.8385  -15.8770   21.0386 C   0  0  2  0  0  0  0  0  0  0  0  0
    8.9651  -16.7263   21.8561 N   0  0  0  0  0  0  0  0  0  0  0  0
   11.2492  -15.9390   21.4364 C   0  0  0  0  0  0  0  0  0  0  0  0
   12.1107  -15.1666   20.8880 O   0  0  0  0  0  0  0  0  0  0  0  0
   11.7798  -16.8068   22.4134 N   0  0  0  0  0  0  0  0  0  0  0  0
   13.1638  -16.6958   22.9322 C   0  0  1  0  0  0  0  0  0  0  0  0
   13.2719  -17.3937   24.2394 C   0  0  0  0  0  0  0  0  0  0  0  0
   11.9294  -17.7789   24.7828 C   0  0  0  0  0  0  0  0  0  0  0  0
   12.1445  -18.5066   26.0891 C   0  0  0  0  0  0  0  0  0  0  0  0
   13.3212  -18.7883   26.4095 O   0  0  0  0  0  0  0  0  0  0  0  0
   14.0333  -17.2917   21.9184 C   0  0  0  0  0  0  0  0  0  0  0  0
   15.3146  -17.2438   21.9957 O   0  0  0  0  0  0  0  0  0  0  0  0
   11.0386  -18.8172   26.8496 O   0  0  0  0  0  0  0  0  0  0  0  0
   13.5147  -17.9460   20.8164 O   0  0  0  0  0  0  0  0  0  0  0  0
  2  1  1  1
  2 13  1  0
  2  3  1  0
  4  3  1  0
  4  5  2  0
  6  5  1  0
  7  6  1  0
  8  7  2  0
  9  8  1  0
 10  9  2  0
 10 11  1  0
 11 12  2  0
 12  7  1  0
 12  4  1  0
 13 14  2  0
 15 16  1  0
 16 18  1  0
 17 16  2  0
 19 18  1  1
 20 19  1  0
 20 13  1  0
 21 22  2  0
 21 19  1  0
 23 21  1  0
 24 29  1  0
 24 23  1  0
 24 25  1  1
 26 25  1  0
 27 26  1  0
 27 28  2  0
 29 32  1  0
 30 29  2  0
 31 27  1  0
M  END
$$$$
