WNE.pdb
     RDKit          3D

 32 33  0  0  1  0  0  0  0  0999 V2000
    6.3870  -17.5198   24.0864 N   0  0  0  0  0  0  0  0  0  0  0  0
    6.8235  -16.2346   23.4951 C   0  0  1  0  0  0  0  0  0  0  0  0
    7.8887  -15.7302   24.3950 C   0  0  0  0  0  0  0  0  0  0  0  0
    7.4911  -15.0434   25.6096 C   0  0  0  0  0  0  0  0  0  0  0  0
    7.2257  -15.6340   26.8170 C   0  0  0  0  0  0  0  0  0  0  0  0
    6.8778  -14.6988   27.7005 N   0  0  0  0  0  0  0  0  0  0  0  0
    6.9051  -13.4970   27.1093 C   0  0  0  0  0  0  0  0  0  0  0  0
    6.6225  -12.2261   27.6169 C   0  0  0  0  0  0  0  0  0  0  0  0
    6.7221  -11.1208   26.8015 C   0  0  0  0  0  0  0  0  0  0  0  0
    7.1055  -11.3160   25.4864 C   0  0  0  0  0  0  0  0  0  0  0  0
    7.3823  -12.5735   24.9942 C   0  0  0  0  0  0  0  0  0  0  0  0
    7.2885  -13.6958   25.7950 C   0  0  0  0  0  0  0  0  0  0  0  0
    7.1807  -16.4929   22.1092 C   0  0  0  0  0  0  0  0  0  0  0  0
    7.3715  -17.7074   21.7567 O   0  0  0  0  0  0  0  0  0  0  0  0
    7.7300  -12.7142   20.1756 N   0  0  0  0  0  0  0  0  0  0  0  0
    8.0760  -13.5627   19.0986 C   0  0  0  0  0  0  0  0  0  0  0  0
    9.0582  -13.2491   18.3894 O   0  0  0  0  0  0  0  0  0  0  0  0
    7.2989  -14.7866   18.8183 C   0  0  0  0  0  0  0  0  0  0  0  0
    7.7334  -15.9626   19.7233 C   0  0  2  0  0  0  0  0  0  0  0  0
    7.3447  -15.5355   21.0721 N   0  0  0  0  0  0  0  0  0  0  0  0
    9.1719  -16.2153   19.5847 C   0  0  0  0  0  0  0  0  0  0  0  0
    9.6682  -16.5208   18.4446 O   0  0  0  0  0  0  0  0  0  0  0  0
   10.1123  -16.1507   20.6337 N   0  0  0  0  0  0  0  0  0  0  0  0
   11.5237  -16.5786   20.4861 C   0  0  1  0  0  0  0  0  0  0  0  0
   12.3308  -16.0618   21.6215 C   0  0  0  0  0  0  0  0  0  0  0  0
   11.8505  -16.5917   22.9386 C   0  0  0  0  0  0  0  0  0  0  0  0
   12.7785  -16.0801   24.0153 C   0  0  0  0  0  0  0  0  0  0  0  0
   13.7385  -15.3598   23.6599 O   0  0  0  0  0  0  0  0  0  0  0  0
   11.5092  -18.0404   20.4436 C   0  0  0  0  0  0  0  0  0  0  0  0
   10.5594  -18.7350   20.9590 O   0  0  0  0  0  0  0  0  0  0  0  0
   12.5165  -16.4335   25.3207 O   0  0  0  0  0  0  0  0  0  0  0  0
   12.5256  -18.7554   19.8378 O   0  0  0  0  0  0  0  0  0  0  0  0
  2  1  1  1
  2 13  1  0
  2  3  1  0
  4  3  1  0
  4  5  2  0
  6  5  1  0
  7  6  1  0
  8  7  2  0
  9  8  1  0
 10  9  2  0
 10 11  1  0
 11 12  2  0
 12  7  1  0
 12  4  1  0
 13 14  2  0
 15 16  1  0
 16 18  1  0
 17 16  2  0
 19 18  1  6
 20 19  1  0
 20 13  1  0
 21 22  2  0
 21 19  1  0
 23 21  1  0
 24 29  1  0
 24 23  1  0
 24 25  1  1
 26 25  1  0
 27 26  1  0
 27 28  2  0
 29 32  1  0
 30 29  2  0
 31 27  1  0
M  END
$$$$
