WNE.pdb
     RDKit          3D

 32 33  0  0  1  0  0  0  0  0999 V2000
    6.2322  -17.4630   23.1259 N   0  0  0  0  0  0  0  0  0  0  0  0
    6.9675  -16.1787   23.0795 C   0  0  1  0  0  0  0  0  0  0  0  0
    7.5785  -16.0276   24.4222 C   0  0  0  0  0  0  0  0  0  0  0  0
    6.9114  -15.1726   25.3861 C   0  0  0  0  0  0  0  0  0  0  0  0
    5.9596  -15.5684   26.2885 C   0  0  0  0  0  0  0  0  0  0  0  0
    5.5613  -14.5158   27.0023 N   0  0  0  0  0  0  0  0  0  0  0  0
    6.2263  -13.4261   26.5961 C   0  0  0  0  0  0  0  0  0  0  0  0
    6.1573  -12.1012   27.0349 C   0  0  0  0  0  0  0  0  0  0  0  0
    6.9540  -11.1404   26.4530 C   0  0  0  0  0  0  0  0  0  0  0  0
    7.8080  -11.5323   25.4374 C   0  0  0  0  0  0  0  0  0  0  0  0
    7.8695  -12.8418   25.0109 C   0  0  0  0  0  0  0  0  0  0  0  0
    7.0788  -13.8215   25.5809 C   0  0  0  0  0  0  0  0  0  0  0  0
    7.8635  -16.2321   21.9352 C   0  0  0  0  0  0  0  0  0  0  0  0
    8.1823  -17.3831   21.4778 O   0  0  0  0  0  0  0  0  0  0  0  0
    7.5430  -12.5496   18.8657 N   0  0  0  0  0  0  0  0  0  0  0  0
    8.2654  -13.7517   18.6846 C   0  0  0  0  0  0  0  0  0  0  0  0
    7.8255  -14.5895   17.8658 O   0  0  0  0  0  0  0  0  0  0  0  0
    9.5063  -14.0113   19.4419 C   0  0  0  0  0  0  0  0  0  0  0  0
    9.4455  -15.3577   20.1998 C   0  0  2  0  0  0  0  0  0  0  0  0
    8.4400  -15.1324   21.2443 N   0  0  0  0  0  0  0  0  0  0  0  0
   10.7670  -15.7105   20.7303 C   0  0  0  0  0  0  0  0  0  0  0  0
   11.8068  -15.6215   19.9885 O   0  0  0  0  0  0  0  0  0  0  0  0
   11.0216  -16.1591   22.0429 N   0  0  0  0  0  0  0  0  0  0  0  0
   12.3691  -16.5509   22.5198 C   0  0  1  0  0  0  0  0  0  0  0  0
   12.2894  -17.0325   23.9231 C   0  0  0  0  0  0  0  0  0  0  0  0
   11.5709  -16.0611   24.8099 C   0  0  0  0  0  0  0  0  0  0  0  0
   11.4958  -16.6593   26.1951 C   0  0  0  0  0  0  0  0  0  0  0  0
   11.3317  -17.8970   26.2847 O   0  0  0  0  0  0  0  0  0  0  0  0
   12.8426  -17.5920   21.6084 C   0  0  0  0  0  0  0  0  0  0  0  0
   12.0568  -18.2124   20.8036 O   0  0  0  0  0  0  0  0  0  0  0  0
   11.6116  -15.8126   27.2756 O   0  0  0  0  0  0  0  0  0  0  0  0
   14.1738  -17.9625   21.5644 O   0  0  0  0  0  0  0  0  0  0  0  0
  2  1  1  1
  2 13  1  0
  2  3  1  0
  4  3  1  0
  4  5  2  0
  6  5  1  0
  7  6  1  0
  8  7  2  0
  9  8  1  0
 10  9  2  0
 10 11  1  0
 11 12  2  0
 12  7  1  0
 12  4  1  0
 13 14  2  0
 15 16  1  0
 16 18  1  0
 17 16  2  0
 19 18  1  1
 20 19  1  0
 20 13  1  0
 21 22  2  0
 21 19  1  0
 23 21  1  0
 24 29  1  0
 24 23  1  0
 24 25  1  1
 26 25  1  0
 27 26  1  0
 27 28  2  0
 29 32  1  0
 30 29  2  0
 31 27  1  0
M  END
$$$$
