WNE.pdb
     RDKit          3D

 32 33  0  0  1  0  0  0  0  0999 V2000
    7.0110  -16.0158   21.7971 N   0  0  0  0  0  0  0  0  0  0  0  0
    8.0799  -15.7847   22.7951 C   0  0  1  0  0  0  0  0  0  0  0  0
    7.5362  -16.2937   24.0775 C   0  0  0  0  0  0  0  0  0  0  0  0
    7.1260  -15.3275   25.0792 C   0  0  0  0  0  0  0  0  0  0  0  0
    6.8142  -15.6055   26.3840 C   0  0  0  0  0  0  0  0  0  0  0  0
    6.4688  -14.4788   27.0064 N   0  0  0  0  0  0  0  0  0  0  0  0
    6.5431  -13.4550   26.1457 C   0  0  0  0  0  0  0  0  0  0  0  0
    6.2814  -12.0941   26.3250 C   0  0  0  0  0  0  0  0  0  0  0  0
    6.4312  -11.2192   25.2721 C   0  0  0  0  0  0  0  0  0  0  0  0
    6.8428  -11.7320   24.0547 C   0  0  0  0  0  0  0  0  0  0  0  0
    7.0987  -13.0761   23.8869 C   0  0  0  0  0  0  0  0  0  0  0  0
    6.9546  -13.9711   24.9300 C   0  0  0  0  0  0  0  0  0  0  0  0
    9.2922  -16.4054   22.2852 C   0  0  0  0  0  0  0  0  0  0  0  0
    9.3323  -17.6825   22.2283 O   0  0  0  0  0  0  0  0  0  0  0  0
   13.4861  -17.6110   19.1959 N   0  0  0  0  0  0  0  0  0  0  0  0
   13.5146  -16.3244   19.7819 C   0  0  0  0  0  0  0  0  0  0  0  0
   14.6139  -15.7307   19.8542 O   0  0  0  0  0  0  0  0  0  0  0  0
   12.2797  -15.6980   20.2948 C   0  0  0  0  0  0  0  0  0  0  0  0
   11.6467  -16.5267   21.4364 C   0  0  2  0  0  0  0  0  0  0  0  0
   10.4663  -15.7484   21.8282 N   0  0  0  0  0  0  0  0  0  0  0  0
   12.6073  -16.7171   22.5288 C   0  0  0  0  0  0  0  0  0  0  0  0
   13.7370  -17.2773   22.3066 O   0  0  0  0  0  0  0  0  0  0  0  0
   12.4028  -16.3237   23.8676 N   0  0  0  0  0  0  0  0  0  0  0  0
   13.4151  -16.5138   24.9333 C   0  0  1  0  0  0  0  0  0  0  0  0
   12.7620  -17.0220   26.1673 C   0  0  0  0  0  0  0  0  0  0  0  0
   12.2450  -18.4181   25.9944 C   0  0  0  0  0  0  0  0  0  0  0  0
   11.7724  -18.9122   27.3415 C   0  0  0  0  0  0  0  0  0  0  0  0
   10.5796  -18.6957   27.6532 O   0  0  0  0  0  0  0  0  0  0  0  0
   14.3986  -17.4581   24.4042 C   0  0  0  0  0  0  0  0  0  0  0  0
   14.0853  -18.3842   23.5709 O   0  0  0  0  0  0  0  0  0  0  0  0
   12.6767  -19.5696   28.1464 O   0  0  0  0  0  0  0  0  0  0  0  0
   15.7290  -17.3990   24.7754 O   0  0  0  0  0  0  0  0  0  0  0  0
  2  1  1  6
  2 13  1  0
  2  3  1  0
  4  3  1  0
  4  5  2  0
  6  5  1  0
  7  6  1  0
  8  7  2  0
  9  8  1  0
 10  9  2  0
 10 11  1  0
 11 12  2  0
 12  7  1  0
 12  4  1  0
 13 14  2  0
 15 16  1  0
 16 18  1  0
 17 16  2  0
 19 18  1  6
 20 19  1  0
 20 13  1  0
 21 22  2  0
 21 19  1  0
 23 21  1  0
 24 29  1  0
 24 23  1  0
 24 25  1  1
 26 25  1  0
 27 26  1  0
 27 28  2  0
 29 32  1  0
 30 29  2  0
 31 27  1  0
M  END
$$$$
