WNE.pdb
     RDKit          3D

 32 33  0  0  1  0  0  0  0  0999 V2000
    9.1832  -16.0605   23.9536 N   0  0  0  0  0  0  0  0  0  0  0  0
    8.3893  -16.3617   22.7407 C   0  0  1  0  0  0  0  0  0  0  0  0
    7.1702  -15.5249   22.8518 C   0  0  0  0  0  0  0  0  0  0  0  0
    6.8294  -14.9801   24.1527 C   0  0  0  0  0  0  0  0  0  0  0  0
    6.3464  -15.6902   25.2201 C   0  0  0  0  0  0  0  0  0  0  0  0
    6.1341  -14.8626   26.2429 N   0  0  0  0  0  0  0  0  0  0  0  0
    6.4647  -13.6157   25.8815 C   0  0  0  0  0  0  0  0  0  0  0  0
    6.4181  -12.4174   26.5988 C   0  0  0  0  0  0  0  0  0  0  0  0
    6.8170  -11.2417   26.0028 C   0  0  0  0  0  0  0  0  0  0  0  0
    7.2567  -11.2944   24.6919 C   0  0  0  0  0  0  0  0  0  0  0  0
    7.2992  -12.4812   23.9918 C   0  0  0  0  0  0  0  0  0  0  0  0
    6.9035  -13.6720   24.5708 C   0  0  0  0  0  0  0  0  0  0  0  0
    9.2525  -16.1428   21.5909 C   0  0  0  0  0  0  0  0  0  0  0  0
    8.9042  -16.6595   20.4740 O   0  0  0  0  0  0  0  0  0  0  0  0
   10.8926  -14.3892   18.1486 N   0  0  0  0  0  0  0  0  0  0  0  0
   11.3278  -13.9111   19.4062 C   0  0  0  0  0  0  0  0  0  0  0  0
   10.8754  -12.8176   19.8131 O   0  0  0  0  0  0  0  0  0  0  0  0
   12.2906  -14.6822   20.2180 C   0  0  0  0  0  0  0  0  0  0  0  0
   11.6370  -15.9330   20.8497 C   0  0  2  0  0  0  0  0  0  0  0  0
   10.4654  -15.4032   21.5563 N   0  0  0  0  0  0  0  0  0  0  0  0
   12.5866  -16.6209   21.7314 C   0  0  0  0  0  0  0  0  0  0  0  0
   13.7602  -16.9164   21.3134 O   0  0  0  0  0  0  0  0  0  0  0  0
   12.3249  -17.0081   23.0621 N   0  0  0  0  0  0  0  0  0  0  0  0
   13.2238  -17.8914   23.8422 C   0  0  1  0  0  0  0  0  0  0  0  0
   12.5471  -18.3265   25.0913 C   0  0  0  0  0  0  0  0  0  0  0  0
   11.6358  -17.2677   25.6340 C   0  0  0  0  0  0  0  0  0  0  0  0
   10.9803  -17.8095   26.8826 C   0  0  0  0  0  0  0  0  0  0  0  0
   11.7216  -18.3205   27.7522 O   0  0  0  0  0  0  0  0  0  0  0  0
   13.5490  -19.0210   22.9721 C   0  0  0  0  0  0  0  0  0  0  0  0
   12.6526  -19.6632   22.3132 O   0  0  0  0  0  0  0  0  0  0  0  0
    9.6107  -17.7108   26.9926 O   0  0  0  0  0  0  0  0  0  0  0  0
   14.8510  -19.4569   22.8109 O   0  0  0  0  0  0  0  0  0  0  0  0
  2  1  1  1
  2 13  1  0
  2  3  1  0
  4  3  1  0
  4  5  2  0
  6  5  1  0
  7  6  1  0
  8  7  2  0
  9  8  1  0
 10  9  2  0
 10 11  1  0
 11 12  2  0
 12  7  1  0
 12  4  1  0
 13 14  2  0
 15 16  1  0
 16 18  1  0
 17 16  2  0
 19 18  1  1
 20 19  1  0
 20 13  1  0
 21 22  2  0
 21 19  1  0
 23 21  1  0
 24 29  1  0
 24 23  1  0
 24 25  1  1
 26 25  1  0
 27 26  1  0
 27 28  2  0
 29 32  1  0
 30 29  2  0
 31 27  1  0
M  END
$$$$
