WNE.pdb
     RDKit          3D

 32 33  0  0  1  0  0  0  0  0999 V2000
    9.1173  -16.7617   23.7252 N   0  0  0  0  0  0  0  0  0  0  0  0
   10.0089  -15.8953   24.5293 C   0  0  1  0  0  0  0  0  0  0  0  0
    9.1900  -15.4535   25.6839 C   0  0  0  0  0  0  0  0  0  0  0  0
    7.9335  -14.7797   25.4148 C   0  0  0  0  0  0  0  0  0  0  0  0
    6.8793  -15.2965   24.7087 C   0  0  0  0  0  0  0  0  0  0  0  0
    5.9005  -14.3940   24.6505 N   0  0  0  0  0  0  0  0  0  0  0  0
    6.2781  -13.2862   25.3022 C   0  0  0  0  0  0  0  0  0  0  0  0
    5.6044  -12.0806   25.5145 C   0  0  0  0  0  0  0  0  0  0  0  0
    6.2091  -11.0698   26.2281 C   0  0  0  0  0  0  0  0  0  0  0  0
    7.4846  -11.2922   26.7162 C   0  0  0  0  0  0  0  0  0  0  0  0
    8.1418  -12.4849   26.5018 C   0  0  0  0  0  0  0  0  0  0  0  0
    7.5534  -13.5120   25.7886 C   0  0  0  0  0  0  0  0  0  0  0  0
   11.2151  -16.6569   24.8126 C   0  0  0  0  0  0  0  0  0  0  0  0
   12.0578  -16.1588   25.6356 O   0  0  0  0  0  0  0  0  0  0  0  0
   11.7564  -20.3970   26.9420 N   0  0  0  0  0  0  0  0  0  0  0  0
   11.5360  -20.3613   25.5457 C   0  0  0  0  0  0  0  0  0  0  0  0
   10.3888  -20.6236   25.1202 O   0  0  0  0  0  0  0  0  0  0  0  0
   12.6308  -20.0231   24.6143 C   0  0  0  0  0  0  0  0  0  0  0  0
   12.8945  -18.5002   24.5668 C   0  0  2  0  0  0  0  0  0  0  0  0
   11.5787  -17.9207   24.2745 N   0  0  0  0  0  0  0  0  0  0  0  0
   13.9078  -18.1841   23.5540 C   0  0  0  0  0  0  0  0  0  0  0  0
   15.0889  -18.6696   23.6470 O   0  0  0  0  0  0  0  0  0  0  0  0
   13.7016  -17.3585   22.4294 N   0  0  0  0  0  0  0  0  0  0  0  0
   14.8064  -16.8492   21.5827 C   0  0  1  0  0  0  0  0  0  0  0  0
   14.2921  -15.8166   20.6463 C   0  0  0  0  0  0  0  0  0  0  0  0
   15.3881  -15.2084   19.8246 C   0  0  0  0  0  0  0  0  0  0  0  0
   14.7555  -14.2791   18.8154 C   0  0  0  0  0  0  0  0  0  0  0  0
   13.5544  -14.4727   18.5212 O   0  0  0  0  0  0  0  0  0  0  0  0
   15.8115  -16.3087   22.4974 C   0  0  0  0  0  0  0  0  0  0  0  0
   17.0720  -16.4669   22.3071 O   0  0  0  0  0  0  0  0  0  0  0  0
   15.5329  -13.2763   18.2789 O   0  0  0  0  0  0  0  0  0  0  0  0
   15.4520  -15.5903   23.6225 O   0  0  0  0  0  0  0  0  0  0  0  0
  2  1  1  6
  2 13  1  0
  2  3  1  0
  4  3  1  0
  4  5  2  0
  6  5  1  0
  7  6  1  0
  8  7  2  0
  9  8  1  0
 10  9  2  0
 10 11  1  0
 11 12  2  0
 12  7  1  0
 12  4  1  0
 13 14  2  0
 15 16  1  0
 16 18  1  0
 17 16  2  0
 19 18  1  6
 20 19  1  0
 20 13  1  0
 21 22  2  0
 21 19  1  0
 23 21  1  0
 24 29  1  0
 24 23  1  0
 24 25  1  6
 26 25  1  0
 27 26  1  0
 27 28  2  0
 29 32  1  0
 30 29  2  0
 31 27  1  0
M  END
$$$$
