WNE.pdb
     RDKit          3D

 32 33  0  0  1  0  0  0  0  0999 V2000
    6.8807  -17.7250   23.7161 N   0  0  0  0  0  0  0  0  0  0  0  0
    7.8234  -16.6561   23.3148 C   0  0  1  0  0  0  0  0  0  0  0  0
    8.3059  -16.0613   24.5846 C   0  0  0  0  0  0  0  0  0  0  0  0
    7.4074  -15.1891   25.3174 C   0  0  0  0  0  0  0  0  0  0  0  0
    6.3014  -15.5840   26.0231 C   0  0  0  0  0  0  0  0  0  0  0  0
    5.7103  -14.5144   26.5548 N   0  0  0  0  0  0  0  0  0  0  0  0
    6.3974  -13.4144   26.2196 C   0  0  0  0  0  0  0  0  0  0  0  0
    6.1747  -12.0710   26.5334 C   0  0  0  0  0  0  0  0  0  0  0  0
    7.0341  -11.1024   26.0647 C   0  0  0  0  0  0  0  0  0  0  0  0
    8.1051  -11.5053   25.2868 C   0  0  0  0  0  0  0  0  0  0  0  0
    8.3171  -12.8330   24.9822 C   0  0  0  0  0  0  0  0  0  0  0  0
    7.4670  -13.8207   25.4421 C   0  0  0  0  0  0  0  0  0  0  0  0
    8.8133  -17.2574   22.4352 C   0  0  0  0  0  0  0  0  0  0  0  0
    9.2183  -18.4391   22.7092 O   0  0  0  0  0  0  0  0  0  0  0  0
    8.7920  -18.3862   18.8028 N   0  0  0  0  0  0  0  0  0  0  0  0
    9.6306  -17.3508   18.3293 C   0  0  0  0  0  0  0  0  0  0  0  0
    9.5310  -17.0098   17.1294 O   0  0  0  0  0  0  0  0  0  0  0  0
   10.5982  -16.6892   19.2274 C   0  0  0  0  0  0  0  0  0  0  0  0
   10.5704  -17.2965   20.6491 C   0  0  2  0  0  0  0  0  0  0  0  0
    9.3977  -16.6775   21.2770 N   0  0  0  0  0  0  0  0  0  0  0  0
   11.8254  -17.0144   21.3546 C   0  0  0  0  0  0  0  0  0  0  0  0
   12.3083  -15.8287   21.3667 O   0  0  0  0  0  0  0  0  0  0  0  0
   12.5924  -17.9656   22.0587 N   0  0  0  0  0  0  0  0  0  0  0  0
   13.8235  -17.6213   22.8088 C   0  0  1  0  0  0  0  0  0  0  0  0
   14.2630  -18.7845   23.6220 C   0  0  0  0  0  0  0  0  0  0  0  0
   13.2651  -19.1365   24.6833 C   0  0  0  0  0  0  0  0  0  0  0  0
   14.0117  -19.7594   25.8395 C   0  0  0  0  0  0  0  0  0  0  0  0
   14.4668  -20.9147   25.6814 O   0  0  0  0  0  0  0  0  0  0  0  0
   14.8221  -17.2411   21.8102 C   0  0  0  0  0  0  0  0  0  0  0  0
   14.8149  -17.7120   20.6151 O   0  0  0  0  0  0  0  0  0  0  0  0
   14.1484  -19.0241   26.9964 O   0  0  0  0  0  0  0  0  0  0  0  0
   15.8323  -16.3443   22.1042 O   0  0  0  0  0  0  0  0  0  0  0  0
  2  1  1  1
  2 13  1  0
  2  3  1  0
  4  3  1  0
  4  5  2  0
  6  5  1  0
  7  6  1  0
  8  7  2  0
  9  8  1  0
 10  9  2  0
 10 11  1  0
 11 12  2  0
 12  7  1  0
 12  4  1  0
 13 14  2  0
 15 16  1  0
 16 18  1  0
 17 16  2  0
 19 18  1  6
 20 19  1  0
 20 13  1  0
 21 22  2  0
 21 19  1  0
 23 21  1  0
 24 29  1  0
 24 23  1  0
 24 25  1  6
 26 25  1  0
 27 26  1  0
 27 28  2  0
 29 32  1  0
 30 29  2  0
 31 27  1  0
M  END
$$$$
