WNE.pdb
     RDKit          3D

 32 33  0  0  1  0  0  0  0  0999 V2000
    7.3061  -17.4307   23.2744 N   0  0  0  0  0  0  0  0  0  0  0  0
    8.4105  -16.4469   23.3410 C   0  0  1  0  0  0  0  0  0  0  0  0
    8.5410  -16.0999   24.7768 C   0  0  0  0  0  0  0  0  0  0  0  0
    7.5361  -15.2352   25.3666 C   0  0  0  0  0  0  0  0  0  0  0  0
    6.2974  -15.6241   25.8039 C   0  0  0  0  0  0  0  0  0  0  0  0
    5.6404  -14.5637   26.2731 N   0  0  0  0  0  0  0  0  0  0  0  0
    6.4135  -13.4757   26.1586 C   0  0  0  0  0  0  0  0  0  0  0  0
    6.1698  -12.1449   26.5081 C   0  0  0  0  0  0  0  0  0  0  0  0
    7.1352  -11.1873   26.2898 C   0  0  0  0  0  0  0  0  0  0  0  0
    8.3316  -11.5885   25.7221 C   0  0  0  0  0  0  0  0  0  0  0  0
    8.5633  -12.9037   25.3804 C   0  0  0  0  0  0  0  0  0  0  0  0
    7.6083  -13.8803   25.5907 C   0  0  0  0  0  0  0  0  0  0  0  0
    9.5639  -17.0434   22.6860 C   0  0  0  0  0  0  0  0  0  0  0  0
    9.7871  -18.2872   22.8828 O   0  0  0  0  0  0  0  0  0  0  0  0
   11.5439  -17.8354   18.4254 N   0  0  0  0  0  0  0  0  0  0  0  0
   11.4548  -16.5759   19.0620 C   0  0  0  0  0  0  0  0  0  0  0  0
   10.6675  -15.7267   18.5875 O   0  0  0  0  0  0  0  0  0  0  0  0
   12.2692  -16.2708   20.2554 C   0  0  0  0  0  0  0  0  0  0  0  0
   11.7721  -17.0392   21.5016 C   0  0  2  0  0  0  0  0  0  0  0  0
   10.4949  -16.3960   21.8297 N   0  0  0  0  0  0  0  0  0  0  0  0
   12.7592  -16.9591   22.5840 C   0  0  0  0  0  0  0  0  0  0  0  0
   12.9079  -15.8727   23.2450 O   0  0  0  0  0  0  0  0  0  0  0  0
   13.6033  -18.0126   22.9927 N   0  0  0  0  0  0  0  0  0  0  0  0
   14.5157  -17.9168   24.1568 C   0  0  1  0  0  0  0  0  0  0  0  0
   14.7214  -19.2629   24.7510 C   0  0  0  0  0  0  0  0  0  0  0  0
   15.7751  -19.2509   25.8167 C   0  0  0  0  0  0  0  0  0  0  0  0
   15.1529  -19.7601   27.0957 C   0  0  0  0  0  0  0  0  0  0  0  0
   13.9475  -20.0958   27.0611 O   0  0  0  0  0  0  0  0  0  0  0  0
   15.7636  -17.3412   23.6564 C   0  0  0  0  0  0  0  0  0  0  0  0
   16.7026  -16.9468   24.4391 O   0  0  0  0  0  0  0  0  0  0  0  0
   15.9437  -19.8258   28.2217 O   0  0  0  0  0  0  0  0  0  0  0  0
   15.9991  -17.1942   22.3021 O   0  0  0  0  0  0  0  0  0  0  0  0
  2  1  1  1
  2 13  1  0
  2  3  1  0
  4  3  1  0
  4  5  2  0
  6  5  1  0
  7  6  1  0
  8  7  2  0
  9  8  1  0
 10  9  2  0
 10 11  1  0
 11 12  2  0
 12  7  1  0
 12  4  1  0
 13 14  2  0
 15 16  1  0
 16 18  1  0
 17 16  2  0
 19 18  1  6
 20 19  1  0
 20 13  1  0
 21 22  2  0
 21 19  1  0
 23 21  1  0
 24 29  1  0
 24 23  1  0
 24 25  1  6
 26 25  1  0
 27 26  1  0
 27 28  2  0
 29 32  1  0
 30 29  2  0
 31 27  1  0
M  END
$$$$
