GGH.pdb
     RDKit          3D

 19 19  0  0  1  0  0  0  0  0999 V2000
    7.0245  -17.8698   17.2171 N   0  0  0  0  0  0  0  0  0  0  0  0
    8.4461  -17.9429   17.4432 C   0  0  0  0  0  0  0  0  0  0  0  0
    8.7177  -18.1189   18.8978 C   0  0  0  0  0  0  0  0  0  0  0  0
    7.7727  -18.1079   19.7121 O   0  0  0  0  0  0  0  0  0  0  0  0
   10.0595  -18.2944   19.3037 N   0  0  0  0  0  0  0  0  0  0  0  0
   10.3573  -18.5563   20.6985 C   0  0  0  0  0  0  0  0  0  0  0  0
   10.5258  -17.2552   21.4005 C   0  0  0  0  0  0  0  0  0  0  0  0
   11.5515  -16.5404   21.2209 O   0  0  0  0  0  0  0  0  0  0  0  0
    9.5378  -16.7716   22.2975 N   0  0  0  0  0  0  0  0  0  0  0  0
    9.6409  -15.5264   23.0073 C   0  0  1  0  0  0  0  0  0  0  0  0
    8.4008  -14.6861   22.9152 C   0  0  0  0  0  0  0  0  0  0  0  0
    7.9886  -14.3626   21.5535 C   0  0  0  0  0  0  0  0  0  0  0  0
    8.6676  -13.6140   20.6408 C   0  0  0  0  0  0  0  0  0  0  0  0
    7.9391  -13.5652   19.5227 N   0  0  0  0  0  0  0  0  0  0  0  0
    6.8019  -14.2673   19.6933 C   0  0  0  0  0  0  0  0  0  0  0  0
    6.8551  -14.7507   20.9560 N   0  0  0  0  0  0  0  0  0  0  0  0
   10.1195  -15.7024   24.4038 C   0  0  0  0  0  0  0  0  0  0  0  0
   10.5086  -14.6166   25.1784 O   0  0  0  0  0  0  0  0  0  0  0  0
   10.2013  -16.8259   24.9637 O   0  0  0  0  0  0  0  0  0  0  0  0
  2  1  1  0
  3  2  1  0
  4  3  2  0
  5  3  1  0
  6  5  1  0
  7  6  1  0
  7  8  2  0
  9 10  1  0
  9  7  1  0
 11 12  1  0
 10 11  1  1
 12 16  1  0
 13 14  1  0
 13 12  2  0
 14 15  1  0
 15 16  2  0
 17 10  1  0
 17 18  1  0
 19 17  2  0
M  END
$$$$
