GGH.pdb
     RDKit          3D

 19 19  0  0  1  0  0  0  0  0999 V2000
    7.2998  -18.4377   19.6987 N   0  0  0  0  0  0  0  0  0  0  0  0
    6.7149  -17.6272   20.7371 C   0  0  0  0  0  0  0  0  0  0  0  0
    7.4973  -16.3691   20.8967 C   0  0  0  0  0  0  0  0  0  0  0  0
    8.6972  -16.3363   20.5573 O   0  0  0  0  0  0  0  0  0  0  0  0
    6.8363  -15.2430   21.4362 N   0  0  0  0  0  0  0  0  0  0  0  0
    7.5576  -13.9944   21.5892 C   0  0  0  0  0  0  0  0  0  0  0  0
    8.2364  -13.9974   22.9133 C   0  0  0  0  0  0  0  0  0  0  0  0
    8.8907  -12.9957   23.3178 O   0  0  0  0  0  0  0  0  0  0  0  0
    8.1718  -15.1282   23.7688 N   0  0  0  0  0  0  0  0  0  0  0  0
    8.8271  -15.2052   25.0454 C   0  0  1  0  0  0  0  0  0  0  0  0
    7.8746  -15.1728   26.2047 C   0  0  0  0  0  0  0  0  0  0  0  0
    7.2760  -13.8669   26.4598 C   0  0  0  0  0  0  0  0  0  0  0  0
    7.9210  -12.6757   26.5993 C   0  0  0  0  0  0  0  0  0  0  0  0
    7.0025  -11.7323   26.8219 N   0  0  0  0  0  0  0  0  0  0  0  0
    5.7755  -12.2890   26.8294 C   0  0  0  0  0  0  0  0  0  0  0  0
    5.9701  -13.6088   26.6035 N   0  0  0  0  0  0  0  0  0  0  0  0
    9.7967  -16.3295   25.1232 C   0  0  0  0  0  0  0  0  0  0  0  0
   10.0388  -17.1542   24.0315 O   0  0  0  0  0  0  0  0  0  0  0  0
   10.4486  -16.6015   26.1641 O   0  0  0  0  0  0  0  0  0  0  0  0
  2  1  1  0
  3  2  1  0
  4  3  2  0
  5  3  1  0
  6  5  1  0
  7  6  1  0
  7  8  2  0
  9 10  1  0
  9  7  1  0
 11 12  1  0
 10 11  1  1
 12 16  1  0
 13 14  1  0
 13 12  2  0
 14 15  1  0
 15 16  2  0
 17 10  1  0
 17 18  1  0
 19 17  2  0
M  END
$$$$
