GGH.pdb
     RDKit          3D

 19 19  0  0  1  0  0  0  0  0999 V2000
   10.3384  -17.0508   15.3472 N   0  0  0  0  0  0  0  0  0  0  0  0
   11.2577  -17.2661   16.4362 C   0  0  0  0  0  0  0  0  0  0  0  0
   11.8359  -15.9642   16.8738 C   0  0  0  0  0  0  0  0  0  0  0  0
   11.5083  -14.9114   16.2902 O   0  0  0  0  0  0  0  0  0  0  0  0
   12.7487  -15.9749   17.9520 N   0  0  0  0  0  0  0  0  0  0  0  0
   13.2249  -14.7194   18.4996 C   0  0  0  0  0  0  0  0  0  0  0  0
   12.5383  -14.4766   19.7972 C   0  0  0  0  0  0  0  0  0  0  0  0
   12.8583  -13.5045   20.5374 O   0  0  0  0  0  0  0  0  0  0  0  0
   11.4983  -15.3305   20.2485 N   0  0  0  0  0  0  0  0  0  0  0  0
   10.7458  -15.1091   21.4526 C   0  0  1  0  0  0  0  0  0  0  0  0
    9.2614  -15.1980   21.2500 C   0  0  0  0  0  0  0  0  0  0  0  0
    8.7538  -14.4025   20.1372 C   0  0  0  0  0  0  0  0  0  0  0  0
    8.4773  -13.0691   20.1335 C   0  0  0  0  0  0  0  0  0  0  0  0
    8.0342  -12.7425   18.9169 N   0  0  0  0  0  0  0  0  0  0  0  0
    8.0183  -13.8381   18.1326 C   0  0  0  0  0  0  0  0  0  0  0  0
    8.4673  -14.8514   18.9087 N   0  0  0  0  0  0  0  0  0  0  0  0
   11.2266  -15.9400   22.5879 C   0  0  0  0  0  0  0  0  0  0  0  0
   10.6503  -15.8468   23.8487 O   0  0  0  0  0  0  0  0  0  0  0  0
   12.1693  -16.7660   22.4816 O   0  0  0  0  0  0  0  0  0  0  0  0
  2  1  1  0
  3  2  1  0
  4  3  2  0
  5  3  1  0
  6  5  1  0
  7  6  1  0
  7  8  2  0
  9 10  1  0
  9  7  1  0
 11 12  1  0
 10 11  1  6
 12 16  1  0
 13 14  1  0
 13 12  2  0
 14 15  1  0
 15 16  2  0
 17 10  1  0
 17 18  1  0
 19 17  2  0
M  END
$$$$
