GGH.pdb
     RDKit          3D

 19 19  0  0  1  0  0  0  0  0999 V2000
    6.6039  -19.6760   21.3806 N   0  0  0  0  0  0  0  0  0  0  0  0
    6.1645  -18.3483   21.7291 C   0  0  0  0  0  0  0  0  0  0  0  0
    7.3350  -17.4276   21.7855 C   0  0  0  0  0  0  0  0  0  0  0  0
    8.4902  -17.8836   21.6686 O   0  0  0  0  0  0  0  0  0  0  0  0
    7.0844  -16.0499   21.9725 N   0  0  0  0  0  0  0  0  0  0  0  0
    8.1945  -15.1172   21.9978 C   0  0  0  0  0  0  0  0  0  0  0  0
    8.6878  -15.0042   23.3971 C   0  0  0  0  0  0  0  0  0  0  0  0
    9.5913  -14.1790   23.7100 O   0  0  0  0  0  0  0  0  0  0  0  0
    8.1591  -15.8214   24.4302 N   0  0  0  0  0  0  0  0  0  0  0  0
    8.6093  -15.7797   25.7942 C   0  0  1  0  0  0  0  0  0  0  0  0
    7.5366  -15.3719   26.7614 C   0  0  0  0  0  0  0  0  0  0  0  0
    7.1194  -13.9782   26.6502 C   0  0  0  0  0  0  0  0  0  0  0  0
    7.9092  -12.8713   26.7235 C   0  0  0  0  0  0  0  0  0  0  0  0
    7.1302  -11.7973   26.5722 N   0  0  0  0  0  0  0  0  0  0  0  0
    5.8516  -12.1868   26.4022 C   0  0  0  0  0  0  0  0  0  0  0  0
    5.8700  -13.5388   26.4542 N   0  0  0  0  0  0  0  0  0  0  0  0
    9.3147  -17.0234   26.2016 C   0  0  0  0  0  0  0  0  0  0  0  0
   10.0063  -17.1032   27.4039 O   0  0  0  0  0  0  0  0  0  0  0  0
    9.3302  -18.0648   25.4961 O   0  0  0  0  0  0  0  0  0  0  0  0
  2  1  1  0
  3  2  1  0
  4  3  2  0
  5  3  1  0
  6  5  1  0
  7  6  1  0
  7  8  2  0
  9 10  1  0
  9  7  1  0
 11 12  1  0
 10 11  1  1
 12 16  1  0
 13 14  1  0
 13 12  2  0
 14 15  1  0
 15 16  2  0
 17 10  1  0
 17 18  1  0
 19 17  2  0
M  END
$$$$
