GGH.pdb
     RDKit          3D

 19 19  0  0  1  0  0  0  0  0999 V2000
    9.5761  -18.6315   16.0916 N   0  0  0  0  0  0  0  0  0  0  0  0
    9.7791  -17.4388   16.8750 C   0  0  0  0  0  0  0  0  0  0  0  0
    9.5545  -17.7379   18.3175 C   0  0  0  0  0  0  0  0  0  0  0  0
    8.4098  -17.6347   18.8024 O   0  0  0  0  0  0  0  0  0  0  0  0
   10.6677  -18.1335   19.0921 N   0  0  0  0  0  0  0  0  0  0  0  0
   10.4698  -18.5642   20.4626 C   0  0  0  0  0  0  0  0  0  0  0  0
   10.6234  -17.3854   21.3575 C   0  0  0  0  0  0  0  0  0  0  0  0
   11.7440  -16.8258   21.5196 O   0  0  0  0  0  0  0  0  0  0  0  0
    9.5138  -16.8483   22.0611 N   0  0  0  0  0  0  0  0  0  0  0  0
    9.5932  -15.7075   22.9313 C   0  0  1  0  0  0  0  0  0  0  0  0
    8.4282  -14.7717   22.7912 C   0  0  0  0  0  0  0  0  0  0  0  0
    8.1755  -14.3198   21.4272 C   0  0  0  0  0  0  0  0  0  0  0  0
    9.0818  -13.8235   20.5402 C   0  0  0  0  0  0  0  0  0  0  0  0
    8.4353  -13.5311   19.4090 N   0  0  0  0  0  0  0  0  0  0  0  0
    7.1282  -13.8282   19.5459 C   0  0  0  0  0  0  0  0  0  0  0  0
    6.9919  -14.3141   20.8013 N   0  0  0  0  0  0  0  0  0  0  0  0
    9.8680  -16.0836   24.3431 C   0  0  0  0  0  0  0  0  0  0  0  0
   10.2374  -15.1334   25.2871 O   0  0  0  0  0  0  0  0  0  0  0  0
    9.7852  -17.2654   24.7660 O   0  0  0  0  0  0  0  0  0  0  0  0
  2  1  1  0
  3  2  1  0
  4  3  2  0
  5  3  1  0
  6  5  1  0
  7  6  1  0
  7  8  2  0
  9 10  1  0
  9  7  1  0
 11 12  1  0
 10 11  1  1
 12 16  1  0
 13 14  1  0
 13 12  2  0
 14 15  1  0
 15 16  2  0
 17 10  1  0
 17 18  1  0
 19 17  2  0
M  END
$$$$
