GGH.pdb
     RDKit          3D

 19 19  0  0  1  0  0  0  0  0999 V2000
    6.7388  -18.1379   16.4218 N   0  0  0  0  0  0  0  0  0  0  0  0
    6.0188  -18.4783   17.6231 C   0  0  0  0  0  0  0  0  0  0  0  0
    6.9791  -18.8665   18.6945 C   0  0  0  0  0  0  0  0  0  0  0  0
    7.6906  -19.8813   18.5532 O   0  0  0  0  0  0  0  0  0  0  0  0
    7.0462  -18.0544   19.8486 N   0  0  0  0  0  0  0  0  0  0  0  0
    7.8951  -18.4515   20.9552 C   0  0  0  0  0  0  0  0  0  0  0  0
    9.0770  -17.5484   20.9946 C   0  0  0  0  0  0  0  0  0  0  0  0
    9.5758  -17.0734   19.9359 O   0  0  0  0  0  0  0  0  0  0  0  0
    9.6857  -17.1891   22.2255 N   0  0  0  0  0  0  0  0  0  0  0  0
    9.7290  -15.8465   22.7358 C   0  0  1  0  0  0  0  0  0  0  0  0
    8.3990  -15.1522   22.6942 C   0  0  0  0  0  0  0  0  0  0  0  0
    8.1203  -14.4528   21.4445 C   0  0  0  0  0  0  0  0  0  0  0  0
    8.9040  -14.4058   20.3318 C   0  0  0  0  0  0  0  0  0  0  0  0
    8.2793  -13.6590   19.4178 N   0  0  0  0  0  0  0  0  0  0  0  0
    7.1065  -13.2216   19.9167 C   0  0  0  0  0  0  0  0  0  0  0  0
    7.0305  -13.7250   21.1703 N   0  0  0  0  0  0  0  0  0  0  0  0
   10.3855  -15.7619   24.0671 C   0  0  0  0  0  0  0  0  0  0  0  0
   11.4494  -14.8983   24.2965 O   0  0  0  0  0  0  0  0  0  0  0  0
   10.0261  -16.4548   25.0536 O   0  0  0  0  0  0  0  0  0  0  0  0
  2  1  1  0
  3  2  1  0
  4  3  2  0
  5  3  1  0
  6  5  1  0
  7  6  1  0
  7  8  2  0
  9 10  1  0
  9  7  1  0
 11 12  1  0
 10 11  1  1
 12 16  1  0
 13 14  1  0
 13 12  2  0
 14 15  1  0
 15 16  2  0
 17 10  1  0
 17 18  1  0
 19 17  2  0
M  END
$$$$
