GGH.pdb
     RDKit          3D

 19 19  0  0  1  0  0  0  0  0999 V2000
    7.8549  -21.4377   19.8944 N   0  0  0  0  0  0  0  0  0  0  0  0
    7.8460  -19.9968   19.8598 C   0  0  0  0  0  0  0  0  0  0  0  0
    9.1044  -19.4989   19.2359 C   0  0  0  0  0  0  0  0  0  0  0  0
   10.1590  -20.1542   19.3563 O   0  0  0  0  0  0  0  0  0  0  0  0
    9.0513  -18.2821   18.5200 N   0  0  0  0  0  0  0  0  0  0  0  0
   10.2812  -17.6708   18.0547 C   0  0  0  0  0  0  0  0  0  0  0  0
   10.6750  -16.6053   19.0159 C   0  0  0  0  0  0  0  0  0  0  0  0
   11.5962  -15.7848   18.7451 O   0  0  0  0  0  0  0  0  0  0  0  0
   10.0277  -16.4742   20.2723 N   0  0  0  0  0  0  0  0  0  0  0  0
   10.3904  -15.4977   21.2622 C   0  0  1  0  0  0  0  0  0  0  0  0
    9.3055  -14.4970   21.5344 C   0  0  0  0  0  0  0  0  0  0  0  0
    8.6570  -13.9674   20.3396 C   0  0  0  0  0  0  0  0  0  0  0  0
    9.0327  -12.8818   19.6083 C   0  0  0  0  0  0  0  0  0  0  0  0
    8.1692  -12.7448   18.5989 N   0  0  0  0  0  0  0  0  0  0  0  0
    7.2418  -13.7203   18.6620 C   0  0  0  0  0  0  0  0  0  0  0  0
    7.5641  -14.4633   19.7459 N   0  0  0  0  0  0  0  0  0  0  0  0
   10.9343  -16.1143   22.5008 C   0  0  0  0  0  0  0  0  0  0  0  0
   11.6153  -15.3587   23.4473 O   0  0  0  0  0  0  0  0  0  0  0  0
   10.8150  -17.3380   22.7666 O   0  0  0  0  0  0  0  0  0  0  0  0
  2  1  1  0
  3  2  1  0
  4  3  2  0
  5  3  1  0
  6  5  1  0
  7  6  1  0
  7  8  2  0
  9 10  1  0
  9  7  1  0
 11 12  1  0
 10 11  1  1
 12 16  1  0
 13 14  1  0
 13 12  2  0
 14 15  1  0
 15 16  2  0
 17 10  1  0
 17 18  1  0
 19 17  2  0
M  END
$$$$
