GGH.pdb
     RDKit          3D

 19 19  0  0  1  0  0  0  0  0999 V2000
    4.3387  -18.9411   21.5375 N   0  0  0  0  0  0  0  0  0  0  0  0
    5.7692  -18.9229   21.3624 C   0  0  0  0  0  0  0  0  0  0  0  0
    6.2586  -17.5154   21.3505 C   0  0  0  0  0  0  0  0  0  0  0  0
    5.4672  -16.5804   21.5859 O   0  0  0  0  0  0  0  0  0  0  0  0
    7.6248  -17.2926   21.0677 N   0  0  0  0  0  0  0  0  0  0  0  0
    8.1240  -15.9344   20.9722 C   0  0  0  0  0  0  0  0  0  0  0  0
    8.6951  -15.5449   22.2899 C   0  0  0  0  0  0  0  0  0  0  0  0
    9.4230  -14.5200   22.4127 O   0  0  0  0  0  0  0  0  0  0  0  0
    8.4412  -16.3130   23.4561 N   0  0  0  0  0  0  0  0  0  0  0  0
    9.0144  -16.0291   24.7429 C   0  0  1  0  0  0  0  0  0  0  0  0
    7.9891  -15.7233   25.7953 C   0  0  0  0  0  0  0  0  0  0  0  0
    7.4580  -14.3653   25.7463 C   0  0  0  0  0  0  0  0  0  0  0  0
    6.5698  -13.7942   26.6063 C   0  0  0  0  0  0  0  0  0  0  0  0
    6.3506  -12.5407   26.2015 N   0  0  0  0  0  0  0  0  0  0  0  0
    7.0793  -12.2887   25.0965 C   0  0  0  0  0  0  0  0  0  0  0  0
    7.7553  -13.4311   24.8344 N   0  0  0  0  0  0  0  0  0  0  0  0
    9.9954  -17.0607   25.1718 C   0  0  0  0  0  0  0  0  0  0  0  0
   10.7398  -16.9129   26.3356 O   0  0  0  0  0  0  0  0  0  0  0  0
   10.2105  -18.1148   24.5199 O   0  0  0  0  0  0  0  0  0  0  0  0
  2  1  1  0
  3  2  1  0
  4  3  2  0
  5  3  1  0
  6  5  1  0
  7  6  1  0
  7  8  2  0
  9 10  1  0
  9  7  1  0
 11 12  1  0
 10 11  1  1
 12 16  1  0
 13 14  1  0
 13 12  2  0
 14 15  1  0
 15 16  2  0
 17 10  1  0
 17 18  1  0
 19 17  2  0
M  END
$$$$
