GGH.pdb
     RDKit          3D

 19 19  0  0  1  0  0  0  0  0999 V2000
    8.3802  -18.4586   14.6655 N   0  0  0  0  0  0  0  0  0  0  0  0
    9.1536  -17.6514   15.5753 C   0  0  0  0  0  0  0  0  0  0  0  0
    9.0680  -18.2182   16.9509 C   0  0  0  0  0  0  0  0  0  0  0  0
    8.4837  -19.3039   17.1402 O   0  0  0  0  0  0  0  0  0  0  0  0
    9.6632  -17.4894   18.0047 N   0  0  0  0  0  0  0  0  0  0  0  0
    9.8846  -18.1334   19.2850 C   0  0  0  0  0  0  0  0  0  0  0  0
   10.2991  -17.0991   20.2712 C   0  0  0  0  0  0  0  0  0  0  0  0
   11.4146  -16.5140   20.1791 O   0  0  0  0  0  0  0  0  0  0  0  0
    9.4537  -16.7339   21.3512 N   0  0  0  0  0  0  0  0  0  0  0  0
    9.7864  -15.7311   22.3252 C   0  0  1  0  0  0  0  0  0  0  0  0
    8.6888  -14.7318   22.5474 C   0  0  0  0  0  0  0  0  0  0  0  0
    8.1218  -14.1738   21.3244 C   0  0  0  0  0  0  0  0  0  0  0  0
    8.6672  -13.2178   20.5225 C   0  0  0  0  0  0  0  0  0  0  0  0
    7.8238  -12.9967   19.5110 N   0  0  0  0  0  0  0  0  0  0  0  0
    6.7430  -13.7906   19.6421 C   0  0  0  0  0  0  0  0  0  0  0  0
    6.9500  -14.5088   20.7700 N   0  0  0  0  0  0  0  0  0  0  0  0
   10.3049  -16.3135   23.5910 C   0  0  0  0  0  0  0  0  0  0  0  0
   10.8996  -15.5193   24.5636 O   0  0  0  0  0  0  0  0  0  0  0  0
   10.2395  -17.5411   23.8578 O   0  0  0  0  0  0  0  0  0  0  0  0
  2  1  1  0
  3  2  1  0
  4  3  2  0
  5  3  1  0
  6  5  1  0
  7  6  1  0
  7  8  2  0
  9 10  1  0
  9  7  1  0
 11 12  1  0
 10 11  1  1
 12 16  1  0
 13 14  1  0
 13 12  2  0
 14 15  1  0
 15 16  2  0
 17 10  1  0
 17 18  1  0
 19 17  2  0
M  END
$$$$
