GGH.pdb
     RDKit          3D

 19 19  0  0  1  0  0  0  0  0999 V2000
    7.2636  -19.2084   19.7224 N   0  0  0  0  0  0  0  0  0  0  0  0
    8.3646  -18.4587   20.2730 C   0  0  0  0  0  0  0  0  0  0  0  0
    7.8488  -17.2655   21.0016 C   0  0  0  0  0  0  0  0  0  0  0  0
    6.7875  -17.3457   21.6523 O   0  0  0  0  0  0  0  0  0  0  0  0
    8.5964  -16.0692   20.9247 N   0  0  0  0  0  0  0  0  0  0  0  0
    8.1729  -14.9099   21.6859 C   0  0  0  0  0  0  0  0  0  0  0  0
    8.8114  -14.9646   23.0288 C   0  0  0  0  0  0  0  0  0  0  0  0
   10.0088  -14.6018   23.2015 O   0  0  0  0  0  0  0  0  0  0  0  0
    8.0956  -15.4272   24.1638 N   0  0  0  0  0  0  0  0  0  0  0  0
    8.6434  -15.4753   25.4914 C   0  0  1  0  0  0  0  0  0  0  0  0
    7.6333  -15.1804   26.5615 C   0  0  0  0  0  0  0  0  0  0  0  0
    7.1331  -13.8098   26.5605 C   0  0  0  0  0  0  0  0  0  0  0  0
    7.6734  -12.7339   25.9243 C   0  0  0  0  0  0  0  0  0  0  0  0
    6.9055  -11.6725   26.1830 N   0  0  0  0  0  0  0  0  0  0  0  0
    5.8785  -12.0399   26.9742 C   0  0  0  0  0  0  0  0  0  0  0  0
    6.0406  -13.3651   27.1940 N   0  0  0  0  0  0  0  0  0  0  0  0
    9.4123  -16.7216   25.7477 C   0  0  0  0  0  0  0  0  0  0  0  0
    9.0541  -17.9278   25.1585 O   0  0  0  0  0  0  0  0  0  0  0  0
   10.4188  -16.7632   26.5012 O   0  0  0  0  0  0  0  0  0  0  0  0
  2  1  1  0
  3  2  1  0
  4  3  2  0
  5  3  1  0
  6  5  1  0
  7  6  1  0
  7  8  2  0
  9 10  1  0
  9  7  1  0
 11 12  1  0
 10 11  1  1
 12 16  1  0
 13 14  1  0
 13 12  2  0
 14 15  1  0
 15 16  2  0
 17 10  1  0
 17 18  1  0
 19 17  2  0
M  END
$$$$
