VQD.pdb
     RDKit          3D

 25 24  0  0  1  0  0  0  0  0999 V2000
   18.5783  -12.7525  -15.0317 C   0  0  0  0  0  0  0  0  0  0  0  0
   17.9954  -11.3985  -14.6779 C   0  0  1  0  0  0  0  0  0  0  0  0
   17.4708  -10.6715  -15.9014 C   0  0  0  0  0  0  0  0  0  0  0  0
   16.8171  -11.5952  -13.7483 C   0  0  2  0  0  0  0  0  0  0  0  0
   15.8608  -12.4551  -14.3856 N   0  0  0  0  0  0  0  0  0  0  0  0
   16.1681  -10.3062  -13.4145 C   0  0  0  0  0  0  0  0  0  0  0  0
   15.2486   -9.9444  -14.1861 O   0  0  0  0  0  0  0  0  0  0  0  0
   15.3254   -7.3667   -7.7671 N   0  0  0  0  0  0  0  0  0  0  0  0
   14.9989   -6.4209   -8.7723 C   0  0  0  0  0  0  0  0  0  0  0  0
   14.5014   -5.3280   -8.4321 O   0  0  0  0  0  0  0  0  0  0  0  0
   15.2305   -6.6770  -10.2347 C   0  0  0  0  0  0  0  0  0  0  0  0
   15.8171   -8.0421  -10.4662 C   0  0  0  0  0  0  0  0  0  0  0  0
   16.1007   -8.2229  -11.9432 C   0  0  2  0  0  0  0  0  0  0  0  0
   16.5656   -9.5450  -12.3011 N   0  0  0  0  0  0  0  0  0  0  0  0
   16.7682   -7.1207  -12.6023 C   0  0  0  0  0  0  0  0  0  0  0  0
   18.0328   -6.9611  -12.4629 O   0  0  0  0  0  0  0  0  0  0  0  0
   16.1507   -6.1449  -13.4290 N   0  0  0  0  0  0  0  0  0  0  0  0
   16.9019   -5.0749  -14.0651 C   0  0  1  0  0  0  0  0  0  0  0  0
   16.3514   -4.8461  -15.4480 C   0  0  0  0  0  0  0  0  0  0  0  0
   17.0201   -3.7771  -16.1901 C   0  0  0  0  0  0  0  0  0  0  0  0
   17.9767   -3.1870  -15.5916 O   0  0  0  0  0  0  0  0  0  0  0  0
   16.9711   -3.8589  -13.2720 C   0  0  0  0  0  0  0  0  0  0  0  0
   15.9272   -3.4764  -12.4624 O   0  0  0  0  0  0  0  0  0  0  0  0
   16.7313   -3.3424  -17.4535 O   0  0  0  0  0  0  0  0  0  0  0  0
   17.9873   -3.1405  -13.3163 O   0  0  0  0  0  0  0  0  0  0  0  0
  2  1  1  6
  2  3  1  0
  4  2  1  0
  4  6  1  0
  4  5  1  6
  6 14  1  0
  7  6  2  0
  9 11  1  0
  9  8  1  0
 10  9  2  0
 12 11  1  0
 13 12  1  1
 14 13  1  0
 15 13  1  0
 15 17  1  0
 16 15  2  0
 18 17  1  0
 18 19  1  6
 20 21  2  0
 20 19  1  0
 22 23  1  0
 22 18  1  0
 24 20  1  0
 25 22  2  0
M  END
$$$$
