VQD.pdb
     RDKit          3D

 25 24  0  0  1  0  0  0  0  0999 V2000
   20.0782  -13.6711    6.1909 C   0  0  0  0  0  0  0  0  0  0  0  0
   18.9843  -12.6697    5.8759 C   0  0  1  0  0  0  0  0  0  0  0  0
   19.5144  -11.4784    5.1009 C   0  0  0  0  0  0  0  0  0  0  0  0
   17.9442  -13.3334    4.9990 C   0  0  2  0  0  0  0  0  0  0  0  0
   16.8360  -12.4365    4.8324 N   0  0  0  0  0  0  0  0  0  0  0  0
   17.4611  -14.6008    5.5944 C   0  0  0  0  0  0  0  0  0  0  0  0
   16.8084  -14.4875    6.6589 O   0  0  0  0  0  0  0  0  0  0  0  0
   16.6375  -19.9924    2.3978 N   0  0  0  0  0  0  0  0  0  0  0  0
   15.8017  -18.8634    2.5933 C   0  0  0  0  0  0  0  0  0  0  0  0
   14.8380  -18.6864    1.8202 O   0  0  0  0  0  0  0  0  0  0  0  0
   16.0244  -17.8694    3.6979 C   0  0  0  0  0  0  0  0  0  0  0  0
   17.2190  -18.2371    4.5339 C   0  0  0  0  0  0  0  0  0  0  0  0
   17.4660  -17.1519    5.5615 C   0  0  2  0  0  0  0  0  0  0  0  0
   17.7234  -15.8458    4.9959 N   0  0  0  0  0  0  0  0  0  0  0  0
   18.2905  -17.5222    6.6920 C   0  0  0  0  0  0  0  0  0  0  0  0
   19.5622  -17.6123    6.5560 O   0  0  0  0  0  0  0  0  0  0  0  0
   17.8279  -17.8122    8.0031 N   0  0  0  0  0  0  0  0  0  0  0  0
   18.7149  -18.2792    9.0563 C   0  0  1  0  0  0  0  0  0  0  0  0
   18.8757  -17.1867   10.0803 C   0  0  0  0  0  0  0  0  0  0  0  0
   19.5985  -17.5959   11.2848 C   0  0  0  0  0  0  0  0  0  0  0  0
   20.6135  -18.3442   11.1076 O   0  0  0  0  0  0  0  0  0  0  0  0
   18.3126  -19.5491    9.6377 C   0  0  0  0  0  0  0  0  0  0  0  0
   19.2461  -20.4643   10.0649 O   0  0  0  0  0  0  0  0  0  0  0  0
   19.3046  -17.2639   12.5778 O   0  0  0  0  0  0  0  0  0  0  0  0
   17.1046  -19.8271    9.7577 O   0  0  0  0  0  0  0  0  0  0  0  0
  2  1  1  6
  2  3  1  0
  4  2  1  0
  4  6  1  0
  4  5  1  1
  6 14  1  0
  7  6  2  0
  9 11  1  0
  9  8  1  0
 10  9  2  0
 12 11  1  0
 13 12  1  6
 14 13  1  0
 15 13  1  0
 15 17  1  0
 16 15  2  0
 18 17  1  0
 18 19  1  1
 20 21  2  0
 20 19  1  0
 22 23  1  0
 22 18  1  0
 24 20  1  0
 25 22  2  0
M  END
$$$$
