VQD.pdb
     RDKit          3D

 25 24  0  0  1  0  0  0  0  0999 V2000
   24.8601  -10.6408  -17.0680 C   0  0  0  0  0  0  0  0  0  0  0  0
   24.1159  -11.7415  -16.3380 C   0  0  1  0  0  0  0  0  0  0  0  0
   25.0552  -12.6279  -15.5425 C   0  0  0  0  0  0  0  0  0  0  0  0
   23.1593  -11.1170  -15.3451 C   0  0  2  0  0  0  0  0  0  0  0  0
   22.6416  -12.1456  -14.4883 N   0  0  0  0  0  0  0  0  0  0  0  0
   22.0336  -10.4389  -16.0287 C   0  0  0  0  0  0  0  0  0  0  0  0
   21.9840  -10.5874  -17.2727 O   0  0  0  0  0  0  0  0  0  0  0  0
   16.0772  -10.9307  -15.6934 N   0  0  0  0  0  0  0  0  0  0  0  0
   16.2381   -9.7004  -16.3805 C   0  0  0  0  0  0  0  0  0  0  0  0
   15.2495   -9.1958  -16.9513 O   0  0  0  0  0  0  0  0  0  0  0  0
   17.5513   -8.9732  -16.4478 C   0  0  0  0  0  0  0  0  0  0  0  0
   18.6344   -9.7296  -15.7297 C   0  0  0  0  0  0  0  0  0  0  0  0
   19.9449   -8.9826  -15.8680 C   0  0  2  0  0  0  0  0  0  0  0  0
   21.0868   -9.6798  -15.3185 N   0  0  0  0  0  0  0  0  0  0  0  0
   19.8951   -7.5584  -15.6150 C   0  0  0  0  0  0  0  0  0  0  0  0
   20.1983   -7.1021  -14.4557 O   0  0  0  0  0  0  0  0  0  0  0  0
   19.5298   -6.5562  -16.5527 N   0  0  0  0  0  0  0  0  0  0  0  0
   19.4103   -5.1541  -16.1871 C   0  0  1  0  0  0  0  0  0  0  0  0
   19.6588   -4.3077  -17.4077 C   0  0  0  0  0  0  0  0  0  0  0  0
   19.5460   -2.8681  -17.1719 C   0  0  0  0  0  0  0  0  0  0  0  0
   18.4984   -2.3022  -17.6233 O   0  0  0  0  0  0  0  0  0  0  0  0
   18.1630   -4.8305  -15.5148 C   0  0  0  0  0  0  0  0  0  0  0  0
   17.0693   -5.6593  -15.6055 O   0  0  0  0  0  0  0  0  0  0  0  0
   20.4403   -2.0647  -16.5214 O   0  0  0  0  0  0  0  0  0  0  0  0
   18.0683   -3.7874  -14.8411 O   0  0  0  0  0  0  0  0  0  0  0  0
  2  1  1  1
  2  3  1  0
  4  2  1  0
  4  6  1  0
  4  5  1  1
  6 14  1  0
  7  6  2  0
  9 11  1  0
  9  8  1  0
 10  9  2  0
 12 11  1  0
 13 12  1  1
 14 13  1  0
 15 13  1  0
 15 17  1  0
 16 15  2  0
 18 17  1  0
 18 19  1  6
 20 21  2  0
 20 19  1  0
 22 23  1  0
 22 18  1  0
 24 20  1  0
 25 22  2  0
M  END
$$$$
