VQD.pdb
     RDKit          3D

 25 24  0  0  1  0  0  0  0  0999 V2000
   26.3537  -11.5507  -14.6988 C   0  0  0  0  0  0  0  0  0  0  0  0
   26.5802  -12.5210  -15.8413 C   0  0  1  0  0  0  0  0  0  0  0  0
   27.4649  -13.6824  -15.4299 C   0  0  0  0  0  0  0  0  0  0  0  0
   25.2506  -13.1116  -16.2592 C   0  0  2  0  0  0  0  0  0  0  0  0
   25.4795  -14.0991  -17.2754 N   0  0  0  0  0  0  0  0  0  0  0  0
   24.3365  -12.0719  -16.7860 C   0  0  0  0  0  0  0  0  0  0  0  0
   24.6291  -11.6120  -17.9151 O   0  0  0  0  0  0  0  0  0  0  0  0
   18.5287  -12.4215  -18.1186 N   0  0  0  0  0  0  0  0  0  0  0  0
   18.7483  -11.0205  -18.1385 C   0  0  0  0  0  0  0  0  0  0  0  0
   17.8745  -10.2810  -18.6360 O   0  0  0  0  0  0  0  0  0  0  0  0
   19.9904  -10.3849  -17.5807 C   0  0  0  0  0  0  0  0  0  0  0  0
   20.9476  -11.4193  -17.0566 C   0  0  0  0  0  0  0  0  0  0  0  0
   22.1831  -10.7309  -16.5140 C   0  0  2  0  0  0  0  0  0  0  0  0
   23.2153  -11.6358  -16.0582 N   0  0  0  0  0  0  0  0  0  0  0  0
   21.9506   -9.5701  -15.6813 C   0  0  0  0  0  0  0  0  0  0  0  0
   21.7359   -9.7144  -14.4255 O   0  0  0  0  0  0  0  0  0  0  0  0
   21.9321   -8.2191  -16.1188 N   0  0  0  0  0  0  0  0  0  0  0  0
   21.6891   -7.1098  -15.2110 C   0  0  1  0  0  0  0  0  0  0  0  0
   22.7339   -6.0502  -15.4428 C   0  0  0  0  0  0  0  0  0  0  0  0
   22.5440   -4.8370  -14.6475 C   0  0  0  0  0  0  0  0  0  0  0  0
   22.5818   -4.9791  -13.3827 O   0  0  0  0  0  0  0  0  0  0  0  0
   20.3319   -6.5930  -15.2710 C   0  0  0  0  0  0  0  0  0  0  0  0
   19.7231   -6.0597  -14.1591 O   0  0  0  0  0  0  0  0  0  0  0  0
   22.3305   -3.5693  -15.1122 O   0  0  0  0  0  0  0  0  0  0  0  0
   19.6967   -6.6272  -16.3416 O   0  0  0  0  0  0  0  0  0  0  0  0
  2  1  1  1
  2  3  1  0
  4  2  1  0
  4  6  1  0
  4  5  1  6
  6 14  1  0
  7  6  2  0
  9 11  1  0
  9  8  1  0
 10  9  2  0
 12 11  1  0
 13 12  1  1
 14 13  1  0
 15 13  1  0
 15 17  1  0
 16 15  2  0
 18 17  1  0
 18 19  1  6
 20 21  2  0
 20 19  1  0
 22 23  1  0
 22 18  1  0
 24 20  1  0
 25 22  2  0
M  END
$$$$
