VQD.pdb
     RDKit          3D

 25 24  0  0  1  0  0  0  0  0999 V2000
   19.7772  -13.9761  -17.3872 C   0  0  0  0  0  0  0  0  0  0  0  0
   20.5003  -13.0210  -16.4580 C   0  0  1  0  0  0  0  0  0  0  0  0
   22.0068  -13.1254  -16.6005 C   0  0  0  0  0  0  0  0  0  0  0  0
   20.1249  -11.6000  -16.8200 C   0  0  2  0  0  0  0  0  0  0  0  0
   20.4553  -11.3685  -18.1975 N   0  0  0  0  0  0  0  0  0  0  0  0
   20.8415  -10.6172  -15.9744 C   0  0  0  0  0  0  0  0  0  0  0  0
   20.3888  -10.4649  -14.8152 O   0  0  0  0  0  0  0  0  0  0  0  0
   27.0148   -9.7943  -16.0989 N   0  0  0  0  0  0  0  0  0  0  0  0
   26.1315  -10.7797  -15.5888 C   0  0  0  0  0  0  0  0  0  0  0  0
   26.5979  -11.8832  -15.2389 O   0  0  0  0  0  0  0  0  0  0  0  0
   24.6533  -10.5504  -15.4469 C   0  0  0  0  0  0  0  0  0  0  0  0
   24.2669   -9.1690  -15.8978 C   0  0  0  0  0  0  0  0  0  0  0  0
   22.7767   -8.9765  -15.7058 C   0  0  2  0  0  0  0  0  0  0  0  0
   21.9569   -9.9062  -16.4512 N   0  0  0  0  0  0  0  0  0  0  0  0
   22.3104   -7.6065  -15.6797 C   0  0  0  0  0  0  0  0  0  0  0  0
   22.8846   -6.7482  -14.9197 O   0  0  0  0  0  0  0  0  0  0  0  0
   21.2337   -7.0765  -16.4392 N   0  0  0  0  0  0  0  0  0  0  0  0
   20.7516   -5.7163  -16.2626 C   0  0  1  0  0  0  0  0  0  0  0  0
   20.9071   -4.9700  -17.5614 C   0  0  0  0  0  0  0  0  0  0  0  0
   20.4417   -3.5837  -17.5156 C   0  0  0  0  0  0  0  0  0  0  0  0
   20.0711   -3.1497  -16.3772 O   0  0  0  0  0  0  0  0  0  0  0  0
   19.4052   -5.6400  -15.7205 C   0  0  0  0  0  0  0  0  0  0  0  0
   18.9990   -4.5601  -14.9721 O   0  0  0  0  0  0  0  0  0  0  0  0
   20.3609   -2.7042  -18.5588 O   0  0  0  0  0  0  0  0  0  0  0  0
   18.5940   -6.5616  -15.9292 O   0  0  0  0  0  0  0  0  0  0  0  0
  2  1  1  6
  2  3  1  0
  4  2  1  0
  4  6  1  0
  4  5  1  6
  6 14  1  0
  7  6  2  0
  9 11  1  0
  9  8  1  0
 10  9  2  0
 12 11  1  0
 13 12  1  6
 14 13  1  0
 15 13  1  0
 15 17  1  0
 16 15  2  0
 18 17  1  0
 18 19  1  6
 20 21  2  0
 20 19  1  0
 22 23  1  0
 22 18  1  0
 24 20  1  0
 25 22  2  0
M  END
$$$$
