VQD.pdb
     RDKit          3D

 25 24  0  0  1  0  0  0  0  0999 V2000
   23.4033  -11.1222  -14.2930 C   0  0  0  0  0  0  0  0  0  0  0  0
   23.3401  -10.1342  -15.4412 C   0  0  1  0  0  0  0  0  0  0  0  0
   22.8867  -10.7932  -16.7300 C   0  0  0  0  0  0  0  0  0  0  0  0
   22.3209   -9.0633  -15.1163 C   0  0  2  0  0  0  0  0  0  0  0  0
   21.0473   -9.6863  -14.8927 N   0  0  0  0  0  0  0  0  0  0  0  0
   22.1967   -8.0803  -16.2175 C   0  0  0  0  0  0  0  0  0  0  0  0
   23.1113   -7.2257  -16.2892 O   0  0  0  0  0  0  0  0  0  0  0  0
   18.9283  -11.1611  -20.1488 N   0  0  0  0  0  0  0  0  0  0  0  0
   19.0970   -9.7769  -20.4075 C   0  0  0  0  0  0  0  0  0  0  0  0
   19.0786   -9.3787  -21.5902 O   0  0  0  0  0  0  0  0  0  0  0  0
   19.2934   -8.7643  -19.3148 C   0  0  0  0  0  0  0  0  0  0  0  0
   20.5428   -7.9568  -19.5336 C   0  0  0  0  0  0  0  0  0  0  0  0
   20.9070   -7.2377  -18.2511 C   0  0  2  0  0  0  0  0  0  0  0  0
   21.1181   -8.1126  -17.1189 N   0  0  0  0  0  0  0  0  0  0  0  0
   20.1780   -6.0177  -17.9769 C   0  0  0  0  0  0  0  0  0  0  0  0
   20.0093   -5.1491  -18.9049 O   0  0  0  0  0  0  0  0  0  0  0  0
   19.5979   -5.6536  -16.7327 N   0  0  0  0  0  0  0  0  0  0  0  0
   18.9070   -4.3896  -16.5358 C   0  0  1  0  0  0  0  0  0  0  0  0
   17.7874   -4.5928  -15.5494 C   0  0  0  0  0  0  0  0  0  0  0  0
   16.6098   -5.2577  -16.1079 C   0  0  0  0  0  0  0  0  0  0  0  0
   16.6721   -5.5765  -17.3391 O   0  0  0  0  0  0  0  0  0  0  0  0
   19.7895   -3.2919  -16.1765 C   0  0  0  0  0  0  0  0  0  0  0  0
   21.1177   -3.5094  -15.8937 O   0  0  0  0  0  0  0  0  0  0  0  0
   15.4516   -5.5737  -15.4543 O   0  0  0  0  0  0  0  0  0  0  0  0
   19.3490   -2.1285  -16.1196 O   0  0  0  0  0  0  0  0  0  0  0  0
  2  1  1  1
  2  3  1  0
  4  2  1  0
  4  6  1  0
  4  5  1  6
  6 14  1  0
  7  6  2  0
  9 11  1  0
  9  8  1  0
 10  9  2  0
 12 11  1  0
 13 12  1  6
 14 13  1  0
 15 13  1  0
 15 17  1  0
 16 15  2  0
 18 17  1  0
 18 19  1  1
 20 21  2  0
 20 19  1  0
 22 23  1  0
 22 18  1  0
 24 20  1  0
 25 22  2  0
M  END
$$$$
