VQD.pdb
     RDKit          3D

 25 24  0  0  1  0  0  0  0  0999 V2000
   13.2767   -7.9053   -9.1865 C   0  0  0  0  0  0  0  0  0  0  0  0
   14.3028   -7.3340  -10.1453 C   0  0  1  0  0  0  0  0  0  0  0  0
   14.2181   -5.8219  -10.2290 C   0  0  0  0  0  0  0  0  0  0  0  0
   15.6903   -7.6663   -9.6399 C   0  0  2  0  0  0  0  0  0  0  0  0
   15.8715   -7.0646   -8.3494 N   0  0  0  0  0  0  0  0  0  0  0  0
   16.7374   -7.1684  -10.5618 C   0  0  0  0  0  0  0  0  0  0  0  0
   17.2261   -6.0497  -10.2764 O   0  0  0  0  0  0  0  0  0  0  0  0
   21.2675   -9.8354  -13.6880 N   0  0  0  0  0  0  0  0  0  0  0  0
   20.9713   -8.7360  -14.5336 C   0  0  0  0  0  0  0  0  0  0  0  0
   21.8487   -8.3298  -15.3228 O   0  0  0  0  0  0  0  0  0  0  0  0
   19.6402   -8.0390  -14.5235 C   0  0  0  0  0  0  0  0  0  0  0  0
   18.7304   -8.6096  -13.4710 C   0  0  0  0  0  0  0  0  0  0  0  0
   18.0526   -7.4781  -12.7260 C   0  0  2  0  0  0  0  0  0  0  0  0
   17.1494   -7.9110  -11.6825 N   0  0  0  0  0  0  0  0  0  0  0  0
   17.5949   -6.3683  -13.5346 C   0  0  0  0  0  0  0  0  0  0  0  0
   16.4456   -6.4184  -14.1007 O   0  0  0  0  0  0  0  0  0  0  0  0
   18.3104   -5.1674  -13.7857 N   0  0  0  0  0  0  0  0  0  0  0  0
   17.7918   -4.1176  -14.6476 C   0  0  1  0  0  0  0  0  0  0  0  0
   17.4563   -2.9149  -13.8056 C   0  0  0  0  0  0  0  0  0  0  0  0
   16.9709   -1.7652  -14.5692 C   0  0  0  0  0  0  0  0  0  0  0  0
   16.3642   -2.0258  -15.6580 O   0  0  0  0  0  0  0  0  0  0  0  0
   18.6597   -3.8020  -15.7699 C   0  0  0  0  0  0  0  0  0  0  0  0
   18.1970   -3.0843  -16.8480 O   0  0  0  0  0  0  0  0  0  0  0  0
   17.0968   -0.4438  -14.2430 O   0  0  0  0  0  0  0  0  0  0  0  0
   19.8457   -4.1816  -15.7692 O   0  0  0  0  0  0  0  0  0  0  0  0
  2  1  1  1
  2  3  1  0
  4  2  1  0
  4  6  1  0
  4  5  1  1
  6 14  1  0
  7  6  2  0
  9 11  1  0
  9  8  1  0
 10  9  2  0
 12 11  1  0
 13 12  1  6
 14 13  1  0
 15 13  1  0
 15 17  1  0
 16 15  2  0
 18 17  1  0
 18 19  1  1
 20 21  2  0
 20 19  1  0
 22 23  1  0
 22 18  1  0
 24 20  1  0
 25 22  2  0
M  END
$$$$
