VQD.pdb
     RDKit          3D

 25 24  0  0  1  0  0  0  0  0999 V2000
   18.7233  -12.3160  -19.4849 C   0  0  0  0  0  0  0  0  0  0  0  0
   18.5903  -11.0729  -18.6274 C   0  0  1  0  0  0  0  0  0  0  0  0
   17.1387  -10.7150  -18.3717 C   0  0  0  0  0  0  0  0  0  0  0  0
   19.2201  -11.3348  -17.2762 C   0  0  2  0  0  0  0  0  0  0  0  0
   18.6005  -12.4895  -16.6906 N   0  0  0  0  0  0  0  0  0  0  0  0
   19.0537  -10.1776  -16.3664 C   0  0  0  0  0  0  0  0  0  0  0  0
   18.0049  -10.1723  -15.6795 O   0  0  0  0  0  0  0  0  0  0  0  0
   23.4858   -5.5624  -14.8969 N   0  0  0  0  0  0  0  0  0  0  0  0
   22.2833   -5.2558  -14.2102 C   0  0  0  0  0  0  0  0  0  0  0  0
   22.2540   -4.2555  -13.4644 O   0  0  0  0  0  0  0  0  0  0  0  0
   21.0369   -6.0841  -14.3453 C   0  0  0  0  0  0  0  0  0  0  0  0
   21.2358   -7.2210  -15.3091 C   0  0  0  0  0  0  0  0  0  0  0  0
   19.9130   -7.9230  -15.5374 C   0  0  2  0  0  0  0  0  0  0  0  0
   20.0165   -9.1560  -16.2864 N   0  0  0  0  0  0  0  0  0  0  0  0
   18.7918   -7.0726  -15.8761 C   0  0  0  0  0  0  0  0  0  0  0  0
   18.5782   -6.7496  -17.0984 O   0  0  0  0  0  0  0  0  0  0  0  0
   17.8520   -6.5266  -14.9619 N   0  0  0  0  0  0  0  0  0  0  0  0
   16.7698   -5.6533  -15.3861 C   0  0  1  0  0  0  0  0  0  0  0  0
   15.4876   -6.4427  -15.4160 C   0  0  0  0  0  0  0  0  0  0  0  0
   14.3130   -5.6634  -15.8080 C   0  0  0  0  0  0  0  0  0  0  0  0
   14.5368   -4.4986  -16.2712 O   0  0  0  0  0  0  0  0  0  0  0  0
   16.6670   -4.4306  -14.6070 C   0  0  0  0  0  0  0  0  0  0  0  0
   16.5078   -3.2085  -15.2174 O   0  0  0  0  0  0  0  0  0  0  0  0
   13.0034   -6.0475  -15.7316 O   0  0  0  0  0  0  0  0  0  0  0  0
   16.7223   -4.4750  -13.3637 O   0  0  0  0  0  0  0  0  0  0  0  0
  2  1  1  6
  2  3  1  0
  4  2  1  0
  4  6  1  0
  4  5  1  1
  6 14  1  0
  7  6  2  0
  9 11  1  0
  9  8  1  0
 10  9  2  0
 12 11  1  0
 13 12  1  6
 14 13  1  0
 15 13  1  0
 15 17  1  0
 16 15  2  0
 18 17  1  0
 18 19  1  1
 20 21  2  0
 20 19  1  0
 22 23  1  0
 22 18  1  0
 24 20  1  0
 25 22  2  0
M  END
$$$$
