VQD.pdb
     RDKit          3D

 25 24  0  0  1  0  0  0  0  0999 V2000
   14.7555  -13.8596  -17.0606 C   0  0  0  0  0  0  0  0  0  0  0  0
   15.2943  -12.5297  -16.5713 C   0  0  1  0  0  0  0  0  0  0  0  0
   14.1961  -11.6466  -16.0101 C   0  0  0  0  0  0  0  0  0  0  0  0
   16.2739  -12.7777  -15.4443 C   0  0  2  0  0  0  0  0  0  0  0  0
   15.6323  -13.5750  -14.4379 N   0  0  0  0  0  0  0  0  0  0  0  0
   16.7374  -11.5077  -14.8388 C   0  0  0  0  0  0  0  0  0  0  0  0
   16.0734  -11.0993  -13.8568 O   0  0  0  0  0  0  0  0  0  0  0  0
   22.7308   -9.1057  -15.2393 N   0  0  0  0  0  0  0  0  0  0  0  0
   21.9639   -8.1617  -14.5099 C   0  0  0  0  0  0  0  0  0  0  0  0
   22.5386   -7.1666  -14.0226 O   0  0  0  0  0  0  0  0  0  0  0  0
   20.4829   -8.3058  -14.3010 C   0  0  0  0  0  0  0  0  0  0  0  0
   19.9716   -9.5986  -14.8739 C   0  0  0  0  0  0  0  0  0  0  0  0
   18.4600   -9.6267  -14.7797 C   0  0  2  0  0  0  0  0  0  0  0  0
   17.8517  -10.8128  -15.3411 N   0  0  0  0  0  0  0  0  0  0  0  0
   17.7820   -8.3788  -15.0593 C   0  0  0  0  0  0  0  0  0  0  0  0
   17.5777   -8.0178  -16.2725 O   0  0  0  0  0  0  0  0  0  0  0  0
   17.2915   -7.4606  -14.0932 N   0  0  0  0  0  0  0  0  0  0  0  0
   16.6014   -6.2355  -14.4631 C   0  0  1  0  0  0  0  0  0  0  0  0
   15.4293   -6.0363  -13.5388 C   0  0  0  0  0  0  0  0  0  0  0  0
   14.6943   -4.7912  -13.7625 C   0  0  0  0  0  0  0  0  0  0  0  0
   14.7754   -4.2895  -14.9301 O   0  0  0  0  0  0  0  0  0  0  0  0
   17.4723   -5.0741  -14.5356 C   0  0  0  0  0  0  0  0  0  0  0  0
   17.0433   -3.8966  -15.1020 O   0  0  0  0  0  0  0  0  0  0  0  0
   13.9312   -4.1080  -12.8574 O   0  0  0  0  0  0  0  0  0  0  0  0
   18.6302   -5.1316  -14.0810 O   0  0  0  0  0  0  0  0  0  0  0  0
  2  1  1  1
  2  3  1  0
  4  2  1  0
  4  6  1  0
  4  5  1  1
  6 14  1  0
  7  6  2  0
  9 11  1  0
  9  8  1  0
 10  9  2  0
 12 11  1  0
 13 12  1  6
 14 13  1  0
 15 13  1  0
 15 17  1  0
 16 15  2  0
 18 17  1  0
 18 19  1  1
 20 21  2  0
 20 19  1  0
 22 23  1  0
 22 18  1  0
 24 20  1  0
 25 22  2  0
M  END
$$$$
