VQD.pdb
     RDKit          3D

 25 24  0  0  1  0  0  0  0  0999 V2000
   16.8748  -10.2163  -16.2682 C   0  0  0  0  0  0  0  0  0  0  0  0
   17.1836  -11.5949  -15.7181 C   0  0  1  0  0  0  0  0  0  0  0  0
   16.0400  -12.5645  -15.9478 C   0  0  0  0  0  0  0  0  0  0  0  0
   18.3865  -12.1586  -16.4437 C   0  0  2  0  0  0  0  0  0  0  0  0
   18.7416  -13.4153  -15.8482 N   0  0  0  0  0  0  0  0  0  0  0  0
   19.5452  -11.2387  -16.3696 C   0  0  0  0  0  0  0  0  0  0  0  0
   20.1094  -11.1636  -15.2525 O   0  0  0  0  0  0  0  0  0  0  0  0
   23.2699   -9.1976  -21.2578 N   0  0  0  0  0  0  0  0  0  0  0  0
   23.7110   -8.5270  -20.0885 C   0  0  0  0  0  0  0  0  0  0  0  0
   24.7399   -7.8232  -20.1499 O   0  0  0  0  0  0  0  0  0  0  0  0
   22.9882   -8.6241  -18.7748 C   0  0  0  0  0  0  0  0  0  0  0  0
   21.7482   -9.4666  -18.8921 C   0  0  0  0  0  0  0  0  0  0  0  0
   21.0794   -9.5673  -17.5367 C   0  0  2  0  0  0  0  0  0  0  0  0
   19.9762  -10.5015  -17.4867 N   0  0  0  0  0  0  0  0  0  0  0  0
   20.8801   -8.3192  -16.8314 C   0  0  0  0  0  0  0  0  0  0  0  0
   19.8056   -7.6438  -17.0142 O   0  0  0  0  0  0  0  0  0  0  0  0
   21.7856   -7.7261  -15.9120 N   0  0  0  0  0  0  0  0  0  0  0  0
   21.4505   -6.5363  -15.1466 C   0  0  1  0  0  0  0  0  0  0  0  0
   22.3042   -6.4961  -13.9066 C   0  0  0  0  0  0  0  0  0  0  0  0
   22.0649   -5.3331  -13.0516 C   0  0  0  0  0  0  0  0  0  0  0  0
   20.9550   -5.3095  -12.4279 O   0  0  0  0  0  0  0  0  0  0  0  0
   21.5133   -5.3075  -15.9204 C   0  0  0  0  0  0  0  0  0  0  0  0
   20.6251   -4.2809  -15.7000 O   0  0  0  0  0  0  0  0  0  0  0  0
   22.9005   -4.2705  -12.8490 O   0  0  0  0  0  0  0  0  0  0  0  0
   22.3815   -5.1677  -16.8022 O   0  0  0  0  0  0  0  0  0  0  0  0
  2  1  1  6
  2  3  1  0
  4  2  1  0
  4  6  1  0
  4  5  1  1
  6 14  1  0
  7  6  2  0
  9 11  1  0
  9  8  1  0
 10  9  2  0
 12 11  1  0
 13 12  1  6
 14 13  1  0
 15 13  1  0
 15 17  1  0
 16 15  2  0
 18 17  1  0
 18 19  1  1
 20 21  2  0
 20 19  1  0
 22 23  1  0
 22 18  1  0
 24 20  1  0
 25 22  2  0
M  END
$$$$
