VQD.pdb
     RDKit          3D

 25 24  0  0  1  0  0  0  0  0999 V2000
   13.2477  -10.2473  -14.7754 C   0  0  0  0  0  0  0  0  0  0  0  0
   13.1526  -11.6607  -14.2355 C   0  0  1  0  0  0  0  0  0  0  0  0
   11.8813  -12.3541  -14.6871 C   0  0  0  0  0  0  0  0  0  0  0  0
   14.3092  -12.4748  -14.7747 C   0  0  2  0  0  0  0  0  0  0  0  0
   14.2961  -13.7688  -14.1539 N   0  0  0  0  0  0  0  0  0  0  0  0
   15.6085  -11.8168  -14.5043 C   0  0  0  0  0  0  0  0  0  0  0  0
   15.9954  -11.8466  -13.3121 O   0  0  0  0  0  0  0  0  0  0  0  0
   21.1750  -12.2520  -16.9093 N   0  0  0  0  0  0  0  0  0  0  0  0
   20.1600  -11.8006  -17.7910 C   0  0  0  0  0  0  0  0  0  0  0  0
   20.3472  -11.8912  -19.0216 O   0  0  0  0  0  0  0  0  0  0  0  0
   18.8620  -11.2194  -17.3059 C   0  0  0  0  0  0  0  0  0  0  0  0
   18.8231  -11.1415  -15.8048 C   0  0  0  0  0  0  0  0  0  0  0  0
   17.5617  -10.4233  -15.3717 C   0  0  2  0  0  0  0  0  0  0  0  0
   16.3522  -11.2013  -15.5266 N   0  0  0  0  0  0  0  0  0  0  0  0
   17.4647   -9.0278  -15.7436 C   0  0  0  0  0  0  0  0  0  0  0  0
   16.5868   -8.6517  -16.5991 O   0  0  0  0  0  0  0  0  0  0  0  0
   18.2727   -7.9725  -15.2432 N   0  0  0  0  0  0  0  0  0  0  0  0
   18.1401   -6.6018  -15.7097 C   0  0  1  0  0  0  0  0  0  0  0  0
   18.4394   -5.6659  -14.5684 C   0  0  0  0  0  0  0  0  0  0  0  0
   18.3320   -4.2478  -14.9123 C   0  0  0  0  0  0  0  0  0  0  0  0
   17.3207   -3.9105  -15.6086 O   0  0  0  0  0  0  0  0  0  0  0  0
   18.9200   -6.3129  -16.9017 C   0  0  0  0  0  0  0  0  0  0  0  0
   18.4395   -5.4761  -17.8816 O   0  0  0  0  0  0  0  0  0  0  0  0
   19.1969   -3.2465  -14.5691 O   0  0  0  0  0  0  0  0  0  0  0  0
   20.0451   -6.8252  -17.0520 O   0  0  0  0  0  0  0  0  0  0  0  0
  2  1  1  6
  2  3  1  0
  4  2  1  0
  4  6  1  0
  4  5  1  1
  6 14  1  0
  7  6  2  0
  9 11  1  0
  9  8  1  0
 10  9  2  0
 12 11  1  0
 13 12  1  6
 14 13  1  0
 15 13  1  0
 15 17  1  0
 16 15  2  0
 18 17  1  0
 18 19  1  1
 20 21  2  0
 20 19  1  0
 22 23  1  0
 22 18  1  0
 24 20  1  0
 25 22  2  0
M  END
$$$$
