PTF.pdb
     RDKit          3D

 26 27  0  0  1  0  0  0  0  0999 V2000
   33.5115  -15.0331  -24.1938 N   0  0  0  0  0  0  0  0  0  0  0  0
   33.1935  -16.2730  -24.8998 C   0  0  0  0  0  0  0  0  0  0  0  0
   31.7117  -16.4441  -24.7883 C   0  0  0  0  0  0  0  0  0  0  0  0
   31.2132  -15.1278  -24.2108 C   0  0  0  0  0  0  0  0  0  0  0  0
   32.3748  -14.2032  -24.5128 C   0  0  1  0  0  0  0  0  0  0  0  0
   32.3212  -12.9672  -23.7186 C   0  0  0  0  0  0  0  0  0  0  0  0
   33.3426  -12.5785  -23.1313 O   0  0  0  0  0  0  0  0  0  0  0  0
   31.8283   -9.5365  -24.8366 C   0  0  0  0  0  0  0  0  0  0  0  0
   30.7022   -9.8486  -23.8764 C   0  0  1  0  0  0  0  0  0  0  0  0
   29.5120  -10.1415  -24.5310 O   0  0  0  0  0  0  0  0  0  0  0  0
   31.1061  -10.9219  -22.8899 C   0  0  2  0  0  0  0  0  0  0  0  0
   31.1339  -12.1885  -23.5931 N   0  0  0  0  0  0  0  0  0  0  0  0
   30.1329  -11.0435  -21.7781 C   0  0  0  0  0  0  0  0  0  0  0  0
   29.2447  -11.9553  -21.7915 O   0  0  0  0  0  0  0  0  0  0  0  0
   30.1298  -10.1726  -20.6561 N   0  0  0  0  0  0  0  0  0  0  0  0
   29.1857  -10.3760  -19.6034 C   0  0  1  0  0  0  0  0  0  0  0  0
   29.6521   -9.8389  -18.2739 C   0  0  0  0  0  0  0  0  0  0  0  0
   28.6634   -9.9485  -17.2087 C   0  0  0  0  0  0  0  0  0  0  0  0
   28.6979  -11.0045  -16.3234 C   0  0  0  0  0  0  0  0  0  0  0  0
   27.7474  -11.1094  -15.2998 C   0  0  0  0  0  0  0  0  0  0  0  0
   26.7587  -10.1680  -15.1493 C   0  0  0  0  0  0  0  0  0  0  0  0
   26.7231   -9.1159  -16.0302 C   0  0  0  0  0  0  0  0  0  0  0  0
   27.6628   -9.0211  -17.0343 C   0  0  0  0  0  0  0  0  0  0  0  0
   27.8786   -9.7944  -20.0101 C   0  0  0  0  0  0  0  0  0  0  0  0
   26.8020  -10.3656  -19.7440 O   0  0  0  0  0  0  0  0  0  0  0  0
   27.8195   -8.5911  -20.7022 O   0  0  0  0  0  0  0  0  0  0  0  0
  1  2  1  0
  1  5  1  0
  2  3  1  0
  3  4  1  0
  5  4  1  0
  5  6  1  1
  6  7  2  0
  9  8  1  6
 10  9  1  0
 11  9  1  0
 12  6  1  0
 11 12  1  6
 13 11  1  0
 13 14  2  0
 15 13  1  0
 16 15  1  0
 16 17  1  1
 18 23  1  0
 18 17  1  0
 19 18  2  0
 20 21  2  0
 20 19  1  0
 21 22  1  0
 22 23  2  0
 24 26  1  0
 24 16  1  0
 25 24  2  0
M  END
$$$$
