PTF.pdb
     RDKit          3D

 26 27  0  0  1  0  0  0  0  0999 V2000
   22.5182  -21.3017  -13.7428 N   0  0  0  0  0  0  0  0  0  0  0  0
   21.4985  -20.8164  -14.6710 C   0  0  0  0  0  0  0  0  0  0  0  0
   22.2398  -20.2303  -15.8304 C   0  0  0  0  0  0  0  0  0  0  0  0
   23.6886  -20.6382  -15.6087 C   0  0  0  0  0  0  0  0  0  0  0  0
   23.5352  -21.7937  -14.6408 C   0  0  1  0  0  0  0  0  0  0  0  0
   24.7973  -22.1195  -13.9610 C   0  0  0  0  0  0  0  0  0  0  0  0
   25.6605  -22.7745  -14.5653 O   0  0  0  0  0  0  0  0  0  0  0  0
   28.1935  -19.6599  -12.3994 C   0  0  0  0  0  0  0  0  0  0  0  0
   26.9210  -20.2277  -12.9875 C   0  0  1  0  0  0  0  0  0  0  0  0
   27.0498  -20.5334  -14.3368 O   0  0  0  0  0  0  0  0  0  0  0  0
   26.4137  -21.3949  -12.1697 C   0  0  2  0  0  0  0  0  0  0  0  0
   25.0745  -21.7110  -12.6239 N   0  0  0  0  0  0  0  0  0  0  0  0
   26.3353  -21.0645  -10.7266 C   0  0  0  0  0  0  0  0  0  0  0  0
   25.2763  -20.5576  -10.2347 O   0  0  0  0  0  0  0  0  0  0  0  0
   27.4094  -21.2870   -9.8242 N   0  0  0  0  0  0  0  0  0  0  0  0
   27.2227  -21.0505   -8.4278 C   0  0  1  0  0  0  0  0  0  0  0  0
   28.5145  -21.0266   -7.6504 C   0  0  0  0  0  0  0  0  0  0  0  0
   28.3891  -20.4776   -6.3061 C   0  0  0  0  0  0  0  0  0  0  0  0
   28.7455  -19.1722   -6.0437 C   0  0  0  0  0  0  0  0  0  0  0  0
   28.6248  -18.6451   -4.7515 C   0  0  0  0  0  0  0  0  0  0  0  0
   28.1502  -19.4097   -3.7139 C   0  0  0  0  0  0  0  0  0  0  0  0
   27.7949  -20.7098   -3.9737 C   0  0  0  0  0  0  0  0  0  0  0  0
   27.9172  -21.2198   -5.2486 C   0  0  0  0  0  0  0  0  0  0  0  0
   26.4450  -19.7949   -8.2521 C   0  0  0  0  0  0  0  0  0  0  0  0
   26.7134  -18.7671   -8.9063 O   0  0  0  0  0  0  0  0  0  0  0  0
   25.3913  -19.7308   -7.3487 O   0  0  0  0  0  0  0  0  0  0  0  0
  1  2  1  0
  1  5  1  0
  2  3  1  0
  3  4  1  0
  5  4  1  0
  5  6  1  1
  6  7  2  0
  9  8  1  1
 10  9  1  0
 11  9  1  0
 12  6  1  0
 11 12  1  6
 13 11  1  0
 13 14  2  0
 15 13  1  0
 16 15  1  0
 16 17  1  1
 18 23  1  0
 18 17  1  0
 19 18  2  0
 20 21  2  0
 20 19  1  0
 21 22  1  0
 22 23  2  0
 24 26  1  0
 24 16  1  0
 25 24  2  0
M  END
$$$$
