PTF.pdb
     RDKit          3D

 26 27  0  0  1  0  0  0  0  0999 V2000
   20.2461  -13.6066  -17.9974 N   0  0  0  0  0  0  0  0  0  0  0  0
   20.3797  -15.0175  -18.3559 C   0  0  0  0  0  0  0  0  0  0  0  0
   20.8083  -15.0416  -19.7887 C   0  0  0  0  0  0  0  0  0  0  0  0
   21.1393  -13.5934  -20.1173 C   0  0  0  0  0  0  0  0  0  0  0  0
   21.3299  -13.0032  -18.7349 C   0  0  1  0  0  0  0  0  0  0  0  0
   21.2733  -11.5342  -18.7461 C   0  0  0  0  0  0  0  0  0  0  0  0
   22.1871  -10.8959  -19.2909 O   0  0  0  0  0  0  0  0  0  0  0  0
   18.5671   -7.4578  -18.4596 C   0  0  0  0  0  0  0  0  0  0  0  0
   18.8176   -8.9291  -18.7049 C   0  0  1  0  0  0  0  0  0  0  0  0
   18.6545   -9.2803  -20.0394 O   0  0  0  0  0  0  0  0  0  0  0  0
   20.1575   -9.3563  -18.1477 C   0  0  2  0  0  0  0  0  0  0  0  0
   20.2027  -10.8046  -18.1518 N   0  0  0  0  0  0  0  0  0  0  0  0
   20.3431   -8.9024  -16.7486 C   0  0  0  0  0  0  0  0  0  0  0  0
   19.8153   -9.5438  -15.7840 O   0  0  0  0  0  0  0  0  0  0  0  0
   21.1022   -7.7523  -16.4044 N   0  0  0  0  0  0  0  0  0  0  0  0
   21.2358   -7.3753  -15.0329 C   0  0  1  0  0  0  0  0  0  0  0  0
   22.6325   -7.5645  -14.4971 C   0  0  0  0  0  0  0  0  0  0  0  0
   23.6527   -6.8152  -15.2196 C   0  0  0  0  0  0  0  0  0  0  0  0
   24.4206   -7.4265  -16.1874 C   0  0  0  0  0  0  0  0  0  0  0  0
   25.4010   -6.7059  -16.8815 C   0  0  0  0  0  0  0  0  0  0  0  0
   25.6244   -5.3763  -16.6192 C   0  0  0  0  0  0  0  0  0  0  0  0
   24.8605   -4.7663  -15.6556 C   0  0  0  0  0  0  0  0  0  0  0  0
   23.8980   -5.4836  -14.9778 C   0  0  0  0  0  0  0  0  0  0  0  0
   20.7633   -5.9744  -14.8707 C   0  0  0  0  0  0  0  0  0  0  0  0
   20.6363   -5.2135  -15.8511 O   0  0  0  0  0  0  0  0  0  0  0  0
   20.4481   -5.4704  -13.6148 O   0  0  0  0  0  0  0  0  0  0  0  0
  1  2  1  0
  1  5  1  0
  2  3  1  0
  3  4  1  0
  5  4  1  0
  5  6  1  6
  6  7  2  0
  9  8  1  6
 10  9  1  0
 11  9  1  0
 12  6  1  0
 11 12  1  1
 13 11  1  0
 13 14  2  0
 15 13  1  0
 16 15  1  0
 16 17  1  6
 18 23  1  0
 18 17  1  0
 19 18  2  0
 20 21  2  0
 20 19  1  0
 21 22  1  0
 22 23  2  0
 24 26  1  0
 24 16  1  0
 25 24  2  0
M  END
$$$$
