PTF.pdb
     RDKit          3D

 26 27  0  0  1  0  0  0  0  0999 V2000
   27.8175  -20.3796  -16.6070 N   0  0  0  0  0  0  0  0  0  0  0  0
   28.3191  -21.4178  -17.5055 C   0  0  0  0  0  0  0  0  0  0  0  0
   28.8708  -22.4947  -16.6263 C   0  0  0  0  0  0  0  0  0  0  0  0
   28.4266  -22.1126  -15.2223 C   0  0  0  0  0  0  0  0  0  0  0  0
   27.2874  -21.1568  -15.5126 C   0  0  1  0  0  0  0  0  0  0  0  0
   26.9358  -20.3405  -14.3416 C   0  0  0  0  0  0  0  0  0  0  0  0
   26.8298  -19.1110  -14.4688 O   0  0  0  0  0  0  0  0  0  0  0  0
   24.8657  -18.6941  -13.4664 C   0  0  0  0  0  0  0  0  0  0  0  0
   24.8342  -19.6312  -12.2797 C   0  0  1  0  0  0  0  0  0  0  0  0
   23.9220  -20.6664  -12.4446 O   0  0  0  0  0  0  0  0  0  0  0  0
   26.2221  -20.1247  -11.9353 C   0  0  2  0  0  0  0  0  0  0  0  0
   26.7092  -20.9070  -13.0534 N   0  0  0  0  0  0  0  0  0  0  0  0
   26.2149  -21.0011  -10.7395 C   0  0  0  0  0  0  0  0  0  0  0  0
   25.9265  -22.2365  -10.8436 O   0  0  0  0  0  0  0  0  0  0  0  0
   26.5214  -20.5299   -9.4351 N   0  0  0  0  0  0  0  0  0  0  0  0
   26.5065  -21.4373   -8.3319 C   0  0  1  0  0  0  0  0  0  0  0  0
   27.8235  -21.5072   -7.6010 C   0  0  0  0  0  0  0  0  0  0  0  0
   28.0253  -20.4338   -6.6359 C   0  0  0  0  0  0  0  0  0  0  0  0
   28.4340  -20.7128   -5.3494 C   0  0  0  0  0  0  0  0  0  0  0  0
   28.6279  -19.6808   -4.4222 C   0  0  0  0  0  0  0  0  0  0  0  0
   28.4174  -18.3680   -4.7663 C   0  0  0  0  0  0  0  0  0  0  0  0
   28.0103  -18.0886   -6.0471 C   0  0  0  0  0  0  0  0  0  0  0  0
   27.8222  -19.1109   -6.9526 C   0  0  0  0  0  0  0  0  0  0  0  0
   25.3859  -21.0729   -7.4242 C   0  0  0  0  0  0  0  0  0  0  0  0
   24.6497  -20.0940   -7.6610 O   0  0  0  0  0  0  0  0  0  0  0  0
   25.1259  -21.8170   -6.2801 O   0  0  0  0  0  0  0  0  0  0  0  0
  1  2  1  0
  1  5  1  0
  2  3  1  0
  3  4  1  0
  5  4  1  0
  5  6  1  1
  6  7  2  0
  9  8  1  6
 10  9  1  0
 11  9  1  0
 12  6  1  0
 11 12  1  6
 13 11  1  0
 13 14  2  0
 15 13  1  0
 16 15  1  0
 16 17  1  1
 18 23  1  0
 18 17  1  0
 19 18  2  0
 20 21  2  0
 20 19  1  0
 21 22  1  0
 22 23  2  0
 24 26  1  0
 24 16  1  0
 25 24  2  0
M  END
$$$$
