PTF.pdb
     RDKit          3D

 26 27  0  0  1  0  0  0  0  0999 V2000
   21.2449  -12.4293  -19.3384 N   0  0  0  0  0  0  0  0  0  0  0  0
   20.6757  -13.3491  -20.3216 C   0  0  0  0  0  0  0  0  0  0  0  0
   19.9789  -14.4146  -19.5364 C   0  0  0  0  0  0  0  0  0  0  0  0
   19.9824  -13.9033  -18.1035 C   0  0  0  0  0  0  0  0  0  0  0  0
   20.2338  -12.4234  -18.3087 C   0  0  1  0  0  0  0  0  0  0  0  0
   20.6719  -11.7584  -17.0730 C   0  0  0  0  0  0  0  0  0  0  0  0
   19.8974  -11.7049  -16.1053 O   0  0  0  0  0  0  0  0  0  0  0  0
   23.8303  -12.4464  -15.0192 C   0  0  0  0  0  0  0  0  0  0  0  0
   23.8068  -10.9881  -15.4195 C   0  0  1  0  0  0  0  0  0  0  0  0
   24.6916  -10.7069  -16.4534 O   0  0  0  0  0  0  0  0  0  0  0  0
   22.3974  -10.5243  -15.7141 C   0  0  2  0  0  0  0  0  0  0  0  0
   21.9615  -11.1664  -16.9378 N   0  0  0  0  0  0  0  0  0  0  0  0
   22.3318   -9.0583  -15.9249 C   0  0  0  0  0  0  0  0  0  0  0  0
   22.3932   -8.5692  -17.0985 O   0  0  0  0  0  0  0  0  0  0  0  0
   22.1999   -8.1301  -14.8580 N   0  0  0  0  0  0  0  0  0  0  0  0
   22.1573   -6.7298  -15.1377 C   0  0  1  0  0  0  0  0  0  0  0  0
   21.0314   -6.3417  -16.0625 C   0  0  0  0  0  0  0  0  0  0  0  0
   20.9275   -4.9080  -16.3034 C   0  0  0  0  0  0  0  0  0  0  0  0
   19.9060   -4.1729  -15.7415 C   0  0  0  0  0  0  0  0  0  0  0  0
   19.8066   -2.7950  -15.9734 C   0  0  0  0  0  0  0  0  0  0  0  0
   20.7195   -2.1400  -16.7633 C   0  0  0  0  0  0  0  0  0  0  0  0
   21.7374   -2.8708  -17.3236 C   0  0  0  0  0  0  0  0  0  0  0  0
   21.8270   -4.2264  -17.0897 C   0  0  0  0  0  0  0  0  0  0  0  0
   22.1027   -5.9837  -13.8521 C   0  0  0  0  0  0  0  0  0  0  0  0
   21.6069   -6.4918  -12.8262 O   0  0  0  0  0  0  0  0  0  0  0  0
   22.6054   -4.6919  -13.7569 O   0  0  0  0  0  0  0  0  0  0  0  0
  1  2  1  0
  1  5  1  0
  2  3  1  0
  3  4  1  0
  5  4  1  0
  5  6  1  1
  6  7  2  0
  9  8  1  6
 10  9  1  0
 11  9  1  0
 12  6  1  0
 11 12  1  6
 13 11  1  0
 13 14  2  0
 15 13  1  0
 16 15  1  0
 16 17  1  6
 18 23  1  0
 18 17  1  0
 19 18  2  0
 20 21  2  0
 20 19  1  0
 21 22  1  0
 22 23  2  0
 24 26  1  0
 24 16  1  0
 25 24  2  0
M  END
$$$$
