PTF.pdb
     RDKit          3D

 26 27  0  0  1  0  0  0  0  0999 V2000
   19.2632  -13.5951  -18.0839 N   0  0  0  0  0  0  0  0  0  0  0  0
   18.8935  -14.9030  -18.6218 C   0  0  0  0  0  0  0  0  0  0  0  0
   18.9917  -14.7814  -20.1094 C   0  0  0  0  0  0  0  0  0  0  0  0
   19.6646  -13.4370  -20.3434 C   0  0  0  0  0  0  0  0  0  0  0  0
   20.3020  -13.1762  -18.9939 C   0  0  1  0  0  0  0  0  0  0  0  0
   20.6849  -11.7671  -18.8241 C   0  0  0  0  0  0  0  0  0  0  0  0
   21.7546  -11.3664  -19.3082 O   0  0  0  0  0  0  0  0  0  0  0  0
   19.1910   -8.6664  -20.1331 C   0  0  0  0  0  0  0  0  0  0  0  0
   19.1214   -8.6126  -18.6232 C   0  0  1  0  0  0  0  0  0  0  0  0
   17.8629   -8.9460  -18.1374 O   0  0  0  0  0  0  0  0  0  0  0  0
   20.2264   -9.4327  -17.9951 C   0  0  2  0  0  0  0  0  0  0  0  0
   19.8715  -10.8320  -18.1199 N   0  0  0  0  0  0  0  0  0  0  0  0
   20.3831   -9.1333  -16.5516 C   0  0  0  0  0  0  0  0  0  0  0  0
   19.9203   -9.9277  -15.6712 O   0  0  0  0  0  0  0  0  0  0  0  0
   21.0428   -7.9707  -16.0715 N   0  0  0  0  0  0  0  0  0  0  0  0
   21.1216   -7.7297  -14.6656 C   0  0  1  0  0  0  0  0  0  0  0  0
   22.5158   -7.3999  -14.1955 C   0  0  0  0  0  0  0  0  0  0  0  0
   23.0738   -6.1925  -14.7914 C   0  0  0  0  0  0  0  0  0  0  0  0
   23.9042   -6.2693  -15.8888 C   0  0  0  0  0  0  0  0  0  0  0  0
   24.4403   -5.1085  -16.4612 C   0  0  0  0  0  0  0  0  0  0  0  0
   24.1554   -3.8668  -15.9481 C   0  0  0  0  0  0  0  0  0  0  0  0
   23.3285   -3.7888  -14.8553 C   0  0  0  0  0  0  0  0  0  0  0  0
   22.8057   -4.9366  -14.2989 C   0  0  0  0  0  0  0  0  0  0  0  0
   20.1470   -6.6658  -14.3044 C   0  0  0  0  0  0  0  0  0  0  0  0
   19.6321   -5.9337  -15.1733 O   0  0  0  0  0  0  0  0  0  0  0  0
   19.7804   -6.4560  -12.9807 O   0  0  0  0  0  0  0  0  0  0  0  0
  1  2  1  0
  1  5  1  0
  2  3  1  0
  3  4  1  0
  5  4  1  0
  5  6  1  6
  6  7  2  0
  9  8  1  6
 10  9  1  0
 11  9  1  0
 12  6  1  0
 11 12  1  1
 13 11  1  0
 13 14  2  0
 15 13  1  0
 16 15  1  0
 16 17  1  6
 18 23  1  0
 18 17  1  0
 19 18  2  0
 20 21  2  0
 20 19  1  0
 21 22  1  0
 22 23  2  0
 24 26  1  0
 24 16  1  0
 25 24  2  0
M  END
$$$$
