PTF.pdb
     RDKit          3D

 26 27  0  0  1  0  0  0  0  0999 V2000
   39.7765  -28.9017    2.3815 N   0  0  0  0  0  0  0  0  0  0  0  0
   40.7721  -28.7828    1.3178 C   0  0  0  0  0  0  0  0  0  0  0  0
   40.3902  -27.5719    0.5272 C   0  0  0  0  0  0  0  0  0  0  0  0
   39.2986  -26.9025    1.3489 C   0  0  0  0  0  0  0  0  0  0  0  0
   39.5224  -27.5206    2.7139 C   0  0  1  0  0  0  0  0  0  0  0  0
   38.3628  -27.3438    3.6000 C   0  0  0  0  0  0  0  0  0  0  0  0
   37.3852  -28.0979    3.4779 O   0  0  0  0  0  0  0  0  0  0  0  0
   38.2259  -27.8586    7.1463 C   0  0  0  0  0  0  0  0  0  0  0  0
   37.7794  -26.4286    6.9378 C   0  0  1  0  0  0  0  0  0  0  0  0
   38.7736  -25.5106    7.2532 O   0  0  0  0  0  0  0  0  0  0  0  0
   37.2184  -26.2279    5.5473 C   0  0  2  0  0  0  0  0  0  0  0  0
   38.3130  -26.3328    4.6036 N   0  0  0  0  0  0  0  0  0  0  0  0
   36.6102  -24.8855    5.3865 C   0  0  0  0  0  0  0  0  0  0  0  0
   37.2988  -23.9112    4.9426 O   0  0  0  0  0  0  0  0  0  0  0  0
   35.2551  -24.6082    5.7092 N   0  0  0  0  0  0  0  0  0  0  0  0
   34.7759  -23.2632    5.6621 C   0  0  1  0  0  0  0  0  0  0  0  0
   33.4846  -23.1180    4.8973 C   0  0  0  0  0  0  0  0  0  0  0  0
   32.9636  -21.7572    4.8636 C   0  0  0  0  0  0  0  0  0  0  0  0
   32.0589  -21.3271    5.8104 C   0  0  0  0  0  0  0  0  0  0  0  0
   31.5585  -20.0191    5.7775 C   0  0  0  0  0  0  0  0  0  0  0  0
   31.9528  -19.1320    4.8060 C   0  0  0  0  0  0  0  0  0  0  0  0
   32.8537  -19.5589    3.8624 C   0  0  0  0  0  0  0  0  0  0  0  0
   33.3406  -20.8479    3.9029 C   0  0  0  0  0  0  0  0  0  0  0  0
   34.6603  -22.7446    7.0513 C   0  0  0  0  0  0  0  0  0  0  0  0
   34.3184  -23.4851    7.9953 O   0  0  0  0  0  0  0  0  0  0  0  0
   34.9316  -21.4126    7.3387 O   0  0  0  0  0  0  0  0  0  0  0  0
  1  2  1  0
  1  5  1  0
  2  3  1  0
  3  4  1  0
  5  4  1  0
  5  6  1  1
  6  7  2  0
  9  8  1  6
 10  9  1  0
 11  9  1  0
 12  6  1  0
 11 12  1  6
 13 11  1  0
 13 14  2  0
 15 13  1  0
 16 15  1  0
 16 17  1  1
 18 23  1  0
 18 17  1  0
 19 18  2  0
 20 21  2  0
 20 19  1  0
 21 22  1  0
 22 23  2  0
 24 26  1  0
 24 16  1  0
 25 24  2  0
M  END
$$$$
