PTF.pdb
     RDKit          3D

 26 27  0  0  1  0  0  0  0  0999 V2000
   25.7052  -22.0254  -15.4112 N   0  0  0  0  0  0  0  0  0  0  0  0
   25.6923  -22.2670  -16.8528 C   0  0  0  0  0  0  0  0  0  0  0  0
   25.4296  -20.9405  -17.4922 C   0  0  0  0  0  0  0  0  0  0  0  0
   25.5468  -19.9344  -16.3569 C   0  0  0  0  0  0  0  0  0  0  0  0
   26.3275  -20.7260  -15.3277 C   0  0  1  0  0  0  0  0  0  0  0  0
   26.2415  -20.1295  -13.9868 C   0  0  0  0  0  0  0  0  0  0  0  0
   26.6797  -18.9835  -13.8032 O   0  0  0  0  0  0  0  0  0  0  0  0
   23.2470  -19.1837  -12.5683 C   0  0  0  0  0  0  0  0  0  0  0  0
   23.8413  -20.0886  -11.5122 C   0  0  1  0  0  0  0  0  0  0  0  0
   23.2500  -21.3460  -11.4964 O   0  0  0  0  0  0  0  0  0  0  0  0
   25.3479  -20.1528  -11.6315 C   0  0  2  0  0  0  0  0  0  0  0  0
   25.6703  -20.8185  -12.8774 N   0  0  0  0  0  0  0  0  0  0  0  0
   25.9556  -20.9369  -10.5297 C   0  0  0  0  0  0  0  0  0  0  0  0
   26.3263  -22.1398  -10.7187 O   0  0  0  0  0  0  0  0  0  0  0  0
   26.1574  -20.4091   -9.2266 N   0  0  0  0  0  0  0  0  0  0  0  0
   26.6610  -21.2532   -8.1899 C   0  0  1  0  0  0  0  0  0  0  0  0
   28.0954  -20.9607   -7.8286 C   0  0  0  0  0  0  0  0  0  0  0  0
   28.2539  -20.1882   -6.6029 C   0  0  0  0  0  0  0  0  0  0  0  0
   28.5833  -20.8100   -5.4176 C   0  0  0  0  0  0  0  0  0  0  0  0
   28.7355  -20.0670   -4.2399 C   0  0  0  0  0  0  0  0  0  0  0  0
   28.5619  -18.7046   -4.2321 C   0  0  0  0  0  0  0  0  0  0  0  0
   28.2338  -18.0841   -5.4117 C   0  0  0  0  0  0  0  0  0  0  0  0
   28.0862  -18.8236   -6.5657 C   0  0  0  0  0  0  0  0  0  0  0  0
   25.7601  -21.1567   -7.0105 C   0  0  0  0  0  0  0  0  0  0  0  0
   24.8011  -20.3591   -6.9886 O   0  0  0  0  0  0  0  0  0  0  0  0
   25.9623  -21.9570   -5.8929 O   0  0  0  0  0  0  0  0  0  0  0  0
  1  2  1  0
  1  5  1  0
  2  3  1  0
  3  4  1  0
  5  4  1  0
  5  6  1  1
  6  7  2  0
  9  8  1  6
 10  9  1  0
 11  9  1  0
 12  6  1  0
 11 12  1  6
 13 11  1  0
 13 14  2  0
 15 13  1  0
 16 15  1  0
 16 17  1  1
 18 23  1  0
 18 17  1  0
 19 18  2  0
 20 21  2  0
 20 19  1  0
 21 22  1  0
 22 23  2  0
 24 26  1  0
 24 16  1  0
 25 24  2  0
M  END
$$$$
