PTF.pdb
     RDKit          3D

 26 27  0  0  1  0  0  0  0  0999 V2000
   28.3555  -21.2544  -16.3596 N   0  0  0  0  0  0  0  0  0  0  0  0
   29.0574  -21.5057  -17.6169 C   0  0  0  0  0  0  0  0  0  0  0  0
   29.1314  -20.1876  -18.3201 C   0  0  0  0  0  0  0  0  0  0  0  0
   28.6639  -19.1724  -17.2879 C   0  0  0  0  0  0  0  0  0  0  0  0
   28.8432  -19.9454  -15.9972 C   0  0  1  0  0  0  0  0  0  0  0  0
   28.1014  -19.3413  -14.8810 C   0  0  0  0  0  0  0  0  0  0  0  0
   28.3632  -18.1783  -14.5373 O   0  0  0  0  0  0  0  0  0  0  0  0
   25.0707  -18.1166  -15.1152 C   0  0  0  0  0  0  0  0  0  0  0  0
   24.8770  -19.1234  -14.0033 C   0  0  1  0  0  0  0  0  0  0  0  0
   24.2750  -20.2947  -14.4464 O   0  0  0  0  0  0  0  0  0  0  0  0
   26.1714  -19.3759  -13.2622 C   0  0  2  0  0  0  0  0  0  0  0  0
   27.0841  -20.0417  -14.1695 N   0  0  0  0  0  0  0  0  0  0  0  0
   25.9723  -20.2620  -12.0904 C   0  0  0  0  0  0  0  0  0  0  0  0
   26.1627  -21.5168  -12.1875 O   0  0  0  0  0  0  0  0  0  0  0  0
   25.5667  -19.7794  -10.8176 N   0  0  0  0  0  0  0  0  0  0  0  0
   25.2621  -20.7047   -9.7727 C   0  0  1  0  0  0  0  0  0  0  0  0
   25.4750  -20.1352   -8.3928 C   0  0  0  0  0  0  0  0  0  0  0  0
   26.8672  -20.1270   -7.9615 C   0  0  0  0  0  0  0  0  0  0  0  0
   27.3548  -19.1024   -7.1791 C   0  0  0  0  0  0  0  0  0  0  0  0
   28.6929  -19.0950   -6.7648 C   0  0  0  0  0  0  0  0  0  0  0  0
   29.5534  -20.1033   -7.1245 C   0  0  0  0  0  0  0  0  0  0  0  0
   29.0692  -21.1244   -7.9037 C   0  0  0  0  0  0  0  0  0  0  0  0
   27.7509  -21.1230   -8.3065 C   0  0  0  0  0  0  0  0  0  0  0  0
   23.8731  -21.2022   -9.9603 C   0  0  0  0  0  0  0  0  0  0  0  0
   23.1204  -20.7167  -10.8286 O   0  0  0  0  0  0  0  0  0  0  0  0
   23.3715  -22.2281   -9.1688 O   0  0  0  0  0  0  0  0  0  0  0  0
  1  2  1  0
  1  5  1  0
  2  3  1  0
  3  4  1  0
  5  4  1  0
  5  6  1  1
  6  7  2  0
  9  8  1  6
 10  9  1  0
 11  9  1  0
 12  6  1  0
 11 12  1  6
 13 11  1  0
 13 14  2  0
 15 13  1  0
 16 15  1  0
 16 17  1  1
 18 23  1  0
 18 17  1  0
 19 18  2  0
 20 21  2  0
 20 19  1  0
 21 22  1  0
 22 23  2  0
 24 26  1  0
 24 16  1  0
 25 24  2  0
M  END
$$$$
