PTF.pdb
     RDKit          3D

 26 27  0  0  1  0  0  0  0  0999 V2000
   19.5505  -11.7529  -17.4315 N   0  0  0  0  0  0  0  0  0  0  0  0
   19.2963  -13.1736  -17.6635 C   0  0  0  0  0  0  0  0  0  0  0  0
   19.9458  -13.5021  -18.9702 C   0  0  0  0  0  0  0  0  0  0  0  0
   20.7683  -12.2691  -19.3135 C   0  0  0  0  0  0  0  0  0  0  0  0
   20.8829  -11.5933  -17.9624 C   0  0  1  0  0  0  0  0  0  0  0  0
   21.2936  -10.1865  -18.0786 C   0  0  0  0  0  0  0  0  0  0  0  0
   22.4298   -9.9188  -18.4988 O   0  0  0  0  0  0  0  0  0  0  0  0
   19.5034   -7.3961  -20.0377 C   0  0  0  0  0  0  0  0  0  0  0  0
   19.6311   -7.0158  -18.5794 C   0  0  1  0  0  0  0  0  0  0  0  0
   18.4442   -7.1919  -17.8787 O   0  0  0  0  0  0  0  0  0  0  0  0
   20.8025   -7.7200  -17.9310 C   0  0  2  0  0  0  0  0  0  0  0  0
   20.4335   -9.1061  -17.7255 N   0  0  0  0  0  0  0  0  0  0  0  0
   21.1314   -7.1388  -16.6074 C   0  0  0  0  0  0  0  0  0  0  0  0
   20.7496   -7.7104  -15.5360 O   0  0  0  0  0  0  0  0  0  0  0  0
   21.8745   -5.9381  -16.4546 N   0  0  0  0  0  0  0  0  0  0  0  0
   22.2500   -5.4981  -15.1483 C   0  0  1  0  0  0  0  0  0  0  0  0
   23.6244   -5.9618  -14.7364 C   0  0  0  0  0  0  0  0  0  0  0  0
   24.6713   -5.6482  -15.7007 C   0  0  0  0  0  0  0  0  0  0  0  0
   25.1188   -6.6033  -16.5881 C   0  0  0  0  0  0  0  0  0  0  0  0
   26.1250   -6.3014  -17.5147 C   0  0  0  0  0  0  0  0  0  0  0  0
   26.6918   -5.0514  -17.5657 C   0  0  0  0  0  0  0  0  0  0  0  0
   26.2471   -4.0992  -16.6826 C   0  0  0  0  0  0  0  0  0  0  0  0
   25.2565   -4.4057  -15.7743 C   0  0  0  0  0  0  0  0  0  0  0  0
   22.1203   -4.0178  -15.0834 C   0  0  0  0  0  0  0  0  0  0  0  0
   21.8993   -3.3391  -16.1065 O   0  0  0  0  0  0  0  0  0  0  0  0
   22.2424   -3.3450  -13.8739 O   0  0  0  0  0  0  0  0  0  0  0  0
  1  2  1  0
  1  5  1  0
  2  3  1  0
  3  4  1  0
  5  4  1  0
  5  6  1  6
  6  7  2  0
  9  8  1  6
 10  9  1  0
 11  9  1  0
 12  6  1  0
 11 12  1  1
 13 11  1  0
 13 14  2  0
 15 13  1  0
 16 15  1  0
 16 17  1  6
 18 23  1  0
 18 17  1  0
 19 18  2  0
 20 21  2  0
 20 19  1  0
 21 22  1  0
 22 23  2  0
 24 26  1  0
 24 16  1  0
 25 24  2  0
M  END
$$$$
