PTF.pdb
     RDKit          3D

 26 27  0  0  1  0  0  0  0  0999 V2000
   27.4147  -18.8092  -14.8521 N   0  0  0  0  0  0  0  0  0  0  0  0
   28.6359  -18.2853  -15.4610 C   0  0  0  0  0  0  0  0  0  0  0  0
   29.7194  -19.2577  -15.1177 C   0  0  0  0  0  0  0  0  0  0  0  0
   28.9919  -20.4490  -14.5126 C   0  0  0  0  0  0  0  0  0  0  0  0
   27.5802  -20.2331  -15.0187 C   0  0  1  0  0  0  0  0  0  0  0  0
   26.5940  -21.0212  -14.2654 C   0  0  0  0  0  0  0  0  0  0  0  0
   26.6033  -22.2580  -14.3630 O   0  0  0  0  0  0  0  0  0  0  0  0
   26.2777  -21.5319  -10.8049 C   0  0  0  0  0  0  0  0  0  0  0  0
   24.9231  -20.9852  -11.1967 C   0  0  1  0  0  0  0  0  0  0  0  0
   24.7503  -19.6633  -10.8046 O   0  0  0  0  0  0  0  0  0  0  0  0
   24.6525  -21.1978  -12.6698 C   0  0  2  0  0  0  0  0  0  0  0  0
   25.6178  -20.4192  -13.4191 N   0  0  0  0  0  0  0  0  0  0  0  0
   23.2990  -20.7315  -13.0549 C   0  0  0  0  0  0  0  0  0  0  0  0
   23.1164  -19.5400  -13.4640 O   0  0  0  0  0  0  0  0  0  0  0  0
   22.1493  -21.5633  -12.9936 N   0  0  0  0  0  0  0  0  0  0  0  0
   20.8734  -21.0377  -13.3633 C   0  0  1  0  0  0  0  0  0  0  0  0
   20.6258  -21.0676  -14.8504 C   0  0  0  0  0  0  0  0  0  0  0  0
   19.2961  -20.6162  -15.2407 C   0  0  0  0  0  0  0  0  0  0  0  0
   18.3037  -21.5257  -15.5370 C   0  0  0  0  0  0  0  0  0  0  0  0
   17.0259  -21.0913  -15.9121 C   0  0  0  0  0  0  0  0  0  0  0  0
   16.7264  -19.7535  -15.9950 C   0  0  0  0  0  0  0  0  0  0  0  0
   17.7137  -18.8465  -15.7003 C   0  0  0  0  0  0  0  0  0  0  0  0
   18.9682  -19.2835  -15.3321 C   0  0  0  0  0  0  0  0  0  0  0  0
   19.8169  -21.7641  -12.6094 C   0  0  0  0  0  0  0  0  0  0  0  0
   19.8567  -23.0025  -12.4644 O   0  0  0  0  0  0  0  0  0  0  0  0
   18.7493  -21.0796  -12.0418 O   0  0  0  0  0  0  0  0  0  0  0  0
  1  2  1  0
  1  5  1  0
  2  3  1  0
  3  4  1  0
  5  4  1  0
  5  6  1  1
  6  7  2  0
  9  8  1  6
 10  9  1  0
 11  9  1  0
 12  6  1  0
 11 12  1  6
 13 11  1  0
 13 14  2  0
 15 13  1  0
 16 15  1  0
 16 17  1  6
 18 23  1  0
 18 17  1  0
 19 18  2  0
 20 21  2  0
 20 19  1  0
 21 22  1  0
 22 23  2  0
 24 26  1  0
 24 16  1  0
 25 24  2  0
M  END
$$$$
