PTF.pdb
     RDKit          3D

 26 27  0  0  1  0  0  0  0  0999 V2000
   40.4619  -26.3978    5.1861 N   0  0  0  0  0  0  0  0  0  0  0  0
   41.6128  -27.0085    4.5234 C   0  0  0  0  0  0  0  0  0  0  0  0
   42.0341  -26.0479    3.4571 C   0  0  0  0  0  0  0  0  0  0  0  0
   41.2249  -24.7887    3.7300 C   0  0  0  0  0  0  0  0  0  0  0  0
   40.8127  -24.9980    5.1728 C   0  0  1  0  0  0  0  0  0  0  0  0
   39.7007  -24.1202    5.5652 C   0  0  0  0  0  0  0  0  0  0  0  0
   39.8748  -22.8920    5.5842 O   0  0  0  0  0  0  0  0  0  0  0  0
   35.8857  -24.4408    4.3518 C   0  0  0  0  0  0  0  0  0  0  0  0
   36.0303  -24.4371    5.8573 C   0  0  1  0  0  0  0  0  0  0  0  0
   35.8874  -25.7050    6.4076 O   0  0  0  0  0  0  0  0  0  0  0  0
   37.3131  -23.7570    6.2820 C   0  0  2  0  0  0  0  0  0  0  0  0
   38.4182  -24.6250    5.9285 N   0  0  0  0  0  0  0  0  0  0  0  0
   37.3618  -23.5372    7.7473 C   0  0  0  0  0  0  0  0  0  0  0  0
   38.2538  -24.1027    8.4579 O   0  0  0  0  0  0  0  0  0  0  0  0
   36.4398  -22.7030    8.4340 N   0  0  0  0  0  0  0  0  0  0  0  0
   36.6531  -22.3947    9.8125 C   0  0  1  0  0  0  0  0  0  0  0  0
   37.9572  -21.6822   10.0679 C   0  0  0  0  0  0  0  0  0  0  0  0
   38.2042  -21.3800   11.4722 C   0  0  0  0  0  0  0  0  0  0  0  0
   38.7945  -22.3120   12.2986 C   0  0  0  0  0  0  0  0  0  0  0  0
   39.0317  -22.0210   13.6482 C   0  0  0  0  0  0  0  0  0  0  0  0
   38.6848  -20.8051   14.1843 C   0  0  0  0  0  0  0  0  0  0  0  0
   38.0970  -19.8759   13.3625 C   0  0  0  0  0  0  0  0  0  0  0  0
   37.8675  -20.1714   12.0357 C   0  0  0  0  0  0  0  0  0  0  0  0
   35.4884  -21.6203   10.3182 C   0  0  0  0  0  0  0  0  0  0  0  0
   34.8914  -20.7975    9.5951 O   0  0  0  0  0  0  0  0  0  0  0  0
   35.0295  -21.7924   11.6183 O   0  0  0  0  0  0  0  0  0  0  0  0
  1  2  1  0
  1  5  1  0
  2  3  1  0
  3  4  1  0
  5  4  1  0
  5  6  1  6
  6  7  2  0
  9  8  1  6
 10  9  1  0
 11  9  1  0
 12  6  1  0
 11 12  1  1
 13 11  1  0
 13 14  2  0
 15 13  1  0
 16 15  1  0
 16 17  1  6
 18 23  1  0
 18 17  1  0
 19 18  2  0
 20 21  2  0
 20 19  1  0
 21 22  1  0
 22 23  2  0
 24 26  1  0
 24 16  1  0
 25 24  2  0
M  END
$$$$
