PTF.pdb
     RDKit          3D

 26 27  0  0  1  0  0  0  0  0999 V2000
   19.3860  -12.2017  -16.2091 N   0  0  0  0  0  0  0  0  0  0  0  0
   19.2859  -13.6569  -16.3036 C   0  0  0  0  0  0  0  0  0  0  0  0
   19.6999  -14.0106  -17.6967 C   0  0  0  0  0  0  0  0  0  0  0  0
   20.2620  -12.7192  -18.2722 C   0  0  0  0  0  0  0  0  0  0  0  0
   20.5513  -11.9256  -17.0145 C   0  0  1  0  0  0  0  0  0  0  0  0
   20.7355  -10.4937  -17.2918 C   0  0  0  0  0  0  0  0  0  0  0  0
   21.7498  -10.1191  -17.9003 O   0  0  0  0  0  0  0  0  0  0  0  0
   18.3515   -8.2245  -19.2586 C   0  0  0  0  0  0  0  0  0  0  0  0
   18.5485   -7.6994  -17.8539 C   0  0  1  0  0  0  0  0  0  0  0  0
   17.4911   -8.0235  -17.0127 O   0  0  0  0  0  0  0  0  0  0  0  0
   19.8898   -8.1207  -17.2955 C   0  0  2  0  0  0  0  0  0  0  0  0
   19.7892   -9.5074  -16.8876 N   0  0  0  0  0  0  0  0  0  0  0  0
   20.2651   -7.3247  -16.1024 C   0  0  0  0  0  0  0  0  0  0  0  0
   19.8187   -7.6337  -14.9510 O   0  0  0  0  0  0  0  0  0  0  0  0
   21.1245   -6.1957  -16.1666 N   0  0  0  0  0  0  0  0  0  0  0  0
   21.4095   -5.4532  -14.9799 C   0  0  1  0  0  0  0  0  0  0  0  0
   22.8147   -5.6580  -14.4729 C   0  0  0  0  0  0  0  0  0  0  0  0
   23.1564   -7.0512  -14.2148 C   0  0  0  0  0  0  0  0  0  0  0  0
   22.6530   -7.7056  -13.1111 C   0  0  0  0  0  0  0  0  0  0  0  0
   22.9816   -9.0447  -12.8635 C   0  0  0  0  0  0  0  0  0  0  0  0
   23.8106   -9.7406  -13.7090 C   0  0  0  0  0  0  0  0  0  0  0  0
   24.3127   -9.0902  -14.8086 C   0  0  0  0  0  0  0  0  0  0  0  0
   23.9836   -7.7723  -15.0439 C   0  0  0  0  0  0  0  0  0  0  0  0
   21.1118   -4.0172  -15.2275 C   0  0  0  0  0  0  0  0  0  0  0  0
   20.8104   -3.6026  -16.3649 O   0  0  0  0  0  0  0  0  0  0  0  0
   21.1613   -3.0913  -14.1928 O   0  0  0  0  0  0  0  0  0  0  0  0
  1  2  1  0
  1  5  1  0
  2  3  1  0
  3  4  1  0
  5  4  1  0
  5  6  1  6
  6  7  2  0
  9  8  1  6
 10  9  1  0
 11  9  1  0
 12  6  1  0
 11 12  1  1
 13 11  1  0
 13 14  2  0
 15 13  1  0
 16 15  1  0
 16 17  1  6
 18 23  1  0
 18 17  1  0
 19 18  2  0
 20 21  2  0
 20 19  1  0
 21 22  1  0
 22 23  2  0
 24 26  1  0
 24 16  1  0
 25 24  2  0
M  END
$$$$
