PTF.pdb
     RDKit          3D

 26 27  0  0  1  0  0  0  0  0999 V2000
   26.3564  -16.8785  -18.9238 N   0  0  0  0  0  0  0  0  0  0  0  0
   27.1434  -15.9007  -19.6730 C   0  0  0  0  0  0  0  0  0  0  0  0
   26.8274  -16.1338  -21.1163 C   0  0  0  0  0  0  0  0  0  0  0  0
   25.6570  -17.1057  -21.1034 C   0  0  0  0  0  0  0  0  0  0  0  0
   25.1354  -16.9360  -19.6911 C   0  0  1  0  0  0  0  0  0  0  0  0
   24.2523  -18.0404  -19.2892 C   0  0  0  0  0  0  0  0  0  0  0  0
   23.2170  -18.2563  -19.9379 O   0  0  0  0  0  0  0  0  0  0  0  0
   23.7568  -22.2970  -16.8861 C   0  0  0  0  0  0  0  0  0  0  0  0
   24.5038  -21.2169  -17.6362 C   0  0  1  0  0  0  0  0  0  0  0  0
   25.0065  -21.6651  -18.8517 O   0  0  0  0  0  0  0  0  0  0  0  0
   23.6632  -19.9670  -17.7767 C   0  0  2  0  0  0  0  0  0  0  0  0
   24.5374  -18.8822  -18.1748 N   0  0  0  0  0  0  0  0  0  0  0  0
   23.0241  -19.5852  -16.4947 C   0  0  0  0  0  0  0  0  0  0  0  0
   23.7307  -19.2028  -15.5073 O   0  0  0  0  0  0  0  0  0  0  0  0
   21.6188  -19.6210  -16.2918 N   0  0  0  0  0  0  0  0  0  0  0  0
   21.0637  -19.1026  -15.0818 C   0  0  1  0  0  0  0  0  0  0  0  0
   20.5998  -17.6731  -15.2045 C   0  0  0  0  0  0  0  0  0  0  0  0
   19.6376  -17.4505  -16.2764 C   0  0  0  0  0  0  0  0  0  0  0  0
   20.0611  -17.0911  -17.5379 C   0  0  0  0  0  0  0  0  0  0  0  0
   19.1358  -16.8773  -18.5677 C   0  0  0  0  0  0  0  0  0  0  0  0
   17.7869  -17.0188  -18.3514 C   0  0  0  0  0  0  0  0  0  0  0  0
   17.3637  -17.3766  -17.0956 C   0  0  0  0  0  0  0  0  0  0  0  0
   18.2817  -17.5849  -16.0885 C   0  0  0  0  0  0  0  0  0  0  0  0
   19.9713  -20.0044  -14.6285 C   0  0  0  0  0  0  0  0  0  0  0  0
   19.5723  -20.9498  -15.3379 O   0  0  0  0  0  0  0  0  0  0  0  0
   19.3606  -19.8182  -13.3944 O   0  0  0  0  0  0  0  0  0  0  0  0
  1  2  1  0
  1  5  1  0
  2  3  1  0
  3  4  1  0
  5  4  1  0
  5  6  1  1
  6  7  2  0
  9  8  1  6
 10  9  1  0
 11  9  1  0
 12  6  1  0
 11 12  1  1
 13 11  1  0
 13 14  2  0
 15 13  1  0
 16 15  1  0
 16 17  1  6
 18 23  1  0
 18 17  1  0
 19 18  2  0
 20 21  2  0
 20 19  1  0
 21 22  1  0
 22 23  2  0
 24 26  1  0
 24 16  1  0
 25 24  2  0
M  END
$$$$
