KAR.pdb
     RDKit          3D

 26 25  0  0  1  0  0  0  0  0999 V2000
    9.9076  -16.1944   17.0038 N   0  0  0  0  0  0  0  0  0  0  0  0
    9.3434  -15.2875   17.9420 C   0  0  1  0  0  0  0  0  0  0  0  0
    8.3394  -14.3328   17.4064 C   0  0  0  0  0  0  0  0  0  0  0  0
    8.2928  -14.1108   15.9504 C   0  0  0  0  0  0  0  0  0  0  0  0
    7.2945  -13.1651   15.4049 C   0  0  0  0  0  0  0  0  0  0  0  0
    7.2813  -12.9873   13.9238 C   0  0  0  0  0  0  0  0  0  0  0  0
    6.3167  -12.0482   13.4195 N   0  0  0  0  0  0  0  0  0  0  0  0
    8.8121  -15.9102   19.1822 C   0  0  0  0  0  0  0  0  0  0  0  0
    8.4165  -15.1835   20.1584 O   0  0  0  0  0  0  0  0  0  0  0  0
    7.8882  -19.3013   20.4063 C   0  0  0  0  0  0  0  0  0  0  0  0
    8.1760  -17.8370   20.6553 C   0  0  2  0  0  0  0  0  0  0  0  0
    8.7008  -17.3005   19.3900 N   0  0  0  0  0  0  0  0  0  0  0  0
    9.2405  -17.6455   21.6923 C   0  0  0  0  0  0  0  0  0  0  0  0
   10.4623  -17.6447   21.3656 O   0  0  0  0  0  0  0  0  0  0  0  0
    9.1086  -13.9917   28.6352 N   0  0  0  0  0  0  0  0  0  0  0  0
   10.4994  -14.3092   28.8314 C   0  0  0  0  0  0  0  0  0  0  0  0
   10.9643  -14.3696   30.0532 N   0  0  0  0  0  0  0  0  0  0  0  0
   11.3101  -14.5433   27.7008 N   0  0  0  0  0  0  0  0  0  0  0  0
   10.6194  -14.5830   26.3856 C   0  0  0  0  0  0  0  0  0  0  0  0
   10.0866  -15.9549   26.2568 C   0  0  0  0  0  0  0  0  0  0  0  0
    9.4710  -16.3163   24.9935 C   0  0  0  0  0  0  0  0  0  0  0  0
   10.0610  -17.3128   24.0777 C   0  0  2  0  0  0  0  0  0  0  0  0
    8.9446  -17.4612   23.0480 N   0  0  0  0  0  0  0  0  0  0  0  0
   10.3520  -18.6190   24.6081 C   0  0  0  0  0  0  0  0  0  0  0  0
    9.3579  -19.4435   24.6918 O   0  0  0  0  0  0  0  0  0  0  0  0
   11.5590  -19.1398   25.0384 O   0  0  0  0  0  0  0  0  0  0  0  0
  2  8  1  0
  2  1  1  6
  3  2  1  0
  4  3  1  0
  5  4  1  0
  6  5  1  0
  7  6  1  0
  8  9  2  0
 11 10  1  6
 12 11  1  0
 12  8  1  0
 13 14  2  0
 13 11  1  0
 15 16  1  0
 16 17  2  0
 18 16  1  0
 18 19  1  0
 19 20  1  0
 20 21  1  0
 22 21  1  1
 22 24  1  0
 22 23  1  0
 23 13  1  0
 24 26  1  0
 25 24  2  0
M  END
$$$$
