KAR.pdb
     RDKit          3D

 26 25  0  0  1  0  0  0  0  0999 V2000
   11.1755  -16.9878   17.5326 N   0  0  0  0  0  0  0  0  0  0  0  0
   10.2939  -16.3786   18.4668 C   0  0  1  0  0  0  0  0  0  0  0  0
    8.9641  -15.9740   17.9433 C   0  0  0  0  0  0  0  0  0  0  0  0
    8.8851  -15.4418   16.5714 C   0  0  0  0  0  0  0  0  0  0  0  0
    7.9788  -14.3049   16.2988 C   0  0  0  0  0  0  0  0  0  0  0  0
    7.9462  -13.7970   14.8964 C   0  0  0  0  0  0  0  0  0  0  0  0
    7.0304  -12.7171   14.6480 N   0  0  0  0  0  0  0  0  0  0  0  0
   10.1117  -17.1212   19.7410 C   0  0  0  0  0  0  0  0  0  0  0  0
    9.2002  -16.7779   20.5707 O   0  0  0  0  0  0  0  0  0  0  0  0
   11.6539  -20.0342   21.4968 C   0  0  0  0  0  0  0  0  0  0  0  0
   10.6446  -18.9100   21.4155 C   0  0  2  0  0  0  0  0  0  0  0  0
   10.8944  -18.2253   20.1376 N   0  0  0  0  0  0  0  0  0  0  0  0
   10.8440  -17.9005   22.5046 C   0  0  0  0  0  0  0  0  0  0  0  0
   11.8390  -17.1200   22.4822 O   0  0  0  0  0  0  0  0  0  0  0  0
    5.1397  -12.6244   25.6853 N   0  0  0  0  0  0  0  0  0  0  0  0
    6.2422  -12.3385   26.5663 C   0  0  0  0  0  0  0  0  0  0  0  0
    6.1212  -11.3615   27.4285 N   0  0  0  0  0  0  0  0  0  0  0  0
    7.4122  -13.1209   26.4685 N   0  0  0  0  0  0  0  0  0  0  0  0
    7.4264  -14.1641   25.4103 C   0  0  0  0  0  0  0  0  0  0  0  0
    8.6664  -14.9367   25.6293 C   0  0  0  0  0  0  0  0  0  0  0  0
    8.9118  -16.0678   24.7542 C   0  0  0  0  0  0  0  0  0  0  0  0
   10.2179  -16.7530   24.6875 C   0  0  2  0  0  0  0  0  0  0  0  0
    9.9583  -17.7710   23.5807 N   0  0  0  0  0  0  0  0  0  0  0  0
   10.6575  -17.4700   25.8558 C   0  0  0  0  0  0  0  0  0  0  0  0
   10.7886  -16.7794   26.9425 O   0  0  0  0  0  0  0  0  0  0  0  0
   10.9544  -18.8135   25.9978 O   0  0  0  0  0  0  0  0  0  0  0  0
  2  8  1  0
  2  1  1  6
  3  2  1  0
  4  3  1  0
  5  4  1  0
  6  5  1  0
  7  6  1  0
  8  9  2  0
 11 10  1  1
 12 11  1  0
 12  8  1  0
 13 14  2  0
 13 11  1  0
 15 16  1  0
 16 17  2  0
 18 16  1  0
 18 19  1  0
 19 20  1  0
 20 21  1  0
 22 21  1  1
 22 24  1  0
 22 23  1  0
 23 13  1  0
 24 26  1  0
 25 24  2  0
M  END
$$$$
