KAR.pdb
     RDKit          3D

 26 25  0  0  1  0  0  0  0  0999 V2000
    6.6102  -19.9513   17.2322 N   0  0  0  0  0  0  0  0  0  0  0  0
    7.5720  -19.0094   17.6892 C   0  0  1  0  0  0  0  0  0  0  0  0
    7.3088  -17.5880   17.3479 C   0  0  0  0  0  0  0  0  0  0  0  0
    7.6043  -17.1315   15.9783 C   0  0  0  0  0  0  0  0  0  0  0  0
    8.3365  -18.0379   15.0670 C   0  0  0  0  0  0  0  0  0  0  0  0
    8.6171  -17.5234   13.6951 C   0  0  0  0  0  0  0  0  0  0  0  0
    9.4629  -18.3533   12.8813 N   0  0  0  0  0  0  0  0  0  0  0  0
    7.9191  -19.1092   19.1306 C   0  0  0  0  0  0  0  0  0  0  0  0
    7.0771  -18.7619   20.0293 O   0  0  0  0  0  0  0  0  0  0  0  0
   10.5643  -20.6077   21.2482 C   0  0  0  0  0  0  0  0  0  0  0  0
    9.4276  -19.6259   21.0658 C   0  0  2  0  0  0  0  0  0  0  0  0
    9.1568  -19.5748   19.6207 N   0  0  0  0  0  0  0  0  0  0  0  0
    9.8112  -18.2419   21.4932 C   0  0  0  0  0  0  0  0  0  0  0  0
   10.3735  -17.4519   20.6812 O   0  0  0  0  0  0  0  0  0  0  0  0
    5.2506  -12.9568   26.3415 N   0  0  0  0  0  0  0  0  0  0  0  0
    6.4128  -12.1491   26.0758 C   0  0  0  0  0  0  0  0  0  0  0  0
    6.3857  -10.8820   26.4016 N   0  0  0  0  0  0  0  0  0  0  0  0
    7.5376  -12.7521   25.4744 N   0  0  0  0  0  0  0  0  0  0  0  0
    7.3190  -14.0761   24.8360 C   0  0  0  0  0  0  0  0  0  0  0  0
    8.6438  -14.5033   24.3413 C   0  0  0  0  0  0  0  0  0  0  0  0
    8.7362  -15.8147   23.7271 C   0  0  0  0  0  0  0  0  0  0  0  0
   10.0006  -16.3524   23.1867 C   0  0  2  0  0  0  0  0  0  0  0  0
    9.5720  -17.7611   22.7858 N   0  0  0  0  0  0  0  0  0  0  0  0
   11.1175  -16.4678   24.0875 C   0  0  0  0  0  0  0  0  0  0  0  0
   11.1169  -17.4903   24.8810 O   0  0  0  0  0  0  0  0  0  0  0  0
   12.2183  -15.6419   24.2269 O   0  0  0  0  0  0  0  0  0  0  0  0
  2  8  1  0
  2  1  1  1
  3  2  1  0
  4  3  1  0
  5  4  1  0
  6  5  1  0
  7  6  1  0
  8  9  2  0
 11 10  1  6
 12 11  1  0
 12  8  1  0
 13 14  2  0
 13 11  1  0
 15 16  1  0
 16 17  2  0
 18 16  1  0
 18 19  1  0
 19 20  1  0
 20 21  1  0
 22 21  1  1
 22 24  1  0
 22 23  1  0
 23 13  1  0
 24 26  1  0
 25 24  2  0
M  END
$$$$
