KAR.pdb
     RDKit          3D

 26 25  0  0  1  0  0  0  0  0999 V2000
    7.5756  -16.1732   20.2852 N   0  0  0  0  0  0  0  0  0  0  0  0
    8.5296  -15.1193   20.2930 C   0  0  1  0  0  0  0  0  0  0  0  0
    8.4740  -14.1783   19.1452 C   0  0  0  0  0  0  0  0  0  0  0  0
    8.1310  -14.7155   17.8165 C   0  0  0  0  0  0  0  0  0  0  0  0
    8.3677  -13.8728   16.6239 C   0  0  0  0  0  0  0  0  0  0  0  0
    7.9558  -14.4443   15.3089 C   0  0  0  0  0  0  0  0  0  0  0  0
    8.1827  -13.6013   14.1668 N   0  0  0  0  0  0  0  0  0  0  0  0
    8.6034  -14.3428   21.5579 C   0  0  0  0  0  0  0  0  0  0  0  0
    9.6606  -13.6883   21.8599 O   0  0  0  0  0  0  0  0  0  0  0  0
    6.3935  -13.0772   24.2165 C   0  0  0  0  0  0  0  0  0  0  0  0
    7.7571  -13.5750   23.7898 C   0  0  2  0  0  0  0  0  0  0  0  0
    7.5600  -14.2602   22.5030 N   0  0  0  0  0  0  0  0  0  0  0  0
    8.3081  -14.5855   24.7491 C   0  0  0  0  0  0  0  0  0  0  0  0
    8.4382  -14.3028   25.9750 O   0  0  0  0  0  0  0  0  0  0  0  0
    5.9098  -22.6621   25.0236 N   0  0  0  0  0  0  0  0  0  0  0  0
    6.6240  -22.5169   26.2656 C   0  0  0  0  0  0  0  0  0  0  0  0
    6.4813  -23.4378   27.1844 N   0  0  0  0  0  0  0  0  0  0  0  0
    7.4510  -21.3884   26.4472 N   0  0  0  0  0  0  0  0  0  0  0  0
    7.0990  -20.1749   25.6648 C   0  0  0  0  0  0  0  0  0  0  0  0
    8.1822  -19.2048   25.9257 C   0  0  0  0  0  0  0  0  0  0  0  0
    8.1266  -17.9368   25.2225 C   0  0  0  0  0  0  0  0  0  0  0  0
    9.1659  -16.8987   25.3714 C   0  0  2  0  0  0  0  0  0  0  0  0
    8.6991  -15.8681   24.3474 N   0  0  0  0  0  0  0  0  0  0  0  0
   10.5223  -17.2595   25.0513 C   0  0  0  0  0  0  0  0  0  0  0  0
   10.9353  -16.9582   23.8623 O   0  0  0  0  0  0  0  0  0  0  0  0
   11.4725  -17.8801   25.8419 O   0  0  0  0  0  0  0  0  0  0  0  0
  2  8  1  0
  2  1  1  1
  3  2  1  0
  4  3  1  0
  5  4  1  0
  6  5  1  0
  7  6  1  0
  8  9  2  0
 11 10  1  1
 12 11  1  0
 12  8  1  0
 13 14  2  0
 13 11  1  0
 15 16  1  0
 16 17  2  0
 18 16  1  0
 18 19  1  0
 19 20  1  0
 20 21  1  0
 22 21  1  6
 22 24  1  0
 22 23  1  0
 23 13  1  0
 24 26  1  0
 25 24  2  0
M  END
$$$$
