KAR.pdb
     RDKit          3D

 26 25  0  0  1  0  0  0  0  0999 V2000
    4.9411  -18.6104   20.9171 N   0  0  0  0  0  0  0  0  0  0  0  0
    4.5571  -18.5859   22.2856 C   0  0  1  0  0  0  0  0  0  0  0  0
    3.3347  -19.3536   22.6357 C   0  0  0  0  0  0  0  0  0  0  0  0
    2.4436  -19.7852   21.5443 C   0  0  0  0  0  0  0  0  0  0  0  0
    0.9980  -19.4874   21.6441 C   0  0  0  0  0  0  0  0  0  0  0  0
    0.1611  -19.8300   20.4576 C   0  0  0  0  0  0  0  0  0  0  0  0
   -1.2405  -19.5351   20.5800 N   0  0  0  0  0  0  0  0  0  0  0  0
    5.6364  -18.9196   23.2511 C   0  0  0  0  0  0  0  0  0  0  0  0
    5.4065  -18.9232   24.5098 O   0  0  0  0  0  0  0  0  0  0  0  0
    8.9421  -20.5182   23.2674 C   0  0  0  0  0  0  0  0  0  0  0  0
    7.9742  -19.5464   23.9061 C   0  0  2  0  0  0  0  0  0  0  0  0
    6.9581  -19.2478   22.8850 N   0  0  0  0  0  0  0  0  0  0  0  0
    8.6372  -18.2508   24.2624 C   0  0  0  0  0  0  0  0  0  0  0  0
    9.5634  -18.2190   25.1231 O   0  0  0  0  0  0  0  0  0  0  0  0
    9.2606  -12.8268   20.2137 N   0  0  0  0  0  0  0  0  0  0  0  0
    8.3013  -13.3867   19.2973 C   0  0  0  0  0  0  0  0  0  0  0  0
    8.4127  -13.1094   18.0232 N   0  0  0  0  0  0  0  0  0  0  0  0
    7.2768  -14.2131   19.8051 N   0  0  0  0  0  0  0  0  0  0  0  0
    6.9759  -14.0824   21.2545 C   0  0  0  0  0  0  0  0  0  0  0  0
    8.1787  -14.5744   21.9570 C   0  0  0  0  0  0  0  0  0  0  0  0
    8.0908  -14.7399   23.3958 C   0  0  0  0  0  0  0  0  0  0  0  0
    8.9069  -15.7240   24.1344 C   0  0  2  0  0  0  0  0  0  0  0  0
    8.2741  -17.0339   23.6736 N   0  0  0  0  0  0  0  0  0  0  0  0
    8.8574  -15.6890   25.5727 C   0  0  0  0  0  0  0  0  0  0  0  0
    7.7598  -16.0976   26.1234 O   0  0  0  0  0  0  0  0  0  0  0  0
    9.8290  -15.2888   26.4722 O   0  0  0  0  0  0  0  0  0  0  0  0
  2  8  1  0
  2  1  1  6
  3  2  1  0
  4  3  1  0
  5  4  1  0
  6  5  1  0
  7  6  1  0
  8  9  2  0
 11 10  1  6
 12 11  1  0
 12  8  1  0
 13 14  2  0
 13 11  1  0
 15 16  1  0
 16 17  2  0
 18 16  1  0
 18 19  1  0
 19 20  1  0
 20 21  1  0
 22 21  1  6
 22 24  1  0
 22 23  1  0
 23 13  1  0
 24 26  1  0
 25 24  2  0
M  END
$$$$
