KAR.pdb
     RDKit          3D

 26 25  0  0  1  0  0  0  0  0999 V2000
    7.0871  -20.9492   16.5691 N   0  0  0  0  0  0  0  0  0  0  0  0
    5.9763  -21.6474   17.1165 C   0  0  1  0  0  0  0  0  0  0  0  0
    5.2675  -22.5729   16.1960 C   0  0  0  0  0  0  0  0  0  0  0  0
    5.4141  -22.3640   14.7448 C   0  0  0  0  0  0  0  0  0  0  0  0
    4.7846  -23.3301   13.8181 C   0  0  0  0  0  0  0  0  0  0  0  0
    4.9784  -23.0819   12.3599 C   0  0  0  0  0  0  0  0  0  0  0  0
    4.4027  -24.0629   11.4809 N   0  0  0  0  0  0  0  0  0  0  0  0
    6.2389  -22.3440   18.4026 C   0  0  0  0  0  0  0  0  0  0  0  0
    5.3619  -23.1241   18.9121 O   0  0  0  0  0  0  0  0  0  0  0  0
    9.1251  -22.9954   20.6346 C   0  0  0  0  0  0  0  0  0  0  0  0
    7.6328  -22.9847   20.3860 C   0  0  2  0  0  0  0  0  0  0  0  0
    7.4278  -22.2140   19.1498 N   0  0  0  0  0  0  0  0  0  0  0  0
    6.8899  -22.2761   21.4774 C   0  0  0  0  0  0  0  0  0  0  0  0
    6.6757  -21.0317   21.4051 O   0  0  0  0  0  0  0  0  0  0  0  0
   -1.2681  -21.6526   22.7274 N   0  0  0  0  0  0  0  0  0  0  0  0
   -0.3026  -20.7302   23.2665 C   0  0  0  0  0  0  0  0  0  0  0  0
   -0.4725  -19.4494   23.0591 N   0  0  0  0  0  0  0  0  0  0  0  0
    0.7908  -21.2399   23.9981 N   0  0  0  0  0  0  0  0  0  0  0  0
    1.7545  -22.0865   23.2479 C   0  0  0  0  0  0  0  0  0  0  0  0
    3.0878  -21.7421   23.7829 C   0  0  0  0  0  0  0  0  0  0  0  0
    4.2279  -22.4648   23.2509 C   0  0  0  0  0  0  0  0  0  0  0  0
    5.6141  -22.1883   23.6771 C   0  0  2  0  0  0  0  0  0  0  0  0
    6.4042  -22.9402   22.6098 N   0  0  0  0  0  0  0  0  0  0  0  0
    6.0286  -22.6802   24.9650 C   0  0  0  0  0  0  0  0  0  0  0  0
    6.6183  -23.8322   24.9813 O   0  0  0  0  0  0  0  0  0  0  0  0
    5.9004  -22.0906   26.2096 O   0  0  0  0  0  0  0  0  0  0  0  0
  2  8  1  0
  2  1  1  6
  3  2  1  0
  4  3  1  0
  5  4  1  0
  6  5  1  0
  7  6  1  0
  8  9  2  0
 11 10  1  1
 12 11  1  0
 12  8  1  0
 13 14  2  0
 13 11  1  0
 15 16  1  0
 16 17  2  0
 18 16  1  0
 18 19  1  0
 19 20  1  0
 20 21  1  0
 22 21  1  6
 22 24  1  0
 22 23  1  0
 23 13  1  0
 24 26  1  0
 25 24  2  0
M  END
$$$$
