KAR.pdb
     RDKit          3D

 26 25  0  0  1  0  0  0  0  0999 V2000
   10.7553  -19.0134   26.7199 N   0  0  0  0  0  0  0  0  0  0  0  0
   11.9777  -19.6061   26.3013 C   0  0  1  0  0  0  0  0  0  0  0  0
   12.5142  -20.6832   27.1721 C   0  0  0  0  0  0  0  0  0  0  0  0
   12.6166  -20.4262   28.6195 C   0  0  0  0  0  0  0  0  0  0  0  0
   12.2594  -21.5082   29.5628 C   0  0  0  0  0  0  0  0  0  0  0  0
   12.2806  -21.1642   31.0143 C   0  0  0  0  0  0  0  0  0  0  0  0
   11.8194  -22.1949   31.9039 N   0  0  0  0  0  0  0  0  0  0  0  0
   12.0078  -20.0613   24.8870 C   0  0  0  0  0  0  0  0  0  0  0  0
   13.0415  -20.6481   24.4131 O   0  0  0  0  0  0  0  0  0  0  0  0
    9.8481  -21.0071   22.1706 C   0  0  0  0  0  0  0  0  0  0  0  0
   11.1024  -20.2543   22.5566 C   0  0  2  0  0  0  0  0  0  0  0  0
   10.9457  -19.8945   23.9745 N   0  0  0  0  0  0  0  0  0  0  0  0
   11.2448  -18.9755   21.7889 C   0  0  0  0  0  0  0  0  0  0  0  0
   10.4867  -18.7281   20.8073 O   0  0  0  0  0  0  0  0  0  0  0  0
    8.6581  -14.2142   17.8204 N   0  0  0  0  0  0  0  0  0  0  0  0
    8.5597  -13.2296   18.8665 C   0  0  0  0  0  0  0  0  0  0  0  0
    7.9712  -12.0905   18.6047 N   0  0  0  0  0  0  0  0  0  0  0  0
    9.1007  -13.5279   20.1349 N   0  0  0  0  0  0  0  0  0  0  0  0
    9.6984  -14.8784   20.3006 C   0  0  0  0  0  0  0  0  0  0  0  0
   10.1103  -14.9606   21.7169 C   0  0  0  0  0  0  0  0  0  0  0  0
   10.7994  -16.1643   22.1431 C   0  0  0  0  0  0  0  0  0  0  0  0
   12.0921  -16.5864   21.5682 C   0  0  2  0  0  0  0  0  0  0  0  0
   12.2038  -18.0082   22.1113 N   0  0  0  0  0  0  0  0  0  0  0  0
   13.2707  -15.8640   21.9700 C   0  0  0  0  0  0  0  0  0  0  0  0
   13.7432  -16.1360   23.1438 O   0  0  0  0  0  0  0  0  0  0  0  0
   13.9950  -14.9142   21.2727 O   0  0  0  0  0  0  0  0  0  0  0  0
  2  8  1  0
  2  1  1  1
  3  2  1  0
  4  3  1  0
  5  4  1  0
  6  5  1  0
  7  6  1  0
  8  9  2  0
 11 10  1  6
 12 11  1  0
 12  8  1  0
 13 14  2  0
 13 11  1  0
 15 16  1  0
 16 17  2  0
 18 16  1  0
 18 19  1  0
 19 20  1  0
 20 21  1  0
 22 21  1  1
 22 24  1  0
 22 23  1  0
 23 13  1  0
 24 26  1  0
 25 24  2  0
M  END
$$$$
