KAR.pdb
     RDKit          3D

 26 25  0  0  1  0  0  0  0  0999 V2000
   12.5836  -19.8224   17.3812 N   0  0  0  0  0  0  0  0  0  0  0  0
   12.0531  -18.5549   17.7461 C   0  0  1  0  0  0  0  0  0  0  0  0
   10.6388  -18.5439   18.1996 C   0  0  0  0  0  0  0  0  0  0  0  0
    9.6227  -19.1706   17.3358 C   0  0  0  0  0  0  0  0  0  0  0  0
    8.2262  -19.2472   17.8179 C   0  0  0  0  0  0  0  0  0  0  0  0
    7.2513  -19.9502   16.9342 C   0  0  0  0  0  0  0  0  0  0  0  0
    5.9419  -20.1534   17.4916 N   0  0  0  0  0  0  0  0  0  0  0  0
   12.8794  -17.7761   18.7048 C   0  0  0  0  0  0  0  0  0  0  0  0
   13.7299  -18.3635   19.4590 O   0  0  0  0  0  0  0  0  0  0  0  0
   13.8616  -14.2612   19.1857 C   0  0  0  0  0  0  0  0  0  0  0  0
   13.7499  -15.6647   19.7398 C   0  0  2  0  0  0  0  0  0  0  0  0
   12.8047  -16.3772   18.8662 N   0  0  0  0  0  0  0  0  0  0  0  0
   13.1696  -15.6752   21.1212 C   0  0  0  0  0  0  0  0  0  0  0  0
   13.7861  -15.1287   22.0808 O   0  0  0  0  0  0  0  0  0  0  0  0
    8.6525  -14.1034   18.7198 N   0  0  0  0  0  0  0  0  0  0  0  0
    8.2424  -12.9656   19.5014 C   0  0  0  0  0  0  0  0  0  0  0  0
    8.1711  -11.7957   18.9195 N   0  0  0  0  0  0  0  0  0  0  0  0
    7.9327  -13.1527   20.8650 N   0  0  0  0  0  0  0  0  0  0  0  0
    8.0895  -14.5309   21.3982 C   0  0  0  0  0  0  0  0  0  0  0  0
    9.4862  -14.6185   21.8713 C   0  0  0  0  0  0  0  0  0  0  0  0
    9.9133  -15.8724   22.4636 C   0  0  0  0  0  0  0  0  0  0  0  0
   11.3223  -16.1514   22.8049 C   0  0  2  0  0  0  0  0  0  0  0  0
   11.9408  -16.2774   21.4155 N   0  0  0  0  0  0  0  0  0  0  0  0
   11.6079  -17.3623   23.5292 C   0  0  0  0  0  0  0  0  0  0  0  0
   11.9501  -18.3913   22.8228 O   0  0  0  0  0  0  0  0  0  0  0  0
   11.5834  -17.5927   24.8928 O   0  0  0  0  0  0  0  0  0  0  0  0
  2  8  1  0
  2  1  1  1
  3  2  1  0
  4  3  1  0
  5  4  1  0
  6  5  1  0
  7  6  1  0
  8  9  2  0
 11 10  1  6
 12 11  1  0
 12  8  1  0
 13 14  2  0
 13 11  1  0
 15 16  1  0
 16 17  2  0
 18 16  1  0
 18 19  1  0
 19 20  1  0
 20 21  1  0
 22 21  1  6
 22 24  1  0
 22 23  1  0
 23 13  1  0
 24 26  1  0
 25 24  2  0
M  END
$$$$
