KAR.pdb
     RDKit          3D

 26 25  0  0  1  0  0  0  0  0999 V2000
    8.1718  -21.7018   18.4235 N   0  0  0  0  0  0  0  0  0  0  0  0
    8.2648  -20.3393   18.8185 C   0  0  1  0  0  0  0  0  0  0  0  0
    7.0806  -19.4915   18.5268 C   0  0  0  0  0  0  0  0  0  0  0  0
    6.8783  -19.0251   17.1437 C   0  0  0  0  0  0  0  0  0  0  0  0
    7.9781  -18.3041   16.4663 C   0  0  0  0  0  0  0  0  0  0  0  0
    7.7665  -17.9580   15.0306 C   0  0  0  0  0  0  0  0  0  0  0  0
    8.7990  -17.1623   14.4248 N   0  0  0  0  0  0  0  0  0  0  0  0
    8.6902  -20.1165   20.2249 C   0  0  0  0  0  0  0  0  0  0  0  0
    7.8401  -19.7680   21.1154 O   0  0  0  0  0  0  0  0  0  0  0  0
   11.6192  -20.8778   22.3435 C   0  0  0  0  0  0  0  0  0  0  0  0
   10.3380  -20.1062   22.1149 C   0  0  2  0  0  0  0  0  0  0  0  0
   10.0143  -20.2611   20.6881 N   0  0  0  0  0  0  0  0  0  0  0  0
   10.5152  -18.6407   22.3717 C   0  0  0  0  0  0  0  0  0  0  0  0
   11.0936  -17.9051   21.5208 O   0  0  0  0  0  0  0  0  0  0  0  0
    7.5925  -13.9807   19.3093 N   0  0  0  0  0  0  0  0  0  0  0  0
    7.6053  -12.9456   20.3102 C   0  0  0  0  0  0  0  0  0  0  0  0
    7.4387  -11.7037   19.9328 N   0  0  0  0  0  0  0  0  0  0  0  0
    7.7968  -13.3069   21.6605 N   0  0  0  0  0  0  0  0  0  0  0  0
    8.2799  -14.6889   21.9156 C   0  0  0  0  0  0  0  0  0  0  0  0
    8.3979  -14.8050   23.3836 C   0  0  0  0  0  0  0  0  0  0  0  0
    8.8688  -16.0692   23.9178 C   0  0  0  0  0  0  0  0  0  0  0  0
   10.2642  -16.5266   23.7652 C   0  0  2  0  0  0  0  0  0  0  0  0
   10.0593  -18.0223   23.5417 N   0  0  0  0  0  0  0  0  0  0  0  0
   11.1485  -16.3629   24.8893 C   0  0  0  0  0  0  0  0  0  0  0  0
   11.0410  -17.2336   25.8408 O   0  0  0  0  0  0  0  0  0  0  0  0
   12.1226  -15.4047   25.1041 O   0  0  0  0  0  0  0  0  0  0  0  0
  2  8  1  0
  2  1  1  1
  3  2  1  0
  4  3  1  0
  5  4  1  0
  6  5  1  0
  7  6  1  0
  8  9  2  0
 11 10  1  6
 12 11  1  0
 12  8  1  0
 13 14  2  0
 13 11  1  0
 15 16  1  0
 16 17  2  0
 18 16  1  0
 18 19  1  0
 19 20  1  0
 20 21  1  0
 22 21  1  1
 22 24  1  0
 22 23  1  0
 23 13  1  0
 24 26  1  0
 25 24  2  0
M  END
$$$$
