KAR.pdb
     RDKit          3D

 26 25  0  0  1  0  0  0  0  0999 V2000
    7.5229  -12.9294   20.1265 N   0  0  0  0  0  0  0  0  0  0  0  0
    7.1691  -13.9041   21.0989 C   0  0  1  0  0  0  0  0  0  0  0  0
    7.4272  -15.3196   20.7301 C   0  0  0  0  0  0  0  0  0  0  0  0
    7.2878  -15.7103   19.3161 C   0  0  0  0  0  0  0  0  0  0  0  0
    7.4674  -17.1318   18.9481 C   0  0  0  0  0  0  0  0  0  0  0  0
    7.2762  -17.4797   17.5101 C   0  0  0  0  0  0  0  0  0  0  0  0
    7.4473  -18.8680   17.1787 N   0  0  0  0  0  0  0  0  0  0  0  0
    7.6939  -13.6523   22.4663 C   0  0  0  0  0  0  0  0  0  0  0  0
    8.9540  -13.5907   22.6795 O   0  0  0  0  0  0  0  0  0  0  0  0
    6.3862  -12.7575   25.8304 C   0  0  0  0  0  0  0  0  0  0  0  0
    7.4859  -13.2914   24.9389 C   0  0  2  0  0  0  0  0  0  0  0  0
    6.8859  -13.4675   23.6072 N   0  0  0  0  0  0  0  0  0  0  0  0
    7.9658  -14.6375   25.3892 C   0  0  0  0  0  0  0  0  0  0  0  0
    7.4549  -15.6929   24.9152 O   0  0  0  0  0  0  0  0  0  0  0  0
   15.8090  -16.2246   24.0097 N   0  0  0  0  0  0  0  0  0  0  0  0
   15.4172  -17.5170   24.5094 C   0  0  0  0  0  0  0  0  0  0  0  0
   16.2863  -18.4948   24.4741 N   0  0  0  0  0  0  0  0  0  0  0  0
   14.1120  -17.6828   25.0186 N   0  0  0  0  0  0  0  0  0  0  0  0
   13.2223  -16.4937   24.9639 C   0  0  0  0  0  0  0  0  0  0  0  0
   11.9461  -16.9228   25.5717 C   0  0  0  0  0  0  0  0  0  0  0  0
   10.8893  -15.9338   25.6740 C   0  0  0  0  0  0  0  0  0  0  0  0
    9.6898  -16.1354   26.5109 C   0  0  2  0  0  0  0  0  0  0  0  0
    8.9831  -14.7940   26.3378 N   0  0  0  0  0  0  0  0  0  0  0  0
    9.8865  -16.3548   27.9200 C   0  0  0  0  0  0  0  0  0  0  0  0
    9.7269  -15.3288   28.6925 O   0  0  0  0  0  0  0  0  0  0  0  0
   10.2143  -17.5217   28.5865 O   0  0  0  0  0  0  0  0  0  0  0  0
  2  8  1  0
  2  1  1  6
  3  2  1  0
  4  3  1  0
  5  4  1  0
  6  5  1  0
  7  6  1  0
  8  9  2  0
 11 10  1  1
 12 11  1  0
 12  8  1  0
 13 14  2  0
 13 11  1  0
 15 16  1  0
 16 17  2  0
 18 16  1  0
 18 19  1  0
 19 20  1  0
 20 21  1  0
 22 21  1  6
 22 24  1  0
 22 23  1  0
 23 13  1  0
 24 26  1  0
 25 24  2  0
M  END
$$$$
