KAR.pdb
     RDKit          3D

 26 25  0  0  1  0  0  0  0  0999 V2000
    7.7023  -17.6997   16.8699 N   0  0  0  0  0  0  0  0  0  0  0  0
    7.3536  -17.2137   18.1595 C   0  0  1  0  0  0  0  0  0  0  0  0
    7.4454  -18.1915   19.2737 C   0  0  0  0  0  0  0  0  0  0  0  0
    6.3045  -19.0943   19.5075 C   0  0  0  0  0  0  0  0  0  0  0  0
    6.3133  -19.9584   20.7082 C   0  0  0  0  0  0  0  0  0  0  0  0
    5.0778  -20.7525   20.9698 C   0  0  0  0  0  0  0  0  0  0  0  0
    5.1009  -21.5648   22.1556 N   0  0  0  0  0  0  0  0  0  0  0  0
    8.0252  -15.9505   18.5618 C   0  0  0  0  0  0  0  0  0  0  0  0
    9.2608  -15.7552   18.2930 O   0  0  0  0  0  0  0  0  0  0  0  0
    7.1191  -12.6044   19.8603 C   0  0  0  0  0  0  0  0  0  0  0  0
    8.1425  -13.7014   19.6641 C   0  0  2  0  0  0  0  0  0  0  0  0
    7.3901  -14.8956   19.2492 N   0  0  0  0  0  0  0  0  0  0  0  0
    8.8461  -14.0438   20.9419 C   0  0  0  0  0  0  0  0  0  0  0  0
    8.3687  -13.6800   22.0552 O   0  0  0  0  0  0  0  0  0  0  0  0
    7.3431  -19.6804   25.9160 N   0  0  0  0  0  0  0  0  0  0  0  0
    8.1035  -18.7396   26.6971 C   0  0  0  0  0  0  0  0  0  0  0  0
    7.9242  -18.7080   27.9930 N   0  0  0  0  0  0  0  0  0  0  0  0
    9.0137  -17.8865   26.0381 N   0  0  0  0  0  0  0  0  0  0  0  0
    8.6864  -17.5240   24.6346 C   0  0  0  0  0  0  0  0  0  0  0  0
    9.7518  -16.5955   24.2043 C   0  0  0  0  0  0  0  0  0  0  0  0
    9.6646  -16.0559   22.8601 C   0  0  0  0  0  0  0  0  0  0  0  0
   10.6906  -15.1564   22.2962 C   0  0  2  0  0  0  0  0  0  0  0  0
   10.0431  -14.7688   20.9698 N   0  0  0  0  0  0  0  0  0  0  0  0
   11.9863  -15.7152   22.0110 C   0  0  0  0  0  0  0  0  0  0  0  0
   12.1251  -16.2964   20.8629 O   0  0  0  0  0  0  0  0  0  0  0  0
   13.1303  -15.7137   22.7884 O   0  0  0  0  0  0  0  0  0  0  0  0
  2  8  1  0
  2  1  1  6
  3  2  1  0
  4  3  1  0
  5  4  1  0
  6  5  1  0
  7  6  1  0
  8  9  2  0
 11 10  1  1
 12 11  1  0
 12  8  1  0
 13 14  2  0
 13 11  1  0
 15 16  1  0
 16 17  2  0
 18 16  1  0
 18 19  1  0
 19 20  1  0
 20 21  1  0
 22 21  1  6
 22 24  1  0
 22 23  1  0
 23 13  1  0
 24 26  1  0
 25 24  2  0
M  END
$$$$
