KAR.pdb
     RDKit          3D

 26 25  0  0  1  0  0  0  0  0999 V2000
    6.1234  -18.0597   19.6072 N   0  0  0  0  0  0  0  0  0  0  0  0
    5.6251  -17.1114   20.5416 C   0  0  1  0  0  0  0  0  0  0  0  0
    4.2776  -17.3901   21.1009 C   0  0  0  0  0  0  0  0  0  0  0  0
    3.8137  -18.7881   21.1433 C   0  0  0  0  0  0  0  0  0  0  0  0
    2.4314  -19.0674   21.5902 C   0  0  0  0  0  0  0  0  0  0  0  0
    1.9827  -20.4888   21.5278 C   0  0  0  0  0  0  0  0  0  0  0  0
    0.6672  -20.7483   22.0460 N   0  0  0  0  0  0  0  0  0  0  0  0
    6.5529  -16.7692   21.6509 C   0  0  0  0  0  0  0  0  0  0  0  0
    7.3608  -17.6446   22.1181 O   0  0  0  0  0  0  0  0  0  0  0  0
    7.4459  -13.7678   23.6852 C   0  0  0  0  0  0  0  0  0  0  0  0
    7.6360  -15.2175   23.2961 C   0  0  2  0  0  0  0  0  0  0  0  0
    6.6248  -15.5024   22.2661 N   0  0  0  0  0  0  0  0  0  0  0  0
    7.3710  -16.1432   24.4440 C   0  0  0  0  0  0  0  0  0  0  0  0
    6.2074  -16.2488   24.9283 O   0  0  0  0  0  0  0  0  0  0  0  0
    6.8202  -24.1028   24.5614 N   0  0  0  0  0  0  0  0  0  0  0  0
    6.6891  -23.8859   25.9789 C   0  0  0  0  0  0  0  0  0  0  0  0
    6.3245  -24.8881   26.7373 N   0  0  0  0  0  0  0  0  0  0  0  0
    6.9580  -22.6022   26.4988 N   0  0  0  0  0  0  0  0  0  0  0  0
    7.0751  -21.4976   25.5116 C   0  0  0  0  0  0  0  0  0  0  0  0
    7.4337  -20.2984   26.2964 C   0  0  0  0  0  0  0  0  0  0  0  0
    7.7028  -19.0760   25.5625 C   0  0  0  0  0  0  0  0  0  0  0  0
    8.0743  -17.8129   26.2306 C   0  0  2  0  0  0  0  0  0  0  0  0
    8.3759  -16.9232   25.0280 N   0  0  0  0  0  0  0  0  0  0  0  0
    9.2374  -17.8217   27.0789 C   0  0  0  0  0  0  0  0  0  0  0  0
    9.1190  -18.4289   28.2157 O   0  0  0  0  0  0  0  0  0  0  0  0
   10.4897  -17.2798   26.8526 O   0  0  0  0  0  0  0  0  0  0  0  0
  2  8  1  0
  2  1  1  1
  3  2  1  0
  4  3  1  0
  5  4  1  0
  6  5  1  0
  7  6  1  0
  8  9  2  0
 11 10  1  1
 12 11  1  0
 12  8  1  0
 13 14  2  0
 13 11  1  0
 15 16  1  0
 16 17  2  0
 18 16  1  0
 18 19  1  0
 19 20  1  0
 20 21  1  0
 22 21  1  6
 22 24  1  0
 22 23  1  0
 23 13  1  0
 24 26  1  0
 25 24  2  0
M  END
$$$$
