DSC.pdb
     RDKit          3D

 21 20  0  0  1  0  0  0  0  0999 V2000
   13.4554  -11.2616  -11.2238 N   0  0  0  0  0  0  0  0  0  0  0  0
   14.8862  -11.1981  -11.0294 C   0  0  1  0  0  0  0  0  0  0  0  0
   15.5772  -12.0534  -12.0403 C   0  0  0  0  0  0  0  0  0  0  0  0
   15.3123  -13.4824  -11.8091 C   0  0  0  0  0  0  0  0  0  0  0  0
   14.3986  -14.0454  -12.4456 O   0  0  0  0  0  0  0  0  0  0  0  0
   15.3155   -9.7740  -11.1350 C   0  0  0  0  0  0  0  0  0  0  0  0
   14.8433   -9.0876  -12.1007 O   0  0  0  0  0  0  0  0  0  0  0  0
   16.0598  -14.2062  -10.8988 O   0  0  0  0  0  0  0  0  0  0  0  0
   16.5236   -5.8501   -8.8594 O   0  0  0  0  0  0  0  0  0  0  0  0
   16.1665   -7.1970   -8.8548 C   0  0  0  0  0  0  0  0  0  0  0  0
   16.5140   -7.8050  -10.1918 C   0  0  2  0  0  0  0  0  0  0  0  0
   16.2152   -9.2150  -10.1928 N   0  0  0  0  0  0  0  0  0  0  0  0
   17.9102   -7.6020  -10.5723 C   0  0  0  0  0  0  0  0  0  0  0  0
   18.8834   -8.2359  -10.0854 O   0  0  0  0  0  0  0  0  0  0  0  0
   18.2327   -6.6319  -11.5554 N   0  0  0  0  0  0  0  0  0  0  0  0
   19.6001   -6.4482  -11.9938 C   0  0  1  0  0  0  0  0  0  0  0  0
   20.0332   -7.7404  -12.6527 C   0  0  0  0  0  0  0  0  0  0  0  0
   18.9355   -8.1550  -14.0378 S   0  0  0  0  0  0  0  0  0  0  0  0
   19.7281   -5.3748  -12.9954 C   0  0  0  0  0  0  0  0  0  0  0  0
   18.7552   -4.7981  -13.5427 O   0  0  0  0  0  0  0  0  0  0  0  0
   21.0051   -4.9744  -13.3582 O   0  0  0  0  0  0  0  0  0  0  0  0
  2  1  1  6
  2  3  1  0
  3  4  1  0
  4  8  1  0
  4  5  2  0
  6  2  1  0
  7  6  2  0
 10  9  1  0
 11 10  1  1
 11 12  1  0
 12  6  1  0
 13 11  1  0
 13 15  1  0
 14 13  2  0
 16 15  1  0
 16 19  1  0
 16 17  1  6
 18 17  1  0
 19 21  1  0
 20 19  2  0
M  END
$$$$
