DSC.pdb
     RDKit          3D

 21 20  0  0  1  0  0  0  0  0999 V2000
   17.5355  -11.2264  -14.8914 N   0  0  0  0  0  0  0  0  0  0  0  0
   17.9501  -10.1396  -15.7493 C   0  0  1  0  0  0  0  0  0  0  0  0
   16.7758   -9.2820  -16.0906 C   0  0  0  0  0  0  0  0  0  0  0  0
   15.7937  -10.0126  -16.9075 C   0  0  0  0  0  0  0  0  0  0  0  0
   14.6354  -10.1732  -16.4721 O   0  0  0  0  0  0  0  0  0  0  0  0
   19.0094   -9.3597  -15.0470 C   0  0  0  0  0  0  0  0  0  0  0  0
   18.7139   -8.8551  -13.9135 O   0  0  0  0  0  0  0  0  0  0  0  0
   16.1368  -10.5217  -18.1461 O   0  0  0  0  0  0  0  0  0  0  0  0
   22.8732   -9.0079  -16.6425 O   0  0  0  0  0  0  0  0  0  0  0  0
   22.6759   -8.9672  -15.2637 C   0  0  0  0  0  0  0  0  0  0  0  0
   21.3067   -8.4005  -14.9769 C   0  0  2  0  0  0  0  0  0  0  0  0
   20.2920   -9.1914  -15.6267 N   0  0  0  0  0  0  0  0  0  0  0  0
   21.1659   -7.0021  -15.3769 C   0  0  0  0  0  0  0  0  0  0  0  0
   20.7918   -6.6186  -16.5167 O   0  0  0  0  0  0  0  0  0  0  0  0
   21.4622   -5.9753  -14.4445 N   0  0  0  0  0  0  0  0  0  0  0  0
   21.4615   -4.5852  -14.8488 C   0  0  1  0  0  0  0  0  0  0  0  0
   20.7541   -3.8060  -13.7608 C   0  0  0  0  0  0  0  0  0  0  0  0
   18.9874   -4.2210  -13.7179 S   0  0  0  0  0  0  0  0  0  0  0  0
   22.8238   -4.0370  -14.9731 C   0  0  0  0  0  0  0  0  0  0  0  0
   23.8644   -4.6381  -14.6067 O   0  0  0  0  0  0  0  0  0  0  0  0
   22.9675   -2.7756  -15.5306 O   0  0  0  0  0  0  0  0  0  0  0  0
  2  1  1  1
  2  3  1  0
  3  4  1  0
  4  8  1  0
  4  5  2  0
  6  2  1  0
  7  6  2  0
 10  9  1  0
 11 10  1  6
 11 12  1  0
 12  6  1  0
 13 11  1  0
 13 15  1  0
 14 13  2  0
 16 15  1  0
 16 19  1  0
 16 17  1  1
 18 17  1  0
 19 21  1  0
 20 19  2  0
M  END
$$$$
