DSC.pdb
     RDKit          3D

 21 20  0  0  1  0  0  0  0  0999 V2000
   20.7940  -11.5254  -19.9807 N   0  0  0  0  0  0  0  0  0  0  0  0
   21.0939  -11.4211  -18.5707 C   0  0  1  0  0  0  0  0  0  0  0  0
   22.5440  -11.6912  -18.3359 C   0  0  0  0  0  0  0  0  0  0  0  0
   22.8826  -13.0964  -18.6124 C   0  0  0  0  0  0  0  0  0  0  0  0
   23.8412  -13.3569  -19.3676 O   0  0  0  0  0  0  0  0  0  0  0  0
   20.7107  -10.0574  -18.1048 C   0  0  0  0  0  0  0  0  0  0  0  0
   21.0654   -9.0680  -18.8274 O   0  0  0  0  0  0  0  0  0  0  0  0
   22.1545  -14.1276  -18.0488 O   0  0  0  0  0  0  0  0  0  0  0  0
   18.6426   -9.4510  -14.4719 O   0  0  0  0  0  0  0  0  0  0  0  0
   18.4030   -8.6201  -15.5645 C   0  0  0  0  0  0  0  0  0  0  0  0
   19.6432   -8.5626  -16.4229 C   0  0  2  0  0  0  0  0  0  0  0  0
   19.9806   -9.8791  -16.9029 N   0  0  0  0  0  0  0  0  0  0  0  0
   20.7950   -7.9845  -15.7342 C   0  0  0  0  0  0  0  0  0  0  0  0
   21.7540   -8.6503  -15.2619 O   0  0  0  0  0  0  0  0  0  0  0  0
   20.8751   -6.5785  -15.5656 N   0  0  0  0  0  0  0  0  0  0  0  0
   21.9845   -5.9801  -14.8536 C   0  0  1  0  0  0  0  0  0  0  0  0
   22.6752   -5.0387  -15.8170 C   0  0  0  0  0  0  0  0  0  0  0  0
   23.9537   -4.0716  -14.9652 S   0  0  0  0  0  0  0  0  0  0  0  0
   21.5427   -5.1837  -13.6950 C   0  0  0  0  0  0  0  0  0  0  0  0
   20.5114   -4.4662  -13.6816 O   0  0  0  0  0  0  0  0  0  0  0  0
   22.3147   -5.2286  -12.5441 O   0  0  0  0  0  0  0  0  0  0  0  0
  2  1  1  6
  2  3  1  0
  3  4  1  0
  4  8  1  0
  4  5  2  0
  6  2  1  0
  7  6  2  0
 10  9  1  0
 11 10  1  1
 11 12  1  0
 12  6  1  0
 13 11  1  0
 13 15  1  0
 14 13  2  0
 16 15  1  0
 16 19  1  0
 16 17  1  6
 18 17  1  0
 19 21  1  0
 20 19  2  0
M  END
$$$$
