DSC.pdb
     RDKit          3D

 21 20  0  0  1  0  0  0  0  0999 V2000
   14.7010  -11.2659  -15.8863 N   0  0  0  0  0  0  0  0  0  0  0  0
   15.8266  -10.9610  -15.0324 C   0  0  1  0  0  0  0  0  0  0  0  0
   16.6660  -12.1812  -14.8392 C   0  0  0  0  0  0  0  0  0  0  0  0
   15.9137  -13.2526  -14.1671 C   0  0  0  0  0  0  0  0  0  0  0  0
   15.4362  -13.0454  -13.0330 O   0  0  0  0  0  0  0  0  0  0  0  0
   16.6078   -9.8546  -15.6560 C   0  0  0  0  0  0  0  0  0  0  0  0
   16.3183   -9.5342  -16.8562 O   0  0  0  0  0  0  0  0  0  0  0  0
   15.7303  -14.4813  -14.7736 O   0  0  0  0  0  0  0  0  0  0  0  0
   17.8850   -5.8401  -16.3116 O   0  0  0  0  0  0  0  0  0  0  0  0
   17.2385   -6.9912  -15.8660 C   0  0  0  0  0  0  0  0  0  0  0  0
   18.2727   -8.0128  -15.4596 C   0  0  2  0  0  0  0  0  0  0  0  0
   17.6315   -9.1915  -14.9335 N   0  0  0  0  0  0  0  0  0  0  0  0
   19.2338   -7.5036  -14.4837 C   0  0  0  0  0  0  0  0  0  0  0  0
   18.9733   -7.2830  -13.2714 O   0  0  0  0  0  0  0  0  0  0  0  0
   20.5635   -7.2259  -14.8917 N   0  0  0  0  0  0  0  0  0  0  0  0
   21.5358   -6.7146  -13.9488 C   0  0  1  0  0  0  0  0  0  0  0  0
   22.8894   -7.2393  -14.3775 C   0  0  0  0  0  0  0  0  0  0  0  0
   22.9581   -9.0463  -14.2185 S   0  0  0  0  0  0  0  0  0  0  0  0
   21.6068   -5.2426  -13.9598 C   0  0  0  0  0  0  0  0  0  0  0  0
   21.0883   -4.5159  -14.8439 O   0  0  0  0  0  0  0  0  0  0  0  0
   22.2901   -4.6180  -12.9274 O   0  0  0  0  0  0  0  0  0  0  0  0
  2  1  1  6
  2  3  1  0
  3  4  1  0
  4  8  1  0
  4  5  2  0
  6  2  1  0
  7  6  2  0
 10  9  1  0
 11 10  1  1
 11 12  1  0
 12  6  1  0
 13 11  1  0
 13 15  1  0
 14 13  2  0
 16 15  1  0
 16 19  1  0
 16 17  1  6
 18 17  1  0
 19 21  1  0
 20 19  2  0
M  END
$$$$
