DSC.pdb
     RDKit          3D

 21 20  0  0  1  0  0  0  0  0999 V2000
   17.8523  -12.2551  -15.3764 N   0  0  0  0  0  0  0  0  0  0  0  0
   18.0579  -11.1887  -16.3300 C   0  0  1  0  0  0  0  0  0  0  0  0
   16.7890  -10.4248  -16.5231 C   0  0  0  0  0  0  0  0  0  0  0  0
   15.7415  -11.2630  -17.1278 C   0  0  0  0  0  0  0  0  0  0  0  0
   15.8405  -11.5950  -18.3265 O   0  0  0  0  0  0  0  0  0  0  0  0
   19.1529  -10.3096  -15.8283 C   0  0  0  0  0  0  0  0  0  0  0  0
   19.0485   -9.8612  -14.6387 O   0  0  0  0  0  0  0  0  0  0  0  0
   14.6530  -11.6854  -16.3876 O   0  0  0  0  0  0  0  0  0  0  0  0
   23.6561   -8.7145  -16.4193 O   0  0  0  0  0  0  0  0  0  0  0  0
   22.6130   -9.4814  -16.9345 C   0  0  0  0  0  0  0  0  0  0  0  0
   21.3540   -9.1910  -16.1542 C   0  0  2  0  0  0  0  0  0  0  0  0
   20.2624   -9.9903  -16.6509 N   0  0  0  0  0  0  0  0  0  0  0  0
   20.9747   -7.7799  -16.1759 C   0  0  0  0  0  0  0  0  0  0  0  0
   20.3392   -7.2246  -17.1106 O   0  0  0  0  0  0  0  0  0  0  0  0
   21.3291   -6.9442  -15.0861 N   0  0  0  0  0  0  0  0  0  0  0  0
   21.1265   -5.5124  -15.1546 C   0  0  1  0  0  0  0  0  0  0  0  0
   19.8143   -5.2153  -14.4609 C   0  0  0  0  0  0  0  0  0  0  0  0
   19.5872   -3.4261  -14.2542 S   0  0  0  0  0  0  0  0  0  0  0  0
   22.1811   -4.7628  -14.4490 C   0  0  0  0  0  0  0  0  0  0  0  0
   23.0325   -5.2863  -13.6877 O   0  0  0  0  0  0  0  0  0  0  0  0
   22.2384   -3.3902  -14.6371 O   0  0  0  0  0  0  0  0  0  0  0  0
  2  1  1  1
  2  3  1  0
  3  4  1  0
  4  8  1  0
  4  5  2  0
  6  2  1  0
  7  6  2  0
 10  9  1  0
 11 10  1  6
 11 12  1  0
 12  6  1  0
 13 11  1  0
 13 15  1  0
 14 13  2  0
 16 15  1  0
 16 19  1  0
 16 17  1  1
 18 17  1  0
 19 21  1  0
 20 19  2  0
M  END
$$$$
