DSC.pdb
     RDKit          3D

 21 20  0  0  1  0  0  0  0  0999 V2000
   30.3561  -30.9315  -19.3540 N   0  0  0  0  0  0  0  0  0  0  0  0
   30.7072  -31.4066  -18.0349 C   0  0  1  0  0  0  0  0  0  0  0  0
   31.7510  -30.5226  -17.4350 C   0  0  0  0  0  0  0  0  0  0  0  0
   33.0662  -30.7415  -18.0578 C   0  0  0  0  0  0  0  0  0  0  0  0
   33.1701  -31.5583  -18.9955 O   0  0  0  0  0  0  0  0  0  0  0  0
   29.4729  -31.4382  -17.1989 C   0  0  0  0  0  0  0  0  0  0  0  0
   29.6051  -31.7389  -15.9665 O   0  0  0  0  0  0  0  0  0  0  0  0
   34.1841  -30.0569  -17.6186 O   0  0  0  0  0  0  0  0  0  0  0  0
   26.0625  -29.1270  -17.7752 O   0  0  0  0  0  0  0  0  0  0  0  0
   25.8704  -30.5058  -17.7153 C   0  0  0  0  0  0  0  0  0  0  0  0
   27.0136  -31.1314  -16.9537 C   0  0  2  0  0  0  0  0  0  0  0  0
   28.2060  -31.1442  -17.7630 N   0  0  0  0  0  0  0  0  0  0  0  0
   26.7243  -32.4866  -16.4898 C   0  0  0  0  0  0  0  0  0  0  0  0
   26.9685  -33.5340  -17.1449 O   0  0  0  0  0  0  0  0  0  0  0  0
   26.1267  -32.6771  -15.2177 N   0  0  0  0  0  0  0  0  0  0  0  0
   25.8406  -34.0084  -14.7259 C   0  0  1  0  0  0  0  0  0  0  0  0
   26.1503  -34.0111  -13.2443 C   0  0  0  0  0  0  0  0  0  0  0  0
   25.8290  -35.6458  -12.5234 S   0  0  0  0  0  0  0  0  0  0  0  0
   24.4209  -34.3709  -14.8831 C   0  0  0  0  0  0  0  0  0  0  0  0
   23.4893  -33.5390  -15.0199 O   0  0  0  0  0  0  0  0  0  0  0  0
   24.0906  -35.7176  -14.8801 O   0  0  0  0  0  0  0  0  0  0  0  0
  2  1  1  6
  2  3  1  0
  3  4  1  0
  4  8  1  0
  4  5  2  0
  6  2  1  0
  7  6  2  0
 10  9  1  0
 11 10  1  6
 11 12  1  0
 12  6  1  0
 13 11  1  0
 13 15  1  0
 14 13  2  0
 16 15  1  0
 16 19  1  0
 16 17  1  1
 18 17  1  0
 19 21  1  0
 20 19  2  0
M  END
$$$$
