DSC.pdb
     RDKit          3D

 21 20  0  0  1  0  0  0  0  0999 V2000
   21.8578  -12.3767  -17.1465 N   0  0  0  0  0  0  0  0  0  0  0  0
   21.8053  -11.8392  -18.4871 C   0  0  1  0  0  0  0  0  0  0  0  0
   20.9976  -12.7371  -19.3659 C   0  0  0  0  0  0  0  0  0  0  0  0
   21.4648  -14.1304  -19.2885 C   0  0  0  0  0  0  0  0  0  0  0  0
   20.7066  -15.0506  -19.6564 O   0  0  0  0  0  0  0  0  0  0  0  0
   21.2223  -10.4681  -18.4250 C   0  0  0  0  0  0  0  0  0  0  0  0
   20.2963  -10.1849  -19.2552 O   0  0  0  0  0  0  0  0  0  0  0  0
   22.7281  -14.4316  -18.8148 O   0  0  0  0  0  0  0  0  0  0  0  0
   19.0289   -7.0868  -17.0485 O   0  0  0  0  0  0  0  0  0  0  0  0
   19.5810   -8.3488  -17.2583 C   0  0  0  0  0  0  0  0  0  0  0  0
   21.0815   -8.2209  -17.3606 C   0  0  2  0  0  0  0  0  0  0  0  0
   21.6876   -9.5235  -17.4760 N   0  0  0  0  0  0  0  0  0  0  0  0
   21.6772   -7.5036  -16.2355 C   0  0  0  0  0  0  0  0  0  0  0  0
   21.8949   -8.0064  -15.1015 O   0  0  0  0  0  0  0  0  0  0  0  0
   22.0497   -6.1441  -16.3919 N   0  0  0  0  0  0  0  0  0  0  0  0
   22.6049   -5.3962  -15.2835 C   0  0  1  0  0  0  0  0  0  0  0  0
   23.6275   -4.4405  -15.8598 C   0  0  0  0  0  0  0  0  0  0  0  0
   24.9893   -5.3512  -16.6417 S   0  0  0  0  0  0  0  0  0  0  0  0
   21.5875   -4.5898  -14.5860 C   0  0  0  0  0  0  0  0  0  0  0  0
   20.4423   -4.3470  -15.0423 O   0  0  0  0  0  0  0  0  0  0  0  0
   21.9145   -4.0644  -13.3452 O   0  0  0  0  0  0  0  0  0  0  0  0
  2  1  1  1
  2  3  1  0
  3  4  1  0
  4  8  1  0
  4  5  2  0
  6  2  1  0
  7  6  2  0
 10  9  1  0
 11 10  1  1
 11 12  1  0
 12  6  1  0
 13 11  1  0
 13 15  1  0
 14 13  2  0
 16 15  1  0
 16 19  1  0
 16 17  1  6
 18 17  1  0
 19 21  1  0
 20 19  2  0
M  END
$$$$
