DSC.pdb
     RDKit          3D

 21 20  0  0  1  0  0  0  0  0999 V2000
   18.6516  -12.8027  -16.0491 N   0  0  0  0  0  0  0  0  0  0  0  0
   17.7035  -11.7122  -16.0780 C   0  0  1  0  0  0  0  0  0  0  0  0
   16.8884  -11.7110  -14.8264 C   0  0  0  0  0  0  0  0  0  0  0  0
   16.0765  -12.9329  -14.7104 C   0  0  0  0  0  0  0  0  0  0  0  0
   15.3079  -13.2467  -15.6421 O   0  0  0  0  0  0  0  0  0  0  0  0
   18.4558  -10.4350  -16.2403 C   0  0  0  0  0  0  0  0  0  0  0  0
   19.6944  -10.4394  -15.9355 O   0  0  0  0  0  0  0  0  0  0  0  0
   16.1537  -13.7342  -13.5865 O   0  0  0  0  0  0  0  0  0  0  0  0
   16.5483   -6.8264  -17.1231 O   0  0  0  0  0  0  0  0  0  0  0  0
   17.7096   -7.1211  -17.8345 C   0  0  0  0  0  0  0  0  0  0  0  0
   18.5562   -8.0737  -17.0258 C   0  0  2  0  0  0  0  0  0  0  0  0
   17.8089   -9.2664  -16.7152 N   0  0  0  0  0  0  0  0  0  0  0  0
   19.0686   -7.4838  -15.7910 C   0  0  0  0  0  0  0  0  0  0  0  0
   18.5558   -7.6494  -14.6528 O   0  0  0  0  0  0  0  0  0  0  0  0
   20.2228   -6.6606  -15.8363 N   0  0  0  0  0  0  0  0  0  0  0  0
   20.6873   -5.9709  -14.6512 C   0  0  1  0  0  0  0  0  0  0  0  0
   22.1889   -6.1524  -14.5911 C   0  0  0  0  0  0  0  0  0  0  0  0
   22.8973   -5.1984  -13.2187 S   0  0  0  0  0  0  0  0  0  0  0  0
   20.4170   -4.5232  -14.7031 C   0  0  0  0  0  0  0  0  0  0  0  0
   20.1432   -3.8182  -13.6998 O   0  0  0  0  0  0  0  0  0  0  0  0
   20.4682   -3.8972  -15.9393 O   0  0  0  0  0  0  0  0  0  0  0  0
  2  1  1  1
  2  3  1  0
  3  4  1  0
  4  8  1  0
  4  5  2  0
  6  2  1  0
  7  6  2  0
 10  9  1  0
 11 10  1  1
 11 12  1  0
 12  6  1  0
 13 11  1  0
 13 15  1  0
 14 13  2  0
 16 15  1  0
 16 19  1  0
 16 17  1  6
 18 17  1  0
 19 21  1  0
 20 19  2  0
M  END
$$$$
