DSC.pdb
     RDKit          3D

 21 20  0  0  1  0  0  0  0  0999 V2000
   17.7061  -10.7217  -16.3746 N   0  0  0  0  0  0  0  0  0  0  0  0
   18.5911   -9.8761  -17.1432 C   0  0  1  0  0  0  0  0  0  0  0  0
   17.8144   -9.1334  -18.1805 C   0  0  0  0  0  0  0  0  0  0  0  0
   17.2506  -10.0457  -19.1881 C   0  0  0  0  0  0  0  0  0  0  0  0
   16.0808   -9.8700  -19.5852 O   0  0  0  0  0  0  0  0  0  0  0  0
   19.2844   -8.9433  -16.2089 C   0  0  0  0  0  0  0  0  0  0  0  0
   18.5568   -8.2453  -15.4276 O   0  0  0  0  0  0  0  0  0  0  0  0
   17.9975  -11.0913  -19.6981 O   0  0  0  0  0  0  0  0  0  0  0  0
   23.4726   -7.4034  -14.3468 O   0  0  0  0  0  0  0  0  0  0  0  0
   22.8449   -8.2811  -15.2285 C   0  0  0  0  0  0  0  0  0  0  0  0
   21.3763   -7.9406  -15.3028 C   0  0  2  0  0  0  0  0  0  0  0  0
   20.6984   -8.8437  -16.1985 N   0  0  0  0  0  0  0  0  0  0  0  0
   21.1241   -6.5621  -15.7169 C   0  0  0  0  0  0  0  0  0  0  0  0
   21.0569   -6.1758  -16.9136 O   0  0  0  0  0  0  0  0  0  0  0  0
   20.9368   -5.5596  -14.7312 N   0  0  0  0  0  0  0  0  0  0  0  0
   20.8689   -4.1615  -15.1007 C   0  0  1  0  0  0  0  0  0  0  0  0
   19.4324   -3.7218  -14.9154 C   0  0  0  0  0  0  0  0  0  0  0  0
   19.2677   -1.9339  -15.1832 S   0  0  0  0  0  0  0  0  0  0  0  0
   21.7078   -3.3121  -14.2366 C   0  0  0  0  0  0  0  0  0  0  0  0
   21.8851   -3.5091  -13.0085 O   0  0  0  0  0  0  0  0  0  0  0  0
   22.3435   -2.2244  -14.8159 O   0  0  0  0  0  0  0  0  0  0  0  0
  2  1  1  1
  2  3  1  0
  3  4  1  0
  4  8  1  0
  4  5  2  0
  6  2  1  0
  7  6  2  0
 10  9  1  0
 11 10  1  6
 11 12  1  0
 12  6  1  0
 13 11  1  0
 13 15  1  0
 14 13  2  0
 16 15  1  0
 16 19  1  0
 16 17  1  1
 18 17  1  0
 19 21  1  0
 20 19  2  0
M  END
$$$$
