DSC.pdb
     RDKit          3D

 21 20  0  0  1  0  0  0  0  0999 V2000
   19.1558  -12.8780  -16.4865 N   0  0  0  0  0  0  0  0  0  0  0  0
   18.8573  -11.4900  -16.7570 C   0  0  1  0  0  0  0  0  0  0  0  0
   17.3982  -11.2347  -16.5653 C   0  0  0  0  0  0  0  0  0  0  0  0
   16.5911  -11.9299  -17.5807 C   0  0  0  0  0  0  0  0  0  0  0  0
   17.0679  -12.1147  -18.7189 O   0  0  0  0  0  0  0  0  0  0  0  0
   19.6831  -10.6426  -15.8495 C   0  0  0  0  0  0  0  0  0  0  0  0
   19.5103  -10.7845  -14.5937 O   0  0  0  0  0  0  0  0  0  0  0  0
   15.3161  -12.3788  -17.2908 O   0  0  0  0  0  0  0  0  0  0  0  0
   23.1890   -8.8987  -17.1081 O   0  0  0  0  0  0  0  0  0  0  0  0
   22.9097   -9.1979  -15.7762 C   0  0  0  0  0  0  0  0  0  0  0  0
   21.4509   -8.9227  -15.5034 C   0  0  2  0  0  0  0  0  0  0  0  0
   20.6209   -9.7176  -16.3733 N   0  0  0  0  0  0  0  0  0  0  0  0
   21.0940   -7.5126  -15.6432 C   0  0  0  0  0  0  0  0  0  0  0  0
   20.5963   -7.0004  -16.6804 O   0  0  0  0  0  0  0  0  0  0  0  0
   21.3082   -6.6265  -14.5566 N   0  0  0  0  0  0  0  0  0  0  0  0
   21.1662   -5.1961  -14.7285 C   0  0  1  0  0  0  0  0  0  0  0  0
   19.7708   -4.8296  -14.2704 C   0  0  0  0  0  0  0  0  0  0  0  0
   19.5535   -3.0274  -14.2504 S   0  0  0  0  0  0  0  0  0  0  0  0
   22.1191   -4.4349  -13.9013 C   0  0  0  0  0  0  0  0  0  0  0  0
   22.5451   -4.8148  -12.7820 O   0  0  0  0  0  0  0  0  0  0  0  0
   22.5761   -3.2200  -14.3893 O   0  0  0  0  0  0  0  0  0  0  0  0
  2  1  1  1
  2  3  1  0
  3  4  1  0
  4  8  1  0
  4  5  2  0
  6  2  1  0
  7  6  2  0
 10  9  1  0
 11 10  1  6
 11 12  1  0
 12  6  1  0
 13 11  1  0
 13 15  1  0
 14 13  2  0
 16 15  1  0
 16 19  1  0
 16 17  1  1
 18 17  1  0
 19 21  1  0
 20 19  2  0
M  END
$$$$
