DSC.pdb
     RDKit          3D

 21 20  0  0  1  0  0  0  0  0999 V2000
   17.0324  -10.2003  -17.6201 N   0  0  0  0  0  0  0  0  0  0  0  0
   16.5698   -9.2997  -16.5886 C   0  0  1  0  0  0  0  0  0  0  0  0
   16.6715   -9.9587  -15.2521 C   0  0  0  0  0  0  0  0  0  0  0  0
   15.7835  -11.1284  -15.1585 C   0  0  0  0  0  0  0  0  0  0  0  0
   14.5661  -10.9921  -15.3961 O   0  0  0  0  0  0  0  0  0  0  0  0
   17.3873   -8.0540  -16.6463 C   0  0  0  0  0  0  0  0  0  0  0  0
   18.5802   -8.1535  -17.0870 O   0  0  0  0  0  0  0  0  0  0  0  0
   16.2788  -12.3716  -14.8116 O   0  0  0  0  0  0  0  0  0  0  0  0
   15.8850   -4.3542  -15.2913 O   0  0  0  0  0  0  0  0  0  0  0  0
   16.6977   -4.4033  -16.4220 C   0  0  0  0  0  0  0  0  0  0  0  0
   17.6170   -5.5959  -16.3184 C   0  0  2  0  0  0  0  0  0  0  0  0
   16.8495   -6.8122  -16.2242 N   0  0  0  0  0  0  0  0  0  0  0  0
   18.5424   -5.5144  -15.1904 C   0  0  0  0  0  0  0  0  0  0  0  0
   18.3050   -5.9609  -14.0370 O   0  0  0  0  0  0  0  0  0  0  0  0
   19.8066   -4.8961  -15.3669 N   0  0  0  0  0  0  0  0  0  0  0  0
   20.6958   -4.6946  -14.2423 C   0  0  1  0  0  0  0  0  0  0  0  0
   21.9168   -5.5569  -14.4809 C   0  0  0  0  0  0  0  0  0  0  0  0
   23.2120   -5.1880  -13.2636 S   0  0  0  0  0  0  0  0  0  0  0  0
   21.1534   -3.2981  -14.1329 C   0  0  0  0  0  0  0  0  0  0  0  0
   21.4069   -2.7198  -13.0466 O   0  0  0  0  0  0  0  0  0  0  0  0
   21.3151   -2.5743  -15.3045 O   0  0  0  0  0  0  0  0  0  0  0  0
  2  1  1  6
  2  3  1  0
  3  4  1  0
  4  8  1  0
  4  5  2  0
  6  2  1  0
  7  6  2  0
 10  9  1  0
 11 10  1  1
 11 12  1  0
 12  6  1  0
 13 11  1  0
 13 15  1  0
 14 13  2  0
 16 15  1  0
 16 19  1  0
 16 17  1  6
 18 17  1  0
 19 21  1  0
 20 19  2  0
M  END
$$$$
