DSC.pdb
     RDKit          3D

 21 20  0  0  1  0  0  0  0  0999 V2000
   18.3872  -12.2427  -16.4153 N   0  0  0  0  0  0  0  0  0  0  0  0
   17.5963  -11.0749  -16.0997 C   0  0  1  0  0  0  0  0  0  0  0  0
   17.0677  -11.1774  -14.7065 C   0  0  0  0  0  0  0  0  0  0  0  0
   16.1057  -12.2831  -14.5747 C   0  0  0  0  0  0  0  0  0  0  0  0
   15.2427  -12.4513  -15.4602 O   0  0  0  0  0  0  0  0  0  0  0  0
   18.4499   -9.8644  -16.2716 C   0  0  0  0  0  0  0  0  0  0  0  0
   19.6506   -9.9265  -15.8457 O   0  0  0  0  0  0  0  0  0  0  0  0
   16.1453  -13.1345  -13.4862 O   0  0  0  0  0  0  0  0  0  0  0  0
   16.8641   -6.1849  -17.3931 O   0  0  0  0  0  0  0  0  0  0  0  0
   18.0587   -6.5526  -18.0090 C   0  0  0  0  0  0  0  0  0  0  0  0
   18.7778   -7.5517  -17.1355 C   0  0  2  0  0  0  0  0  0  0  0  0
   17.9361   -8.6945  -16.8856 N   0  0  0  0  0  0  0  0  0  0  0  0
   19.2260   -6.9885  -15.8638 C   0  0  0  0  0  0  0  0  0  0  0  0
   18.6044   -7.0992  -14.7741 O   0  0  0  0  0  0  0  0  0  0  0  0
   20.4413   -6.2591  -15.8120 N   0  0  0  0  0  0  0  0  0  0  0  0
   20.8405   -5.5701  -14.6030 C   0  0  1  0  0  0  0  0  0  0  0  0
   22.0097   -6.3352  -14.0207 C   0  0  0  0  0  0  0  0  0  0  0  0
   22.7110   -5.4524  -12.5980 S   0  0  0  0  0  0  0  0  0  0  0  0
   21.2977   -4.1943  -14.8669 C   0  0  0  0  0  0  0  0  0  0  0  0
   21.5302   -3.7335  -16.0124 O   0  0  0  0  0  0  0  0  0  0  0  0
   21.4837   -3.3525  -13.7808 O   0  0  0  0  0  0  0  0  0  0  0  0
  2  1  1  1
  2  3  1  0
  3  4  1  0
  4  8  1  0
  4  5  2  0
  6  2  1  0
  7  6  2  0
 10  9  1  0
 11 10  1  1
 11 12  1  0
 12  6  1  0
 13 11  1  0
 13 15  1  0
 14 13  2  0
 16 15  1  0
 16 19  1  0
 16 17  1  6
 18 17  1  0
 19 21  1  0
 20 19  2  0
M  END
$$$$
