DSC.pdb
     RDKit          3D

 21 20  0  0  1  0  0  0  0  0999 V2000
   18.3769  -12.8327  -16.8925 N   0  0  0  0  0  0  0  0  0  0  0  0
   17.6172  -11.6035  -16.8641 C   0  0  1  0  0  0  0  0  0  0  0  0
   16.8641  -11.4982  -15.5785 C   0  0  0  0  0  0  0  0  0  0  0  0
   15.8930  -12.5940  -15.4310 C   0  0  0  0  0  0  0  0  0  0  0  0
   14.9929  -12.7319  -16.2842 O   0  0  0  0  0  0  0  0  0  0  0  0
   18.5589  -10.4607  -17.0398 C   0  0  0  0  0  0  0  0  0  0  0  0
   19.7693  -10.6354  -16.6775 O   0  0  0  0  0  0  0  0  0  0  0  0
   15.9647  -13.4690  -14.3631 O   0  0  0  0  0  0  0  0  0  0  0  0
   19.4357   -6.3104  -19.2946 O   0  0  0  0  0  0  0  0  0  0  0  0
   18.4788   -7.2640  -18.9532 C   0  0  0  0  0  0  0  0  0  0  0  0
   19.0414   -8.1675  -17.8830 C   0  0  2  0  0  0  0  0  0  0  0  0
   18.1148   -9.2316  -17.5889 N   0  0  0  0  0  0  0  0  0  0  0  0
   19.3791   -7.4600  -16.6498 C   0  0  0  0  0  0  0  0  0  0  0  0
   18.5456   -7.1217  -15.7684 O   0  0  0  0  0  0  0  0  0  0  0  0
   20.7295   -7.1120  -16.3912 N   0  0  0  0  0  0  0  0  0  0  0  0
   21.0956   -6.4199  -15.1734 C   0  0  1  0  0  0  0  0  0  0  0  0
   22.4554   -6.9395  -14.7584 C   0  0  0  0  0  0  0  0  0  0  0  0
   22.3219   -8.6165  -14.0763 S   0  0  0  0  0  0  0  0  0  0  0  0
   21.2180   -4.9646  -15.3710 C   0  0  0  0  0  0  0  0  0  0  0  0
   21.5024   -4.1484  -14.4591 O   0  0  0  0  0  0  0  0  0  0  0  0
   21.0057   -4.4625  -16.6459 O   0  0  0  0  0  0  0  0  0  0  0  0
  2  1  1  1
  2  3  1  0
  3  4  1  0
  4  8  1  0
  4  5  2  0
  6  2  1  0
  7  6  2  0
 10  9  1  0
 11 10  1  6
 11 12  1  0
 12  6  1  0
 13 11  1  0
 13 15  1  0
 14 13  2  0
 16 15  1  0
 16 19  1  0
 16 17  1  6
 18 17  1  0
 19 21  1  0
 20 19  2  0
M  END
$$$$
