DSC.pdb
     RDKit          3D

 21 20  0  0  1  0  0  0  0  0999 V2000
   15.3394  -10.8544  -13.0074 N   0  0  0  0  0  0  0  0  0  0  0  0
   14.8682  -10.7662  -11.6439 C   0  0  1  0  0  0  0  0  0  0  0  0
   15.1164  -12.0564  -10.9334 C   0  0  0  0  0  0  0  0  0  0  0  0
   14.2932  -13.1436  -11.4865 C   0  0  0  0  0  0  0  0  0  0  0  0
   14.8304  -14.0137  -12.2017 O   0  0  0  0  0  0  0  0  0  0  0  0
   15.5666   -9.6316  -10.9742 C   0  0  0  0  0  0  0  0  0  0  0  0
   15.3107   -9.4292   -9.7411 O   0  0  0  0  0  0  0  0  0  0  0  0
   12.9375  -13.2128  -11.2253 O   0  0  0  0  0  0  0  0  0  0  0  0
   18.7783   -6.0269  -11.3457 O   0  0  0  0  0  0  0  0  0  0  0  0
   18.1148   -7.0588  -12.0064 C   0  0  0  0  0  0  0  0  0  0  0  0
   17.0996   -7.6712  -11.0724 C   0  0  2  0  0  0  0  0  0  0  0  0
   16.4776   -8.8151  -11.6904 N   0  0  0  0  0  0  0  0  0  0  0  0
   16.0691   -6.7286  -10.6424 C   0  0  0  0  0  0  0  0  0  0  0  0
   15.0699   -6.3971  -11.3336 O   0  0  0  0  0  0  0  0  0  0  0  0
   16.1657   -6.1230   -9.3635 N   0  0  0  0  0  0  0  0  0  0  0  0
   15.2281   -5.0975   -8.9571 C   0  0  1  0  0  0  0  0  0  0  0  0
   14.8900   -5.3547   -7.5042 C   0  0  0  0  0  0  0  0  0  0  0  0
   13.7301   -4.1042   -6.8830 S   0  0  0  0  0  0  0  0  0  0  0  0
   15.8046   -3.7441   -9.0456 C   0  0  0  0  0  0  0  0  0  0  0  0
   17.0068   -3.4701   -8.8041 O   0  0  0  0  0  0  0  0  0  0  0  0
   14.9666   -2.7048   -9.4198 O   0  0  0  0  0  0  0  0  0  0  0  0
  2  1  1  6
  2  3  1  0
  3  4  1  0
  4  8  1  0
  4  5  2  0
  6  2  1  0
  7  6  2  0
 10  9  1  0
 11 10  1  6
 11 12  1  0
 12  6  1  0
 13 11  1  0
 13 15  1  0
 14 13  2  0
 16 15  1  0
 16 19  1  0
 16 17  1  1
 18 17  1  0
 19 21  1  0
 20 19  2  0
M  END
$$$$
