IYP.pdb
     RDKit          3D

 28 29  0  0  1  0  0  0  0  0999 V2000
    3.1740  -20.7620   18.8913 C   0  0  0  0  0  0  0  0  0  0  0  0
    3.3520  -20.7900   20.3823 C   0  0  0  0  0  0  0  0  0  0  0  0
    3.8716  -19.5082   20.9494 C   0  0  2  0  0  0  0  0  0  0  0  0
    5.0761  -19.0361   20.1936 C   0  0  0  0  0  0  0  0  0  0  0  0
    4.1975  -19.6027   22.4375 C   0  0  2  0  0  0  0  0  0  0  0  0
    2.9299  -19.8671   23.1445 N   0  0  0  0  0  0  0  0  0  0  0  0
    4.6975  -18.3003   22.9004 C   0  0  0  0  0  0  0  0  0  0  0  0
    4.0434  -17.2367   22.6639 O   0  0  0  0  0  0  0  0  0  0  0  0
    7.2914  -11.4661   27.1233 O   0  0  0  0  0  0  0  0  0  0  0  0
    7.1943  -12.7639   26.7007 C   0  0  0  0  0  0  0  0  0  0  0  0
    5.9637  -13.3822   26.5296 C   0  0  0  0  0  0  0  0  0  0  0  0
    5.8387  -14.6697   26.1110 C   0  0  0  0  0  0  0  0  0  0  0  0
    6.9833  -15.4022   25.8420 C   0  0  0  0  0  0  0  0  0  0  0  0
    6.8661  -16.7902   25.3903 C   0  0  0  0  0  0  0  0  0  0  0  0
    6.4532  -16.8046   23.8791 C   0  0  2  0  0  0  0  0  0  0  0  0
    5.9270  -18.1157   23.6415 N   0  0  0  0  0  0  0  0  0  0  0  0
    7.5946  -16.3227   23.1624 C   0  0  0  0  0  0  0  0  0  0  0  0
    8.6141  -17.1261   23.1354 O   0  0  0  0  0  0  0  0  0  0  0  0
    8.2048  -14.7947   26.0098 C   0  0  0  0  0  0  0  0  0  0  0  0
    8.3247  -13.4934   26.4330 C   0  0  0  0  0  0  0  0  0  0  0  0
    7.7614  -15.0991   22.4829 N   0  0  0  0  0  0  0  0  0  0  0  0
    6.8248  -14.0115   22.4518 C   0  0  0  0  0  0  0  0  0  0  0  0
    7.2955  -13.0918   21.2957 C   0  0  0  0  0  0  0  0  0  0  0  0
    8.7882  -13.2833   21.3917 C   0  0  0  0  0  0  0  0  0  0  0  0
    8.8831  -14.7612   21.6190 C   0  0  1  0  0  0  0  0  0  0  0  0
   10.1999  -15.1182   22.2209 C   0  0  0  0  0  0  0  0  0  0  0  0
   11.2993  -15.1258   21.3897 O   0  0  0  0  0  0  0  0  0  0  0  0
   10.3157  -15.3971   23.4100 O   0  0  0  0  0  0  0  0  0  0  0  0
  1  2  1  0
  2  3  1  0
  3  4  1  6
  5  3  1  0
  5  6  1  1
  7  8  2  0
  7  5  1  0
  9 10  1  0
 10 11  2  0
 11 12  1  0
 13 12  2  0
 13 14  1  0
 15 14  1  1
 15 16  1  0
 16  7  1  0
 17 21  1  0
 17 15  1  0
 18 17  2  0
 19 13  1  0
 20 10  1  0
 20 19  2  0
 21 25  1  0
 22 21  1  0
 23 22  1  0
 23 24  1  0
 24 25  1  0
 25 26  1  1
 26 28  2  0
 26 27  1  0
M  END
$$$$
