IYP.pdb
     RDKit          3D

 28 29  0  0  1  0  0  0  0  0999 V2000
    7.5497  -12.6338   18.2573 C   0  0  0  0  0  0  0  0  0  0  0  0
    7.6799  -14.0480   18.7457 C   0  0  0  0  0  0  0  0  0  0  0  0
    7.4604  -14.1982   20.2167 C   0  0  2  0  0  0  0  0  0  0  0  0
    8.3695  -13.2926   20.9902 C   0  0  0  0  0  0  0  0  0  0  0  0
    7.6261  -15.6361   20.7011 C   0  0  2  0  0  0  0  0  0  0  0  0
    6.4687  -16.4005   20.1987 N   0  0  0  0  0  0  0  0  0  0  0  0
    7.5637  -15.6553   22.1696 C   0  0  0  0  0  0  0  0  0  0  0  0
    6.4639  -15.4480   22.7716 O   0  0  0  0  0  0  0  0  0  0  0  0
    9.4645  -16.5166   30.6504 O   0  0  0  0  0  0  0  0  0  0  0  0
    9.5359  -16.5433   29.2842 C   0  0  0  0  0  0  0  0  0  0  0  0
   10.2885  -15.6158   28.5777 C   0  0  0  0  0  0  0  0  0  0  0  0
   10.3768  -15.6194   27.2209 C   0  0  0  0  0  0  0  0  0  0  0  0
    9.6894  -16.5867   26.5062 C   0  0  0  0  0  0  0  0  0  0  0  0
    9.7740  -16.6046   25.0444 C   0  0  0  0  0  0  0  0  0  0  0  0
    8.5911  -15.7652   24.4520 C   0  0  2  0  0  0  0  0  0  0  0  0
    8.6999  -15.9062   23.0305 N   0  0  0  0  0  0  0  0  0  0  0  0
    8.6773  -14.4811   25.0785 C   0  0  0  0  0  0  0  0  0  0  0  0
    9.8126  -13.8677   24.9354 O   0  0  0  0  0  0  0  0  0  0  0  0
    8.9424  -17.5079   27.2010 C   0  0  0  0  0  0  0  0  0  0  0  0
    8.8571  -17.4991   28.5719 C   0  0  0  0  0  0  0  0  0  0  0  0
    7.7001  -13.7935   25.8261 N   0  0  0  0  0  0  0  0  0  0  0  0
    6.3452  -14.2158   26.0427 C   0  0  0  0  0  0  0  0  0  0  0  0
    5.6035  -12.9673   26.5859 C   0  0  0  0  0  0  0  0  0  0  0  0
    6.7141  -12.3166   27.3715 C   0  0  0  0  0  0  0  0  0  0  0  0
    7.8745  -12.4848   26.4389 C   0  0  1  0  0  0  0  0  0  0  0  0
    9.1650  -12.3628   27.1760 C   0  0  0  0  0  0  0  0  0  0  0  0
    9.8678  -13.5218   27.4263 O   0  0  0  0  0  0  0  0  0  0  0  0
    9.5977  -11.2782   27.5520 O   0  0  0  0  0  0  0  0  0  0  0  0
  1  2  1  0
  2  3  1  0
  3  4  1  1
  5  3  1  0
  5  6  1  6
  7  8  2  0
  7  5  1  0
  9 10  1  0
 10 11  2  0
 11 12  1  0
 13 12  2  0
 13 14  1  0
 15 14  1  1
 15 16  1  0
 16  7  1  0
 17 21  1  0
 17 15  1  0
 18 17  2  0
 19 13  1  0
 20 10  1  0
 20 19  2  0
 21 25  1  0
 22 21  1  0
 23 22  1  0
 23 24  1  0
 24 25  1  0
 25 26  1  1
 26 28  2  0
 26 27  1  0
M  END
$$$$
