IYP.pdb
     RDKit          3D

 28 29  0  0  1  0  0  0  0  0999 V2000
    9.0640  -18.8425   17.5205 C   0  0  0  0  0  0  0  0  0  0  0  0
    8.1944  -17.7780   18.1254 C   0  0  0  0  0  0  0  0  0  0  0  0
    8.5917  -17.3953   19.5147 C   0  0  2  0  0  0  0  0  0  0  0  0
    8.7815  -18.6091   20.3723 C   0  0  0  0  0  0  0  0  0  0  0  0
    7.6010  -16.4420   20.1776 C   0  0  2  0  0  0  0  0  0  0  0  0
    7.6077  -15.1928   19.3928 N   0  0  0  0  0  0  0  0  0  0  0  0
    8.0817  -16.1172   21.5282 C   0  0  0  0  0  0  0  0  0  0  0  0
    9.1271  -15.4126   21.6891 O   0  0  0  0  0  0  0  0  0  0  0  0
    6.7900  -10.6416   26.7529 O   0  0  0  0  0  0  0  0  0  0  0  0
    6.7739  -11.9358   26.3092 C   0  0  0  0  0  0  0  0  0  0  0  0
    7.2663  -12.9760   27.0846 C   0  0  0  0  0  0  0  0  0  0  0  0
    7.2625  -14.2703   26.6684 C   0  0  0  0  0  0  0  0  0  0  0  0
    6.7469  -14.5718   25.4184 C   0  0  0  0  0  0  0  0  0  0  0  0
    6.7354  -15.9609   24.9549 C   0  0  0  0  0  0  0  0  0  0  0  0
    7.9764  -16.2032   24.0299 C   0  0  2  0  0  0  0  0  0  0  0  0
    7.4342  -16.5471   22.7493 N   0  0  0  0  0  0  0  0  0  0  0  0
    8.8202  -17.1110   24.7459 C   0  0  0  0  0  0  0  0  0  0  0  0
    8.3139  -18.2867   24.9633 O   0  0  0  0  0  0  0  0  0  0  0  0
    6.2579  -13.5453   24.6461 C   0  0  0  0  0  0  0  0  0  0  0  0
    6.2645  -12.2395   25.0722 C   0  0  0  0  0  0  0  0  0  0  0  0
   10.1222  -16.9035   25.2443 N   0  0  0  0  0  0  0  0  0  0  0  0
   10.9438  -15.7487   25.0161 C   0  0  0  0  0  0  0  0  0  0  0  0
   12.3742  -16.1661   25.4446 C   0  0  0  0  0  0  0  0  0  0  0  0
   12.0507  -17.1052   26.5793 C   0  0  0  0  0  0  0  0  0  0  0  0
   10.8952  -17.8704   26.0101 C   0  0  1  0  0  0  0  0  0  0  0  0
   10.1000  -18.5101   27.0974 C   0  0  0  0  0  0  0  0  0  0  0  0
   10.6995  -19.5241   27.8130 O   0  0  0  0  0  0  0  0  0  0  0  0
    8.9539  -18.1576   27.3566 O   0  0  0  0  0  0  0  0  0  0  0  0
  1  2  1  0
  2  3  1  0
  3  4  1  1
  5  3  1  0
  5  6  1  6
  7  8  2  0
  7  5  1  0
  9 10  1  0
 10 11  2  0
 11 12  1  0
 13 12  2  0
 13 14  1  0
 15 14  1  1
 15 16  1  0
 16  7  1  0
 17 21  1  0
 17 15  1  0
 18 17  2  0
 19 13  1  0
 20 10  1  0
 20 19  2  0
 21 25  1  0
 22 21  1  0
 23 22  1  0
 23 24  1  0
 24 25  1  0
 25 26  1  1
 26 28  2  0
 26 27  1  0
M  END
$$$$
