IYP.pdb
     RDKit          3D

 28 29  0  0  1  0  0  0  0  0999 V2000
    6.3235  -20.3955   19.5104 C   0  0  0  0  0  0  0  0  0  0  0  0
    5.4123  -19.6265   20.4235 C   0  0  0  0  0  0  0  0  0  0  0  0
    5.3672  -20.1626   21.8181 C   0  0  2  0  0  0  0  0  0  0  0  0
    4.9000  -21.5862   21.8311 C   0  0  0  0  0  0  0  0  0  0  0  0
    4.4994  -19.3237   22.7523 C   0  0  2  0  0  0  0  0  0  0  0  0
    3.1947  -19.1421   22.0879 N   0  0  0  0  0  0  0  0  0  0  0  0
    5.1069  -17.9937   22.9023 C   0  0  0  0  0  0  0  0  0  0  0  0
    4.7210  -17.0225   22.1793 O   0  0  0  0  0  0  0  0  0  0  0  0
    6.8648  -10.9252   26.9455 O   0  0  0  0  0  0  0  0  0  0  0  0
    7.0153  -12.2203   26.5303 C   0  0  0  0  0  0  0  0  0  0  0  0
    5.9421  -13.0992   26.4886 C   0  0  0  0  0  0  0  0  0  0  0  0
    6.0636  -14.3905   26.0805 C   0  0  0  0  0  0  0  0  0  0  0  0
    7.3079  -14.8561   25.6881 C   0  0  0  0  0  0  0  0  0  0  0  0
    7.4558  -16.2442   25.2458 C   0  0  0  0  0  0  0  0  0  0  0  0
    6.8064  -16.4029   23.8289 C   0  0  2  0  0  0  0  0  0  0  0  0
    6.1538  -17.6780   23.8508 N   0  0  0  0  0  0  0  0  0  0  0  0
    7.8508  -16.1206   22.8917 C   0  0  0  0  0  0  0  0  0  0  0  0
    8.7393  -17.0568   22.7505 O   0  0  0  0  0  0  0  0  0  0  0  0
    8.3743  -13.9898   25.7275 C   0  0  0  0  0  0  0  0  0  0  0  0
    8.2452  -12.6862   26.1408 C   0  0  0  0  0  0  0  0  0  0  0  0
    8.0448  -14.9688   22.1028 N   0  0  0  0  0  0  0  0  0  0  0  0
    7.1872  -13.8184   22.0559 C   0  0  0  0  0  0  0  0  0  0  0  0
    7.6218  -13.0283   20.7946 C   0  0  0  0  0  0  0  0  0  0  0  0
    9.1002  -13.3253   20.7886 C   0  0  0  0  0  0  0  0  0  0  0  0
    9.1105  -14.7844   21.1287 C   0  0  1  0  0  0  0  0  0  0  0  0
   10.4452  -15.1939   21.6527 C   0  0  0  0  0  0  0  0  0  0  0  0
   11.4592  -15.3800   20.7378 O   0  0  0  0  0  0  0  0  0  0  0  0
   10.6482  -15.3627   22.8507 O   0  0  0  0  0  0  0  0  0  0  0  0
  1  2  1  0
  2  3  1  0
  3  4  1  6
  5  3  1  0
  5  6  1  6
  7  8  2  0
  7  5  1  0
  9 10  1  0
 10 11  2  0
 11 12  1  0
 13 12  2  0
 13 14  1  0
 15 14  1  1
 15 16  1  0
 16  7  1  0
 17 21  1  0
 17 15  1  0
 18 17  2  0
 19 13  1  0
 20 10  1  0
 20 19  2  0
 21 25  1  0
 22 21  1  0
 23 22  1  0
 23 24  1  0
 24 25  1  0
 25 26  1  1
 26 28  2  0
 26 27  1  0
M  END
$$$$
