IYP.pdb
     RDKit          3D

 28 29  0  0  1  0  0  0  0  0999 V2000
   14.3166  -20.0018   21.3494 C   0  0  0  0  0  0  0  0  0  0  0  0
   13.1963  -19.1733   20.7892 C   0  0  0  0  0  0  0  0  0  0  0  0
   12.6614  -18.1590   21.7482 C   0  0  2  0  0  0  0  0  0  0  0  0
   12.2562  -18.8025   23.0392 C   0  0  0  0  0  0  0  0  0  0  0  0
   11.4937  -17.3574   21.1795 C   0  0  2  0  0  0  0  0  0  0  0  0
   12.0223  -16.5513   20.0628 N   0  0  0  0  0  0  0  0  0  0  0  0
   11.0098  -16.4242   22.2070 C   0  0  0  0  0  0  0  0  0  0  0  0
   11.6693  -15.3748   22.4878 O   0  0  0  0  0  0  0  0  0  0  0  0
    5.9139  -11.3994   27.0773 O   0  0  0  0  0  0  0  0  0  0  0  0
    6.3883  -12.3568   26.2225 C   0  0  0  0  0  0  0  0  0  0  0  0
    7.0898  -12.0213   25.0730 C   0  0  0  0  0  0  0  0  0  0  0  0
    7.5721  -12.9518   24.2070 C   0  0  0  0  0  0  0  0  0  0  0  0
    7.3584  -14.2938   24.4763 C   0  0  0  0  0  0  0  0  0  0  0  0
    7.8713  -15.3088   23.5536 C   0  0  0  0  0  0  0  0  0  0  0  0
    9.3619  -15.6256   23.9169 C   0  0  2  0  0  0  0  0  0  0  0  0
    9.7866  -16.6033   22.9598 N   0  0  0  0  0  0  0  0  0  0  0  0
    9.3652  -15.9109   25.3195 C   0  0  0  0  0  0  0  0  0  0  0  0
    8.8832  -17.0697   25.6524 O   0  0  0  0  0  0  0  0  0  0  0  0
    6.6642  -14.6317   25.6134 C   0  0  0  0  0  0  0  0  0  0  0  0
    6.1794  -13.6869   26.4846 C   0  0  0  0  0  0  0  0  0  0  0  0
    9.8203  -15.1083   26.3851 N   0  0  0  0  0  0  0  0  0  0  0  0
   10.0483  -13.6916   26.3427 C   0  0  0  0  0  0  0  0  0  0  0  0
   10.8806  -13.3674   27.6100 C   0  0  0  0  0  0  0  0  0  0  0  0
   10.3144  -14.3834   28.5697 C   0  0  0  0  0  0  0  0  0  0  0  0
   10.2224  -15.5970   27.6959 C   0  0  1  0  0  0  0  0  0  0  0  0
    9.2575  -16.5826   28.2627 C   0  0  0  0  0  0  0  0  0  0  0  0
    9.6474  -17.2839   29.3834 O   0  0  0  0  0  0  0  0  0  0  0  0
    8.1543  -16.7729   27.7610 O   0  0  0  0  0  0  0  0  0  0  0  0
  1  2  1  0
  2  3  1  0
  3  4  1  1
  5  3  1  0
  5  6  1  6
  7  8  2  0
  7  5  1  0
  9 10  1  0
 10 11  2  0
 11 12  1  0
 13 12  2  0
 13 14  1  0
 15 14  1  6
 15 16  1  0
 16  7  1  0
 17 21  1  0
 17 15  1  0
 18 17  2  0
 19 13  1  0
 20 10  1  0
 20 19  2  0
 21 25  1  0
 22 21  1  0
 23 22  1  0
 23 24  1  0
 24 25  1  0
 25 26  1  1
 26 28  2  0
 26 27  1  0
M  END
$$$$
