IYP.pdb
     RDKit          3D

 28 29  0  0  1  0  0  0  0  0999 V2000
    7.6590  -17.2041   18.8517 C   0  0  0  0  0  0  0  0  0  0  0  0
    8.0974  -15.8835   19.4166 C   0  0  0  0  0  0  0  0  0  0  0  0
    6.9747  -15.0608   19.9619 C   0  0  2  0  0  0  0  0  0  0  0  0
    5.9233  -14.8297   18.9197 C   0  0  0  0  0  0  0  0  0  0  0  0
    7.4379  -13.7247   20.5362 C   0  0  2  0  0  0  0  0  0  0  0  0
    8.3298  -13.1073   19.5363 N   0  0  0  0  0  0  0  0  0  0  0  0
    8.2364  -13.9756   21.7445 C   0  0  0  0  0  0  0  0  0  0  0  0
    9.5059  -13.9918   21.6875 O   0  0  0  0  0  0  0  0  0  0  0  0
   10.8095  -15.0339   30.0244 O   0  0  0  0  0  0  0  0  0  0  0  0
   10.0513  -14.8108   28.9074 C   0  0  0  0  0  0  0  0  0  0  0  0
    9.1555  -15.7600   28.4358 C   0  0  0  0  0  0  0  0  0  0  0  0
    8.3904  -15.5644   27.3290 C   0  0  0  0  0  0  0  0  0  0  0  0
    8.5038  -14.3694   26.6374 C   0  0  0  0  0  0  0  0  0  0  0  0
    7.6869  -14.1428   25.4434 C   0  0  0  0  0  0  0  0  0  0  0  0
    8.5189  -14.5259   24.1724 C   0  0  2  0  0  0  0  0  0  0  0  0
    7.6754  -14.2127   23.0576 N   0  0  0  0  0  0  0  0  0  0  0  0
    8.9802  -15.8614   24.4011 C   0  0  0  0  0  0  0  0  0  0  0  0
    8.0574  -16.7253   24.6977 O   0  0  0  0  0  0  0  0  0  0  0  0
    9.3896  -13.4257   27.1002 C   0  0  0  0  0  0  0  0  0  0  0  0
   10.1599  -13.6293   28.2190 C   0  0  0  0  0  0  0  0  0  0  0  0
   10.2954  -16.3652   24.3468 N   0  0  0  0  0  0  0  0  0  0  0  0
   11.4584  -15.6539   23.8967 C   0  0  0  0  0  0  0  0  0  0  0  0
   12.5476  -16.7356   23.6788 C   0  0  0  0  0  0  0  0  0  0  0  0
   12.1817  -17.7083   24.7714 C   0  0  0  0  0  0  0  0  0  0  0  0
   10.6878  -17.7317   24.6590 C   0  0  1  0  0  0  0  0  0  0  0  0
   10.0721  -18.2322   25.9215 C   0  0  0  0  0  0  0  0  0  0  0  0
   10.2398  -19.5657   26.2272 O   0  0  0  0  0  0  0  0  0  0  0  0
    9.4372  -17.4964   26.6701 O   0  0  0  0  0  0  0  0  0  0  0  0
  1  2  1  0
  2  3  1  0
  3  4  1  6
  5  3  1  0
  5  6  1  6
  7  8  2  0
  7  5  1  0
  9 10  1  0
 10 11  2  0
 11 12  1  0
 13 12  2  0
 13 14  1  0
 15 14  1  1
 15 16  1  0
 16  7  1  0
 17 21  1  0
 17 15  1  0
 18 17  2  0
 19 13  1  0
 20 10  1  0
 20 19  2  0
 21 25  1  0
 22 21  1  0
 23 22  1  0
 23 24  1  0
 24 25  1  0
 25 26  1  1
 26 28  2  0
 26 27  1  0
M  END
$$$$
