IYP.pdb
     RDKit          3D

 28 29  0  0  1  0  0  0  0  0999 V2000
    8.0296  -14.3216   17.2487 C   0  0  0  0  0  0  0  0  0  0  0  0
    9.3670  -14.4142   17.9255 C   0  0  0  0  0  0  0  0  0  0  0  0
    9.3241  -14.1003   19.3864 C   0  0  2  0  0  0  0  0  0  0  0  0
    9.9454  -12.7661   19.6672 C   0  0  0  0  0  0  0  0  0  0  0  0
    9.9872  -15.1724   20.2469 C   0  0  2  0  0  0  0  0  0  0  0  0
    9.2354  -16.4244   20.0379 N   0  0  0  0  0  0  0  0  0  0  0  0
    9.8450  -14.8036   21.6627 C   0  0  0  0  0  0  0  0  0  0  0  0
   10.5210  -13.8446   22.1509 O   0  0  0  0  0  0  0  0  0  0  0  0
    5.8547  -11.4281   28.2916 O   0  0  0  0  0  0  0  0  0  0  0  0
    6.1706  -12.2678   27.2585 C   0  0  0  0  0  0  0  0  0  0  0  0
    6.6137  -11.7818   26.0365 C   0  0  0  0  0  0  0  0  0  0  0  0
    6.9342  -12.5934   24.9938 C   0  0  0  0  0  0  0  0  0  0  0  0
    6.8162  -13.9648   25.1499 C   0  0  0  0  0  0  0  0  0  0  0  0
    7.1574  -14.8529   24.0367 C   0  0  0  0  0  0  0  0  0  0  0  0
    8.7162  -14.9236   23.8963 C   0  0  2  0  0  0  0  0  0  0  0  0
    8.9559  -15.4669   22.5926 N   0  0  0  0  0  0  0  0  0  0  0  0
    9.1802  -15.5909   25.0744 C   0  0  0  0  0  0  0  0  0  0  0  0
    9.1742  -16.8880   25.0176 O   0  0  0  0  0  0  0  0  0  0  0  0
    6.3778  -14.4517   26.3582 C   0  0  0  0  0  0  0  0  0  0  0  0
    6.0555  -13.6266   27.4080 C   0  0  0  0  0  0  0  0  0  0  0  0
    9.6425  -15.0334   26.2836 N   0  0  0  0  0  0  0  0  0  0  0  0
    9.5471  -13.6550   26.6734 C   0  0  0  0  0  0  0  0  0  0  0  0
   10.5121  -13.4965   27.8766 C   0  0  0  0  0  0  0  0  0  0  0  0
   10.3687  -14.8548   28.5158 C   0  0  0  0  0  0  0  0  0  0  0  0
   10.3791  -15.7500   27.3145 C   0  0  1  0  0  0  0  0  0  0  0  0
    9.7734  -17.0736   27.6385 C   0  0  0  0  0  0  0  0  0  0  0  0
   10.5430  -17.9697   28.3488 O   0  0  0  0  0  0  0  0  0  0  0  0
    8.6339  -17.3681   27.2924 O   0  0  0  0  0  0  0  0  0  0  0  0
  1  2  1  0
  2  3  1  0
  3  4  1  6
  5  3  1  0
  5  6  1  1
  7  8  2  0
  7  5  1  0
  9 10  1  0
 10 11  2  0
 11 12  1  0
 13 12  2  0
 13 14  1  0
 15 14  1  1
 15 16  1  0
 16  7  1  0
 17 21  1  0
 17 15  1  0
 18 17  2  0
 19 13  1  0
 20 10  1  0
 20 19  2  0
 21 25  1  0
 22 21  1  0
 23 22  1  0
 23 24  1  0
 24 25  1  0
 25 26  1  1
 26 28  2  0
 26 27  1  0
M  END
$$$$
