IYP.pdb
     RDKit          3D

 28 29  0  0  1  0  0  0  0  0999 V2000
    7.8777  -17.1047   18.8469 C   0  0  0  0  0  0  0  0  0  0  0  0
    8.1826  -15.7741   19.4732 C   0  0  0  0  0  0  0  0  0  0  0  0
    6.9865  -15.1006   20.0652 C   0  0  2  0  0  0  0  0  0  0  0  0
    5.9061  -14.9282   19.0415 C   0  0  0  0  0  0  0  0  0  0  0  0
    7.3151  -13.7540   20.7040 C   0  0  2  0  0  0  0  0  0  0  0  0
    8.1464  -13.0070   19.7409 N   0  0  0  0  0  0  0  0  0  0  0  0
    8.1297  -13.9818   21.9062 C   0  0  0  0  0  0  0  0  0  0  0  0
    9.3980  -13.9294   21.8459 O   0  0  0  0  0  0  0  0  0  0  0  0
   10.9176  -14.5072   30.1211 O   0  0  0  0  0  0  0  0  0  0  0  0
   10.1050  -14.4604   29.0213 C   0  0  0  0  0  0  0  0  0  0  0  0
   10.0108  -13.3206   28.2353 C   0  0  0  0  0  0  0  0  0  0  0  0
    9.2116  -13.2471   27.1378 C   0  0  0  0  0  0  0  0  0  0  0  0
    8.4562  -14.3526   26.7824 C   0  0  0  0  0  0  0  0  0  0  0  0
    7.5903  -14.2900   25.6031 C   0  0  0  0  0  0  0  0  0  0  0  0
    8.4484  -14.5658   24.3217 C   0  0  2  0  0  0  0  0  0  0  0  0
    7.5863  -14.2703   23.2164 N   0  0  0  0  0  0  0  0  0  0  0  0
    9.0016  -15.8736   24.5015 C   0  0  0  0  0  0  0  0  0  0  0  0
    8.1517  -16.7952   24.8391 O   0  0  0  0  0  0  0  0  0  0  0  0
    8.5457  -15.4843   27.5574 C   0  0  0  0  0  0  0  0  0  0  0  0
    9.3550  -15.5524   28.6652 C   0  0  0  0  0  0  0  0  0  0  0  0
   10.3389  -16.2961   24.3611 N   0  0  0  0  0  0  0  0  0  0  0  0
   11.4547  -15.4716   23.9923 C   0  0  0  0  0  0  0  0  0  0  0  0
   12.5917  -16.4564   23.6162 C   0  0  0  0  0  0  0  0  0  0  0  0
   12.2987  -17.5828   24.5752 C   0  0  0  0  0  0  0  0  0  0  0  0
   10.8058  -17.6694   24.4829 C   0  0  1  0  0  0  0  0  0  0  0  0
   10.2436  -18.3638   25.6768 C   0  0  0  0  0  0  0  0  0  0  0  0
   10.1729  -19.7398   25.6390 O   0  0  0  0  0  0  0  0  0  0  0  0
    9.8543  -17.7467   26.6630 O   0  0  0  0  0  0  0  0  0  0  0  0
  1  2  1  0
  2  3  1  0
  3  4  1  6
  5  3  1  0
  5  6  1  6
  7  8  2  0
  7  5  1  0
  9 10  1  0
 10 11  2  0
 11 12  1  0
 13 12  2  0
 13 14  1  0
 15 14  1  1
 15 16  1  0
 16  7  1  0
 17 21  1  0
 17 15  1  0
 18 17  2  0
 19 13  1  0
 20 10  1  0
 20 19  2  0
 21 25  1  0
 22 21  1  0
 23 22  1  0
 23 24  1  0
 24 25  1  0
 25 26  1  1
 26 28  2  0
 26 27  1  0
M  END
$$$$
