IYP.pdb
     RDKit          3D

 28 29  0  0  1  0  0  0  0  0999 V2000
   11.4686  -20.2068   20.1497 C   0  0  0  0  0  0  0  0  0  0  0  0
   12.5792  -19.5045   20.8768 C   0  0  0  0  0  0  0  0  0  0  0  0
   12.1025  -18.4905   21.8663 C   0  0  2  0  0  0  0  0  0  0  0  0
   11.3922  -19.1489   23.0096 C   0  0  0  0  0  0  0  0  0  0  0  0
   11.2051  -17.4245   21.2434 C   0  0  2  0  0  0  0  0  0  0  0  0
   12.0247  -16.6828   20.2664 N   0  0  0  0  0  0  0  0  0  0  0  0
   10.7964  -16.4746   22.2880 C   0  0  0  0  0  0  0  0  0  0  0  0
   11.6685  -15.8515   22.9709 O   0  0  0  0  0  0  0  0  0  0  0  0
    6.1291  -11.2761   27.5364 O   0  0  0  0  0  0  0  0  0  0  0  0
    6.4815  -12.1810   26.5724 C   0  0  0  0  0  0  0  0  0  0  0  0
    7.2046  -11.8024   25.4500 C   0  0  0  0  0  0  0  0  0  0  0  0
    7.5677  -12.6805   24.4775 C   0  0  0  0  0  0  0  0  0  0  0  0
    7.2043  -14.0112   24.6051 C   0  0  0  0  0  0  0  0  0  0  0  0
    7.5876  -14.9698   23.5666 C   0  0  0  0  0  0  0  0  0  0  0  0
    9.1015  -15.3345   23.7387 C   0  0  2  0  0  0  0  0  0  0  0  0
    9.4208  -16.1693   22.6191 N   0  0  0  0  0  0  0  0  0  0  0  0
    9.2332  -15.8125   25.0814 C   0  0  0  0  0  0  0  0  0  0  0  0
    8.8353  -17.0325   25.2789 O   0  0  0  0  0  0  0  0  0  0  0  0
    6.4881  -14.3917   25.7148 C   0  0  0  0  0  0  0  0  0  0  0  0
    6.1242  -13.4998   26.6940 C   0  0  0  0  0  0  0  0  0  0  0  0
    9.7358  -15.1417   26.2146 N   0  0  0  0  0  0  0  0  0  0  0  0
   10.0839  -13.7511   26.2922 C   0  0  0  0  0  0  0  0  0  0  0  0
   10.9182  -13.6042   27.5907 C   0  0  0  0  0  0  0  0  0  0  0  0
   10.2510  -14.6428   28.4569 C   0  0  0  0  0  0  0  0  0  0  0  0
   10.0719  -15.7685   27.4846 C   0  0  1  0  0  0  0  0  0  0  0  0
    9.0170  -16.7104   27.9575 C   0  0  0  0  0  0  0  0  0  0  0  0
    9.3294  -17.5386   29.0141 O   0  0  0  0  0  0  0  0  0  0  0  0
    7.9078  -16.7578   27.4354 O   0  0  0  0  0  0  0  0  0  0  0  0
  1  2  1  0
  2  3  1  0
  3  4  1  1
  5  3  1  0
  5  6  1  6
  7  8  2  0
  7  5  1  0
  9 10  1  0
 10 11  2  0
 11 12  1  0
 13 12  2  0
 13 14  1  0
 15 14  1  6
 15 16  1  0
 16  7  1  0
 17 21  1  0
 17 15  1  0
 18 17  2  0
 19 13  1  0
 20 10  1  0
 20 19  2  0
 21 25  1  0
 22 21  1  0
 23 22  1  0
 23 24  1  0
 24 25  1  0
 25 26  1  1
 26 28  2  0
 26 27  1  0
M  END
$$$$
