IYP.pdb
     RDKit          3D

 28 29  0  0  1  0  0  0  0  0999 V2000
    5.5493  -11.1400   28.4142 C   0  0  0  0  0  0  0  0  0  0  0  0
    5.2235  -12.2307   27.4346 C   0  0  0  0  0  0  0  0  0  0  0  0
    6.2480  -12.3979   26.3589 C   0  0  2  0  0  0  0  0  0  0  0  0
    6.4229  -11.1285   25.5824 C   0  0  0  0  0  0  0  0  0  0  0  0
    5.9318  -13.5485   25.4072 C   0  0  2  0  0  0  0  0  0  0  0  0
    5.7895  -14.7657   26.2285 N   0  0  0  0  0  0  0  0  0  0  0  0
    7.0772  -13.7536   24.5090 C   0  0  0  0  0  0  0  0  0  0  0  0
    7.5482  -12.7864   23.8325 O   0  0  0  0  0  0  0  0  0  0  0  0
   10.9178  -14.9855   29.3445 O   0  0  0  0  0  0  0  0  0  0  0  0
   10.6417  -15.2901   28.0394 C   0  0  0  0  0  0  0  0  0  0  0  0
    9.7529  -16.3009   27.7016 C   0  0  0  0  0  0  0  0  0  0  0  0
    9.4605  -16.6241   26.4137 C   0  0  0  0  0  0  0  0  0  0  0  0
   10.0715  -15.9192   25.3895 C   0  0  0  0  0  0  0  0  0  0  0  0
    9.7676  -16.2548   23.9969 C   0  0  0  0  0  0  0  0  0  0  0  0
    8.8343  -15.1496   23.3951 C   0  0  2  0  0  0  0  0  0  0  0  0
    7.7502  -15.0215   24.3227 N   0  0  0  0  0  0  0  0  0  0  0  0
    8.6055  -15.5357   22.0359 C   0  0  0  0  0  0  0  0  0  0  0  0
    8.5242  -16.8146   21.8274 O   0  0  0  0  0  0  0  0  0  0  0  0
   10.9527  -14.9169   25.7185 C   0  0  0  0  0  0  0  0  0  0  0  0
   11.2441  -14.5950   27.0216 C   0  0  0  0  0  0  0  0  0  0  0  0
    8.4553  -14.7191   20.8970 N   0  0  0  0  0  0  0  0  0  0  0  0
    8.2565  -13.2973   20.8928 C   0  0  0  0  0  0  0  0  0  0  0  0
    7.7822  -12.9491   19.4583 C   0  0  0  0  0  0  0  0  0  0  0  0
    8.5508  -13.9758   18.6652 C   0  0  0  0  0  0  0  0  0  0  0  0
    8.3893  -15.1939   19.5226 C   0  0  1  0  0  0  0  0  0  0  0  0
    9.4439  -16.2010   19.2112 C   0  0  0  0  0  0  0  0  0  0  0  0
    9.1931  -17.0911   18.1891 O   0  0  0  0  0  0  0  0  0  0  0  0
   10.5004  -16.2478   19.8330 O   0  0  0  0  0  0  0  0  0  0  0  0
  1  2  1  0
  2  3  1  0
  3  4  1  6
  5  3  1  0
  5  6  1  1
  7  8  2  0
  7  5  1  0
  9 10  1  0
 10 11  2  0
 11 12  1  0
 13 12  2  0
 13 14  1  0
 15 14  1  1
 15 16  1  0
 16  7  1  0
 17 21  1  0
 17 15  1  0
 18 17  2  0
 19 13  1  0
 20 10  1  0
 20 19  2  0
 21 25  1  0
 22 21  1  0
 23 22  1  0
 23 24  1  0
 24 25  1  0
 25 26  1  6
 26 28  2  0
 26 27  1  0
M  END
$$$$
