IYP.pdb
     RDKit          3D

 28 29  0  0  1  0  0  0  0  0999 V2000
    8.1851  -12.5399   18.2649 C   0  0  0  0  0  0  0  0  0  0  0  0
    8.3640  -13.9554   18.7335 C   0  0  0  0  0  0  0  0  0  0  0  0
    7.8034  -14.2129   20.0951 C   0  0  2  0  0  0  0  0  0  0  0  0
    8.3408  -13.2313   21.0913 C   0  0  0  0  0  0  0  0  0  0  0  0
    8.0532  -15.6371   20.5839 C   0  0  2  0  0  0  0  0  0  0  0  0
    7.2792  -16.5390   19.7100 N   0  0  0  0  0  0  0  0  0  0  0  0
    7.5176  -15.7753   21.9458 C   0  0  0  0  0  0  0  0  0  0  0  0
    6.2931  -15.5339   22.1853 O   0  0  0  0  0  0  0  0  0  0  0  0
    4.8577  -21.0011   21.8556 O   0  0  0  0  0  0  0  0  0  0  0  0
    5.5921  -20.1446   22.6296 C   0  0  0  0  0  0  0  0  0  0  0  0
    5.0137  -19.4228   23.6642 C   0  0  0  0  0  0  0  0  0  0  0  0
    5.7199  -18.5653   24.4483 C   0  0  0  0  0  0  0  0  0  0  0  0
    7.0746  -18.3997   24.2109 C   0  0  0  0  0  0  0  0  0  0  0  0
    7.8497  -17.4800   25.0463 C   0  0  0  0  0  0  0  0  0  0  0  0
    7.7880  -16.0444   24.4220 C   0  0  2  0  0  0  0  0  0  0  0  0
    8.3005  -16.1863   23.0918 N   0  0  0  0  0  0  0  0  0  0  0  0
    8.4218  -15.1824   25.3728 C   0  0  0  0  0  0  0  0  0  0  0  0
    9.6753  -15.4326   25.6010 O   0  0  0  0  0  0  0  0  0  0  0  0
    7.6526  -19.1122   23.1874 C   0  0  0  0  0  0  0  0  0  0  0  0
    6.9339  -19.9770   22.3986 C   0  0  0  0  0  0  0  0  0  0  0  0
    7.8726  -14.1016   26.0917 N   0  0  0  0  0  0  0  0  0  0  0  0
    6.5592  -13.5482   25.9195 C   0  0  0  0  0  0  0  0  0  0  0  0
    6.5851  -12.1827   26.6534 C   0  0  0  0  0  0  0  0  0  0  0  0
    7.5257  -12.5055   27.7870 C   0  0  0  0  0  0  0  0  0  0  0  0
    8.5804  -13.3002   27.0794 C   0  0  1  0  0  0  0  0  0  0  0  0
    9.3522  -14.1313   28.0475 C   0  0  0  0  0  0  0  0  0  0  0  0
    8.9514  -15.4378   28.2268 O   0  0  0  0  0  0  0  0  0  0  0  0
   10.3103  -13.6826   28.6686 O   0  0  0  0  0  0  0  0  0  0  0  0
  1  2  1  0
  2  3  1  0
  3  4  1  1
  5  3  1  0
  5  6  1  6
  7  8  2  0
  7  5  1  0
  9 10  1  0
 10 11  2  0
 11 12  1  0
 13 12  2  0
 13 14  1  0
 15 14  1  1
 15 16  1  0
 16  7  1  0
 17 21  1  0
 17 15  1  0
 18 17  2  0
 19 13  1  0
 20 10  1  0
 20 19  2  0
 21 25  1  0
 22 21  1  0
 23 22  1  0
 23 24  1  0
 24 25  1  0
 25 26  1  1
 26 28  2  0
 26 27  1  0
M  END
$$$$
