IYP.pdb
     RDKit          3D

 28 29  0  0  1  0  0  0  0  0999 V2000
    3.1340  -18.8351   20.5320 C   0  0  0  0  0  0  0  0  0  0  0  0
    3.7047  -18.5245   21.8859 C   0  0  0  0  0  0  0  0  0  0  0  0
    4.9475  -19.2917   22.2045 C   0  0  2  0  0  0  0  0  0  0  0  0
    4.6920  -20.7676   22.1651 C   0  0  0  0  0  0  0  0  0  0  0  0
    5.5582  -18.9070   23.5493 C   0  0  2  0  0  0  0  0  0  0  0  0
    4.4813  -18.9859   24.5546 N   0  0  0  0  0  0  0  0  0  0  0  0
    6.0034  -17.5075   23.4886 C   0  0  0  0  0  0  0  0  0  0  0  0
    5.1710  -16.5584   23.6347 O   0  0  0  0  0  0  0  0  0  0  0  0
    5.9425  -12.0680   27.6161 O   0  0  0  0  0  0  0  0  0  0  0  0
    6.6166  -12.8273   26.6989 C   0  0  0  0  0  0  0  0  0  0  0  0
    6.7408  -14.2018   26.8442 C   0  0  0  0  0  0  0  0  0  0  0  0
    7.4049  -14.9797   25.9484 C   0  0  0  0  0  0  0  0  0  0  0  0
    7.9847  -14.3825   24.8410 C   0  0  0  0  0  0  0  0  0  0  0  0
    8.7035  -15.2061   23.8666 C   0  0  0  0  0  0  0  0  0  0  0  0
    7.6828  -15.7721   22.8214 C   0  0  2  0  0  0  0  0  0  0  0  0
    7.3742  -17.0969   23.2708 N   0  0  0  0  0  0  0  0  0  0  0  0
    8.2765  -15.5436   21.5392 C   0  0  0  0  0  0  0  0  0  0  0  0
    9.0599  -16.4871   21.1130 O   0  0  0  0  0  0  0  0  0  0  0  0
    7.8647  -13.0214   24.6922 C   0  0  0  0  0  0  0  0  0  0  0  0
    7.1925  -12.2408   25.6007 C   0  0  0  0  0  0  0  0  0  0  0  0
    8.1258  -14.4377   20.6783 N   0  0  0  0  0  0  0  0  0  0  0  0
    7.1738  -13.3730   20.8237 C   0  0  0  0  0  0  0  0  0  0  0  0
    7.1609  -12.6389   19.4581 C   0  0  0  0  0  0  0  0  0  0  0  0
    8.6033  -12.8051   19.0508 C   0  0  0  0  0  0  0  0  0  0  0  0
    8.8578  -14.2301   19.4374 C   0  0  1  0  0  0  0  0  0  0  0  0
   10.3201  -14.4832   19.5836 C   0  0  0  0  0  0  0  0  0  0  0  0
   11.0281  -14.8041   18.4454 O   0  0  0  0  0  0  0  0  0  0  0  0
   10.8856  -14.4123   20.6699 O   0  0  0  0  0  0  0  0  0  0  0  0
  1  2  1  0
  2  3  1  0
  3  4  1  1
  5  3  1  0
  5  6  1  1
  7  8  2  0
  7  5  1  0
  9 10  1  0
 10 11  2  0
 11 12  1  0
 13 12  2  0
 13 14  1  0
 15 14  1  1
 15 16  1  0
 16  7  1  0
 17 21  1  0
 17 15  1  0
 18 17  2  0
 19 13  1  0
 20 10  1  0
 20 19  2  0
 21 25  1  0
 22 21  1  0
 23 22  1  0
 23 24  1  0
 24 25  1  0
 25 26  1  1
 26 28  2  0
 26 27  1  0
M  END
$$$$
