EDN.pdb
     RDKit          3D

 26 25  0  0  1  0  0  0  0  0999 V2000
   -4.9364  -28.1909   26.5973 N   0  0  0  0  0  0  0  0  0  0  0  0
   -4.5257  -28.8902   27.8387 C   0  0  1  0  0  0  0  0  0  0  0  0
   -3.0428  -28.7357   27.9283 C   0  0  0  0  0  0  0  0  0  0  0  0
   -2.6281  -27.3039   27.9990 C   0  0  0  0  0  0  0  0  0  0  0  0
   -1.1497  -27.2072   27.9398 C   0  0  0  0  0  0  0  0  0  0  0  0
   -0.4843  -26.7902   26.9702 O   0  0  0  0  0  0  0  0  0  0  0  0
   -5.1842  -28.2664   28.9958 C   0  0  0  0  0  0  0  0  0  0  0  0
   -5.1171  -28.7760   30.1233 O   0  0  0  0  0  0  0  0  0  0  0  0
   -0.4043  -27.6168   29.0613 O   0  0  0  0  0  0  0  0  0  0  0  0
   -5.9154  -27.0538   28.8370 N   0  0  0  0  0  0  0  0  0  0  0  0
   -6.5325  -26.3483   29.9258 C   0  0  1  0  0  0  0  0  0  0  0  0
   -5.5152  -25.5514   30.6980 C   0  0  0  0  0  0  0  0  0  0  0  0
   -5.1071  -26.1687   31.9628 C   0  0  0  0  0  0  0  0  0  0  0  0
   -5.9415  -26.9186   32.5540 O   0  0  0  0  0  0  0  0  0  0  0  0
   -7.6675  -25.5574   29.4360 C   0  0  0  0  0  0  0  0  0  0  0  0
   -8.8090  -26.0610   29.3283 O   0  0  0  0  0  0  0  0  0  0  0  0
   -3.8726  -26.0069   32.5844 O   0  0  0  0  0  0  0  0  0  0  0  0
   -8.8382  -22.4367   31.3310 N   0  0  0  0  0  0  0  0  0  0  0  0
   -8.2930  -21.5613   30.3508 C   0  0  0  0  0  0  0  0  0  0  0  0
   -7.9503  -20.4112   30.7106 O   0  0  0  0  0  0  0  0  0  0  0  0
   -8.1069  -21.9223   28.9409 C   0  0  0  0  0  0  0  0  0  0  0  0
   -8.5246  -23.3336   28.5991 C   0  0  2  0  0  0  0  0  0  0  0  0
   -7.4764  -24.2107   29.0776 N   0  0  0  0  0  0  0  0  0  0  0  0
   -8.6666  -23.5263   27.1435 C   0  0  0  0  0  0  0  0  0  0  0  0
   -9.7612  -23.3146   26.5439 O   0  0  0  0  0  0  0  0  0  0  0  0
   -7.5844  -23.9478   26.4017 O   0  0  0  0  0  0  0  0  0  0  0  0
  2  1  1  6
  2  7  1  0
  3  4  1  0
  3  2  1  0
  5  4  1  0
  5  9  1  0
  6  5  2  0
  7  8  2  0
 10 11  1  0
 10  7  1  0
 11 15  1  0
 12 13  1  0
 11 12  1  6
 13 17  1  0
 14 13  2  0
 15 16  2  0
 18 19  1  0
 19 21  1  0
 19 20  2  0
 22 21  1  6
 22 24  1  0
 23 15  1  0
 23 22  1  0
 24 25  2  0
 24 26  1  0
M  END
$$$$
