EDN.pdb
     RDKit          3D

 26 25  0  0  1  0  0  0  0  0999 V2000
    9.9061  -19.1327   18.5480 N   0  0  0  0  0  0  0  0  0  0  0  0
   10.2436  -17.7447   18.1504 C   0  0  1  0  0  0  0  0  0  0  0  0
    9.3583  -17.4203   16.9919 C   0  0  0  0  0  0  0  0  0  0  0  0
   10.1296  -16.9252   15.8141 C   0  0  0  0  0  0  0  0  0  0  0  0
    9.2136  -16.7190   14.6665 C   0  0  0  0  0  0  0  0  0  0  0  0
    8.8978  -17.5808   13.8213 O   0  0  0  0  0  0  0  0  0  0  0  0
    9.9834  -16.8336   19.2746 C   0  0  0  0  0  0  0  0  0  0  0  0
    8.9461  -16.1575   19.3250 O   0  0  0  0  0  0  0  0  0  0  0  0
    8.6355  -15.4481   14.4883 O   0  0  0  0  0  0  0  0  0  0  0  0
   10.9284  -16.7141   20.3342 N   0  0  0  0  0  0  0  0  0  0  0  0
   10.6894  -15.9582   21.5322 C   0  0  1  0  0  0  0  0  0  0  0  0
    9.4097  -16.3906   22.1967 C   0  0  0  0  0  0  0  0  0  0  0  0
    9.4043  -17.7906   22.6298 C   0  0  0  0  0  0  0  0  0  0  0  0
   10.4288  -18.4940   22.3777 O   0  0  0  0  0  0  0  0  0  0  0  0
   11.8668  -16.0121   22.4064 C   0  0  0  0  0  0  0  0  0  0  0  0
   11.8574  -15.4776   23.5389 O   0  0  0  0  0  0  0  0  0  0  0  0
    8.3659  -18.4290   23.3012 O   0  0  0  0  0  0  0  0  0  0  0  0
   13.7154  -13.7965   19.2905 N   0  0  0  0  0  0  0  0  0  0  0  0
   14.5424  -14.5736   20.1487 C   0  0  0  0  0  0  0  0  0  0  0  0
   15.5172  -15.1768   19.6431 O   0  0  0  0  0  0  0  0  0  0  0  0
   14.3240  -14.7135   21.5929 C   0  0  0  0  0  0  0  0  0  0  0  0
   14.3702  -16.1382   22.0944 C   0  0  2  0  0  0  0  0  0  0  0  0
   13.0299  -16.6721   21.9702 N   0  0  0  0  0  0  0  0  0  0  0  0
   14.7712  -16.2077   23.5124 C   0  0  0  0  0  0  0  0  0  0  0  0
   13.9207  -16.1981   24.4498 O   0  0  0  0  0  0  0  0  0  0  0  0
   16.1073  -16.2868   23.8409 O   0  0  0  0  0  0  0  0  0  0  0  0
  2  1  1  1
  2  7  1  0
  3  4  1  0
  3  2  1  0
  5  4  1  0
  5  9  1  0
  6  5  2  0
  7  8  2  0
 10 11  1  0
 10  7  1  0
 11 15  1  0
 12 13  1  0
 11 12  1  1
 13 17  1  0
 14 13  2  0
 15 16  2  0
 18 19  1  0
 19 21  1  0
 19 20  2  0
 22 21  1  1
 22 24  1  0
 23 15  1  0
 23 22  1  0
 24 25  2  0
 24 26  1  0
M  END
$$$$
