EDN.pdb
     RDKit          3D

 26 25  0  0  1  0  0  0  0  0999 V2000
    9.7247  -13.2110   18.9363 N   0  0  0  0  0  0  0  0  0  0  0  0
    8.4201  -13.7524   19.3877 C   0  0  1  0  0  0  0  0  0  0  0  0
    7.6716  -14.1141   18.1467 C   0  0  0  0  0  0  0  0  0  0  0  0
    8.3581  -13.6308   16.9130 C   0  0  0  0  0  0  0  0  0  0  0  0
    7.6604  -14.1544   15.7140 C   0  0  0  0  0  0  0  0  0  0  0  0
    7.0471  -13.4701   14.8699 O   0  0  0  0  0  0  0  0  0  0  0  0
    8.6433  -14.9401   20.2250 C   0  0  0  0  0  0  0  0  0  0  0  0
    7.6974  -15.5301   20.7660 O   0  0  0  0  0  0  0  0  0  0  0  0
    7.6725  -15.5428   15.4825 O   0  0  0  0  0  0  0  0  0  0  0  0
    9.9634  -15.4364   20.4281 N   0  0  0  0  0  0  0  0  0  0  0  0
   10.2824  -16.4990   21.3407 C   0  0  1  0  0  0  0  0  0  0  0  0
   11.4529  -17.3044   20.8433 C   0  0  0  0  0  0  0  0  0  0  0  0
   11.8084  -18.4365   21.7032 C   0  0  0  0  0  0  0  0  0  0  0  0
   11.9990  -19.5630   21.1532 O   0  0  0  0  0  0  0  0  0  0  0  0
   10.4551  -15.9650   22.6967 C   0  0  0  0  0  0  0  0  0  0  0  0
   11.4599  -15.2820   23.0004 O   0  0  0  0  0  0  0  0  0  0  0  0
   11.9586  -18.3902   23.0859 O   0  0  0  0  0  0  0  0  0  0  0  0
    7.0285  -17.1090   24.6541 N   0  0  0  0  0  0  0  0  0  0  0  0
    7.0859  -15.7929   25.1913 C   0  0  0  0  0  0  0  0  0  0  0  0
    6.0096  -15.2389   25.5145 O   0  0  0  0  0  0  0  0  0  0  0  0
    8.3303  -15.0415   25.3909 C   0  0  0  0  0  0  0  0  0  0  0  0
    9.5852  -15.8170   25.0634 C   0  0  2  0  0  0  0  0  0  0  0  0
    9.4800  -16.2225   23.6773 N   0  0  0  0  0  0  0  0  0  0  0  0
    9.7145  -17.0279   25.8959 C   0  0  0  0  0  0  0  0  0  0  0  0
    9.5573  -18.1892   25.4173 O   0  0  0  0  0  0  0  0  0  0  0  0
   10.0158  -16.9067   27.2352 O   0  0  0  0  0  0  0  0  0  0  0  0
  2  1  1  6
  2  7  1  0
  3  4  1  0
  3  2  1  0
  5  4  1  0
  5  9  1  0
  6  5  2  0
  7  8  2  0
 10 11  1  0
 10  7  1  0
 11 15  1  0
 12 13  1  0
 11 12  1  6
 13 17  1  0
 14 13  2  0
 15 16  2  0
 18 19  1  0
 19 21  1  0
 19 20  2  0
 22 21  1  1
 22 24  1  0
 23 15  1  0
 23 22  1  0
 24 25  2  0
 24 26  1  0
M  END
$$$$
