EDN.pdb
     RDKit          3D

 26 25  0  0  1  0  0  0  0  0999 V2000
    9.1882  -13.1125   18.0434 N   0  0  0  0  0  0  0  0  0  0  0  0
    7.9898  -13.9521   18.2834 C   0  0  1  0  0  0  0  0  0  0  0  0
    7.4974  -14.3640   16.9347 C   0  0  0  0  0  0  0  0  0  0  0  0
    8.6060  -14.4888   15.9435 C   0  0  0  0  0  0  0  0  0  0  0  0
    8.0571  -14.8922   14.6265 C   0  0  0  0  0  0  0  0  0  0  0  0
    8.0736  -16.0459   14.1517 O   0  0  0  0  0  0  0  0  0  0  0  0
    8.3650  -15.1286   19.0814 C   0  0  0  0  0  0  0  0  0  0  0  0
    7.5354  -16.0063   19.3586 O   0  0  0  0  0  0  0  0  0  0  0  0
    7.4601  -13.9072   13.8173 O   0  0  0  0  0  0  0  0  0  0  0  0
    9.7015  -15.2794   19.5517 N   0  0  0  0  0  0  0  0  0  0  0  0
   10.1143  -16.3152   20.4575 C   0  0  1  0  0  0  0  0  0  0  0  0
   11.4150  -16.9313   20.0160 C   0  0  0  0  0  0  0  0  0  0  0  0
   11.8799  -18.0249   20.8735 C   0  0  0  0  0  0  0  0  0  0  0  0
   11.1580  -19.0643   20.9541 O   0  0  0  0  0  0  0  0  0  0  0  0
   10.1287  -15.8061   21.8338 C   0  0  0  0  0  0  0  0  0  0  0  0
   11.0402  -15.0459   22.2333 O   0  0  0  0  0  0  0  0  0  0  0  0
   13.0559  -18.0297   21.6177 O   0  0  0  0  0  0  0  0  0  0  0  0
    6.7182  -13.6519   22.6714 N   0  0  0  0  0  0  0  0  0  0  0  0
    7.4009  -13.9324   23.8877 C   0  0  0  0  0  0  0  0  0  0  0  0
    7.8075  -12.9661   24.5738 O   0  0  0  0  0  0  0  0  0  0  0  0
    7.6595  -15.2865   24.3901 C   0  0  0  0  0  0  0  0  0  0  0  0
    9.0572  -15.7940   24.1211 C   0  0  2  0  0  0  0  0  0  0  0  0
    9.1053  -16.1759   22.7251 N   0  0  0  0  0  0  0  0  0  0  0  0
    9.3779  -16.9779   24.9406 C   0  0  0  0  0  0  0  0  0  0  0  0
    9.4832  -18.1335   24.4348 O   0  0  0  0  0  0  0  0  0  0  0  0
    9.5723  -16.8367   26.2976 O   0  0  0  0  0  0  0  0  0  0  0  0
  2  1  1  6
  2  7  1  0
  3  4  1  0
  3  2  1  0
  5  4  1  0
  5  9  1  0
  6  5  2  0
  7  8  2  0
 10 11  1  0
 10  7  1  0
 11 15  1  0
 12 13  1  0
 11 12  1  6
 13 17  1  0
 14 13  2  0
 15 16  2  0
 18 19  1  0
 19 21  1  0
 19 20  2  0
 22 21  1  1
 22 24  1  0
 23 15  1  0
 23 22  1  0
 24 25  2  0
 24 26  1  0
M  END
$$$$
