EDN.pdb
     RDKit          3D

 26 25  0  0  1  0  0  0  0  0999 V2000
   10.0298  -18.2276   14.8815 N   0  0  0  0  0  0  0  0  0  0  0  0
   10.8849  -19.1806   15.6294 C   0  0  1  0  0  0  0  0  0  0  0  0
   12.2905  -18.7147   15.4343 C   0  0  0  0  0  0  0  0  0  0  0  0
   12.6171  -18.4946   13.9949 C   0  0  0  0  0  0  0  0  0  0  0  0
   14.0448  -18.1189   13.8571 C   0  0  0  0  0  0  0  0  0  0  0  0
   14.6045  -17.1587   14.4243 O   0  0  0  0  0  0  0  0  0  0  0  0
   10.5215  -19.1546   17.0538 C   0  0  0  0  0  0  0  0  0  0  0  0
    9.7934  -18.2635   17.5135 O   0  0  0  0  0  0  0  0  0  0  0  0
   14.8656  -18.8948   13.0171 O   0  0  0  0  0  0  0  0  0  0  0  0
   11.0047  -20.1642   17.9355 N   0  0  0  0  0  0  0  0  0  0  0  0
   10.6491  -20.2437   19.3252 C   0  0  1  0  0  0  0  0  0  0  0  0
   10.2788  -21.6518   19.7076 C   0  0  0  0  0  0  0  0  0  0  0  0
    9.8709  -21.8036   21.1069 C   0  0  0  0  0  0  0  0  0  0  0  0
    8.6974  -21.4443   21.4257 O   0  0  0  0  0  0  0  0  0  0  0  0
   11.7103  -19.6573   20.1520 C   0  0  0  0  0  0  0  0  0  0  0  0
   12.9028  -19.6557   19.7695 O   0  0  0  0  0  0  0  0  0  0  0  0
   10.6618  -22.3125   22.1327 O   0  0  0  0  0  0  0  0  0  0  0  0
   11.1569  -16.0342   21.2675 N   0  0  0  0  0  0  0  0  0  0  0  0
   10.9992  -16.3874   22.6367 C   0  0  0  0  0  0  0  0  0  0  0  0
   10.3371  -15.6195   23.3727 O   0  0  0  0  0  0  0  0  0  0  0  0
   11.5654  -17.5979   23.2424 C   0  0  0  0  0  0  0  0  0  0  0  0
   12.3497  -18.4648   22.2849 C   0  0  2  0  0  0  0  0  0  0  0  0
   11.3896  -19.0873   21.3974 N   0  0  0  0  0  0  0  0  0  0  0  0
   13.0920  -19.5273   22.9894 C   0  0  0  0  0  0  0  0  0  0  0  0
   12.5008  -20.4772   23.5814 O   0  0  0  0  0  0  0  0  0  0  0  0
   14.4697  -19.4983   23.0111 O   0  0  0  0  0  0  0  0  0  0  0  0
  2  1  1  6
  2  7  1  0
  3  4  1  0
  3  2  1  0
  5  4  1  0
  5  9  1  0
  6  5  2  0
  7  8  2  0
 10 11  1  0
 10  7  1  0
 11 15  1  0
 12 13  1  0
 11 12  1  1
 13 17  1  0
 14 13  2  0
 15 16  2  0
 18 19  1  0
 19 21  1  0
 19 20  2  0
 22 21  1  1
 22 24  1  0
 23 15  1  0
 23 22  1  0
 24 25  2  0
 24 26  1  0
M  END
$$$$
