EDN.pdb
     RDKit          3D

 26 25  0  0  1  0  0  0  0  0999 V2000
   15.4259  -13.0705   17.9354 N   0  0  0  0  0  0  0  0  0  0  0  0
   14.9108  -14.4609   17.9516 C   0  0  1  0  0  0  0  0  0  0  0  0
   16.1105  -15.3467   17.8679 C   0  0  0  0  0  0  0  0  0  0  0  0
   17.0926  -14.8713   16.8498 C   0  0  0  0  0  0  0  0  0  0  0  0
   18.2506  -15.7961   16.8010 C   0  0  0  0  0  0  0  0  0  0  0  0
   18.4144  -16.7170   15.9753 O   0  0  0  0  0  0  0  0  0  0  0  0
   14.1752  -14.6987   19.2022 C   0  0  0  0  0  0  0  0  0  0  0  0
   14.6343  -15.4363   20.0857 O   0  0  0  0  0  0  0  0  0  0  0  0
   19.2701  -15.6471   17.7600 O   0  0  0  0  0  0  0  0  0  0  0  0
   12.9116  -14.0774   19.4199 N   0  0  0  0  0  0  0  0  0  0  0  0
   11.6550  -14.6958   19.0995 C   0  0  1  0  0  0  0  0  0  0  0  0
   11.6016  -15.0883   17.6472 C   0  0  0  0  0  0  0  0  0  0  0  0
   10.3680  -15.7775   17.2592 C   0  0  0  0  0  0  0  0  0  0  0  0
   10.0031  -16.7760   17.9505 O   0  0  0  0  0  0  0  0  0  0  0  0
   11.3836  -15.7985   20.0290 C   0  0  0  0  0  0  0  0  0  0  0  0
   10.3514  -16.4990   19.9186 O   0  0  0  0  0  0  0  0  0  0  0  0
    9.5482  -15.4341   16.1884 O   0  0  0  0  0  0  0  0  0  0  0  0
   14.0403  -18.1072   25.0966 N   0  0  0  0  0  0  0  0  0  0  0  0
   13.4309  -18.2983   23.8253 C   0  0  0  0  0  0  0  0  0  0  0  0
   12.8492  -19.3861   23.6061 O   0  0  0  0  0  0  0  0  0  0  0  0
   13.4413  -17.2983   22.7516 C   0  0  0  0  0  0  0  0  0  0  0  0
   12.1119  -17.1174   22.0564 C   0  0  2  0  0  0  0  0  0  0  0  0
   12.2931  -16.0774   21.0651 N   0  0  0  0  0  0  0  0  0  0  0  0
   11.0563  -16.6902   22.9941 C   0  0  0  0  0  0  0  0  0  0  0  0
   10.2128  -17.5058   23.4691 O   0  0  0  0  0  0  0  0  0  0  0  0
   10.9745  -15.3679   23.3736 O   0  0  0  0  0  0  0  0  0  0  0  0
  2  1  1  1
  2  7  1  0
  3  4  1  0
  3  2  1  0
  5  4  1  0
  5  9  1  0
  6  5  2  0
  7  8  2  0
 10 11  1  0
 10  7  1  0
 11 15  1  0
 12 13  1  0
 11 12  1  6
 13 17  1  0
 14 13  2  0
 15 16  2  0
 18 19  1  0
 19 21  1  0
 19 20  2  0
 22 21  1  1
 22 24  1  0
 23 15  1  0
 23 22  1  0
 24 25  2  0
 24 26  1  0
M  END
$$$$
