EDN.pdb
     RDKit          3D

 26 25  0  0  1  0  0  0  0  0999 V2000
    9.3964  -16.5176   16.4151 N   0  0  0  0  0  0  0  0  0  0  0  0
    8.6104  -16.5974   17.6699 C   0  0  1  0  0  0  0  0  0  0  0  0
    7.4793  -17.5319   17.3899 C   0  0  0  0  0  0  0  0  0  0  0  0
    7.9142  -18.7244   16.6051 C   0  0  0  0  0  0  0  0  0  0  0  0
    6.7577  -19.6246   16.3799 C   0  0  0  0  0  0  0  0  0  0  0  0
    6.5397  -20.6963   16.9805 O   0  0  0  0  0  0  0  0  0  0  0  0
    9.4601  -17.1186   18.7506 C   0  0  0  0  0  0  0  0  0  0  0  0
    9.0213  -17.2564   19.9013 O   0  0  0  0  0  0  0  0  0  0  0  0
    5.8061  -19.2650   15.4070 O   0  0  0  0  0  0  0  0  0  0  0  0
   10.8137  -17.4781   18.4884 N   0  0  0  0  0  0  0  0  0  0  0  0
   11.6813  -18.0769   19.4644 C   0  0  1  0  0  0  0  0  0  0  0  0
   12.6965  -18.9728   18.8064 C   0  0  0  0  0  0  0  0  0  0  0  0
   12.2007  -20.3188   18.5064 C   0  0  0  0  0  0  0  0  0  0  0  0
   11.0775  -20.6586   18.9869 O   0  0  0  0  0  0  0  0  0  0  0  0
   12.2643  -17.0408   20.3248 C   0  0  0  0  0  0  0  0  0  0  0  0
   13.0091  -16.1513   19.8532 O   0  0  0  0  0  0  0  0  0  0  0  0
   12.8561  -21.2720   17.7327 O   0  0  0  0  0  0  0  0  0  0  0  0
   10.4757  -17.6796   23.8722 N   0  0  0  0  0  0  0  0  0  0  0  0
   10.4930  -16.2584   23.9357 C   0  0  0  0  0  0  0  0  0  0  0  0
    9.5261  -15.6792   24.4829 O   0  0  0  0  0  0  0  0  0  0  0  0
   11.5755  -15.4261   23.3985 C   0  0  0  0  0  0  0  0  0  0  0  0
   12.6535  -16.1982   22.6740 C   0  0  2  0  0  0  0  0  0  0  0  0
   11.9875  -17.0422   21.7039 N   0  0  0  0  0  0  0  0  0  0  0  0
   13.4227  -17.0593   23.5922 C   0  0  0  0  0  0  0  0  0  0  0  0
   13.2388  -18.3104   23.6484 O   0  0  0  0  0  0  0  0  0  0  0  0
   14.3732  -16.4992   24.4181 O   0  0  0  0  0  0  0  0  0  0  0  0
  2  1  1  6
  2  7  1  0
  3  4  1  0
  3  2  1  0
  5  4  1  0
  5  9  1  0
  6  5  2  0
  7  8  2  0
 10 11  1  0
 10  7  1  0
 11 15  1  0
 12 13  1  0
 11 12  1  6
 13 17  1  0
 14 13  2  0
 15 16  2  0
 18 19  1  0
 19 21  1  0
 19 20  2  0
 22 21  1  1
 22 24  1  0
 23 15  1  0
 23 22  1  0
 24 25  2  0
 24 26  1  0
M  END
$$$$
