EDN.pdb
     RDKit          3D

 26 25  0  0  1  0  0  0  0  0999 V2000
   11.9700  -19.1541   17.1661 N   0  0  0  0  0  0  0  0  0  0  0  0
   12.0642  -17.6758   17.2335 C   0  0  1  0  0  0  0  0  0  0  0  0
   11.2188  -17.1569   16.1168 C   0  0  0  0  0  0  0  0  0  0  0  0
   11.1323  -18.1203   14.9803 C   0  0  0  0  0  0  0  0  0  0  0  0
   10.2364  -17.5775   13.9309 C   0  0  0  0  0  0  0  0  0  0  0  0
    9.0341  -17.8720   13.7744 O   0  0  0  0  0  0  0  0  0  0  0  0
   11.5548  -17.2090   18.5313 C   0  0  0  0  0  0  0  0  0  0  0  0
   10.7270  -16.2896   18.6020 O   0  0  0  0  0  0  0  0  0  0  0  0
   10.7617  -16.6472   13.0145 O   0  0  0  0  0  0  0  0  0  0  0  0
   12.0088  -17.8133   19.7391 N   0  0  0  0  0  0  0  0  0  0  0  0
   11.5099  -17.4639   21.0403 C   0  0  1  0  0  0  0  0  0  0  0  0
   10.5734  -18.5212   21.5610 C   0  0  0  0  0  0  0  0  0  0  0  0
   10.0664  -18.2586   22.9105 C   0  0  0  0  0  0  0  0  0  0  0  0
    9.6969  -17.0774   23.1866 O   0  0  0  0  0  0  0  0  0  0  0  0
   12.6255  -17.1541   21.9420 C   0  0  0  0  0  0  0  0  0  0  0  0
   12.4245  -16.8559   23.1416 O   0  0  0  0  0  0  0  0  0  0  0  0
    9.9506  -19.1972   23.9315 O   0  0  0  0  0  0  0  0  0  0  0  0
   15.7160  -16.1194   19.1757 N   0  0  0  0  0  0  0  0  0  0  0  0
   15.3443  -14.9737   19.9329 C   0  0  0  0  0  0  0  0  0  0  0  0
   15.3867  -13.8546   19.3712 O   0  0  0  0  0  0  0  0  0  0  0  0
   14.9136  -15.0209   21.3347 C   0  0  0  0  0  0  0  0  0  0  0  0
   15.0308  -16.3838   21.9765 C   0  0  2  0  0  0  0  0  0  0  0  0
   13.9452  -17.1890   21.4567 N   0  0  0  0  0  0  0  0  0  0  0  0
   14.8981  -16.3123   23.4440 C   0  0  0  0  0  0  0  0  0  0  0  0
   13.8316  -15.9194   24.0013 O   0  0  0  0  0  0  0  0  0  0  0  0
   15.9576  -16.6817   24.2441 O   0  0  0  0  0  0  0  0  0  0  0  0
  2  1  1  1
  2  7  1  0
  3  4  1  0
  3  2  1  0
  5  4  1  0
  5  9  1  0
  6  5  2  0
  7  8  2  0
 10 11  1  0
 10  7  1  0
 11 15  1  0
 12 13  1  0
 11 12  1  1
 13 17  1  0
 14 13  2  0
 15 16  2  0
 18 19  1  0
 19 21  1  0
 19 20  2  0
 22 21  1  6
 22 24  1  0
 23 15  1  0
 23 22  1  0
 24 25  2  0
 24 26  1  0
M  END
$$$$
