EDN.pdb
     RDKit          3D

 26 25  0  0  1  0  0  0  0  0999 V2000
   15.2910  -13.2235   17.0641 N   0  0  0  0  0  0  0  0  0  0  0  0
   14.2408  -14.2684   17.0012 C   0  0  1  0  0  0  0  0  0  0  0  0
   14.9593  -15.5658   16.8235 C   0  0  0  0  0  0  0  0  0  0  0  0
   15.5431  -15.7045   15.4571 C   0  0  0  0  0  0  0  0  0  0  0  0
   16.1477  -17.0498   15.3051 C   0  0  0  0  0  0  0  0  0  0  0  0
   17.3552  -17.2880   15.1002 O   0  0  0  0  0  0  0  0  0  0  0  0
   13.4706  -14.2680   18.2536 C   0  0  0  0  0  0  0  0  0  0  0  0
   13.9382  -13.7830   19.2936 O   0  0  0  0  0  0  0  0  0  0  0  0
   15.3091  -18.1770   15.3932 O   0  0  0  0  0  0  0  0  0  0  0  0
   12.1616  -14.8296   18.2905 N   0  0  0  0  0  0  0  0  0  0  0  0
   11.3729  -14.9316   19.4869 C   0  0  1  0  0  0  0  0  0  0  0  0
    9.9431  -15.2735   19.1631 C   0  0  0  0  0  0  0  0  0  0  0  0
    9.0942  -15.4713   20.3411 C   0  0  0  0  0  0  0  0  0  0  0  0
    9.6449  -15.4347   21.4828 O   0  0  0  0  0  0  0  0  0  0  0  0
   12.0101  -15.8536   20.4344 C   0  0  0  0  0  0  0  0  0  0  0  0
   12.0531  -17.0849   20.2100 O   0  0  0  0  0  0  0  0  0  0  0  0
    7.7213  -15.6985   20.3239 O   0  0  0  0  0  0  0  0  0  0  0  0
   15.3859  -16.4952   20.9146 N   0  0  0  0  0  0  0  0  0  0  0  0
   15.5304  -15.7881   22.1408 C   0  0  0  0  0  0  0  0  0  0  0  0
   16.6602  -15.3294   22.4289 O   0  0  0  0  0  0  0  0  0  0  0  0
   14.4361  -15.5621   23.0917 C   0  0  0  0  0  0  0  0  0  0  0  0
   13.1179  -16.1763   22.6813 C   0  0  2  0  0  0  0  0  0  0  0  0
   12.5823  -15.3525   21.6176 N   0  0  0  0  0  0  0  0  0  0  0  0
   12.1494  -16.1904   23.7940 C   0  0  0  0  0  0  0  0  0  0  0  0
   11.1578  -15.4044   23.8283 O   0  0  0  0  0  0  0  0  0  0  0  0
   12.3159  -17.0807   24.8327 O   0  0  0  0  0  0  0  0  0  0  0  0
  2  1  1  1
  2  7  1  0
  3  4  1  0
  3  2  1  0
  5  4  1  0
  5  9  1  0
  6  5  2  0
  7  8  2  0
 10 11  1  0
 10  7  1  0
 11 15  1  0
 12 13  1  0
 11 12  1  6
 13 17  1  0
 14 13  2  0
 15 16  2  0
 18 19  1  0
 19 21  1  0
 19 20  2  0
 22 21  1  1
 22 24  1  0
 23 15  1  0
 23 22  1  0
 24 25  2  0
 24 26  1  0
M  END
$$$$
