YLN.pdb
     RDKit          3D

 29 29  0  0  1  0  0  0  0  0999 V2000
   25.2987  -14.4507  -20.0602 O   0  0  0  0  0  0  0  0  0  0  0  0
   25.0980  -15.5752  -19.2531 C   0  0  0  0  0  0  0  0  0  0  0  0
   24.5066  -16.7190  -19.7594 C   0  0  0  0  0  0  0  0  0  0  0  0
   24.3230  -17.8142  -18.9324 C   0  0  0  0  0  0  0  0  0  0  0  0
   24.7267  -17.7671  -17.6107 C   0  0  0  0  0  0  0  0  0  0  0  0
   24.5378  -18.9275  -16.7131 C   0  0  0  0  0  0  0  0  0  0  0  0
   25.8200  -19.6822  -16.4770 C   0  0  2  0  0  0  0  0  0  0  0  0
   26.2679  -20.3026  -17.6832 N   0  0  0  0  0  0  0  0  0  0  0  0
   25.5175  -20.7655  -15.4726 C   0  0  0  0  0  0  0  0  0  0  0  0
   24.7643  -21.7076  -15.8173 O   0  0  0  0  0  0  0  0  0  0  0  0
   25.3142  -16.6230  -17.1179 C   0  0  0  0  0  0  0  0  0  0  0  0
   25.5073  -15.5106  -17.9359 C   0  0  0  0  0  0  0  0  0  0  0  0
   27.5868  -19.3388  -11.6337 C   0  0  0  0  0  0  0  0  0  0  0  0
   28.0721  -20.6088  -12.3369 C   0  0  1  0  0  0  0  0  0  0  0  0
   29.3687  -20.9744  -11.5934 C   0  0  0  0  0  0  0  0  0  0  0  0
   27.0657  -21.6960  -12.2155 C   0  0  0  0  0  0  0  0  0  0  0  0
   25.8306  -21.4432  -13.0656 C   0  0  2  0  0  0  0  0  0  0  0  0
   26.1045  -20.6405  -14.2167 N   0  0  0  0  0  0  0  0  0  0  0  0
   24.6536  -21.0784  -12.2924 C   0  0  0  0  0  0  0  0  0  0  0  0
   24.7143  -20.1719  -11.3853 O   0  0  0  0  0  0  0  0  0  0  0  0
   20.0352  -19.1959  -14.4729 N   0  0  0  0  0  0  0  0  0  0  0  0
   20.8938  -19.0186  -13.3330 C   0  0  0  0  0  0  0  0  0  0  0  0
   20.4448  -18.2637  -12.4449 O   0  0  0  0  0  0  0  0  0  0  0  0
   22.1953  -19.7147  -13.2948 C   0  0  0  0  0  0  0  0  0  0  0  0
   22.1420  -20.9342  -12.4464 C   0  0  2  0  0  0  0  0  0  0  0  0
   23.4023  -21.6726  -12.4757 N   0  0  0  0  0  0  0  0  0  0  0  0
   21.1423  -21.8862  -13.0448 C   0  0  0  0  0  0  0  0  0  0  0  0
   19.9374  -21.8972  -12.7712 O   0  0  0  0  0  0  0  0  0  0  0  0
   21.5587  -22.8502  -13.9868 O   0  0  0  0  0  0  0  0  0  0  0  0
  2  3  2  0
  2  1  1  0
  4  3  1  0
  5  4  2  0
  6  5  1  0
  6  7  1  0
  7  8  1  6
  9  7  1  0
  9 18  1  0
 10  9  2  0
 11  5  1  0
 11 12  2  0
 12  2  1  0
 14 13  1  1
 14 15  1  0
 16 14  1  0
 17 16  1  1
 17 18  1  0
 19 17  1  0
 20 19  2  0
 21 22  1  0
 22 24  1  0
 23 22  2  0
 25 24  1  6
 25 26  1  0
 25 27  1  0
 26 19  1  0
 27 29  1  0
 28 27  2  0
M  END
$$$$
