YLN.pdb
     RDKit          3D

 29 29  0  0  1  0  0  0  0  0999 V2000
   13.4618  -21.1852   -0.5412 O   0  0  0  0  0  0  0  0  0  0  0  0
   14.4521  -20.8611    0.3918 C   0  0  0  0  0  0  0  0  0  0  0  0
   14.1209  -20.5008    1.6860 C   0  0  0  0  0  0  0  0  0  0  0  0
   15.1267  -20.1860    2.5840 C   0  0  0  0  0  0  0  0  0  0  0  0
   16.4521  -20.2307    2.1924 C   0  0  0  0  0  0  0  0  0  0  0  0
   17.5391  -19.8970    3.1385 C   0  0  0  0  0  0  0  0  0  0  0  0
   17.0143  -19.4720    4.4851 C   0  0  2  0  0  0  0  0  0  0  0  0
   16.4291  -18.1711    4.4092 N   0  0  0  0  0  0  0  0  0  0  0  0
   18.1959  -19.4047    5.4195 C   0  0  0  0  0  0  0  0  0  0  0  0
   18.8920  -20.4360    5.5791 O   0  0  0  0  0  0  0  0  0  0  0  0
   16.7696  -20.5906    0.9015 C   0  0  0  0  0  0  0  0  0  0  0  0
   15.7702  -20.9110   -0.0164 C   0  0  0  0  0  0  0  0  0  0  0  0
   22.1942  -16.8861    7.6899 C   0  0  0  0  0  0  0  0  0  0  0  0
   20.8977  -16.1640    8.0652 C   0  0  1  0  0  0  0  0  0  0  0  0
   21.2851  -14.6749    8.0592 C   0  0  0  0  0  0  0  0  0  0  0  0
   19.8325  -16.4397    7.0657 C   0  0  0  0  0  0  0  0  0  0  0  0
   19.4468  -17.9097    7.0168 C   0  0  2  0  0  0  0  0  0  0  0  0
   18.4327  -18.1850    6.0471 N   0  0  0  0  0  0  0  0  0  0  0  0
   19.2614  -18.5091    8.3293 C   0  0  0  0  0  0  0  0  0  0  0  0
   18.2619  -18.1861    9.0675 O   0  0  0  0  0  0  0  0  0  0  0  0
   19.6629  -23.5607   11.4961 N   0  0  0  0  0  0  0  0  0  0  0  0
   19.3214  -22.1745   11.3246 C   0  0  0  0  0  0  0  0  0  0  0  0
   18.8440  -21.6182   12.3360 O   0  0  0  0  0  0  0  0  0  0  0  0
   19.5504  -21.5315   10.0153 C   0  0  0  0  0  0  0  0  0  0  0  0
   19.9318  -20.1024   10.1636 C   0  0  2  0  0  0  0  0  0  0  0  0
   20.1352  -19.4566    8.8690 N   0  0  0  0  0  0  0  0  0  0  0  0
   21.2816  -20.0368   10.8251 C   0  0  0  0  0  0  0  0  0  0  0  0
   22.3520  -20.2688   10.2531 O   0  0  0  0  0  0  0  0  0  0  0  0
   21.3856  -19.6918   12.1890 O   0  0  0  0  0  0  0  0  0  0  0  0
  2  3  2  0
  2  1  1  0
  4  3  1  0
  5  4  2  0
  6  5  1  0
  6  7  1  0
  7  8  1  6
  9  7  1  0
  9 18  1  0
 10  9  2  0
 11  5  1  0
 11 12  2  0
 12  2  1  0
 14 13  1  6
 14 15  1  0
 16 14  1  0
 17 16  1  1
 17 18  1  0
 19 17  1  0
 20 19  2  0
 21 22  1  0
 22 24  1  0
 23 22  2  0
 25 24  1  6
 25 26  1  0
 25 27  1  0
 26 19  1  0
 27 29  1  0
 28 27  2  0
M  END
$$$$
