YLN.pdb
     RDKit          3D

 29 29  0  0  1  0  0  0  0  0999 V2000
   11.6070  -13.4683  -15.2864 O   0  0  0  0  0  0  0  0  0  0  0  0
   12.8548  -12.9458  -14.9311 C   0  0  0  0  0  0  0  0  0  0  0  0
   13.9764  -13.7542  -14.8772 C   0  0  0  0  0  0  0  0  0  0  0  0
   15.1961  -13.2039  -14.5215 C   0  0  0  0  0  0  0  0  0  0  0  0
   15.2946  -11.8575  -14.2222 C   0  0  0  0  0  0  0  0  0  0  0  0
   16.5895  -11.2533  -13.8398 C   0  0  0  0  0  0  0  0  0  0  0  0
   17.1151  -10.3139  -14.8936 C   0  0  2  0  0  0  0  0  0  0  0  0
   17.3747  -11.0167  -16.1099 N   0  0  0  0  0  0  0  0  0  0  0  0
   18.4201   -9.7590  -14.3809 C   0  0  0  0  0  0  0  0  0  0  0  0
   18.4157   -9.1204  -13.3012 O   0  0  0  0  0  0  0  0  0  0  0  0
   14.1712  -11.0628  -14.2792 C   0  0  0  0  0  0  0  0  0  0  0  0
   12.9346  -11.5994  -14.6354 C   0  0  0  0  0  0  0  0  0  0  0  0
   23.7327  -10.4696  -13.7041 C   0  0  0  0  0  0  0  0  0  0  0  0
   23.3246  -10.0108  -15.1063 C   0  0  1  0  0  0  0  0  0  0  0  0
   24.3595  -10.6743  -16.0316 C   0  0  0  0  0  0  0  0  0  0  0  0
   21.9490  -10.4707  -15.4317 C   0  0  0  0  0  0  0  0  0  0  0  0
   20.8793   -9.5383  -14.8855 C   0  0  2  0  0  0  0  0  0  0  0  0
   19.5525   -9.9989  -15.1539 N   0  0  0  0  0  0  0  0  0  0  0  0
   21.1382   -8.1319  -15.1525 C   0  0  0  0  0  0  0  0  0  0  0  0
   22.1878   -7.5544  -14.6907 O   0  0  0  0  0  0  0  0  0  0  0  0
   21.7495   -4.1734  -19.4377 N   0  0  0  0  0  0  0  0  0  0  0  0
   21.2933   -4.4532  -18.1030 C   0  0  0  0  0  0  0  0  0  0  0  0
   21.1331   -3.4492  -17.3773 O   0  0  0  0  0  0  0  0  0  0  0  0
   21.0559   -5.8537  -17.7003 C   0  0  0  0  0  0  0  0  0  0  0  0
   20.5940   -5.9499  -16.2905 C   0  0  2  0  0  0  0  0  0  0  0  0
   20.2854   -7.3268  -15.9121 N   0  0  0  0  0  0  0  0  0  0  0  0
   19.2780   -5.2304  -16.1715 C   0  0  0  0  0  0  0  0  0  0  0  0
   18.2092   -5.6482  -16.6297 O   0  0  0  0  0  0  0  0  0  0  0  0
   19.2066   -3.9915  -15.5005 O   0  0  0  0  0  0  0  0  0  0  0  0
  2  3  2  0
  2  1  1  0
  4  3  1  0
  5  4  2  0
  6  5  1  0
  6  7  1  0
  7  8  1  6
  9  7  1  0
  9 18  1  0
 10  9  2  0
 11  5  1  0
 11 12  2  0
 12  2  1  0
 14 13  1  1
 14 15  1  0
 16 14  1  0
 17 16  1  6
 17 18  1  0
 19 17  1  0
 20 19  2  0
 21 22  1  0
 22 24  1  0
 23 22  2  0
 25 24  1  6
 25 26  1  0
 25 27  1  0
 26 19  1  0
 27 29  1  0
 28 27  2  0
M  END
$$$$
