YLN.pdb
     RDKit          3D

 29 29  0  0  1  0  0  0  0  0999 V2000
   25.8425  -15.3369  -20.7820 O   0  0  0  0  0  0  0  0  0  0  0  0
   25.5272  -16.2382  -19.7600 C   0  0  0  0  0  0  0  0  0  0  0  0
   25.9473  -16.0168  -18.4604 C   0  0  0  0  0  0  0  0  0  0  0  0
   25.6175  -16.9298  -17.4730 C   0  0  0  0  0  0  0  0  0  0  0  0
   24.8743  -18.0544  -17.7814 C   0  0  0  0  0  0  0  0  0  0  0  0
   24.5135  -19.0402  -16.7393 C   0  0  0  0  0  0  0  0  0  0  0  0
   25.7162  -19.7733  -16.2052 C   0  0  2  0  0  0  0  0  0  0  0  0
   26.3274  -20.5537  -17.2338 N   0  0  0  0  0  0  0  0  0  0  0  0
   25.2228  -20.7101  -15.1315 C   0  0  0  0  0  0  0  0  0  0  0  0
   24.9834  -21.9019  -15.4411 O   0  0  0  0  0  0  0  0  0  0  0  0
   24.4617  -18.2641  -19.0786 C   0  0  0  0  0  0  0  0  0  0  0  0
   24.7844  -17.3557  -20.0858 C   0  0  0  0  0  0  0  0  0  0  0  0
   28.0207  -20.4594  -10.7588 C   0  0  0  0  0  0  0  0  0  0  0  0
   27.0817  -20.8841  -11.8906 C   0  0  1  0  0  0  0  0  0  0  0  0
   27.3586  -22.3881  -12.0604 C   0  0  0  0  0  0  0  0  0  0  0  0
   25.6631  -20.6441  -11.5167 C   0  0  0  0  0  0  0  0  0  0  0  0
   24.7065  -20.8945  -12.6717 C   0  0  2  0  0  0  0  0  0  0  0  0
   25.0662  -20.1771  -13.8551 N   0  0  0  0  0  0  0  0  0  0  0  0
   23.3036  -20.8434  -12.2901 C   0  0  0  0  0  0  0  0  0  0  0  0
   22.9473  -20.3891  -11.1433 O   0  0  0  0  0  0  0  0  0  0  0  0
   19.0590  -18.0341  -12.5591 N   0  0  0  0  0  0  0  0  0  0  0  0
   19.7065  -18.5973  -13.7130 C   0  0  0  0  0  0  0  0  0  0  0  0
   19.0566  -18.5161  -14.7766 O   0  0  0  0  0  0  0  0  0  0  0  0
   21.0423  -19.2084  -13.5643 C   0  0  0  0  0  0  0  0  0  0  0  0
   20.9519  -20.6398  -13.1736 C   0  0  2  0  0  0  0  0  0  0  0  0
   22.2672  -21.2738  -13.1226 N   0  0  0  0  0  0  0  0  0  0  0  0
   20.2252  -21.3842  -14.2607 C   0  0  0  0  0  0  0  0  0  0  0  0
   20.7677  -21.8646  -15.2615 O   0  0  0  0  0  0  0  0  0  0  0  0
   18.8296  -21.5732  -14.1781 O   0  0  0  0  0  0  0  0  0  0  0  0
  2  3  2  0
  2  1  1  0
  4  3  1  0
  5  4  2  0
  6  5  1  0
  6  7  1  0
  7  8  1  6
  9  7  1  0
  9 18  1  0
 10  9  2  0
 11  5  1  0
 11 12  2  0
 12  2  1  0
 14 13  1  1
 14 15  1  0
 16 14  1  0
 17 16  1  1
 17 18  1  0
 19 17  1  0
 20 19  2  0
 21 22  1  0
 22 24  1  0
 23 22  2  0
 25 24  1  6
 25 26  1  0
 25 27  1  0
 26 19  1  0
 27 29  1  0
 28 27  2  0
M  END
$$$$
