YLN.pdb
     RDKit          3D

 29 29  0  0  1  0  0  0  0  0999 V2000
   28.5567  -14.4533  -18.8237 O   0  0  0  0  0  0  0  0  0  0  0  0
   27.7393  -15.3585  -18.1389 C   0  0  0  0  0  0  0  0  0  0  0  0
   27.6130  -15.3034  -16.7622 C   0  0  0  0  0  0  0  0  0  0  0  0
   26.7953  -16.2152  -16.1162 C   0  0  0  0  0  0  0  0  0  0  0  0
   26.1096  -17.1738  -16.8395 C   0  0  0  0  0  0  0  0  0  0  0  0
   25.2323  -18.1557  -16.1657 C   0  0  0  0  0  0  0  0  0  0  0  0
   26.0101  -19.2911  -15.5530 C   0  0  2  0  0  0  0  0  0  0  0  0
   26.6030  -20.1009  -16.5696 N   0  0  0  0  0  0  0  0  0  0  0  0
   25.0263  -20.1392  -14.7872 C   0  0  0  0  0  0  0  0  0  0  0  0
   24.4829  -21.1044  -15.3761 O   0  0  0  0  0  0  0  0  0  0  0  0
   26.2433  -17.2188  -18.2095 C   0  0  0  0  0  0  0  0  0  0  0  0
   27.0621  -16.3089  -18.8771 C   0  0  0  0  0  0  0  0  0  0  0  0
   26.2950  -20.6141   -9.5462 C   0  0  0  0  0  0  0  0  0  0  0  0
   25.8273  -20.7320  -10.9990 C   0  0  1  0  0  0  0  0  0  0  0  0
   26.0815  -22.2074  -11.3540 C   0  0  0  0  0  0  0  0  0  0  0  0
   24.3834  -20.3985  -11.1166 C   0  0  0  0  0  0  0  0  0  0  0  0
   23.8933  -20.4341  -12.5555 C   0  0  2  0  0  0  0  0  0  0  0  0
   24.7882  -19.7849  -13.4623 N   0  0  0  0  0  0  0  0  0  0  0  0
   22.4828  -20.1090  -12.7006 C   0  0  0  0  0  0  0  0  0  0  0  0
   22.0980  -18.8944  -12.8587 O   0  0  0  0  0  0  0  0  0  0  0  0
   18.9757  -20.1296  -16.7372 N   0  0  0  0  0  0  0  0  0  0  0  0
   19.7759  -19.8077  -15.5867 C   0  0  0  0  0  0  0  0  0  0  0  0
   19.7236  -18.6137  -15.2232 O   0  0  0  0  0  0  0  0  0  0  0  0
   20.5723  -20.8703  -14.9414 C   0  0  0  0  0  0  0  0  0  0  0  0
   20.2585  -20.9902  -13.4932 C   0  0  2  0  0  0  0  0  0  0  0  0
   21.4690  -21.0703  -12.6792 N   0  0  0  0  0  0  0  0  0  0  0  0
   19.5711  -22.3088  -13.2635 C   0  0  0  0  0  0  0  0  0  0  0  0
   18.4304  -22.4316  -12.8047 O   0  0  0  0  0  0  0  0  0  0  0  0
   20.2313  -23.5154  -13.5770 O   0  0  0  0  0  0  0  0  0  0  0  0
  2  3  2  0
  2  1  1  0
  4  3  1  0
  5  4  2  0
  6  5  1  0
  6  7  1  0
  7  8  1  6
  9  7  1  0
  9 18  1  0
 10  9  2  0
 11  5  1  0
 11 12  2  0
 12  2  1  0
 14 13  1  1
 14 15  1  0
 16 14  1  0
 17 16  1  1
 17 18  1  0
 19 17  1  0
 20 19  2  0
 21 22  1  0
 22 24  1  0
 23 22  2  0
 25 24  1  6
 25 26  1  0
 25 27  1  0
 26 19  1  0
 27 29  1  0
 28 27  2  0
M  END
$$$$
