YLN.pdb
     RDKit          3D

 29 29  0  0  1  0  0  0  0  0999 V2000
   26.0716  -37.2708  -14.1978 O   0  0  0  0  0  0  0  0  0  0  0  0
   26.1180  -36.4879  -13.0397 C   0  0  0  0  0  0  0  0  0  0  0  0
   25.2723  -36.7413  -11.9743 C   0  0  0  0  0  0  0  0  0  0  0  0
   25.3449  -35.9463  -10.8430 C   0  0  0  0  0  0  0  0  0  0  0  0
   26.2547  -34.9070  -10.7766 C   0  0  0  0  0  0  0  0  0  0  0  0
   26.3454  -34.0476   -9.5761 C   0  0  0  0  0  0  0  0  0  0  0  0
   25.1403  -33.1577   -9.4179 C   0  0  2  0  0  0  0  0  0  0  0  0
   25.1160  -32.1577  -10.4378 N   0  0  0  0  0  0  0  0  0  0  0  0
   25.2713  -32.4682   -8.0833 C   0  0  0  0  0  0  0  0  0  0  0  0
   25.7139  -31.2947   -8.0571 O   0  0  0  0  0  0  0  0  0  0  0  0
   27.0913  -34.6644  -11.8434 C   0  0  0  0  0  0  0  0  0  0  0  0
   27.0324  -35.4545  -12.9907 C   0  0  0  0  0  0  0  0  0  0  0  0
   21.3496  -34.1149   -4.9114 C   0  0  0  0  0  0  0  0  0  0  0  0
   22.6385  -33.8399   -5.6899 C   0  0  1  0  0  0  0  0  0  0  0  0
   22.1552  -33.1608   -6.9834 C   0  0  0  0  0  0  0  0  0  0  0  0
   23.5368  -32.9392   -4.9209 C   0  0  0  0  0  0  0  0  0  0  0  0
   24.8768  -32.7286   -5.6079 C   0  0  2  0  0  0  0  0  0  0  0  0
   24.8860  -33.1941   -6.9598 N   0  0  0  0  0  0  0  0  0  0  0  0
   26.0188  -33.1065   -4.7897 C   0  0  0  0  0  0  0  0  0  0  0  0
   26.1237  -32.7027   -3.5756 O   0  0  0  0  0  0  0  0  0  0  0  0
   30.2555  -35.0443   -2.7883 N   0  0  0  0  0  0  0  0  0  0  0  0
   29.3367  -34.0640   -2.2759 C   0  0  0  0  0  0  0  0  0  0  0  0
   29.5913  -33.6511   -1.1248 O   0  0  0  0  0  0  0  0  0  0  0  0
   28.2010  -33.6316   -3.1144 C   0  0  0  0  0  0  0  0  0  0  0  0
   28.2084  -34.3046   -4.4399 C   0  0  2  0  0  0  0  0  0  0  0  0
   27.0587  -33.9165   -5.2534 N   0  0  0  0  0  0  0  0  0  0  0  0
   28.0257  -35.7824   -4.2236 C   0  0  0  0  0  0  0  0  0  0  0  0
   27.0068  -36.4122   -4.5267 O   0  0  0  0  0  0  0  0  0  0  0  0
   29.0583  -36.5452   -3.6388 O   0  0  0  0  0  0  0  0  0  0  0  0
  2  3  2  0
  2  1  1  0
  4  3  1  0
  5  4  2  0
  6  5  1  0
  6  7  1  0
  7  8  1  6
  9  7  1  0
  9 18  1  0
 10  9  2  0
 11  5  1  0
 11 12  2  0
 12  2  1  0
 14 13  1  1
 14 15  1  0
 16 14  1  0
 17 16  1  1
 17 18  1  0
 19 17  1  0
 20 19  2  0
 21 22  1  0
 22 24  1  0
 23 22  2  0
 25 24  1  1
 25 26  1  0
 25 27  1  0
 26 19  1  0
 27 29  1  0
 28 27  2  0
M  END
$$$$
