YLN.pdb
     RDKit          3D

 29 29  0  0  1  0  0  0  0  0999 V2000
   23.1333  -22.1723   -7.0053 O   0  0  0  0  0  0  0  0  0  0  0  0
   23.4796  -21.5212   -8.1937 C   0  0  0  0  0  0  0  0  0  0  0  0
   22.6128  -21.4982   -9.2719 C   0  0  0  0  0  0  0  0  0  0  0  0
   22.9878  -20.8444  -10.4335 C   0  0  0  0  0  0  0  0  0  0  0  0
   24.2182  -20.2189  -10.5170 C   0  0  0  0  0  0  0  0  0  0  0  0
   24.6351  -19.5164  -11.7502 C   0  0  0  0  0  0  0  0  0  0  0  0
   24.8054  -20.4574  -12.9142 C   0  0  2  0  0  0  0  0  0  0  0  0
   25.8490  -21.3972  -12.6527 N   0  0  0  0  0  0  0  0  0  0  0  0
   25.2089  -19.6223  -14.1032 C   0  0  0  0  0  0  0  0  0  0  0  0
   25.6860  -18.4804  -13.8980 O   0  0  0  0  0  0  0  0  0  0  0  0
   25.0726  -20.2485   -9.4372 C   0  0  0  0  0  0  0  0  0  0  0  0
   24.7120  -20.9020   -8.2595 C   0  0  0  0  0  0  0  0  0  0  0  0
   27.9765  -18.8238  -15.3608 C   0  0  0  0  0  0  0  0  0  0  0  0
   27.5287  -18.6575  -16.8151 C   0  0  1  0  0  0  0  0  0  0  0  0
   28.8360  -18.7530  -17.6211 C   0  0  0  0  0  0  0  0  0  0  0  0
   26.5853  -19.7388  -17.2031 C   0  0  0  0  0  0  0  0  0  0  0  0
   25.1953  -19.5346  -16.6217 C   0  0  2  0  0  0  0  0  0  0  0  0
   25.0200  -20.1868  -15.3614 N   0  0  0  0  0  0  0  0  0  0  0  0
   24.1249  -19.7102  -17.5912 C   0  0  0  0  0  0  0  0  0  0  0  0
   24.2301  -20.5647  -18.5435 O   0  0  0  0  0  0  0  0  0  0  0  0
   20.2081  -21.4566  -19.0614 N   0  0  0  0  0  0  0  0  0  0  0  0
   20.8410  -21.9081  -17.8517 C   0  0  0  0  0  0  0  0  0  0  0  0
   20.7049  -23.1252  -17.6060 O   0  0  0  0  0  0  0  0  0  0  0  0
   21.5785  -20.9382  -17.0177 C   0  0  0  0  0  0  0  0  0  0  0  0
   21.6079  -19.5884  -17.6398 C   0  0  2  0  0  0  0  0  0  0  0  0
   22.9337  -18.9804  -17.5576 N   0  0  0  0  0  0  0  0  0  0  0  0
   20.7308  -18.6726  -16.8299 C   0  0  0  0  0  0  0  0  0  0  0  0
   20.8515  -18.4838  -15.6148 O   0  0  0  0  0  0  0  0  0  0  0  0
   19.6861  -17.9586  -17.4535 O   0  0  0  0  0  0  0  0  0  0  0  0
  2  3  2  0
  2  1  1  0
  4  3  1  0
  5  4  2  0
  6  5  1  0
  6  7  1  0
  7  8  1  1
  9  7  1  0
  9 18  1  0
 10  9  2  0
 11  5  1  0
 11 12  2  0
 12  2  1  0
 14 13  1  1
 14 15  1  0
 16 14  1  0
 17 16  1  6
 17 18  1  0
 19 17  1  0
 20 19  2  0
 21 22  1  0
 22 24  1  0
 23 22  2  0
 25 24  1  1
 25 26  1  0
 25 27  1  0
 26 19  1  0
 27 29  1  0
 28 27  2  0
M  END
$$$$
