YLN.pdb
     RDKit          3D

 29 29  0  0  1  0  0  0  0  0999 V2000
   13.4848   -3.1863  -14.3567 O   0  0  0  0  0  0  0  0  0  0  0  0
   14.4972   -4.0004  -14.8750 C   0  0  0  0  0  0  0  0  0  0  0  0
   15.0241   -3.7679  -16.1331 C   0  0  0  0  0  0  0  0  0  0  0  0
   16.0255   -4.5936  -16.6154 C   0  0  0  0  0  0  0  0  0  0  0  0
   16.4965   -5.6426  -15.8473 C   0  0  0  0  0  0  0  0  0  0  0  0
   17.5654   -6.5346  -16.3470 C   0  0  0  0  0  0  0  0  0  0  0  0
   18.8890   -6.2713  -15.6776 C   0  0  2  0  0  0  0  0  0  0  0  0
   19.3585   -4.9588  -15.9901 N   0  0  0  0  0  0  0  0  0  0  0  0
   19.8727   -7.2697  -16.2338 C   0  0  0  0  0  0  0  0  0  0  0  0
   20.5495   -6.9464  -17.2393 O   0  0  0  0  0  0  0  0  0  0  0  0
   15.9643   -5.8641  -14.5965 C   0  0  0  0  0  0  0  0  0  0  0  0
   14.9555   -5.0431  -14.0944 C   0  0  0  0  0  0  0  0  0  0  0  0
   23.1091  -10.0173  -12.9319 C   0  0  0  0  0  0  0  0  0  0  0  0
   22.4451   -9.3384  -14.1324 C   0  0  1  0  0  0  0  0  0  0  0  0
   23.6194   -9.0076  -15.0702 C   0  0  0  0  0  0  0  0  0  0  0  0
   21.4816  -10.2584  -14.7919 C   0  0  0  0  0  0  0  0  0  0  0  0
   20.7700   -9.6097  -15.9687 C   0  0  2  0  0  0  0  0  0  0  0  0
   19.9603   -8.4965  -15.5820 N   0  0  0  0  0  0  0  0  0  0  0  0
   20.1578  -10.5645  -16.8798 C   0  0  0  0  0  0  0  0  0  0  0  0
   19.0167  -11.0905  -16.6163 O   0  0  0  0  0  0  0  0  0  0  0  0
   18.7931  -13.2372  -21.0105 N   0  0  0  0  0  0  0  0  0  0  0  0
   18.1422  -12.0395  -20.5527 C   0  0  0  0  0  0  0  0  0  0  0  0
   17.0287  -11.8114  -21.0708 O   0  0  0  0  0  0  0  0  0  0  0  0
   18.8106  -11.1964  -19.5415 C   0  0  0  0  0  0  0  0  0  0  0  0
   20.0834  -11.8046  -19.0728 C   0  0  2  0  0  0  0  0  0  0  0  0
   20.7518  -10.9687  -18.0783 N   0  0  0  0  0  0  0  0  0  0  0  0
   21.0456  -11.8436  -20.2289 C   0  0  0  0  0  0  0  0  0  0  0  0
   22.0267  -11.1019  -20.3468 O   0  0  0  0  0  0  0  0  0  0  0  0
   20.8585  -12.7720  -21.2745 O   0  0  0  0  0  0  0  0  0  0  0  0
  2  3  2  0
  2  1  1  0
  4  3  1  0
  5  4  2  0
  6  5  1  0
  6  7  1  0
  7  8  1  6
  9  7  1  0
  9 18  1  0
 10  9  2  0
 11  5  1  0
 11 12  2  0
 12  2  1  0
 14 13  1  1
 14 15  1  0
 16 14  1  0
 17 16  1  1
 17 18  1  0
 19 17  1  0
 20 19  2  0
 21 22  1  0
 22 24  1  0
 23 22  2  0
 25 24  1  6
 25 26  1  0
 25 27  1  0
 26 19  1  0
 27 29  1  0
 28 27  2  0
M  END
$$$$
