YLN.pdb
     RDKit          3D

 29 29  0  0  1  0  0  0  0  0999 V2000
   27.9479  -14.4286  -17.5052 O   0  0  0  0  0  0  0  0  0  0  0  0
   27.3145  -15.5022  -16.8709 C   0  0  0  0  0  0  0  0  0  0  0  0
   26.7209  -16.5137  -17.6052 C   0  0  0  0  0  0  0  0  0  0  0  0
   26.1023  -17.5618  -16.9449 C   0  0  0  0  0  0  0  0  0  0  0  0
   26.0770  -17.5991  -15.5628 C   0  0  0  0  0  0  0  0  0  0  0  0
   25.4202  -18.7109  -14.8412 C   0  0  0  0  0  0  0  0  0  0  0  0
   26.4138  -19.6957  -14.2827 C   0  0  2  0  0  0  0  0  0  0  0  0
   27.0900  -20.3814  -15.3378 N   0  0  0  0  0  0  0  0  0  0  0  0
   25.6322  -20.7092  -13.4853 C   0  0  0  0  0  0  0  0  0  0  0  0
   25.3603  -21.8107  -14.0205 O   0  0  0  0  0  0  0  0  0  0  0  0
   26.6712  -16.5866  -14.8427 C   0  0  0  0  0  0  0  0  0  0  0  0
   27.2987  -15.5233  -15.4904 C   0  0  0  0  0  0  0  0  0  0  0  0
   26.3868  -20.2999   -8.1071 C   0  0  0  0  0  0  0  0  0  0  0  0
   26.1427  -20.6216   -9.5836 C   0  0  1  0  0  0  0  0  0  0  0  0
   26.9201  -21.9293   -9.8139 C   0  0  0  0  0  0  0  0  0  0  0  0
   24.6925  -20.8120   -9.8489 C   0  0  0  0  0  0  0  0  0  0  0  0
   24.3990  -21.0726  -11.3178 C   0  0  2  0  0  0  0  0  0  0  0  0
   25.2631  -20.3443  -12.1938 N   0  0  0  0  0  0  0  0  0  0  0  0
   22.9815  -21.0457  -11.6441 C   0  0  0  0  0  0  0  0  0  0  0  0
   22.1217  -21.6445  -10.9022 O   0  0  0  0  0  0  0  0  0  0  0  0
   18.4177  -20.2327  -12.4063 N   0  0  0  0  0  0  0  0  0  0  0  0
   19.0570  -19.0003  -12.7811 C   0  0  0  0  0  0  0  0  0  0  0  0
   18.3208  -17.9916  -12.7497 O   0  0  0  0  0  0  0  0  0  0  0  0
   20.4834  -19.0141  -13.1620 C   0  0  0  0  0  0  0  0  0  0  0  0
   21.0497  -20.3880  -13.1234 C   0  0  2  0  0  0  0  0  0  0  0  0
   22.4649  -20.3829  -12.7605 N   0  0  0  0  0  0  0  0  0  0  0  0
   21.0284  -20.9502  -14.5188 C   0  0  0  0  0  0  0  0  0  0  0  0
   22.0154  -21.0209  -15.2588 O   0  0  0  0  0  0  0  0  0  0  0  0
   19.8247  -21.4429  -15.0652 O   0  0  0  0  0  0  0  0  0  0  0  0
  2  3  2  0
  2  1  1  0
  4  3  1  0
  5  4  2  0
  6  5  1  0
  6  7  1  0
  7  8  1  6
  9  7  1  0
  9 18  1  0
 10  9  2  0
 11  5  1  0
 11 12  2  0
 12  2  1  0
 14 13  1  1
 14 15  1  0
 16 14  1  0
 17 16  1  1
 17 18  1  0
 19 17  1  0
 20 19  2  0
 21 22  1  0
 22 24  1  0
 23 22  2  0
 25 24  1  6
 25 26  1  0
 25 27  1  0
 26 19  1  0
 27 29  1  0
 28 27  2  0
M  END
$$$$
