YLN.pdb
     RDKit          3D

 29 29  0  0  1  0  0  0  0  0999 V2000
   24.9386  -19.1672  -24.6640 O   0  0  0  0  0  0  0  0  0  0  0  0
   24.9379  -18.0481  -23.8250 C   0  0  0  0  0  0  0  0  0  0  0  0
   23.7637  -17.3759  -23.5352 C   0  0  0  0  0  0  0  0  0  0  0  0
   23.7993  -16.2715  -22.7008 C   0  0  0  0  0  0  0  0  0  0  0  0
   24.9976  -15.8423  -22.1606 C   0  0  0  0  0  0  0  0  0  0  0  0
   25.0539  -14.6642  -21.2678 C   0  0  0  0  0  0  0  0  0  0  0  0
   25.3555  -15.0422  -19.8411 C   0  0  2  0  0  0  0  0  0  0  0  0
   24.2955  -15.8281  -19.2940 N   0  0  0  0  0  0  0  0  0  0  0  0
   25.4478  -13.7597  -19.0534 C   0  0  0  0  0  0  0  0  0  0  0  0
   24.3842  -13.2079  -18.6818 O   0  0  0  0  0  0  0  0  0  0  0  0
   26.1599  -16.5194  -22.4563 C   0  0  0  0  0  0  0  0  0  0  0  0
   26.1434  -17.6335  -23.2944 C   0  0  0  0  0  0  0  0  0  0  0  0
   30.3366  -13.3102  -16.6254 C   0  0  0  0  0  0  0  0  0  0  0  0
   28.8824  -13.3470  -17.1019 C   0  0  1  0  0  0  0  0  0  0  0  0
   28.0904  -13.7649  -15.8506 C   0  0  0  0  0  0  0  0  0  0  0  0
   28.4507  -12.0077  -17.5810 C   0  0  0  0  0  0  0  0  0  0  0  0
   27.0505  -12.0252  -18.1736 C   0  0  2  0  0  0  0  0  0  0  0  0
   26.7253  -13.2730  -18.7914 N   0  0  0  0  0  0  0  0  0  0  0  0
   26.7215  -10.8275  -18.9310 C   0  0  0  0  0  0  0  0  0  0  0  0
   26.8380   -9.6616  -18.4061 O   0  0  0  0  0  0  0  0  0  0  0  0
   25.3140   -7.4912  -22.5605 N   0  0  0  0  0  0  0  0  0  0  0  0
   26.6795   -7.9419  -22.5769 C   0  0  0  0  0  0  0  0  0  0  0  0
   27.4483   -7.2740  -23.3002 O   0  0  0  0  0  0  0  0  0  0  0  0
   27.0612   -9.1171  -21.7688 C   0  0  0  0  0  0  0  0  0  0  0  0
   25.9043   -9.6632  -21.0116 C   0  0  2  0  0  0  0  0  0  0  0  0
   26.2664  -10.8573  -20.2517 N   0  0  0  0  0  0  0  0  0  0  0  0
   24.8780  -10.1504  -21.9981 C   0  0  0  0  0  0  0  0  0  0  0  0
   24.6105  -11.3401  -22.1979 O   0  0  0  0  0  0  0  0  0  0  0  0
   24.1446   -9.2262  -22.7714 O   0  0  0  0  0  0  0  0  0  0  0  0
  2  3  2  0
  2  1  1  0
  4  3  1  0
  5  4  2  0
  6  5  1  0
  6  7  1  0
  7  8  1  1
  9  7  1  0
  9 18  1  0
 10  9  2  0
 11  5  1  0
 11 12  2  0
 12  2  1  0
 14 13  1  1
 14 15  1  0
 16 14  1  0
 17 16  1  6
 17 18  1  0
 19 17  1  0
 20 19  2  0
 21 22  1  0
 22 24  1  0
 23 22  2  0
 25 24  1  6
 25 26  1  0
 25 27  1  0
 26 19  1  0
 27 29  1  0
 28 27  2  0
M  END
$$$$
