YLN.pdb
     RDKit          3D

 29 29  0  0  1  0  0  0  0  0999 V2000
   23.8542  -31.3589  -10.1162 O   0  0  0  0  0  0  0  0  0  0  0  0
   24.6986  -31.9266   -9.1566 C   0  0  0  0  0  0  0  0  0  0  0  0
   26.0581  -32.0457   -9.3851 C   0  0  0  0  0  0  0  0  0  0  0  0
   26.8650  -32.6129   -8.4133 C   0  0  0  0  0  0  0  0  0  0  0  0
   26.3185  -33.0573   -7.2234 C   0  0  0  0  0  0  0  0  0  0  0  0
   27.1657  -33.6661   -6.1747 C   0  0  0  0  0  0  0  0  0  0  0  0
   27.8189  -34.9423   -6.6372 C   0  0  2  0  0  0  0  0  0  0  0  0
   26.8381  -35.9558   -6.8643 N   0  0  0  0  0  0  0  0  0  0  0  0
   28.7261  -35.4037   -5.5246 C   0  0  0  0  0  0  0  0  0  0  0  0
   28.3561  -36.3672   -4.8116 O   0  0  0  0  0  0  0  0  0  0  0  0
   24.9640  -32.9335   -7.0072 C   0  0  0  0  0  0  0  0  0  0  0  0
   24.1359  -32.3650   -7.9742 C   0  0  0  0  0  0  0  0  0  0  0  0
   33.8878  -33.7060   -6.4086 C   0  0  0  0  0  0  0  0  0  0  0  0
   32.7246  -34.6167   -6.0075 C   0  0  1  0  0  0  0  0  0  0  0  0
   33.3305  -36.0308   -6.0381 C   0  0  0  0  0  0  0  0  0  0  0  0
   32.2353  -34.2778   -4.6454 C   0  0  0  0  0  0  0  0  0  0  0  0
   30.8933  -34.9205   -4.3326 C   0  0  2  0  0  0  0  0  0  0  0  0
   29.9266  -34.7171   -5.3663 N   0  0  0  0  0  0  0  0  0  0  0  0
   30.4373  -34.6880   -2.9708 C   0  0  0  0  0  0  0  0  0  0  0  0
   29.7402  -33.6511   -2.6758 O   0  0  0  0  0  0  0  0  0  0  0  0
   27.5793  -34.2553    1.3239 N   0  0  0  0  0  0  0  0  0  0  0  0
   28.1721  -35.4737    0.8424 C   0  0  0  0  0  0  0  0  0  0  0  0
   28.1877  -36.4150    1.6634 O   0  0  0  0  0  0  0  0  0  0  0  0
   28.7001  -35.5238   -0.5355 C   0  0  0  0  0  0  0  0  0  0  0  0
   30.1801  -35.3862   -0.5627 C   0  0  2  0  0  0  0  0  0  0  0  0
   30.7173  -35.5544   -1.9109 N   0  0  0  0  0  0  0  0  0  0  0  0
   30.7777  -36.5254    0.2177 C   0  0  0  0  0  0  0  0  0  0  0  0
   30.5842  -36.7250    1.4216 O   0  0  0  0  0  0  0  0  0  0  0  0
   31.6228  -37.4558   -0.4228 O   0  0  0  0  0  0  0  0  0  0  0  0
  2  3  2  0
  2  1  1  0
  4  3  1  0
  5  4  2  0
  6  5  1  0
  6  7  1  0
  7  8  1  1
  9  7  1  0
  9 18  1  0
 10  9  2  0
 11  5  1  0
 11 12  2  0
 12  2  1  0
 14 13  1  1
 14 15  1  0
 16 14  1  0
 17 16  1  6
 17 18  1  0
 19 17  1  0
 20 19  2  0
 21 22  1  0
 22 24  1  0
 23 22  2  0
 25 24  1  6
 25 26  1  0
 25 27  1  0
 26 19  1  0
 27 29  1  0
 28 27  2  0
M  END
$$$$
