YLN.pdb
     RDKit          3D

 29 29  0  0  1  0  0  0  0  0999 V2000
   14.8310  -22.7974  -10.8037 O   0  0  0  0  0  0  0  0  0  0  0  0
   16.0692  -22.2074  -11.0776 C   0  0  0  0  0  0  0  0  0  0  0  0
   16.3742  -21.7479  -12.3466 C   0  0  0  0  0  0  0  0  0  0  0  0
   17.6096  -21.1691  -12.5828 C   0  0  0  0  0  0  0  0  0  0  0  0
   18.5326  -21.0503  -11.5599 C   0  0  0  0  0  0  0  0  0  0  0  0
   19.8571  -20.4351  -11.7948 C   0  0  0  0  0  0  0  0  0  0  0  0
   20.5066  -20.9411  -13.0563 C   0  0  2  0  0  0  0  0  0  0  0  0
   20.7001  -22.3549  -12.9904 N   0  0  0  0  0  0  0  0  0  0  0  0
   21.8600  -20.2831  -13.1520 C   0  0  0  0  0  0  0  0  0  0  0  0
   21.9248  -19.0331  -13.0687 O   0  0  0  0  0  0  0  0  0  0  0  0
   18.2178  -21.5114  -10.3010 C   0  0  0  0  0  0  0  0  0  0  0  0
   16.9787  -22.0970  -10.0445 C   0  0  0  0  0  0  0  0  0  0  0  0
   25.9339  -21.9759  -10.3415 C   0  0  0  0  0  0  0  0  0  0  0  0
   24.9348  -21.2387  -11.2367 C   0  0  1  0  0  0  0  0  0  0  0  0
   25.0330  -19.7735  -10.7773 C   0  0  0  0  0  0  0  0  0  0  0  0
   25.3111  -21.3729  -12.6685 C   0  0  0  0  0  0  0  0  0  0  0  0
   24.3014  -20.7199  -13.5991 C   0  0  2  0  0  0  0  0  0  0  0  0
   22.9564  -21.1224  -13.3285 N   0  0  0  0  0  0  0  0  0  0  0  0
   24.7057  -20.7259  -14.9966 C   0  0  0  0  0  0  0  0  0  0  0  0
   24.7302  -21.8173  -15.6723 O   0  0  0  0  0  0  0  0  0  0  0  0
   23.2063  -18.3636  -20.0927 N   0  0  0  0  0  0  0  0  0  0  0  0
   24.2339  -18.9712  -19.2911 C   0  0  0  0  0  0  0  0  0  0  0  0
   25.2526  -19.3291  -19.9192 O   0  0  0  0  0  0  0  0  0  0  0  0
   24.0203  -19.1232  -17.8381 C   0  0  0  0  0  0  0  0  0  0  0  0
   25.2696  -19.5206  -17.1371 C   0  0  2  0  0  0  0  0  0  0  0  0
   25.0872  -19.5734  -15.6886 N   0  0  0  0  0  0  0  0  0  0  0  0
   26.2940  -18.4376  -17.3410 C   0  0  0  0  0  0  0  0  0  0  0  0
   26.4174  -17.4465  -16.6135 O   0  0  0  0  0  0  0  0  0  0  0  0
   27.1981  -18.5127  -18.4214 O   0  0  0  0  0  0  0  0  0  0  0  0
  2  3  2  0
  2  1  1  0
  4  3  1  0
  5  4  2  0
  6  5  1  0
  6  7  1  0
  7  8  1  1
  9  7  1  0
  9 18  1  0
 10  9  2  0
 11  5  1  0
 11 12  2  0
 12  2  1  0
 14 13  1  1
 14 15  1  0
 16 14  1  0
 17 16  1  1
 17 18  1  0
 19 17  1  0
 20 19  2  0
 21 22  1  0
 22 24  1  0
 23 22  2  0
 25 24  1  6
 25 26  1  0
 25 27  1  0
 26 19  1  0
 27 29  1  0
 28 27  2  0
M  END
$$$$
