YRS.pdb
     RDKit          3D

 30 30  0  0  1  0  0  0  0  0999 V2000
   10.4093  -14.4668   31.1358 O   0  0  0  0  0  0  0  0  0  0  0  0
   10.4095  -14.8097   29.7887 C   0  0  0  0  0  0  0  0  0  0  0  0
   10.1117  -13.8444   28.8381 C   0  0  0  0  0  0  0  0  0  0  0  0
   10.1057  -14.1672   27.4768 C   0  0  0  0  0  0  0  0  0  0  0  0
   10.3956  -15.4438   27.0759 C   0  0  0  0  0  0  0  0  0  0  0  0
   10.3895  -15.7970   25.6487 C   0  0  0  0  0  0  0  0  0  0  0  0
    8.9280  -16.0071   25.2282 C   0  0  2  0  0  0  0  0  0  0  0  0
    8.3313  -17.0743   25.9996 N   0  0  0  0  0  0  0  0  0  0  0  0
    8.8216  -16.2244   23.7781 C   0  0  0  0  0  0  0  0  0  0  0  0
    8.8199  -17.4479   23.4043 O   0  0  0  0  0  0  0  0  0  0  0  0
   10.6902  -16.3967   28.0206 C   0  0  0  0  0  0  0  0  0  0  0  0
   10.6997  -16.0912   29.3732 C   0  0  0  0  0  0  0  0  0  0  0  0
    6.0611  -12.5080   16.2934 N   0  0  0  0  0  0  0  0  0  0  0  0
    7.0791  -13.4411   15.9726 C   0  0  0  0  0  0  0  0  0  0  0  0
    7.3031  -13.8807   14.7783 N   0  0  0  0  0  0  0  0  0  0  0  0
    7.9142  -13.9316   17.0176 N   0  0  0  0  0  0  0  0  0  0  0  0
    7.7002  -13.5561   18.4085 C   0  0  0  0  0  0  0  0  0  0  0  0
    8.7647  -14.1965   19.2340 C   0  0  0  0  0  0  0  0  0  0  0  0
    8.5243  -14.2355   20.6845 C   0  0  0  0  0  0  0  0  0  0  0  0
    8.8081  -15.5320   21.4001 C   0  0  2  0  0  0  0  0  0  0  0  0
    8.7247  -15.1909   22.8214 N   0  0  0  0  0  0  0  0  0  0  0  0
   10.1972  -16.0136   21.1865 C   0  0  0  0  0  0  0  0  0  0  0  0
   11.2009  -15.4983   21.7936 O   0  0  0  0  0  0  0  0  0  0  0  0
    8.0333  -14.5741   14.5488 O   0  0  0  0  0  0  0  0  0  0  0  0
   10.9882  -19.6389   19.7392 C   0  0  0  0  0  0  0  0  0  0  0  0
   12.0568  -18.9730   20.2872 C   0  0  1  0  0  0  0  0  0  0  0  0
   11.9377  -17.4797   20.1034 N   0  0  0  0  0  0  0  0  0  0  0  0
   10.5479  -17.0765   20.3063 C   0  0  0  0  0  0  0  0  0  0  0  0
   12.3007  -17.1161   18.7029 O   0  0  0  0  0  0  0  0  0  0  0  0
   11.4909  -16.6123   17.9027 O   0  0  0  0  0  0  0  0  0  0  0  0
  2  1  1  0
  3  2  2  0
  4  3  1  0
  5 11  1  0
  5  4  2  0
  6  5  1  0
  7  9  1  0
  7  6  1  0
  7  8  1  1
  9 10  2  0
 11 12  2  0
 12  2  1  0
 13 14  1  0
 14 15  2  0
 16 14  1  0
 16 17  1  0
 18 17  1  0
 19 18  1  0
 20 19  1  6
 21 20  1  0
 21  9  1  0
 22 20  1  0
 23 22  2  0
 24 25  1  0
 26 25  1  1
 26 28  1  0
 26 27  1  0
 27 22  1  0
 28 30  1  0
 29 28  2  0
M  END
$$$$
