YRS.pdb
     RDKit          3D

 30 30  0  0  1  0  0  0  0  0999 V2000
   11.0238  -15.4412   30.1584 O   0  0  0  0  0  0  0  0  0  0  0  0
   10.4621  -15.1532   28.9200 C   0  0  0  0  0  0  0  0  0  0  0  0
    9.6739  -14.0210   28.7741 C   0  0  0  0  0  0  0  0  0  0  0  0
    9.0983  -13.7117   27.5370 C   0  0  0  0  0  0  0  0  0  0  0  0
    9.3123  -14.5297   26.4601 C   0  0  0  0  0  0  0  0  0  0  0  0
    8.7105  -14.2179   25.1553 C   0  0  0  0  0  0  0  0  0  0  0  0
    7.5887  -15.2358   24.9059 C   0  0  2  0  0  0  0  0  0  0  0  0
    6.9231  -15.5646   26.1464 N   0  0  0  0  0  0  0  0  0  0  0  0
    8.0983  -16.4214   24.2015 C   0  0  0  0  0  0  0  0  0  0  0  0
    7.4444  -17.5027   24.4011 O   0  0  0  0  0  0  0  0  0  0  0  0
   10.0937  -15.6497   26.6088 C   0  0  0  0  0  0  0  0  0  0  0  0
   10.6703  -15.9688   27.8289 C   0  0  0  0  0  0  0  0  0  0  0  0
    8.4423  -13.7036   17.5484 N   0  0  0  0  0  0  0  0  0  0  0  0
    8.2418  -12.8649   18.6737 C   0  0  0  0  0  0  0  0  0  0  0  0
    8.6637  -11.6458   18.7477 N   0  0  0  0  0  0  0  0  0  0  0  0
    7.5337  -13.3815   19.7969 N   0  0  0  0  0  0  0  0  0  0  0  0
    7.3013  -14.8096   19.9646 C   0  0  0  0  0  0  0  0  0  0  0  0
    8.3592  -15.3522   20.8651 C   0  0  0  0  0  0  0  0  0  0  0  0
    8.2147  -16.7619   21.2587 C   0  0  0  0  0  0  0  0  0  0  0  0
    9.2456  -17.3279   22.2023 C   0  0  2  0  0  0  0  0  0  0  0  0
    9.2257  -16.4214   23.3519 N   0  0  0  0  0  0  0  0  0  0  0  0
   10.6258  -17.2511   21.6581 C   0  0  0  0  0  0  0  0  0  0  0  0
   10.8949  -17.5213   20.4350 O   0  0  0  0  0  0  0  0  0  0  0  0
    8.5034  -11.0307   19.5619 O   0  0  0  0  0  0  0  0  0  0  0  0
   13.6742  -14.4512   20.4763 C   0  0  0  0  0  0  0  0  0  0  0  0
   12.5858  -15.0303   21.0810 C   0  0  1  0  0  0  0  0  0  0  0  0
   12.9580  -16.3058   21.7969 N   0  0  0  0  0  0  0  0  0  0  0  0
   11.7665  -16.8748   22.4229 C   0  0  0  0  0  0  0  0  0  0  0  0
   13.9266  -16.0031   22.8903 O   0  0  0  0  0  0  0  0  0  0  0  0
   13.6283  -16.0710   24.0971 O   0  0  0  0  0  0  0  0  0  0  0  0
  2  1  1  0
  3  2  2  0
  4  3  1  0
  5 11  1  0
  5  4  2  0
  6  5  1  0
  7  9  1  0
  7  6  1  0
  7  8  1  1
  9 10  2  0
 11 12  2  0
 12  2  1  0
 13 14  1  0
 14 15  2  0
 16 14  1  0
 16 17  1  0
 18 17  1  0
 19 18  1  0
 20 19  1  6
 21 20  1  0
 21  9  1  0
 22 20  1  0
 23 22  2  0
 24 25  1  0
 26 25  1  6
 26 28  1  0
 26 27  1  0
 27 22  1  0
 28 30  1  0
 29 28  2  0
M  END
$$$$
