YRS.pdb
     RDKit          3D

 30 30  0  0  1  0  0  0  0  0999 V2000
   10.2415  -14.2817   31.4847 O   0  0  0  0  0  0  0  0  0  0  0  0
   10.1698  -14.7782   30.1884 C   0  0  0  0  0  0  0  0  0  0  0  0
    9.8124  -13.9297   29.1507 C   0  0  0  0  0  0  0  0  0  0  0  0
    9.7336  -14.4079   27.8383 C   0  0  0  0  0  0  0  0  0  0  0  0
   10.0106  -15.7220   27.5719 C   0  0  0  0  0  0  0  0  0  0  0  0
    9.9282  -16.2380   26.1976 C   0  0  0  0  0  0  0  0  0  0  0  0
    8.4475  -16.2465   25.7925 C   0  0  2  0  0  0  0  0  0  0  0  0
    7.7271  -17.2520   26.5408 N   0  0  0  0  0  0  0  0  0  0  0  0
    8.2987  -16.4034   24.3383 C   0  0  0  0  0  0  0  0  0  0  0  0
    8.0422  -17.5907   23.9369 O   0  0  0  0  0  0  0  0  0  0  0  0
   10.3643  -16.5588   28.6024 C   0  0  0  0  0  0  0  0  0  0  0  0
   10.4463  -16.0988   29.9080 C   0  0  0  0  0  0  0  0  0  0  0  0
    6.1745  -12.0969   16.9587 N   0  0  0  0  0  0  0  0  0  0  0  0
    7.1816  -13.0247   16.5914 C   0  0  0  0  0  0  0  0  0  0  0  0
    7.5048  -13.2905   15.3689 N   0  0  0  0  0  0  0  0  0  0  0  0
    7.8896  -13.7116   17.6194 N   0  0  0  0  0  0  0  0  0  0  0  0
    7.6305  -13.4557   19.0297 C   0  0  0  0  0  0  0  0  0  0  0  0
    8.5554  -14.3039   19.8357 C   0  0  0  0  0  0  0  0  0  0  0  0
    8.2949  -14.3528   21.2824 C   0  0  0  0  0  0  0  0  0  0  0  0
    8.4999  -15.6737   21.9799 C   0  0  2  0  0  0  0  0  0  0  0  0
    8.4197  -15.3506   23.4056 N   0  0  0  0  0  0  0  0  0  0  0  0
    9.8629  -16.2271   21.7727 C   0  0  0  0  0  0  0  0  0  0  0  0
   10.8922  -15.7522   22.3698 O   0  0  0  0  0  0  0  0  0  0  0  0
    8.2110  -13.9952   15.1014 O   0  0  0  0  0  0  0  0  0  0  0  0
   10.4223  -19.3720   19.3013 C   0  0  0  0  0  0  0  0  0  0  0  0
   11.5058  -19.1747   20.1215 C   0  0  1  0  0  0  0  0  0  0  0  0
   11.5294  -17.7760   20.6882 N   0  0  0  0  0  0  0  0  0  0  0  0
   10.1587  -17.3206   20.9098 C   0  0  0  0  0  0  0  0  0  0  0  0
   12.1474  -16.8447   19.7002 O   0  0  0  0  0  0  0  0  0  0  0  0
   11.5072  -15.9445   19.1261 O   0  0  0  0  0  0  0  0  0  0  0  0
  2  1  1  0
  3  2  2  0
  4  3  1  0
  5 11  1  0
  5  4  2  0
  6  5  1  0
  7  9  1  0
  7  6  1  0
  7  8  1  1
  9 10  2  0
 11 12  2  0
 12  2  1  0
 13 14  1  0
 14 15  2  0
 16 14  1  0
 16 17  1  0
 18 17  1  0
 19 18  1  0
 20 19  1  6
 21 20  1  0
 21  9  1  0
 22 20  1  0
 23 22  2  0
 24 25  1  0
 26 25  1  1
 26 28  1  0
 26 27  1  0
 27 22  1  0
 28 30  1  0
 29 28  2  0
M  END
$$$$
