YRS.pdb
     RDKit          3D

 30 30  0  0  1  0  0  0  0  0999 V2000
   10.9479  -13.3541   29.8217 O   0  0  0  0  0  0  0  0  0  0  0  0
    9.9718  -13.9960   29.0685 C   0  0  0  0  0  0  0  0  0  0  0  0
    9.2927  -13.2900   28.0862 C   0  0  0  0  0  0  0  0  0  0  0  0
    8.3063  -13.9158   27.3164 C   0  0  0  0  0  0  0  0  0  0  0  0
    8.0062  -15.2343   27.5307 C   0  0  0  0  0  0  0  0  0  0  0  0
    6.9693  -15.9029   26.7309 C   0  0  0  0  0  0  0  0  0  0  0  0
    7.6790  -16.7641   25.6766 C   0  0  2  0  0  0  0  0  0  0  0  0
    9.0721  -16.9363   26.0227 N   0  0  0  0  0  0  0  0  0  0  0  0
    7.4917  -16.2091   24.3282 C   0  0  0  0  0  0  0  0  0  0  0  0
    6.2808  -16.1561   23.9189 O   0  0  0  0  0  0  0  0  0  0  0  0
    8.6812  -15.9298   28.5042 C   0  0  0  0  0  0  0  0  0  0  0  0
    9.6611  -15.3226   29.2750 C   0  0  0  0  0  0  0  0  0  0  0  0
    8.9644  -14.7815   17.4025 N   0  0  0  0  0  0  0  0  0  0  0  0
    8.1709  -13.6274   17.1823 C   0  0  0  0  0  0  0  0  0  0  0  0
    8.1470  -12.9714   16.0693 N   0  0  0  0  0  0  0  0  0  0  0  0
    7.3443  -13.1511   18.2404 N   0  0  0  0  0  0  0  0  0  0  0  0
    7.8578  -12.9718   19.5916 C   0  0  0  0  0  0  0  0  0  0  0  0
    8.3081  -14.2997   20.1000 C   0  0  0  0  0  0  0  0  0  0  0  0
    8.0837  -14.5558   21.5308 C   0  0  0  0  0  0  0  0  0  0  0  0
    8.4271  -15.9284   22.0520 C   0  0  2  0  0  0  0  0  0  0  0  0
    8.5400  -15.7514   23.5009 N   0  0  0  0  0  0  0  0  0  0  0  0
    9.7636  -16.3956   21.6021 C   0  0  0  0  0  0  0  0  0  0  0  0
   10.8040  -16.3102   22.3449 O   0  0  0  0  0  0  0  0  0  0  0  0
    7.5856  -12.1178   15.9174 O   0  0  0  0  0  0  0  0  0  0  0  0
   12.3207  -19.7816   20.6786 C   0  0  0  0  0  0  0  0  0  0  0  0
   11.2629  -18.9556   20.9695 C   0  0  1  0  0  0  0  0  0  0  0  0
   11.2322  -17.7484   20.0640 N   0  0  0  0  0  0  0  0  0  0  0  0
   10.0196  -16.9767   20.3275 C   0  0  0  0  0  0  0  0  0  0  0  0
   11.1710  -18.1904   18.6406 O   0  0  0  0  0  0  0  0  0  0  0  0
   10.1075  -18.2540   17.9966 O   0  0  0  0  0  0  0  0  0  0  0  0
  2  1  1  0
  3  2  2  0
  4  3  1  0
  5 11  1  0
  5  4  2  0
  6  5  1  0
  7  9  1  0
  7  6  1  0
  7  8  1  1
  9 10  2  0
 11 12  2  0
 12  2  1  0
 13 14  1  0
 14 15  2  0
 16 14  1  0
 16 17  1  0
 18 17  1  0
 19 18  1  0
 20 19  1  6
 21 20  1  0
 21  9  1  0
 22 20  1  0
 23 22  2  0
 24 25  1  0
 26 25  1  1
 26 28  1  0
 26 27  1  0
 27 22  1  0
 28 30  1  0
 29 28  2  0
M  END
$$$$
