YRS.pdb
     RDKit          3D

 30 30  0  0  1  0  0  0  0  0999 V2000
    5.5126  -12.4300   19.1432 O   0  0  0  0  0  0  0  0  0  0  0  0
    6.7096  -12.9720   19.5963 C   0  0  0  0  0  0  0  0  0  0  0  0
    7.9015  -12.5935   18.9958 C   0  0  0  0  0  0  0  0  0  0  0  0
    9.1181  -13.1265   19.4354 C   0  0  0  0  0  0  0  0  0  0  0  0
    9.1367  -14.0282   20.4655 C   0  0  0  0  0  0  0  0  0  0  0  0
   10.4081  -14.5984   20.9349 C   0  0  0  0  0  0  0  0  0  0  0  0
   10.8171  -15.6988   19.9456 C   0  0  2  0  0  0  0  0  0  0  0  0
    9.8408  -16.7650   19.9475 N   0  0  0  0  0  0  0  0  0  0  0  0
   12.1808  -16.1750   20.2195 C   0  0  0  0  0  0  0  0  0  0  0  0
   12.2880  -17.0120   21.1811 O   0  0  0  0  0  0  0  0  0  0  0  0
    7.9542  -14.4001   21.0575 C   0  0  0  0  0  0  0  0  0  0  0  0
    6.7410  -13.8803   20.6322 C   0  0  0  0  0  0  0  0  0  0  0  0
   16.7786  -14.0683   14.2620 N   0  0  0  0  0  0  0  0  0  0  0  0
   17.3004  -14.1087   15.5796 C   0  0  0  0  0  0  0  0  0  0  0  0
   18.3078  -13.4040   15.9773 N   0  0  0  0  0  0  0  0  0  0  0  0
   16.6877  -14.9712   16.5339 N   0  0  0  0  0  0  0  0  0  0  0  0
   15.6963  -15.9640   16.1431 C   0  0  0  0  0  0  0  0  0  0  0  0
   15.2670  -16.7018   17.3662 C   0  0  0  0  0  0  0  0  0  0  0  0
   15.5014  -16.0215   18.6490 C   0  0  0  0  0  0  0  0  0  0  0  0
   14.6127  -16.3993   19.8070 C   0  0  2  0  0  0  0  0  0  0  0  0
   13.3267  -15.7697   19.5016 N   0  0  0  0  0  0  0  0  0  0  0  0
   15.0560  -15.7978   21.0910 C   0  0  0  0  0  0  0  0  0  0  0  0
   15.0083  -14.5360   21.3080 O   0  0  0  0  0  0  0  0  0  0  0  0
   18.7427  -13.4981   16.9094 O   0  0  0  0  0  0  0  0  0  0  0  0
   15.9005  -18.1187   24.2684 C   0  0  0  0  0  0  0  0  0  0  0  0
   15.7593  -16.7920   24.5934 C   0  0  1  0  0  0  0  0  0  0  0  0
   16.0357  -15.8954   23.4112 N   0  0  0  0  0  0  0  0  0  0  0  0
   15.5659  -16.5461   22.1900 C   0  0  0  0  0  0  0  0  0  0  0  0
   17.5070  -15.6970   23.2652 O   0  0  0  0  0  0  0  0  0  0  0  0
   18.1517  -16.1101   22.2836 O   0  0  0  0  0  0  0  0  0  0  0  0
  2  1  1  0
  3  2  2  0
  4  3  1  0
  5 11  1  0
  5  4  2  0
  6  5  1  0
  7  9  1  0
  7  6  1  0
  7  8  1  1
  9 10  2  0
 11 12  2  0
 12  2  1  0
 13 14  1  0
 14 15  2  0
 16 14  1  0
 16 17  1  0
 18 17  1  0
 19 18  1  0
 20 19  1  6
 21 20  1  0
 21  9  1  0
 22 20  1  0
 23 22  2  0
 24 25  1  0
 26 25  1  1
 26 28  1  0
 26 27  1  0
 27 22  1  0
 28 30  1  0
 29 28  2  0
M  END
$$$$
