YRS.pdb
     RDKit          3D

 30 30  0  0  1  0  0  0  0  0999 V2000
    6.1397  -12.1246   18.9598 O   0  0  0  0  0  0  0  0  0  0  0  0
    7.2334  -12.8367   19.4382 C   0  0  0  0  0  0  0  0  0  0  0  0
    7.0271  -14.0135   20.1432 C   0  0  0  0  0  0  0  0  0  0  0  0
    8.1131  -14.7463   20.6341 C   0  0  0  0  0  0  0  0  0  0  0  0
    9.3903  -14.3023   20.4190 C   0  0  0  0  0  0  0  0  0  0  0  0
   10.5402  -15.0612   20.9325 C   0  0  0  0  0  0  0  0  0  0  0  0
   11.2165  -15.7459   19.7363 C   0  0  2  0  0  0  0  0  0  0  0  0
   10.2613  -16.5564   19.0148 N   0  0  0  0  0  0  0  0  0  0  0  0
   12.4007  -16.5055   20.1629 C   0  0  0  0  0  0  0  0  0  0  0  0
   12.2308  -17.7680   20.2810 O   0  0  0  0  0  0  0  0  0  0  0  0
    9.5902  -13.1366   19.7202 C   0  0  0  0  0  0  0  0  0  0  0  0
    8.5235  -12.3999   19.2280 C   0  0  0  0  0  0  0  0  0  0  0  0
   16.0350  -13.4155   16.9617 N   0  0  0  0  0  0  0  0  0  0  0  0
   17.4203  -13.4430   17.2620 C   0  0  0  0  0  0  0  0  0  0  0  0
   18.1919  -12.4085   17.1977 N   0  0  0  0  0  0  0  0  0  0  0  0
   18.0114  -14.6763   17.6614 N   0  0  0  0  0  0  0  0  0  0  0  0
   17.2181  -15.8861   17.8304 C   0  0  0  0  0  0  0  0  0  0  0  0
   16.4352  -15.7584   19.0935 C   0  0  0  0  0  0  0  0  0  0  0  0
   15.5554  -16.8887   19.4276 C   0  0  0  0  0  0  0  0  0  0  0  0
   14.7929  -16.8139   20.7262 C   0  0  2  0  0  0  0  0  0  0  0  0
   13.6613  -15.9316   20.4355 N   0  0  0  0  0  0  0  0  0  0  0  0
   15.5593  -16.1373   21.8040 C   0  0  0  0  0  0  0  0  0  0  0  0
   15.8645  -14.8942   21.7496 O   0  0  0  0  0  0  0  0  0  0  0  0
   19.1803  -12.4093   17.4976 O   0  0  0  0  0  0  0  0  0  0  0  0
   16.6306  -18.1383   25.1985 C   0  0  0  0  0  0  0  0  0  0  0  0
   16.5659  -16.7746   25.3459 C   0  0  1  0  0  0  0  0  0  0  0  0
   16.7436  -16.0617   24.0275 N   0  0  0  0  0  0  0  0  0  0  0  0
   16.0212  -16.7863   22.9843 C   0  0  0  0  0  0  0  0  0  0  0  0
   18.1858  -16.0645   23.6461 O   0  0  0  0  0  0  0  0  0  0  0  0
   18.6260  -16.6953   22.6672 O   0  0  0  0  0  0  0  0  0  0  0  0
  2  1  1  0
  3  2  2  0
  4  3  1  0
  5 11  1  0
  5  4  2  0
  6  5  1  0
  7  9  1  0
  7  6  1  0
  7  8  1  1
  9 10  2  0
 11 12  2  0
 12  2  1  0
 13 14  1  0
 14 15  2  0
 16 14  1  0
 16 17  1  0
 18 17  1  0
 19 18  1  0
 20 19  1  6
 21 20  1  0
 21  9  1  0
 22 20  1  0
 23 22  2  0
 24 25  1  0
 26 25  1  1
 26 28  1  0
 26 27  1  0
 27 22  1  0
 28 30  1  0
 29 28  2  0
M  END
$$$$
