YRS.pdb
     RDKit          3D

 30 30  0  0  1  0  0  0  0  0999 V2000
    7.9388  -12.6685   22.7507 O   0  0  0  0  0  0  0  0  0  0  0  0
    7.7711  -13.2478   21.4983 C   0  0  0  0  0  0  0  0  0  0  0  0
    7.8426  -12.4535   20.3632 C   0  0  0  0  0  0  0  0  0  0  0  0
    7.6766  -13.0152   19.0926 C   0  0  0  0  0  0  0  0  0  0  0  0
    7.4421  -14.3579   18.9643 C   0  0  0  0  0  0  0  0  0  0  0  0
    7.2625  -14.9602   17.6351 C   0  0  0  0  0  0  0  0  0  0  0  0
    8.6334  -14.9788   16.9444 C   0  0  2  0  0  0  0  0  0  0  0  0
    8.5672  -15.7375   15.7156 N   0  0  0  0  0  0  0  0  0  0  0  0
    9.6783  -15.4641   17.8576 C   0  0  0  0  0  0  0  0  0  0  0  0
    9.6574  -16.7203   18.0989 O   0  0  0  0  0  0  0  0  0  0  0  0
    7.3722  -15.1409   20.0909 C   0  0  0  0  0  0  0  0  0  0  0  0
    7.5346  -14.5980   21.3566 C   0  0  0  0  0  0  0  0  0  0  0  0
   17.9058  -12.8797   17.8966 N   0  0  0  0  0  0  0  0  0  0  0  0
   17.6458  -14.2678   17.7714 C   0  0  0  0  0  0  0  0  0  0  0  0
   18.4514  -15.1031   17.2032 N   0  0  0  0  0  0  0  0  0  0  0  0
   16.4293  -14.7883   18.2996 N   0  0  0  0  0  0  0  0  0  0  0  0
   15.4378  -13.9271   18.9294 C   0  0  0  0  0  0  0  0  0  0  0  0
   14.2815  -14.7726   19.3450 C   0  0  0  0  0  0  0  0  0  0  0  0
   12.9680  -14.3818   18.8111 C   0  0  0  0  0  0  0  0  0  0  0  0
   11.7963  -15.2764   19.1279 C   0  0  2  0  0  0  0  0  0  0  0  0
   10.6609  -14.6442   18.4536 N   0  0  0  0  0  0  0  0  0  0  0  0
   11.4505  -15.2795   20.5727 C   0  0  0  0  0  0  0  0  0  0  0  0
   11.0507  -14.2262   21.1828 O   0  0  0  0  0  0  0  0  0  0  0  0
   18.2689  -16.1170   17.1282 O   0  0  0  0  0  0  0  0  0  0  0  0
   10.2265  -18.4977   22.6616 C   0  0  0  0  0  0  0  0  0  0  0  0
   10.0826  -17.2357   23.1835 C   0  0  1  0  0  0  0  0  0  0  0  0
   11.2597  -16.3540   22.8446 N   0  0  0  0  0  0  0  0  0  0  0  0
   11.5234  -16.4295   21.4093 C   0  0  0  0  0  0  0  0  0  0  0  0
   12.4793  -16.8552   23.5423 O   0  0  0  0  0  0  0  0  0  0  0  0
   12.5843  -16.8886   24.7824 O   0  0  0  0  0  0  0  0  0  0  0  0
  2  1  1  0
  3  2  2  0
  4  3  1  0
  5 11  1  0
  5  4  2  0
  6  5  1  0
  7  9  1  0
  7  6  1  0
  7  8  1  6
  9 10  2  0
 11 12  2  0
 12  2  1  0
 13 14  1  0
 14 15  2  0
 16 14  1  0
 16 17  1  0
 18 17  1  0
 19 18  1  0
 20 19  1  1
 21 20  1  0
 21  9  1  0
 22 20  1  0
 23 22  2  0
 24 25  1  0
 26 25  1  6
 26 28  1  0
 26 27  1  0
 27 22  1  0
 28 30  1  0
 29 28  2  0
M  END
$$$$
