YRS.pdb
     RDKit          3D

 30 30  0  0  1  0  0  0  0  0999 V2000
    5.1760  -10.4264   27.2429 O   0  0  0  0  0  0  0  0  0  0  0  0
    5.9610  -11.5547   27.0364 C   0  0  0  0  0  0  0  0  0  0  0  0
    6.9849  -11.8466   27.9257 C   0  0  0  0  0  0  0  0  0  0  0  0
    7.7877  -12.9768   27.7372 C   0  0  0  0  0  0  0  0  0  0  0  0
    7.5642  -13.8034   26.6689 C   0  0  0  0  0  0  0  0  0  0  0  0
    8.4027  -14.9925   26.4575 C   0  0  0  0  0  0  0  0  0  0  0  0
    7.5330  -16.0595   25.7777 C   0  0  2  0  0  0  0  0  0  0  0  0
    7.1082  -17.0503   26.7409 N   0  0  0  0  0  0  0  0  0  0  0  0
    8.2261  -16.6485   24.6228 C   0  0  0  0  0  0  0  0  0  0  0  0
    8.9679  -17.6579   24.8830 O   0  0  0  0  0  0  0  0  0  0  0  0
    6.5491  -13.5108   25.7907 C   0  0  0  0  0  0  0  0  0  0  0  0
    5.7457  -12.3940   25.9648 C   0  0  0  0  0  0  0  0  0  0  0  0
    7.3202  -13.4343   17.7258 N   0  0  0  0  0  0  0  0  0  0  0  0
    8.7052  -13.5012   18.0213 C   0  0  0  0  0  0  0  0  0  0  0  0
    9.4557  -12.4637   18.1948 N   0  0  0  0  0  0  0  0  0  0  0  0
    9.3205  -14.7808   18.1390 N   0  0  0  0  0  0  0  0  0  0  0  0
    8.5508  -15.9732   18.4664 C   0  0  0  0  0  0  0  0  0  0  0  0
    9.1051  -16.5565   19.7222 C   0  0  0  0  0  0  0  0  0  0  0  0
    8.4388  -16.1576   20.9712 C   0  0  0  0  0  0  0  0  0  0  0  0
    8.8891  -16.8304   22.2432 C   0  0  2  0  0  0  0  0  0  0  0  0
    8.1152  -16.1733   23.2981 N   0  0  0  0  0  0  0  0  0  0  0  0
   10.3135  -16.5567   22.5645 C   0  0  0  0  0  0  0  0  0  0  0  0
   10.7193  -15.4030   22.9463 O   0  0  0  0  0  0  0  0  0  0  0  0
   10.4714  -12.5131   18.3759 O   0  0  0  0  0  0  0  0  0  0  0  0
   13.0696  -19.5226   22.3810 C   0  0  0  0  0  0  0  0  0  0  0  0
   13.5020  -18.4487   23.1195 C   0  0  1  0  0  0  0  0  0  0  0  0
   12.7440  -17.1907   22.7718 N   0  0  0  0  0  0  0  0  0  0  0  0
   11.3514  -17.5283   22.4854 C   0  0  0  0  0  0  0  0  0  0  0  0
   13.3139  -16.5882   21.5318 O   0  0  0  0  0  0  0  0  0  0  0  0
   14.3500  -15.8979   21.5289 O   0  0  0  0  0  0  0  0  0  0  0  0
  2  1  1  0
  3  2  2  0
  4  3  1  0
  5 11  1  0
  5  4  2  0
  6  5  1  0
  7  9  1  0
  7  6  1  0
  7  8  1  1
  9 10  2  0
 11 12  2  0
 12  2  1  0
 13 14  1  0
 14 15  2  0
 16 14  1  0
 16 17  1  0
 18 17  1  0
 19 18  1  0
 20 19  1  6
 21 20  1  0
 21  9  1  0
 22 20  1  0
 23 22  2  0
 24 25  1  0
 26 25  1  1
 26 28  1  0
 26 27  1  0
 27 22  1  0
 28 30  1  0
 29 28  2  0
M  END
$$$$
