YRS.pdb
     RDKit          3D

 30 30  0  0  1  0  0  0  0  0999 V2000
   11.2121  -14.6629   31.0340 O   0  0  0  0  0  0  0  0  0  0  0  0
   10.3436  -14.8502   29.9650 C   0  0  0  0  0  0  0  0  0  0  0  0
    9.7138  -16.0756   29.8033 C   0  0  0  0  0  0  0  0  0  0  0  0
    8.8360  -16.2866   28.7344 C   0  0  0  0  0  0  0  0  0  0  0  0
    8.5940  -15.2789   27.8397 C   0  0  0  0  0  0  0  0  0  0  0  0
    7.6764  -15.4887   26.7102 C   0  0  0  0  0  0  0  0  0  0  0  0
    8.3162  -16.5277   25.7785 C   0  0  2  0  0  0  0  0  0  0  0  0
    9.7414  -16.6006   26.0099 N   0  0  0  0  0  0  0  0  0  0  0  0
    7.9806  -16.2547   24.3734 C   0  0  0  0  0  0  0  0  0  0  0  0
    6.7319  -16.2598   24.0954 O   0  0  0  0  0  0  0  0  0  0  0  0
    9.2197  -14.0670   28.0036 C   0  0  0  0  0  0  0  0  0  0  0  0
   10.0922  -13.8436   29.0580 C   0  0  0  0  0  0  0  0  0  0  0  0
    7.7126  -11.8241   18.1679 N   0  0  0  0  0  0  0  0  0  0  0  0
    7.6616  -13.0575   17.4707 C   0  0  0  0  0  0  0  0  0  0  0  0
    8.0643  -13.2137   16.2528 N   0  0  0  0  0  0  0  0  0  0  0  0
    7.1397  -14.2024   18.1391 N   0  0  0  0  0  0  0  0  0  0  0  0
    7.0643  -14.2723   19.5920 C   0  0  0  0  0  0  0  0  0  0  0  0
    8.4514  -14.2025   20.1354 C   0  0  0  0  0  0  0  0  0  0  0  0
    8.6050  -14.5220   21.5628 C   0  0  0  0  0  0  0  0  0  0  0  0
    8.4890  -15.9702   21.9660 C   0  0  2  0  0  0  0  0  0  0  0  0
    8.9309  -15.9977   23.3616 N   0  0  0  0  0  0  0  0  0  0  0  0
    9.4351  -16.8485   21.2309 C   0  0  0  0  0  0  0  0  0  0  0  0
   10.7019  -16.6581   21.2511 O   0  0  0  0  0  0  0  0  0  0  0  0
    8.0998  -14.1272   15.7720 O   0  0  0  0  0  0  0  0  0  0  0  0
    8.0963  -19.6308   18.5634 C   0  0  0  0  0  0  0  0  0  0  0  0
    9.3183  -19.9620   19.0953 C   0  0  1  0  0  0  0  0  0  0  0  0
   10.0100  -18.7617   19.6942 N   0  0  0  0  0  0  0  0  0  0  0  0
    9.0399  -17.9700   20.4475 C   0  0  0  0  0  0  0  0  0  0  0  0
   10.5364  -17.8902   18.6039 O   0  0  0  0  0  0  0  0  0  0  0  0
    9.8724  -16.9693   18.0931 O   0  0  0  0  0  0  0  0  0  0  0  0
  2  1  1  0
  3  2  2  0
  4  3  1  0
  5 11  1  0
  5  4  2  0
  6  5  1  0
  7  9  1  0
  7  6  1  0
  7  8  1  6
  9 10  2  0
 11 12  2  0
 12  2  1  0
 13 14  1  0
 14 15  2  0
 16 14  1  0
 16 17  1  0
 18 17  1  0
 19 18  1  0
 20 19  1  6
 21 20  1  0
 21  9  1  0
 22 20  1  0
 23 22  2  0
 24 25  1  0
 26 25  1  1
 26 28  1  0
 26 27  1  0
 27 22  1  0
 28 30  1  0
 29 28  2  0
M  END
$$$$
