YRS.pdb
     RDKit          3D

 30 30  0  0  1  0  0  0  0  0999 V2000
    5.8771  -10.2030   27.8686 O   0  0  0  0  0  0  0  0  0  0  0  0
    6.4160  -11.3693   27.3379 C   0  0  0  0  0  0  0  0  0  0  0  0
    7.1237  -12.2316   28.1625 C   0  0  0  0  0  0  0  0  0  0  0  0
    7.6750  -13.4109   27.6497 C   0  0  0  0  0  0  0  0  0  0  0  0
    7.5167  -13.7198   26.3253 C   0  0  0  0  0  0  0  0  0  0  0  0
    8.0938  -14.9542   25.7732 C   0  0  0  0  0  0  0  0  0  0  0  0
    6.9762  -15.6963   25.0268 C   0  0  2  0  0  0  0  0  0  0  0  0
    6.5417  -16.8468   25.7868 N   0  0  0  0  0  0  0  0  0  0  0  0
    7.3927  -16.0412   23.6597 C   0  0  0  0  0  0  0  0  0  0  0  0
    7.6984  -17.2691   23.4715 O   0  0  0  0  0  0  0  0  0  0  0  0
    6.8149  -12.8632   25.5123 C   0  0  0  0  0  0  0  0  0  0  0  0
    6.2633  -11.6909   26.0066 C   0  0  0  0  0  0  0  0  0  0  0  0
    9.6797  -15.0514   16.5526 N   0  0  0  0  0  0  0  0  0  0  0  0
    8.4204  -14.5036   16.2004 C   0  0  0  0  0  0  0  0  0  0  0  0
    7.7771  -14.8112   15.1227 N   0  0  0  0  0  0  0  0  0  0  0  0
    7.8143  -13.5579   17.0768 N   0  0  0  0  0  0  0  0  0  0  0  0
    8.4601  -13.1356   18.3122 C   0  0  0  0  0  0  0  0  0  0  0  0
    8.6314  -14.3344   19.1829 C   0  0  0  0  0  0  0  0  0  0  0  0
    7.7794  -14.3925   20.3804 C   0  0  0  0  0  0  0  0  0  0  0  0
    7.9368  -15.5874   21.2864 C   0  0  2  0  0  0  0  0  0  0  0  0
    7.4667  -15.1207   22.5920 N   0  0  0  0  0  0  0  0  0  0  0  0
    9.3576  -15.9718   21.4883 C   0  0  0  0  0  0  0  0  0  0  0  0
   10.1714  -15.2513   22.1666 O   0  0  0  0  0  0  0  0  0  0  0  0
    6.8785  -14.3824   14.8478 O   0  0  0  0  0  0  0  0  0  0  0  0
   10.8784  -19.5007   22.2884 C   0  0  0  0  0  0  0  0  0  0  0  0
   11.5508  -18.9550   21.2226 C   0  0  2  0  0  0  0  0  0  0  0  0
   11.3644  -17.4590   21.1519 N   0  0  0  0  0  0  0  0  0  0  0  0
    9.9474  -17.1564   20.9625 C   0  0  0  0  0  0  0  0  0  0  0  0
   12.0913  -16.9183   19.9667 O   0  0  0  0  0  0  0  0  0  0  0  0
   11.5101  -16.5135   18.9428 O   0  0  0  0  0  0  0  0  0  0  0  0
  2  1  1  0
  3  2  2  0
  4  3  1  0
  5 11  1  0
  5  4  2  0
  6  5  1  0
  7  9  1  0
  7  6  1  0
  7  8  1  1
  9 10  2  0
 11 12  2  0
 12  2  1  0
 13 14  1  0
 14 15  2  0
 16 14  1  0
 16 17  1  0
 18 17  1  0
 19 18  1  0
 20 19  1  6
 21 20  1  0
 21  9  1  0
 22 20  1  0
 23 22  2  0
 24 25  1  0
 26 25  1  1
 26 28  1  0
 26 27  1  0
 27 22  1  0
 28 30  1  0
 29 28  2  0
M  END
$$$$
