FTT.pdb
     RDKit          3D

 26 26  0  0  1  0  0  0  0  0999 V2000
    5.9417  -17.8787   25.8641 N   0  0  0  0  0  0  0  0  0  0  0  0
    6.4394  -16.5785   25.4564 C   0  0  1  0  0  0  0  0  0  0  0  0
    7.0159  -15.8377   26.6516 C   0  0  0  0  0  0  0  0  0  0  0  0
    6.7966  -14.3737   26.5699 C   0  0  0  0  0  0  0  0  0  0  0  0
    7.8315  -13.5167   26.2703 C   0  0  0  0  0  0  0  0  0  0  0  0
    7.5775  -12.1619   26.2067 C   0  0  0  0  0  0  0  0  0  0  0  0
    6.3286  -11.6208   26.4302 C   0  0  0  0  0  0  0  0  0  0  0  0
    5.3287  -12.5256   26.7264 C   0  0  0  0  0  0  0  0  0  0  0  0
    5.5313  -13.8872   26.8018 C   0  0  0  0  0  0  0  0  0  0  0  0
    7.3828  -16.7642   24.3576 C   0  0  0  0  0  0  0  0  0  0  0  0
    8.1698  -17.7493   24.3805 O   0  0  0  0  0  0  0  0  0  0  0  0
    6.5012  -15.0204   20.9128 C   0  0  0  0  0  0  0  0  0  0  0  0
    7.9914  -15.0957   21.0736 C   0  0  1  0  0  0  0  0  0  0  0  0
    8.5679  -13.8813   21.3846 O   0  0  0  0  0  0  0  0  0  0  0  0
    8.3753  -16.1870   22.0903 C   0  0  2  0  0  0  0  0  0  0  0  0
    7.5105  -15.9217   23.2250 N   0  0  0  0  0  0  0  0  0  0  0  0
    9.7966  -16.0460   22.3964 C   0  0  0  0  0  0  0  0  0  0  0  0
   10.3085  -15.1013   23.0692 O   0  0  0  0  0  0  0  0  0  0  0  0
   12.2537  -18.5054   24.1960 C   0  0  0  0  0  0  0  0  0  0  0  0
   12.6507  -18.2686   22.7607 C   0  0  1  0  0  0  0  0  0  0  0  0
   12.0795  -19.2999   22.0003 O   0  0  0  0  0  0  0  0  0  0  0  0
   12.1161  -16.9748   22.2183 C   0  0  2  0  0  0  0  0  0  0  0  0
   10.7066  -17.0234   21.9217 N   0  0  0  0  0  0  0  0  0  0  0  0
   12.8884  -16.6026   21.0305 C   0  0  0  0  0  0  0  0  0  0  0  0
   14.2304  -16.3071   21.0219 O   0  0  0  0  0  0  0  0  0  0  0  0
   12.2943  -16.5397   19.9010 O   0  0  0  0  0  0  0  0  0  0  0  0
  2  1  1  1
  3  2  1  0
  4  3  1  0
  5  4  2  0
  6  5  1  0
  7  6  2  0
  7  8  1  0
  8  9  2  0
  9  4  1  0
 10  2  1  0
 10 11  2  0
 13 12  1  1
 13 15  1  0
 13 14  1  0
 15 16  1  1
 16 10  1  0
 17 15  1  0
 18 17  2  0
 20 21  1  0
 20 19  1  1
 22 20  1  0
 22 23  1  6
 23 17  1  0
 24 25  1  0
 24 22  1  0
 26 24  2  0
M  END
$$$$
