FTT.pdb
     RDKit          3D

 26 26  0  0  1  0  0  0  0  0999 V2000
    5.6584  -17.8564   25.5183 N   0  0  0  0  0  0  0  0  0  0  0  0
    6.2841  -16.5623   25.3234 C   0  0  1  0  0  0  0  0  0  0  0  0
    6.8020  -16.0238   26.6468 C   0  0  0  0  0  0  0  0  0  0  0  0
    6.9687  -14.5507   26.6325 C   0  0  0  0  0  0  0  0  0  0  0  0
    8.1972  -13.9778   26.3918 C   0  0  0  0  0  0  0  0  0  0  0  0
    8.3018  -12.6020   26.3896 C   0  0  0  0  0  0  0  0  0  0  0  0
    7.2281  -11.7669   26.6183 C   0  0  0  0  0  0  0  0  0  0  0  0
    6.0213  -12.3947   26.8537 C   0  0  0  0  0  0  0  0  0  0  0  0
    5.8649  -13.7644   26.8666 C   0  0  0  0  0  0  0  0  0  0  0  0
    7.3074  -16.6903   24.2898 C   0  0  0  0  0  0  0  0  0  0  0  0
    8.1562  -17.6191   24.3743 O   0  0  0  0  0  0  0  0  0  0  0  0
    6.7111  -14.9457   20.7158 C   0  0  0  0  0  0  0  0  0  0  0  0
    8.1524  -14.8832   21.1292 C   0  0  1  0  0  0  0  0  0  0  0  0
    8.5324  -13.6408   21.5941 O   0  0  0  0  0  0  0  0  0  0  0  0
    8.4773  -15.9959   22.1431 C   0  0  2  0  0  0  0  0  0  0  0  0
    7.4511  -15.8486   23.1585 N   0  0  0  0  0  0  0  0  0  0  0  0
    9.8303  -15.7738   22.6468 C   0  0  0  0  0  0  0  0  0  0  0  0
   10.1795  -14.8208   23.4064 O   0  0  0  0  0  0  0  0  0  0  0  0
   11.9838  -17.6616   25.0176 C   0  0  0  0  0  0  0  0  0  0  0  0
   12.6185  -17.7075   23.6505 C   0  0  1  0  0  0  0  0  0  0  0  0
   12.1618  -18.8766   23.0239 O   0  0  0  0  0  0  0  0  0  0  0  0
   12.2067  -16.5540   22.7824 C   0  0  2  0  0  0  0  0  0  0  0  0
   10.8614  -16.6744   22.2797 N   0  0  0  0  0  0  0  0  0  0  0  0
   13.1661  -16.4207   21.6834 C   0  0  0  0  0  0  0  0  0  0  0  0
   14.4659  -15.9955   21.8172 O   0  0  0  0  0  0  0  0  0  0  0  0
   12.7931  -16.7156   20.4973 O   0  0  0  0  0  0  0  0  0  0  0  0
  2  1  1  1
  3  2  1  0
  4  3  1  0
  5  4  2  0
  6  5  1  0
  7  6  2  0
  7  8  1  0
  8  9  2  0
  9  4  1  0
 10  2  1  0
 10 11  2  0
 13 12  1  1
 13 15  1  0
 13 14  1  0
 15 16  1  1
 16 10  1  0
 17 15  1  0
 18 17  2  0
 20 21  1  0
 20 19  1  1
 22 20  1  0
 22 23  1  6
 23 17  1  0
 24 25  1  0
 24 22  1  0
 26 24  2  0
M  END
$$$$
