FTT.pdb
     RDKit          3D

 26 26  0  0  1  0  0  0  0  0999 V2000
    5.9798  -15.8454   23.9521 N   0  0  0  0  0  0  0  0  0  0  0  0
    7.3344  -15.3306   24.0183 C   0  0  1  0  0  0  0  0  0  0  0  0
    7.7224  -15.0549   25.4616 C   0  0  0  0  0  0  0  0  0  0  0  0
    7.1530  -13.7832   25.9680 C   0  0  0  0  0  0  0  0  0  0  0  0
    7.6799  -12.5690   25.5893 C   0  0  0  0  0  0  0  0  0  0  0  0
    7.1157  -11.4130   26.0884 C   0  0  0  0  0  0  0  0  0  0  0  0
    6.0420  -11.4146   26.9542 C   0  0  0  0  0  0  0  0  0  0  0  0
    5.5542  -12.6589   27.3002 C   0  0  0  0  0  0  0  0  0  0  0  0
    6.0823  -13.8421   26.8293 C   0  0  0  0  0  0  0  0  0  0  0  0
    8.2216  -16.2634   23.3296 C   0  0  0  0  0  0  0  0  0  0  0  0
    7.7234  -17.1686   22.6065 O   0  0  0  0  0  0  0  0  0  0  0  0
    8.5506  -16.8736   20.9784 C   0  0  0  0  0  0  0  0  0  0  0  0
   10.0333  -16.6816   21.1090 C   0  0  1  0  0  0  0  0  0  0  0  0
   10.4550  -15.4233   20.7313 O   0  0  0  0  0  0  0  0  0  0  0  0
   10.5060  -17.0394   22.5303 C   0  0  2  0  0  0  0  0  0  0  0  0
    9.6377  -16.2571   23.3905 N   0  0  0  0  0  0  0  0  0  0  0  0
   11.9171  -16.6800   22.6462 C   0  0  0  0  0  0  0  0  0  0  0  0
   12.3656  -15.4965   22.7191 O   0  0  0  0  0  0  0  0  0  0  0  0
   13.0699  -18.7041   25.6452 C   0  0  0  0  0  0  0  0  0  0  0  0
   14.0714  -18.8281   24.5248 C   0  0  1  0  0  0  0  0  0  0  0  0
   13.7279  -19.9731   23.7907 O   0  0  0  0  0  0  0  0  0  0  0  0
   14.0239  -17.6665   23.5749 C   0  0  2  0  0  0  0  0  0  0  0  0
   12.8918  -17.7082   22.6840 N   0  0  0  0  0  0  0  0  0  0  0  0
   15.2800  -17.6162   22.8230 C   0  0  0  0  0  0  0  0  0  0  0  0
   15.3879  -17.7259   21.4575 O   0  0  0  0  0  0  0  0  0  0  0  0
   16.3766  -17.4590   23.4600 O   0  0  0  0  0  0  0  0  0  0  0  0
  2  1  1  1
  3  2  1  0
  4  3  1  0
  5  4  2  0
  6  5  1  0
  7  6  2  0
  7  8  1  0
  8  9  2  0
  9  4  1  0
 10  2  1  0
 10 11  2  0
 13 12  1  1
 13 15  1  0
 13 14  1  0
 15 16  1  1
 16 10  1  0
 17 15  1  0
 18 17  2  0
 20 21  1  0
 20 19  1  1
 22 20  1  0
 22 23  1  6
 23 17  1  0
 24 25  1  0
 24 22  1  0
 26 24  2  0
M  END
$$$$
