FTT.pdb
     RDKit          3D

 26 26  0  0  1  0  0  0  0  0999 V2000
    5.7861  -16.2283   24.8610 N   0  0  0  0  0  0  0  0  0  0  0  0
    7.0988  -15.6121   24.8222 C   0  0  1  0  0  0  0  0  0  0  0  0
    7.2903  -14.7059   26.0271 C   0  0  0  0  0  0  0  0  0  0  0  0
    6.6640  -13.3752   25.8401 C   0  0  0  0  0  0  0  0  0  0  0  0
    7.1449  -12.4900   24.9019 C   0  0  0  0  0  0  0  0  0  0  0  0
    6.5286  -11.2631   24.7659 C   0  0  0  0  0  0  0  0  0  0  0  0
    5.4465  -10.8776   25.5296 C   0  0  0  0  0  0  0  0  0  0  0  0
    5.0062  -11.8036   26.4540 C   0  0  0  0  0  0  0  0  0  0  0  0
    5.5873  -13.0417   26.6282 C   0  0  0  0  0  0  0  0  0  0  0  0
    8.1040  -16.6641   24.7010 C   0  0  0  0  0  0  0  0  0  0  0  0
    7.8700  -17.8004   25.1954 O   0  0  0  0  0  0  0  0  0  0  0  0
   10.3823  -17.9061   21.8472 C   0  0  0  0  0  0  0  0  0  0  0  0
   11.2560  -17.3908   22.9533 C   0  0  1  0  0  0  0  0  0  0  0  0
   11.7998  -16.1514   22.6855 O   0  0  0  0  0  0  0  0  0  0  0  0
   10.5010  -17.4051   24.2955 C   0  0  2  0  0  0  0  0  0  0  0  0
    9.3621  -16.5370   24.0607 N   0  0  0  0  0  0  0  0  0  0  0  0
   11.4042  -16.9124   25.3325 C   0  0  0  0  0  0  0  0  0  0  0  0
   12.0130  -15.8008   25.3028 O   0  0  0  0  0  0  0  0  0  0  0  0
   10.9091  -15.2047   28.0031 C   0  0  0  0  0  0  0  0  0  0  0  0
   11.4731  -16.4728   28.5926 C   0  0  1  0  0  0  0  0  0  0  0  0
   10.3857  -17.3096   28.8853 O   0  0  0  0  0  0  0  0  0  0  0  0
   12.3534  -17.2166   27.6305 C   0  0  2  0  0  0  0  0  0  0  0  0
   11.6432  -17.7117   26.4783 N   0  0  0  0  0  0  0  0  0  0  0  0
   13.0198  -18.3089   28.3437 C   0  0  0  0  0  0  0  0  0  0  0  0
   13.8673  -18.1520   29.4140 O   0  0  0  0  0  0  0  0  0  0  0  0
   12.8158  -19.5116   27.9631 O   0  0  0  0  0  0  0  0  0  0  0  0
  2  1  1  1
  3  2  1  0
  4  3  1  0
  5  4  2  0
  6  5  1  0
  7  6  2  0
  7  8  1  0
  8  9  2  0
  9  4  1  0
 10  2  1  0
 10 11  2  0
 13 12  1  6
 13 15  1  0
 13 14  1  0
 15 16  1  6
 16 10  1  0
 17 15  1  0
 18 17  2  0
 20 21  1  0
 20 19  1  6
 22 20  1  0
 22 23  1  6
 23 17  1  0
 24 25  1  0
 24 22  1  0
 26 24  2  0
M  END
$$$$
