FTT.pdb
     RDKit          3D

 26 26  0  0  1  0  0  0  0  0999 V2000
    7.0643  -16.2731   26.4471 N   0  0  0  0  0  0  0  0  0  0  0  0
    6.3487  -16.2976   25.1855 C   0  0  1  0  0  0  0  0  0  0  0  0
    5.6756  -14.9580   24.9365 C   0  0  0  0  0  0  0  0  0  0  0  0
    6.3487  -13.8451   25.6480 C   0  0  0  0  0  0  0  0  0  0  0  0
    7.4072  -13.1750   25.0772 C   0  0  0  0  0  0  0  0  0  0  0  0
    8.0013  -12.1465   25.7794 C   0  0  0  0  0  0  0  0  0  0  0  0
    7.5835  -11.7543   27.0340 C   0  0  0  0  0  0  0  0  0  0  0  0
    6.5189  -12.4601   27.5579 C   0  0  0  0  0  0  0  0  0  0  0  0
    5.8916  -13.4947   26.8969 C   0  0  0  0  0  0  0  0  0  0  0  0
    7.2744  -16.7051   24.1325 C   0  0  0  0  0  0  0  0  0  0  0  0
    7.5712  -17.9247   24.0105 O   0  0  0  0  0  0  0  0  0  0  0  0
    7.1938  -15.2654   20.6023 C   0  0  0  0  0  0  0  0  0  0  0  0
    8.6307  -15.2665   21.0355 C   0  0  1  0  0  0  0  0  0  0  0  0
    9.1066  -14.0095   21.3473 O   0  0  0  0  0  0  0  0  0  0  0  0
    8.8512  -16.2628   22.1890 C   0  0  2  0  0  0  0  0  0  0  0  0
    7.8969  -15.8408   23.1974 N   0  0  0  0  0  0  0  0  0  0  0  0
   10.2418  -16.1574   22.6237 C   0  0  0  0  0  0  0  0  0  0  0  0
   10.7158  -15.2205   23.3342 O   0  0  0  0  0  0  0  0  0  0  0  0
   12.2854  -18.2064   24.9397 C   0  0  0  0  0  0  0  0  0  0  0  0
   12.8810  -18.3249   23.5595 C   0  0  1  0  0  0  0  0  0  0  0  0
   12.3211  -19.4663   22.9664 O   0  0  0  0  0  0  0  0  0  0  0  0
   12.5372  -17.1586   22.6789 C   0  0  2  0  0  0  0  0  0  0  0  0
   11.1640  -17.1635   22.2414 N   0  0  0  0  0  0  0  0  0  0  0  0
   13.4511  -17.1424   21.5341 C   0  0  0  0  0  0  0  0  0  0  0  0
   13.0768  -17.3089   20.2225 O   0  0  0  0  0  0  0  0  0  0  0  0
   14.6990  -16.9612   21.7412 O   0  0  0  0  0  0  0  0  0  0  0  0
  2  1  1  1
  3  2  1  0
  4  3  1  0
  5  4  2  0
  6  5  1  0
  7  6  2  0
  7  8  1  0
  8  9  2  0
  9  4  1  0
 10  2  1  0
 10 11  2  0
 13 12  1  1
 13 15  1  0
 13 14  1  0
 15 16  1  1
 16 10  1  0
 17 15  1  0
 18 17  2  0
 20 21  1  0
 20 19  1  1
 22 20  1  0
 22 23  1  6
 23 17  1  0
 24 25  1  0
 24 22  1  0
 26 24  2  0
M  END
$$$$
