FTT.pdb
     RDKit          3D

 26 26  0  0  1  0  0  0  0  0999 V2000
    7.4826  -16.4641   26.1423 N   0  0  0  0  0  0  0  0  0  0  0  0
    6.3835  -16.3264   25.2057 C   0  0  1  0  0  0  0  0  0  0  0  0
    5.5791  -15.0756   25.5190 C   0  0  0  0  0  0  0  0  0  0  0  0
    6.4306  -13.9591   25.9946 C   0  0  0  0  0  0  0  0  0  0  0  0
    5.8873  -12.8910   26.6722 C   0  0  0  0  0  0  0  0  0  0  0  0
    6.7210  -11.8757   27.0940 C   0  0  0  0  0  0  0  0  0  0  0  0
    8.0817  -11.8788   26.8682 C   0  0  0  0  0  0  0  0  0  0  0  0
    8.5724  -12.9734   26.1847 C   0  0  0  0  0  0  0  0  0  0  0  0
    7.7817  -14.0126   25.7427 C   0  0  0  0  0  0  0  0  0  0  0  0
    6.9200  -16.3664   23.8484 C   0  0  0  0  0  0  0  0  0  0  0  0
    6.1434  -16.1792   22.8726 O   0  0  0  0  0  0  0  0  0  0  0  0
    6.8534  -15.0924   21.9020 C   0  0  0  0  0  0  0  0  0  0  0  0
    8.2695  -15.3731   21.4917 C   0  0  1  0  0  0  0  0  0  0  0  0
    9.1245  -14.3162   21.7274 O   0  0  0  0  0  0  0  0  0  0  0  0
    8.7773  -16.6740   22.1410 C   0  0  2  0  0  0  0  0  0  0  0  0
    8.2737  -16.6014   23.5000 N   0  0  0  0  0  0  0  0  0  0  0  0
   10.2357  -16.6851   22.0607 C   0  0  0  0  0  0  0  0  0  0  0  0
   11.0051  -15.8572   22.6349 O   0  0  0  0  0  0  0  0  0  0  0  0
   11.8109  -20.4971   22.2550 C   0  0  0  0  0  0  0  0  0  0  0  0
   12.4470  -19.5759   21.2448 C   0  0  1  0  0  0  0  0  0  0  0  0
   11.8267  -19.8263   20.0117 O   0  0  0  0  0  0  0  0  0  0  0  0
   12.2235  -18.1257   21.5626 C   0  0  2  0  0  0  0  0  0  0  0  0
   10.8783  -17.6861   21.2900 N   0  0  0  0  0  0  0  0  0  0  0  0
   13.1975  -17.3214   20.8209 C   0  0  0  0  0  0  0  0  0  0  0  0
   14.5591  -17.3661   21.0008 O   0  0  0  0  0  0  0  0  0  0  0  0
   12.7771  -16.5061   19.9312 O   0  0  0  0  0  0  0  0  0  0  0  0
  2  1  1  1
  3  2  1  0
  4  3  1  0
  5  4  2  0
  6  5  1  0
  7  6  2  0
  7  8  1  0
  8  9  2  0
  9  4  1  0
 10  2  1  0
 10 11  2  0
 13 12  1  1
 13 15  1  0
 13 14  1  0
 15 16  1  1
 16 10  1  0
 17 15  1  0
 18 17  2  0
 20 21  1  0
 20 19  1  1
 22 20  1  0
 22 23  1  6
 23 17  1  0
 24 25  1  0
 24 22  1  0
 26 24  2  0
M  END
$$$$
