FTT.pdb
     RDKit          3D

 26 26  0  0  1  0  0  0  0  0999 V2000
    5.4607  -17.7684   25.2309 N   0  0  0  0  0  0  0  0  0  0  0  0
    6.1484  -16.4943   25.1422 C   0  0  1  0  0  0  0  0  0  0  0  0
    6.5265  -16.0030   26.5298 C   0  0  0  0  0  0  0  0  0  0  0  0
    6.7548  -14.5386   26.5693 C   0  0  0  0  0  0  0  0  0  0  0  0
    5.7054  -13.6606   26.7209 C   0  0  0  0  0  0  0  0  0  0  0  0
    5.9687  -12.3065   26.7510 C   0  0  0  0  0  0  0  0  0  0  0  0
    7.2409  -11.7861   26.6359 C   0  0  0  0  0  0  0  0  0  0  0  0
    8.2545  -12.7114   26.4862 C   0  0  0  0  0  0  0  0  0  0  0  0
    8.0436  -14.0733   26.4501 C   0  0  0  0  0  0  0  0  0  0  0  0
    7.2803  -16.6381   24.2312 C   0  0  0  0  0  0  0  0  0  0  0  0
    8.0604  -17.6196   24.3671 O   0  0  0  0  0  0  0  0  0  0  0  0
    7.1047  -15.0443   20.6062 C   0  0  0  0  0  0  0  0  0  0  0  0
    8.4866  -14.8835   21.1689 C   0  0  1  0  0  0  0  0  0  0  0  0
    8.7577  -13.5974   21.5887 O   0  0  0  0  0  0  0  0  0  0  0  0
    8.7443  -15.9141   22.2839 C   0  0  2  0  0  0  0  0  0  0  0  0
    7.6055  -15.7571   23.1696 N   0  0  0  0  0  0  0  0  0  0  0  0
   10.0215  -15.5932   22.9159 C   0  0  0  0  0  0  0  0  0  0  0  0
   10.2272  -14.6095   23.6886 O   0  0  0  0  0  0  0  0  0  0  0  0
   11.9908  -16.8194   25.6278 C   0  0  0  0  0  0  0  0  0  0  0  0
   12.7776  -17.1044   24.3734 C   0  0  1  0  0  0  0  0  0  0  0  0
   12.4263  -18.3954   23.9517 O   0  0  0  0  0  0  0  0  0  0  0  0
   12.4366  -16.1674   23.2510 C   0  0  2  0  0  0  0  0  0  0  0  0
   11.1427  -16.4248   22.6706 N   0  0  0  0  0  0  0  0  0  0  0  0
   13.4896  -16.2400   22.2353 C   0  0  0  0  0  0  0  0  0  0  0  0
   14.8031  -15.8880   22.4331 O   0  0  0  0  0  0  0  0  0  0  0  0
   13.1929  -16.6595   21.0653 O   0  0  0  0  0  0  0  0  0  0  0  0
  2  1  1  1
  3  2  1  0
  4  3  1  0
  5  4  2  0
  6  5  1  0
  7  6  2  0
  7  8  1  0
  8  9  2  0
  9  4  1  0
 10  2  1  0
 10 11  2  0
 13 12  1  1
 13 15  1  0
 13 14  1  0
 15 16  1  1
 16 10  1  0
 17 15  1  0
 18 17  2  0
 20 21  1  0
 20 19  1  1
 22 20  1  0
 22 23  1  6
 23 17  1  0
 24 25  1  0
 24 22  1  0
 26 24  2  0
M  END
$$$$
