FTT.pdb
     RDKit          3D

 26 26  0  0  1  0  0  0  0  0999 V2000
    7.9305  -14.0534   20.3792 N   0  0  0  0  0  0  0  0  0  0  0  0
    8.1083  -14.0020   21.8180 C   0  0  1  0  0  0  0  0  0  0  0  0
    6.8689  -13.4238   22.4807 C   0  0  0  0  0  0  0  0  0  0  0  0
    7.0115  -13.3167   23.9525 C   0  0  0  0  0  0  0  0  0  0  0  0
    6.4172  -14.2320   24.7917 C   0  0  0  0  0  0  0  0  0  0  0  0
    6.5783  -14.0893   26.1546 C   0  0  0  0  0  0  0  0  0  0  0  0
    7.3110  -13.0672   26.7211 C   0  0  0  0  0  0  0  0  0  0  0  0
    7.8846  -12.1789   25.8335 C   0  0  0  0  0  0  0  0  0  0  0  0
    7.7533  -12.2779   24.4647 C   0  0  0  0  0  0  0  0  0  0  0  0
    8.4709  -15.3350   22.2906 C   0  0  0  0  0  0  0  0  0  0  0  0
    8.3853  -16.3139   21.5003 O   0  0  0  0  0  0  0  0  0  0  0  0
   10.5988  -17.0689   21.7608 C   0  0  0  0  0  0  0  0  0  0  0  0
   10.8128  -17.0210   23.2455 C   0  0  1  0  0  0  0  0  0  0  0  0
   11.6723  -16.0162   23.6398 O   0  0  0  0  0  0  0  0  0  0  0  0
    9.4657  -16.9440   23.9879 C   0  0  2  0  0  0  0  0  0  0  0  0
    8.9270  -15.6555   23.5938 N   0  0  0  0  0  0  0  0  0  0  0  0
    9.7275  -17.0516   25.4209 C   0  0  0  0  0  0  0  0  0  0  0  0
   10.3310  -16.1833   26.1202 O   0  0  0  0  0  0  0  0  0  0  0  0
    6.8275  -18.7146   27.7895 C   0  0  0  0  0  0  0  0  0  0  0  0
    8.2231  -19.1933   28.1006 C   0  0  1  0  0  0  0  0  0  0  0  0
    8.3851  -20.4320   27.4623 O   0  0  0  0  0  0  0  0  0  0  0  0
    9.2830  -18.2781   27.5593 C   0  0  2  0  0  0  0  0  0  0  0  0
    9.2863  -18.2029   26.1201 N   0  0  0  0  0  0  0  0  0  0  0  0
   10.5880  -18.7120   28.0637 C   0  0  0  0  0  0  0  0  0  0  0  0
   10.9529  -18.7403   29.3883 O   0  0  0  0  0  0  0  0  0  0  0  0
   11.4757  -19.0998   27.2304 O   0  0  0  0  0  0  0  0  0  0  0  0
  2  1  1  6
  3  2  1  0
  4  3  1  0
  5  4  2  0
  6  5  1  0
  7  6  2  0
  7  8  1  0
  8  9  2  0
  9  4  1  0
 10  2  1  0
 10 11  2  0
 13 12  1  6
 13 15  1  0
 13 14  1  0
 15 16  1  1
 16 10  1  0
 17 15  1  0
 18 17  2  0
 20 21  1  0
 20 19  1  6
 22 20  1  0
 22 23  1  6
 23 17  1  0
 24 25  1  0
 24 22  1  0
 26 24  2  0
M  END
$$$$
