FTT.pdb
     RDKit          3D

 26 26  0  0  1  0  0  0  0  0999 V2000
    5.9574  -16.2367   25.4684 N   0  0  0  0  0  0  0  0  0  0  0  0
    6.6966  -16.0511   24.2341 C   0  0  1  0  0  0  0  0  0  0  0  0
    6.5858  -14.6093   23.7664 C   0  0  0  0  0  0  0  0  0  0  0  0
    6.6966  -13.6414   24.8840 C   0  0  0  0  0  0  0  0  0  0  0  0
    5.5904  -13.2728   25.6159 C   0  0  0  0  0  0  0  0  0  0  0  0
    5.7443  -12.3678   26.6460 C   0  0  0  0  0  0  0  0  0  0  0  0
    6.9610  -11.8107   26.9805 C   0  0  0  0  0  0  0  0  0  0  0  0
    8.0355  -12.2157   26.2141 C   0  0  0  0  0  0  0  0  0  0  0  0
    7.9339  -13.1162   25.1752 C   0  0  0  0  0  0  0  0  0  0  0  0
    8.0680  -16.5083   24.4389 C   0  0  0  0  0  0  0  0  0  0  0  0
    8.3967  -16.9908   25.5566 O   0  0  0  0  0  0  0  0  0  0  0  0
   10.0572  -18.1134   21.4007 C   0  0  0  0  0  0  0  0  0  0  0  0
   10.9443  -17.2088   22.2051 C   0  0  1  0  0  0  0  0  0  0  0  0
   11.1493  -15.9795   21.6130 O   0  0  0  0  0  0  0  0  0  0  0  0
   10.4166  -17.0679   23.6451 C   0  0  2  0  0  0  0  0  0  0  0  0
    9.1073  -16.4656   23.4760 N   0  0  0  0  0  0  0  0  0  0  0  0
   11.3503  -16.2301   24.3935 C   0  0  0  0  0  0  0  0  0  0  0  0
   11.4994  -14.9812   24.2347 O   0  0  0  0  0  0  0  0  0  0  0  0
   11.3582  -15.3245   27.9561 C   0  0  0  0  0  0  0  0  0  0  0  0
   12.6272  -16.0927   27.6849 C   0  0  1  0  0  0  0  0  0  0  0  0
   12.3699  -17.4358   27.9980 O   0  0  0  0  0  0  0  0  0  0  0  0
   13.0329  -16.0482   26.2401 C   0  0  2  0  0  0  0  0  0  0  0  0
   12.1709  -16.8242   25.3847 N   0  0  0  0  0  0  0  0  0  0  0  0
   14.4238  -16.4928   26.1236 C   0  0  0  0  0  0  0  0  0  0  0  0
   15.4991  -15.8894   26.7303 O   0  0  0  0  0  0  0  0  0  0  0  0
   14.6876  -17.5187   25.4089 O   0  0  0  0  0  0  0  0  0  0  0  0
  2  1  1  1
  3  2  1  0
  4  3  1  0
  5  4  2  0
  6  5  1  0
  7  6  2  0
  7  8  1  0
  8  9  2  0
  9  4  1  0
 10  2  1  0
 10 11  2  0
 13 12  1  6
 13 15  1  0
 13 14  1  0
 15 16  1  6
 16 10  1  0
 17 15  1  0
 18 17  2  0
 20 21  1  0
 20 19  1  6
 22 20  1  0
 22 23  1  6
 23 17  1  0
 24 25  1  0
 24 22  1  0
 26 24  2  0
M  END
$$$$
