FTT.pdb
     RDKit          3D

 26 26  0  0  1  0  0  0  0  0999 V2000
    5.8774  -17.9727   25.8491 N   0  0  0  0  0  0  0  0  0  0  0  0
    6.3308  -16.6189   25.5922 C   0  0  1  0  0  0  0  0  0  0  0  0
    6.8453  -15.9844   26.8737 C   0  0  0  0  0  0  0  0  0  0  0  0
    6.9557  -14.5096   26.7708 C   0  0  0  0  0  0  0  0  0  0  0  0
    8.1850  -13.8909   26.7326 C   0  0  0  0  0  0  0  0  0  0  0  0
    8.2359  -12.5153   26.6371 C   0  0  0  0  0  0  0  0  0  0  0  0
    7.1074  -11.7244   26.5778 C   0  0  0  0  0  0  0  0  0  0  0  0
    5.9024  -12.3971   26.6198 C   0  0  0  0  0  0  0  0  0  0  0  0
    5.7984  -13.7685   26.7147 C   0  0  0  0  0  0  0  0  0  0  0  0
    7.3088  -16.6527   24.5087 C   0  0  0  0  0  0  0  0  0  0  0  0
    8.2381  -17.5044   24.5432 O   0  0  0  0  0  0  0  0  0  0  0  0
    8.0117  -13.3963   22.0639 C   0  0  0  0  0  0  0  0  0  0  0  0
    7.8788  -14.7165   21.3626 C   0  0  1  0  0  0  0  0  0  0  0  0
    8.5566  -14.7661   20.1618 O   0  0  0  0  0  0  0  0  0  0  0  0
    8.2850  -15.8725   22.2956 C   0  0  2  0  0  0  0  0  0  0  0  0
    7.3227  -15.7965   23.3791 N   0  0  0  0  0  0  0  0  0  0  0  0
    9.6634  -15.6498   22.7249 C   0  0  0  0  0  0  0  0  0  0  0  0
   10.0364  -14.7661   23.5538 O   0  0  0  0  0  0  0  0  0  0  0  0
   12.0298  -17.5073   24.8035 C   0  0  0  0  0  0  0  0  0  0  0  0
   12.5741  -17.4925   23.3973 C   0  0  1  0  0  0  0  0  0  0  0  0
   12.1129  -18.6570   22.7653 O   0  0  0  0  0  0  0  0  0  0  0  0
   12.0711  -16.3280   22.5943 C   0  0  2  0  0  0  0  0  0  0  0  0
   10.6932  -16.4670   22.1954 N   0  0  0  0  0  0  0  0  0  0  0  0
   12.9380  -16.1461   21.4275 C   0  0  0  0  0  0  0  0  0  0  0  0
   14.2765  -15.8396   21.4784 O   0  0  0  0  0  0  0  0  0  0  0  0
   12.4378  -16.2764   20.2588 O   0  0  0  0  0  0  0  0  0  0  0  0
  2  1  1  1
  3  2  1  0
  4  3  1  0
  5  4  2  0
  6  5  1  0
  7  6  2  0
  7  8  1  0
  8  9  2  0
  9  4  1  0
 10  2  1  0
 10 11  2  0
 13 12  1  1
 13 15  1  0
 13 14  1  0
 15 16  1  1
 16 10  1  0
 17 15  1  0
 18 17  2  0
 20 21  1  0
 20 19  1  1
 22 20  1  0
 22 23  1  6
 23 17  1  0
 24 25  1  0
 24 22  1  0
 26 24  2  0
M  END
$$$$
