FTT.pdb
     RDKit          3D

 26 26  0  0  1  0  0  0  0  0999 V2000
    6.2726  -17.9441   19.4140 N   0  0  0  0  0  0  0  0  0  0  0  0
    7.3963  -17.1919   19.9390 C   0  0  1  0  0  0  0  0  0  0  0  0
    6.9088  -16.1186   20.8982 C   0  0  0  0  0  0  0  0  0  0  0  0
    7.4788  -14.7846   20.5924 C   0  0  0  0  0  0  0  0  0  0  0  0
    6.7034  -13.6491   20.6598 C   0  0  0  0  0  0  0  0  0  0  0  0
    7.2795  -12.4304   20.3653 C   0  0  0  0  0  0  0  0  0  0  0  0
    8.6036  -12.2935   20.0041 C   0  0  0  0  0  0  0  0  0  0  0  0
    9.3339  -13.4640   19.9526 C   0  0  0  0  0  0  0  0  0  0  0  0
    8.8052  -14.7049   20.2375 C   0  0  0  0  0  0  0  0  0  0  0  0
    8.3503  -18.1283   20.5263 C   0  0  0  0  0  0  0  0  0  0  0  0
    7.9211  -19.1071   21.1957 O   0  0  0  0  0  0  0  0  0  0  0  0
   12.4027  -17.9740   19.5041 C   0  0  0  0  0  0  0  0  0  0  0  0
   11.7225  -19.2487   19.9099 C   0  0  1  0  0  0  0  0  0  0  0  0
   12.6053  -20.2505   20.2575 O   0  0  0  0  0  0  0  0  0  0  0  0
   10.6908  -18.9855   21.0226 C   0  0  2  0  0  0  0  0  0  0  0  0
    9.7613  -18.0496   20.4177 N   0  0  0  0  0  0  0  0  0  0  0  0
   11.3963  -18.4395   22.1793 C   0  0  0  0  0  0  0  0  0  0  0  0
   11.8271  -17.2513   22.2779 O   0  0  0  0  0  0  0  0  0  0  0  0
   10.4181  -18.4776   26.0118 C   0  0  0  0  0  0  0  0  0  0  0  0
   11.7065  -19.2177   25.7547 C   0  0  1  0  0  0  0  0  0  0  0  0
   11.3848  -20.5790   25.6479 O   0  0  0  0  0  0  0  0  0  0  0  0
   12.3561  -18.8168   24.4620 C   0  0  2  0  0  0  0  0  0  0  0  0
   11.6362  -19.2734   23.3000 N   0  0  0  0  0  0  0  0  0  0  0  0
   13.7353  -19.3104   24.4505 C   0  0  0  0  0  0  0  0  0  0  0  0
   14.6981  -18.9849   25.3754 O   0  0  0  0  0  0  0  0  0  0  0  0
   14.0997  -20.1069   23.5201 O   0  0  0  0  0  0  0  0  0  0  0  0
  2  1  1  1
  3  2  1  0
  4  3  1  0
  5  4  2  0
  6  5  1  0
  7  6  2  0
  7  8  1  0
  8  9  2  0
  9  4  1  0
 10  2  1  0
 10 11  2  0
 13 12  1  1
 13 15  1  0
 13 14  1  0
 15 16  1  6
 16 10  1  0
 17 15  1  0
 18 17  2  0
 20 21  1  0
 20 19  1  6
 22 20  1  0
 22 23  1  6
 23 17  1  0
 24 25  1  0
 24 22  1  0
 26 24  2  0
M  END
$$$$
