IGV.pdb
     RDKit          3D

 20 19  0  0  1  0  0  0  0  0999 V2000
   24.9105  -21.1363   -8.0740 C   0  0  0  0  0  0  0  0  0  0  0  0
   23.6901  -20.8780   -8.9311 C   0  0  0  0  0  0  0  0  0  0  0  0
   24.0248  -20.9966  -10.4023 C   0  0  2  0  0  0  0  0  0  0  0  0
   25.1135  -19.9783  -10.6931 C   0  0  0  0  0  0  0  0  0  0  0  0
   22.8570  -20.6757  -11.2826 C   0  0  2  0  0  0  0  0  0  0  0  0
   21.7230  -21.4842  -10.9437 N   0  0  0  0  0  0  0  0  0  0  0  0
   23.1371  -20.7428  -12.7147 C   0  0  0  0  0  0  0  0  0  0  0  0
   23.6252  -21.7933  -13.1923 O   0  0  0  0  0  0  0  0  0  0  0  0
   22.8936  -19.6843  -13.6330 N   0  0  0  0  0  0  0  0  0  0  0  0
   23.4357  -19.7142  -14.9693 C   0  0  0  0  0  0  0  0  0  0  0  0
   24.1958  -18.4616  -15.2736 C   0  0  0  0  0  0  0  0  0  0  0  0
   24.1706  -17.5133  -14.4553 O   0  0  0  0  0  0  0  0  0  0  0  0
   27.5544  -17.8737  -15.2412 C   0  0  0  0  0  0  0  0  0  0  0  0
   27.2087  -17.5096  -16.6710 C   0  0  1  0  0  0  0  0  0  0  0  0
   27.5701  -18.6121  -17.6299 C   0  0  0  0  0  0  0  0  0  0  0  0
   25.7326  -17.1870  -16.8063 C   0  0  2  0  0  0  0  0  0  0  0  0
   24.9390  -18.3421  -16.4735 N   0  0  0  0  0  0  0  0  0  0  0  0
   25.4021  -16.6888  -18.1641 C   0  0  0  0  0  0  0  0  0  0  0  0
   25.6809  -15.4161  -18.5943 O   0  0  0  0  0  0  0  0  0  0  0  0
   24.8365  -17.4718  -18.9656 O   0  0  0  0  0  0  0  0  0  0  0  0
  2  1  1  0
  3  5  1  0
  3  2  1  0
  3  4  1  6
  5  6  1  6
  7  8  2  0
  7  5  1  0
  9  7  1  0
 10 11  1  0
 10  9  1  0
 11 17  1  0
 12 11  2  0
 14 15  1  6
 14 13  1  0
 16 14  1  0
 16 17  1  6
 18 19  1  0
 18 16  1  0
 20 18  2  0
M  END
$$$$
