IGV.pdb
     RDKit          3D

 20 19  0  0  1  0  0  0  0  0999 V2000
   29.8768  -22.0184  -10.5507 C   0  0  0  0  0  0  0  0  0  0  0  0
   28.4891  -21.4143  -10.5386 C   0  0  0  0  0  0  0  0  0  0  0  0
   28.0443  -21.0474  -11.9379 C   0  0  2  0  0  0  0  0  0  0  0  0
   28.9623  -19.9368  -12.4183 C   0  0  0  0  0  0  0  0  0  0  0  0
   26.6420  -20.5240  -11.9739 C   0  0  2  0  0  0  0  0  0  0  0  0
   25.7304  -21.4618  -11.3874 N   0  0  0  0  0  0  0  0  0  0  0  0
   26.1820  -20.1050  -13.2956 C   0  0  0  0  0  0  0  0  0  0  0  0
   25.9454  -18.8922  -13.5030 O   0  0  0  0  0  0  0  0  0  0  0  0
   25.9763  -20.9861  -14.3930 N   0  0  0  0  0  0  0  0  0  0  0  0
   25.5548  -20.4911  -15.6805 C   0  0  0  0  0  0  0  0  0  0  0  0
   24.0683  -20.5736  -15.8324 C   0  0  0  0  0  0  0  0  0  0  0  0
   23.5387  -20.2020  -16.9052 O   0  0  0  0  0  0  0  0  0  0  0  0
   21.9313  -22.6251  -12.7794 C   0  0  0  0  0  0  0  0  0  0  0  0
   21.4875  -22.6265  -14.2283 C   0  0  1  0  0  0  0  0  0  0  0  0
   20.0069  -22.8646  -14.3575 C   0  0  0  0  0  0  0  0  0  0  0  0
   21.8494  -21.3191  -14.9072 C   0  0  2  0  0  0  0  0  0  0  0  0
   23.2615  -21.0661  -14.7776 N   0  0  0  0  0  0  0  0  0  0  0  0
   21.0553  -20.1853  -14.3733 C   0  0  0  0  0  0  0  0  0  0  0  0
   19.7828  -19.8869  -14.7905 O   0  0  0  0  0  0  0  0  0  0  0  0
   21.5731  -19.4574  -13.4916 O   0  0  0  0  0  0  0  0  0  0  0  0
  2  1  1  0
  3  5  1  0
  3  2  1  0
  3  4  1  1
  5  6  1  6
  7  8  2  0
  7  5  1  0
  9  7  1  0
 10 11  1  0
 10  9  1  0
 11 17  1  0
 12 11  2  0
 14 15  1  1
 14 13  1  0
 16 14  1  0
 16 17  1  1
 18 19  1  0
 18 16  1  0
 20 18  2  0
M  END
$$$$
