IGV.pdb
     RDKit          3D

 20 19  0  0  1  0  0  0  0  0999 V2000
   22.9878  -18.4783  -17.6632 C   0  0  0  0  0  0  0  0  0  0  0  0
   21.8419  -18.4182  -16.6762 C   0  0  0  0  0  0  0  0  0  0  0  0
   21.9993  -19.4674  -15.5969 C   0  0  2  0  0  0  0  0  0  0  0  0
   22.0295  -20.8176  -16.2916 C   0  0  0  0  0  0  0  0  0  0  0  0
   20.8508  -19.4772  -14.6364 C   0  0  2  0  0  0  0  0  0  0  0  0
   20.7814  -18.2443  -13.9087 N   0  0  0  0  0  0  0  0  0  0  0  0
   20.8254  -20.6216  -13.7289 C   0  0  0  0  0  0  0  0  0  0  0  0
   20.9291  -21.7774  -14.2014 O   0  0  0  0  0  0  0  0  0  0  0  0
   20.6890  -20.5259  -12.3164 N   0  0  0  0  0  0  0  0  0  0  0  0
   20.7322  -21.7000  -11.4797 C   0  0  0  0  0  0  0  0  0  0  0  0
   19.4990  -22.5308  -11.6481 C   0  0  0  0  0  0  0  0  0  0  0  0
   18.5415  -22.0803  -12.3188 O   0  0  0  0  0  0  0  0  0  0  0  0
   19.4298  -26.4964   -9.9243 C   0  0  0  0  0  0  0  0  0  0  0  0
   18.8617  -26.1669  -11.2899 C   0  0  1  0  0  0  0  0  0  0  0  0
   17.7588  -27.1147  -11.6784 C   0  0  0  0  0  0  0  0  0  0  0  0
   18.3406  -24.7428  -11.3309 C   0  0  2  0  0  0  0  0  0  0  0  0
   19.4081  -23.8150  -11.0576 N   0  0  0  0  0  0  0  0  0  0  0  0
   17.2107  -24.5446  -10.3900 C   0  0  0  0  0  0  0  0  0  0  0  0
   15.8946  -24.7156  -10.7378 O   0  0  0  0  0  0  0  0  0  0  0  0
   17.4696  -24.2017   -9.2107 O   0  0  0  0  0  0  0  0  0  0  0  0
  2  1  1  0
  3  5  1  0
  3  2  1  0
  3  4  1  6
  5  6  1  1
  7  8  2  0
  7  5  1  0
  9  7  1  0
 10 11  1  0
 10  9  1  0
 11 17  1  0
 12 11  2  0
 14 15  1  1
 14 13  1  0
 16 14  1  0
 16 17  1  1
 18 19  1  0
 18 16  1  0
 20 18  2  0
M  END
$$$$
