IGV.pdb
     RDKit          3D

 20 19  0  0  1  0  0  0  0  0999 V2000
   16.0606  -13.5036  -19.6369 C   0  0  0  0  0  0  0  0  0  0  0  0
   16.5226  -13.1593  -18.2374 C   0  0  0  0  0  0  0  0  0  0  0  0
   17.1455  -11.7806  -18.1949 C   0  0  2  0  0  0  0  0  0  0  0  0
   18.3915  -11.8297  -19.0619 C   0  0  0  0  0  0  0  0  0  0  0  0
   17.5691  -11.3862  -16.8141 C   0  0  2  0  0  0  0  0  0  0  0  0
   16.4393  -11.3044  -15.9358 N   0  0  0  0  0  0  0  0  0  0  0  0
   18.3715  -10.1673  -16.7479 C   0  0  0  0  0  0  0  0  0  0  0  0
   19.5691  -10.2047  -17.1145 O   0  0  0  0  0  0  0  0  0  0  0  0
   17.8896   -8.9102  -16.2892 N   0  0  0  0  0  0  0  0  0  0  0  0
   18.7126   -7.7272  -16.3482 C   0  0  0  0  0  0  0  0  0  0  0  0
   19.4291   -7.5006  -15.0541 C   0  0  0  0  0  0  0  0  0  0  0  0
   18.7885   -7.5575  -13.9790 O   0  0  0  0  0  0  0  0  0  0  0  0
   21.7718   -9.5600  -13.5434 C   0  0  0  0  0  0  0  0  0  0  0  0
   22.5366   -8.2583  -13.6732 C   0  0  1  0  0  0  0  0  0  0  0  0
   23.4911   -8.2860  -14.8366 C   0  0  0  0  0  0  0  0  0  0  0  0
   21.5873   -7.0851  -13.8274 C   0  0  2  0  0  0  0  0  0  0  0  0
   20.8181   -7.2240  -15.0373 N   0  0  0  0  0  0  0  0  0  0  0  0
   22.3084   -5.7888  -13.8022 C   0  0  0  0  0  0  0  0  0  0  0  0
   22.7985   -5.2150  -12.6564 O   0  0  0  0  0  0  0  0  0  0  0  0
   22.4812   -5.1812  -14.8868 O   0  0  0  0  0  0  0  0  0  0  0  0
  2  1  1  0
  3  5  1  0
  3  2  1  0
  3  4  1  6
  5  6  1  1
  7  8  2  0
  7  5  1  0
  9  7  1  0
 10 11  1  0
 10  9  1  0
 11 17  1  0
 12 11  2  0
 14 15  1  6
 14 13  1  0
 16 14  1  0
 16 17  1  6
 18 19  1  0
 18 16  1  0
 20 18  2  0
M  END
$$$$
