IGV.pdb
     RDKit          3D

 20 19  0  0  1  0  0  0  0  0999 V2000
   18.2719  -10.4045  -18.2815 C   0  0  0  0  0  0  0  0  0  0  0  0
   17.9784  -11.0357  -16.9376 C   0  0  0  0  0  0  0  0  0  0  0  0
   18.0688  -10.0127  -15.8258 C   0  0  2  0  0  0  0  0  0  0  0  0
   19.5223   -9.5810  -15.7373 C   0  0  0  0  0  0  0  0  0  0  0  0
   17.6819  -10.5784  -14.4946 C   0  0  2  0  0  0  0  0  0  0  0  0
   16.3390  -11.0788  -14.5219 N   0  0  0  0  0  0  0  0  0  0  0  0
   17.8786   -9.6712  -13.3668 C   0  0  0  0  0  0  0  0  0  0  0  0
   19.0452   -9.3800  -13.0143 O   0  0  0  0  0  0  0  0  0  0  0  0
   16.8251   -9.0771  -12.6184 N   0  0  0  0  0  0  0  0  0  0  0  0
   17.0882   -8.0435  -11.6474 C   0  0  0  0  0  0  0  0  0  0  0  0
   15.8204   -7.3885  -11.1965 C   0  0  0  0  0  0  0  0  0  0  0  0
   14.8213   -7.3983  -11.9521 O   0  0  0  0  0  0  0  0  0  0  0  0
   13.8958   -8.3021   -8.1593 C   0  0  0  0  0  0  0  0  0  0  0  0
   14.2415   -6.8328   -8.0255 C   0  0  1  0  0  0  0  0  0  0  0  0
   15.4245   -6.6186   -7.1199 C   0  0  0  0  0  0  0  0  0  0  0  0
   14.5270   -6.2175   -9.3824 C   0  0  2  0  0  0  0  0  0  0  0  0
   15.7437   -6.7616   -9.9287 N   0  0  0  0  0  0  0  0  0  0  0  0
   14.5923   -4.7370   -9.3107 C   0  0  0  0  0  0  0  0  0  0  0  0
   15.7545   -4.0210   -9.4493 O   0  0  0  0  0  0  0  0  0  0  0  0
   13.5281   -4.1018   -9.1127 O   0  0  0  0  0  0  0  0  0  0  0  0
  2  1  1  0
  3  5  1  0
  3  2  1  0
  3  4  1  1
  5  6  1  6
  7  8  2  0
  7  5  1  0
  9  7  1  0
 10 11  1  0
 10  9  1  0
 11 17  1  0
 12 11  2  0
 14 15  1  1
 14 13  1  0
 16 14  1  0
 16 17  1  1
 18 19  1  0
 18 16  1  0
 20 18  2  0
M  END
$$$$
