IGV.pdb
     RDKit          3D

 20 19  0  0  1  0  0  0  0  0999 V2000
   18.7742  -20.4284  -14.7828 C   0  0  0  0  0  0  0  0  0  0  0  0
   19.0394  -20.0266  -13.3478 C   0  0  0  0  0  0  0  0  0  0  0  0
   20.5135  -20.1265  -13.0196 C   0  0  2  0  0  0  0  0  0  0  0  0
   21.2544  -20.2521  -14.3394 C   0  0  0  0  0  0  0  0  0  0  0  0
   20.8368  -21.3377  -12.2010 C   0  0  2  0  0  0  0  0  0  0  0  0
   20.3297  -21.2043  -10.8670 N   0  0  0  0  0  0  0  0  0  0  0  0
   22.2507  -21.7047  -12.1882 C   0  0  0  0  0  0  0  0  0  0  0  0
   22.6912  -22.4670  -13.0797 O   0  0  0  0  0  0  0  0  0  0  0  0
   23.1905  -21.2541  -11.2203 N   0  0  0  0  0  0  0  0  0  0  0  0
   24.5875  -21.5995  -11.3173 C   0  0  0  0  0  0  0  0  0  0  0  0
   25.3123  -20.6709  -12.2402 C   0  0  0  0  0  0  0  0  0  0  0  0
   24.8005  -19.5631  -12.5237 O   0  0  0  0  0  0  0  0  0  0  0  0
   28.9639  -19.7357  -11.6945 C   0  0  0  0  0  0  0  0  0  0  0  0
   28.8225  -20.2115  -13.1262 C   0  0  1  0  0  0  0  0  0  0  0  0
   29.3351  -21.6159  -13.3001 C   0  0  0  0  0  0  0  0  0  0  0  0
   27.3766  -20.1425  -13.5799 C   0  0  2  0  0  0  0  0  0  0  0  0
   26.5653  -21.0343  -12.7917 N   0  0  0  0  0  0  0  0  0  0  0  0
   27.2408  -20.4400  -15.0270 C   0  0  0  0  0  0  0  0  0  0  0  0
   26.7482  -21.6237  -15.5156 O   0  0  0  0  0  0  0  0  0  0  0  0
   27.5951  -19.5630  -15.8521 O   0  0  0  0  0  0  0  0  0  0  0  0
  2  1  1  0
  3  5  1  0
  3  2  1  0
  3  4  1  6
  5  6  1  1
  7  8  2  0
  7  5  1  0
  9  7  1  0
 10 11  1  0
 10  9  1  0
 11 17  1  0
 12 11  2  0
 14 15  1  1
 14 13  1  0
 16 14  1  0
 16 17  1  1
 18 19  1  0
 18 16  1  0
 20 18  2  0
M  END
$$$$
