IGV.pdb
     RDKit          3D

 20 19  0  0  1  0  0  0  0  0999 V2000
   11.1904  -14.9301  -11.1381 C   0  0  0  0  0  0  0  0  0  0  0  0
   12.2243  -14.5705  -12.1834 C   0  0  0  0  0  0  0  0  0  0  0  0
   13.0176  -13.3512  -11.7655 C   0  0  2  0  0  0  0  0  0  0  0  0
   12.0492  -12.1817  -11.7321 C   0  0  0  0  0  0  0  0  0  0  0  0
   14.1033  -13.0133  -12.7395 C   0  0  2  0  0  0  0  0  0  0  0  0
   14.9284  -14.1554  -13.0029 N   0  0  0  0  0  0  0  0  0  0  0  0
   14.9151  -11.8565  -12.3697 C   0  0  0  0  0  0  0  0  0  0  0  0
   15.8141  -11.9927  -11.5076 O   0  0  0  0  0  0  0  0  0  0  0  0
   14.7625  -10.5557  -12.9242 N   0  0  0  0  0  0  0  0  0  0  0  0
   15.6004   -9.4600  -12.5023 C   0  0  0  0  0  0  0  0  0  0  0  0
   14.8323   -8.4785  -11.6740 C   0  0  0  0  0  0  0  0  0  0  0  0
   13.5803   -8.5225  -11.6727 O   0  0  0  0  0  0  0  0  0  0  0  0
   14.5249   -8.2040   -8.2131 C   0  0  0  0  0  0  0  0  0  0  0  0
   15.0976   -6.8544   -8.5961 C   0  0  1  0  0  0  0  0  0  0  0  0
   16.5771   -6.7805   -8.3292 C   0  0  0  0  0  0  0  0  0  0  0  0
   14.8330   -6.5486  -10.0582 C   0  0  2  0  0  0  0  0  0  0  0  0
   15.5077   -7.5063  -10.8963 N   0  0  0  0  0  0  0  0  0  0  0  0
   15.2297   -5.1628  -10.4095 C   0  0  0  0  0  0  0  0  0  0  0  0
   14.4755   -4.0575  -10.1065 O   0  0  0  0  0  0  0  0  0  0  0  0
   16.3140   -4.9886  -11.0172 O   0  0  0  0  0  0  0  0  0  0  0  0
  2  1  1  0
  3  5  1  0
  3  2  1  0
  3  4  1  6
  5  6  1  1
  7  8  2  0
  7  5  1  0
  9  7  1  0
 10 11  1  0
 10  9  1  0
 11 17  1  0
 12 11  2  0
 14 15  1  6
 14 13  1  0
 16 14  1  0
 16 17  1  6
 18 19  1  0
 18 16  1  0
 20 18  2  0
M  END
$$$$
