IGV.pdb
     RDKit          3D

 20 19  0  0  1  0  0  0  0  0999 V2000
   14.2088  -12.2002  -16.8676 C   0  0  0  0  0  0  0  0  0  0  0  0
   15.6022  -11.7051  -16.5450 C   0  0  0  0  0  0  0  0  0  0  0  0
   15.7003  -11.2618  -15.1012 C   0  0  2  0  0  0  0  0  0  0  0  0
   14.7396  -10.0983  -14.9280 C   0  0  0  0  0  0  0  0  0  0  0  0
   17.0705  -10.7756  -14.7436 C   0  0  2  0  0  0  0  0  0  0  0  0
   18.0448  -11.8109  -14.9262 N   0  0  0  0  0  0  0  0  0  0  0  0
   17.1790  -10.1850  -13.4119 C   0  0  0  0  0  0  0  0  0  0  0  0
   16.9959  -10.9098  -12.4064 O   0  0  0  0  0  0  0  0  0  0  0  0
   17.4836   -8.8188  -13.1597 N   0  0  0  0  0  0  0  0  0  0  0  0
   17.5515   -8.3040  -11.8140 C   0  0  0  0  0  0  0  0  0  0  0  0
   16.3312   -7.5061  -11.4770 C   0  0  0  0  0  0  0  0  0  0  0  0
   15.4509   -7.3309  -12.3510 O   0  0  0  0  0  0  0  0  0  0  0  0
   13.7544   -8.1483   -9.0083 C   0  0  0  0  0  0  0  0  0  0  0  0
   14.3135   -6.7926   -8.6267 C   0  0  1  0  0  0  0  0  0  0  0  0
   15.2546   -6.8871   -7.4559 C   0  0  0  0  0  0  0  0  0  0  0  0
   15.0309   -6.1524   -9.8001 C   0  0  2  0  0  0  0  0  0  0  0  0
   16.1662   -6.9513  -10.1843 N   0  0  0  0  0  0  0  0  0  0  0  0
   15.4397   -4.7584   -9.4990 C   0  0  0  0  0  0  0  0  0  0  0  0
   14.6171   -3.6732   -9.6666 O   0  0  0  0  0  0  0  0  0  0  0  0
   16.6010   -4.5574   -9.0673 O   0  0  0  0  0  0  0  0  0  0  0  0
  2  1  1  0
  3  5  1  0
  3  2  1  0
  3  4  1  6
  5  6  1  1
  7  8  2  0
  7  5  1  0
  9  7  1  0
 10 11  1  0
 10  9  1  0
 11 17  1  0
 12 11  2  0
 14 15  1  1
 14 13  1  0
 16 14  1  0
 16 17  1  1
 18 19  1  0
 18 16  1  0
 20 18  2  0
M  END
$$$$
