IGV.pdb
     RDKit          3D

 20 19  0  0  1  0  0  0  0  0999 V2000
   28.1720  -15.2759  -16.7221 C   0  0  0  0  0  0  0  0  0  0  0  0
   26.9612  -16.0615  -16.2665 C   0  0  0  0  0  0  0  0  0  0  0  0
   27.3680  -17.2262  -15.3897 C   0  0  2  0  0  0  0  0  0  0  0  0
   28.1748  -18.1752  -16.2588 C   0  0  0  0  0  0  0  0  0  0  0  0
   26.1897  -17.9848  -14.8627 C   0  0  2  0  0  0  0  0  0  0  0  0
   25.4200  -17.1754  -13.9644 N   0  0  0  0  0  0  0  0  0  0  0  0
   26.5164  -19.2728  -14.2559 C   0  0  0  0  0  0  0  0  0  0  0  0
   26.7332  -20.2591  -14.9976 O   0  0  0  0  0  0  0  0  0  0  0  0
   26.6103  -19.5020  -12.8553 N   0  0  0  0  0  0  0  0  0  0  0  0
   26.9148  -20.8106  -12.3306 C   0  0  0  0  0  0  0  0  0  0  0  0
   25.6935  -21.4654  -11.7659 C   0  0  0  0  0  0  0  0  0  0  0  0
   25.7942  -22.5908  -11.2248 O   0  0  0  0  0  0  0  0  0  0  0  0
   23.8571  -20.6992   -9.0967 C   0  0  0  0  0  0  0  0  0  0  0  0
   22.7324  -20.7778  -10.1092 C   0  0  1  0  0  0  0  0  0  0  0  0
   22.1652  -19.4184  -10.4191 C   0  0  0  0  0  0  0  0  0  0  0  0
   23.2044  -21.4322  -11.3938 C   0  0  2  0  0  0  0  0  0  0  0  0
   24.4323  -20.8249  -11.8388 N   0  0  0  0  0  0  0  0  0  0  0  0
   22.1675  -21.3722  -12.4533 C   0  0  0  0  0  0  0  0  0  0  0  0
   20.9827  -22.0616  -12.3956 O   0  0  0  0  0  0  0  0  0  0  0  0
   22.3830  -20.6524  -13.4586 O   0  0  0  0  0  0  0  0  0  0  0  0
  2  1  1  0
  3  5  1  0
  3  2  1  0
  3  4  1  6
  5  6  1  1
  7  8  2  0
  7  5  1  0
  9  7  1  0
 10 11  1  0
 10  9  1  0
 11 17  1  0
 12 11  2  0
 14 15  1  6
 14 13  1  0
 16 14  1  0
 16 17  1  6
 18 19  1  0
 18 16  1  0
 20 18  2  0
M  END
$$$$
