IGV.pdb
     RDKit          3D

 20 19  0  0  1  0  0  0  0  0999 V2000
   29.0996  -19.9794   -4.3878 C   0  0  0  0  0  0  0  0  0  0  0  0
   27.6937  -19.9163   -4.9448 C   0  0  0  0  0  0  0  0  0  0  0  0
   27.6977  -20.0814   -6.4492 C   0  0  2  0  0  0  0  0  0  0  0  0
   28.4626  -18.9014   -7.0230 C   0  0  0  0  0  0  0  0  0  0  0  0
   26.3187  -20.0543   -7.0317 C   0  0  2  0  0  0  0  0  0  0  0  0
   25.5098  -21.1016   -6.4810 N   0  0  0  0  0  0  0  0  0  0  0  0
   26.2736  -20.0721   -8.4916 C   0  0  0  0  0  0  0  0  0  0  0  0
   26.4979  -19.0127   -9.1219 O   0  0  0  0  0  0  0  0  0  0  0  0
   25.9884  -21.2251   -9.2741 N   0  0  0  0  0  0  0  0  0  0  0  0
   25.9791  -21.1671  -10.7153 C   0  0  0  0  0  0  0  0  0  0  0  0
   24.6302  -20.7774  -11.2331 C   0  0  0  0  0  0  0  0  0  0  0  0
   23.7649  -20.3511  -10.4338 O   0  0  0  0  0  0  0  0  0  0  0  0
   24.0760  -18.3942  -14.1454 C   0  0  0  0  0  0  0  0  0  0  0  0
   23.3177  -19.6699  -14.4517 C   0  0  1  0  0  0  0  0  0  0  0  0
   24.0461  -20.5245  -15.4540 C   0  0  0  0  0  0  0  0  0  0  0  0
   23.0738  -20.4722  -13.1875 C   0  0  2  0  0  0  0  0  0  0  0  0
   24.3277  -20.8869  -12.6125 N   0  0  0  0  0  0  0  0  0  0  0  0
   22.1931  -21.6392  -13.4396 C   0  0  0  0  0  0  0  0  0  0  0  0
   20.8383  -21.5402  -13.6319 O   0  0  0  0  0  0  0  0  0  0  0  0
   22.7128  -22.7810  -13.4797 O   0  0  0  0  0  0  0  0  0  0  0  0
  2  1  1  0
  3  5  1  0
  3  2  1  0
  3  4  1  6
  5  6  1  1
  7  8  2  0
  7  5  1  0
  9  7  1  0
 10 11  1  0
 10  9  1  0
 11 17  1  0
 12 11  2  0
 14 15  1  6
 14 13  1  0
 16 14  1  0
 16 17  1  6
 18 19  1  0
 18 16  1  0
 20 18  2  0
M  END
$$$$
