IGV.pdb
     RDKit          3D

 20 19  0  0  1  0  0  0  0  0999 V2000
   25.3037  -20.1277   -9.3440 C   0  0  0  0  0  0  0  0  0  0  0  0
   24.4383  -20.8198  -10.3751 C   0  0  0  0  0  0  0  0  0  0  0  0
   23.0002  -20.9010   -9.9106 C   0  0  2  0  0  0  0  0  0  0  0  0
   22.9881  -21.7483   -8.6502 C   0  0  0  0  0  0  0  0  0  0  0  0
   22.1115  -21.5682  -10.9140 C   0  0  2  0  0  0  0  0  0  0  0  0
   22.1511  -20.8798  -12.1706 N   0  0  0  0  0  0  0  0  0  0  0  0
   20.7340  -21.7672  -10.4705 C   0  0  0  0  0  0  0  0  0  0  0  0
   19.9282  -20.8099  -10.5342 O   0  0  0  0  0  0  0  0  0  0  0  0
   20.2218  -22.9918   -9.9596 N   0  0  0  0  0  0  0  0  0  0  0  0
   18.8850  -23.0782   -9.4251 C   0  0  0  0  0  0  0  0  0  0  0  0
   18.8921  -23.6318   -8.0348 C   0  0  0  0  0  0  0  0  0  0  0  0
   19.9838  -23.7822   -7.4389 O   0  0  0  0  0  0  0  0  0  0  0  0
   15.2087  -25.0424   -6.4189 C   0  0  0  0  0  0  0  0  0  0  0  0
   16.1919  -24.3341   -5.5091 C   0  0  1  0  0  0  0  0  0  0  0  0
   16.1309  -24.8644   -4.1017 C   0  0  0  0  0  0  0  0  0  0  0  0
   17.6085  -24.4641   -6.0361 C   0  0  2  0  0  0  0  0  0  0  0  0
   17.6800  -23.9845   -7.3924 N   0  0  0  0  0  0  0  0  0  0  0  0
   18.1041  -25.8591   -5.9391 C   0  0  0  0  0  0  0  0  0  0  0  0
   18.1481  -26.7246   -7.0028 O   0  0  0  0  0  0  0  0  0  0  0  0
   18.5059  -26.2733   -4.8245 O   0  0  0  0  0  0  0  0  0  0  0  0
  2  1  1  0
  3  5  1  0
  3  2  1  0
  3  4  1  1
  5  6  1  6
  7  8  2  0
  7  5  1  0
  9  7  1  0
 10 11  1  0
 10  9  1  0
 11 17  1  0
 12 11  2  0
 14 15  1  1
 14 13  1  0
 16 14  1  0
 16 17  1  6
 18 19  1  0
 18 16  1  0
 20 18  2  0
M  END
$$$$
