IGV.pdb
     RDKit          3D

 20 19  0  0  1  0  0  0  0  0999 V2000
   27.3709  -18.8533   -7.1513 C   0  0  0  0  0  0  0  0  0  0  0  0
   27.5268  -20.0503   -8.0643 C   0  0  0  0  0  0  0  0  0  0  0  0
   26.3141  -20.2159   -8.9545 C   0  0  2  0  0  0  0  0  0  0  0  0
   25.1455  -20.5693   -8.0511 C   0  0  0  0  0  0  0  0  0  0  0  0
   26.4767  -21.3295   -9.9421 C   0  0  2  0  0  0  0  0  0  0  0  0
   27.6157  -21.1057  -10.7829 N   0  0  0  0  0  0  0  0  0  0  0  0
   25.2866  -21.6150  -10.7396 C   0  0  0  0  0  0  0  0  0  0  0  0
   24.2489  -22.0178  -10.1643 O   0  0  0  0  0  0  0  0  0  0  0  0
   25.2101  -21.4684  -12.1522 N   0  0  0  0  0  0  0  0  0  0  0  0
   23.9918  -21.7557  -12.8689 C   0  0  0  0  0  0  0  0  0  0  0  0
   23.3795  -20.5061  -13.4192 C   0  0  0  0  0  0  0  0  0  0  0  0
   23.7416  -19.3945  -12.9687 O   0  0  0  0  0  0  0  0  0  0  0  0
   23.6271  -18.9682  -16.6309 C   0  0  0  0  0  0  0  0  0  0  0  0
   22.1526  -19.2832  -16.4799 C   0  0  1  0  0  0  0  0  0  0  0  0
   21.7750  -20.5462  -17.2065 C   0  0  0  0  0  0  0  0  0  0  0  0
   21.7726  -19.4103  -15.0168 C   0  0  2  0  0  0  0  0  0  0  0  0
   22.3994  -20.5717  -14.4396 N   0  0  0  0  0  0  0  0  0  0  0  0
   20.3009  -19.4548  -14.8339 C   0  0  0  0  0  0  0  0  0  0  0  0
   19.4848  -18.3614  -14.9778 O   0  0  0  0  0  0  0  0  0  0  0  0
   19.7704  -20.5512  -14.5310 O   0  0  0  0  0  0  0  0  0  0  0  0
  2  1  1  0
  3  5  1  0
  3  2  1  0
  3  4  1  1
  5  6  1  6
  7  8  2  0
  7  5  1  0
  9  7  1  0
 10 11  1  0
 10  9  1  0
 11 17  1  0
 12 11  2  0
 14 15  1  6
 14 13  1  0
 16 14  1  0
 16 17  1  6
 18 19  1  0
 18 16  1  0
 20 18  2  0
M  END
$$$$
