CWI.pdb
     RDKit          3D

 29 30  0  0  1  0  0  0  0  0999 V2000
   11.9692  -16.4382   19.1773 N   0  0  0  0  0  0  0  0  0  0  0  0
   11.1993  -17.2803   20.0436 C   0  0  1  0  0  0  0  0  0  0  0  0
   11.9506  -18.5035   20.5219 C   0  0  0  0  0  0  0  0  0  0  0  0
   13.3976  -18.0000   21.4643 S   0  0  0  0  0  0  0  0  0  0  0  0
   10.7205  -16.4686   21.1930 C   0  0  0  0  0  0  0  0  0  0  0  0
   11.2782  -15.3652   21.4679 O   0  0  0  0  0  0  0  0  0  0  0  0
    9.6465  -16.8593   22.0298 N   0  0  0  0  0  0  0  0  0  0  0  0
    9.1092  -15.9904   23.0391 C   0  0  1  0  0  0  0  0  0  0  0  0
    7.6455  -16.2688   23.2692 C   0  0  0  0  0  0  0  0  0  0  0  0
    6.9785  -15.4622   24.2643 C   0  0  0  0  0  0  0  0  0  0  0  0
    6.1695  -15.9610   25.2714 C   0  0  0  0  0  0  0  0  0  0  0  0
    5.7257  -14.9601   26.0429 N   0  0  0  0  0  0  0  0  0  0  0  0
    6.2377  -13.8066   25.5489 C   0  0  0  0  0  0  0  0  0  0  0  0
    6.1122  -12.4905   25.9341 C   0  0  0  0  0  0  0  0  0  0  0  0
    6.7272  -11.4440   25.2706 C   0  0  0  0  0  0  0  0  0  0  0  0
    7.5021  -11.7299   24.1719 C   0  0  0  0  0  0  0  0  0  0  0  0
    7.6307  -13.0608   23.7803 C   0  0  0  0  0  0  0  0  0  0  0  0
    7.0165  -14.1074   24.4443 C   0  0  0  0  0  0  0  0  0  0  0  0
    9.7878  -16.2775   24.3282 C   0  0  0  0  0  0  0  0  0  0  0  0
   10.4008  -17.3652   24.4411 O   0  0  0  0  0  0  0  0  0  0  0  0
   12.1039  -14.1295   29.2776 C   0  0  0  0  0  0  0  0  0  0  0  0
   10.7514  -14.6845   29.0256 C   0  0  0  0  0  0  0  0  0  0  0  0
   10.1999  -14.5530   27.6592 C   0  0  2  0  0  0  0  0  0  0  0  0
    8.8100  -13.9497   27.6046 C   0  0  0  0  0  0  0  0  0  0  0  0
   10.4358  -15.6751   26.7142 C   0  0  2  0  0  0  0  0  0  0  0  0
    9.7876  -15.4098   25.4293 N   0  0  0  0  0  0  0  0  0  0  0  0
   10.0551  -17.0141   27.1398 C   0  0  0  0  0  0  0  0  0  0  0  0
   10.8216  -17.9374   27.8138 O   0  0  0  0  0  0  0  0  0  0  0  0
    8.8712  -17.4138   26.8680 O   0  0  0  0  0  0  0  0  0  0  0  0
  2  1  1  6
  2  3  1  0
  3  4  1  0
  5  6  2  0
  5  2  1  0
  7  5  1  0
  8  7  1  0
  9 10  1  0
  8  9  1  1
 10 11  2  0
 10 18  1  0
 11 12  1  0
 12 13  1  0
 13 14  2  0
 14 15  1  0
 16 15  2  0
 17 16  1  0
 18 17  2  0
 18 13  1  0
 19  8  1  0
 19 20  2  0
 22 21  1  0
 23 22  1  0
 23 24  1  1
 25 26  1  6
 25 23  1  0
 26 19  1  0
 27 25  1  0
 28 27  1  0
 29 27  2  0
M  END
$$$$
