CWI.pdb
     RDKit          3D

 29 30  0  0  1  0  0  0  0  0999 V2000
   12.2219  -16.3531   19.2668 N   0  0  0  0  0  0  0  0  0  0  0  0
   11.5681  -17.2408   20.1816 C   0  0  1  0  0  0  0  0  0  0  0  0
   12.4873  -18.2912   20.7657 C   0  0  0  0  0  0  0  0  0  0  0  0
   13.8630  -17.4962   21.6089 S   0  0  0  0  0  0  0  0  0  0  0  0
   10.9343  -16.4333   21.2565 C   0  0  0  0  0  0  0  0  0  0  0  0
   11.3855  -15.2838   21.5377 O   0  0  0  0  0  0  0  0  0  0  0  0
    9.8224  -16.8780   22.0130 N   0  0  0  0  0  0  0  0  0  0  0  0
    9.2108  -16.0619   23.0242 C   0  0  1  0  0  0  0  0  0  0  0  0
    7.7254  -16.3097   23.0939 C   0  0  0  0  0  0  0  0  0  0  0  0
    6.9941  -15.5966   24.1149 C   0  0  0  0  0  0  0  0  0  0  0  0
    6.1960  -16.1937   25.0762 C   0  0  0  0  0  0  0  0  0  0  0  0
    5.6807  -15.2623   25.8891 N   0  0  0  0  0  0  0  0  0  0  0  0
    6.1347  -14.0568   25.4678 C   0  0  0  0  0  0  0  0  0  0  0  0
    5.9262  -12.7725   25.9186 C   0  0  0  0  0  0  0  0  0  0  0  0
    6.4925  -11.6589   25.3247 C   0  0  0  0  0  0  0  0  0  0  0  0
    7.3035  -11.8411   24.2300 C   0  0  0  0  0  0  0  0  0  0  0  0
    7.5160  -13.1398   23.7721 C   0  0  0  0  0  0  0  0  0  0  0  0
    6.9506  -14.2535   24.3665 C   0  0  0  0  0  0  0  0  0  0  0  0
    9.7537  -16.4549   24.3491 C   0  0  0  0  0  0  0  0  0  0  0  0
   10.1704  -17.6289   24.4896 O   0  0  0  0  0  0  0  0  0  0  0  0
   10.7160  -14.0030   30.0322 C   0  0  0  0  0  0  0  0  0  0  0  0
   11.1897  -14.8618   28.9191 C   0  0  0  0  0  0  0  0  0  0  0  0
   10.5139  -14.7226   27.6104 C   0  0  2  0  0  0  0  0  0  0  0  0
    9.2357  -13.9082   27.6538 C   0  0  0  0  0  0  0  0  0  0  0  0
   10.4667  -15.9206   26.7328 C   0  0  2  0  0  0  0  0  0  0  0  0
    9.8307  -15.5970   25.4551 N   0  0  0  0  0  0  0  0  0  0  0  0
    9.8339  -17.1226   27.2562 C   0  0  0  0  0  0  0  0  0  0  0  0
   10.4077  -18.1205   28.0107 O   0  0  0  0  0  0  0  0  0  0  0  0
    8.5945  -17.3056   27.0001 O   0  0  0  0  0  0  0  0  0  0  0  0
  2  1  1  6
  2  3  1  0
  3  4  1  0
  5  6  2  0
  5  2  1  0
  7  5  1  0
  8  7  1  0
  9 10  1  0
  8  9  1  1
 10 11  2  0
 10 18  1  0
 11 12  1  0
 12 13  1  0
 13 14  2  0
 14 15  1  0
 16 15  2  0
 17 16  1  0
 18 17  2  0
 18 13  1  0
 19  8  1  0
 19 20  2  0
 22 21  1  0
 23 22  1  0
 23 24  1  1
 25 26  1  6
 25 23  1  0
 26 19  1  0
 27 25  1  0
 28 27  1  0
 29 27  2  0
M  END
$$$$
