CWI.pdb
     RDKit          3D

 29 30  0  0  1  0  0  0  0  0999 V2000
   11.1604  -16.5756   19.1655 N   0  0  0  0  0  0  0  0  0  0  0  0
   11.3958  -17.3636   20.3385 C   0  0  1  0  0  0  0  0  0  0  0  0
   12.8290  -17.8286   20.4768 C   0  0  0  0  0  0  0  0  0  0  0  0
   12.9676  -18.9737   21.8570 S   0  0  0  0  0  0  0  0  0  0  0  0
   10.9747  -16.5804   21.5295 C   0  0  0  0  0  0  0  0  0  0  0  0
   11.3488  -15.3779   21.6641 O   0  0  0  0  0  0  0  0  0  0  0  0
   10.1558  -17.1062   22.5588 N   0  0  0  0  0  0  0  0  0  0  0  0
    9.6539  -16.2894   23.6281 C   0  0  1  0  0  0  0  0  0  0  0  0
    8.1634  -16.4556   23.7817 C   0  0  0  0  0  0  0  0  0  0  0  0
    7.3670  -15.2515   23.7411 C   0  0  0  0  0  0  0  0  0  0  0  0
    6.6413  -14.8222   22.6426 C   0  0  0  0  0  0  0  0  0  0  0  0
    5.9912  -13.6884   22.9356 N   0  0  0  0  0  0  0  0  0  0  0  0
    6.2855  -13.3696   24.2196 C   0  0  0  0  0  0  0  0  0  0  0  0
    5.9075  -12.3228   25.0304 C   0  0  0  0  0  0  0  0  0  0  0  0
    6.3394  -12.1811   26.3370 C   0  0  0  0  0  0  0  0  0  0  0  0
    7.1882  -13.1311   26.8532 C   0  0  0  0  0  0  0  0  0  0  0  0
    7.5719  -14.1913   26.0346 C   0  0  0  0  0  0  0  0  0  0  0  0
    7.1394  -14.3335   24.7285 C   0  0  0  0  0  0  0  0  0  0  0  0
   10.2511  -16.7538   24.9057 C   0  0  0  0  0  0  0  0  0  0  0  0
   10.6061  -17.9534   24.9877 O   0  0  0  0  0  0  0  0  0  0  0  0
   10.1766  -13.5868   29.9071 C   0  0  0  0  0  0  0  0  0  0  0  0
    9.9593  -14.7075   28.9596 C   0  0  0  0  0  0  0  0  0  0  0  0
   11.1397  -15.2382   28.2430 C   0  0  2  0  0  0  0  0  0  0  0  0
   12.0797  -14.1712   27.7169 C   0  0  0  0  0  0  0  0  0  0  0  0
   10.9266  -16.3928   27.3325 C   0  0  2  0  0  0  0  0  0  0  0  0
   10.4443  -15.9367   26.0283 N   0  0  0  0  0  0  0  0  0  0  0  0
   10.0495  -17.4630   27.7850 C   0  0  0  0  0  0  0  0  0  0  0  0
    8.7846  -17.7668   27.3356 O   0  0  0  0  0  0  0  0  0  0  0  0
   10.4747  -18.2318   28.7142 O   0  0  0  0  0  0  0  0  0  0  0  0
  2  1  1  6
  2  3  1  0
  3  4  1  0
  5  6  2  0
  5  2  1  0
  7  5  1  0
  8  7  1  0
  9 10  1  0
  8  9  1  1
 10 11  2  0
 10 18  1  0
 11 12  1  0
 12 13  1  0
 13 14  2  0
 14 15  1  0
 16 15  2  0
 17 16  1  0
 18 17  2  0
 18 13  1  0
 19  8  1  0
 19 20  2  0
 22 21  1  0
 23 22  1  0
 23 24  1  6
 25 26  1  6
 25 23  1  0
 26 19  1  0
 27 25  1  0
 28 27  1  0
 29 27  2  0
M  END
$$$$
