CWI.pdb
     RDKit          3D

 29 30  0  0  1  0  0  0  0  0999 V2000
   11.5440  -16.3570   19.2681 N   0  0  0  0  0  0  0  0  0  0  0  0
   10.8747  -17.2558   20.1606 C   0  0  1  0  0  0  0  0  0  0  0  0
   11.7245  -18.4351   20.5805 C   0  0  0  0  0  0  0  0  0  0  0  0
   13.1995  -17.8519   21.4289 S   0  0  0  0  0  0  0  0  0  0  0  0
   10.4082  -16.4893   21.3455 C   0  0  0  0  0  0  0  0  0  0  0  0
   10.9257  -15.3664   21.6200 O   0  0  0  0  0  0  0  0  0  0  0  0
    9.3897  -16.9456   22.2177 N   0  0  0  0  0  0  0  0  0  0  0  0
    8.9674  -16.1874   23.3620 C   0  0  1  0  0  0  0  0  0  0  0  0
    7.6112  -16.6399   23.8402 C   0  0  0  0  0  0  0  0  0  0  0  0
    6.8367  -15.6852   24.5981 C   0  0  0  0  0  0  0  0  0  0  0  0
    5.7263  -15.9999   25.3632 C   0  0  0  0  0  0  0  0  0  0  0  0
    5.2526  -14.8987   25.9608 N   0  0  0  0  0  0  0  0  0  0  0  0
    6.0445  -13.8623   25.5928 C   0  0  0  0  0  0  0  0  0  0  0  0
    6.0231  -12.5192   25.8958 C   0  0  0  0  0  0  0  0  0  0  0  0
    6.9415  -11.6139   25.3950 C   0  0  0  0  0  0  0  0  0  0  0  0
    7.9247  -12.0759   24.5529 C   0  0  0  0  0  0  0  0  0  0  0  0
    7.9484  -13.4345   24.2450 C   0  0  0  0  0  0  0  0  0  0  0  0
    7.0308  -14.3399   24.7464 C   0  0  0  0  0  0  0  0  0  0  0  0
    9.9050  -16.4506   24.4828 C   0  0  0  0  0  0  0  0  0  0  0  0
   10.7850  -17.3285   24.3201 O   0  0  0  0  0  0  0  0  0  0  0  0
    9.9915  -12.6986   28.6274 C   0  0  0  0  0  0  0  0  0  0  0  0
   10.2934  -13.6751   27.5522 C   0  0  0  0  0  0  0  0  0  0  0  0
   10.5073  -15.0848   27.9466 C   0  0  2  0  0  0  0  0  0  0  0  0
   11.3895  -15.2623   29.1669 C   0  0  0  0  0  0  0  0  0  0  0  0
   10.7300  -16.0739   26.8605 C   0  0  2  0  0  0  0  0  0  0  0  0
    9.8702  -15.7799   25.7134 N   0  0  0  0  0  0  0  0  0  0  0  0
   10.5779  -17.4851   27.1840 C   0  0  0  0  0  0  0  0  0  0  0  0
   11.5553  -18.3750   27.5676 O   0  0  0  0  0  0  0  0  0  0  0  0
    9.4064  -17.9924   27.1107 O   0  0  0  0  0  0  0  0  0  0  0  0
  2  1  1  6
  2  3  1  0
  3  4  1  0
  5  6  2  0
  5  2  1  0
  7  5  1  0
  8  7  1  0
  9 10  1  0
  8  9  1  1
 10 11  2  0
 10 18  1  0
 11 12  1  0
 12 13  1  0
 13 14  2  0
 14 15  1  0
 16 15  2  0
 17 16  1  0
 18 17  2  0
 18 13  1  0
 19  8  1  0
 19 20  2  0
 22 21  1  0
 23 22  1  0
 23 24  1  1
 25 26  1  6
 25 23  1  0
 26 19  1  0
 27 25  1  0
 28 27  1  0
 29 27  2  0
M  END
$$$$
