CWI.pdb
     RDKit          3D

 29 30  0  0  1  0  0  0  0  0999 V2000
   12.1362  -16.2565   19.2696 N   0  0  0  0  0  0  0  0  0  0  0  0
   11.4598  -17.1734   20.1381 C   0  0  1  0  0  0  0  0  0  0  0  0
   12.3271  -18.3269   20.5927 C   0  0  0  0  0  0  0  0  0  0  0  0
   13.6616  -17.7136   21.6312 S   0  0  0  0  0  0  0  0  0  0  0  0
   10.9264  -16.4194   21.3025 C   0  0  0  0  0  0  0  0  0  0  0  0
   11.4395  -15.3086   21.6295 O   0  0  0  0  0  0  0  0  0  0  0  0
    9.8465  -16.8750   22.0980 N   0  0  0  0  0  0  0  0  0  0  0  0
    9.2869  -16.0793   23.1545 C   0  0  1  0  0  0  0  0  0  0  0  0
    7.8164  -16.3642   23.3254 C   0  0  0  0  0  0  0  0  0  0  0  0
    7.1164  -15.5931   24.3259 C   0  0  0  0  0  0  0  0  0  0  0  0
    6.3193  -16.1315   25.3220 C   0  0  0  0  0  0  0  0  0  0  0  0
    5.8369  -15.1558   26.1025 N   0  0  0  0  0  0  0  0  0  0  0  0
    6.3116  -13.9795   25.6254 C   0  0  0  0  0  0  0  0  0  0  0  0
    6.1386  -12.6732   26.0252 C   0  0  0  0  0  0  0  0  0  0  0  0
    6.7210  -11.5983   25.3779 C   0  0  0  0  0  0  0  0  0  0  0  0
    7.5116  -11.8441   24.2807 C   0  0  0  0  0  0  0  0  0  0  0  0
    7.6881  -13.1651   23.8742 C   0  0  0  0  0  0  0  0  0  0  0  0
    7.1066  -14.2400   24.5220 C   0  0  0  0  0  0  0  0  0  0  0  0
    9.9300  -16.4651   24.4360 C   0  0  0  0  0  0  0  0  0  0  0  0
   10.4706  -17.5940   24.5067 O   0  0  0  0  0  0  0  0  0  0  0  0
    9.6190  -12.6829   28.6000 C   0  0  0  0  0  0  0  0  0  0  0  0
   10.1091  -13.6215   27.5609 C   0  0  0  0  0  0  0  0  0  0  0  0
   10.1885  -15.0557   27.9149 C   0  0  2  0  0  0  0  0  0  0  0  0
   10.7893  -15.3271   29.2802 C   0  0  0  0  0  0  0  0  0  0  0  0
   10.6003  -16.0032   26.8470 C   0  0  2  0  0  0  0  0  0  0  0  0
    9.9720  -15.6477   25.5741 N   0  0  0  0  0  0  0  0  0  0  0  0
   10.3774  -17.4236   27.0751 C   0  0  0  0  0  0  0  0  0  0  0  0
    9.2056  -18.1303   26.9273 O   0  0  0  0  0  0  0  0  0  0  0  0
   11.3703  -18.1299   27.4632 O   0  0  0  0  0  0  0  0  0  0  0  0
  2  1  1  6
  2  3  1  0
  3  4  1  0
  5  6  2  0
  5  2  1  0
  7  5  1  0
  8  7  1  0
  9 10  1  0
  8  9  1  1
 10 11  2  0
 10 18  1  0
 11 12  1  0
 12 13  1  0
 13 14  2  0
 14 15  1  0
 16 15  2  0
 17 16  1  0
 18 17  2  0
 18 13  1  0
 19  8  1  0
 19 20  2  0
 22 21  1  0
 23 22  1  0
 23 24  1  1
 25 26  1  6
 25 23  1  0
 26 19  1  0
 27 25  1  0
 28 27  1  0
 29 27  2  0
M  END
$$$$
