CWI.pdb
     RDKit          3D

 29 30  0  0  1  0  0  0  0  0999 V2000
   12.1793  -16.1888   19.2750 N   0  0  0  0  0  0  0  0  0  0  0  0
   11.5186  -17.1332   20.1260 C   0  0  1  0  0  0  0  0  0  0  0  0
   12.4006  -18.2886   20.5461 C   0  0  0  0  0  0  0  0  0  0  0  0
   13.8767  -17.6631   21.3618 S   0  0  0  0  0  0  0  0  0  0  0  0
   10.9866  -16.4130   21.3123 C   0  0  0  0  0  0  0  0  0  0  0  0
   11.5241  -15.3311   21.6928 O   0  0  0  0  0  0  0  0  0  0  0  0
    9.8818  -16.8706   22.0715 N   0  0  0  0  0  0  0  0  0  0  0  0
    9.2981  -16.0839   23.1217 C   0  0  1  0  0  0  0  0  0  0  0  0
    7.8095  -16.3086   23.2022 C   0  0  0  0  0  0  0  0  0  0  0  0
    7.1013  -15.6069   24.2471 C   0  0  0  0  0  0  0  0  0  0  0  0
    6.2875  -16.2102   25.1912 C   0  0  0  0  0  0  0  0  0  0  0  0
    5.8012  -15.2901   26.0343 N   0  0  0  0  0  0  0  0  0  0  0  0
    6.2899  -14.0859   25.6500 C   0  0  0  0  0  0  0  0  0  0  0  0
    6.1202  -12.8108   26.1415 C   0  0  0  0  0  0  0  0  0  0  0  0
    6.7182  -11.6962   25.5815 C   0  0  0  0  0  0  0  0  0  0  0  0
    7.5216  -11.8676   24.4795 C   0  0  0  0  0  0  0  0  0  0  0  0
    7.6949  -13.1569   23.9804 C   0  0  0  0  0  0  0  0  0  0  0  0
    7.0978  -14.2716   24.5409 C   0  0  0  0  0  0  0  0  0  0  0  0
    9.8512  -16.5371   24.4229 C   0  0  0  0  0  0  0  0  0  0  0  0
   10.4216  -17.6528   24.4634 O   0  0  0  0  0  0  0  0  0  0  0  0
    9.8892  -12.6048   28.3958 C   0  0  0  0  0  0  0  0  0  0  0  0
   10.2020  -13.6547   27.3954 C   0  0  0  0  0  0  0  0  0  0  0  0
   10.2625  -15.0554   27.8675 C   0  0  2  0  0  0  0  0  0  0  0  0
   11.0208  -15.2416   29.1672 C   0  0  0  0  0  0  0  0  0  0  0  0
   10.4917  -16.1125   26.8489 C   0  0  2  0  0  0  0  0  0  0  0  0
    9.7770  -15.7974   25.6114 N   0  0  0  0  0  0  0  0  0  0  0  0
   10.1750  -17.4864   27.2113 C   0  0  0  0  0  0  0  0  0  0  0  0
   11.0128  -18.4313   27.7589 O   0  0  0  0  0  0  0  0  0  0  0  0
    8.9820  -17.8988   27.0069 O   0  0  0  0  0  0  0  0  0  0  0  0
  2  1  1  6
  2  3  1  0
  3  4  1  0
  5  6  2  0
  5  2  1  0
  7  5  1  0
  8  7  1  0
  9 10  1  0
  8  9  1  1
 10 11  2  0
 10 18  1  0
 11 12  1  0
 12 13  1  0
 13 14  2  0
 14 15  1  0
 16 15  2  0
 17 16  1  0
 18 17  2  0
 18 13  1  0
 19  8  1  0
 19 20  2  0
 22 21  1  0
 23 22  1  0
 23 24  1  1
 25 26  1  6
 25 23  1  0
 26 19  1  0
 27 25  1  0
 28 27  1  0
 29 27  2  0
M  END
$$$$
