CWI.pdb
     RDKit          3D

 29 30  0  0  1  0  0  0  0  0999 V2000
   10.6665  -18.7900   20.1940 N   0  0  0  0  0  0  0  0  0  0  0  0
   11.1287  -17.4469   20.0076 C   0  0  1  0  0  0  0  0  0  0  0  0
   10.7506  -16.8582   18.6660 C   0  0  0  0  0  0  0  0  0  0  0  0
   11.8245  -15.4660   18.2869 S   0  0  0  0  0  0  0  0  0  0  0  0
   10.6115  -16.6077   21.1201 C   0  0  0  0  0  0  0  0  0  0  0  0
   11.1690  -15.5045   21.3961 O   0  0  0  0  0  0  0  0  0  0  0  0
    9.4999  -16.9712   21.9191 N   0  0  0  0  0  0  0  0  0  0  0  0
    9.0008  -16.1228   22.9649 C   0  0  1  0  0  0  0  0  0  0  0  0
    7.5937  -16.5060   23.3471 C   0  0  0  0  0  0  0  0  0  0  0  0
    6.8861  -15.5977   24.2188 C   0  0  0  0  0  0  0  0  0  0  0  0
    5.9219  -15.9764   25.1378 C   0  0  0  0  0  0  0  0  0  0  0  0
    5.4788  -14.9044   25.8075 N   0  0  0  0  0  0  0  0  0  0  0  0
    6.1455  -13.8236   25.3342 C   0  0  0  0  0  0  0  0  0  0  0  0
    6.0910  -12.4837   25.6474 C   0  0  0  0  0  0  0  0  0  0  0  0
    6.8704  -11.5266   25.0230 C   0  0  0  0  0  0  0  0  0  0  0  0
    7.7429  -11.9307   24.0408 C   0  0  0  0  0  0  0  0  0  0  0  0
    7.7999  -13.2859   23.7222 C   0  0  0  0  0  0  0  0  0  0  0  0
    7.0212  -14.2432   24.3471 C   0  0  0  0  0  0  0  0  0  0  0  0
    9.8256  -16.3283   24.1823 C   0  0  0  0  0  0  0  0  0  0  0  0
   10.6669  -17.2577   24.1732 O   0  0  0  0  0  0  0  0  0  0  0  0
   10.5832  -13.7143   29.8662 C   0  0  0  0  0  0  0  0  0  0  0  0
   10.9903  -14.6736   28.8103 C   0  0  0  0  0  0  0  0  0  0  0  0
   10.2272  -14.6627   27.5429 C   0  0  2  0  0  0  0  0  0  0  0  0
    8.7586  -14.3218   27.7040 C   0  0  0  0  0  0  0  0  0  0  0  0
   10.5192  -15.7362   26.5581 C   0  0  2  0  0  0  0  0  0  0  0  0
    9.7247  -15.5492   25.3434 N   0  0  0  0  0  0  0  0  0  0  0  0
   10.3588  -17.1172   26.9898 C   0  0  0  0  0  0  0  0  0  0  0  0
    9.3108  -17.9696   26.7259 O   0  0  0  0  0  0  0  0  0  0  0  0
   11.2856  -17.6314   27.7053 O   0  0  0  0  0  0  0  0  0  0  0  0
  2  1  1  1
  2  3  1  0
  3  4  1  0
  5  6  2  0
  5  2  1  0
  7  5  1  0
  8  7  1  0
  9 10  1  0
  8  9  1  1
 10 11  2  0
 10 18  1  0
 11 12  1  0
 12 13  1  0
 13 14  2  0
 14 15  1  0
 16 15  2  0
 17 16  1  0
 18 17  2  0
 18 13  1  0
 19  8  1  0
 19 20  2  0
 22 21  1  0
 23 22  1  0
 23 24  1  1
 25 26  1  6
 25 23  1  0
 26 19  1  0
 27 25  1  0
 28 27  1  0
 29 27  2  0
M  END
$$$$
