CWI.pdb
     RDKit          3D

 29 30  0  0  1  0  0  0  0  0999 V2000
   11.4950  -15.9100   18.8899 N   0  0  0  0  0  0  0  0  0  0  0  0
   11.3668  -16.8178   19.9909 C   0  0  1  0  0  0  0  0  0  0  0  0
   12.6726  -17.4667   20.3945 C   0  0  0  0  0  0  0  0  0  0  0  0
   12.3669  -18.7282   21.6398 S   0  0  0  0  0  0  0  0  0  0  0  0
   10.7583  -16.0923   21.1365 C   0  0  0  0  0  0  0  0  0  0  0  0
   11.0735  -14.8872   21.3653 O   0  0  0  0  0  0  0  0  0  0  0  0
    9.8181  -16.6779   22.0194 N   0  0  0  0  0  0  0  0  0  0  0  0
    9.2061  -15.9355   23.0857 C   0  0  1  0  0  0  0  0  0  0  0  0
    7.7182  -16.1749   23.1269 C   0  0  0  0  0  0  0  0  0  0  0  0
    6.9803  -15.5050   24.1721 C   0  0  0  0  0  0  0  0  0  0  0  0
    6.1902  -16.1431   25.1134 C   0  0  0  0  0  0  0  0  0  0  0  0
    5.6654  -15.2455   25.9577 N   0  0  0  0  0  0  0  0  0  0  0  0
    6.1052  -14.0215   25.5769 C   0  0  0  0  0  0  0  0  0  0  0  0
    5.8829  -12.7555   26.0710 C   0  0  0  0  0  0  0  0  0  0  0  0
    6.4359  -11.6162   25.5145 C   0  0  0  0  0  0  0  0  0  0  0  0
    7.2475  -11.7522   24.4135 C   0  0  0  0  0  0  0  0  0  0  0  0
    7.4740  -13.0322   23.9119 C   0  0  0  0  0  0  0  0  0  0  0  0
    6.9219  -14.1716   24.4688 C   0  0  0  0  0  0  0  0  0  0  0  0
    9.7364  -16.4326   24.3805 C   0  0  0  0  0  0  0  0  0  0  0  0
   10.0941  -17.6322   24.4483 O   0  0  0  0  0  0  0  0  0  0  0  0
   10.5549  -12.5217   28.3266 C   0  0  0  0  0  0  0  0  0  0  0  0
   10.6595  -13.6180   27.3326 C   0  0  0  0  0  0  0  0  0  0  0  0
   10.4108  -14.9977   27.8048 C   0  0  2  0  0  0  0  0  0  0  0  0
   11.0589  -15.3261   29.1355 C   0  0  0  0  0  0  0  0  0  0  0  0
   10.4606  -16.0869   26.7954 C   0  0  2  0  0  0  0  0  0  0  0  0
    9.8633  -15.6463   25.5341 N   0  0  0  0  0  0  0  0  0  0  0  0
    9.8675  -17.3687   27.1481 C   0  0  0  0  0  0  0  0  0  0  0  0
   10.4990  -18.4824   27.6532 O   0  0  0  0  0  0  0  0  0  0  0  0
    8.6083  -17.5118   26.9779 O   0  0  0  0  0  0  0  0  0  0  0  0
  2  1  1  6
  2  3  1  0
  3  4  1  0
  5  6  2  0
  5  2  1  0
  7  5  1  0
  8  7  1  0
  9 10  1  0
  8  9  1  1
 10 11  2  0
 10 18  1  0
 11 12  1  0
 12 13  1  0
 13 14  2  0
 14 15  1  0
 16 15  2  0
 17 16  1  0
 18 17  2  0
 18 13  1  0
 19  8  1  0
 19 20  2  0
 22 21  1  0
 23 22  1  0
 23 24  1  1
 25 26  1  6
 25 23  1  0
 26 19  1  0
 27 25  1  0
 28 27  1  0
 29 27  2  0
M  END
$$$$
