CWI.pdb
     RDKit          3D

 29 30  0  0  1  0  0  0  0  0999 V2000
   11.5184  -16.1331   18.9088 N   0  0  0  0  0  0  0  0  0  0  0  0
   11.2525  -17.0469   19.9796 C   0  0  1  0  0  0  0  0  0  0  0  0
   12.4605  -17.8567   20.3971 C   0  0  0  0  0  0  0  0  0  0  0  0
   12.1182  -19.6108   20.1935 S   0  0  0  0  0  0  0  0  0  0  0  0
   10.7018  -16.2837   21.1300 C   0  0  0  0  0  0  0  0  0  0  0  0
   11.1820  -15.1505   21.4291 O   0  0  0  0  0  0  0  0  0  0  0  0
    9.6406  -16.7543   21.9416 N   0  0  0  0  0  0  0  0  0  0  0  0
    9.1242  -15.9904   23.0426 C   0  0  1  0  0  0  0  0  0  0  0  0
    7.6774  -16.3257   23.3020 C   0  0  0  0  0  0  0  0  0  0  0  0
    7.0078  -15.5652   24.3311 C   0  0  0  0  0  0  0  0  0  0  0  0
    6.2668  -16.1159   25.3631 C   0  0  0  0  0  0  0  0  0  0  0  0
    5.8008  -15.1473   26.1623 N   0  0  0  0  0  0  0  0  0  0  0  0
    6.2306  -13.9635   25.6617 C   0  0  0  0  0  0  0  0  0  0  0  0
    6.0502  -12.6596   26.0661 C   0  0  0  0  0  0  0  0  0  0  0  0
    6.5819  -11.5756   25.3909 C   0  0  0  0  0  0  0  0  0  0  0  0
    7.3272  -11.8094   24.2599 C   0  0  0  0  0  0  0  0  0  0  0  0
    7.5112  -13.1279   23.8489 C   0  0  0  0  0  0  0  0  0  0  0  0
    6.9804  -14.2120   24.5245 C   0  0  0  0  0  0  0  0  0  0  0  0
    9.8595  -16.3705   24.2753 C   0  0  0  0  0  0  0  0  0  0  0  0
   10.4437  -17.4795   24.2937 O   0  0  0  0  0  0  0  0  0  0  0  0
   10.6704  -12.3535   28.1460 C   0  0  0  0  0  0  0  0  0  0  0  0
   10.8447  -13.4698   27.1846 C   0  0  0  0  0  0  0  0  0  0  0  0
   10.5318  -14.8365   27.6568 C   0  0  2  0  0  0  0  0  0  0  0  0
   11.0857  -15.1623   29.0300 C   0  0  0  0  0  0  0  0  0  0  0  0
   10.6183  -15.9403   26.6659 C   0  0  2  0  0  0  0  0  0  0  0  0
    9.9432  -15.5683   25.4219 N   0  0  0  0  0  0  0  0  0  0  0  0
   10.1302  -17.2524   27.0651 C   0  0  0  0  0  0  0  0  0  0  0  0
    8.8506  -17.7477   26.9572 O   0  0  0  0  0  0  0  0  0  0  0  0
   10.9662  -18.0684   27.5854 O   0  0  0  0  0  0  0  0  0  0  0  0
  2  1  1  6
  2  3  1  0
  3  4  1  0
  5  6  2  0
  5  2  1  0
  7  5  1  0
  8  7  1  0
  9 10  1  0
  8  9  1  1
 10 11  2  0
 10 18  1  0
 11 12  1  0
 12 13  1  0
 13 14  2  0
 14 15  1  0
 16 15  2  0
 17 16  1  0
 18 17  2  0
 18 13  1  0
 19  8  1  0
 19 20  2  0
 22 21  1  0
 23 22  1  0
 23 24  1  1
 25 26  1  6
 25 23  1  0
 26 19  1  0
 27 25  1  0
 28 27  1  0
 29 27  2  0
M  END
$$$$
