CWI.pdb
     RDKit          3D

 29 30  0  0  1  0  0  0  0  0999 V2000
    8.1311  -17.4711   18.4998 N   0  0  0  0  0  0  0  0  0  0  0  0
    7.7960  -17.6814   19.8767 C   0  0  1  0  0  0  0  0  0  0  0  0
    7.8200  -19.1370   20.2891 C   0  0  0  0  0  0  0  0  0  0  0  0
    7.1300  -19.3139   21.9408 S   0  0  0  0  0  0  0  0  0  0  0  0
    8.7186  -16.8760   20.7188 C   0  0  0  0  0  0  0  0  0  0  0  0
    9.9093  -16.6704   20.3393 O   0  0  0  0  0  0  0  0  0  0  0  0
    8.3432  -16.3038   21.9590 N   0  0  0  0  0  0  0  0  0  0  0  0
    9.2637  -15.5480   22.7615 C   0  0  1  0  0  0  0  0  0  0  0  0
    8.6554  -14.2379   23.1932 C   0  0  0  0  0  0  0  0  0  0  0  0
    7.7489  -14.2804   24.3167 C   0  0  0  0  0  0  0  0  0  0  0  0
    7.1341  -15.4268   24.7913 C   0  0  0  0  0  0  0  0  0  0  0  0
    6.3780  -15.1352   25.8578 N   0  0  0  0  0  0  0  0  0  0  0  0
    6.4917  -13.8042   26.0866 C   0  0  0  0  0  0  0  0  0  0  0  0
    5.9385  -12.9701   27.0324 C   0  0  0  0  0  0  0  0  0  0  0  0
    6.1868  -11.6102   27.0827 C   0  0  0  0  0  0  0  0  0  0  0  0
    7.0267  -11.0622   26.1427 C   0  0  0  0  0  0  0  0  0  0  0  0
    7.5877  -11.9042   25.1847 C   0  0  0  0  0  0  0  0  0  0  0  0
    7.3403  -13.2642   25.1349 C   0  0  0  0  0  0  0  0  0  0  0  0
    9.5403  -16.3018   24.0104 C   0  0  0  0  0  0  0  0  0  0  0  0
    8.6444  -17.0601   24.4507 O   0  0  0  0  0  0  0  0  0  0  0  0
   15.0687  -16.4811   25.9569 C   0  0  0  0  0  0  0  0  0  0  0  0
   13.5954  -16.3472   26.0681 C   0  0  0  0  0  0  0  0  0  0  0  0
   12.7617  -17.3751   25.4071 C   0  0  2  0  0  0  0  0  0  0  0  0
   13.2206  -17.7442   24.0100 C   0  0  0  0  0  0  0  0  0  0  0  0
   11.2892  -17.2782   25.5801 C   0  0  2  0  0  0  0  0  0  0  0  0
   10.7404  -16.2206   24.7305 N   0  0  0  0  0  0  0  0  0  0  0  0
   10.7741  -17.0825   26.9276 C   0  0  0  0  0  0  0  0  0  0  0  0
   10.8292  -17.9566   27.9893 O   0  0  0  0  0  0  0  0  0  0  0  0
   10.1914  -15.9749   27.1899 O   0  0  0  0  0  0  0  0  0  0  0  0
  2  1  1  6
  2  3  1  0
  3  4  1  0
  5  6  2  0
  5  2  1  0
  7  5  1  0
  8  7  1  0
  9 10  1  0
  8  9  1  1
 10 11  2  0
 10 18  1  0
 11 12  1  0
 12 13  1  0
 13 14  2  0
 14 15  1  0
 16 15  2  0
 17 16  1  0
 18 17  2  0
 18 13  1  0
 19  8  1  0
 19 20  2  0
 22 21  1  0
 23 22  1  0
 23 24  1  6
 25 26  1  6
 25 23  1  0
 26 19  1  0
 27 25  1  0
 28 27  1  0
 29 27  2  0
M  END
$$$$
