CWI.pdb
     RDKit          3D

 29 30  0  0  1  0  0  0  0  0999 V2000
   11.3848  -15.7914   18.9542 N   0  0  0  0  0  0  0  0  0  0  0  0
   11.4365  -16.6865   20.0716 C   0  0  1  0  0  0  0  0  0  0  0  0
   12.8303  -17.1878   20.3804 C   0  0  0  0  0  0  0  0  0  0  0  0
   12.7413  -18.5599   21.5402 S   0  0  0  0  0  0  0  0  0  0  0  0
   10.8431  -16.0069   21.2527 C   0  0  0  0  0  0  0  0  0  0  0  0
   11.0735  -14.7792   21.4617 O   0  0  0  0  0  0  0  0  0  0  0  0
   10.0094  -16.6620   22.1919 N   0  0  0  0  0  0  0  0  0  0  0  0
    9.3993  -15.9645   23.2891 C   0  0  1  0  0  0  0  0  0  0  0  0
    7.9092  -16.1919   23.3130 C   0  0  0  0  0  0  0  0  0  0  0  0
    7.1566  -15.4685   24.3110 C   0  0  0  0  0  0  0  0  0  0  0  0
    6.5098  -16.0517   25.3876 C   0  0  0  0  0  0  0  0  0  0  0  0
    5.9280  -15.1087   26.1402 N   0  0  0  0  0  0  0  0  0  0  0  0
    6.1880  -13.9096   25.5647 C   0  0  0  0  0  0  0  0  0  0  0  0
    5.8390  -12.6200   25.8982 C   0  0  0  0  0  0  0  0  0  0  0  0
    6.2111  -11.5163   25.1520 C   0  0  0  0  0  0  0  0  0  0  0  0
    6.9665  -11.7145   24.0209 C   0  0  0  0  0  0  0  0  0  0  0  0
    7.3211  -13.0184   23.6814 C   0  0  0  0  0  0  0  0  0  0  0  0
    6.9498  -14.1221   24.4281 C   0  0  0  0  0  0  0  0  0  0  0  0
    9.9192  -16.5261   24.5614 C   0  0  0  0  0  0  0  0  0  0  0  0
   10.3040  -17.7192   24.5643 O   0  0  0  0  0  0  0  0  0  0  0  0
   10.1860  -12.8815   28.7850 C   0  0  0  0  0  0  0  0  0  0  0  0
   10.4688  -13.8699   27.7155 C   0  0  0  0  0  0  0  0  0  0  0  0
   10.4681  -15.3018   28.0876 C   0  0  2  0  0  0  0  0  0  0  0  0
   11.2356  -15.6149   29.3571 C   0  0  0  0  0  0  0  0  0  0  0  0
   10.6305  -16.2941   26.9938 C   0  0  2  0  0  0  0  0  0  0  0  0
   10.0080  -15.8076   25.7619 N   0  0  0  0  0  0  0  0  0  0  0  0
   10.1564  -17.6501   27.2297 C   0  0  0  0  0  0  0  0  0  0  0  0
   10.8250  -18.6852   27.8427 O   0  0  0  0  0  0  0  0  0  0  0  0
    8.9798  -17.9504   26.8287 O   0  0  0  0  0  0  0  0  0  0  0  0
  2  1  1  6
  2  3  1  0
  3  4  1  0
  5  6  2  0
  5  2  1  0
  7  5  1  0
  8  7  1  0
  9 10  1  0
  8  9  1  1
 10 11  2  0
 10 18  1  0
 11 12  1  0
 12 13  1  0
 13 14  2  0
 14 15  1  0
 16 15  2  0
 17 16  1  0
 18 17  2  0
 18 13  1  0
 19  8  1  0
 19 20  2  0
 22 21  1  0
 23 22  1  0
 23 24  1  1
 25 26  1  6
 25 23  1  0
 26 19  1  0
 27 25  1  0
 28 27  1  0
 29 27  2  0
M  END
$$$$
