CWI.pdb
     RDKit          3D

 29 30  0  0  1  0  0  0  0  0999 V2000
   10.5913  -18.0468   19.8153 N   0  0  0  0  0  0  0  0  0  0  0  0
   11.4460  -16.9423   20.1349 C   0  0  1  0  0  0  0  0  0  0  0  0
   11.6123  -15.9580   18.9979 C   0  0  0  0  0  0  0  0  0  0  0  0
   11.8859  -16.8464   17.4580 S   0  0  0  0  0  0  0  0  0  0  0  0
   10.9161  -16.2669   21.3483 C   0  0  0  0  0  0  0  0  0  0  0  0
   11.4902  -15.2333   21.8022 O   0  0  0  0  0  0  0  0  0  0  0  0
    9.7738  -16.7168   22.0548 N   0  0  0  0  0  0  0  0  0  0  0  0
    9.2306  -15.9923   23.1695 C   0  0  1  0  0  0  0  0  0  0  0  0
    7.7756  -16.3286   23.3759 C   0  0  0  0  0  0  0  0  0  0  0  0
    7.0856  -15.6156   24.4253 C   0  0  0  0  0  0  0  0  0  0  0  0
    6.3511  -16.2145   25.4350 C   0  0  0  0  0  0  0  0  0  0  0  0
    5.8614  -15.2820   26.2625 N   0  0  0  0  0  0  0  0  0  0  0  0
    6.2692  -14.0741   25.8027 C   0  0  0  0  0  0  0  0  0  0  0  0
    6.0601  -12.7879   26.2479 C   0  0  0  0  0  0  0  0  0  0  0  0
    6.5727  -11.6720   25.6110 C   0  0  0  0  0  0  0  0  0  0  0  0
    7.3281  -11.8538   24.4772 C   0  0  0  0  0  0  0  0  0  0  0  0
    7.5411  -13.1543   24.0248 C   0  0  0  0  0  0  0  0  0  0  0  0
    7.0295  -14.2703   24.6621 C   0  0  0  0  0  0  0  0  0  0  0  0
    9.9295  -16.4232   24.4066 C   0  0  0  0  0  0  0  0  0  0  0  0
   10.6452  -17.4510   24.3505 O   0  0  0  0  0  0  0  0  0  0  0  0
   10.1211  -12.6324   28.4994 C   0  0  0  0  0  0  0  0  0  0  0  0
   10.4329  -13.6625   27.4784 C   0  0  0  0  0  0  0  0  0  0  0  0
   10.3881  -15.0802   27.8988 C   0  0  2  0  0  0  0  0  0  0  0  0
   11.0936  -15.3626   29.2108 C   0  0  0  0  0  0  0  0  0  0  0  0
   10.5783  -16.1130   26.8476 C   0  0  2  0  0  0  0  0  0  0  0  0
    9.8411  -15.7543   25.6354 N   0  0  0  0  0  0  0  0  0  0  0  0
   10.2488  -17.4912   27.1808 C   0  0  0  0  0  0  0  0  0  0  0  0
    9.0380  -18.1298   27.0376 O   0  0  0  0  0  0  0  0  0  0  0  0
   11.1741  -18.2254   27.6707 O   0  0  0  0  0  0  0  0  0  0  0  0
  2  1  1  6
  2  3  1  0
  3  4  1  0
  5  6  2  0
  5  2  1  0
  7  5  1  0
  8  7  1  0
  9 10  1  0
  8  9  1  1
 10 11  2  0
 10 18  1  0
 11 12  1  0
 12 13  1  0
 13 14  2  0
 14 15  1  0
 16 15  2  0
 17 16  1  0
 18 17  2  0
 18 13  1  0
 19  8  1  0
 19 20  2  0
 22 21  1  0
 23 22  1  0
 23 24  1  1
 25 26  1  6
 25 23  1  0
 26 19  1  0
 27 25  1  0
 28 27  1  0
 29 27  2  0
M  END
$$$$
