VEN.pdb
     RDKit          3D

 25 24  0  0  1  0  0  0  0  0999 V2000
    9.6331  -13.1254   20.2045 C   0  0  0  0  0  0  0  0  0  0  0  0
    8.1432  -13.4033   20.3405 C   0  0  1  0  0  0  0  0  0  0  0  0
    7.3771  -12.3118   19.6437 C   0  0  0  0  0  0  0  0  0  0  0  0
    7.8176  -14.7932   19.8105 C   0  0  2  0  0  0  0  0  0  0  0  0
    6.3655  -14.9252   19.9327 N   0  0  0  0  0  0  0  0  0  0  0  0
    8.5884  -15.8574   20.4172 C   0  0  0  0  0  0  0  0  0  0  0  0
    8.1945  -16.3469   21.5150 O   0  0  0  0  0  0  0  0  0  0  0  0
    9.7658  -16.3628   19.8185 N   0  0  0  0  0  0  0  0  0  0  0  0
   10.5301  -17.4484   20.4570 C   0  0  1  0  0  0  0  0  0  0  0  0
   11.2810  -18.2152   19.4121 C   0  0  0  0  0  0  0  0  0  0  0  0
   12.0181  -19.3631   20.0246 C   0  0  0  0  0  0  0  0  0  0  0  0
   12.7399  -20.1743   18.9812 C   0  0  0  0  0  0  0  0  0  0  0  0
   12.2973  -21.2875   18.6707 O   0  0  0  0  0  0  0  0  0  0  0  0
   11.3045  -16.8976   21.5658 C   0  0  0  0  0  0  0  0  0  0  0  0
   11.3312  -15.6082   21.6425 O   0  0  0  0  0  0  0  0  0  0  0  0
   13.8679  -19.6407   18.4156 O   0  0  0  0  0  0  0  0  0  0  0  0
   15.7988  -15.2914   23.5150 N   0  0  0  0  0  0  0  0  0  0  0  0
   14.7723  -15.9848   22.7745 C   0  0  0  0  0  0  0  0  0  0  0  0
   15.1018  -16.8081   21.8777 O   0  0  0  0  0  0  0  0  0  0  0  0
   13.3766  -15.6608   23.1390 C   0  0  0  0  0  0  0  0  0  0  0  0
   12.7013  -16.9044   23.6412 C   0  0  2  0  0  0  0  0  0  0  0  0
   12.0152  -17.6046   22.5555 N   0  0  0  0  0  0  0  0  0  0  0  0
   11.7404  -16.5424   24.6899 C   0  0  0  0  0  0  0  0  0  0  0  0
   10.5962  -16.0499   24.4820 O   0  0  0  0  0  0  0  0  0  0  0  0
   12.0786  -16.7399   26.0209 O   0  0  0  0  0  0  0  0  0  0  0  0
  2  1  1  6
  2  3  1  0
  4  2  1  0
  4  5  1  1
  6  7  2  0
  6  4  1  0
  8  6  1  0
  9  8  1  0
  9 10  1  6
 11 12  1  0
 11 10  1  0
 12 16  1  0
 13 12  2  0
 14  9  1  0
 14 22  1  0
 15 14  2  0
 17 18  1  0
 18 19  2  0
 20 18  1  0
 21 20  1  6
 21 22  1  0
 21 23  1  0
 23 24  2  0
 23 25  1  0
M  END
$$$$
