VEN.pdb
     RDKit          3D

 25 24  0  0  1  0  0  0  0  0999 V2000
    8.3934  -13.1413   21.4497 C   0  0  0  0  0  0  0  0  0  0  0  0
    7.6723  -13.8446   20.3091 C   0  0  1  0  0  0  0  0  0  0  0  0
    7.1955  -12.8132   19.3229 C   0  0  0  0  0  0  0  0  0  0  0  0
    8.5793  -14.8952   19.6827 C   0  0  2  0  0  0  0  0  0  0  0  0
    7.8282  -15.4288   18.5460 N   0  0  0  0  0  0  0  0  0  0  0  0
    9.0764  -15.8846   20.6146 C   0  0  0  0  0  0  0  0  0  0  0  0
    8.3007  -16.8083   20.9955 O   0  0  0  0  0  0  0  0  0  0  0  0
   10.4007  -15.8469   21.1096 N   0  0  0  0  0  0  0  0  0  0  0  0
   10.8953  -16.8936   22.0206 C   0  0  1  0  0  0  0  0  0  0  0  0
   12.3786  -17.0336   21.8659 C   0  0  0  0  0  0  0  0  0  0  0  0
   12.7232  -17.5475   20.5045 C   0  0  0  0  0  0  0  0  0  0  0  0
   13.7494  -18.6473   20.5742 C   0  0  0  0  0  0  0  0  0  0  0  0
   14.9328  -18.3548   20.7876 O   0  0  0  0  0  0  0  0  0  0  0  0
   10.3860  -16.6351   23.3646 C   0  0  0  0  0  0  0  0  0  0  0  0
   11.0605  -15.7831   24.0634 O   0  0  0  0  0  0  0  0  0  0  0  0
   13.3253  -19.9377   20.3949 O   0  0  0  0  0  0  0  0  0  0  0  0
    6.6277  -15.8199   24.0803 N   0  0  0  0  0  0  0  0  0  0  0  0
    6.6586  -17.1718   24.5842 C   0  0  0  0  0  0  0  0  0  0  0  0
    5.9374  -18.0534   24.0427 O   0  0  0  0  0  0  0  0  0  0  0  0
    7.5599  -17.4179   25.7300 C   0  0  0  0  0  0  0  0  0  0  0  0
    8.9368  -16.9301   25.3824 C   0  0  2  0  0  0  0  0  0  0  0  0
    9.2509  -17.1993   23.9792 N   0  0  0  0  0  0  0  0  0  0  0  0
    9.9175  -17.5919   26.2510 C   0  0  0  0  0  0  0  0  0  0  0  0
   10.5932  -18.6102   25.9324 O   0  0  0  0  0  0  0  0  0  0  0  0
   10.1458  -17.0916   27.5248 O   0  0  0  0  0  0  0  0  0  0  0  0
  2  1  1  1
  2  3  1  0
  4  2  1  0
  4  5  1  6
  6  7  2  0
  6  4  1  0
  8  6  1  0
  9  8  1  0
  9 10  1  1
 11 12  1  0
 11 10  1  0
 12 16  1  0
 13 12  2  0
 14  9  1  0
 14 22  1  0
 15 14  2  0
 17 18  1  0
 18 19  2  0
 20 18  1  0
 21 20  1  1
 21 22  1  0
 21 23  1  0
 23 24  2  0
 23 25  1  0
M  END
$$$$
