VEN.pdb
     RDKit          3D

 25 24  0  0  1  0  0  0  0  0999 V2000
    7.4479  -12.4561   19.9262 C   0  0  0  0  0  0  0  0  0  0  0  0
    8.0560  -13.4965   20.8555 C   0  0  1  0  0  0  0  0  0  0  0  0
    7.0871  -13.7813   21.9706 C   0  0  0  0  0  0  0  0  0  0  0  0
    8.4434  -14.7412   20.0685 C   0  0  2  0  0  0  0  0  0  0  0  0
    7.2174  -15.1731   19.3966 N   0  0  0  0  0  0  0  0  0  0  0  0
    9.1094  -15.7585   20.8534 C   0  0  0  0  0  0  0  0  0  0  0  0
    8.4419  -16.7562   21.2522 O   0  0  0  0  0  0  0  0  0  0  0  0
   10.4811  -15.6679   21.1859 N   0  0  0  0  0  0  0  0  0  0  0  0
   11.1585  -16.7652   21.8980 C   0  0  1  0  0  0  0  0  0  0  0  0
   12.6383  -16.6595   21.6912 C   0  0  0  0  0  0  0  0  0  0  0  0
   13.3541  -17.7544   22.4159 C   0  0  0  0  0  0  0  0  0  0  0  0
   14.8440  -17.6647   22.2167 C   0  0  0  0  0  0  0  0  0  0  0  0
   15.3643  -18.2777   21.2759 O   0  0  0  0  0  0  0  0  0  0  0  0
   10.6787  -16.8064   23.2766 C   0  0  0  0  0  0  0  0  0  0  0  0
   10.4530  -15.6581   23.8242 O   0  0  0  0  0  0  0  0  0  0  0  0
   15.5677  -16.9021   23.0952 O   0  0  0  0  0  0  0  0  0  0  0  0
    7.5186  -19.4488   27.5117 N   0  0  0  0  0  0  0  0  0  0  0  0
    8.0691  -18.2424   26.9422 C   0  0  0  0  0  0  0  0  0  0  0  0
    8.1412  -17.1992   27.6473 O   0  0  0  0  0  0  0  0  0  0  0  0
    8.5148  -18.3322   25.5355 C   0  0  0  0  0  0  0  0  0  0  0  0
    9.9228  -17.8200   25.4352 C   0  0  2  0  0  0  0  0  0  0  0  0
   10.4310  -17.9443   24.0692 N   0  0  0  0  0  0  0  0  0  0  0  0
   10.7783  -18.5747   26.3586 C   0  0  0  0  0  0  0  0  0  0  0  0
   10.6996  -18.5272   27.6182 O   0  0  0  0  0  0  0  0  0  0  0  0
   11.7592  -19.4123   25.8474 O   0  0  0  0  0  0  0  0  0  0  0  0
  2  1  1  6
  2  3  1  0
  4  2  1  0
  4  5  1  1
  6  7  2  0
  6  4  1  0
  8  6  1  0
  9  8  1  0
  9 10  1  1
 11 12  1  0
 11 10  1  0
 12 16  1  0
 13 12  2  0
 14  9  1  0
 14 22  1  0
 15 14  2  0
 17 18  1  0
 18 19  2  0
 20 18  1  0
 21 20  1  6
 21 22  1  0
 21 23  1  0
 23 24  2  0
 23 25  1  0
M  END
$$$$
