VEN.pdb
     RDKit          3D

 25 24  0  0  1  0  0  0  0  0999 V2000
    7.4055  -12.5862   19.0154 C   0  0  0  0  0  0  0  0  0  0  0  0
    8.1259  -13.5450   19.9521 C   0  0  1  0  0  0  0  0  0  0  0  0
    7.4362  -13.5321   21.2892 C   0  0  0  0  0  0  0  0  0  0  0  0
    8.1968  -14.9331   19.3302 C   0  0  2  0  0  0  0  0  0  0  0  0
    6.8063  -15.3642   19.1828 N   0  0  0  0  0  0  0  0  0  0  0  0
    9.0594  -15.8576   20.0342 C   0  0  0  0  0  0  0  0  0  0  0  0
    8.5613  -16.5904   20.9369 O   0  0  0  0  0  0  0  0  0  0  0  0
   10.4391  -15.9635   19.7420 N   0  0  0  0  0  0  0  0  0  0  0  0
   11.2697  -16.9946   20.3878 C   0  0  1  0  0  0  0  0  0  0  0  0
   12.3375  -17.4456   19.4390 C   0  0  0  0  0  0  0  0  0  0  0  0
   13.2810  -18.3899   20.1131 C   0  0  0  0  0  0  0  0  0  0  0  0
   14.3967  -18.8058   19.1912 C   0  0  0  0  0  0  0  0  0  0  0  0
   15.5532  -18.8554   19.6289 O   0  0  0  0  0  0  0  0  0  0  0  0
   11.7009  -16.5089   21.6957 C   0  0  0  0  0  0  0  0  0  0  0  0
   12.0738  -15.2726   21.7374 O   0  0  0  0  0  0  0  0  0  0  0  0
   14.0811  -19.1129   17.8939 O   0  0  0  0  0  0  0  0  0  0  0  0
   12.8595  -15.5209   26.4295 N   0  0  0  0  0  0  0  0  0  0  0  0
   11.6330  -16.2767   26.5141 C   0  0  0  0  0  0  0  0  0  0  0  0
   11.0220  -16.3483   27.6151 O   0  0  0  0  0  0  0  0  0  0  0  0
   11.1818  -16.9257   25.2647 C   0  0  0  0  0  0  0  0  0  0  0  0
   12.1340  -16.5720   24.1588 C   0  0  2  0  0  0  0  0  0  0  0  0
   11.7518  -17.2257   22.9073 N   0  0  0  0  0  0  0  0  0  0  0  0
   13.4915  -16.9780   24.5417 C   0  0  0  0  0  0  0  0  0  0  0  0
   14.1839  -16.4247   25.4415 O   0  0  0  0  0  0  0  0  0  0  0  0
   14.0932  -18.0438   23.8883 O   0  0  0  0  0  0  0  0  0  0  0  0
  2  1  1  6
  2  3  1  0
  4  2  1  0
  4  5  1  1
  6  7  2  0
  6  4  1  0
  8  6  1  0
  9  8  1  0
  9 10  1  6
 11 12  1  0
 11 10  1  0
 12 16  1  0
 13 12  2  0
 14  9  1  0
 14 22  1  0
 15 14  2  0
 17 18  1  0
 18 19  2  0
 20 18  1  0
 21 20  1  1
 21 22  1  0
 21 23  1  0
 23 24  2  0
 23 25  1  0
M  END
$$$$
