VEN.pdb
     RDKit          3D

 25 24  0  0  1  0  0  0  0  0999 V2000
    9.1067  -12.7070   20.5581 C   0  0  0  0  0  0  0  0  0  0  0  0
    8.2363  -13.3585   19.4934 C   0  0  1  0  0  0  0  0  0  0  0  0
    7.6866  -12.2884   18.5899 C   0  0  0  0  0  0  0  0  0  0  0  0
    9.0289  -14.4221   18.7456 C   0  0  2  0  0  0  0  0  0  0  0  0
    8.1138  -14.9473   17.7318 N   0  0  0  0  0  0  0  0  0  0  0  0
    9.6430  -15.4168   19.5989 C   0  0  0  0  0  0  0  0  0  0  0  0
    8.9376  -16.3782   20.0210 O   0  0  0  0  0  0  0  0  0  0  0  0
   11.0050  -15.3434   19.9726 N   0  0  0  0  0  0  0  0  0  0  0  0
   11.6334  -16.4266   20.7485 C   0  0  1  0  0  0  0  0  0  0  0  0
   13.0799  -16.5371   20.3754 C   0  0  0  0  0  0  0  0  0  0  0  0
   13.7464  -17.6259   21.1543 C   0  0  0  0  0  0  0  0  0  0  0  0
   15.1874  -17.7904   20.7492 C   0  0  0  0  0  0  0  0  0  0  0  0
   15.4800  -18.6342   19.8926 O   0  0  0  0  0  0  0  0  0  0  0  0
   11.3214  -16.2423   22.1631 C   0  0  0  0  0  0  0  0  0  0  0  0
   11.6868  -15.1130   22.6734 O   0  0  0  0  0  0  0  0  0  0  0  0
   16.1226  -16.9921   21.3535 O   0  0  0  0  0  0  0  0  0  0  0  0
    7.5434  -16.6495   22.9202 N   0  0  0  0  0  0  0  0  0  0  0  0
    8.1909  -16.1055   24.0897 C   0  0  0  0  0  0  0  0  0  0  0  0
    8.0036  -14.8969   24.3978 O   0  0  0  0  0  0  0  0  0  0  0  0
    9.0477  -17.0387   24.8517 C   0  0  0  0  0  0  0  0  0  0  0  0
   10.4779  -16.8337   24.4429 C   0  0  2  0  0  0  0  0  0  0  0  0
   10.6691  -17.1445   23.0263 N   0  0  0  0  0  0  0  0  0  0  0  0
   11.3425  -17.6890   25.2645 C   0  0  0  0  0  0  0  0  0  0  0  0
   12.0530  -18.6348   24.8220 O   0  0  0  0  0  0  0  0  0  0  0  0
   11.4098  -17.4743   26.6335 O   0  0  0  0  0  0  0  0  0  0  0  0
  2  1  1  1
  2  3  1  0
  4  2  1  0
  4  5  1  6
  6  7  2  0
  6  4  1  0
  8  6  1  0
  9  8  1  0
  9 10  1  1
 11 12  1  0
 11 10  1  0
 12 16  1  0
 13 12  2  0
 14  9  1  0
 14 22  1  0
 15 14  2  0
 17 18  1  0
 18 19  2  0
 20 18  1  0
 21 20  1  1
 21 22  1  0
 21 23  1  0
 23 24  2  0
 23 25  1  0
M  END
$$$$
