VEN.pdb
     RDKit          3D

 25 24  0  0  1  0  0  0  0  0999 V2000
    7.4049  -12.7693   19.6610 C   0  0  0  0  0  0  0  0  0  0  0  0
    8.0754  -13.6499   20.7052 C   0  0  1  0  0  0  0  0  0  0  0  0
    7.0631  -14.0199   21.7550 C   0  0  0  0  0  0  0  0  0  0  0  0
    8.7146  -14.8608   20.0391 C   0  0  2  0  0  0  0  0  0  0  0  0
    7.6216  -15.5467   19.3492 N   0  0  0  0  0  0  0  0  0  0  0  0
    9.4973  -15.6878   20.9324 C   0  0  0  0  0  0  0  0  0  0  0  0
    8.9531  -16.6997   21.4613 O   0  0  0  0  0  0  0  0  0  0  0  0
   10.8490  -15.3963   21.2295 N   0  0  0  0  0  0  0  0  0  0  0  0
   11.6039  -16.2182   22.1912 C   0  0  1  0  0  0  0  0  0  0  0  0
   13.0687  -15.9403   22.0475 C   0  0  0  0  0  0  0  0  0  0  0  0
   13.8504  -16.6611   23.0990 C   0  0  0  0  0  0  0  0  0  0  0  0
   15.3320  -16.4611   22.9183 C   0  0  0  0  0  0  0  0  0  0  0  0
   15.8742  -15.4750   23.4331 O   0  0  0  0  0  0  0  0  0  0  0  0
   11.0206  -16.0535   23.5197 C   0  0  0  0  0  0  0  0  0  0  0  0
   10.4653  -14.9095   23.7482 O   0  0  0  0  0  0  0  0  0  0  0  0
   16.0231  -17.3876   22.1828 O   0  0  0  0  0  0  0  0  0  0  0  0
    6.5255  -16.6368   25.5411 N   0  0  0  0  0  0  0  0  0  0  0  0
    7.4425  -17.7473   25.4476 C   0  0  0  0  0  0  0  0  0  0  0  0
    7.2134  -18.7991   26.1047 O   0  0  0  0  0  0  0  0  0  0  0  0
    8.6111  -17.5527   24.5633 C   0  0  0  0  0  0  0  0  0  0  0  0
    9.7965  -17.1626   25.3985 C   0  0  2  0  0  0  0  0  0  0  0  0
   10.9898  -16.9920   24.5697 N   0  0  0  0  0  0  0  0  0  0  0  0
   10.0344  -18.1969   26.4123 C   0  0  0  0  0  0  0  0  0  0  0  0
   10.3756  -19.3872   26.1633 O   0  0  0  0  0  0  0  0  0  0  0  0
    9.8819  -17.8822   27.7549 O   0  0  0  0  0  0  0  0  0  0  0  0
  2  1  1  6
  2  3  1  0
  4  2  1  0
  4  5  1  1
  6  7  2  0
  6  4  1  0
  8  6  1  0
  9  8  1  0
  9 10  1  1
 11 12  1  0
 11 10  1  0
 12 16  1  0
 13 12  2  0
 14  9  1  0
 14 22  1  0
 15 14  2  0
 17 18  1  0
 18 19  2  0
 20 18  1  0
 21 20  1  6
 21 22  1  0
 21 23  1  0
 23 24  2  0
 23 25  1  0
M  END
$$$$
