VEN.pdb
     RDKit          3D

 25 24  0  0  1  0  0  0  0  0999 V2000
    7.5511  -12.5981   19.5470 C   0  0  0  0  0  0  0  0  0  0  0  0
    8.0148  -13.5516   20.6386 C   0  0  1  0  0  0  0  0  0  0  0  0
    6.8783  -13.7883   21.5956 C   0  0  0  0  0  0  0  0  0  0  0  0
    8.5525  -14.8354   20.0209 C   0  0  2  0  0  0  0  0  0  0  0  0
    7.4587  -15.3610   19.2036 N   0  0  0  0  0  0  0  0  0  0  0  0
    9.1129  -15.7667   20.9766 C   0  0  0  0  0  0  0  0  0  0  0  0
    8.3980  -16.7273   21.3840 O   0  0  0  0  0  0  0  0  0  0  0  0
   10.4330  -15.6323   21.4659 N   0  0  0  0  0  0  0  0  0  0  0  0
   11.0177  -16.6562   22.3491 C   0  0  1  0  0  0  0  0  0  0  0  0
   12.5104  -16.5308   22.3434 C   0  0  0  0  0  0  0  0  0  0  0  0
   13.1309  -17.5469   23.2482 C   0  0  0  0  0  0  0  0  0  0  0  0
   14.6346  -17.4802   23.2023 C   0  0  0  0  0  0  0  0  0  0  0  0
   15.2900  -18.0370   24.0922 O   0  0  0  0  0  0  0  0  0  0  0  0
   10.3487  -16.6050   23.6461 C   0  0  0  0  0  0  0  0  0  0  0  0
   10.1423  -15.4217   24.1220 O   0  0  0  0  0  0  0  0  0  0  0  0
   15.2189  -16.7977   22.1680 O   0  0  0  0  0  0  0  0  0  0  0  0
    6.3515  -17.8087   23.8209 N   0  0  0  0  0  0  0  0  0  0  0  0
    6.9896  -17.1819   24.9535 C   0  0  0  0  0  0  0  0  0  0  0  0
    6.7654  -15.9651   25.1981 O   0  0  0  0  0  0  0  0  0  0  0  0
    7.8818  -18.0448   25.7567 C   0  0  0  0  0  0  0  0  0  0  0  0
    9.2696  -17.4720   25.7299 C   0  0  2  0  0  0  0  0  0  0  0  0
    9.9021  -17.6878   24.4287 N   0  0  0  0  0  0  0  0  0  0  0  0
   10.0717  -18.0995   26.7869 C   0  0  0  0  0  0  0  0  0  0  0  0
   11.1311  -18.7594   26.5939 O   0  0  0  0  0  0  0  0  0  0  0  0
    9.6672  -17.9822   28.1089 O   0  0  0  0  0  0  0  0  0  0  0  0
  2  1  1  6
  2  3  1  0
  4  2  1  0
  4  5  1  1
  6  7  2  0
  6  4  1  0
  8  6  1  0
  9  8  1  0
  9 10  1  1
 11 12  1  0
 11 10  1  0
 12 16  1  0
 13 12  2  0
 14  9  1  0
 14 22  1  0
 15 14  2  0
 17 18  1  0
 18 19  2  0
 20 18  1  0
 21 20  1  6
 21 22  1  0
 21 23  1  0
 23 24  2  0
 23 25  1  0
M  END
$$$$
