VEN.pdb
     RDKit          3D

 25 24  0  0  1  0  0  0  0  0999 V2000
    8.4432  -12.6409   20.7819 C   0  0  0  0  0  0  0  0  0  0  0  0
    7.8039  -13.5542   19.7461 C   0  0  1  0  0  0  0  0  0  0  0  0
    7.1314  -12.7092   18.6985 C   0  0  0  0  0  0  0  0  0  0  0  0
    8.8451  -14.5039   19.1692 C   0  0  2  0  0  0  0  0  0  0  0  0
    8.1379  -15.2858   18.1547 N   0  0  0  0  0  0  0  0  0  0  0  0
    9.5582  -15.2795   20.1615 C   0  0  0  0  0  0  0  0  0  0  0  0
    8.9756  -16.2643   20.7005 O   0  0  0  0  0  0  0  0  0  0  0  0
   10.8835  -14.9673   20.5439 N   0  0  0  0  0  0  0  0  0  0  0  0
   11.5762  -15.7569   21.5768 C   0  0  1  0  0  0  0  0  0  0  0  0
   13.0321  -15.4051   21.5850 C   0  0  0  0  0  0  0  0  0  0  0  0
   13.7675  -16.2163   22.6035 C   0  0  0  0  0  0  0  0  0  0  0  0
   15.2439  -15.9203   22.5823 C   0  0  0  0  0  0  0  0  0  0  0  0
   15.9700  -16.4133   23.4548 O   0  0  0  0  0  0  0  0  0  0  0  0
   10.8520  -15.6304   22.8386 C   0  0  0  0  0  0  0  0  0  0  0  0
   10.1302  -14.5662   22.9644 O   0  0  0  0  0  0  0  0  0  0  0  0
   15.7248  -15.1082   21.5892 O   0  0  0  0  0  0  0  0  0  0  0  0
    7.5381  -16.9947   26.2444 N   0  0  0  0  0  0  0  0  0  0  0  0
    7.2961  -17.2230   24.8401 C   0  0  0  0  0  0  0  0  0  0  0  0
    6.1314  -17.5068   24.4484 O   0  0  0  0  0  0  0  0  0  0  0  0
    8.4706  -17.1031   23.9503 C   0  0  0  0  0  0  0  0  0  0  0  0
    9.6622  -16.6919   24.7663 C   0  0  2  0  0  0  0  0  0  0  0  0
   10.8462  -16.5299   23.9227 N   0  0  0  0  0  0  0  0  0  0  0  0
    9.9159  -17.7065   25.7961 C   0  0  0  0  0  0  0  0  0  0  0  0
    9.2004  -17.8902   26.8205 O   0  0  0  0  0  0  0  0  0  0  0  0
   11.0148  -18.5441   25.6705 O   0  0  0  0  0  0  0  0  0  0  0  0
  2  1  1  1
  2  3  1  0
  4  2  1  0
  4  5  1  6
  6  7  2  0
  6  4  1  0
  8  6  1  0
  9  8  1  0
  9 10  1  1
 11 12  1  0
 11 10  1  0
 12 16  1  0
 13 12  2  0
 14  9  1  0
 14 22  1  0
 15 14  2  0
 17 18  1  0
 18 19  2  0
 20 18  1  0
 21 20  1  6
 21 22  1  0
 21 23  1  0
 23 24  2  0
 23 25  1  0
M  END
$$$$
