VEN.pdb
     RDKit          3D

 25 24  0  0  1  0  0  0  0  0999 V2000
    6.7074  -11.0650   26.4961 C   0  0  0  0  0  0  0  0  0  0  0  0
    7.3368  -12.4120   26.1717 C   0  0  1  0  0  0  0  0  0  0  0  0
    7.8749  -13.0177   27.4394 C   0  0  0  0  0  0  0  0  0  0  0  0
    6.3278  -13.3063   25.4640 C   0  0  2  0  0  0  0  0  0  0  0  0
    5.2226  -13.4686   26.4090 N   0  0  0  0  0  0  0  0  0  0  0  0
    6.8842  -14.5379   24.9460 C   0  0  0  0  0  0  0  0  0  0  0  0
    6.6321  -15.6219   25.5470 O   0  0  0  0  0  0  0  0  0  0  0  0
    7.6995  -14.5624   23.7906 N   0  0  0  0  0  0  0  0  0  0  0  0
    8.3105  -15.8195   23.3254 C   0  0  1  0  0  0  0  0  0  0  0  0
    8.8213  -15.6423   21.9285 C   0  0  0  0  0  0  0  0  0  0  0  0
    9.4682  -16.8981   21.4376 C   0  0  0  0  0  0  0  0  0  0  0  0
    9.9470  -16.7523   20.0173 C   0  0  0  0  0  0  0  0  0  0  0  0
   11.0562  -16.2465   19.8041 O   0  0  0  0  0  0  0  0  0  0  0  0
    9.2621  -16.2870   24.3296 C   0  0  0  0  0  0  0  0  0  0  0  0
    9.9393  -15.3647   24.9297 O   0  0  0  0  0  0  0  0  0  0  0  0
    9.1254  -17.1885   19.0115 O   0  0  0  0  0  0  0  0  0  0  0  0
   11.0770  -18.3351   28.8785 N   0  0  0  0  0  0  0  0  0  0  0  0
   10.7879  -19.2633   27.8119 C   0  0  0  0  0  0  0  0  0  0  0  0
   11.3934  -20.3688   27.7692 O   0  0  0  0  0  0  0  0  0  0  0  0
    9.7759  -18.8266   26.8266 C   0  0  0  0  0  0  0  0  0  0  0  0
   10.4290  -17.9179   25.8253 C   0  0  2  0  0  0  0  0  0  0  0  0
    9.5206  -17.6158   24.7192 N   0  0  0  0  0  0  0  0  0  0  0  0
   11.6461  -18.5586   25.3131 C   0  0  0  0  0  0  0  0  0  0  0  0
   11.7890  -19.0032   24.1396 O   0  0  0  0  0  0  0  0  0  0  0  0
   12.7420  -18.7064   26.1511 O   0  0  0  0  0  0  0  0  0  0  0  0
  2  1  1  1
  2  3  1  0
  4  2  1  0
  4  5  1  1
  6  7  2  0
  6  4  1  0
  8  6  1  0
  9  8  1  0
  9 10  1  6
 11 12  1  0
 11 10  1  0
 12 16  1  0
 13 12  2  0
 14  9  1  0
 14 22  1  0
 15 14  2  0
 17 18  1  0
 18 19  2  0
 20 18  1  0
 21 20  1  1
 21 22  1  0
 21 23  1  0
 23 24  2  0
 23 25  1  0
M  END
$$$$
