VEN.pdb
     RDKit          3D

 25 24  0  0  1  0  0  0  0  0999 V2000
    7.5402  -12.4499   20.0589 C   0  0  0  0  0  0  0  0  0  0  0  0
    8.2529  -13.4628   20.9430 C   0  0  1  0  0  0  0  0  0  0  0  0
    7.6485  -13.4201   22.3201 C   0  0  0  0  0  0  0  0  0  0  0  0
    8.1957  -14.8459   20.3085 C   0  0  2  0  0  0  0  0  0  0  0  0
    6.7723  -15.1704   20.2119 N   0  0  0  0  0  0  0  0  0  0  0  0
    9.0127  -15.8395   20.9719 C   0  0  0  0  0  0  0  0  0  0  0  0
    8.4541  -16.6753   21.7396 O   0  0  0  0  0  0  0  0  0  0  0  0
   10.4134  -15.9010   20.7862 N   0  0  0  0  0  0  0  0  0  0  0  0
   11.1964  -17.0274   21.3233 C   0  0  1  0  0  0  0  0  0  0  0  0
   12.4108  -17.2445   20.4736 C   0  0  0  0  0  0  0  0  0  0  0  0
   13.2243  -18.3863   20.9941 C   0  0  0  0  0  0  0  0  0  0  0  0
   14.4502  -18.6188   20.1510 C   0  0  0  0  0  0  0  0  0  0  0  0
   14.3242  -18.7465   18.9265 O   0  0  0  0  0  0  0  0  0  0  0  0
   11.4106  -16.8200   22.7528 C   0  0  0  0  0  0  0  0  0  0  0  0
   10.9840  -15.6953   23.2243 O   0  0  0  0  0  0  0  0  0  0  0  0
   15.6648  -18.6812   20.7818 O   0  0  0  0  0  0  0  0  0  0  0  0
    9.4770  -17.3947   27.1235 N   0  0  0  0  0  0  0  0  0  0  0  0
    9.5293  -18.5824   26.3054 C   0  0  0  0  0  0  0  0  0  0  0  0
    9.1429  -19.6837   26.7834 O   0  0  0  0  0  0  0  0  0  0  0  0
   10.0492  -18.4040   24.9330 C   0  0  0  0  0  0  0  0  0  0  0  0
   11.4630  -17.9035   25.0071 C   0  0  2  0  0  0  0  0  0  0  0  0
   12.0190  -17.6997   23.6695 N   0  0  0  0  0  0  0  0  0  0  0  0
   12.2803  -18.8724   25.7470 C   0  0  0  0  0  0  0  0  0  0  0  0
   12.6702  -19.9844   25.2925 O   0  0  0  0  0  0  0  0  0  0  0  0
   12.6724  -18.5814   27.0457 O   0  0  0  0  0  0  0  0  0  0  0  0
  2  1  1  6
  2  3  1  0
  4  2  1  0
  4  5  1  1
  6  7  2  0
  6  4  1  0
  8  6  1  0
  9  8  1  0
  9 10  1  6
 11 12  1  0
 11 10  1  0
 12 16  1  0
 13 12  2  0
 14  9  1  0
 14 22  1  0
 15 14  2  0
 17 18  1  0
 18 19  2  0
 20 18  1  0
 21 20  1  6
 21 22  1  0
 21 23  1  0
 23 24  2  0
 23 25  1  0
M  END
$$$$
