VEN.pdb
     RDKit          3D

 25 24  0  0  1  0  0  0  0  0999 V2000
    6.0081  -11.0165   25.7483 C   0  0  0  0  0  0  0  0  0  0  0  0
    6.9896  -12.1792   25.7678 C   0  0  1  0  0  0  0  0  0  0  0  0
    7.6161  -12.2667   27.1330 C   0  0  0  0  0  0  0  0  0  0  0  0
    6.2893  -13.4648   25.3487 C   0  0  2  0  0  0  0  0  0  0  0  0
    5.2724  -13.7048   26.3730 N   0  0  0  0  0  0  0  0  0  0  0  0
    7.1835  -14.5738   25.0934 C   0  0  0  0  0  0  0  0  0  0  0  0
    7.3457  -15.4469   25.9941 O   0  0  0  0  0  0  0  0  0  0  0  0
    7.8786  -14.7074   23.8690 N   0  0  0  0  0  0  0  0  0  0  0  0
    8.7485  -15.8696   23.6187 C   0  0  1  0  0  0  0  0  0  0  0  0
    9.0305  -15.9786   22.1516 C   0  0  0  0  0  0  0  0  0  0  0  0
    9.9039  -17.1584   21.8661 C   0  0  0  0  0  0  0  0  0  0  0  0
   10.2149  -17.2710   20.3970 C   0  0  0  0  0  0  0  0  0  0  0  0
    9.3186  -17.0508   19.5726 O   0  0  0  0  0  0  0  0  0  0  0  0
    9.8985  -15.8062   24.5163 C   0  0  0  0  0  0  0  0  0  0  0  0
   10.1663  -14.6384   24.9997 O   0  0  0  0  0  0  0  0  0  0  0  0
   11.4892  -17.6176   20.0320 O   0  0  0  0  0  0  0  0  0  0  0  0
   11.7161  -15.5207   29.0928 N   0  0  0  0  0  0  0  0  0  0  0  0
   11.1050  -16.7423   28.6270 C   0  0  0  0  0  0  0  0  0  0  0  0
   11.1962  -17.7884   29.3256 O   0  0  0  0  0  0  0  0  0  0  0  0
   10.4027  -16.6637   27.3285 C   0  0  0  0  0  0  0  0  0  0  0  0
   11.3991  -16.8547   26.2215 C   0  0  2  0  0  0  0  0  0  0  0  0
   10.7390  -16.8637   24.9161 N   0  0  0  0  0  0  0  0  0  0  0  0
   12.1157  -18.1187   26.4291 C   0  0  0  0  0  0  0  0  0  0  0  0
   11.7253  -19.2464   26.0156 O   0  0  0  0  0  0  0  0  0  0  0  0
   13.3139  -18.1151   27.1285 O   0  0  0  0  0  0  0  0  0  0  0  0
  2  1  1  1
  2  3  1  0
  4  2  1  0
  4  5  1  1
  6  7  2  0
  6  4  1  0
  8  6  1  0
  9  8  1  0
  9 10  1  6
 11 12  1  0
 11 10  1  0
 12 16  1  0
 13 12  2  0
 14  9  1  0
 14 22  1  0
 15 14  2  0
 17 18  1  0
 18 19  2  0
 20 18  1  0
 21 20  1  1
 21 22  1  0
 21 23  1  0
 23 24  2  0
 23 25  1  0
M  END
$$$$
