VEN.pdb
     RDKit          3D

 25 24  0  0  1  0  0  0  0  0999 V2000
    7.6774  -11.7024   25.0400 C   0  0  0  0  0  0  0  0  0  0  0  0
    6.4957  -12.2728   25.8106 C   0  0  1  0  0  0  0  0  0  0  0  0
    5.4236  -11.2219   25.9092 C   0  0  0  0  0  0  0  0  0  0  0  0
    6.0124  -13.5592   25.1545 C   0  0  2  0  0  0  0  0  0  0  0  0
    4.8624  -13.9920   25.9489 N   0  0  0  0  0  0  0  0  0  0  0  0
    7.0447  -14.5561   24.9669 C   0  0  0  0  0  0  0  0  0  0  0  0
    7.3007  -15.3551   25.9134 O   0  0  0  0  0  0  0  0  0  0  0  0
    7.7726  -14.6607   23.7589 N   0  0  0  0  0  0  0  0  0  0  0  0
    8.7618  -15.7350   23.5652 C   0  0  1  0  0  0  0  0  0  0  0  0
    9.2263  -15.7386   22.1411 C   0  0  0  0  0  0  0  0  0  0  0  0
   10.3111  -16.7481   21.9401 C   0  0  0  0  0  0  0  0  0  0  0  0
   10.0760  -17.5700   20.7004 C   0  0  0  0  0  0  0  0  0  0  0  0
   10.2925  -17.0641   19.5919 O   0  0  0  0  0  0  0  0  0  0  0  0
    9.7861  -15.6319   24.6009 C   0  0  0  0  0  0  0  0  0  0  0  0
   10.1174  -14.4304   24.9414 O   0  0  0  0  0  0  0  0  0  0  0  0
    9.6264  -18.8550   20.8539 O   0  0  0  0  0  0  0  0  0  0  0  0
   11.0594  -14.4778   29.2549 N   0  0  0  0  0  0  0  0  0  0  0  0
   10.6840  -15.8233   28.8923 C   0  0  0  0  0  0  0  0  0  0  0  0
   10.9216  -16.7708   29.6900 O   0  0  0  0  0  0  0  0  0  0  0  0
   10.0338  -15.9840   27.5744 C   0  0  0  0  0  0  0  0  0  0  0  0
   11.0486  -16.4822   26.5862 C   0  0  2  0  0  0  0  0  0  0  0  0
   10.4449  -16.6827   25.2689 N   0  0  0  0  0  0  0  0  0  0  0  0
   11.6183  -17.7442   27.0733 C   0  0  0  0  0  0  0  0  0  0  0  0
   11.2718  -18.8928   26.6786 O   0  0  0  0  0  0  0  0  0  0  0  0
   12.6126  -17.7139   28.0405 O   0  0  0  0  0  0  0  0  0  0  0  0
  2  1  1  6
  2  3  1  0
  4  2  1  0
  4  5  1  1
  6  7  2  0
  6  4  1  0
  8  6  1  0
  9  8  1  0
  9 10  1  6
 11 12  1  0
 11 10  1  0
 12 16  1  0
 13 12  2  0
 14  9  1  0
 14 22  1  0
 15 14  2  0
 17 18  1  0
 18 19  2  0
 20 18  1  0
 21 20  1  1
 21 22  1  0
 21 23  1  0
 23 24  2  0
 23 25  1  0
M  END
$$$$
