VEN.pdb
     RDKit          3D

 25 24  0  0  1  0  0  0  0  0999 V2000
    9.1243  -13.1358   21.0556 C   0  0  0  0  0  0  0  0  0  0  0  0
    7.8320  -13.7059   20.4894 C   0  0  1  0  0  0  0  0  0  0  0  0
    7.0613  -12.5996   19.8217 C   0  0  0  0  0  0  0  0  0  0  0  0
    8.1360  -14.8697   19.5556 C   0  0  2  0  0  0  0  0  0  0  0  0
    6.8337  -15.3335   19.0763 N   0  0  0  0  0  0  0  0  0  0  0  0
    8.9818  -15.8918   20.1339 C   0  0  0  0  0  0  0  0  0  0  0  0
    8.4782  -16.7037   20.9629 O   0  0  0  0  0  0  0  0  0  0  0  0
   10.3510  -16.0071   19.7991 N   0  0  0  0  0  0  0  0  0  0  0  0
   11.1657  -17.1152   20.3270 C   0  0  1  0  0  0  0  0  0  0  0  0
   12.3518  -17.3335   19.4386 C   0  0  0  0  0  0  0  0  0  0  0  0
   13.2148  -18.4342   19.9678 C   0  0  0  0  0  0  0  0  0  0  0  0
   14.4192  -18.6593   19.0925 C   0  0  0  0  0  0  0  0  0  0  0  0
   14.6674  -17.8506   18.1892 O   0  0  0  0  0  0  0  0  0  0  0  0
   11.4278  -16.8807   21.7444 C   0  0  0  0  0  0  0  0  0  0  0  0
   11.6881  -15.6577   22.0696 O   0  0  0  0  0  0  0  0  0  0  0  0
   15.1957  -19.7618   19.3346 O   0  0  0  0  0  0  0  0  0  0  0  0
   10.2312  -18.0730   27.4994 N   0  0  0  0  0  0  0  0  0  0  0  0
   10.8328  -17.3043   26.4364 C   0  0  0  0  0  0  0  0  0  0  0  0
   11.5693  -16.3209   26.7210 O   0  0  0  0  0  0  0  0  0  0  0  0
   10.5245  -17.7464   25.0598 C   0  0  0  0  0  0  0  0  0  0  0  0
   11.6922  -17.4279   24.1711 C   0  0  2  0  0  0  0  0  0  0  0  0
   11.4246  -17.8256   22.7891 N   0  0  0  0  0  0  0  0  0  0  0  0
   12.8837  -18.1242   24.6709 C   0  0  0  0  0  0  0  0  0  0  0  0
   13.4096  -17.9336   25.8033 O   0  0  0  0  0  0  0  0  0  0  0  0
   13.5077  -19.0680   23.8679 O   0  0  0  0  0  0  0  0  0  0  0  0
  2  1  1  6
  2  3  1  0
  4  2  1  0
  4  5  1  1
  6  7  2  0
  6  4  1  0
  8  6  1  0
  9  8  1  0
  9 10  1  6
 11 12  1  0
 11 10  1  0
 12 16  1  0
 13 12  2  0
 14  9  1  0
 14 22  1  0
 15 14  2  0
 17 18  1  0
 18 19  2  0
 20 18  1  0
 21 20  1  1
 21 22  1  0
 21 23  1  0
 23 24  2  0
 23 25  1  0
M  END
$$$$
