CRR.pdb
     RDKit          3D

 29 28  0  0  1  0  0  0  0  0999 V2000
    7.3476  -13.7349   18.0532 N   0  0  0  0  0  0  0  0  0  0  0  0
    8.7312  -13.6951   18.4416 C   0  0  1  0  0  0  0  0  0  0  0  0
    9.0589  -12.4626   19.2541 C   0  0  0  0  0  0  0  0  0  0  0  0
    8.0976  -12.4241   20.7899 S   0  0  0  0  0  0  0  0  0  0  0  0
    9.1325  -14.9117   19.1596 C   0  0  0  0  0  0  0  0  0  0  0  0
    8.2395  -15.5762   19.7797 O   0  0  0  0  0  0  0  0  0  0  0  0
   11.8811  -19.1193   15.8256 N   0  0  0  0  0  0  0  0  0  0  0  0
   12.6169  -20.2161   16.3537 C   0  0  0  0  0  0  0  0  0  0  0  0
   12.5734  -21.4031   15.8774 N   0  0  0  0  0  0  0  0  0  0  0  0
   13.4550  -19.9707   17.4869 N   0  0  0  0  0  0  0  0  0  0  0  0
   13.5291  -18.6766   18.1112 C   0  0  0  0  0  0  0  0  0  0  0  0
   12.1761  -18.3558   18.7762 C   0  0  0  0  0  0  0  0  0  0  0  0
   12.1956  -16.9814   19.3434 C   0  0  0  0  0  0  0  0  0  0  0  0
   10.8895  -16.5250   19.9361 C   0  0  2  0  0  0  0  0  0  0  0  0
   10.4681  -15.3409   19.1688 N   0  0  0  0  0  0  0  0  0  0  0  0
   10.9967  -16.0934   21.3567 C   0  0  0  0  0  0  0  0  0  0  0  0
   11.6810  -15.0585   21.6652 O   0  0  0  0  0  0  0  0  0  0  0  0
   13.1692  -22.1671   16.2759 N   0  0  0  0  0  0  0  0  0  0  0  0
    5.0554  -13.1797   26.2991 C   0  0  0  0  0  0  0  0  0  0  0  0
    6.2859  -12.6418   26.7035 N   0  0  0  0  0  0  0  0  0  0  0  0
    6.3906  -11.4679   27.2652 N   0  0  0  0  0  0  0  0  0  0  0  0
    7.4719  -13.3915   26.4999 C   0  0  0  0  0  0  0  0  0  0  0  0
    7.4760  -14.6382   25.7603 C   0  0  0  0  0  0  0  0  0  0  0  0
    8.8675  -15.2061   25.5673 C   0  0  0  0  0  0  0  0  0  0  0  0
    8.9354  -15.7749   24.1804 C   0  0  2  0  0  0  0  0  0  0  0  0
   10.2510  -16.3206   23.7855 N   0  0  0  0  0  0  0  0  0  0  0  0
   10.3627  -16.7792   22.4256 C   0  0  0  0  0  0  0  0  0  0  0  0
   10.9147  -17.1811   24.7923 O   0  0  0  0  0  0  0  0  0  0  0  0
   10.8737  -18.4187   24.6514 O   0  0  0  0  0  0  0  0  0  0  0  0
  2  1  1  1
  2  5  1  0
  2  3  1  0
  4  3  1  0
  5  6  2  0
  7  8  1  0
  8  9  2  0
  8 10  1  0
 10 11  1  0
 11 12  1  0
 12 13  1  0
 14 13  1  6
 15 14  1  0
 15  5  1  0
 16 14  1  0
 17 16  2  0
 18 19  1  0
 19 20  2  0
 19 21  1  0
 21 22  1  0
 22 23  1  0
 23 24  1  0
 25 24  1  6
 25 27  1  0
 25 26  1  0
 26 16  1  0
 27 29  1  0
 28 27  2  0
M  END
$$$$
