CRR.pdb
     RDKit          3D

 29 28  0  0  1  0  0  0  0  0999 V2000
    7.0913  -20.3368   19.3611 N   0  0  0  0  0  0  0  0  0  0  0  0
    7.0696  -19.6963   20.6480 C   0  0  1  0  0  0  0  0  0  0  0  0
    7.0814  -20.6967   21.7817 C   0  0  0  0  0  0  0  0  0  0  0  0
    8.7616  -21.2967   22.0995 S   0  0  0  0  0  0  0  0  0  0  0  0
    8.1662  -18.7308   20.7965 C   0  0  0  0  0  0  0  0  0  0  0  0
    9.1357  -18.7777   19.9710 O   0  0  0  0  0  0  0  0  0  0  0  0
    8.1159  -13.1071   17.8368 N   0  0  0  0  0  0  0  0  0  0  0  0
    8.6493  -12.7004   19.0911 C   0  0  0  0  0  0  0  0  0  0  0  0
    8.9574  -11.4924   19.3802 N   0  0  0  0  0  0  0  0  0  0  0  0
    8.8517  -13.7083   20.0860 N   0  0  0  0  0  0  0  0  0  0  0  0
    7.9254  -14.7942   20.2669 C   0  0  0  0  0  0  0  0  0  0  0  0
    7.4879  -14.8473   21.7439 C   0  0  0  0  0  0  0  0  0  0  0  0
    8.5232  -15.5326   22.5622 C   0  0  0  0  0  0  0  0  0  0  0  0
    9.1750  -16.7136   21.8946 C   0  0  2  0  0  0  0  0  0  0  0  0
    8.1557  -17.7740   21.8223 N   0  0  0  0  0  0  0  0  0  0  0  0
   10.3191  -17.2772   22.6623 C   0  0  0  0  0  0  0  0  0  0  0  0
   10.1266  -17.8030   23.8115 O   0  0  0  0  0  0  0  0  0  0  0  0
    9.4504  -11.2602   20.2750 N   0  0  0  0  0  0  0  0  0  0  0  0
   16.5838  -17.2293   17.8370 C   0  0  0  0  0  0  0  0  0  0  0  0
   16.7704  -18.4097   18.5710 N   0  0  0  0  0  0  0  0  0  0  0  0
   17.8528  -19.1337   18.4769 N   0  0  0  0  0  0  0  0  0  0  0  0
   15.7509  -18.8469   19.4541 C   0  0  0  0  0  0  0  0  0  0  0  0
   14.5337  -18.0869   19.6593 C   0  0  0  0  0  0  0  0  0  0  0  0
   13.6080  -18.7183   20.6793 C   0  0  0  0  0  0  0  0  0  0  0  0
   13.9619  -18.1518   22.0229 C   0  0  2  0  0  0  0  0  0  0  0  0
   12.8123  -17.7747   22.8719 N   0  0  0  0  0  0  0  0  0  0  0  0
   11.6545  -17.2707   22.1808 C   0  0  0  0  0  0  0  0  0  0  0  0
   13.1500  -17.0641   24.1271 O   0  0  0  0  0  0  0  0  0  0  0  0
   14.0864  -17.4905   24.8303 O   0  0  0  0  0  0  0  0  0  0  0  0
  2  1  1  6
  2  5  1  0
  2  3  1  0
  4  3  1  0
  5  6  2  0
  7  8  1  0
  8  9  2  0
  8 10  1  0
 10 11  1  0
 11 12  1  0
 12 13  1  0
 14 13  1  1
 15 14  1  0
 15  5  1  0
 16 14  1  0
 17 16  2  0
 18 19  1  0
 19 20  2  0
 19 21  1  0
 21 22  1  0
 22 23  1  0
 23 24  1  0
 25 24  1  6
 25 27  1  0
 25 26  1  0
 26 16  1  0
 27 29  1  0
 28 27  2  0
M  END
$$$$
