CRR.pdb
     RDKit          3D

 29 28  0  0  1  0  0  0  0  0999 V2000
    6.2654  -13.6898   18.6349 N   0  0  0  0  0  0  0  0  0  0  0  0
    7.6719  -13.5982   18.9179 C   0  0  1  0  0  0  0  0  0  0  0  0
    7.9778  -12.5282   19.9416 C   0  0  0  0  0  0  0  0  0  0  0  0
    7.6321  -10.8778   19.2774 S   0  0  0  0  0  0  0  0  0  0  0  0
    8.2307  -14.8906   19.3354 C   0  0  0  0  0  0  0  0  0  0  0  0
    7.4440  -15.7655   19.8244 O   0  0  0  0  0  0  0  0  0  0  0  0
   14.3568  -18.9350   19.3000 N   0  0  0  0  0  0  0  0  0  0  0  0
   13.9650  -20.1194   18.6168 C   0  0  0  0  0  0  0  0  0  0  0  0
   14.4376  -21.2815   18.8700 N   0  0  0  0  0  0  0  0  0  0  0  0
   12.9825  -19.9974   17.5841 N   0  0  0  0  0  0  0  0  0  0  0  0
   12.2935  -18.7597   17.3333 C   0  0  0  0  0  0  0  0  0  0  0  0
   11.6680  -18.2517   18.6472 C   0  0  0  0  0  0  0  0  0  0  0  0
   10.9155  -16.9923   18.4049 C   0  0  0  0  0  0  0  0  0  0  0  0
   10.1647  -16.4663   19.5986 C   0  0  2  0  0  0  0  0  0  0  0  0
    9.6001  -15.1651   19.2029 N   0  0  0  0  0  0  0  0  0  0  0  0
   11.0296  -16.2105   20.7828 C   0  0  0  0  0  0  0  0  0  0  0  0
   11.9903  -15.3703   20.7090 O   0  0  0  0  0  0  0  0  0  0  0  0
   14.1299  -22.1205   18.3231 N   0  0  0  0  0  0  0  0  0  0  0  0
   10.1806  -18.2962   29.6879 C   0  0  0  0  0  0  0  0  0  0  0  0
   10.9808  -17.1723   29.4356 N   0  0  0  0  0  0  0  0  0  0  0  0
   11.1614  -16.2248   30.3155 N   0  0  0  0  0  0  0  0  0  0  0  0
   11.6251  -17.0466   28.1789 C   0  0  0  0  0  0  0  0  0  0  0  0
   10.8818  -16.9970   26.9354 C   0  0  0  0  0  0  0  0  0  0  0  0
   11.7542  -16.6799   25.7379 C   0  0  0  0  0  0  0  0  0  0  0  0
   10.9318  -16.9134   24.5048 C   0  0  2  0  0  0  0  0  0  0  0  0
   11.6222  -16.6464   23.2254 N   0  0  0  0  0  0  0  0  0  0  0  0
   10.8462  -16.8597   22.0319 C   0  0  0  0  0  0  0  0  0  0  0  0
   13.0276  -17.1083   23.1486 O   0  0  0  0  0  0  0  0  0  0  0  0
   13.9214  -16.4153   23.6720 O   0  0  0  0  0  0  0  0  0  0  0  0
  2  1  1  1
  2  5  1  0
  2  3  1  0
  4  3  1  0
  5  6  2  0
  7  8  1  0
  8  9  2  0
  8 10  1  0
 10 11  1  0
 11 12  1  0
 12 13  1  0
 14 13  1  6
 15 14  1  0
 15  5  1  0
 16 14  1  0
 17 16  2  0
 18 19  1  0
 19 20  2  0
 19 21  1  0
 21 22  1  0
 22 23  1  0
 23 24  1  0
 25 24  1  1
 25 27  1  0
 25 26  1  0
 26 16  1  0
 27 29  1  0
 28 27  2  0
M  END
$$$$
