CRR.pdb
     RDKit          3D

 29 28  0  0  1  0  0  0  0  0999 V2000
    7.5576  -13.2868   18.4781 N   0  0  0  0  0  0  0  0  0  0  0  0
    8.5695  -13.5069   19.4753 C   0  0  1  0  0  0  0  0  0  0  0  0
    8.5276  -12.4628   20.5683 C   0  0  0  0  0  0  0  0  0  0  0  0
    6.9806  -12.5678   21.5064 S   0  0  0  0  0  0  0  0  0  0  0  0
    8.4906  -14.8580   20.0452 C   0  0  0  0  0  0  0  0  0  0  0  0
    7.4162  -15.5245   19.8873 O   0  0  0  0  0  0  0  0  0  0  0  0
   10.7788  -18.8795   16.5526 N   0  0  0  0  0  0  0  0  0  0  0  0
   12.0159  -18.1881   16.6746 C   0  0  0  0  0  0  0  0  0  0  0  0
   12.5985  -17.5869   15.7067 N   0  0  0  0  0  0  0  0  0  0  0  0
   12.6421  -18.1674   17.9607 N   0  0  0  0  0  0  0  0  0  0  0  0
   12.0480  -18.8048   19.1055 C   0  0  0  0  0  0  0  0  0  0  0  0
   10.7184  -18.1026   19.4443 C   0  0  0  0  0  0  0  0  0  0  0  0
   10.8046  -17.4561   20.7805 C   0  0  0  0  0  0  0  0  0  0  0  0
    9.5337  -16.7978   21.2460 C   0  0  2  0  0  0  0  0  0  0  0  0
    9.5696  -15.4116   20.7503 N   0  0  0  0  0  0  0  0  0  0  0  0
    9.4118  -16.7152   22.7273 C   0  0  0  0  0  0  0  0  0  0  0  0
   10.0941  -15.8551   23.3824 O   0  0  0  0  0  0  0  0  0  0  0  0
   13.5203  -17.1084   15.8447 N   0  0  0  0  0  0  0  0  0  0  0  0
    8.9224  -21.4059   28.5469 C   0  0  0  0  0  0  0  0  0  0  0  0
    7.9271  -20.6070   29.1285 N   0  0  0  0  0  0  0  0  0  0  0  0
    8.1231  -19.9247   30.2243 N   0  0  0  0  0  0  0  0  0  0  0  0
    6.6522  -20.5282   28.5132 C   0  0  0  0  0  0  0  0  0  0  0  0
    6.4343  -19.7836   27.2887 C   0  0  0  0  0  0  0  0  0  0  0  0
    7.6171  -18.9175   26.9055 C   0  0  0  0  0  0  0  0  0  0  0  0
    7.4328  -18.5084   25.4737 C   0  0  1  0  0  0  0  0  0  0  0  0
    8.5034  -17.6538   24.9184 N   0  0  0  0  0  0  0  0  0  0  0  0
    8.5541  -17.5568   23.4831 C   0  0  0  0  0  0  0  0  0  0  0  0
    9.8217  -17.7663   25.5847 O   0  0  0  0  0  0  0  0  0  0  0  0
   10.7124  -18.4551   25.0506 O   0  0  0  0  0  0  0  0  0  0  0  0
  2  1  1  6
  2  5  1  0
  2  3  1  0
  4  3  1  0
  5  6  2  0
  7  8  1  0
  8  9  2  0
  8 10  1  0
 10 11  1  0
 11 12  1  0
 12 13  1  0
 14 13  1  1
 15 14  1  0
 15  5  1  0
 16 14  1  0
 17 16  2  0
 18 19  1  0
 19 20  2  0
 19 21  1  0
 21 22  1  0
 22 23  1  0
 23 24  1  0
 25 24  1  1
 25 27  1  0
 25 26  1  0
 26 16  1  0
 27 29  1  0
 28 27  2  0
M  END
$$$$
