CRR.pdb
     RDKit          3D

 29 28  0  0  1  0  0  0  0  0999 V2000
    7.4880  -13.0973   18.0822 N   0  0  0  0  0  0  0  0  0  0  0  0
    8.8088  -13.0648   18.6490 C   0  0  1  0  0  0  0  0  0  0  0  0
    8.8423  -12.3336   19.9722 C   0  0  0  0  0  0  0  0  0  0  0  0
    7.7302  -13.1132   21.1720 S   0  0  0  0  0  0  0  0  0  0  0  0
    9.3780  -14.4116   18.7858 C   0  0  0  0  0  0  0  0  0  0  0  0
    8.5857  -15.4092   18.8060 O   0  0  0  0  0  0  0  0  0  0  0  0
   15.8262  -13.0028   18.5028 N   0  0  0  0  0  0  0  0  0  0  0  0
   16.0152  -13.7585   17.3127 C   0  0  0  0  0  0  0  0  0  0  0  0
   16.2605  -13.2418   16.1679 N   0  0  0  0  0  0  0  0  0  0  0  0
   15.9238  -15.1830   17.4080 N   0  0  0  0  0  0  0  0  0  0  0  0
   14.6903  -15.8831   17.1669 C   0  0  0  0  0  0  0  0  0  0  0  0
   13.7218  -15.6224   18.3373 C   0  0  0  0  0  0  0  0  0  0  0  0
   12.3669  -16.1388   18.0077 C   0  0  0  0  0  0  0  0  0  0  0  0
   11.3383  -15.9471   19.0897 C   0  0  2  0  0  0  0  0  0  0  0  0
   10.7632  -14.6057   18.8932 N   0  0  0  0  0  0  0  0  0  0  0  0
   11.9074  -15.9669   20.4650 C   0  0  0  0  0  0  0  0  0  0  0  0
   12.2348  -14.8741   21.0421 O   0  0  0  0  0  0  0  0  0  0  0  0
   16.3597  -13.8417   15.3147 N   0  0  0  0  0  0  0  0  0  0  0  0
   13.3317  -20.9046   28.5954 C   0  0  0  0  0  0  0  0  0  0  0  0
   12.3123  -20.5764   27.6897 N   0  0  0  0  0  0  0  0  0  0  0  0
   11.0481  -20.5964   28.0151 N   0  0  0  0  0  0  0  0  0  0  0  0
   12.6537  -20.2067   26.3642 C   0  0  0  0  0  0  0  0  0  0  0  0
   11.7370  -19.4793   25.5087 C   0  0  0  0  0  0  0  0  0  0  0  0
   12.3763  -18.2763   24.8455 C   0  0  0  0  0  0  0  0  0  0  0  0
   11.9238  -18.2549   23.4150 C   0  0  2  0  0  0  0  0  0  0  0  0
   12.5950  -17.2574   22.5553 N   0  0  0  0  0  0  0  0  0  0  0  0
   12.1127  -17.1625   21.2023 C   0  0  0  0  0  0  0  0  0  0  0  0
   14.0667  -17.1734   22.7021 O   0  0  0  0  0  0  0  0  0  0  0  0
   14.7905  -17.8081   21.9107 O   0  0  0  0  0  0  0  0  0  0  0  0
  2  1  1  1
  2  5  1  0
  2  3  1  0
  4  3  1  0
  5  6  2  0
  7  8  1  0
  8  9  2  0
  8 10  1  0
 10 11  1  0
 11 12  1  0
 12 13  1  0
 14 13  1  6
 15 14  1  0
 15  5  1  0
 16 14  1  0
 17 16  2  0
 18 19  1  0
 19 20  2  0
 19 21  1  0
 21 22  1  0
 22 23  1  0
 23 24  1  0
 25 24  1  1
 25 27  1  0
 25 26  1  0
 26 16  1  0
 27 29  1  0
 28 27  2  0
M  END
$$$$
