CRR.pdb
     RDKit          3D

 29 28  0  0  1  0  0  0  0  0999 V2000
    4.9710  -13.1128   26.7662 N   0  0  0  0  0  0  0  0  0  0  0  0
    6.2963  -12.8496   26.2751 C   0  0  1  0  0  0  0  0  0  0  0  0
    7.3151  -12.7900   27.3910 C   0  0  0  0  0  0  0  0  0  0  0  0
    8.3707  -11.3260   27.2276 S   0  0  0  0  0  0  0  0  0  0  0  0
    6.7033  -13.8218   25.2524 C   0  0  0  0  0  0  0  0  0  0  0  0
    6.4033  -15.0482   25.4234 O   0  0  0  0  0  0  0  0  0  0  0  0
    7.5361  -15.3049   16.3351 N   0  0  0  0  0  0  0  0  0  0  0  0
    7.7607  -14.0966   17.0513 C   0  0  0  0  0  0  0  0  0  0  0  0
    7.4095  -12.9397   16.6315 N   0  0  0  0  0  0  0  0  0  0  0  0
    8.4203  -14.1868   18.3175 N   0  0  0  0  0  0  0  0  0  0  0  0
    7.6989  -14.4572   19.5325 C   0  0  0  0  0  0  0  0  0  0  0  0
    8.6799  -14.4332   20.7212 C   0  0  0  0  0  0  0  0  0  0  0  0
    8.1159  -13.6277   21.8365 C   0  0  0  0  0  0  0  0  0  0  0  0
    7.8739  -14.3944   23.1089 C   0  0  2  0  0  0  0  0  0  0  0  0
    7.4079  -13.4184   24.1083 N   0  0  0  0  0  0  0  0  0  0  0  0
    9.1012  -15.0225   23.6703 C   0  0  0  0  0  0  0  0  0  0  0  0
   10.0636  -14.2930   24.0898 O   0  0  0  0  0  0  0  0  0  0  0  0
    7.6042  -12.0785   17.1955 N   0  0  0  0  0  0  0  0  0  0  0  0
   12.0409  -23.7273   23.1621 C   0  0  0  0  0  0  0  0  0  0  0  0
   11.1775  -22.8948   23.8890 N   0  0  0  0  0  0  0  0  0  0  0  0
   10.1521  -23.3534   24.5546 N   0  0  0  0  0  0  0  0  0  0  0  0
   11.4151  -21.4972   23.9106 C   0  0  0  0  0  0  0  0  0  0  0  0
   11.2541  -20.7085   25.1161 C   0  0  0  0  0  0  0  0  0  0  0  0
   11.5878  -19.2445   24.9131 C   0  0  0  0  0  0  0  0  0  0  0  0
   10.3542  -18.5676   24.3919 C   0  0  2  0  0  0  0  0  0  0  0  0
   10.4764  -17.1103   24.1776 N   0  0  0  0  0  0  0  0  0  0  0  0
    9.2744  -16.4275   23.7761 C   0  0  0  0  0  0  0  0  0  0  0  0
   11.7087  -16.6667   23.4854 O   0  0  0  0  0  0  0  0  0  0  0  0
   12.7169  -16.3897   24.1635 O   0  0  0  0  0  0  0  0  0  0  0  0
  2  1  1  1
  2  5  1  0
  2  3  1  0
  4  3  1  0
  5  6  2  0
  7  8  1  0
  8  9  2  0
  8 10  1  0
 10 11  1  0
 11 12  1  0
 12 13  1  0
 14 13  1  6
 15 14  1  0
 15  5  1  0
 16 14  1  0
 17 16  2  0
 18 19  1  0
 19 20  2  0
 19 21  1  0
 21 22  1  0
 22 23  1  0
 23 24  1  0
 25 24  1  1
 25 27  1  0
 25 26  1  0
 26 16  1  0
 27 29  1  0
 28 27  2  0
M  END
$$$$
