CRR.pdb
     RDKit          3D

 29 28  0  0  1  0  0  0  0  0999 V2000
    7.0437  -14.3583   18.7275 N   0  0  0  0  0  0  0  0  0  0  0  0
    8.3339  -14.3678   19.3615 C   0  0  1  0  0  0  0  0  0  0  0  0
    8.5786  -13.1152   20.1724 C   0  0  0  0  0  0  0  0  0  0  0  0
    8.1632  -11.6326   19.2166 S   0  0  0  0  0  0  0  0  0  0  0  0
    8.5282  -15.5666   20.1872 C   0  0  0  0  0  0  0  0  0  0  0  0
    7.8007  -16.5878   19.9602 O   0  0  0  0  0  0  0  0  0  0  0  0
   12.6835  -20.9054   17.0192 N   0  0  0  0  0  0  0  0  0  0  0  0
   11.2821  -21.0984   17.1677 C   0  0  0  0  0  0  0  0  0  0  0  0
   10.6124  -21.9923   16.5430 N   0  0  0  0  0  0  0  0  0  0  0  0
   10.5843  -20.2370   18.0719 N   0  0  0  0  0  0  0  0  0  0  0  0
   11.2552  -19.1883   18.7929 C   0  0  0  0  0  0  0  0  0  0  0  0
   10.2302  -18.4340   19.6625 C   0  0  0  0  0  0  0  0  0  0  0  0
   10.9061  -17.3616   20.4396 C   0  0  0  0  0  0  0  0  0  0  0  0
   10.1288  -16.8562   21.6253 C   0  0  2  0  0  0  0  0  0  0  0  0
    9.4913  -15.5964   21.2068 N   0  0  0  0  0  0  0  0  0  0  0  0
   10.9797  -16.5301   22.8023 C   0  0  0  0  0  0  0  0  0  0  0  0
   11.9039  -15.6522   22.7050 O   0  0  0  0  0  0  0  0  0  0  0  0
    9.5834  -22.1067   16.7034 N   0  0  0  0  0  0  0  0  0  0  0  0
    4.9218  -12.3152   25.5793 C   0  0  0  0  0  0  0  0  0  0  0  0
    5.9445  -12.1965   26.5316 N   0  0  0  0  0  0  0  0  0  0  0  0
    6.1386  -11.1070   27.2243 N   0  0  0  0  0  0  0  0  0  0  0  0
    6.8102  -13.2956   26.7616 C   0  0  0  0  0  0  0  0  0  0  0  0
    7.5252  -13.9497   25.6835 C   0  0  0  0  0  0  0  0  0  0  0  0
    8.2957  -15.1714   26.1415 C   0  0  0  0  0  0  0  0  0  0  0  0
    8.9645  -15.7626   24.9353 C   0  0  2  0  0  0  0  0  0  0  0  0
   10.1572  -16.5890   25.2163 N   0  0  0  0  0  0  0  0  0  0  0  0
   10.8216  -17.1504   24.0693 C   0  0  0  0  0  0  0  0  0  0  0  0
   10.0461  -17.4971   26.3814 O   0  0  0  0  0  0  0  0  0  0  0  0
    9.7420  -18.6905   26.1911 O   0  0  0  0  0  0  0  0  0  0  0  0
  2  1  1  1
  2  5  1  0
  2  3  1  0
  4  3  1  0
  5  6  2  0
  7  8  1  0
  8  9  2  0
  8 10  1  0
 10 11  1  0
 11 12  1  0
 12 13  1  0
 14 13  1  6
 15 14  1  0
 15  5  1  0
 16 14  1  0
 17 16  2  0
 18 19  1  0
 19 20  2  0
 19 21  1  0
 21 22  1  0
 22 23  1  0
 23 24  1  0
 25 24  1  6
 25 27  1  0
 25 26  1  0
 26 16  1  0
 27 29  1  0
 28 27  2  0
M  END
$$$$
