CRR.pdb
     RDKit          3D

 29 28  0  0  1  0  0  0  0  0999 V2000
    5.7784  -13.6579   26.7544 N   0  0  0  0  0  0  0  0  0  0  0  0
    6.4056  -13.0022   25.6394 C   0  0  1  0  0  0  0  0  0  0  0  0
    7.4728  -12.0259   26.0803 C   0  0  0  0  0  0  0  0  0  0  0  0
    7.2291  -11.5356   27.8078 S   0  0  0  0  0  0  0  0  0  0  0  0
    6.9507  -13.9660   24.6746 C   0  0  0  0  0  0  0  0  0  0  0  0
    7.1965  -15.1520   25.0703 O   0  0  0  0  0  0  0  0  0  0  0  0
    7.5874  -13.1805   15.8279 N   0  0  0  0  0  0  0  0  0  0  0  0
    8.2232  -14.4245   16.0954 C   0  0  0  0  0  0  0  0  0  0  0  0
    8.6864  -15.2011   15.1898 N   0  0  0  0  0  0  0  0  0  0  0  0
    8.3491  -14.8266   17.4625 N   0  0  0  0  0  0  0  0  0  0  0  0
    7.8677  -14.0075   18.5429 C   0  0  0  0  0  0  0  0  0  0  0  0
    8.1055  -14.7384   19.8789 C   0  0  0  0  0  0  0  0  0  0  0  0
    7.6029  -13.9159   21.0111 C   0  0  0  0  0  0  0  0  0  0  0  0
    7.7210  -14.5653   22.3638 C   0  0  2  0  0  0  0  0  0  0  0  0
    7.1993  -13.5980   23.3439 N   0  0  0  0  0  0  0  0  0  0  0  0
    9.1241  -14.8597   22.7644 C   0  0  0  0  0  0  0  0  0  0  0  0
    9.8819  -13.9227   23.1912 O   0  0  0  0  0  0  0  0  0  0  0  0
    9.2245  -16.0640   15.4418 N   0  0  0  0  0  0  0  0  0  0  0  0
    9.0243  -17.1614   28.3851 C   0  0  0  0  0  0  0  0  0  0  0  0
   10.2881  -16.6238   28.6695 N   0  0  0  0  0  0  0  0  0  0  0  0
   10.4611  -15.6358   29.5053 N   0  0  0  0  0  0  0  0  0  0  0  0
   11.4325  -17.1646   28.0306 C   0  0  0  0  0  0  0  0  0  0  0  0
   11.3725  -17.7338   26.6988 C   0  0  0  0  0  0  0  0  0  0  0  0
   11.2750  -16.6832   25.6113 C   0  0  0  0  0  0  0  0  0  0  0  0
   11.1162  -17.4003   24.3028 C   0  0  2  0  0  0  0  0  0  0  0  0
   11.0214  -16.5290   23.1127 N   0  0  0  0  0  0  0  0  0  0  0  0
    9.6914  -16.1596   22.7041 C   0  0  0  0  0  0  0  0  0  0  0  0
   11.9477  -16.8573   22.0043 O   0  0  0  0  0  0  0  0  0  0  0  0
   11.4859  -17.3449   20.9545 O   0  0  0  0  0  0  0  0  0  0  0  0
  2  1  1  1
  2  5  1  0
  2  3  1  0
  4  3  1  0
  5  6  2  0
  7  8  1  0
  8  9  2  0
  8 10  1  0
 10 11  1  0
 11 12  1  0
 12 13  1  0
 14 13  1  6
 15 14  1  0
 15  5  1  0
 16 14  1  0
 17 16  2  0
 18 19  1  0
 19 20  2  0
 19 21  1  0
 21 22  1  0
 22 23  1  0
 23 24  1  0
 25 24  1  1
 25 27  1  0
 25 26  1  0
 26 16  1  0
 27 29  1  0
 28 27  2  0
M  END
$$$$
