CRR.pdb
     RDKit          3D

 29 28  0  0  1  0  0  0  0  0999 V2000
    4.9954  -12.6055   26.7456 N   0  0  0  0  0  0  0  0  0  0  0  0
    6.3648  -12.5446   26.3123 C   0  0  1  0  0  0  0  0  0  0  0  0
    7.3152  -12.2999   27.4628 C   0  0  0  0  0  0  0  0  0  0  0  0
    9.0389  -12.4076   26.9139 S   0  0  0  0  0  0  0  0  0  0  0  0
    6.7551  -13.7460   25.5634 C   0  0  0  0  0  0  0  0  0  0  0  0
    6.3030  -14.8750   25.9435 O   0  0  0  0  0  0  0  0  0  0  0  0
    7.4968  -15.2493   17.1396 N   0  0  0  0  0  0  0  0  0  0  0  0
    7.9342  -14.0495   17.7660 C   0  0  0  0  0  0  0  0  0  0  0  0
    8.3243  -13.0104   17.1289 N   0  0  0  0  0  0  0  0  0  0  0  0
    7.9362  -14.0084   19.1960 N   0  0  0  0  0  0  0  0  0  0  0  0
    8.8279  -14.8225   19.9783 C   0  0  0  0  0  0  0  0  0  0  0  0
    8.0525  -15.4288   21.1645 C   0  0  0  0  0  0  0  0  0  0  0  0
    7.7647  -14.3811   22.1795 C   0  0  0  0  0  0  0  0  0  0  0  0
    7.8874  -14.8368   23.6088 C   0  0  2  0  0  0  0  0  0  0  0  0
    7.6073  -13.6627   24.4522 N   0  0  0  0  0  0  0  0  0  0  0  0
    9.2537  -15.3032   23.9717 C   0  0  0  0  0  0  0  0  0  0  0  0
   10.2276  -14.4759   24.0085 O   0  0  0  0  0  0  0  0  0  0  0  0
    8.6518  -12.1557   17.6387 N   0  0  0  0  0  0  0  0  0  0  0  0
   12.2813  -20.4063   30.1497 C   0  0  0  0  0  0  0  0  0  0  0  0
   11.2273  -19.5963   29.7025 N   0  0  0  0  0  0  0  0  0  0  0  0
   10.5617  -18.8038   30.4985 N   0  0  0  0  0  0  0  0  0  0  0  0
   10.8584  -19.6295   28.3339 C   0  0  0  0  0  0  0  0  0  0  0  0
   11.8441  -19.7012   27.2735 C   0  0  0  0  0  0  0  0  0  0  0  0
   11.9725  -18.4059   26.4978 C   0  0  0  0  0  0  0  0  0  0  0  0
   10.8737  -18.3796   25.4764 C   0  0  2  0  0  0  0  0  0  0  0  0
   10.8527  -17.1881   24.6021 N   0  0  0  0  0  0  0  0  0  0  0  0
    9.5523  -16.6530   24.2940 C   0  0  0  0  0  0  0  0  0  0  0  0
   11.8046  -17.2108   23.4672 O   0  0  0  0  0  0  0  0  0  0  0  0
   11.5261  -17.8864   22.4577 O   0  0  0  0  0  0  0  0  0  0  0  0
  2  1  1  1
  2  5  1  0
  2  3  1  0
  4  3  1  0
  5  6  2  0
  7  8  1  0
  8  9  2  0
  8 10  1  0
 10 11  1  0
 11 12  1  0
 12 13  1  0
 14 13  1  6
 15 14  1  0
 15  5  1  0
 16 14  1  0
 17 16  2  0
 18 19  1  0
 19 20  2  0
 19 21  1  0
 21 22  1  0
 22 23  1  0
 23 24  1  0
 25 24  1  1
 25 27  1  0
 25 26  1  0
 26 16  1  0
 27 29  1  0
 28 27  2  0
M  END
$$$$
