CRR.pdb
     RDKit          3D

 29 28  0  0  1  0  0  0  0  0999 V2000
    7.8862  -13.9637   16.9650 N   0  0  0  0  0  0  0  0  0  0  0  0
    8.6515  -13.8187   18.1733 C   0  0  1  0  0  0  0  0  0  0  0  0
    7.8788  -13.0942   19.2525 C   0  0  0  0  0  0  0  0  0  0  0  0
    6.9812  -11.6770   18.5668 S   0  0  0  0  0  0  0  0  0  0  0  0
    9.1441  -15.1111   18.6667 C   0  0  0  0  0  0  0  0  0  0  0  0
    8.9956  -16.1411   17.9315 O   0  0  0  0  0  0  0  0  0  0  0  0
   15.3841  -14.1937   17.8119 N   0  0  0  0  0  0  0  0  0  0  0  0
   15.6875  -14.1233   19.1999 C   0  0  0  0  0  0  0  0  0  0  0  0
   16.3130  -13.1504   19.7475 N   0  0  0  0  0  0  0  0  0  0  0  0
   15.2650  -15.2100   20.0289 N   0  0  0  0  0  0  0  0  0  0  0  0
   14.2270  -16.1185   19.6202 C   0  0  0  0  0  0  0  0  0  0  0  0
   12.8850  -15.3627   19.5615 C   0  0  0  0  0  0  0  0  0  0  0  0
   11.7807  -16.3014   19.2295 C   0  0  0  0  0  0  0  0  0  0  0  0
   10.6636  -16.3428   20.2373 C   0  0  2  0  0  0  0  0  0  0  0  0
    9.7659  -15.2196   19.9196 N   0  0  0  0  0  0  0  0  0  0  0  0
   11.1172  -16.1390   21.6404 C   0  0  0  0  0  0  0  0  0  0  0  0
   11.5652  -15.0013   22.0133 O   0  0  0  0  0  0  0  0  0  0  0  0
   16.5160  -13.1491   20.7753 N   0  0  0  0  0  0  0  0  0  0  0  0
    6.6058  -21.8447   26.4809 C   0  0  0  0  0  0  0  0  0  0  0  0
    6.4942  -20.6789   27.2526 N   0  0  0  0  0  0  0  0  0  0  0  0
    5.8047  -20.6311   28.3603 N   0  0  0  0  0  0  0  0  0  0  0  0
    7.1508  -19.4973   26.8248 C   0  0  0  0  0  0  0  0  0  0  0  0
    7.9084  -19.4429   25.5901 C   0  0  0  0  0  0  0  0  0  0  0  0
    8.6698  -18.1438   25.4211 C   0  0  0  0  0  0  0  0  0  0  0  0
    9.4362  -18.2331   24.1341 C   0  0  2  0  0  0  0  0  0  0  0  0
   10.3672  -17.1148   23.8748 N   0  0  0  0  0  0  0  0  0  0  0  0
   11.0786  -17.1616   22.6242 C   0  0  0  0  0  0  0  0  0  0  0  0
   11.1725  -16.6707   25.0362 O   0  0  0  0  0  0  0  0  0  0  0  0
   12.3962  -16.9059   25.0490 O   0  0  0  0  0  0  0  0  0  0  0  0
  2  1  1  6
  2  5  1  0
  2  3  1  0
  4  3  1  0
  5  6  2  0
  7  8  1  0
  8  9  2  0
  8 10  1  0
 10 11  1  0
 11 12  1  0
 12 13  1  0
 14 13  1  6
 15 14  1  0
 15  5  1  0
 16 14  1  0
 17 16  2  0
 18 19  1  0
 19 20  2  0
 19 21  1  0
 21 22  1  0
 22 23  1  0
 23 24  1  0
 25 24  1  6
 25 27  1  0
 25 26  1  0
 26 16  1  0
 27 29  1  0
 28 27  2  0
M  END
$$$$
