CRR.pdb
     RDKit          3D

 29 28  0  0  1  0  0  0  0  0999 V2000
    4.9303  -12.6297   26.2670 N   0  0  0  0  0  0  0  0  0  0  0  0
    6.2928  -12.4753   25.8352 C   0  0  1  0  0  0  0  0  0  0  0  0
    7.2212  -12.1556   26.9851 C   0  0  0  0  0  0  0  0  0  0  0  0
    8.9471  -12.1177   26.4336 S   0  0  0  0  0  0  0  0  0  0  0  0
    6.7685  -13.6516   25.0958 C   0  0  0  0  0  0  0  0  0  0  0  0
    6.5378  -14.8085   25.5772 O   0  0  0  0  0  0  0  0  0  0  0  0
    9.4609  -15.2437   16.9863 N   0  0  0  0  0  0  0  0  0  0  0  0
    8.6178  -14.2516   17.5593 C   0  0  0  0  0  0  0  0  0  0  0  0
    8.2999  -13.1581   16.9754 N   0  0  0  0  0  0  0  0  0  0  0  0
    8.0968  -14.4972   18.8688 N   0  0  0  0  0  0  0  0  0  0  0  0
    7.2563  -13.5441   19.5432 C   0  0  0  0  0  0  0  0  0  0  0  0
    6.9331  -14.0640   20.9578 C   0  0  0  0  0  0  0  0  0  0  0  0
    8.1871  -14.2575   21.7330 C   0  0  0  0  0  0  0  0  0  0  0  0
    7.9858  -14.6861   23.1617 C   0  0  2  0  0  0  0  0  0  0  0  0
    7.4632  -13.5145   23.8848 N   0  0  0  0  0  0  0  0  0  0  0  0
    9.2452  -15.0817   23.8497 C   0  0  0  0  0  0  0  0  0  0  0  0
   10.1085  -14.1956   24.1717 O   0  0  0  0  0  0  0  0  0  0  0  0
    7.6696  -12.4616   17.4393 N   0  0  0  0  0  0  0  0  0  0  0  0
    9.2372  -21.4642   29.2329 C   0  0  0  0  0  0  0  0  0  0  0  0
   10.4947  -20.8437   29.2071 N   0  0  0  0  0  0  0  0  0  0  0  0
   11.3011  -20.8440   30.2340 N   0  0  0  0  0  0  0  0  0  0  0  0
   10.9202  -20.1855   28.0257 C   0  0  0  0  0  0  0  0  0  0  0  0
   11.3879  -18.8135   28.0359 C   0  0  0  0  0  0  0  0  0  0  0  0
   11.7732  -18.3104   26.6596 C   0  0  0  0  0  0  0  0  0  0  0  0
   10.5251  -17.8057   25.9969 C   0  0  1  0  0  0  0  0  0  0  0  0
   10.7413  -16.8820   24.8635 N   0  0  0  0  0  0  0  0  0  0  0  0
    9.5564  -16.4254   24.1853 C   0  0  0  0  0  0  0  0  0  0  0  0
   11.8810  -17.2132   23.9770 O   0  0  0  0  0  0  0  0  0  0  0  0
   11.6623  -17.4462   22.7724 O   0  0  0  0  0  0  0  0  0  0  0  0
  2  1  1  1
  2  5  1  0
  2  3  1  0
  4  3  1  0
  5  6  2  0
  7  8  1  0
  8  9  2  0
  8 10  1  0
 10 11  1  0
 11 12  1  0
 12 13  1  0
 14 13  1  6
 15 14  1  0
 15  5  1  0
 16 14  1  0
 17 16  2  0
 18 19  1  0
 19 20  2  0
 19 21  1  0
 21 22  1  0
 22 23  1  0
 23 24  1  0
 25 24  1  1
 25 27  1  0
 25 26  1  0
 26 16  1  0
 27 29  1  0
 28 27  2  0
M  END
$$$$
