CRR.pdb
     RDKit          3D

 29 28  0  0  1  0  0  0  0  0999 V2000
    7.4723  -13.3650   17.9723 N   0  0  0  0  0  0  0  0  0  0  0  0
    8.8071  -13.0026   18.3642 C   0  0  1  0  0  0  0  0  0  0  0  0
    8.8220  -12.1549   19.6164 C   0  0  0  0  0  0  0  0  0  0  0  0
    7.9372  -12.9779   20.9669 S   0  0  0  0  0  0  0  0  0  0  0  0
    9.6685  -14.1810   18.5252 C   0  0  0  0  0  0  0  0  0  0  0  0
    9.1222  -15.3082   18.7587 O   0  0  0  0  0  0  0  0  0  0  0  0
   17.2073  -14.8258   18.2455 N   0  0  0  0  0  0  0  0  0  0  0  0
   16.5400  -13.8288   17.4814 C   0  0  0  0  0  0  0  0  0  0  0  0
   16.7952  -12.5771   17.5591 N   0  0  0  0  0  0  0  0  0  0  0  0
   15.5221  -14.2579   16.5724 N   0  0  0  0  0  0  0  0  0  0  0  0
   15.1966  -15.6483   16.3975 C   0  0  0  0  0  0  0  0  0  0  0  0
   14.1012  -16.0440   17.4072 C   0  0  0  0  0  0  0  0  0  0  0  0
   13.0994  -14.9524   17.5325 C   0  0  0  0  0  0  0  0  0  0  0  0
   11.9242  -15.2732   18.4164 C   0  0  2  0  0  0  0  0  0  0  0  0
   11.0640  -14.0779   18.4261 N   0  0  0  0  0  0  0  0  0  0  0  0
   12.2971  -15.5385   19.8329 C   0  0  0  0  0  0  0  0  0  0  0  0
   12.4880  -14.5666   20.6412 O   0  0  0  0  0  0  0  0  0  0  0  0
   16.2833  -11.8836   16.9637 N   0  0  0  0  0  0  0  0  0  0  0  0
   11.0535  -22.8201   24.7917 C   0  0  0  0  0  0  0  0  0  0  0  0
   11.6721  -21.9379   25.6896 N   0  0  0  0  0  0  0  0  0  0  0  0
   11.7604  -22.1827   26.9690 N   0  0  0  0  0  0  0  0  0  0  0  0
   12.2276  -20.7278   25.2026 C   0  0  0  0  0  0  0  0  0  0  0  0
   12.0022  -20.2695   23.8460 C   0  0  0  0  0  0  0  0  0  0  0  0
   12.5736  -18.8905   23.5856 C   0  0  0  0  0  0  0  0  0  0  0  0
   12.2634  -18.5340   22.1615 C   0  0  1  0  0  0  0  0  0  0  0  0
   12.6972  -17.1856   21.7392 N   0  0  0  0  0  0  0  0  0  0  0  0
   12.4554  -16.8465   20.3613 C   0  0  0  0  0  0  0  0  0  0  0  0
   14.0044  -16.7379   22.2734 O   0  0  0  0  0  0  0  0  0  0  0  0
   14.9838  -16.6797   21.5051 O   0  0  0  0  0  0  0  0  0  0  0  0
  2  1  1  1
  2  5  1  0
  2  3  1  0
  4  3  1  0
  5  6  2  0
  7  8  1  0
  8  9  2  0
  8 10  1  0
 10 11  1  0
 11 12  1  0
 12 13  1  0
 14 13  1  6
 15 14  1  0
 15  5  1  0
 16 14  1  0
 17 16  2  0
 18 19  1  0
 19 20  2  0
 19 21  1  0
 21 22  1  0
 22 23  1  0
 23 24  1  0
 25 24  1  1
 25 27  1  0
 25 26  1  0
 26 16  1  0
 27 29  1  0
 28 27  2  0
M  END
$$$$
