CRR.pdb
     RDKit          3D

 29 28  0  0  1  0  0  0  0  0999 V2000
    5.6105  -14.6067   26.7444 N   0  0  0  0  0  0  0  0  0  0  0  0
    6.2159  -13.7091   25.7986 C   0  0  1  0  0  0  0  0  0  0  0  0
    7.2569  -12.8214   26.4427 C   0  0  0  0  0  0  0  0  0  0  0  0
    8.4314  -13.8002   27.4157 S   0  0  0  0  0  0  0  0  0  0  0  0
    6.7847  -14.4270   24.6507 C   0  0  0  0  0  0  0  0  0  0  0  0
    6.9577  -15.6859   24.7437 O   0  0  0  0  0  0  0  0  0  0  0  0
    9.5229  -15.0522   17.3910 N   0  0  0  0  0  0  0  0  0  0  0  0
    8.4823  -14.2815   16.8024 C   0  0  0  0  0  0  0  0  0  0  0  0
    8.0705  -14.4342   15.6003 N   0  0  0  0  0  0  0  0  0  0  0  0
    7.8622  -13.2756   17.6087 N   0  0  0  0  0  0  0  0  0  0  0  0
    8.4167  -12.8650   18.8711 C   0  0  0  0  0  0  0  0  0  0  0  0
    8.2509  -14.0065   19.8935 C   0  0  0  0  0  0  0  0  0  0  0  0
    7.6872  -13.4799   21.1647 C   0  0  0  0  0  0  0  0  0  0  0  0
    7.6552  -14.4693   22.2984 C   0  0  2  0  0  0  0  0  0  0  0  0
    7.1337  -13.7498   23.4727 N   0  0  0  0  0  0  0  0  0  0  0  0
    8.9988  -14.9847   22.6793 C   0  0  0  0  0  0  0  0  0  0  0  0
    9.7845  -14.2700   23.3908 O   0  0  0  0  0  0  0  0  0  0  0  0
    7.2649  -13.8760   15.2304 N   0  0  0  0  0  0  0  0  0  0  0  0
   11.2020  -22.6651   25.7786 C   0  0  0  0  0  0  0  0  0  0  0  0
   11.6195  -21.5139   26.4623 N   0  0  0  0  0  0  0  0  0  0  0  0
   11.7928  -21.4874   27.7561 N   0  0  0  0  0  0  0  0  0  0  0  0
   11.8663  -20.3238   25.7322 C   0  0  0  0  0  0  0  0  0  0  0  0
   11.5650  -20.2126   24.3187 C   0  0  0  0  0  0  0  0  0  0  0  0
   11.8858  -18.8443   23.7522 C   0  0  0  0  0  0  0  0  0  0  0  0
   10.5885  -18.2048   23.3526 C   0  0  1  0  0  0  0  0  0  0  0  0
   10.7091  -16.8769   22.7148 N   0  0  0  0  0  0  0  0  0  0  0  0
    9.4769  -16.2642   22.2927 C   0  0  0  0  0  0  0  0  0  0  0  0
   11.8405  -16.7211   21.7714 O   0  0  0  0  0  0  0  0  0  0  0  0
   11.6054  -16.6675   20.5487 O   0  0  0  0  0  0  0  0  0  0  0  0
  2  1  1  1
  2  5  1  0
  2  3  1  0
  4  3  1  0
  5  6  2  0
  7  8  1  0
  8  9  2  0
  8 10  1  0
 10 11  1  0
 11 12  1  0
 12 13  1  0
 14 13  1  6
 15 14  1  0
 15  5  1  0
 16 14  1  0
 17 16  2  0
 18 19  1  0
 19 20  2  0
 19 21  1  0
 21 22  1  0
 22 23  1  0
 23 24  1  0
 25 24  1  1
 25 27  1  0
 25 26  1  0
 26 16  1  0
 27 29  1  0
 28 27  2  0
M  END
$$$$
