CRR.pdb
     RDKit          3D

 29 28  0  0  1  0  0  0  0  0999 V2000
    7.0288  -13.5224   18.0582 N   0  0  0  0  0  0  0  0  0  0  0  0
    8.2695  -13.5257   18.7844 C   0  0  1  0  0  0  0  0  0  0  0  0
    8.4206  -12.3007   19.6581 C   0  0  0  0  0  0  0  0  0  0  0  0
    7.1376  -12.2543   20.9371 S   0  0  0  0  0  0  0  0  0  0  0  0
    8.4362  -14.7513   19.5761 C   0  0  0  0  0  0  0  0  0  0  0  0
    7.3945  -15.3894   19.9383 O   0  0  0  0  0  0  0  0  0  0  0  0
   15.5237  -19.2922   19.0508 N   0  0  0  0  0  0  0  0  0  0  0  0
   14.2804  -19.4793   18.3855 C   0  0  0  0  0  0  0  0  0  0  0  0
   14.1676  -19.9226   17.1903 N   0  0  0  0  0  0  0  0  0  0  0  0
   13.0867  -19.1497   19.1018 N   0  0  0  0  0  0  0  0  0  0  0  0
   13.1235  -18.6455   20.4487 C   0  0  0  0  0  0  0  0  0  0  0  0
   11.6961  -18.2623   20.8864 C   0  0  0  0  0  0  0  0  0  0  0  0
   11.2967  -16.9725   20.2635 C   0  0  0  0  0  0  0  0  0  0  0  0
    9.8968  -16.5231   20.5860 C   0  0  2  0  0  0  0  0  0  0  0  0
    9.7109  -15.2173   19.9312 N   0  0  0  0  0  0  0  0  0  0  0  0
    9.6591  -16.3061   22.0393 C   0  0  0  0  0  0  0  0  0  0  0  0
   10.3621  -15.4571   22.6869 O   0  0  0  0  0  0  0  0  0  0  0  0
   13.2258  -20.0847   16.7611 N   0  0  0  0  0  0  0  0  0  0  0  0
    6.2683  -22.5751   27.1037 C   0  0  0  0  0  0  0  0  0  0  0  0
    6.2070  -21.5075   28.0111 N   0  0  0  0  0  0  0  0  0  0  0  0
    5.6500  -21.6141   29.1872 N   0  0  0  0  0  0  0  0  0  0  0  0
    6.7677  -20.2563   27.6501 C   0  0  0  0  0  0  0  0  0  0  0  0
    7.3262  -20.0150   26.3344 C   0  0  0  0  0  0  0  0  0  0  0  0
    7.7782  -18.5821   26.1382 C   0  0  0  0  0  0  0  0  0  0  0  0
    7.7199  -18.2869   24.6682 C   0  0  1  0  0  0  0  0  0  0  0  0
    8.6852  -17.2756   24.1885 N   0  0  0  0  0  0  0  0  0  0  0  0
    8.6651  -17.0030   22.7752 C   0  0  0  0  0  0  0  0  0  0  0  0
   10.0358  -17.3433   24.7933 O   0  0  0  0  0  0  0  0  0  0  0  0
   10.8793  -18.1194   24.3043 O   0  0  0  0  0  0  0  0  0  0  0  0
  2  1  1  1
  2  5  1  0
  2  3  1  0
  4  3  1  0
  5  6  2  0
  7  8  1  0
  8  9  2  0
  8 10  1  0
 10 11  1  0
 11 12  1  0
 12 13  1  0
 14 13  1  1
 15 14  1  0
 15  5  1  0
 16 14  1  0
 17 16  2  0
 18 19  1  0
 19 20  2  0
 19 21  1  0
 21 22  1  0
 22 23  1  0
 23 24  1  0
 25 24  1  1
 25 27  1  0
 25 26  1  0
 26 16  1  0
 27 29  1  0
 28 27  2  0
M  END
$$$$
