CRR.pdb
     RDKit          3D

 29 28  0  0  1  0  0  0  0  0999 V2000
    7.6209  -14.2731   17.7510 N   0  0  0  0  0  0  0  0  0  0  0  0
    8.5353  -13.6455   18.6657 C   0  0  1  0  0  0  0  0  0  0  0  0
    7.8241  -13.0371   19.8534 C   0  0  0  0  0  0  0  0  0  0  0  0
    6.8766  -11.5727   19.3614 S   0  0  0  0  0  0  0  0  0  0  0  0
    9.5866  -14.5704   19.1084 C   0  0  0  0  0  0  0  0  0  0  0  0
    9.3002  -15.8061   19.2291 O   0  0  0  0  0  0  0  0  0  0  0  0
   16.7561  -13.7694   15.5590 N   0  0  0  0  0  0  0  0  0  0  0  0
   16.8180  -13.7669   16.9800 C   0  0  0  0  0  0  0  0  0  0  0  0
   17.7820  -13.2622   17.6537 N   0  0  0  0  0  0  0  0  0  0  0  0
   15.7332  -14.3669   17.6940 N   0  0  0  0  0  0  0  0  0  0  0  0
   15.7255  -14.4561   19.1299 C   0  0  0  0  0  0  0  0  0  0  0  0
   14.4676  -15.2222   19.5841 C   0  0  0  0  0  0  0  0  0  0  0  0
   13.2464  -14.4289   19.2837 C   0  0  0  0  0  0  0  0  0  0  0  0
   11.9603  -15.0430   19.7677 C   0  0  2  0  0  0  0  0  0  0  0  0
   10.8813  -14.1127   19.3950 N   0  0  0  0  0  0  0  0  0  0  0  0
   11.8927  -15.1998   21.2465 C   0  0  0  0  0  0  0  0  0  0  0  0
   11.5799  -14.2048   21.9857 O   0  0  0  0  0  0  0  0  0  0  0  0
   17.8078  -13.3366   18.6984 N   0  0  0  0  0  0  0  0  0  0  0  0
    9.8429  -15.6196   27.7799 C   0  0  0  0  0  0  0  0  0  0  0  0
    9.2049  -14.4031   27.4968 N   0  0  0  0  0  0  0  0  0  0  0  0
    9.0319  -13.4728   28.3964 N   0  0  0  0  0  0  0  0  0  0  0  0
    8.7228  -14.1604   26.1857 C   0  0  0  0  0  0  0  0  0  0  0  0
    8.9097  -15.1131   25.1093 C   0  0  0  0  0  0  0  0  0  0  0  0
   10.3658  -15.4585   24.8722 C   0  0  0  0  0  0  0  0  0  0  0  0
   10.4272  -16.3627   23.6763 C   0  0  2  0  0  0  0  0  0  0  0  0
   11.7865  -16.7650   23.2580 N   0  0  0  0  0  0  0  0  0  0  0  0
   12.1589  -16.4266   21.9093 C   0  0  0  0  0  0  0  0  0  0  0  0
   12.2240  -18.1063   23.7098 O   0  0  0  0  0  0  0  0  0  0  0  0
   12.1882  -19.0570   22.9049 O   0  0  0  0  0  0  0  0  0  0  0  0
  2  1  1  6
  2  5  1  0
  2  3  1  0
  4  3  1  0
  5  6  2  0
  7  8  1  0
  8  9  2  0
  8 10  1  0
 10 11  1  0
 11 12  1  0
 12 13  1  0
 14 13  1  1
 15 14  1  0
 15  5  1  0
 16 14  1  0
 17 16  2  0
 18 19  1  0
 19 20  2  0
 19 21  1  0
 21 22  1  0
 22 23  1  0
 23 24  1  0
 25 24  1  1
 25 27  1  0
 25 26  1  0
 26 16  1  0
 27 29  1  0
 28 27  2  0
M  END
$$$$
