CRR.pdb
     RDKit          3D

 29 28  0  0  1  0  0  0  0  0999 V2000
    7.9214  -13.5711   18.2999 N   0  0  0  0  0  0  0  0  0  0  0  0
    8.7430  -13.6770   19.4749 C   0  0  1  0  0  0  0  0  0  0  0  0
    8.5848  -12.4830   20.3892 C   0  0  0  0  0  0  0  0  0  0  0  0
    9.1204  -10.9603   19.5655 S   0  0  0  0  0  0  0  0  0  0  0  0
    8.4937  -14.9265   20.2053 C   0  0  0  0  0  0  0  0  0  0  0  0
    7.6932  -15.7790   19.6994 O   0  0  0  0  0  0  0  0  0  0  0  0
   11.5863  -21.7192   18.5857 N   0  0  0  0  0  0  0  0  0  0  0  0
   11.0222  -22.1184   19.8289 C   0  0  0  0  0  0  0  0  0  0  0  0
   10.9425  -23.3339   20.2215 N   0  0  0  0  0  0  0  0  0  0  0  0
   10.5143  -21.0938   20.6884 N   0  0  0  0  0  0  0  0  0  0  0  0
   10.3643  -19.7339   20.2433 C   0  0  0  0  0  0  0  0  0  0  0  0
    9.8281  -18.8756   21.4058 C   0  0  0  0  0  0  0  0  0  0  0  0
    9.7005  -17.4566   20.9805 C   0  0  0  0  0  0  0  0  0  0  0  0
    9.1278  -16.5345   22.0232 C   0  0  2  0  0  0  0  0  0  0  0  0
    9.1185  -15.1847   21.4345 N   0  0  0  0  0  0  0  0  0  0  0  0
    9.9488  -16.4508   23.2621 C   0  0  0  0  0  0  0  0  0  0  0  0
   11.2194  -16.3321   23.1856 O   0  0  0  0  0  0  0  0  0  0  0  0
   10.5227  -23.5749   21.1506 N   0  0  0  0  0  0  0  0  0  0  0  0
    5.4948  -13.5436   26.1377 C   0  0  0  0  0  0  0  0  0  0  0  0
    6.2585  -12.4349   26.5309 N   0  0  0  0  0  0  0  0  0  0  0  0
    5.7214  -11.2925   26.8641 N   0  0  0  0  0  0  0  0  0  0  0  0
    7.6715  -12.5444   26.5722 C   0  0  0  0  0  0  0  0  0  0  0  0
    8.3388  -13.6224   27.2748 C   0  0  0  0  0  0  0  0  0  0  0  0
    8.2275  -14.9528   26.5582 C   0  0  0  0  0  0  0  0  0  0  0  0
    9.4282  -15.7707   26.9338 C   0  0  2  0  0  0  0  0  0  0  0  0
   10.1183  -16.4335   25.8073 N   0  0  0  0  0  0  0  0  0  0  0  0
    9.3906  -16.4919   24.5666 C   0  0  0  0  0  0  0  0  0  0  0  0
   10.8678  -17.6640   26.1514 O   0  0  0  0  0  0  0  0  0  0  0  0
   10.6340  -18.7115   25.5181 O   0  0  0  0  0  0  0  0  0  0  0  0
  2  1  1  6
  2  5  1  0
  2  3  1  0
  4  3  1  0
  5  6  2  0
  7  8  1  0
  8  9  2  0
  8 10  1  0
 10 11  1  0
 11 12  1  0
 12 13  1  0
 14 13  1  6
 15 14  1  0
 15  5  1  0
 16 14  1  0
 17 16  2  0
 18 19  1  0
 19 20  2  0
 19 21  1  0
 21 22  1  0
 22 23  1  0
 23 24  1  0
 25 24  1  6
 25 27  1  0
 25 26  1  0
 26 16  1  0
 27 29  1  0
 28 27  2  0
M  END
$$$$
