PIM.pdb
     RDKit          3D

 24 24  0  0  1  0  0  0  0  0999 V2000
   27.3572  -19.0662  -14.9253 N   0  0  0  0  0  0  0  0  0  0  0  0
   28.6593  -18.6232  -15.3599 C   0  0  0  0  0  0  0  0  0  0  0  0
   29.6006  -19.7776  -15.1947 C   0  0  0  0  0  0  0  0  0  0  0  0
   28.7131  -20.9582  -14.8306 C   0  0  0  0  0  0  0  0  0  0  0  0
   27.3172  -20.4824  -15.1528 C   0  0  1  0  0  0  0  0  0  0  0  0
   26.2828  -21.1577  -14.3217 C   0  0  0  0  0  0  0  0  0  0  0  0
   26.0044  -22.3764  -14.4614 O   0  0  0  0  0  0  0  0  0  0  0  0
   26.4222  -20.5201   -9.1534 C   0  0  0  0  0  0  0  0  0  0  0  0
   26.1103  -21.1252  -10.4956 C   0  0  0  0  0  0  0  0  0  0  0  0
   24.8538  -20.6596  -11.1131 C   0  0  2  0  0  0  0  0  0  0  0  0
   23.7168  -21.0899  -10.1719 C   0  0  0  0  0  0  0  0  0  0  0  0
   24.5419  -21.1026  -12.5019 C   0  0  2  0  0  0  0  0  0  0  0  0
   25.5722  -20.4443  -13.3384 N   0  0  0  0  0  0  0  0  0  0  0  0
   23.2040  -20.6982  -12.9565 C   0  0  0  0  0  0  0  0  0  0  0  0
   22.9227  -19.4540  -12.9393 O   0  0  0  0  0  0  0  0  0  0  0  0
   20.8717  -21.8121  -18.2850 C   0  0  0  0  0  0  0  0  0  0  0  0
   19.1978  -21.7153  -17.5574 S   0  0  0  0  0  0  0  0  0  0  0  0
   19.3182  -21.1220  -15.8293 C   0  0  0  0  0  0  0  0  0  0  0  0
   20.6761  -21.5243  -15.3295 C   0  0  0  0  0  0  0  0  0  0  0  0
   20.9524  -21.0364  -13.9254 C   0  0  2  0  0  0  0  0  0  0  0  0
   22.2024  -21.5640  -13.4139 N   0  0  0  0  0  0  0  0  0  0  0  0
   19.8566  -21.4127  -13.0308 C   0  0  0  0  0  0  0  0  0  0  0  0
   20.0168  -22.4424  -12.2875 O   0  0  0  0  0  0  0  0  0  0  0  0
   18.6976  -20.6871  -12.9899 O   0  0  0  0  0  0  0  0  0  0  0  0
  1  2  1  0
  3  2  1  0
  4  3  1  0
  5  4  1  0
  5  1  1  0
  5  6  1  1
  7  6  2  0
  9  8  1  0
  9 10  1  0
 10 12  1  0
 10 11  1  1
 12 13  1  6
 13  6  1  0
 14 15  2  0
 14 12  1  0
 17 16  1  0
 18 19  1  0
 18 17  1  0
 20 19  1  6
 20 21  1  0
 21 14  1  0
 22 20  1  0
 23 22  2  0
 24 22  1  0
M  END
$$$$
