PIM.pdb
     RDKit          3D

 24 24  0  0  1  0  0  0  0  0999 V2000
   28.5089  -21.6602  -15.7570 N   0  0  0  0  0  0  0  0  0  0  0  0
   29.0875  -21.0429  -16.9253 C   0  0  0  0  0  0  0  0  0  0  0  0
   28.1247  -19.9967  -17.3991 C   0  0  0  0  0  0  0  0  0  0  0  0
   27.0615  -19.9219  -16.3138 C   0  0  0  0  0  0  0  0  0  0  0  0
   27.6702  -20.6666  -15.1503 C   0  0  1  0  0  0  0  0  0  0  0  0
   26.6387  -21.2670  -14.2602 C   0  0  0  0  0  0  0  0  0  0  0  0
   26.2187  -22.4417  -14.4214 O   0  0  0  0  0  0  0  0  0  0  0  0
   26.6431  -20.2350   -8.9366 C   0  0  0  0  0  0  0  0  0  0  0  0
   26.4169  -20.9473  -10.2430 C   0  0  0  0  0  0  0  0  0  0  0  0
   25.2392  -20.4919  -11.0061 C   0  0  2  0  0  0  0  0  0  0  0  0
   24.0131  -20.7468  -10.1141 C   0  0  0  0  0  0  0  0  0  0  0  0
   25.0009  -21.0788  -12.3556 C   0  0  2  0  0  0  0  0  0  0  0  0
   26.0916  -20.5291  -13.1939 N   0  0  0  0  0  0  0  0  0  0  0  0
   23.7004  -20.7081  -12.9314 C   0  0  0  0  0  0  0  0  0  0  0  0
   23.4382  -19.4656  -13.0532 O   0  0  0  0  0  0  0  0  0  0  0  0
   20.0373  -24.1715  -16.8364 C   0  0  0  0  0  0  0  0  0  0  0  0
   18.6898  -23.1715  -16.1120 S   0  0  0  0  0  0  0  0  0  0  0  0
   19.4054  -21.7520  -15.2033 C   0  0  0  0  0  0  0  0  0  0  0  0
   20.7519  -22.1938  -14.7059 C   0  0  0  0  0  0  0  0  0  0  0  0
   21.4731  -21.1154  -13.9294 C   0  0  2  0  0  0  0  0  0  0  0  0
   22.7158  -21.6051  -13.3651 N   0  0  0  0  0  0  0  0  0  0  0  0
   20.6170  -20.5988  -12.8604 C   0  0  0  0  0  0  0  0  0  0  0  0
   19.9437  -19.5353  -13.0932 O   0  0  0  0  0  0  0  0  0  0  0  0
   20.5382  -21.2323  -11.6504 O   0  0  0  0  0  0  0  0  0  0  0  0
  1  2  1  0
  3  2  1  0
  4  3  1  0
  5  4  1  0
  5  1  1  0
  5  6  1  6
  7  6  2  0
  9  8  1  0
  9 10  1  0
 10 12  1  0
 10 11  1  1
 12 13  1  6
 13  6  1  0
 14 15  2  0
 14 12  1  0
 17 16  1  0
 18 19  1  0
 18 17  1  0
 20 19  1  1
 20 21  1  0
 21 14  1  0
 22 20  1  0
 23 22  2  0
 24 22  1  0
M  END
$$$$
