PIM.pdb
     RDKit          3D

 24 24  0  0  1  0  0  0  0  0999 V2000
   16.9776  -12.0673  -15.2148 N   0  0  0  0  0  0  0  0  0  0  0  0
   16.0331  -12.4391  -16.2396 C   0  0  0  0  0  0  0  0  0  0  0  0
   14.9041  -11.4552  -16.1828 C   0  0  0  0  0  0  0  0  0  0  0  0
   15.3625  -10.3885  -15.2000 C   0  0  0  0  0  0  0  0  0  0  0  0
   16.8401  -10.6504  -15.0355 C   0  0  1  0  0  0  0  0  0  0  0  0
   17.3516  -10.1974  -13.7127 C   0  0  0  0  0  0  0  0  0  0  0  0
   17.2987  -10.9278  -12.6899 O   0  0  0  0  0  0  0  0  0  0  0  0
   22.1730   -8.1841  -13.5263 C   0  0  0  0  0  0  0  0  0  0  0  0
   20.8505   -8.8272  -13.2059 C   0  0  0  0  0  0  0  0  0  0  0  0
   19.8348   -7.9176  -12.6423 C   0  0  2  0  0  0  0  0  0  0  0  0
   20.4720   -7.2594  -11.4076 C   0  0  0  0  0  0  0  0  0  0  0  0
   18.5063   -8.4836  -12.2721 C   0  0  2  0  0  0  0  0  0  0  0  0
   17.9193   -8.9185  -13.5609 N   0  0  0  0  0  0  0  0  0  0  0  0
   17.6156   -7.5080  -11.6277 C   0  0  0  0  0  0  0  0  0  0  0  0
   17.2498   -6.4960  -12.3128 O   0  0  0  0  0  0  0  0  0  0  0  0
   13.1218   -8.9505   -7.8014 C   0  0  0  0  0  0  0  0  0  0  0  0
   12.7746   -7.1615   -7.6616 S   0  0  0  0  0  0  0  0  0  0  0  0
   14.1331   -6.2144   -8.4427 C   0  0  0  0  0  0  0  0  0  0  0  0
   15.1090   -7.2229   -8.9778 C   0  0  0  0  0  0  0  0  0  0  0  0
   16.2014   -6.5956   -9.8138 C   0  0  2  0  0  0  0  0  0  0  0  0
   17.1258   -7.5924  -10.3181 N   0  0  0  0  0  0  0  0  0  0  0  0
   16.9323   -5.5979   -9.0309 C   0  0  0  0  0  0  0  0  0  0  0  0
   17.9790   -5.9802   -8.4009 O   0  0  0  0  0  0  0  0  0  0  0  0
   16.5107   -4.2977   -8.9739 O   0  0  0  0  0  0  0  0  0  0  0  0
  1  2  1  0
  3  2  1  0
  4  3  1  0
  5  4  1  0
  5  1  1  0
  5  6  1  1
  7  6  2  0
  9  8  1  0
  9 10  1  0
 10 12  1  0
 10 11  1  1
 12 13  1  6
 13  6  1  0
 14 15  2  0
 14 12  1  0
 17 16  1  0
 18 19  1  0
 18 17  1  0
 20 19  1  1
 20 21  1  0
 21 14  1  0
 22 20  1  0
 23 22  2  0
 24 22  1  0
M  END
$$$$
