PIM.pdb
     RDKit          3D

 24 24  0  0  1  0  0  0  0  0999 V2000
   27.2872  -19.1556  -14.9751 N   0  0  0  0  0  0  0  0  0  0  0  0
   28.5660  -18.7017  -15.4642 C   0  0  0  0  0  0  0  0  0  0  0  0
   29.5345  -19.8328  -15.2949 C   0  0  0  0  0  0  0  0  0  0  0  0
   28.6823  -21.0181  -14.8676 C   0  0  0  0  0  0  0  0  0  0  0  0
   27.2678  -20.5785  -15.1589 C   0  0  1  0  0  0  0  0  0  0  0  0
   26.2736  -21.2475  -14.2754 C   0  0  0  0  0  0  0  0  0  0  0  0
   26.0613  -22.4863  -14.3261 O   0  0  0  0  0  0  0  0  0  0  0  0
   26.5108  -20.2053   -9.1942 C   0  0  0  0  0  0  0  0  0  0  0  0
   26.2159  -20.9019  -10.4953 C   0  0  0  0  0  0  0  0  0  0  0  0
   24.8964  -20.5975  -11.0810 C   0  0  2  0  0  0  0  0  0  0  0  0
   23.8453  -21.0636  -10.0603 C   0  0  0  0  0  0  0  0  0  0  0  0
   24.5704  -21.1626  -12.4214 C   0  0  2  0  0  0  0  0  0  0  0  0
   25.5277  -20.5050  -13.3410 N   0  0  0  0  0  0  0  0  0  0  0  0
   23.1948  -20.8795  -12.8548 C   0  0  0  0  0  0  0  0  0  0  0  0
   22.8316  -19.6581  -12.9155 O   0  0  0  0  0  0  0  0  0  0  0  0
   21.0769  -24.0885  -17.0552 C   0  0  0  0  0  0  0  0  0  0  0  0
   19.5182  -23.1340  -17.0421 S   0  0  0  0  0  0  0  0  0  0  0  0
   19.6078  -21.8392  -15.7505 C   0  0  0  0  0  0  0  0  0  0  0  0
   20.2937  -22.4585  -14.5666 C   0  0  0  0  0  0  0  0  0  0  0  0
   20.9169  -21.4328  -13.6471 C   0  0  2  0  0  0  0  0  0  0  0  0
   22.2395  -21.8391  -13.2134 N   0  0  0  0  0  0  0  0  0  0  0  0
   20.0628  -21.2103  -12.4794 C   0  0  0  0  0  0  0  0  0  0  0  0
   18.9902  -20.5309  -12.6424 O   0  0  0  0  0  0  0  0  0  0  0  0
   20.3995  -21.7124  -11.2521 O   0  0  0  0  0  0  0  0  0  0  0  0
  1  2  1  0
  3  2  1  0
  4  3  1  0
  5  4  1  0
  5  1  1  0
  5  6  1  1
  7  6  2  0
  9  8  1  0
  9 10  1  0
 10 12  1  0
 10 11  1  1
 12 13  1  6
 13  6  1  0
 14 15  2  0
 14 12  1  0
 17 16  1  0
 18 19  1  0
 18 17  1  0
 20 19  1  6
 20 21  1  0
 21 14  1  0
 22 20  1  0
 23 22  2  0
 24 22  1  0
M  END
$$$$
