PIM.pdb
     RDKit          3D

 24 24  0  0  1  0  0  0  0  0999 V2000
   18.9892  -10.9912  -18.5726 N   0  0  0  0  0  0  0  0  0  0  0  0
   18.2667  -11.9193  -19.4075 C   0  0  0  0  0  0  0  0  0  0  0  0
   17.6679  -12.9561  -18.5062 C   0  0  0  0  0  0  0  0  0  0  0  0
   17.9268  -12.4469  -17.0964 C   0  0  0  0  0  0  0  0  0  0  0  0
   18.3372  -11.0078  -17.2945 C   0  0  1  0  0  0  0  0  0  0  0  0
   19.2231  -10.5162  -16.2035 C   0  0  0  0  0  0  0  0  0  0  0  0
   18.8551  -10.4983  -15.0008 O   0  0  0  0  0  0  0  0  0  0  0  0
   24.0139  -12.3550  -15.7404 C   0  0  0  0  0  0  0  0  0  0  0  0
   22.6922  -11.6943  -15.4546 C   0  0  0  0  0  0  0  0  0  0  0  0
   22.6856  -10.2256  -15.5953 C   0  0  2  0  0  0  0  0  0  0  0  0
   23.7138   -9.6839  -14.5888 C   0  0  0  0  0  0  0  0  0  0  0  0
   21.3928   -9.5044  -15.4199 C   0  0  2  0  0  0  0  0  0  0  0  0
   20.5200  -10.0484  -16.4862 N   0  0  0  0  0  0  0  0  0  0  0  0
   21.5120   -8.0476  -15.5742 C   0  0  0  0  0  0  0  0  0  0  0  0
   22.0888   -7.6076  -16.6236 O   0  0  0  0  0  0  0  0  0  0  0  0
   18.6883   -1.6517  -17.6080 C   0  0  0  0  0  0  0  0  0  0  0  0
   18.5559   -2.9675  -16.3463 S   0  0  0  0  0  0  0  0  0  0  0  0
   20.1986   -3.7360  -16.0929 C   0  0  0  0  0  0  0  0  0  0  0  0
   19.9740   -4.9694  -15.2658 C   0  0  0  0  0  0  0  0  0  0  0  0
   21.2608   -5.6778  -14.9080 C   0  0  2  0  0  0  0  0  0  0  0  0
   21.0422   -7.0906  -14.6657 N   0  0  0  0  0  0  0  0  0  0  0  0
   21.8683   -5.0640  -13.7262 C   0  0  0  0  0  0  0  0  0  0  0  0
   21.8649   -5.7330  -12.6349 O   0  0  0  0  0  0  0  0  0  0  0  0
   22.4224   -3.8145  -13.7853 O   0  0  0  0  0  0  0  0  0  0  0  0
  1  2  1  0
  3  2  1  0
  4  3  1  0
  5  4  1  0
  5  1  1  0
  5  6  1  1
  7  6  2  0
  9  8  1  0
  9 10  1  0
 10 12  1  0
 10 11  1  1
 12 13  1  6
 13  6  1  0
 14 15  2  0
 14 12  1  0
 17 16  1  0
 18 19  1  0
 18 17  1  0
 20 19  1  1
 20 21  1  0
 21 14  1  0
 22 20  1  0
 23 22  2  0
 24 22  1  0
M  END
$$$$
