PIM.pdb
     RDKit          3D

 24 24  0  0  1  0  0  0  0  0999 V2000
   27.0520  -22.9259  -17.2260 N   0  0  0  0  0  0  0  0  0  0  0  0
   27.1906  -23.3979  -18.5820 C   0  0  0  0  0  0  0  0  0  0  0  0
   28.4750  -22.8422  -19.1179 C   0  0  0  0  0  0  0  0  0  0  0  0
   29.1518  -22.1935  -17.9200 C   0  0  0  0  0  0  0  0  0  0  0  0
   28.3839  -22.7221  -16.7326 C   0  0  1  0  0  0  0  0  0  0  0  0
   28.4189  -21.7878  -15.5740 C   0  0  0  0  0  0  0  0  0  0  0  0
   29.4918  -21.4868  -14.9904 O   0  0  0  0  0  0  0  0  0  0  0  0
   26.4478  -17.1884  -16.5535 C   0  0  0  0  0  0  0  0  0  0  0  0
   27.2437  -18.2858  -15.8997 C   0  0  0  0  0  0  0  0  0  0  0  0
   26.5617  -18.9728  -14.7864 C   0  0  2  0  0  0  0  0  0  0  0  0
   26.2069  -17.8899  -13.7542 C   0  0  0  0  0  0  0  0  0  0  0  0
   27.2718  -20.0928  -14.1055 C   0  0  2  0  0  0  0  0  0  0  0  0
   27.2356  -21.2022  -15.0866 N   0  0  0  0  0  0  0  0  0  0  0  0
   26.6269  -20.5177  -12.8549 C   0  0  0  0  0  0  0  0  0  0  0  0
   25.6986  -21.3893  -12.9328 O   0  0  0  0  0  0  0  0  0  0  0  0
   28.9719  -20.4004   -6.6364 C   0  0  0  0  0  0  0  0  0  0  0  0
   27.1942  -20.0140   -6.4599 S   0  0  0  0  0  0  0  0  0  0  0  0
   26.2792  -20.6862   -7.8965 C   0  0  0  0  0  0  0  0  0  0  0  0
   26.9221  -20.1090   -9.1250 C   0  0  0  0  0  0  0  0  0  0  0  0
   26.2854  -20.5994  -10.4056 C   0  0  2  0  0  0  0  0  0  0  0  0
   26.9453  -20.0495  -11.5738 N   0  0  0  0  0  0  0  0  0  0  0  0
   24.8641  -20.2508  -10.4334 C   0  0  0  0  0  0  0  0  0  0  0  0
   24.5369  -19.1076  -10.9071 O   0  0  0  0  0  0  0  0  0  0  0  0
   23.9147  -21.1191   -9.9682 O   0  0  0  0  0  0  0  0  0  0  0  0
  1  2  1  0
  3  2  1  0
  4  3  1  0
  5  4  1  0
  5  1  1  0
  5  6  1  1
  7  6  2  0
  9  8  1  0
  9 10  1  0
 10 12  1  0
 10 11  1  1
 12 13  1  6
 13  6  1  0
 14 15  2  0
 14 12  1  0
 17 16  1  0
 18 19  1  0
 18 17  1  0
 20 19  1  1
 20 21  1  0
 21 14  1  0
 22 20  1  0
 23 22  2  0
 24 22  1  0
M  END
$$$$
