PIM.pdb
     RDKit          3D

 24 24  0  0  1  0  0  0  0  0999 V2000
   27.3383  -22.9470  -16.1574 N   0  0  0  0  0  0  0  0  0  0  0  0
   27.6125  -23.5423  -17.4424 C   0  0  0  0  0  0  0  0  0  0  0  0
   28.6161  -22.6692  -18.1327 C   0  0  0  0  0  0  0  0  0  0  0  0
   29.0427  -21.6556  -17.0818 C   0  0  0  0  0  0  0  0  0  0  0  0
   28.5236  -22.2288  -15.7854 C   0  0  1  0  0  0  0  0  0  0  0  0
   28.2487  -21.1751  -14.7701 C   0  0  0  0  0  0  0  0  0  0  0  0
   29.1658  -20.4769  -14.2666 O   0  0  0  0  0  0  0  0  0  0  0  0
   24.6017  -17.7262  -16.0392 C   0  0  0  0  0  0  0  0  0  0  0  0
   25.8030  -18.3104  -15.3459 C   0  0  0  0  0  0  0  0  0  0  0  0
   25.5056  -19.0713  -14.1174 C   0  0  2  0  0  0  0  0  0  0  0  0
   24.8582  -18.0821  -13.1345 C   0  0  0  0  0  0  0  0  0  0  0  0
   26.6255  -19.7835  -13.4383 C   0  0  2  0  0  0  0  0  0  0  0  0
   26.9347  -20.9222  -14.3340 N   0  0  0  0  0  0  0  0  0  0  0  0
   26.2722  -20.2867  -12.1033 C   0  0  0  0  0  0  0  0  0  0  0  0
   25.6470  -21.3966  -12.0341 O   0  0  0  0  0  0  0  0  0  0  0  0
   28.6489  -20.5486   -4.5850 C   0  0  0  0  0  0  0  0  0  0  0  0
   28.5349  -19.6327   -6.1626 S   0  0  0  0  0  0  0  0  0  0  0  0
   27.3501  -20.4782   -7.2735 C   0  0  0  0  0  0  0  0  0  0  0  0
   27.4065  -19.7590   -8.5908 C   0  0  0  0  0  0  0  0  0  0  0  0
   26.5290  -20.3956   -9.6446 C   0  0  2  0  0  0  0  0  0  0  0  0
   26.5660  -19.6527  -10.8893 N   0  0  0  0  0  0  0  0  0  0  0  0
   25.1481  -20.4895   -9.1684 C   0  0  0  0  0  0  0  0  0  0  0  0
   24.8594  -21.4299   -8.3494 O   0  0  0  0  0  0  0  0  0  0  0  0
   24.1954  -19.6004   -9.5850 O   0  0  0  0  0  0  0  0  0  0  0  0
  1  2  1  0
  3  2  1  0
  4  3  1  0
  5  4  1  0
  5  1  1  0
  5  6  1  1
  7  6  2  0
  9  8  1  0
  9 10  1  0
 10 12  1  0
 10 11  1  1
 12 13  1  6
 13  6  1  0
 14 15  2  0
 14 12  1  0
 17 16  1  0
 18 19  1  0
 18 17  1  0
 20 19  1  1
 20 21  1  0
 21 14  1  0
 22 20  1  0
 23 22  2  0
 24 22  1  0
M  END
$$$$
