PIM.pdb
     RDKit          3D

 24 24  0  0  1  0  0  0  0  0999 V2000
   28.5286  -20.4897  -15.6529 N   0  0  0  0  0  0  0  0  0  0  0  0
   28.9721  -19.5289  -16.6332 C   0  0  0  0  0  0  0  0  0  0  0  0
   28.0075  -18.3825  -16.6012 C   0  0  0  0  0  0  0  0  0  0  0  0
   27.1080  -18.6599  -15.4063 C   0  0  0  0  0  0  0  0  0  0  0  0
   27.8320  -19.7436  -14.6445 C   0  0  1  0  0  0  0  0  0  0  0  0
   26.9032  -20.5967  -13.8531 C   0  0  0  0  0  0  0  0  0  0  0  0
   26.5860  -21.7575  -14.2194 O   0  0  0  0  0  0  0  0  0  0  0  0
   26.6454  -20.2699   -8.3875 C   0  0  0  0  0  0  0  0  0  0  0  0
   26.5090  -20.9039   -9.7456 C   0  0  0  0  0  0  0  0  0  0  0  0
   25.3591  -20.4333  -10.5412 C   0  0  2  0  0  0  0  0  0  0  0  0
   24.0940  -20.8690   -9.7838 C   0  0  0  0  0  0  0  0  0  0  0  0
   25.2589  -20.8668  -11.9640 C   0  0  2  0  0  0  0  0  0  0  0  0
   26.3414  -20.1254  -12.6519 N   0  0  0  0  0  0  0  0  0  0  0  0
   23.9662  -20.5414  -12.5832 C   0  0  0  0  0  0  0  0  0  0  0  0
   23.6494  -19.3096  -12.6822 O   0  0  0  0  0  0  0  0  0  0  0  0
   20.9012  -24.2412  -16.5564 C   0  0  0  0  0  0  0  0  0  0  0  0
   19.7469  -22.8378  -16.7526 S   0  0  0  0  0  0  0  0  0  0  0  0
   20.1250  -21.5581  -15.4987 C   0  0  0  0  0  0  0  0  0  0  0  0
   21.3805  -21.9967  -14.8009 C   0  0  0  0  0  0  0  0  0  0  0  0
   21.8299  -21.0230  -13.7351 C   0  0  2  0  0  0  0  0  0  0  0  0
   23.0443  -21.4708  -13.0816 N   0  0  0  0  0  0  0  0  0  0  0  0
   20.7745  -20.8367  -12.7382 C   0  0  0  0  0  0  0  0  0  0  0  0
   20.7906  -21.5871  -11.7013 O   0  0  0  0  0  0  0  0  0  0  0  0
   19.8012  -19.8905  -12.9085 O   0  0  0  0  0  0  0  0  0  0  0  0
  1  2  1  0
  3  2  1  0
  4  3  1  0
  5  4  1  0
  5  1  1  0
  5  6  1  6
  7  6  2  0
  9  8  1  0
  9 10  1  0
 10 12  1  0
 10 11  1  1
 12 13  1  6
 13  6  1  0
 14 15  2  0
 14 12  1  0
 17 16  1  0
 18 19  1  0
 18 17  1  0
 20 19  1  6
 20 21  1  0
 21 14  1  0
 22 20  1  0
 23 22  2  0
 24 22  1  0
M  END
$$$$
