PIM.pdb
     RDKit          3D

 24 24  0  0  1  0  0  0  0  0999 V2000
   13.3203  -25.7896  -10.5913 N   0  0  0  0  0  0  0  0  0  0  0  0
   12.0579  -25.3572  -11.1389 C   0  0  0  0  0  0  0  0  0  0  0  0
   11.2181  -24.8750   -9.9952 C   0  0  0  0  0  0  0  0  0  0  0  0
   12.1532  -24.8733   -8.7954 C   0  0  0  0  0  0  0  0  0  0  0  0
   13.5287  -25.0164   -9.4007 C   0  0  1  0  0  0  0  0  0  0  0  0
   14.4927  -25.6644   -8.4693 C   0  0  0  0  0  0  0  0  0  0  0  0
   14.5704  -26.9142   -8.3511 O   0  0  0  0  0  0  0  0  0  0  0  0
   19.3630  -24.1922   -8.8333 C   0  0  0  0  0  0  0  0  0  0  0  0
   18.2119  -25.0892   -8.4652 C   0  0  0  0  0  0  0  0  0  0  0  0
   17.6427  -24.8553   -7.1243 C   0  0  2  0  0  0  0  0  0  0  0  0
   18.7211  -25.2728   -6.1111 C   0  0  0  0  0  0  0  0  0  0  0  0
   16.3535  -25.5188   -6.7778 C   0  0  2  0  0  0  0  0  0  0  0  0
   15.3611  -24.8884   -7.6791 N   0  0  0  0  0  0  0  0  0  0  0  0
   15.9503  -25.3153   -5.3791 C   0  0  0  0  0  0  0  0  0  0  0  0
   15.7523  -24.1175   -4.9873 O   0  0  0  0  0  0  0  0  0  0  0  0
   12.3478  -29.5473   -2.9987 C   0  0  0  0  0  0  0  0  0  0  0  0
   11.7242  -27.8531   -2.7136 S   0  0  0  0  0  0  0  0  0  0  0  0
   12.9406  -26.6412   -3.3498 C   0  0  0  0  0  0  0  0  0  0  0  0
   14.2223  -26.8869   -2.6066 C   0  0  0  0  0  0  0  0  0  0  0  0
   15.3527  -26.0003   -3.0777 C   0  0  2  0  0  0  0  0  0  0  0  0
   15.7592  -26.3280   -4.4305 N   0  0  0  0  0  0  0  0  0  0  0  0
   16.5005  -26.1169   -2.1770 C   0  0  0  0  0  0  0  0  0  0  0  0
   17.5347  -26.7399   -2.6021 O   0  0  0  0  0  0  0  0  0  0  0  0
   16.4697  -25.5772   -0.9202 O   0  0  0  0  0  0  0  0  0  0  0  0
  1  2  1  0
  3  2  1  0
  4  3  1  0
  5  4  1  0
  5  1  1  0
  5  6  1  1
  7  6  2  0
  9  8  1  0
  9 10  1  0
 10 12  1  0
 10 11  1  1
 12 13  1  6
 13  6  1  0
 14 15  2  0
 14 12  1  0
 17 16  1  0
 18 19  1  0
 18 17  1  0
 20 19  1  1
 20 21  1  0
 21 14  1  0
 22 20  1  0
 23 22  2  0
 24 22  1  0
M  END
$$$$
