HAD.pdb
     RDKit          3D

 24 24  0  0  1  0  0  0  0  0999 V2000
   19.6439  -13.8086  -17.1755 N   0  0  0  0  0  0  0  0  0  0  0  0
   19.4951  -12.3887  -17.4273 C   0  0  1  0  0  0  0  0  0  0  0  0
   18.7520  -11.7805  -16.2388 C   0  0  0  0  0  0  0  0  0  0  0  0
   17.3298  -12.2370  -16.2106 C   0  0  0  0  0  0  0  0  0  0  0  0
   16.7645  -13.1076  -17.1153 C   0  0  0  0  0  0  0  0  0  0  0  0
   15.4804  -13.2712  -16.7595 N   0  0  0  0  0  0  0  0  0  0  0  0
   15.2226  -12.5355  -15.6666 C   0  0  0  0  0  0  0  0  0  0  0  0
   16.3650  -11.9061  -15.3400 N   0  0  0  0  0  0  0  0  0  0  0  0
   20.8026  -11.6969  -17.5041 C   0  0  0  0  0  0  0  0  0  0  0  0
   21.6496  -11.9334  -16.6288 O   0  0  0  0  0  0  0  0  0  0  0  0
   22.7566   -9.5986  -19.9469 C   0  0  0  0  0  0  0  0  0  0  0  0
   22.3905  -10.0807  -18.5835 C   0  0  2  0  0  0  0  0  0  0  0  0
   21.1398  -10.7748  -18.5286 N   0  0  0  0  0  0  0  0  0  0  0  0
   22.4520   -8.9330  -17.6406 C   0  0  0  0  0  0  0  0  0  0  0  0
   23.5164   -8.2895  -17.4634 O   0  0  0  0  0  0  0  0  0  0  0  0
   21.3006   -8.5174  -16.8987 N   0  0  0  0  0  0  0  0  0  0  0  0
   21.3113   -7.4834  -15.9184 C   0  0  1  0  0  0  0  0  0  0  0  0
   20.5662   -6.2322  -16.3367 C   0  0  0  0  0  0  0  0  0  0  0  0
   20.5199   -5.2146  -15.2757 C   0  0  0  0  0  0  0  0  0  0  0  0
   21.1250   -5.3930  -14.2044 O   0  0  0  0  0  0  0  0  0  0  0  0
   20.7226   -7.9938  -14.6618 C   0  0  0  0  0  0  0  0  0  0  0  0
   20.1360   -9.2436  -14.6397 O   0  0  0  0  0  0  0  0  0  0  0  0
   19.8016   -4.0572  -15.4710 O   0  0  0  0  0  0  0  0  0  0  0  0
   20.7446   -7.3124  -13.6099 O   0  0  0  0  0  0  0  0  0  0  0  0
  2  1  1  1
  3  2  1  0
  3  4  1  0
  4  8  1  0
  5  4  2  0
  5  6  1  0
  6  7  1  0
  8  7  2  0
  9 10  2  0
  9  2  1  0
 12 11  1  6
 12 13  1  0
 12 14  1  0
 13  9  1  0
 14 16  1  0
 15 14  2  0
 16 17  1  0
 17 21  1  0
 17 18  1  6
 19 18  1  0
 20 19  2  0
 21 24  2  0
 21 22  1  0
 23 19  1  0
M  END
$$$$
