HAD.pdb
     RDKit          3D

 24 24  0  0  1  0  0  0  0  0999 V2000
   19.1239  -13.2316  -16.6531 N   0  0  0  0  0  0  0  0  0  0  0  0
   18.2893  -12.0786  -16.3776 C   0  0  1  0  0  0  0  0  0  0  0  0
   17.8443  -12.1640  -14.9184 C   0  0  0  0  0  0  0  0  0  0  0  0
   16.8733  -13.2824  -14.7231 C   0  0  0  0  0  0  0  0  0  0  0  0
   16.4016  -14.0995  -15.7260 C   0  0  0  0  0  0  0  0  0  0  0  0
   15.5559  -14.9750  -15.1598 N   0  0  0  0  0  0  0  0  0  0  0  0
   15.4817  -14.7352  -13.8410 C   0  0  0  0  0  0  0  0  0  0  0  0
   16.2942  -13.6948  -13.5860 N   0  0  0  0  0  0  0  0  0  0  0  0
   19.0346  -10.8061  -16.5159 C   0  0  0  0  0  0  0  0  0  0  0  0
   20.1939  -10.7486  -16.0776 O   0  0  0  0  0  0  0  0  0  0  0  0
   18.6658   -7.5431  -18.3744 C   0  0  0  0  0  0  0  0  0  0  0  0
   19.2383   -8.4407  -17.3295 C   0  0  2  0  0  0  0  0  0  0  0  0
   18.4920   -9.6450  -17.1249 N   0  0  0  0  0  0  0  0  0  0  0  0
   19.4205   -7.6586  -16.0784 C   0  0  0  0  0  0  0  0  0  0  0  0
   18.5512   -7.6654  -15.1713 O   0  0  0  0  0  0  0  0  0  0  0  0
   20.5935   -6.8680  -15.8596 N   0  0  0  0  0  0  0  0  0  0  0  0
   20.8202   -6.0788  -14.6952 C   0  0  1  0  0  0  0  0  0  0  0  0
   22.2772   -5.7363  -14.4590 C   0  0  0  0  0  0  0  0  0  0  0  0
   22.4849   -4.9363  -13.2423 C   0  0  0  0  0  0  0  0  0  0  0  0
   22.4109   -3.6959  -13.2833 O   0  0  0  0  0  0  0  0  0  0  0  0
   20.0436   -4.8246  -14.7947 C   0  0  0  0  0  0  0  0  0  0  0  0
   19.3238   -4.3778  -13.7043 O   0  0  0  0  0  0  0  0  0  0  0  0
   22.7629   -5.5660  -12.0508 O   0  0  0  0  0  0  0  0  0  0  0  0
   20.0242   -4.1542  -15.8537 O   0  0  0  0  0  0  0  0  0  0  0  0
  2  1  1  1
  3  2  1  0
  3  4  1  0
  4  8  1  0
  5  4  2  0
  5  6  1  0
  6  7  1  0
  8  7  2  0
  9 10  2  0
  9  2  1  0
 12 11  1  6
 12 13  1  0
 12 14  1  0
 13  9  1  0
 14 16  1  0
 15 14  2  0
 16 17  1  0
 17 21  1  0
 17 18  1  6
 19 18  1  0
 20 19  2  0
 21 24  2  0
 21 22  1  0
 23 19  1  0
M  END
$$$$
