HAD.pdb
     RDKit          3D

 24 24  0  0  1  0  0  0  0  0999 V2000
   18.0459  -11.1346  -15.4995 N   0  0  0  0  0  0  0  0  0  0  0  0
   18.9030  -10.3159  -16.3343 C   0  0  1  0  0  0  0  0  0  0  0  0
   18.1284   -9.9791  -17.6076 C   0  0  0  0  0  0  0  0  0  0  0  0
   17.8887  -11.2066  -18.4247 C   0  0  0  0  0  0  0  0  0  0  0  0
   18.8755  -12.0419  -18.8986 C   0  0  0  0  0  0  0  0  0  0  0  0
   18.2687  -13.0249  -19.5825 N   0  0  0  0  0  0  0  0  0  0  0  0
   16.9400  -12.8348  -19.5535 C   0  0  0  0  0  0  0  0  0  0  0  0
   16.7201  -11.7164  -18.8404 N   0  0  0  0  0  0  0  0  0  0  0  0
   19.2368   -9.0240  -15.6913 C   0  0  0  0  0  0  0  0  0  0  0  0
   18.3442   -8.4215  -15.0751 O   0  0  0  0  0  0  0  0  0  0  0  0
   22.2971   -6.8917  -15.0409 C   0  0  0  0  0  0  0  0  0  0  0  0
   20.8354   -7.1611  -15.1693 C   0  0  2  0  0  0  0  0  0  0  0  0
   20.5272   -8.4361  -15.7425 N   0  0  0  0  0  0  0  0  0  0  0  0
   20.2069   -6.0333  -15.9064 C   0  0  0  0  0  0  0  0  0  0  0  0
   19.7577   -6.1830  -17.0702 O   0  0  0  0  0  0  0  0  0  0  0  0
   20.0895   -4.7338  -15.3179 N   0  0  0  0  0  0  0  0  0  0  0  0
   19.5372   -3.6015  -15.9834 C   0  0  1  0  0  0  0  0  0  0  0  0
   18.1037   -3.7928  -16.4354 C   0  0  0  0  0  0  0  0  0  0  0  0
   17.5397   -2.5904  -17.0674 C   0  0  0  0  0  0  0  0  0  0  0  0
   18.2486   -1.5869  -17.2577 O   0  0  0  0  0  0  0  0  0  0  0  0
   19.6043   -2.4264  -15.0885 C   0  0  0  0  0  0  0  0  0  0  0  0
   19.3125   -1.1714  -15.5849 O   0  0  0  0  0  0  0  0  0  0  0  0
   16.2181   -2.5768  -17.4504 O   0  0  0  0  0  0  0  0  0  0  0  0
   19.9223   -2.5456  -13.8819 O   0  0  0  0  0  0  0  0  0  0  0  0
  2  1  1  1
  3  2  1  0
  3  4  1  0
  4  8  1  0
  5  4  2  0
  5  6  1  0
  6  7  1  0
  8  7  2  0
  9 10  2  0
  9  2  1  0
 12 11  1  6
 12 13  1  0
 12 14  1  0
 13  9  1  0
 14 16  1  0
 15 14  2  0
 16 17  1  0
 17 21  1  0
 17 18  1  1
 19 18  1  0
 20 19  2  0
 21 24  2  0
 21 22  1  0
 23 19  1  0
M  END
$$$$
