HAD.pdb
     RDKit          3D

 24 24  0  0  1  0  0  0  0  0999 V2000
   18.0815  -12.4225  -16.5299 N   0  0  0  0  0  0  0  0  0  0  0  0
   19.1100  -11.6503  -17.1990 C   0  0  1  0  0  0  0  0  0  0  0  0
   18.4210  -10.7332  -18.2084 C   0  0  0  0  0  0  0  0  0  0  0  0
   17.7598  -11.5296  -19.2856 C   0  0  0  0  0  0  0  0  0  0  0  0
   18.4242  -12.2262  -20.2701 C   0  0  0  0  0  0  0  0  0  0  0  0
   17.4928  -12.8081  -21.0421 N   0  0  0  0  0  0  0  0  0  0  0  0
   16.2716  -12.5011  -20.5765 C   0  0  0  0  0  0  0  0  0  0  0  0
   16.4492  -11.7165  -19.4992 N   0  0  0  0  0  0  0  0  0  0  0  0
   19.8424  -10.7680  -16.2613 C   0  0  0  0  0  0  0  0  0  0  0  0
   19.1872  -10.0349  -15.5045 O   0  0  0  0  0  0  0  0  0  0  0  0
   23.4189  -10.1653  -15.1632 C   0  0  0  0  0  0  0  0  0  0  0  0
   21.9657   -9.8516  -15.2865 C   0  0  2  0  0  0  0  0  0  0  0  0
   21.2582  -10.7160  -16.1817 N   0  0  0  0  0  0  0  0  0  0  0  0
   21.8174   -8.4149  -15.6385 C   0  0  0  0  0  0  0  0  0  0  0  0
   21.4867   -8.0568  -16.7965 O   0  0  0  0  0  0  0  0  0  0  0  0
   22.0456   -7.3848  -14.6713 N   0  0  0  0  0  0  0  0  0  0  0  0
   21.9140   -5.9918  -14.9403 C   0  0  1  0  0  0  0  0  0  0  0  0
   20.5194   -5.5763  -15.3623 C   0  0  0  0  0  0  0  0  0  0  0  0
   20.3957   -4.1259  -15.5730 C   0  0  0  0  0  0  0  0  0  0  0  0
   19.9998   -3.3871  -14.6548 O   0  0  0  0  0  0  0  0  0  0  0  0
   22.2998   -5.2222  -13.7382 C   0  0  0  0  0  0  0  0  0  0  0  0
   22.7509   -3.9241  -13.8731 O   0  0  0  0  0  0  0  0  0  0  0  0
   20.7207   -3.5837  -16.7953 O   0  0  0  0  0  0  0  0  0  0  0  0
   22.2257   -5.7255  -12.5926 O   0  0  0  0  0  0  0  0  0  0  0  0
  2  1  1  1
  3  2  1  0
  3  4  1  0
  4  8  1  0
  5  4  2  0
  5  6  1  0
  6  7  1  0
  8  7  2  0
  9 10  2  0
  9  2  1  0
 12 11  1  6
 12 13  1  0
 12 14  1  0
 13  9  1  0
 14 16  1  0
 15 14  2  0
 16 17  1  0
 17 21  1  0
 17 18  1  1
 19 18  1  0
 20 19  2  0
 21 24  2  0
 21 22  1  0
 23 19  1  0
M  END
$$$$
