HAD.pdb
     RDKit          3D

 24 24  0  0  1  0  0  0  0  0999 V2000
   27.7401  -11.8247  -18.7094 N   0  0  0  0  0  0  0  0  0  0  0  0
   26.3288  -11.7477  -19.0322 C   0  0  1  0  0  0  0  0  0  0  0  0
   25.6402  -12.9566  -18.4006 C   0  0  0  0  0  0  0  0  0  0  0  0
   26.0776  -14.2231  -19.0612 C   0  0  0  0  0  0  0  0  0  0  0  0
   26.9719  -14.2980  -20.1054 C   0  0  0  0  0  0  0  0  0  0  0  0
   27.1070  -15.5961  -20.4200 N   0  0  0  0  0  0  0  0  0  0  0  0
   26.3304  -16.3346  -19.6113 C   0  0  0  0  0  0  0  0  0  0  0  0
   25.7044  -15.4807  -18.7827 N   0  0  0  0  0  0  0  0  0  0  0  0
   25.6888  -10.5466  -18.4477 C   0  0  0  0  0  0  0  0  0  0  0  0
   25.9139  -10.2758  -17.2580 O   0  0  0  0  0  0  0  0  0  0  0  0
   23.8951   -7.4681  -19.6461 C   0  0  0  0  0  0  0  0  0  0  0  0
   24.2499   -8.4982  -18.6270 C   0  0  2  0  0  0  0  0  0  0  0  0
   24.8289   -9.6858  -19.1778 N   0  0  0  0  0  0  0  0  0  0  0  0
   23.0499   -8.7772  -17.7949 C   0  0  0  0  0  0  0  0  0  0  0  0
   22.2349   -9.6813  -18.1062 O   0  0  0  0  0  0  0  0  0  0  0  0
   22.7774   -8.0261  -16.6073 N   0  0  0  0  0  0  0  0  0  0  0  0
   21.6473   -8.2413  -15.7667 C   0  0  1  0  0  0  0  0  0  0  0  0
   21.9825   -8.3046  -14.2904 C   0  0  0  0  0  0  0  0  0  0  0  0
   20.8151   -8.6214  -13.4537 C   0  0  0  0  0  0  0  0  0  0  0  0
   19.7375   -8.9558  -13.9757 O   0  0  0  0  0  0  0  0  0  0  0  0
   20.6600   -7.1631  -15.9877 C   0  0  0  0  0  0  0  0  0  0  0  0
   21.0404   -5.8450  -15.8306 O   0  0  0  0  0  0  0  0  0  0  0  0
   20.9172   -8.5467  -12.0834 O   0  0  0  0  0  0  0  0  0  0  0  0
   19.4782   -7.4211  -16.3165 O   0  0  0  0  0  0  0  0  0  0  0  0
  2  1  1  1
  3  2  1  0
  3  4  1  0
  4  8  1  0
  5  4  2  0
  5  6  1  0
  6  7  1  0
  8  7  2  0
  9 10  2  0
  9  2  1  0
 12 11  1  6
 12 13  1  0
 12 14  1  0
 13  9  1  0
 14 16  1  0
 15 14  2  0
 16 17  1  0
 17 21  1  0
 17 18  1  1
 19 18  1  0
 20 19  2  0
 21 24  2  0
 21 22  1  0
 23 19  1  0
M  END
$$$$
