HAD.pdb
     RDKit          3D

 24 24  0  0  1  0  0  0  0  0999 V2000
   18.6974  -13.0760  -16.8426 N   0  0  0  0  0  0  0  0  0  0  0  0
   19.6396  -12.0083  -17.1150 C   0  0  1  0  0  0  0  0  0  0  0  0
   18.8601  -10.8435  -17.7235 C   0  0  0  0  0  0  0  0  0  0  0  0
   18.3392  -11.2016  -19.0772 C   0  0  0  0  0  0  0  0  0  0  0  0
   19.0402  -11.0578  -20.2536 C   0  0  0  0  0  0  0  0  0  0  0  0
   18.2424  -11.4843  -21.2455 N   0  0  0  0  0  0  0  0  0  0  0  0
   17.0696  -11.8890  -20.7326 C   0  0  0  0  0  0  0  0  0  0  0  0
   17.1418  -11.7105  -19.4020 N   0  0  0  0  0  0  0  0  0  0  0  0
   20.2688  -11.4919  -15.8775 C   0  0  0  0  0  0  0  0  0  0  0  0
   19.5542  -11.3182  -14.8782 O   0  0  0  0  0  0  0  0  0  0  0  0
   23.7250  -10.8551  -14.5097 C   0  0  0  0  0  0  0  0  0  0  0  0
   22.2501  -10.6464  -14.5898 C   0  0  2  0  0  0  0  0  0  0  0  0
   21.6501  -11.1841  -15.7730 N   0  0  0  0  0  0  0  0  0  0  0  0
   21.9639   -9.1988  -14.4080 C   0  0  0  0  0  0  0  0  0  0  0  0
   22.3393   -8.5829  -13.3793 O   0  0  0  0  0  0  0  0  0  0  0  0
   21.2498   -8.4518  -15.3983 N   0  0  0  0  0  0  0  0  0  0  0  0
   20.8534   -7.0921  -15.2426 C   0  0  1  0  0  0  0  0  0  0  0  0
   21.5354   -6.1392  -16.2032 C   0  0  0  0  0  0  0  0  0  0  0  0
   21.0067   -4.7693  -16.1190 C   0  0  0  0  0  0  0  0  0  0  0  0
   20.1018   -4.4913  -15.3131 O   0  0  0  0  0  0  0  0  0  0  0  0
   19.3894   -6.9852  -15.4206 C   0  0  0  0  0  0  0  0  0  0  0  0
   18.6487   -6.2162  -14.5452 O   0  0  0  0  0  0  0  0  0  0  0  0
   21.5179   -3.7890  -16.9383 O   0  0  0  0  0  0  0  0  0  0  0  0
   18.8029   -7.5812  -16.3545 O   0  0  0  0  0  0  0  0  0  0  0  0
  2  1  1  1
  3  2  1  0
  3  4  1  0
  4  8  1  0
  5  4  2  0
  5  6  1  0
  6  7  1  0
  8  7  2  0
  9 10  2  0
  9  2  1  0
 12 11  1  6
 12 13  1  0
 12 14  1  0
 13  9  1  0
 14 16  1  0
 15 14  2  0
 16 17  1  0
 17 21  1  0
 17 18  1  6
 19 18  1  0
 20 19  2  0
 21 24  2  0
 21 22  1  0
 23 19  1  0
M  END
$$$$
