HAD.pdb
     RDKit          3D

 24 24  0  0  1  0  0  0  0  0999 V2000
   25.9077    2.5059   -0.3137 N   0  0  0  0  0  0  0  0  0  0  0  0
   26.7172    1.6884   -1.1958 C   0  0  1  0  0  0  0  0  0  0  0  0
   25.7701    0.8499   -2.0530 C   0  0  0  0  0  0  0  0  0  0  0  0
   25.1025   -0.2046   -1.2320 C   0  0  0  0  0  0  0  0  0  0  0  0
   23.7484   -0.2757   -0.9921 C   0  0  0  0  0  0  0  0  0  0  0  0
   23.5383   -1.3534   -0.2197 N   0  0  0  0  0  0  0  0  0  0  0  0
   24.7103   -1.9579    0.0318 C   0  0  0  0  0  0  0  0  0  0  0  0
   25.6616   -1.2436   -0.5946 N   0  0  0  0  0  0  0  0  0  0  0  0
   27.5191    2.5074   -2.1339 C   0  0  0  0  0  0  0  0  0  0  0  0
   27.0224    3.5532   -2.5800 O   0  0  0  0  0  0  0  0  0  0  0  0
   31.0250    2.5369   -3.5749 C   0  0  0  0  0  0  0  0  0  0  0  0
   29.5879    2.9281   -3.4910 C   0  0  2  0  0  0  0  0  0  0  0  0
   28.8298    2.1590   -2.5515 N   0  0  0  0  0  0  0  0  0  0  0  0
   29.0063    2.8988   -4.8589 C   0  0  0  0  0  0  0  0  0  0  0  0
   28.2653    1.9560   -5.2337 O   0  0  0  0  0  0  0  0  0  0  0  0
   29.2686    3.9440   -5.8011 N   0  0  0  0  0  0  0  0  0  0  0  0
   28.7758    3.9579   -7.1379 C   0  0  1  0  0  0  0  0  0  0  0  0
   27.4268    4.6312   -7.2887 C   0  0  0  0  0  0  0  0  0  0  0  0
   26.9610    4.6688   -8.6832 C   0  0  0  0  0  0  0  0  0  0  0  0
   27.0806    5.7049   -9.3601 O   0  0  0  0  0  0  0  0  0  0  0  0
   29.7524    4.6411   -8.0129 C   0  0  0  0  0  0  0  0  0  0  0  0
   29.5833    4.6077   -9.3829 O   0  0  0  0  0  0  0  0  0  0  0  0
   26.3889    3.5491   -9.2421 O   0  0  0  0  0  0  0  0  0  0  0  0
   30.7363    5.2535   -7.5351 O   0  0  0  0  0  0  0  0  0  0  0  0
  2  1  1  1
  3  2  1  0
  3  4  1  0
  4  8  1  0
  5  4  2  0
  5  6  1  0
  6  7  1  0
  8  7  2  0
  9 10  2  0
  9  2  1  0
 12 11  1  6
 12 13  1  0
 12 14  1  0
 13  9  1  0
 14 16  1  0
 15 14  2  0
 16 17  1  0
 17 21  1  0
 17 18  1  1
 19 18  1  0
 20 19  2  0
 21 24  2  0
 21 22  1  0
 23 19  1  0
M  END
$$$$
