HAD.pdb
     RDKit          3D

 24 24  0  0  1  0  0  0  0  0999 V2000
   19.2808  -13.6424  -17.5928 N   0  0  0  0  0  0  0  0  0  0  0  0
   18.4905  -12.6856  -16.8434 C   0  0  1  0  0  0  0  0  0  0  0  0
   18.5844  -13.0605  -15.3651 C   0  0  0  0  0  0  0  0  0  0  0  0
   17.6906  -14.2157  -15.0515 C   0  0  0  0  0  0  0  0  0  0  0  0
   16.8737  -14.8486  -15.9615 C   0  0  0  0  0  0  0  0  0  0  0  0
   16.2332  -15.8290  -15.3051 N   0  0  0  0  0  0  0  0  0  0  0  0
   16.6195  -15.8321  -14.0194 C   0  0  0  0  0  0  0  0  0  0  0  0
   17.5134  -14.8379  -13.8769 N   0  0  0  0  0  0  0  0  0  0  0  0
   19.0232  -11.3087  -16.9625 C   0  0  0  0  0  0  0  0  0  0  0  0
   20.2526  -11.1448  -16.9285 O   0  0  0  0  0  0  0  0  0  0  0  0
   17.7462   -7.9499  -18.0660 C   0  0  0  0  0  0  0  0  0  0  0  0
   18.7140   -8.8530  -17.3782 C   0  0  2  0  0  0  0  0  0  0  0  0
   18.2002  -10.1627  -17.1139 N   0  0  0  0  0  0  0  0  0  0  0  0
   19.2109   -8.1732  -16.1530 C   0  0  0  0  0  0  0  0  0  0  0  0
   18.7392   -8.4419  -15.0199 O   0  0  0  0  0  0  0  0  0  0  0  0
   20.2458   -7.1865  -16.2178 N   0  0  0  0  0  0  0  0  0  0  0  0
   20.6999   -6.4293  -15.0996 C   0  0  1  0  0  0  0  0  0  0  0  0
   22.0879   -5.8472  -15.2742 C   0  0  0  0  0  0  0  0  0  0  0  0
   22.5122   -5.0305  -14.1269 C   0  0  0  0  0  0  0  0  0  0  0  0
   22.2632   -5.3974  -12.9655 O   0  0  0  0  0  0  0  0  0  0  0  0
   19.7489   -5.3285  -14.8346 C   0  0  0  0  0  0  0  0  0  0  0  0
   19.3989   -5.0258  -13.5337 O   0  0  0  0  0  0  0  0  0  0  0  0
   23.1896   -3.8520  -14.3415 O   0  0  0  0  0  0  0  0  0  0  0  0
   19.2507   -4.6604  -15.7709 O   0  0  0  0  0  0  0  0  0  0  0  0
  2  1  1  6
  3  2  1  0
  3  4  1  0
  4  8  1  0
  5  4  2  0
  5  6  1  0
  6  7  1  0
  8  7  2  0
  9 10  2  0
  9  2  1  0
 12 11  1  1
 12 13  1  0
 12 14  1  0
 13  9  1  0
 14 16  1  0
 15 14  2  0
 16 17  1  0
 17 21  1  0
 17 18  1  6
 19 18  1  0
 20 19  2  0
 21 24  2  0
 21 22  1  0
 23 19  1  0
M  END
$$$$
