HAD.pdb
     RDKit          3D

 24 24  0  0  1  0  0  0  0  0999 V2000
   17.1408  -11.3407  -14.8141 N   0  0  0  0  0  0  0  0  0  0  0  0
   18.2175  -10.9749  -15.7133 C   0  0  1  0  0  0  0  0  0  0  0  0
   17.6020  -10.2344  -16.8997 C   0  0  0  0  0  0  0  0  0  0  0  0
   16.7498  -11.1515  -17.7149 C   0  0  0  0  0  0  0  0  0  0  0  0
   16.6335  -12.5081  -17.5098 C   0  0  0  0  0  0  0  0  0  0  0  0
   15.7839  -12.9782  -18.4367 N   0  0  0  0  0  0  0  0  0  0  0  0
   15.3653  -11.9661  -19.2131 C   0  0  0  0  0  0  0  0  0  0  0  0
   15.9649  -10.8513  -18.7600 N   0  0  0  0  0  0  0  0  0  0  0  0
   19.1747  -10.0366  -15.0830 C   0  0  0  0  0  0  0  0  0  0  0  0
   18.7268   -9.1192  -14.3778 O   0  0  0  0  0  0  0  0  0  0  0  0
   22.9342   -9.6019  -14.8015 C   0  0  0  0  0  0  0  0  0  0  0  0
   21.5039   -9.1997  -14.6671 C   0  0  2  0  0  0  0  0  0  0  0  0
   20.5815  -10.1307  -15.2429 N   0  0  0  0  0  0  0  0  0  0  0  0
   21.3438   -7.8241  -15.2076 C   0  0  0  0  0  0  0  0  0  0  0  0
   21.1754   -7.6202  -16.4358 O   0  0  0  0  0  0  0  0  0  0  0  0
   21.3755   -6.6793  -14.3489 N   0  0  0  0  0  0  0  0  0  0  0  0
   21.2874   -5.3331  -14.8072 C   0  0  1  0  0  0  0  0  0  0  0  0
   19.8936   -4.7449  -14.7226 C   0  0  0  0  0  0  0  0  0  0  0  0
   19.8089   -3.3939  -15.2978 C   0  0  0  0  0  0  0  0  0  0  0  0
   20.8068   -2.8675  -15.8201 O   0  0  0  0  0  0  0  0  0  0  0  0
   22.2125   -4.4871  -14.0232 C   0  0  0  0  0  0  0  0  0  0  0  0
   22.8430   -5.0114  -12.9122 O   0  0  0  0  0  0  0  0  0  0  0  0
   18.6164   -2.7084  -15.2571 O   0  0  0  0  0  0  0  0  0  0  0  0
   22.4381   -3.2974  -14.3471 O   0  0  0  0  0  0  0  0  0  0  0  0
  2  1  1  1
  3  2  1  0
  3  4  1  0
  4  8  1  0
  5  4  2  0
  5  6  1  0
  6  7  1  0
  8  7  2  0
  9 10  2  0
  9  2  1  0
 12 11  1  6
 12 13  1  0
 12 14  1  0
 13  9  1  0
 14 16  1  0
 15 14  2  0
 16 17  1  0
 17 21  1  0
 17 18  1  1
 19 18  1  0
 20 19  2  0
 21 24  2  0
 21 22  1  0
 23 19  1  0
M  END
$$$$
