HAD.pdb
     RDKit          3D

 24 24  0  0  1  0  0  0  0  0999 V2000
   22.6018  -10.2244  -15.3805 N   0  0  0  0  0  0  0  0  0  0  0  0
   21.7836   -9.0587  -15.6518 C   0  0  1  0  0  0  0  0  0  0  0  0
   20.4419   -9.2577  -14.9483 C   0  0  0  0  0  0  0  0  0  0  0  0
   19.6436  -10.3279  -15.6184 C   0  0  0  0  0  0  0  0  0  0  0  0
   20.0511  -11.0371  -16.7261 C   0  0  0  0  0  0  0  0  0  0  0  0
   19.0689  -11.9011  -17.0277 N   0  0  0  0  0  0  0  0  0  0  0  0
   18.0632  -11.7580  -16.1499 C   0  0  0  0  0  0  0  0  0  0  0  0
   18.4281  -10.7902  -15.2909 N   0  0  0  0  0  0  0  0  0  0  0  0
   22.3733   -7.8216  -15.0898 C   0  0  0  0  0  0  0  0  0  0  0  0
   22.8811   -7.8689  -13.9587 O   0  0  0  0  0  0  0  0  0  0  0  0
   23.7102   -4.5840  -16.3038 C   0  0  0  0  0  0  0  0  0  0  0  0
   23.0209   -5.4032  -15.2650 C   0  0  2  0  0  0  0  0  0  0  0  0
   22.3889   -6.5807  -15.7779 N   0  0  0  0  0  0  0  0  0  0  0  0
   22.0819   -4.5281  -14.5149 C   0  0  0  0  0  0  0  0  0  0  0  0
   22.4786   -3.4808  -13.9455 O   0  0  0  0  0  0  0  0  0  0  0  0
   20.6899   -4.8457  -14.4128 N   0  0  0  0  0  0  0  0  0  0  0  0
   19.6546   -3.8741  -14.2936 C   0  0  1  0  0  0  0  0  0  0  0  0
   19.6526   -2.8390  -15.4002 C   0  0  0  0  0  0  0  0  0  0  0  0
   18.5905   -1.8344  -15.2393 C   0  0  0  0  0  0  0  0  0  0  0  0
   17.4776   -2.0037  -15.7669 O   0  0  0  0  0  0  0  0  0  0  0  0
   18.3428   -4.5560  -14.2734 C   0  0  0  0  0  0  0  0  0  0  0  0
   17.2466   -3.9135  -13.7331 O   0  0  0  0  0  0  0  0  0  0  0  0
   18.8312   -0.6993  -14.4995 O   0  0  0  0  0  0  0  0  0  0  0  0
   18.2036   -5.7115  -14.7390 O   0  0  0  0  0  0  0  0  0  0  0  0
  2  1  1  1
  3  2  1  0
  3  4  1  0
  4  8  1  0
  5  4  2  0
  5  6  1  0
  6  7  1  0
  8  7  2  0
  9 10  2  0
  9  2  1  0
 12 11  1  6
 12 13  1  0
 12 14  1  0
 13  9  1  0
 14 16  1  0
 15 14  2  0
 16 17  1  0
 17 21  1  0
 17 18  1  6
 19 18  1  0
 20 19  2  0
 21 24  2  0
 21 22  1  0
 23 19  1  0
M  END
$$$$
