HAD.pdb
     RDKit          3D

 24 24  0  0  1  0  0  0  0  0999 V2000
   45.9489  -10.7691   -8.9826 N   0  0  0  0  0  0  0  0  0  0  0  0
   44.5781  -10.6578   -8.5239 C   0  0  1  0  0  0  0  0  0  0  0  0
   44.4038   -9.2693   -7.9104 C   0  0  0  0  0  0  0  0  0  0  0  0
   45.2385   -9.1228   -6.6802 C   0  0  0  0  0  0  0  0  0  0  0  0
   46.0794   -8.0636   -6.4211 C   0  0  0  0  0  0  0  0  0  0  0  0
   46.6494   -8.2923   -5.2274 N   0  0  0  0  0  0  0  0  0  0  0  0
   46.1962   -9.4546   -4.7314 C   0  0  0  0  0  0  0  0  0  0  0  0
   45.3316   -9.9539   -5.6319 N   0  0  0  0  0  0  0  0  0  0  0  0
   43.6086  -10.7489   -9.6400 C   0  0  0  0  0  0  0  0  0  0  0  0
   43.9146  -10.2464  -10.7324 O   0  0  0  0  0  0  0  0  0  0  0  0
   40.3762  -12.5160  -10.4500 C   0  0  0  0  0  0  0  0  0  0  0  0
   41.3877  -11.4286  -10.5910 C   0  0  2  0  0  0  0  0  0  0  0  0
   42.3438  -11.3823   -9.5267 N   0  0  0  0  0  0  0  0  0  0  0  0
   40.6751  -10.1375  -10.7791 C   0  0  0  0  0  0  0  0  0  0  0  0
   39.9313   -9.9406  -11.7724 O   0  0  0  0  0  0  0  0  0  0  0  0
   40.8094   -9.0695   -9.8356 N   0  0  0  0  0  0  0  0  0  0  0  0
   40.1528   -7.8105   -9.9540 C   0  0  1  0  0  0  0  0  0  0  0  0
   39.5056   -7.3317   -8.6704 C   0  0  0  0  0  0  0  0  0  0  0  0
   38.8901   -6.0025   -8.8035 C   0  0  0  0  0  0  0  0  0  0  0  0
   38.6984   -5.5063   -9.9272 O   0  0  0  0  0  0  0  0  0  0  0  0
   41.1237   -6.7927  -10.4095 C   0  0  0  0  0  0  0  0  0  0  0  0
   42.3529   -6.6941   -9.7882 O   0  0  0  0  0  0  0  0  0  0  0  0
   38.5242   -5.3039   -7.6758 O   0  0  0  0  0  0  0  0  0  0  0  0
   40.8535   -6.0128  -11.3529 O   0  0  0  0  0  0  0  0  0  0  0  0
  2  1  1  6
  3  2  1  0
  3  4  1  0
  4  8  1  0
  5  4  2  0
  5  6  1  0
  6  7  1  0
  8  7  2  0
  9 10  2  0
  9  2  1  0
 12 11  1  1
 12 13  1  0
 12 14  1  0
 13  9  1  0
 14 16  1  0
 15 14  2  0
 16 17  1  0
 17 21  1  0
 17 18  1  1
 19 18  1  0
 20 19  2  0
 21 24  2  0
 21 22  1  0
 23 19  1  0
M  END
$$$$
