HAD.pdb
     RDKit          3D

 24 24  0  0  1  0  0  0  0  0999 V2000
   21.4412  -15.1089  -18.6773 N   0  0  0  0  0  0  0  0  0  0  0  0
   20.7723  -13.8608  -18.9886 C   0  0  1  0  0  0  0  0  0  0  0  0
   19.3271  -13.9742  -18.5057 C   0  0  0  0  0  0  0  0  0  0  0  0
   18.5758  -14.9855  -19.3087 C   0  0  0  0  0  0  0  0  0  0  0  0
   17.7932  -14.6970  -20.4043 C   0  0  0  0  0  0  0  0  0  0  0  0
   17.2895  -15.8591  -20.8492 N   0  0  0  0  0  0  0  0  0  0  0  0
   17.7282  -16.8625  -20.0727 C   0  0  0  0  0  0  0  0  0  0  0  0
   18.5162  -16.3135  -19.1317 N   0  0  0  0  0  0  0  0  0  0  0  0
   21.3684  -12.7142  -18.2649 C   0  0  0  0  0  0  0  0  0  0  0  0
   21.5796  -12.8277  -17.0476 O   0  0  0  0  0  0  0  0  0  0  0  0
   22.9562   -9.3856  -19.0942 C   0  0  0  0  0  0  0  0  0  0  0  0
   22.3152  -10.3909  -18.1976 C   0  0  2  0  0  0  0  0  0  0  0  0
   21.7122  -11.4882  -18.8913 N   0  0  0  0  0  0  0  0  0  0  0  0
   21.3631   -9.6874  -17.2982 C   0  0  0  0  0  0  0  0  0  0  0  0
   20.1657   -9.5022  -17.6307 O   0  0  0  0  0  0  0  0  0  0  0  0
   21.7745   -9.1942  -16.0191 N   0  0  0  0  0  0  0  0  0  0  0  0
   20.9194   -8.4958  -15.1184 C   0  0  1  0  0  0  0  0  0  0  0  0
   21.2442   -8.7288  -13.6569 C   0  0  0  0  0  0  0  0  0  0  0  0
   20.2888   -8.0757  -12.7493 C   0  0  0  0  0  0  0  0  0  0  0  0
   19.2986   -7.4755  -13.2020 O   0  0  0  0  0  0  0  0  0  0  0  0
   20.9910   -7.0460  -15.3996 C   0  0  0  0  0  0  0  0  0  0  0  0
   19.8351   -6.2907  -15.3948 O   0  0  0  0  0  0  0  0  0  0  0  0
   20.4930   -8.1298  -11.3895 O   0  0  0  0  0  0  0  0  0  0  0  0
   22.0848   -6.4844  -15.6436 O   0  0  0  0  0  0  0  0  0  0  0  0
  2  1  1  1
  3  2  1  0
  3  4  1  0
  4  8  1  0
  5  4  2  0
  5  6  1  0
  6  7  1  0
  8  7  2  0
  9 10  2  0
  9  2  1  0
 12 11  1  6
 12 13  1  0
 12 14  1  0
 13  9  1  0
 14 16  1  0
 15 14  2  0
 16 17  1  0
 17 21  1  0
 17 18  1  1
 19 18  1  0
 20 19  2  0
 21 24  2  0
 21 22  1  0
 23 19  1  0
M  END
$$$$
