HAD.pdb
     RDKit          3D

 24 24  0  0  1  0  0  0  0  0999 V2000
   21.7900  -12.3598  -19.7580 N   0  0  0  0  0  0  0  0  0  0  0  0
   22.7834  -11.3862  -19.3494 C   0  0  1  0  0  0  0  0  0  0  0  0
   22.8411  -10.3010  -20.4235 C   0  0  0  0  0  0  0  0  0  0  0  0
   23.3739  -10.8504  -21.7065 C   0  0  0  0  0  0  0  0  0  0  0  0
   22.6499  -10.9726  -22.8714 C   0  0  0  0  0  0  0  0  0  0  0  0
   23.4685  -11.5032  -23.7936 N   0  0  0  0  0  0  0  0  0  0  0  0
   24.6766  -11.7169  -23.2483 C   0  0  0  0  0  0  0  0  0  0  0  0
   24.6053  -11.3124  -21.9681 N   0  0  0  0  0  0  0  0  0  0  0  0
   22.4116  -10.7079  -18.0862 C   0  0  0  0  0  0  0  0  0  0  0  0
   21.2162  -10.4424  -17.8867 O   0  0  0  0  0  0  0  0  0  0  0  0
   23.8421  -10.1480  -14.6943 C   0  0  0  0  0  0  0  0  0  0  0  0
   22.9871   -9.7358  -15.8451 C   0  0  2  0  0  0  0  0  0  0  0  0
   23.3526  -10.3440  -17.0883 N   0  0  0  0  0  0  0  0  0  0  0  0
   22.9684   -8.2509  -15.9160 C   0  0  0  0  0  0  0  0  0  0  0  0
   23.8620   -7.6149  -16.5288 O   0  0  0  0  0  0  0  0  0  0  0  0
   21.9315   -7.4894  -15.2886 N   0  0  0  0  0  0  0  0  0  0  0  0
   21.8762   -6.0656  -15.2837 C   0  0  1  0  0  0  0  0  0  0  0  0
   20.5448   -5.5006  -15.7353 C   0  0  0  0  0  0  0  0  0  0  0  0
   20.3564   -5.5795  -17.1918 C   0  0  0  0  0  0  0  0  0  0  0  0
   20.4371   -6.6721  -17.7796 O   0  0  0  0  0  0  0  0  0  0  0  0
   22.1704   -5.5687  -13.9226 C   0  0  0  0  0  0  0  0  0  0  0  0
   22.5711   -4.2594  -13.7445 O   0  0  0  0  0  0  0  0  0  0  0  0
   20.0891   -4.4355  -17.9083 O   0  0  0  0  0  0  0  0  0  0  0  0
   22.0633   -6.3147  -12.9209 O   0  0  0  0  0  0  0  0  0  0  0  0
  2  1  1  6
  3  2  1  0
  3  4  1  0
  4  8  1  0
  5  4  2  0
  5  6  1  0
  6  7  1  0
  8  7  2  0
  9 10  2  0
  9  2  1  0
 12 11  1  1
 12 13  1  0
 12 14  1  0
 13  9  1  0
 14 16  1  0
 15 14  2  0
 16 17  1  0
 17 21  1  0
 17 18  1  1
 19 18  1  0
 20 19  2  0
 21 24  2  0
 21 22  1  0
 23 19  1  0
M  END
$$$$
