QMG.pdb
     RDKit          3D

 22 21  0  0  1  0  0  0  0  0999 V2000
    9.4200  -13.0542   17.9810 N   0  0  0  0  0  0  0  0  0  0  0  0
    8.1804  -13.7188   17.6654 C   0  0  0  0  0  0  0  0  0  0  0  0
    7.9053  -13.9754   16.4680 O   0  0  0  0  0  0  0  0  0  0  0  0
    7.2922  -14.0675   18.7735 C   0  0  0  0  0  0  0  0  0  0  0  0
    7.9189  -13.7144   20.0879 C   0  0  0  0  0  0  0  0  0  0  0  0
    8.3402  -14.9178   20.8652 C   0  0  2  0  0  0  0  0  0  0  0  0
    7.2256  -15.8473   20.9218 N   0  0  0  0  0  0  0  0  0  0  0  0
    8.7023  -14.4378   22.2363 C   0  0  0  0  0  0  0  0  0  0  0  0
    9.5633  -13.5615   22.3661 O   0  0  0  0  0  0  0  0  0  0  0  0
    6.2793  -10.8456   25.9883 C   0  0  0  0  0  0  0  0  0  0  0  0
    5.9154  -12.3323   26.9834 S   0  0  0  0  0  0  0  0  0  0  0  0
    7.1744  -13.5878   26.6885 C   0  0  0  0  0  0  0  0  0  0  0  0
    7.2130  -14.0277   25.2837 C   0  0  0  0  0  0  0  0  0  0  0  0
    8.4512  -14.5804   24.7065 C   0  0  2  0  0  0  0  0  0  0  0  0
    8.0481  -15.0025   23.3338 N   0  0  0  0  0  0  0  0  0  0  0  0
    9.0523  -15.7697   25.3123 C   0  0  0  0  0  0  0  0  0  0  0  0
    9.1561  -15.8978   26.5493 O   0  0  0  0  0  0  0  0  0  0  0  0
    9.5572  -16.8554   24.5331 N   0  0  0  0  0  0  0  0  0  0  0  0
   10.1740  -18.0220   25.1282 C   0  0  0  0  0  0  0  0  0  0  0  0
   11.6378  -17.8683   25.2692 C   0  0  0  0  0  0  0  0  0  0  0  0
   12.3917  -18.9281   25.7393 O   0  0  0  0  0  0  0  0  0  0  0  0
   12.1690  -16.7639   24.9543 O   0  0  0  0  0  0  0  0  0  0  0  0
  1  2  1  0
  2  3  2  0
  4  5  1  0
  4  2  1  0
  6  8  1  0
  6  5  1  0
  6  7  1  1
  8 15  1  0
  9  8  2  0
 10 11  1  0
 11 12  1  0
 12 13  1  0
 14 13  1  1
 14 16  1  0
 15 14  1  0
 16 17  2  0
 16 18  1  0
 18 19  1  0
 20 21  1  0
 20 19  1  0
 22 20  2  0
M  END
$$$$
