QMG.pdb
     RDKit          3D

 22 21  0  0  1  0  0  0  0  0999 V2000
    6.9247  -20.7421   20.5115 N   0  0  0  0  0  0  0  0  0  0  0  0
    7.7095  -21.1258   21.6582 C   0  0  0  0  0  0  0  0  0  0  0  0
    8.5331  -22.0672   21.5551 O   0  0  0  0  0  0  0  0  0  0  0  0
    7.5047  -20.3864   22.9030 C   0  0  0  0  0  0  0  0  0  0  0  0
    6.4143  -19.3710   22.7445 C   0  0  0  0  0  0  0  0  0  0  0  0
    6.1936  -18.5669   23.9833 C   0  0  2  0  0  0  0  0  0  0  0  0
    4.7857  -18.6326   24.3344 N   0  0  0  0  0  0  0  0  0  0  0  0
    6.5959  -17.1616   23.6600 C   0  0  0  0  0  0  0  0  0  0  0  0
    6.2126  -16.6470   22.6043 O   0  0  0  0  0  0  0  0  0  0  0  0
    6.9524  -11.0697   26.6590 C   0  0  0  0  0  0  0  0  0  0  0  0
    6.1948  -12.6651   27.1211 S   0  0  0  0  0  0  0  0  0  0  0  0
    6.2329  -13.7898   25.7134 C   0  0  0  0  0  0  0  0  0  0  0  0
    7.5822  -14.3174   25.4503 C   0  0  0  0  0  0  0  0  0  0  0  0
    7.8568  -15.0947   24.2289 C   0  0  2  0  0  0  0  0  0  0  0  0
    7.3992  -16.4725   24.5716 N   0  0  0  0  0  0  0  0  0  0  0  0
    9.2406  -15.2513   23.7783 C   0  0  0  0  0  0  0  0  0  0  0  0
    9.9236  -14.2785   23.3981 O   0  0  0  0  0  0  0  0  0  0  0  0
    9.8971  -16.5196   23.7437 N   0  0  0  0  0  0  0  0  0  0  0  0
   11.2292  -16.6941   23.2046 C   0  0  0  0  0  0  0  0  0  0  0  0
   12.2763  -16.4926   24.2288 C   0  0  0  0  0  0  0  0  0  0  0  0
   13.6071  -16.4993   23.8527 O   0  0  0  0  0  0  0  0  0  0  0  0
   11.9275  -16.3176   25.4325 O   0  0  0  0  0  0  0  0  0  0  0  0
  1  2  1  0
  2  3  2  0
  4  5  1  0
  4  2  1  0
  6  8  1  0
  6  5  1  0
  6  7  1  6
  8 15  1  0
  9  8  2  0
 10 11  1  0
 11 12  1  0
 12 13  1  0
 14 13  1  1
 14 16  1  0
 15 14  1  0
 16 17  2  0
 16 18  1  0
 18 19  1  0
 20 21  1  0
 20 19  1  0
 22 20  2  0
M  END
$$$$
