QMG.pdb
     RDKit          3D

 22 21  0  0  1  0  0  0  0  0999 V2000
    8.4040  -13.0532   16.8864 N   0  0  0  0  0  0  0  0  0  0  0  0
    7.5022  -13.8103   17.7181 C   0  0  0  0  0  0  0  0  0  0  0  0
    6.3582  -13.3550   17.9615 O   0  0  0  0  0  0  0  0  0  0  0  0
    7.9722  -15.0914   18.2434 C   0  0  0  0  0  0  0  0  0  0  0  0
    8.9849  -14.8817   19.3276 C   0  0  0  0  0  0  0  0  0  0  0  0
    8.9114  -15.9262   20.3923 C   0  0  2  0  0  0  0  0  0  0  0  0
    7.5670  -16.4757   20.4112 N   0  0  0  0  0  0  0  0  0  0  0  0
    9.2244  -15.2421   21.6867 C   0  0  0  0  0  0  0  0  0  0  0  0
   10.2675  -14.5888   21.7925 O   0  0  0  0  0  0  0  0  0  0  0  0
    5.8692  -11.9572   27.6354 C   0  0  0  0  0  0  0  0  0  0  0  0
    6.4351  -11.9633   25.8997 S   0  0  0  0  0  0  0  0  0  0  0  0
    7.7890  -13.1365   25.7029 C   0  0  0  0  0  0  0  0  0  0  0  0
    7.6897  -13.9065   24.4517 C   0  0  0  0  0  0  0  0  0  0  0  0
    8.7230  -14.8958   24.0980 C   0  0  2  0  0  0  0  0  0  0  0  0
    8.3176  -15.3667   22.7419 N   0  0  0  0  0  0  0  0  0  0  0  0
    8.8529  -16.1114   24.9030 C   0  0  0  0  0  0  0  0  0  0  0  0
    7.8623  -16.8027   25.2163 O   0  0  0  0  0  0  0  0  0  0  0  0
   10.1135  -16.5840   25.3807 N   0  0  0  0  0  0  0  0  0  0  0  0
   10.4923  -16.5209   26.7765 C   0  0  0  0  0  0  0  0  0  0  0  0
   10.1470  -17.7604   27.5048 C   0  0  0  0  0  0  0  0  0  0  0  0
    9.4137  -18.7437   26.8661 O   0  0  0  0  0  0  0  0  0  0  0  0
   10.5333  -17.8926   28.7024 O   0  0  0  0  0  0  0  0  0  0  0  0
  1  2  1  0
  2  3  2  0
  4  5  1  0
  4  2  1  0
  6  8  1  0
  6  5  1  0
  6  7  1  1
  8 15  1  0
  9  8  2  0
 10 11  1  0
 11 12  1  0
 12 13  1  0
 14 13  1  1
 14 16  1  0
 15 14  1  0
 16 17  2  0
 16 18  1  0
 18 19  1  0
 20 21  1  0
 20 19  1  0
 22 20  2  0
M  END
$$$$
