QMG.pdb
     RDKit          3D

 22 21  0  0  1  0  0  0  0  0999 V2000
    8.8257  -12.6810   17.9301 N   0  0  0  0  0  0  0  0  0  0  0  0
    7.9721  -13.7757   17.5417 C   0  0  0  0  0  0  0  0  0  0  0  0
    7.7115  -13.9540   16.3270 O   0  0  0  0  0  0  0  0  0  0  0  0
    7.4455  -14.6381   18.5987 C   0  0  0  0  0  0  0  0  0  0  0  0
    7.9859  -14.2303   19.9354 C   0  0  0  0  0  0  0  0  0  0  0  0
    8.3948  -15.3989   20.7705 C   0  0  2  0  0  0  0  0  0  0  0  0
    7.2631  -16.3011   20.8918 N   0  0  0  0  0  0  0  0  0  0  0  0
    8.7859  -14.8538   22.1088 C   0  0  0  0  0  0  0  0  0  0  0  0
    9.7307  -14.0620   22.1905 O   0  0  0  0  0  0  0  0  0  0  0  0
    6.6241  -12.5578   27.7491 C   0  0  0  0  0  0  0  0  0  0  0  0
    6.1690  -11.9083   26.1048 S   0  0  0  0  0  0  0  0  0  0  0  0
    7.1129  -12.7615   24.8284 C   0  0  0  0  0  0  0  0  0  0  0  0
    7.3980  -14.1626   25.1805 C   0  0  0  0  0  0  0  0  0  0  0  0
    8.5485  -14.8647   24.5845 C   0  0  2  0  0  0  0  0  0  0  0  0
    8.0625  -15.2628   23.2317 N   0  0  0  0  0  0  0  0  0  0  0  0
    9.0258  -16.1038   25.2005 C   0  0  0  0  0  0  0  0  0  0  0  0
    8.4126  -17.1828   25.0701 O   0  0  0  0  0  0  0  0  0  0  0  0
   10.2171  -16.1601   25.9869 N   0  0  0  0  0  0  0  0  0  0  0  0
   10.7880  -17.4071   26.4500 C   0  0  0  0  0  0  0  0  0  0  0  0
   10.2437  -17.8165   27.7623 C   0  0  0  0  0  0  0  0  0  0  0  0
    9.7066  -19.0820   27.9120 O   0  0  0  0  0  0  0  0  0  0  0  0
   10.2828  -16.9940   28.7231 O   0  0  0  0  0  0  0  0  0  0  0  0
  1  2  1  0
  2  3  2  0
  4  5  1  0
  4  2  1  0
  6  8  1  0
  6  5  1  0
  6  7  1  1
  8 15  1  0
  9  8  2  0
 10 11  1  0
 11 12  1  0
 12 13  1  0
 14 13  1  1
 14 16  1  0
 15 14  1  0
 16 17  2  0
 16 18  1  0
 18 19  1  0
 20 21  1  0
 20 19  1  0
 22 20  2  0
M  END
$$$$
