QMG.pdb
     RDKit          3D

 22 21  0  0  1  0  0  0  0  0999 V2000
    8.5009  -12.3342   18.0103 N   0  0  0  0  0  0  0  0  0  0  0  0
    8.2474  -13.5905   17.3503 C   0  0  0  0  0  0  0  0  0  0  0  0
    7.9990  -13.6020   16.1201 O   0  0  0  0  0  0  0  0  0  0  0  0
    8.2946  -14.8076   18.1594 C   0  0  0  0  0  0  0  0  0  0  0  0
    8.5516  -14.4791   19.5985 C   0  0  0  0  0  0  0  0  0  0  0  0
    8.6866  -15.6980   20.4507 C   0  0  2  0  0  0  0  0  0  0  0  0
    7.4768  -16.4911   20.3211 N   0  0  0  0  0  0  0  0  0  0  0  0
    8.8606  -15.2199   21.8587 C   0  0  0  0  0  0  0  0  0  0  0  0
    9.8611  -14.5596   22.1574 O   0  0  0  0  0  0  0  0  0  0  0  0
    7.2907  -11.5004   27.6731 C   0  0  0  0  0  0  0  0  0  0  0  0
    7.7349  -12.3070   26.0966 S   0  0  0  0  0  0  0  0  0  0  0  0
    6.5546  -13.6181   25.7277 C   0  0  0  0  0  0  0  0  0  0  0  0
    6.8048  -14.2500   24.4214 C   0  0  0  0  0  0  0  0  0  0  0  0
    8.0267  -15.0420   24.1950 C   0  0  2  0  0  0  0  0  0  0  0  0
    7.8762  -15.5395   22.7968 N   0  0  0  0  0  0  0  0  0  0  0  0
    8.2619  -16.2387   25.0045 C   0  0  0  0  0  0  0  0  0  0  0  0
    7.4614  -17.1961   25.0127 O   0  0  0  0  0  0  0  0  0  0  0  0
    9.4154  -16.3893   25.8336 N   0  0  0  0  0  0  0  0  0  0  0  0
    9.6249  -17.5479   26.6759 C   0  0  0  0  0  0  0  0  0  0  0  0
   10.9095  -17.4825   27.4051 C   0  0  0  0  0  0  0  0  0  0  0  0
   11.8836  -18.4317   27.1550 O   0  0  0  0  0  0  0  0  0  0  0  0
   11.0878  -16.5538   28.2458 O   0  0  0  0  0  0  0  0  0  0  0  0
  1  2  1  0
  2  3  2  0
  4  5  1  0
  4  2  1  0
  6  8  1  0
  6  5  1  0
  6  7  1  1
  8 15  1  0
  9  8  2  0
 10 11  1  0
 11 12  1  0
 12 13  1  0
 14 13  1  1
 14 16  1  0
 15 14  1  0
 16 17  2  0
 16 18  1  0
 18 19  1  0
 20 21  1  0
 20 19  1  0
 22 20  2  0
M  END
$$$$
