QMG.pdb
     RDKit          3D

 22 21  0  0  1  0  0  0  0  0999 V2000
    9.0455  -12.6100   18.0406 N   0  0  0  0  0  0  0  0  0  0  0  0
    7.9170  -13.4482   17.7214 C   0  0  0  0  0  0  0  0  0  0  0  0
    7.5903  -13.6122   16.5207 O   0  0  0  0  0  0  0  0  0  0  0  0
    7.1990  -14.0763   18.8296 C   0  0  0  0  0  0  0  0  0  0  0  0
    7.8239  -13.7121   20.1419 C   0  0  0  0  0  0  0  0  0  0  0  0
    8.5428  -14.8584   20.7737 C   0  0  2  0  0  0  0  0  0  0  0  0
    7.7629  -16.0661   20.5667 N   0  0  0  0  0  0  0  0  0  0  0  0
    8.6561  -14.5421   22.2326 C   0  0  0  0  0  0  0  0  0  0  0  0
    9.2217  -13.5027   22.5874 O   0  0  0  0  0  0  0  0  0  0  0  0
    6.2513  -11.2409   26.1787 C   0  0  0  0  0  0  0  0  0  0  0  0
    7.4080  -12.4681   26.8780 S   0  0  0  0  0  0  0  0  0  0  0  0
    6.8761  -14.1316   26.4329 C   0  0  0  0  0  0  0  0  0  0  0  0
    7.1213  -14.4407   25.0143 C   0  0  0  0  0  0  0  0  0  0  0  0
    8.3212  -15.1942   24.6092 C   0  0  2  0  0  0  0  0  0  0  0  0
    8.1131  -15.4418   23.1530 N   0  0  0  0  0  0  0  0  0  0  0  0
    8.5653  -16.5148   25.1915 C   0  0  0  0  0  0  0  0  0  0  0  0
    7.7311  -17.4386   25.1017 O   0  0  0  0  0  0  0  0  0  0  0  0
    9.7663  -16.8319   25.8970 N   0  0  0  0  0  0  0  0  0  0  0  0
   10.0149  -18.1397   26.4658 C   0  0  0  0  0  0  0  0  0  0  0  0
   11.3775  -18.2536   27.0281 C   0  0  0  0  0  0  0  0  0  0  0  0
   11.7559  -19.4212   27.6653 O   0  0  0  0  0  0  0  0  0  0  0  0
   12.1698  -17.2738   26.9122 O   0  0  0  0  0  0  0  0  0  0  0  0
  1  2  1  0
  2  3  2  0
  4  5  1  0
  4  2  1  0
  6  8  1  0
  6  5  1  0
  6  7  1  1
  8 15  1  0
  9  8  2  0
 10 11  1  0
 11 12  1  0
 12 13  1  0
 14 13  1  1
 14 16  1  0
 15 14  1  0
 16 17  2  0
 16 18  1  0
 18 19  1  0
 20 21  1  0
 20 19  1  0
 22 20  2  0
M  END
$$$$
