QMG.pdb
     RDKit          3D

 22 21  0  0  1  0  0  0  0  0999 V2000
   10.4910  -18.8373   17.5777 N   0  0  0  0  0  0  0  0  0  0  0  0
   10.8445  -17.9356   18.6455 C   0  0  0  0  0  0  0  0  0  0  0  0
   11.9003  -18.1323   19.2949 O   0  0  0  0  0  0  0  0  0  0  0  0
    9.9420  -16.8188   18.9218 C   0  0  0  0  0  0  0  0  0  0  0  0
    9.2032  -17.0382   20.2068 C   0  0  0  0  0  0  0  0  0  0  0  0
    8.2060  -15.9625   20.4869 C   0  0  2  0  0  0  0  0  0  0  0  0
    8.3829  -14.9004   19.5121 N   0  0  0  0  0  0  0  0  0  0  0  0
    8.4876  -15.4662   21.8709 C   0  0  0  0  0  0  0  0  0  0  0  0
    9.6582  -15.3283   22.2410 O   0  0  0  0  0  0  0  0  0  0  0  0
    7.3872  -11.3231   27.7812 C   0  0  0  0  0  0  0  0  0  0  0  0
    7.7060  -12.0363   26.1312 S   0  0  0  0  0  0  0  0  0  0  0  0
    6.3672  -13.1557   25.6807 C   0  0  0  0  0  0  0  0  0  0  0  0
    6.5525  -13.7466   24.3447 C   0  0  0  0  0  0  0  0  0  0  0  0
    7.6782  -14.6602   24.0801 C   0  0  2  0  0  0  0  0  0  0  0  0
    7.4068  -15.1730   22.7059 N   0  0  0  0  0  0  0  0  0  0  0  0
    7.8383  -15.8549   24.9105 C   0  0  0  0  0  0  0  0  0  0  0  0
    7.0229  -16.7988   24.8706 O   0  0  0  0  0  0  0  0  0  0  0  0
    8.9310  -16.0188   25.8160 N   0  0  0  0  0  0  0  0  0  0  0  0
    9.0752  -17.1848   26.6617 C   0  0  0  0  0  0  0  0  0  0  0  0
   10.2866  -17.1148   27.5065 C   0  0  0  0  0  0  0  0  0  0  0  0
   10.5259  -18.1089   28.4376 O   0  0  0  0  0  0  0  0  0  0  0  0
   11.0804  -16.1409   27.3563 O   0  0  0  0  0  0  0  0  0  0  0  0
  1  2  1  0
  2  3  2  0
  4  5  1  0
  4  2  1  0
  6  8  1  0
  6  5  1  0
  6  7  1  6
  8 15  1  0
  9  8  2  0
 10 11  1  0
 11 12  1  0
 12 13  1  0
 14 13  1  1
 14 16  1  0
 15 14  1  0
 16 17  2  0
 16 18  1  0
 18 19  1  0
 20 21  1  0
 20 19  1  0
 22 20  2  0
M  END
$$$$
