QMG.pdb
     RDKit          3D

 22 21  0  0  1  0  0  0  0  0999 V2000
    7.2067  -12.9703   17.8073 N   0  0  0  0  0  0  0  0  0  0  0  0
    7.9046  -14.1127   17.2727 C   0  0  0  0  0  0  0  0  0  0  0  0
    8.1405  -14.1710   16.0414 O   0  0  0  0  0  0  0  0  0  0  0  0
    8.3103  -15.1623   18.2066 C   0  0  0  0  0  0  0  0  0  0  0  0
    7.7736  -14.8891   19.5786 C   0  0  0  0  0  0  0  0  0  0  0  0
    8.2240  -15.8982   20.5831 C   0  0  2  0  0  0  0  0  0  0  0  0
    7.0728  -16.6747   21.0089 N   0  0  0  0  0  0  0  0  0  0  0  0
    8.8025  -15.1316   21.7315 C   0  0  0  0  0  0  0  0  0  0  0  0
    9.8038  -14.4306   21.5520 O   0  0  0  0  0  0  0  0  0  0  0  0
    6.2591  -11.3209   27.9582 C   0  0  0  0  0  0  0  0  0  0  0  0
    6.0289  -12.4956   26.5798 S   0  0  0  0  0  0  0  0  0  0  0  0
    7.6340  -13.0139   25.9447 C   0  0  0  0  0  0  0  0  0  0  0  0
    7.5171  -13.9090   24.7813 C   0  0  0  0  0  0  0  0  0  0  0  0
    8.7231  -14.4351   24.1178 C   0  0  2  0  0  0  0  0  0  0  0  0
    8.1847  -15.2356   22.9801 N   0  0  0  0  0  0  0  0  0  0  0  0
    9.5989  -15.3510   24.8505 C   0  0  0  0  0  0  0  0  0  0  0  0
   10.3056  -14.9651   25.8039 O   0  0  0  0  0  0  0  0  0  0  0  0
    9.7025  -16.7381   24.5250 N   0  0  0  0  0  0  0  0  0  0  0  0
   10.5635  -17.6476   25.2510 C   0  0  0  0  0  0  0  0  0  0  0  0
    9.8977  -18.2140   26.4434 C   0  0  0  0  0  0  0  0  0  0  0  0
    9.6867  -19.5785   26.5218 O   0  0  0  0  0  0  0  0  0  0  0  0
    9.5346  -17.4318   27.3693 O   0  0  0  0  0  0  0  0  0  0  0  0
  1  2  1  0
  2  3  2  0
  4  5  1  0
  4  2  1  0
  6  8  1  0
  6  5  1  0
  6  7  1  1
  8 15  1  0
  9  8  2  0
 10 11  1  0
 11 12  1  0
 12 13  1  0
 14 13  1  1
 14 16  1  0
 15 14  1  0
 16 17  2  0
 16 18  1  0
 18 19  1  0
 20 21  1  0
 20 19  1  0
 22 20  2  0
M  END
$$$$
