QMG.pdb
     RDKit          3D

 22 21  0  0  1  0  0  0  0  0999 V2000
    9.0982  -17.8297   28.6295 N   0  0  0  0  0  0  0  0  0  0  0  0
    8.5388  -19.0897   29.0509 C   0  0  0  0  0  0  0  0  0  0  0  0
    9.0501  -19.6978   30.0225 O   0  0  0  0  0  0  0  0  0  0  0  0
    7.3847  -19.6037   28.3146 C   0  0  0  0  0  0  0  0  0  0  0  0
    6.8706  -18.5789   27.3499 C   0  0  0  0  0  0  0  0  0  0  0  0
    7.5705  -18.6287   26.0317 C   0  0  2  0  0  0  0  0  0  0  0  0
    9.0037  -18.6073   26.2661 N   0  0  0  0  0  0  0  0  0  0  0  0
    7.1381  -17.4143   25.2703 C   0  0  0  0  0  0  0  0  0  0  0  0
    5.9723  -17.3306   24.8702 O   0  0  0  0  0  0  0  0  0  0  0  0
    6.5327  -11.3393   26.7213 C   0  0  0  0  0  0  0  0  0  0  0  0
    6.5933  -13.0426   27.3754 S   0  0  0  0  0  0  0  0  0  0  0  0
    6.3745  -14.2216   26.0299 C   0  0  0  0  0  0  0  0  0  0  0  0
    7.4622  -14.1544   25.0397 C   0  0  0  0  0  0  0  0  0  0  0  0
    7.7122  -15.2826   24.1251 C   0  0  2  0  0  0  0  0  0  0  0  0
    8.0766  -16.4067   25.0353 N   0  0  0  0  0  0  0  0  0  0  0  0
    8.8143  -15.1932   23.1659 C   0  0  0  0  0  0  0  0  0  0  0  0
    9.8351  -14.5136   23.3971 O   0  0  0  0  0  0  0  0  0  0  0  0
    8.7949  -15.8732   21.9097 N   0  0  0  0  0  0  0  0  0  0  0  0
    9.8765  -15.7750   20.9527 C   0  0  0  0  0  0  0  0  0  0  0  0
    9.6332  -16.5988   19.7493 C   0  0  0  0  0  0  0  0  0  0  0  0
    9.3954  -15.9789   18.5362 O   0  0  0  0  0  0  0  0  0  0  0  0
    9.6485  -17.8593   19.8590 O   0  0  0  0  0  0  0  0  0  0  0  0
  1  2  1  0
  2  3  2  0
  4  5  1  0
  4  2  1  0
  6  8  1  0
  6  5  1  0
  6  7  1  1
  8 15  1  0
  9  8  2  0
 10 11  1  0
 11 12  1  0
 12 13  1  0
 14 13  1  1
 14 16  1  0
 15 14  1  0
 16 17  2  0
 16 18  1  0
 18 19  1  0
 20 21  1  0
 20 19  1  0
 22 20  2  0
M  END
$$$$
