QMG.pdb
     RDKit          3D

 22 21  0  0  1  0  0  0  0  0999 V2000
    9.4839  -13.3645   17.7471 N   0  0  0  0  0  0  0  0  0  0  0  0
    8.1043  -13.7733   17.6601 C   0  0  0  0  0  0  0  0  0  0  0  0
    7.6442  -14.1617   16.5589 O   0  0  0  0  0  0  0  0  0  0  0  0
    7.2978  -13.7155   18.8784 C   0  0  0  0  0  0  0  0  0  0  0  0
    8.1473  -13.3640   20.0616 C   0  0  0  0  0  0  0  0  0  0  0  0
    8.6788  -14.5690   20.7655 C   0  0  2  0  0  0  0  0  0  0  0  0
    7.6998  -15.6368   20.6611 N   0  0  0  0  0  0  0  0  0  0  0  0
    8.8851  -14.1747   22.1949 C   0  0  0  0  0  0  0  0  0  0  0  0
    9.3695  -13.0688   22.4569 O   0  0  0  0  0  0  0  0  0  0  0  0
    6.0042  -11.0567   26.6342 C   0  0  0  0  0  0  0  0  0  0  0  0
    7.2873  -12.3397   26.8356 S   0  0  0  0  0  0  0  0  0  0  0  0
    6.6706  -13.9207   26.2291 C   0  0  0  0  0  0  0  0  0  0  0  0
    7.1314  -14.2183   24.8625 C   0  0  0  0  0  0  0  0  0  0  0  0
    8.5265  -14.6232   24.6148 C   0  0  2  0  0  0  0  0  0  0  0  0
    8.5194  -15.0793   23.1946 N   0  0  0  0  0  0  0  0  0  0  0  0
    9.0909  -15.7406   25.3735 C   0  0  0  0  0  0  0  0  0  0  0  0
    9.7311  -15.5627   26.4298 O   0  0  0  0  0  0  0  0  0  0  0  0
    8.9478  -17.0998   24.9579 N   0  0  0  0  0  0  0  0  0  0  0  0
    9.9481  -17.7826   24.1650 C   0  0  0  0  0  0  0  0  0  0  0  0
   11.1682  -18.0829   24.9443 C   0  0  0  0  0  0  0  0  0  0  0  0
   11.0656  -18.8074   26.1178 O   0  0  0  0  0  0  0  0  0  0  0  0
   12.2840  -17.6672   24.5161 O   0  0  0  0  0  0  0  0  0  0  0  0
  1  2  1  0
  2  3  2  0
  4  5  1  0
  4  2  1  0
  6  8  1  0
  6  5  1  0
  6  7  1  1
  8 15  1  0
  9  8  2  0
 10 11  1  0
 11 12  1  0
 12 13  1  0
 14 13  1  1
 14 16  1  0
 15 14  1  0
 16 17  2  0
 16 18  1  0
 18 19  1  0
 20 21  1  0
 20 19  1  0
 22 20  2  0
M  END
$$$$
