QMG.pdb
     RDKit          3D

 22 21  0  0  1  0  0  0  0  0999 V2000
    8.0096  -17.4579   18.4963 N   0  0  0  0  0  0  0  0  0  0  0  0
    7.9620  -16.3645   17.5581 C   0  0  0  0  0  0  0  0  0  0  0  0
    8.0770  -16.5993   16.3306 O   0  0  0  0  0  0  0  0  0  0  0  0
    7.7778  -15.0156   18.0918 C   0  0  0  0  0  0  0  0  0  0  0  0
    7.6313  -15.0496   19.5826 C   0  0  0  0  0  0  0  0  0  0  0  0
    7.4081  -13.6944   20.1689 C   0  0  2  0  0  0  0  0  0  0  0  0
    8.0402  -12.7077   19.3108 N   0  0  0  0  0  0  0  0  0  0  0  0
    8.0423  -13.7039   21.5250 C   0  0  0  0  0  0  0  0  0  0  0  0
    9.2353  -13.4044   21.6405 O   0  0  0  0  0  0  0  0  0  0  0  0
    6.3753  -10.7278   26.8743 C   0  0  0  0  0  0  0  0  0  0  0  0
    7.6813  -12.0010   26.7958 S   0  0  0  0  0  0  0  0  0  0  0  0
    6.9616  -13.5863   26.3299 C   0  0  0  0  0  0  0  0  0  0  0  0
    6.7510  -13.7041   24.8773 C   0  0  0  0  0  0  0  0  0  0  0  0
    7.8731  -14.0408   23.9833 C   0  0  2  0  0  0  0  0  0  0  0  0
    7.2564  -14.0548   22.6252 N   0  0  0  0  0  0  0  0  0  0  0  0
    8.5289  -15.3423   24.1200 C   0  0  0  0  0  0  0  0  0  0  0  0
    7.8904  -16.4122   24.0490 O   0  0  0  0  0  0  0  0  0  0  0  0
    9.9339  -15.4737   24.3424 N   0  0  0  0  0  0  0  0  0  0  0  0
   10.5885  -16.7596   24.4584 C   0  0  0  0  0  0  0  0  0  0  0  0
   10.4948  -17.3119   25.8267 C   0  0  0  0  0  0  0  0  0  0  0  0
   11.5673  -17.1791   26.6896 O   0  0  0  0  0  0  0  0  0  0  0  0
    9.4289  -17.8964   26.1776 O   0  0  0  0  0  0  0  0  0  0  0  0
  1  2  1  0
  2  3  2  0
  4  5  1  0
  4  2  1  0
  6  8  1  0
  6  5  1  0
  6  7  1  6
  8 15  1  0
  9  8  2  0
 10 11  1  0
 11 12  1  0
 12 13  1  0
 14 13  1  1
 14 16  1  0
 15 14  1  0
 16 17  2  0
 16 18  1  0
 18 19  1  0
 20 21  1  0
 20 19  1  0
 22 20  2  0
M  END
$$$$
