QMG.pdb
     RDKit          3D

 22 21  0  0  1  0  0  0  0  0999 V2000
    7.7232  -17.4041   18.4070 N   0  0  0  0  0  0  0  0  0  0  0  0
    8.3015  -16.3411   17.6235 C   0  0  0  0  0  0  0  0  0  0  0  0
    8.8745  -16.6141   16.5408 O   0  0  0  0  0  0  0  0  0  0  0  0
    8.1886  -14.9766   18.1368 C   0  0  0  0  0  0  0  0  0  0  0  0
    7.4998  -14.9648   19.4674 C   0  0  0  0  0  0  0  0  0  0  0  0
    7.3339  -13.5860   20.0163 C   0  0  2  0  0  0  0  0  0  0  0  0
    8.0523  -12.6569   19.1617 N   0  0  0  0  0  0  0  0  0  0  0  0
    7.9172  -13.6000   21.3950 C   0  0  0  0  0  0  0  0  0  0  0  0
    9.0547  -13.1543   21.5785 O   0  0  0  0  0  0  0  0  0  0  0  0
    7.7882  -11.8045   28.2898 C   0  0  0  0  0  0  0  0  0  0  0  0
    7.7683  -12.0755   26.4845 S   0  0  0  0  0  0  0  0  0  0  0  0
    6.6350  -13.4175   26.0809 C   0  0  0  0  0  0  0  0  0  0  0  0
    6.5099  -13.6319   24.6295 C   0  0  0  0  0  0  0  0  0  0  0  0
    7.6777  -14.0436   23.8304 C   0  0  2  0  0  0  0  0  0  0  0  0
    7.1484  -14.1217   22.4380 N   0  0  0  0  0  0  0  0  0  0  0  0
    8.2901  -15.3491   24.0816 C   0  0  0  0  0  0  0  0  0  0  0  0
    7.6729  -16.4153   23.8827 O   0  0  0  0  0  0  0  0  0  0  0  0
    9.6259  -15.4888   24.5682 N   0  0  0  0  0  0  0  0  0  0  0  0
   10.2481  -16.7786   24.7803 C   0  0  0  0  0  0  0  0  0  0  0  0
   10.1046  -17.2444   26.1762 C   0  0  0  0  0  0  0  0  0  0  0  0
   10.7967  -18.3663   26.5942 O   0  0  0  0  0  0  0  0  0  0  0  0
    9.3473  -16.6012   26.9597 O   0  0  0  0  0  0  0  0  0  0  0  0
  1  2  1  0
  2  3  2  0
  4  5  1  0
  4  2  1  0
  6  8  1  0
  6  5  1  0
  6  7  1  6
  8 15  1  0
  9  8  2  0
 10 11  1  0
 11 12  1  0
 12 13  1  0
 14 13  1  1
 14 16  1  0
 15 14  1  0
 16 17  2  0
 16 18  1  0
 18 19  1  0
 20 21  1  0
 20 19  1  0
 22 20  2  0
M  END
$$$$
