QMG.pdb
     RDKit          3D

 22 21  0  0  1  0  0  0  0  0999 V2000
    6.3185  -20.0545   18.3308 N   0  0  0  0  0  0  0  0  0  0  0  0
    6.0190  -19.9682   19.7382 C   0  0  0  0  0  0  0  0  0  0  0  0
    6.1652  -20.9821   20.4634 O   0  0  0  0  0  0  0  0  0  0  0  0
    5.5540  -18.6834   20.2589 C   0  0  0  0  0  0  0  0  0  0  0  0
    6.6969  -17.7262   20.4095 C   0  0  0  0  0  0  0  0  0  0  0  0
    7.5630  -18.0456   21.5834 C   0  0  2  0  0  0  0  0  0  0  0  0
    6.8587  -18.9860   22.4373 N   0  0  0  0  0  0  0  0  0  0  0  0
    7.8058  -16.7545   22.3013 C   0  0  0  0  0  0  0  0  0  0  0  0
    8.2030  -15.7715   21.6672 O   0  0  0  0  0  0  0  0  0  0  0  0
    6.9848  -11.2448   26.7881 C   0  0  0  0  0  0  0  0  0  0  0  0
    7.0694  -12.5797   25.5457 S   0  0  0  0  0  0  0  0  0  0  0  0
    6.8679  -14.1786   26.3526 C   0  0  0  0  0  0  0  0  0  0  0  0
    6.8495  -15.2955   25.3931 C   0  0  0  0  0  0  0  0  0  0  0  0
    7.9475  -15.4689   24.4256 C   0  0  2  0  0  0  0  0  0  0  0  0
    7.5730  -16.7040   23.6777 N   0  0  0  0  0  0  0  0  0  0  0  0
    9.3026  -15.7165   24.9205 C   0  0  0  0  0  0  0  0  0  0  0  0
    9.5188  -16.4384   25.9153 O   0  0  0  0  0  0  0  0  0  0  0  0
   10.4601  -15.1519   24.3023 N   0  0  0  0  0  0  0  0  0  0  0  0
   11.7856  -15.2721   24.8715 C   0  0  0  0  0  0  0  0  0  0  0  0
   12.5773  -16.3382   24.2214 C   0  0  0  0  0  0  0  0  0  0  0  0
   13.8512  -16.0569   23.7627 O   0  0  0  0  0  0  0  0  0  0  0  0
   12.0670  -17.4897   24.0997 O   0  0  0  0  0  0  0  0  0  0  0  0
  1  2  1  0
  2  3  2  0
  4  5  1  0
  4  2  1  0
  6  8  1  0
  6  5  1  0
  6  7  1  1
  8 15  1  0
  9  8  2  0
 10 11  1  0
 11 12  1  0
 12 13  1  0
 14 13  1  1
 14 16  1  0
 15 14  1  0
 16 17  2  0
 16 18  1  0
 18 19  1  0
 20 21  1  0
 20 19  1  0
 22 20  2  0
M  END
$$$$
