QMG.pdb
     RDKit          3D

 22 21  0  0  1  0  0  0  0  0999 V2000
    7.3888  -12.8922   18.1489 N   0  0  0  0  0  0  0  0  0  0  0  0
    7.9771  -14.0699   17.5615 C   0  0  0  0  0  0  0  0  0  0  0  0
    7.8682  -14.2633   16.3262 O   0  0  0  0  0  0  0  0  0  0  0  0
    8.6834  -14.9938   18.4479 C   0  0  0  0  0  0  0  0  0  0  0  0
    8.5486  -14.5661   19.8776 C   0  0  0  0  0  0  0  0  0  0  0  0
    8.8547  -15.6678   20.8381 C   0  0  2  0  0  0  0  0  0  0  0  0
    7.6999  -16.5448   20.9215 N   0  0  0  0  0  0  0  0  0  0  0  0
    9.1274  -15.0208   22.1603 C   0  0  0  0  0  0  0  0  0  0  0  0
   10.0438  -14.1979   22.2570 O   0  0  0  0  0  0  0  0  0  0  0  0
    6.5213  -11.3878   27.9703 C   0  0  0  0  0  0  0  0  0  0  0  0
    6.6395  -12.0917   26.2900 S   0  0  0  0  0  0  0  0  0  0  0  0
    6.9543  -13.8634   26.3908 C   0  0  0  0  0  0  0  0  0  0  0  0
    7.1718  -14.4730   25.0682 C   0  0  0  0  0  0  0  0  0  0  0  0
    8.5374  -14.6711   24.5509 C   0  0  2  0  0  0  0  0  0  0  0  0
    8.3290  -15.3726   23.2511 N   0  0  0  0  0  0  0  0  0  0  0  0
    9.4682  -15.5179   25.2987 C   0  0  0  0  0  0  0  0  0  0  0  0
   10.1192  -15.0826   26.2703 O   0  0  0  0  0  0  0  0  0  0  0  0
    9.6920  -16.8895   24.9682 N   0  0  0  0  0  0  0  0  0  0  0  0
   10.5775  -17.7418   25.7332 C   0  0  0  0  0  0  0  0  0  0  0  0
    9.9378  -18.2467   26.9668 C   0  0  0  0  0  0  0  0  0  0  0  0
   10.6729  -19.0178   27.8486 O   0  0  0  0  0  0  0  0  0  0  0  0
    8.7255  -17.9593   27.1876 O   0  0  0  0  0  0  0  0  0  0  0  0
  1  2  1  0
  2  3  2  0
  4  5  1  0
  4  2  1  0
  6  8  1  0
  6  5  1  0
  6  7  1  1
  8 15  1  0
  9  8  2  0
 10 11  1  0
 11 12  1  0
 12 13  1  0
 14 13  1  1
 14 16  1  0
 15 14  1  0
 16 17  2  0
 16 18  1  0
 18 19  1  0
 20 21  1  0
 20 19  1  0
 22 20  2  0
M  END
$$$$
