NSG.pdb
     RDKit          3D

 19 18  0  0  1  0  0  0  0  0999 V2000
   22.3024  -12.7722  -18.5238 N   0  0  0  0  0  0  0  0  0  0  0  0
   21.9288  -11.5028  -19.0347 C   0  0  0  0  0  0  0  0  0  0  0  0
   22.3762  -11.1590  -20.1766 O   0  0  0  0  0  0  0  0  0  0  0  0
   21.0659  -10.5278  -18.3728 C   0  0  0  0  0  0  0  0  0  0  0  0
   20.5016  -10.9977  -17.0529 C   0  0  2  0  0  0  0  0  0  0  0  0
   19.3911  -11.8925  -17.3213 N   0  0  0  0  0  0  0  0  0  0  0  0
   20.0464   -9.8280  -16.2463 C   0  0  0  0  0  0  0  0  0  0  0  0
   19.0105   -9.2217  -16.5998 O   0  0  0  0  0  0  0  0  0  0  0  0
   19.9150   -7.7087  -12.0070 O   0  0  0  0  0  0  0  0  0  0  0  0
   20.2181   -8.7451  -12.8903 C   0  0  0  0  0  0  0  0  0  0  0  0
   20.3927   -8.2795  -14.3093 C   0  0  2  0  0  0  0  0  0  0  0  0
   20.7832   -9.4258  -15.1074 N   0  0  0  0  0  0  0  0  0  0  0  0
   21.4518   -7.2476  -14.4610 C   0  0  0  0  0  0  0  0  0  0  0  0
   22.6609   -7.5529  -14.6211 O   0  0  0  0  0  0  0  0  0  0  0  0
   21.1324   -5.8650  -14.4303 N   0  0  0  0  0  0  0  0  0  0  0  0
   22.1721   -4.8689  -14.5590 C   0  0  0  0  0  0  0  0  0  0  0  0
   21.5698   -3.5195  -14.6389 C   0  0  0  0  0  0  0  0  0  0  0  0
   22.3394   -2.3520  -14.6740 O   0  0  0  0  0  0  0  0  0  0  0  0
   20.3106   -3.4053  -14.6775 O   0  0  0  0  0  0  0  0  0  0  0  0
  2  3  2  0
  2  1  1  0
  4  2  1  0
  5  4  1  0
  5  6  1  6
  7  5  1  0
  7  8  2  0
 10  9  1  0
 11 10  1  1
 11 12  1  0
 12  7  1  0
 13 15  1  0
 13 11  1  0
 14 13  2  0
 16 15  1  0
 17 16  1  0
 18 17  1  0
 19 17  2  0
M  END
$$$$
