NSG.pdb
     RDKit          3D

 19 18  0  0  1  0  0  0  0  0999 V2000
   25.2648  -10.2543  -15.2227 N   0  0  0  0  0  0  0  0  0  0  0  0
   25.2612   -9.3051  -16.2767 C   0  0  0  0  0  0  0  0  0  0  0  0
   26.2818   -9.2467  -17.0366 O   0  0  0  0  0  0  0  0  0  0  0  0
   24.1857   -8.3672  -16.5878 C   0  0  0  0  0  0  0  0  0  0  0  0
   23.0373   -8.3968  -15.6071 C   0  0  2  0  0  0  0  0  0  0  0  0
   22.3458   -9.6647  -15.7486 N   0  0  0  0  0  0  0  0  0  0  0  0
   22.1068   -7.2618  -15.8753 C   0  0  0  0  0  0  0  0  0  0  0  0
   21.3346   -7.3378  -16.8570 O   0  0  0  0  0  0  0  0  0  0  0  0
   19.5975   -5.7881  -13.6258 O   0  0  0  0  0  0  0  0  0  0  0  0
   20.4740   -4.7562  -13.9620 C   0  0  0  0  0  0  0  0  0  0  0  0
   21.2178   -5.0076  -15.2444 C   0  0  2  0  0  0  0  0  0  0  0  0
   22.1105   -6.1298  -15.0267 N   0  0  0  0  0  0  0  0  0  0  0  0
   22.0485   -3.8529  -15.6757 C   0  0  0  0  0  0  0  0  0  0  0  0
   23.1794   -3.6228  -15.1768 O   0  0  0  0  0  0  0  0  0  0  0  0
   21.5895   -2.9584  -16.6776 N   0  0  0  0  0  0  0  0  0  0  0  0
   22.4200   -1.8595  -17.1161 C   0  0  0  0  0  0  0  0  0  0  0  0
   22.3598   -0.7577  -16.1299 C   0  0  0  0  0  0  0  0  0  0  0  0
   21.6653   -0.8663  -14.9207 O   0  0  0  0  0  0  0  0  0  0  0  0
   22.9562    0.3294  -16.3798 O   0  0  0  0  0  0  0  0  0  0  0  0
  2  3  2  0
  2  1  1  0
  4  2  1  0
  5  4  1  0
  5  6  1  6
  7  5  1  0
  7  8  2  0
 10  9  1  0
 11 10  1  1
 11 12  1  0
 12  7  1  0
 13 15  1  0
 13 11  1  0
 14 13  2  0
 16 15  1  0
 17 16  1  0
 18 17  1  0
 19 17  2  0
M  END
$$$$
