NSG.pdb
     RDKit          3D

 19 18  0  0  1  0  0  0  0  0999 V2000
   28.2472  -20.9523  -14.9936 N   0  0  0  0  0  0  0  0  0  0  0  0
   27.5374  -19.8432  -15.5209 C   0  0  0  0  0  0  0  0  0  0  0  0
   28.2073  -18.8393  -15.9279 O   0  0  0  0  0  0  0  0  0  0  0  0
   26.0868  -19.7302  -15.6482 C   0  0  0  0  0  0  0  0  0  0  0  0
   25.3284  -20.9472  -15.1736 C   0  0  2  0  0  0  0  0  0  0  0  0
   25.6585  -22.0613  -16.0429 N   0  0  0  0  0  0  0  0  0  0  0  0
   23.8610  -20.6786  -15.2034 C   0  0  0  0  0  0  0  0  0  0  0  0
   23.3501  -20.2532  -16.2634 O   0  0  0  0  0  0  0  0  0  0  0  0
   21.5051  -21.3029  -11.7035 O   0  0  0  0  0  0  0  0  0  0  0  0
   21.0475  -21.5841  -12.9911 C   0  0  0  0  0  0  0  0  0  0  0  0
   21.6443  -20.6861  -14.0391 C   0  0  2  0  0  0  0  0  0  0  0  0
   23.0779  -20.9057  -14.0472 N   0  0  0  0  0  0  0  0  0  0  0  0
   21.4149  -19.2419  -13.7725 C   0  0  0  0  0  0  0  0  0  0  0  0
   22.2027  -18.5615  -13.0673 O   0  0  0  0  0  0  0  0  0  0  0  0
   20.2855  -18.5715  -14.3107 N   0  0  0  0  0  0  0  0  0  0  0  0
   20.0293  -17.1871  -13.9831 C   0  0  0  0  0  0  0  0  0  0  0  0
   18.7709  -16.7426  -14.6228 C   0  0  0  0  0  0  0  0  0  0  0  0
   18.1968  -15.4929  -14.3677 O   0  0  0  0  0  0  0  0  0  0  0  0
   18.1828  -17.5149  -15.4338 O   0  0  0  0  0  0  0  0  0  0  0  0
  2  3  2  0
  2  1  1  0
  4  2  1  0
  5  4  1  0
  5  6  1  6
  7  5  1  0
  7  8  2  0
 10  9  1  0
 11 10  1  1
 11 12  1  0
 12  7  1  0
 13 15  1  0
 13 11  1  0
 14 13  2  0
 16 15  1  0
 17 16  1  0
 18 17  1  0
 19 17  2  0
M  END
$$$$
