NSG.pdb
     RDKit          3D

 19 18  0  0  1  0  0  0  0  0999 V2000
   18.9650  -13.0641  -17.7555 N   0  0  0  0  0  0  0  0  0  0  0  0
   18.6901  -12.0870  -16.7648 C   0  0  0  0  0  0  0  0  0  0  0  0
   17.5195  -12.0512  -16.2642 O   0  0  0  0  0  0  0  0  0  0  0  0
   19.6303  -11.0957  -16.2482 C   0  0  0  0  0  0  0  0  0  0  0  0
   21.0126  -11.1824  -16.8510 C   0  0  2  0  0  0  0  0  0  0  0  0
   21.6284  -12.4203  -16.4103 N   0  0  0  0  0  0  0  0  0  0  0  0
   21.8311  -10.0107  -16.4229 C   0  0  0  0  0  0  0  0  0  0  0  0
   22.2981   -9.9967  -15.2622 O   0  0  0  0  0  0  0  0  0  0  0  0
   24.8471   -8.4332  -18.2898 O   0  0  0  0  0  0  0  0  0  0  0  0
   23.7953   -7.5266  -18.1551 C   0  0  0  0  0  0  0  0  0  0  0  0
   22.9104   -7.8199  -16.9753 C   0  0  2  0  0  0  0  0  0  0  0  0
   22.0648   -8.9454  -17.3241 N   0  0  0  0  0  0  0  0  0  0  0  0
   22.0194   -6.6860  -16.6153 C   0  0  0  0  0  0  0  0  0  0  0  0
   21.0798   -6.3139  -17.3635 O   0  0  0  0  0  0  0  0  0  0  0  0
   22.1991   -5.9746  -15.4003 N   0  0  0  0  0  0  0  0  0  0  0  0
   21.2652   -4.9430  -15.0091 C   0  0  0  0  0  0  0  0  0  0  0  0
   21.5711   -4.4803  -13.6371 C   0  0  0  0  0  0  0  0  0  0  0  0
   20.9056   -3.4054  -13.0388 O   0  0  0  0  0  0  0  0  0  0  0  0
   22.4678   -5.0727  -12.9700 O   0  0  0  0  0  0  0  0  0  0  0  0
  2  3  2  0
  2  1  1  0
  4  2  1  0
  5  4  1  0
  5  6  1  1
  7  5  1  0
  7  8  2  0
 10  9  1  0
 11 10  1  6
 11 12  1  0
 12  7  1  0
 13 15  1  0
 13 11  1  0
 14 13  2  0
 16 15  1  0
 17 16  1  0
 18 17  1  0
 19 17  2  0
M  END
$$$$
