NSG.pdb
     RDKit          3D

 19 18  0  0  1  0  0  0  0  0999 V2000
   17.2933  -11.0293  -18.5452 N   0  0  0  0  0  0  0  0  0  0  0  0
   17.1234  -10.1997  -17.4072 C   0  0  0  0  0  0  0  0  0  0  0  0
   15.9805   -9.6721  -17.2132 O   0  0  0  0  0  0  0  0  0  0  0  0
   18.1452   -9.8804  -16.4136 C   0  0  0  0  0  0  0  0  0  0  0  0
   19.4759  -10.5519  -16.6582 C   0  0  2  0  0  0  0  0  0  0  0  0
   19.4276  -11.8865  -16.0905 N   0  0  0  0  0  0  0  0  0  0  0  0
   20.5721   -9.7572  -16.0314 C   0  0  0  0  0  0  0  0  0  0  0  0
   20.9315  -10.0439  -14.8676 O   0  0  0  0  0  0  0  0  0  0  0  0
   24.1927   -6.6595  -17.0228 O   0  0  0  0  0  0  0  0  0  0  0  0
   23.0969   -7.4351  -17.4022 C   0  0  0  0  0  0  0  0  0  0  0  0
   22.3287   -7.9841  -16.2320 C   0  0  2  0  0  0  0  0  0  0  0  0
   21.1822   -8.7039  -16.7524 N   0  0  0  0  0  0  0  0  0  0  0  0
   21.8169   -6.9279  -15.3199 C   0  0  0  0  0  0  0  0  0  0  0  0
   20.7602   -6.2919  -15.5641 O   0  0  0  0  0  0  0  0  0  0  0  0
   22.5106   -6.5959  -14.1269 N   0  0  0  0  0  0  0  0  0  0  0  0
   22.0421   -5.5218  -13.2806 C   0  0  0  0  0  0  0  0  0  0  0  0
   22.1639   -4.2299  -13.9922 C   0  0  0  0  0  0  0  0  0  0  0  0
   21.2418   -3.8116  -14.9571 O   0  0  0  0  0  0  0  0  0  0  0  0
   23.1362   -3.4660  -13.7254 O   0  0  0  0  0  0  0  0  0  0  0  0
  2  3  2  0
  2  1  1  0
  4  2  1  0
  5  4  1  0
  5  6  1  1
  7  5  1  0
  7  8  2  0
 10  9  1  0
 11 10  1  6
 11 12  1  0
 12  7  1  0
 13 15  1  0
 13 11  1  0
 14 13  2  0
 16 15  1  0
 17 16  1  0
 18 17  1  0
 19 17  2  0
M  END
$$$$
