NSG.pdb
     RDKit          3D

 19 18  0  0  1  0  0  0  0  0999 V2000
   23.7303   -9.3848  -21.5406 N   0  0  0  0  0  0  0  0  0  0  0  0
   23.8393   -9.3730  -20.1264 C   0  0  0  0  0  0  0  0  0  0  0  0
   24.8135   -9.9968  -19.5933 O   0  0  0  0  0  0  0  0  0  0  0  0
   22.9306   -8.7058  -19.1978 C   0  0  0  0  0  0  0  0  0  0  0  0
   22.6139   -9.5093  -17.9586 C   0  0  2  0  0  0  0  0  0  0  0  0
   21.9349  -10.7266  -18.3623 N   0  0  0  0  0  0  0  0  0  0  0  0
   21.7521   -8.7113  -17.0385 C   0  0  0  0  0  0  0  0  0  0  0  0
   20.5340   -8.6005  -17.3022 O   0  0  0  0  0  0  0  0  0  0  0  0
   20.7124   -7.5933  -12.6579 O   0  0  0  0  0  0  0  0  0  0  0  0
   21.3950   -8.2260  -13.6971 C   0  0  0  0  0  0  0  0  0  0  0  0
   21.5054   -7.3777  -14.9337 C   0  0  2  0  0  0  0  0  0  0  0  0
   22.3172   -8.0988  -15.8952 N   0  0  0  0  0  0  0  0  0  0  0  0
   22.1621   -6.0671  -14.6880 C   0  0  0  0  0  0  0  0  0  0  0  0
   23.3970   -5.9711  -14.4719 O   0  0  0  0  0  0  0  0  0  0  0  0
   21.4102   -4.8632  -14.6889 N   0  0  0  0  0  0  0  0  0  0  0  0
   22.0468   -3.6005  -14.3895 C   0  0  0  0  0  0  0  0  0  0  0  0
   21.0751   -2.4959  -14.5496 C   0  0  0  0  0  0  0  0  0  0  0  0
   21.3685   -1.1764  -14.1899 O   0  0  0  0  0  0  0  0  0  0  0  0
   19.9311   -2.7430  -15.0295 O   0  0  0  0  0  0  0  0  0  0  0  0
  2  3  2  0
  2  1  1  0
  4  2  1  0
  5  4  1  0
  5  6  1  6
  7  5  1  0
  7  8  2  0
 10  9  1  0
 11 10  1  1
 11 12  1  0
 12  7  1  0
 13 15  1  0
 13 11  1  0
 14 13  2  0
 16 15  1  0
 17 16  1  0
 18 17  1  0
 19 17  2  0
M  END
$$$$
