NSG.pdb
     RDKit          3D

 19 18  0  0  1  0  0  0  0  0999 V2000
   28.5345  -19.3184  -16.8134 N   0  0  0  0  0  0  0  0  0  0  0  0
   27.5261  -18.6251  -16.0963 C   0  0  0  0  0  0  0  0  0  0  0  0
   27.3326  -17.3958  -16.3679 O   0  0  0  0  0  0  0  0  0  0  0  0
   26.6682  -19.1864  -15.0560 C   0  0  0  0  0  0  0  0  0  0  0  0
   27.0703  -20.5703  -14.6038 C   0  0  2  0  0  0  0  0  0  0  0  0
   27.0348  -21.4566  -15.7523 N   0  0  0  0  0  0  0  0  0  0  0  0
   26.1381  -21.0523  -13.5432 C   0  0  0  0  0  0  0  0  0  0  0  0
   25.1777  -21.7827  -13.8749 O   0  0  0  0  0  0  0  0  0  0  0  0
   27.3910  -21.5445   -9.7484 O   0  0  0  0  0  0  0  0  0  0  0  0
   26.1613  -20.8900   -9.8240 C   0  0  0  0  0  0  0  0  0  0  0  0
   25.4566  -21.1070  -11.1345 C   0  0  2  0  0  0  0  0  0  0  0  0
   26.3504  -20.6816  -12.1945 N   0  0  0  0  0  0  0  0  0  0  0  0
   24.2034  -20.3181  -11.2631 C   0  0  0  0  0  0  0  0  0  0  0  0
   24.1790  -19.1936  -11.8251 O   0  0  0  0  0  0  0  0  0  0  0  0
   22.9753  -20.8116  -10.7504 N   0  0  0  0  0  0  0  0  0  0  0  0
   21.7700  -20.0191  -10.8438 C   0  0  0  0  0  0  0  0  0  0  0  0
   20.9096  -20.5367  -11.9310 C   0  0  0  0  0  0  0  0  0  0  0  0
   19.5361  -20.2797  -11.9918 O   0  0  0  0  0  0  0  0  0  0  0  0
   21.4260  -21.2405  -12.8466 O   0  0  0  0  0  0  0  0  0  0  0  0
  2  3  2  0
  2  1  1  0
  4  2  1  0
  5  4  1  0
  5  6  1  6
  7  5  1  0
  7  8  2  0
 10  9  1  0
 11 10  1  1
 11 12  1  0
 12  7  1  0
 13 15  1  0
 13 11  1  0
 14 13  2  0
 16 15  1  0
 17 16  1  0
 18 17  1  0
 19 17  2  0
M  END
$$$$
