NSG.pdb
     RDKit          3D

 19 18  0  0  1  0  0  0  0  0999 V2000
   17.5890  -13.4844  -16.1147 N   0  0  0  0  0  0  0  0  0  0  0  0
   18.0730  -12.6134  -15.1052 C   0  0  0  0  0  0  0  0  0  0  0  0
   17.5438  -12.6807  -13.9487 O   0  0  0  0  0  0  0  0  0  0  0  0
   19.1381  -11.6256  -15.2577 C   0  0  0  0  0  0  0  0  0  0  0  0
   19.6650  -11.4978  -16.6675 C   0  0  2  0  0  0  0  0  0  0  0  0
   20.4132  -12.6991  -16.9882 N   0  0  0  0  0  0  0  0  0  0  0  0
   20.5382  -10.2933  -16.7794 C   0  0  0  0  0  0  0  0  0  0  0  0
   21.7747  -10.4339  -16.6482 O   0  0  0  0  0  0  0  0  0  0  0  0
   18.7727   -6.4874  -17.3602 O   0  0  0  0  0  0  0  0  0  0  0  0
   19.9819   -6.8294  -17.9661 C   0  0  0  0  0  0  0  0  0  0  0  0
   20.7756   -7.8323  -17.1754 C   0  0  2  0  0  0  0  0  0  0  0  0
   19.9634   -9.0249  -17.0292 N   0  0  0  0  0  0  0  0  0  0  0  0
   21.1237   -7.3585  -15.8102 C   0  0  0  0  0  0  0  0  0  0  0  0
   20.4104   -7.6270  -14.8101 O   0  0  0  0  0  0  0  0  0  0  0  0
   22.2870   -6.5773  -15.5839 N   0  0  0  0  0  0  0  0  0  0  0  0
   22.7047   -6.2564  -14.2378 C   0  0  0  0  0  0  0  0  0  0  0  0
   21.9571   -5.0778  -13.7459 C   0  0  0  0  0  0  0  0  0  0  0  0
   20.9108   -4.4943  -14.4678 O   0  0  0  0  0  0  0  0  0  0  0  0
   22.2679   -4.5697  -12.6299 O   0  0  0  0  0  0  0  0  0  0  0  0
  2  3  2  0
  2  1  1  0
  4  2  1  0
  5  4  1  0
  5  6  1  1
  7  5  1  0
  7  8  2  0
 10  9  1  0
 11 10  1  1
 11 12  1  0
 12  7  1  0
 13 15  1  0
 13 11  1  0
 14 13  2  0
 16 15  1  0
 17 16  1  0
 18 17  1  0
 19 17  2  0
M  END
$$$$
