NSG.pdb
     RDKit          3D

 19 18  0  0  1  0  0  0  0  0999 V2000
   16.5838  -13.8742  -15.5814 N   0  0  0  0  0  0  0  0  0  0  0  0
   17.8432  -13.4888  -15.0546 C   0  0  0  0  0  0  0  0  0  0  0  0
   18.3603  -14.2124  -14.1429 O   0  0  0  0  0  0  0  0  0  0  0  0
   18.6254  -12.3231  -15.4576 C   0  0  0  0  0  0  0  0  0  0  0  0
   17.9450  -11.4470  -16.4829 C   0  0  2  0  0  0  0  0  0  0  0  0
   17.9001  -12.1654  -17.7428 N   0  0  0  0  0  0  0  0  0  0  0  0
   18.6944  -10.1662  -16.6385 C   0  0  0  0  0  0  0  0  0  0  0  0
   19.5967  -10.0999  -17.5029 O   0  0  0  0  0  0  0  0  0  0  0  0
   18.3262   -5.4169  -16.0413 O   0  0  0  0  0  0  0  0  0  0  0  0
   17.8680   -6.7289  -15.9201 C   0  0  0  0  0  0  0  0  0  0  0  0
   18.9649   -7.7507  -16.0372 C   0  0  2  0  0  0  0  0  0  0  0  0
   18.3782   -9.0586  -15.8170 N   0  0  0  0  0  0  0  0  0  0  0  0
   20.0437   -7.5696  -15.0308 C   0  0  0  0  0  0  0  0  0  0  0  0
   19.9565   -8.0419  -13.8687 O   0  0  0  0  0  0  0  0  0  0  0  0
   21.2245   -6.8491  -15.3491 N   0  0  0  0  0  0  0  0  0  0  0  0
   22.2800   -6.7022  -14.3725 C   0  0  0  0  0  0  0  0  0  0  0  0
   22.0016   -5.5390  -13.5009 C   0  0  0  0  0  0  0  0  0  0  0  0
   22.8531   -5.1578  -12.4588 O   0  0  0  0  0  0  0  0  0  0  0  0
   20.9555   -4.8555  -13.6968 O   0  0  0  0  0  0  0  0  0  0  0  0
  2  3  2  0
  2  1  1  0
  4  2  1  0
  5  4  1  0
  5  6  1  6
  7  5  1  0
  7  8  2  0
 10  9  1  0
 11 10  1  1
 11 12  1  0
 12  7  1  0
 13 15  1  0
 13 11  1  0
 14 13  2  0
 16 15  1  0
 17 16  1  0
 18 17  1  0
 19 17  2  0
M  END
$$$$
