NSG.pdb
     RDKit          3D

 19 18  0  0  1  0  0  0  0  0999 V2000
   15.1201  -11.4811  -15.8429 N   0  0  0  0  0  0  0  0  0  0  0  0
   15.9860  -11.9410  -14.8180 C   0  0  0  0  0  0  0  0  0  0  0  0
   15.5888  -12.9011  -14.0813 O   0  0  0  0  0  0  0  0  0  0  0  0
   17.3145  -11.4165  -14.5127 C   0  0  0  0  0  0  0  0  0  0  0  0
   17.7535  -10.2848  -15.4117 C   0  0  2  0  0  0  0  0  0  0  0  0
   18.2118  -10.8483  -16.6679 N   0  0  0  0  0  0  0  0  0  0  0  0
   18.8467   -9.5077  -14.7582 C   0  0  0  0  0  0  0  0  0  0  0  0
   18.6279   -8.9860  -13.6421 O   0  0  0  0  0  0  0  0  0  0  0  0
   22.6509   -9.0867  -16.6774 O   0  0  0  0  0  0  0  0  0  0  0  0
   22.4814   -9.2505  -15.3023 C   0  0  0  0  0  0  0  0  0  0  0  0
   21.2001   -8.6532  -14.7901 C   0  0  2  0  0  0  0  0  0  0  0  0
   20.0995   -9.3732  -15.4016 N   0  0  0  0  0  0  0  0  0  0  0  0
   21.0431   -7.2168  -15.1386 C   0  0  0  0  0  0  0  0  0  0  0  0
   20.5330   -6.8475  -16.2269 O   0  0  0  0  0  0  0  0  0  0  0  0
   21.4679   -6.1990  -14.2452 N   0  0  0  0  0  0  0  0  0  0  0  0
   21.3148   -4.8049  -14.5951 C   0  0  0  0  0  0  0  0  0  0  0  0
   21.8734   -3.9519  -13.5225 C   0  0  0  0  0  0  0  0  0  0  0  0
   22.3522   -4.4748  -12.3167 O   0  0  0  0  0  0  0  0  0  0  0  0
   21.9248   -2.6994  -13.6918 O   0  0  0  0  0  0  0  0  0  0  0  0
  2  3  2  0
  2  1  1  0
  4  2  1  0
  5  4  1  0
  5  6  1  6
  7  5  1  0
  7  8  2  0
 10  9  1  0
 11 10  1  6
 11 12  1  0
 12  7  1  0
 13 15  1  0
 13 11  1  0
 14 13  2  0
 16 15  1  0
 17 16  1  0
 18 17  1  0
 19 17  2  0
M  END
$$$$
