NSG.pdb
     RDKit          3D

 19 18  0  0  1  0  0  0  0  0999 V2000
   15.1674  -11.3401  -17.2365 N   0  0  0  0  0  0  0  0  0  0  0  0
   16.5737  -11.2236  -17.3801 C   0  0  0  0  0  0  0  0  0  0  0  0
   17.1093  -11.6798  -18.4419 O   0  0  0  0  0  0  0  0  0  0  0  0
   17.4913  -10.6223  -16.4160 C   0  0  0  0  0  0  0  0  0  0  0  0
   18.7271  -11.4465  -16.1421 C   0  0  2  0  0  0  0  0  0  0  0  0
   18.3182  -12.6960  -15.5278 N   0  0  0  0  0  0  0  0  0  0  0  0
   19.6506  -10.6987  -15.2400 C   0  0  0  0  0  0  0  0  0  0  0  0
   19.3184  -10.5324  -14.0451 O   0  0  0  0  0  0  0  0  0  0  0  0
   23.6040   -9.8928  -16.4574 O   0  0  0  0  0  0  0  0  0  0  0  0
   23.1763  -10.0254  -15.1361 C   0  0  0  0  0  0  0  0  0  0  0  0
   21.8017   -9.4628  -14.9012 C   0  0  2  0  0  0  0  0  0  0  0  0
   20.8734  -10.1943  -15.7418 N   0  0  0  0  0  0  0  0  0  0  0  0
   21.6890   -8.0242  -15.2575 C   0  0  0  0  0  0  0  0  0  0  0  0
   21.4015   -7.6470  -16.4220 O   0  0  0  0  0  0  0  0  0  0  0  0
   21.9041   -7.0131  -14.2848 N   0  0  0  0  0  0  0  0  0  0  0  0
   21.8571   -5.6167  -14.6555 C   0  0  0  0  0  0  0  0  0  0  0  0
   22.1165   -4.7714  -13.4688 C   0  0  0  0  0  0  0  0  0  0  0  0
   22.2779   -5.3038  -12.1855 O   0  0  0  0  0  0  0  0  0  0  0  0
   22.1974   -3.5168  -13.6087 O   0  0  0  0  0  0  0  0  0  0  0  0
  2  3  2  0
  2  1  1  0
  4  2  1  0
  5  4  1  0
  5  6  1  1
  7  5  1  0
  7  8  2  0
 10  9  1  0
 11 10  1  6
 11 12  1  0
 12  7  1  0
 13 15  1  0
 13 11  1  0
 14 13  2  0
 16 15  1  0
 17 16  1  0
 18 17  1  0
 19 17  2  0
M  END
$$$$
