NSG.pdb
     RDKit          3D

 19 18  0  0  1  0  0  0  0  0999 V2000
   15.2215  -12.9062  -14.7151 N   0  0  0  0  0  0  0  0  0  0  0  0
   16.2021  -12.6018  -15.6937 C   0  0  0  0  0  0  0  0  0  0  0  0
   15.9734  -12.9415  -16.8998 O   0  0  0  0  0  0  0  0  0  0  0  0
   17.4746  -11.9251  -15.4569 C   0  0  0  0  0  0  0  0  0  0  0  0
   18.5568  -12.2793  -16.4492 C   0  0  2  0  0  0  0  0  0  0  0  0
   18.9221  -13.6699  -16.2526 N   0  0  0  0  0  0  0  0  0  0  0  0
   19.7419  -11.3950  -16.2502 C   0  0  0  0  0  0  0  0  0  0  0  0
   20.5498  -11.6708  -15.3354 O   0  0  0  0  0  0  0  0  0  0  0  0
   22.8361   -8.4220  -18.3014 O   0  0  0  0  0  0  0  0  0  0  0  0
   21.7380   -9.2825  -18.2978 C   0  0  0  0  0  0  0  0  0  0  0  0
   21.0844   -9.4002  -16.9488 C   0  0  2  0  0  0  0  0  0  0  0  0
   19.9332  -10.2712  -17.0882 N   0  0  0  0  0  0  0  0  0  0  0  0
   20.5991   -8.0995  -16.4178 C   0  0  0  0  0  0  0  0  0  0  0  0
   19.5423   -7.5619  -16.8363 O   0  0  0  0  0  0  0  0  0  0  0  0
   21.3192   -7.4099  -15.4075 N   0  0  0  0  0  0  0  0  0  0  0  0
   20.8830   -6.1084  -14.9543 C   0  0  0  0  0  0  0  0  0  0  0  0
   21.7681   -5.6303  -13.8689 C   0  0  0  0  0  0  0  0  0  0  0  0
   22.7683   -6.4293  -13.3055 O   0  0  0  0  0  0  0  0  0  0  0  0
   21.6234   -4.4544  -13.4255 O   0  0  0  0  0  0  0  0  0  0  0  0
  2  3  2  0
  2  1  1  0
  4  2  1  0
  5  4  1  0
  5  6  1  1
  7  5  1  0
  7  8  2  0
 10  9  1  0
 11 10  1  6
 11 12  1  0
 12  7  1  0
 13 15  1  0
 13 11  1  0
 14 13  2  0
 16 15  1  0
 17 16  1  0
 18 17  1  0
 19 17  2  0
M  END
$$$$
