NSG.pdb
     RDKit          3D

 19 18  0  0  1  0  0  0  0  0999 V2000
   18.8846  -14.8579  -15.0361 N   0  0  0  0  0  0  0  0  0  0  0  0
   19.5753  -14.4253  -16.1971 C   0  0  0  0  0  0  0  0  0  0  0  0
   20.4448  -15.2053  -16.7049 O   0  0  0  0  0  0  0  0  0  0  0  0
   19.3893  -13.1505  -16.8853 C   0  0  0  0  0  0  0  0  0  0  0  0
   18.3536  -12.2519  -16.2519 C   0  0  2  0  0  0  0  0  0  0  0  0
   17.0415  -12.6714  -16.7083 N   0  0  0  0  0  0  0  0  0  0  0  0
   18.6088  -10.8316  -16.6309 C   0  0  0  0  0  0  0  0  0  0  0  0
   18.1391  -10.4044  -17.7091 O   0  0  0  0  0  0  0  0  0  0  0  0
   18.2526   -6.5418  -16.0521 O   0  0  0  0  0  0  0  0  0  0  0  0
   18.1930   -7.9352  -16.0202 C   0  0  0  0  0  0  0  0  0  0  0  0
   19.5487   -8.5850  -16.0485 C   0  0  2  0  0  0  0  0  0  0  0  0
   19.3688   -9.9983  -15.7768 N   0  0  0  0  0  0  0  0  0  0  0  0
   20.4776   -8.0469  -15.0204 C   0  0  0  0  0  0  0  0  0  0  0  0
   20.3452   -8.3130  -13.7987 O   0  0  0  0  0  0  0  0  0  0  0  0
   21.5597   -7.2039  -15.3851 N   0  0  0  0  0  0  0  0  0  0  0  0
   22.5287   -6.7853  -14.3976 C   0  0  0  0  0  0  0  0  0  0  0  0
   22.1087   -5.5020  -13.7919 C   0  0  0  0  0  0  0  0  0  0  0  0
   22.8513   -4.8609  -12.7949 O   0  0  0  0  0  0  0  0  0  0  0  0
   21.0378   -4.9543  -14.1835 O   0  0  0  0  0  0  0  0  0  0  0  0
  2  3  2  0
  2  1  1  0
  4  2  1  0
  5  4  1  0
  5  6  1  6
  7  5  1  0
  7  8  2  0
 10  9  1  0
 11 10  1  1
 11 12  1  0
 12  7  1  0
 13 15  1  0
 13 11  1  0
 14 13  2  0
 16 15  1  0
 17 16  1  0
 18 17  1  0
 19 17  2  0
M  END
$$$$
