LIN.pdb
     RDKit          3D

 25 24  0  0  1  0  0  0  0  0999 V2000
   17.0328  -26.3156   -7.5182 C   0  0  0  0  0  0  0  0  0  0  0  0
   16.7837  -25.1172   -6.6491 C   0  0  2  0  0  0  0  0  0  0  0  0
   15.3436  -25.0098   -6.2213 C   0  0  0  0  0  0  0  0  0  0  0  0
   17.1478  -23.8353   -7.3961 C   0  0  0  0  0  0  0  0  0  0  0  0
   18.5875  -23.9879   -7.8577 C   0  0  2  0  0  0  0  0  0  0  0  0
   19.4796  -24.0460   -6.7143 N   0  0  0  0  0  0  0  0  0  0  0  0
   19.0050  -22.8462   -8.7046 C   0  0  0  0  0  0  0  0  0  0  0  0
   18.1469  -22.0728   -9.2347 O   0  0  0  0  0  0  0  0  0  0  0  0
   24.0765  -20.8180   -7.9424 C   0  0  0  0  0  0  0  0  0  0  0  0
   22.5450  -20.8528   -8.0952 C   0  0  0  0  0  0  0  0  0  0  0  0
   22.1930  -21.1446   -9.5171 C   0  0  2  0  0  0  0  0  0  0  0  0
   22.8564  -20.1738  -10.4847 C   0  0  0  0  0  0  0  0  0  0  0  0
   20.7574  -21.3882   -9.8115 C   0  0  2  0  0  0  0  0  0  0  0  0
   20.3603  -22.5367   -8.9817 N   0  0  0  0  0  0  0  0  0  0  0  0
   20.3544  -21.6122  -11.1757 C   0  0  0  0  0  0  0  0  0  0  0  0
   20.6923  -22.7130  -11.7093 O   0  0  0  0  0  0  0  0  0  0  0  0
   18.3153  -21.5646  -16.0371 N   0  0  0  0  0  0  0  0  0  0  0  0
   17.3915  -21.5511  -14.9824 C   0  0  0  0  0  0  0  0  0  0  0  0
   16.1866  -21.7838  -15.2286 O   0  0  0  0  0  0  0  0  0  0  0  0
   17.8020  -21.2729  -13.6088 C   0  0  0  0  0  0  0  0  0  0  0  0
   19.2510  -21.0422  -13.3743 C   0  0  2  0  0  0  0  0  0  0  0  0
   19.6176  -20.7473  -12.0085 N   0  0  0  0  0  0  0  0  0  0  0  0
   19.7552  -20.0108  -14.3054 C   0  0  0  0  0  0  0  0  0  0  0  0
   19.9470  -20.1991  -15.6635 O   0  0  0  0  0  0  0  0  0  0  0  0
   20.0265  -18.8752  -13.8086 O   0  0  0  0  0  0  0  0  0  0  0  0
  2  1  1  6
  2  3  1  0
  4  2  1  0
  4  5  1  0
  5  7  1  0
  5  6  1  1
  7  8  2  0
  9 10  1  0
 10 11  1  0
 11 12  1  6
 13 11  1  0
 13 14  1  1
 14  7  1  0
 15 16  2  0
 15 13  1  0
 18 17  1  0
 18 20  1  0
 19 18  2  0
 21 20  1  1
 21 22  1  0
 22 15  1  0
 23 21  1  0
 23 24  1  0
 25 23  2  0
M  END
$$$$
