LIN.pdb
     RDKit          3D

 25 24  0  0  1  0  0  0  0  0999 V2000
   17.4646  -12.6806  -20.0290 C   0  0  0  0  0  0  0  0  0  0  0  0
   18.2224  -13.5447  -19.0633 C   0  0  2  0  0  0  0  0  0  0  0  0
   17.4519  -14.7785  -18.6730 C   0  0  0  0  0  0  0  0  0  0  0  0
   18.5367  -12.7650  -17.7877 C   0  0  0  0  0  0  0  0  0  0  0  0
   19.2679  -11.5023  -18.2117 C   0  0  2  0  0  0  0  0  0  0  0  0
   20.5348  -11.8389  -18.8349 N   0  0  0  0  0  0  0  0  0  0  0  0
   19.5493  -10.6273  -17.0497 C   0  0  0  0  0  0  0  0  0  0  0  0
   18.6466  -10.3571  -16.1967 O   0  0  0  0  0  0  0  0  0  0  0  0
   24.0245  -11.1072  -14.3778 C   0  0  0  0  0  0  0  0  0  0  0  0
   22.5296  -10.7960  -14.5741 C   0  0  0  0  0  0  0  0  0  0  0  0
   22.3772   -9.4234  -15.1431 C   0  0  2  0  0  0  0  0  0  0  0  0
   22.9356   -8.3516  -14.2168 C   0  0  0  0  0  0  0  0  0  0  0  0
   21.0484   -9.0821  -15.7128 C   0  0  2  0  0  0  0  0  0  0  0  0
   20.8157  -10.0389  -16.8064 N   0  0  0  0  0  0  0  0  0  0  0  0
   20.8157   -7.7411  -16.1830 C   0  0  0  0  0  0  0  0  0  0  0  0
   21.4163   -7.3831  -17.2421 O   0  0  0  0  0  0  0  0  0  0  0  0
   19.8219   -3.4977  -19.0320 N   0  0  0  0  0  0  0  0  0  0  0  0
   18.9320   -4.1880  -18.1968 C   0  0  0  0  0  0  0  0  0  0  0  0
   17.8109   -3.6855  -17.9580 O   0  0  0  0  0  0  0  0  0  0  0  0
   19.2825   -5.4749  -17.6020 C   0  0  0  0  0  0  0  0  0  0  0  0
   19.7319   -5.4604  -16.1858 C   0  0  2  0  0  0  0  0  0  0  0  0
   19.9890   -6.7577  -15.6049 N   0  0  0  0  0  0  0  0  0  0  0  0
   18.7858   -4.6765  -15.3641 C   0  0  0  0  0  0  0  0  0  0  0  0
   18.8966   -3.3201  -15.1103 O   0  0  0  0  0  0  0  0  0  0  0  0
   17.8055   -5.3070  -14.8625 O   0  0  0  0  0  0  0  0  0  0  0  0
  2  1  1  6
  2  3  1  0
  4  2  1  0
  4  5  1  0
  5  7  1  0
  5  6  1  1
  7  8  2  0
  9 10  1  0
 10 11  1  0
 11 12  1  1
 13 11  1  0
 13 14  1  6
 14  7  1  0
 15 16  2  0
 15 13  1  0
 18 17  1  0
 18 20  1  0
 19 18  2  0
 21 20  1  6
 21 22  1  0
 22 15  1  0
 23 21  1  0
 23 24  1  0
 25 23  2  0
M  END
$$$$
