LIN.pdb
     RDKit          3D

 25 24  0  0  1  0  0  0  0  0999 V2000
   21.8896  -13.9655  -21.2726 C   0  0  0  0  0  0  0  0  0  0  0  0
   21.1246  -14.6276  -20.1637 C   0  0  2  0  0  0  0  0  0  0  0  0
   19.6489  -14.7064  -20.4538 C   0  0  0  0  0  0  0  0  0  0  0  0
   21.3054  -13.8537  -18.8589 C   0  0  0  0  0  0  0  0  0  0  0  0
   22.7951  -13.6006  -18.6993 C   0  0  2  0  0  0  0  0  0  0  0  0
   23.4947  -14.8483  -18.4540 N   0  0  0  0  0  0  0  0  0  0  0  0
   23.0678  -12.6931  -17.5604 C   0  0  0  0  0  0  0  0  0  0  0  0
   22.2278  -12.5517  -16.6170 O   0  0  0  0  0  0  0  0  0  0  0  0
   28.0400  -12.3696  -15.5994 C   0  0  0  0  0  0  0  0  0  0  0  0
   26.5028  -12.4349  -15.6540 C   0  0  0  0  0  0  0  0  0  0  0  0
   25.9606  -11.0952  -16.0307 C   0  0  2  0  0  0  0  0  0  0  0  0
   26.4606   -9.9921  -15.1076 C   0  0  0  0  0  0  0  0  0  0  0  0
   24.5034  -11.0207  -16.3096 C   0  0  2  0  0  0  0  0  0  0  0  0
   24.2573  -11.9317  -17.4387 N   0  0  0  0  0  0  0  0  0  0  0  0
   23.9113   -9.7369  -16.5835 C   0  0  0  0  0  0  0  0  0  0  0  0
   24.1213   -9.2313  -17.7285 O   0  0  0  0  0  0  0  0  0  0  0  0
   21.0289   -5.9931  -18.8937 N   0  0  0  0  0  0  0  0  0  0  0  0
   20.7971   -6.6730  -17.6896 C   0  0  0  0  0  0  0  0  0  0  0  0
   19.9061   -6.2526  -16.9176 O   0  0  0  0  0  0  0  0  0  0  0  0
   21.5687   -7.8558  -17.3176 C   0  0  0  0  0  0  0  0  0  0  0  0
   22.4351   -7.7423  -16.1159 C   0  0  2  0  0  0  0  0  0  0  0  0
   23.1125   -8.9567  -15.7245 N   0  0  0  0  0  0  0  0  0  0  0  0
   21.6674   -7.1641  -14.9929 C   0  0  0  0  0  0  0  0  0  0  0  0
   21.3588   -5.8215  -14.8561 O   0  0  0  0  0  0  0  0  0  0  0  0
   21.2685   -7.9700  -14.0977 O   0  0  0  0  0  0  0  0  0  0  0  0
  2  1  1  6
  2  3  1  0
  4  2  1  0
  4  5  1  0
  5  7  1  0
  5  6  1  1
  7  8  2  0
  9 10  1  0
 10 11  1  0
 11 12  1  1
 13 11  1  0
 13 14  1  6
 14  7  1  0
 15 16  2  0
 15 13  1  0
 18 17  1  0
 18 20  1  0
 19 18  2  0
 21 20  1  6
 21 22  1  0
 22 15  1  0
 23 21  1  0
 23 24  1  0
 25 23  2  0
M  END
$$$$
