LIN.pdb
     RDKit          3D

 25 24  0  0  1  0  0  0  0  0999 V2000
   15.8385  -10.0632  -19.2813 C   0  0  0  0  0  0  0  0  0  0  0  0
   17.0150  -10.9358  -18.9533 C   0  0  2  0  0  0  0  0  0  0  0  0
   16.7588  -12.3854  -19.2717 C   0  0  0  0  0  0  0  0  0  0  0  0
   17.3523  -10.8347  -17.4667 C   0  0  0  0  0  0  0  0  0  0  0  0
   18.5394  -11.7509  -17.2208 C   0  0  2  0  0  0  0  0  0  0  0  0
   18.0879  -13.0390  -16.7273 N   0  0  0  0  0  0  0  0  0  0  0  0
   19.4639  -11.1759  -16.2159 C   0  0  0  0  0  0  0  0  0  0  0  0
   19.1399  -11.1060  -14.9889 O   0  0  0  0  0  0  0  0  0  0  0  0
   24.1164  -12.9826  -15.3054 C   0  0  0  0  0  0  0  0  0  0  0  0
   22.7487  -12.2904  -15.1634 C   0  0  0  0  0  0  0  0  0  0  0  0
   22.8795  -10.8488  -15.5316 C   0  0  2  0  0  0  0  0  0  0  0  0
   24.0328  -10.1717  -14.8035 C   0  0  0  0  0  0  0  0  0  0  0  0
   21.6291  -10.0468  -15.5383 C   0  0  2  0  0  0  0  0  0  0  0  0
   20.7490  -10.6721  -16.5383 N   0  0  0  0  0  0  0  0  0  0  0  0
   21.7116   -8.6300  -15.7823 C   0  0  0  0  0  0  0  0  0  0  0  0
   21.7186   -8.2470  -16.9923 O   0  0  0  0  0  0  0  0  0  0  0  0
   21.4418   -3.4022  -15.7703 N   0  0  0  0  0  0  0  0  0  0  0  0
   20.4607   -4.3078  -16.1986 C   0  0  0  0  0  0  0  0  0  0  0  0
   19.4735   -3.8761  -16.8354 O   0  0  0  0  0  0  0  0  0  0  0  0
   20.5647   -5.7375  -15.9195 C   0  0  0  0  0  0  0  0  0  0  0  0
   21.7514   -6.1866  -15.1463 C   0  0  2  0  0  0  0  0  0  0  0  0
   21.7863   -7.5954  -14.8290 N   0  0  0  0  0  0  0  0  0  0  0  0
   21.9091   -5.3544  -13.9350 C   0  0  0  0  0  0  0  0  0  0  0  0
   22.3130   -4.0302  -13.9340 O   0  0  0  0  0  0  0  0  0  0  0  0
   21.6507   -5.9081  -12.8229 O   0  0  0  0  0  0  0  0  0  0  0  0
  2  1  1  1
  2  3  1  0
  4  2  1  0
  4  5  1  0
  5  7  1  0
  5  6  1  1
  7  8  2  0
  9 10  1  0
 10 11  1  0
 11 12  1  1
 13 11  1  0
 13 14  1  6
 14  7  1  0
 15 16  2  0
 15 13  1  0
 18 17  1  0
 18 20  1  0
 19 18  2  0
 21 20  1  1
 21 22  1  0
 22 15  1  0
 23 21  1  0
 23 24  1  0
 25 23  2  0
M  END
$$$$
