LIN.pdb
     RDKit          3D

 25 24  0  0  1  0  0  0  0  0999 V2000
   28.0252  -21.4661   -8.7032 C   0  0  0  0  0  0  0  0  0  0  0  0
   27.0946  -20.3188   -8.4363 C   0  0  2  0  0  0  0  0  0  0  0  0
   27.0396  -19.9541   -6.9761 C   0  0  0  0  0  0  0  0  0  0  0  0
   25.6773  -20.6698   -8.8857 C   0  0  0  0  0  0  0  0  0  0  0  0
   25.5356  -20.1825  -10.3180 C   0  0  2  0  0  0  0  0  0  0  0  0
   26.1008  -18.8528  -10.4561 N   0  0  0  0  0  0  0  0  0  0  0  0
   24.1129  -20.1183  -10.7264 C   0  0  0  0  0  0  0  0  0  0  0  0
   23.3017  -19.3211  -10.1592 O   0  0  0  0  0  0  0  0  0  0  0  0
   23.2615  -18.9901  -15.5714 C   0  0  0  0  0  0  0  0  0  0  0  0
   23.1740  -19.1613  -14.0439 C   0  0  0  0  0  0  0  0  0  0  0  0
   22.3717  -20.3800  -13.7246 C   0  0  2  0  0  0  0  0  0  0  0  0
   21.0724  -20.4370  -14.5166 C   0  0  0  0  0  0  0  0  0  0  0  0
   22.2047  -20.7096  -12.2857 C   0  0  2  0  0  0  0  0  0  0  0  0
   23.5612  -20.9214  -11.7560 N   0  0  0  0  0  0  0  0  0  0  0  0
   21.3613  -21.8174  -11.9182 C   0  0  0  0  0  0  0  0  0  0  0  0
   21.7451  -22.9787  -12.2568 O   0  0  0  0  0  0  0  0  0  0  0  0
   18.4180  -25.2393   -8.6036 N   0  0  0  0  0  0  0  0  0  0  0  0
   17.8956  -24.0804   -9.1953 C   0  0  0  0  0  0  0  0  0  0  0  0
   16.6686  -24.0224   -9.4353 O   0  0  0  0  0  0  0  0  0  0  0  0
   18.7476  -22.9443   -9.5360 C   0  0  0  0  0  0  0  0  0  0  0  0
   19.3372  -22.9318  -10.8999 C   0  0  2  0  0  0  0  0  0  0  0  0
   20.1408  -21.7738  -11.2160 N   0  0  0  0  0  0  0  0  0  0  0  0
   18.2794  -23.1492  -11.9091 C   0  0  0  0  0  0  0  0  0  0  0  0
   17.6643  -22.1450  -12.6371 O   0  0  0  0  0  0  0  0  0  0  0  0
   17.9205  -24.3492  -12.1123 O   0  0  0  0  0  0  0  0  0  0  0  0
  2  1  1  1
  2  3  1  0
  4  2  1  0
  4  5  1  0
  5  7  1  0
  5  6  1  1
  7  8  2  0
  9 10  1  0
 10 11  1  0
 11 12  1  1
 13 11  1  0
 13 14  1  6
 14  7  1  0
 15 16  2  0
 15 13  1  0
 18 17  1  0
 18 20  1  0
 19 18  2  0
 21 20  1  1
 21 22  1  0
 22 15  1  0
 23 21  1  0
 23 24  1  0
 25 23  2  0
M  END
$$$$
