LIN.pdb
     RDKit          3D

 25 24  0  0  1  0  0  0  0  0999 V2000
   26.0170  -28.3581  -19.2679 C   0  0  0  0  0  0  0  0  0  0  0  0
   26.1429  -28.8675  -17.8615 C   0  0  2  0  0  0  0  0  0  0  0  0
   24.9929  -29.7578  -17.4700 C   0  0  0  0  0  0  0  0  0  0  0  0
   26.1887  -27.7004  -16.8768 C   0  0  0  0  0  0  0  0  0  0  0  0
   27.4369  -26.8974  -17.2027 C   0  0  2  0  0  0  0  0  0  0  0  0
   28.6227  -27.6075  -16.7598 N   0  0  0  0  0  0  0  0  0  0  0  0
   27.4182  -25.5771  -16.5308 C   0  0  0  0  0  0  0  0  0  0  0  0
   27.8251  -25.4428  -15.3342 O   0  0  0  0  0  0  0  0  0  0  0  0
   30.0652  -22.6978  -16.9857 C   0  0  0  0  0  0  0  0  0  0  0  0
   28.9476  -22.6678  -18.0440 C   0  0  0  0  0  0  0  0  0  0  0  0
   27.6874  -22.1606  -17.4232 C   0  0  2  0  0  0  0  0  0  0  0  0
   27.8418  -20.7456  -16.8823 C   0  0  0  0  0  0  0  0  0  0  0  0
   26.9878  -23.0800  -16.4893 C   0  0  2  0  0  0  0  0  0  0  0  0
   26.9562  -24.3916  -17.1558 N   0  0  0  0  0  0  0  0  0  0  0  0
   25.6664  -22.7357  -16.0322 C   0  0  0  0  0  0  0  0  0  0  0  0
   25.0185  -21.8830  -16.7132 O   0  0  0  0  0  0  0  0  0  0  0  0
   21.3807  -21.4374  -13.3723 N   0  0  0  0  0  0  0  0  0  0  0  0
   22.6025  -20.7539  -13.2948 C   0  0  0  0  0  0  0  0  0  0  0  0
   22.6227  -19.6015  -12.8069 O   0  0  0  0  0  0  0  0  0  0  0  0
   23.8467  -21.3541  -13.7685 C   0  0  0  0  0  0  0  0  0  0  0  0
   23.7496  -22.7008  -14.3888 C   0  0  2  0  0  0  0  0  0  0  0  0
   24.9888  -23.2361  -14.9030 N   0  0  0  0  0  0  0  0  0  0  0  0
   22.6883  -22.7072  -15.4176 C   0  0  0  0  0  0  0  0  0  0  0  0
   22.8937  -22.9648  -16.7622 O   0  0  0  0  0  0  0  0  0  0  0  0
   21.5082  -22.4576  -15.0236 O   0  0  0  0  0  0  0  0  0  0  0  0
  2  1  1  6
  2  3  1  0
  4  2  1  0
  4  5  1  0
  5  7  1  0
  5  6  1  1
  7  8  2  0
  9 10  1  0
 10 11  1  0
 11 12  1  1
 13 11  1  0
 13 14  1  6
 14  7  1  0
 15 16  2  0
 15 13  1  0
 18 17  1  0
 18 20  1  0
 19 18  2  0
 21 20  1  6
 21 22  1  0
 22 15  1  0
 23 21  1  0
 23 24  1  0
 25 23  2  0
M  END
$$$$
