LIN.pdb
     RDKit          3D

 25 24  0  0  1  0  0  0  0  0999 V2000
   23.9388  -15.3969  -15.1533 C   0  0  0  0  0  0  0  0  0  0  0  0
   24.9620  -14.8520  -16.1069 C   0  0  2  0  0  0  0  0  0  0  0  0
   26.3441  -14.8243  -15.5091 C   0  0  0  0  0  0  0  0  0  0  0  0
   24.5993  -13.4254  -16.5158 C   0  0  0  0  0  0  0  0  0  0  0  0
   23.2264  -13.4882  -17.1639 C   0  0  2  0  0  0  0  0  0  0  0  0
   23.2770  -14.2863  -18.3750 N   0  0  0  0  0  0  0  0  0  0  0  0
   22.7409  -12.1366  -17.5281 C   0  0  0  0  0  0  0  0  0  0  0  0
   23.4060  -11.3882  -18.3110 O   0  0  0  0  0  0  0  0  0  0  0  0
   18.9471  -12.4746  -19.5681 C   0  0  0  0  0  0  0  0  0  0  0  0
   19.8195  -11.2065  -19.5355 C   0  0  0  0  0  0  0  0  0  0  0  0
   19.7260  -10.5723  -18.1865 C   0  0  2  0  0  0  0  0  0  0  0  0
   18.7508   -9.4029  -18.1671 C   0  0  0  0  0  0  0  0  0  0  0  0
   21.0090  -10.2869  -17.4942 C   0  0  2  0  0  0  0  0  0  0  0  0
   21.5270  -11.5882  -17.0430 N   0  0  0  0  0  0  0  0  0  0  0  0
   21.0159   -9.3545  -16.3967 C   0  0  0  0  0  0  0  0  0  0  0  0
   20.4572   -9.7211  -15.3178 O   0  0  0  0  0  0  0  0  0  0  0  0
   21.5312   -5.2664  -13.0862 N   0  0  0  0  0  0  0  0  0  0  0  0
   22.4462   -5.1113  -14.1373 C   0  0  0  0  0  0  0  0  0  0  0  0
   23.2385   -4.1426  -14.1136 O   0  0  0  0  0  0  0  0  0  0  0  0
   22.4955   -6.0510  -15.2541 C   0  0  0  0  0  0  0  0  0  0  0  0
   21.5176   -7.1696  -15.2348 C   0  0  2  0  0  0  0  0  0  0  0  0
   21.5760   -8.0622  -16.3689 N   0  0  0  0  0  0  0  0  0  0  0  0
   20.1520   -6.6426  -15.0296 C   0  0  0  0  0  0  0  0  0  0  0  0
   19.4811   -6.6381  -13.8186 O   0  0  0  0  0  0  0  0  0  0  0  0
   19.5655   -6.1620  -16.0470 O   0  0  0  0  0  0  0  0  0  0  0  0
  2  1  1  1
  2  3  1  0
  4  2  1  0
  4  5  1  0
  5  7  1  0
  5  6  1  6
  7  8  2  0
  9 10  1  0
 10 11  1  0
 11 12  1  6
 13 11  1  0
 13 14  1  1
 14  7  1  0
 15 16  2  0
 15 13  1  0
 18 17  1  0
 18 20  1  0
 19 18  2  0
 21 20  1  6
 21 22  1  0
 22 15  1  0
 23 21  1  0
 23 24  1  0
 25 23  2  0
M  END
$$$$
