LIN.pdb
     RDKit          3D

 25 24  0  0  1  0  0  0  0  0999 V2000
   19.3717  -14.0024  -19.5641 C   0  0  0  0  0  0  0  0  0  0  0  0
   18.8253  -14.2936  -18.1967 C   0  0  2  0  0  0  0  0  0  0  0  0
   17.3248  -14.1752  -18.1427 C   0  0  0  0  0  0  0  0  0  0  0  0
   19.4096  -13.3209  -17.1738 C   0  0  0  0  0  0  0  0  0  0  0  0
   20.9100  -13.5595  -17.1455 C   0  0  2  0  0  0  0  0  0  0  0  0
   21.1948  -14.9329  -16.7725 N   0  0  0  0  0  0  0  0  0  0  0  0
   21.5776  -12.6724  -16.1645 C   0  0  0  0  0  0  0  0  0  0  0  0
   21.3578  -12.7878  -14.9180 O   0  0  0  0  0  0  0  0  0  0  0  0
   26.9161  -10.5720  -14.9481 C   0  0  0  0  0  0  0  0  0  0  0  0
   25.4422  -10.1877  -14.7249 C   0  0  0  0  0  0  0  0  0  0  0  0
   24.5716  -11.0181  -15.6100 C   0  0  2  0  0  0  0  0  0  0  0  0
   25.1139  -11.1074  -17.0301 C   0  0  0  0  0  0  0  0  0  0  0  0
   23.1114  -10.7516  -15.5479 C   0  0  2  0  0  0  0  0  0  0  0  0
   22.4905  -11.6522  -16.5322 N   0  0  0  0  0  0  0  0  0  0  0  0
   22.6393   -9.4069  -15.7542 C   0  0  0  0  0  0  0  0  0  0  0  0
   22.2587   -9.0967  -16.9245 O   0  0  0  0  0  0  0  0  0  0  0  0
   18.7104   -5.4876  -15.7994 N   0  0  0  0  0  0  0  0  0  0  0  0
   20.0729   -5.7471  -16.0047 C   0  0  0  0  0  0  0  0  0  0  0  0
   20.8039   -4.8335  -16.4493 O   0  0  0  0  0  0  0  0  0  0  0  0
   20.6558   -7.0538  -15.7125 C   0  0  0  0  0  0  0  0  0  0  0  0
   21.9952   -7.0635  -15.0692 C   0  0  2  0  0  0  0  0  0  0  0  0
   22.5441   -8.3727  -14.8024 N   0  0  0  0  0  0  0  0  0  0  0  0
   21.9764   -6.2254  -13.8518 C   0  0  0  0  0  0  0  0  0  0  0  0
   21.7524   -4.8593  -13.8370 O   0  0  0  0  0  0  0  0  0  0  0  0
   22.1813   -6.8160  -12.7475 O   0  0  0  0  0  0  0  0  0  0  0  0
  2  1  1  6
  2  3  1  0
  4  2  1  0
  4  5  1  0
  5  7  1  0
  5  6  1  1
  7  8  2  0
  9 10  1  0
 10 11  1  0
 11 12  1  6
 13 11  1  0
 13 14  1  6
 14  7  1  0
 15 16  2  0
 15 13  1  0
 18 17  1  0
 18 20  1  0
 19 18  2  0
 21 20  1  1
 21 22  1  0
 22 15  1  0
 23 21  1  0
 23 24  1  0
 25 23  2  0
M  END
$$$$
