LIN.pdb
     RDKit          3D

 25 24  0  0  1  0  0  0  0  0999 V2000
   29.4680  -18.3024  -13.6681 C   0  0  0  0  0  0  0  0  0  0  0  0
   28.6001  -19.3705  -14.2674 C   0  0  2  0  0  0  0  0  0  0  0  0
   27.7882  -18.8630  -15.4300 C   0  0  0  0  0  0  0  0  0  0  0  0
   27.6301  -19.9153  -13.2204 C   0  0  0  0  0  0  0  0  0  0  0  0
   28.4736  -20.5005  -12.1002 C   0  0  2  0  0  0  0  0  0  0  0  0
   29.2330  -21.6390  -12.5834 N   0  0  0  0  0  0  0  0  0  0  0  0
   27.6282  -20.9607  -10.9739 C   0  0  0  0  0  0  0  0  0  0  0  0
   27.0348  -22.0840  -11.0139 O   0  0  0  0  0  0  0  0  0  0  0  0
   27.1737  -20.3817   -4.9825 C   0  0  0  0  0  0  0  0  0  0  0  0
   26.3570  -20.7491   -6.2348 C   0  0  0  0  0  0  0  0  0  0  0  0
   27.0937  -20.3078   -7.4568 C   0  0  2  0  0  0  0  0  0  0  0  0
   27.6147  -18.8825   -7.3309 C   0  0  0  0  0  0  0  0  0  0  0  0
   26.4456  -20.5896   -8.7635 C   0  0  2  0  0  0  0  0  0  0  0  0
   27.4215  -20.2021   -9.7945 N   0  0  0  0  0  0  0  0  0  0  0  0
   25.1694  -19.9882   -9.0522 C   0  0  0  0  0  0  0  0  0  0  0  0
   25.1586  -18.7495   -9.3280 O   0  0  0  0  0  0  0  0  0  0  0  0
   22.3894  -22.2612  -13.3428 N   0  0  0  0  0  0  0  0  0  0  0  0
   22.6347  -21.0863  -12.6180 C   0  0  0  0  0  0  0  0  0  0  0  0
   22.0580  -20.0300  -12.9620 O   0  0  0  0  0  0  0  0  0  0  0  0
   23.5441  -21.0674  -11.4755 C   0  0  0  0  0  0  0  0  0  0  0  0
   22.9918  -20.5803  -10.1850 C   0  0  2  0  0  0  0  0  0  0  0  0
   23.9072  -20.6137   -9.0681 N   0  0  0  0  0  0  0  0  0  0  0  0
   21.7327  -21.2897   -9.8750 C   0  0  0  0  0  0  0  0  0  0  0  0
   21.5506  -22.1414   -8.7988 O   0  0  0  0  0  0  0  0  0  0  0  0
   20.7565  -21.0927  -10.6613 O   0  0  0  0  0  0  0  0  0  0  0  0
  2  1  1  1
  2  3  1  0
  4  2  1  0
  4  5  1  0
  5  7  1  0
  5  6  1  6
  7  8  2  0
  9 10  1  0
 10 11  1  0
 11 12  1  1
 13 11  1  0
 13 14  1  6
 14  7  1  0
 15 16  2  0
 15 13  1  0
 18 17  1  0
 18 20  1  0
 19 18  2  0
 21 20  1  6
 21 22  1  0
 22 15  1  0
 23 21  1  0
 23 24  1  0
 25 23  2  0
M  END
$$$$
