LIN.pdb
     RDKit          3D

 25 24  0  0  1  0  0  0  0  0999 V2000
   25.9588  -19.7266   -6.0911 C   0  0  0  0  0  0  0  0  0  0  0  0
   27.0829  -20.5531   -6.6448 C   0  0  2  0  0  0  0  0  0  0  0  0
   28.3491  -20.4083   -5.8422 C   0  0  0  0  0  0  0  0  0  0  0  0
   27.3889  -20.1370   -8.0826 C   0  0  0  0  0  0  0  0  0  0  0  0
   26.0669  -20.1343   -8.8316 C   0  0  2  0  0  0  0  0  0  0  0  0
   25.4329  -21.4367   -8.7395 N   0  0  0  0  0  0  0  0  0  0  0  0
   26.2620  -19.8224  -10.2667 C   0  0  0  0  0  0  0  0  0  0  0  0
   26.7463  -18.7071  -10.6369 O   0  0  0  0  0  0  0  0  0  0  0  0
   29.1524  -20.1083  -13.1055 C   0  0  0  0  0  0  0  0  0  0  0  0
   28.4167  -21.4031  -12.7153 C   0  0  0  0  0  0  0  0  0  0  0  0
   27.0385  -21.3854  -13.2906 C   0  0  2  0  0  0  0  0  0  0  0  0
   27.0500  -21.4297  -14.8127 C   0  0  0  0  0  0  0  0  0  0  0  0
   26.0967  -20.3808  -12.7331 C   0  0  2  0  0  0  0  0  0  0  0  0
   25.9316  -20.7220  -11.3112 N   0  0  0  0  0  0  0  0  0  0  0  0
   24.8042  -20.2214  -13.3477 C   0  0  0  0  0  0  0  0  0  0  0  0
   23.9573  -21.1500  -13.1714 O   0  0  0  0  0  0  0  0  0  0  0  0
   21.0895  -17.0327  -16.9454 N   0  0  0  0  0  0  0  0  0  0  0  0
   21.2509  -17.5587  -15.6557 C   0  0  0  0  0  0  0  0  0  0  0  0
   20.2379  -17.9298  -15.0211 O   0  0  0  0  0  0  0  0  0  0  0  0
   22.5689  -17.6829  -15.0391 C   0  0  0  0  0  0  0  0  0  0  0  0
   23.0375  -19.0578  -14.7263 C   0  0  2  0  0  0  0  0  0  0  0  0
   24.3523  -19.1437  -14.1343 N   0  0  0  0  0  0  0  0  0  0  0  0
   22.9265  -19.9140  -15.9260 C   0  0  0  0  0  0  0  0  0  0  0  0
   23.8546  -19.9594  -16.9523 O   0  0  0  0  0  0  0  0  0  0  0  0
   21.9006  -20.6564  -16.0060 O   0  0  0  0  0  0  0  0  0  0  0  0
  2  1  1  1
  2  3  1  0
  4  2  1  0
  4  5  1  0
  5  7  1  0
  5  6  1  6
  7  8  2  0
  9 10  1  0
 10 11  1  0
 11 12  1  6
 13 11  1  0
 13 14  1  1
 14  7  1  0
 15 16  2  0
 15 13  1  0
 18 17  1  0
 18 20  1  0
 19 18  2  0
 21 20  1  6
 21 22  1  0
 22 15  1  0
 23 21  1  0
 23 24  1  0
 25 23  2  0
M  END
$$$$
