LIN.pdb
     RDKit          3D

 25 24  0  0  1  0  0  0  0  0999 V2000
   26.7423  -20.3505  -19.2790 C   0  0  0  0  0  0  0  0  0  0  0  0
   27.7739  -21.2109  -18.6091 C   0  0  2  0  0  0  0  0  0  0  0  0
   28.2691  -22.3144  -19.5066 C   0  0  0  0  0  0  0  0  0  0  0  0
   27.1923  -21.8546  -17.3516 C   0  0  0  0  0  0  0  0  0  0  0  0
   26.9651  -20.7360  -16.3486 C   0  0  2  0  0  0  0  0  0  0  0  0
   28.2128  -20.0495  -16.0683 N   0  0  0  0  0  0  0  0  0  0  0  0
   26.4353  -21.2605  -15.0683 C   0  0  0  0  0  0  0  0  0  0  0  0
   25.7851  -22.3517  -15.0238 O   0  0  0  0  0  0  0  0  0  0  0  0
   29.2906  -21.0477  -10.6447 C   0  0  0  0  0  0  0  0  0  0  0  0
   28.3051  -21.5328  -11.7234 C   0  0  0  0  0  0  0  0  0  0  0  0
   26.9749  -20.8886  -11.5085 C   0  0  2  0  0  0  0  0  0  0  0  0
   26.4269  -21.1525  -10.1126 C   0  0  0  0  0  0  0  0  0  0  0  0
   25.9670  -21.0661  -12.5853 C   0  0  2  0  0  0  0  0  0  0  0  0
   26.6089  -20.6015  -13.8253 N   0  0  0  0  0  0  0  0  0  0  0  0
   24.6775  -20.4412  -12.4423 C   0  0  0  0  0  0  0  0  0  0  0  0
   24.6443  -19.1727  -12.4232 O   0  0  0  0  0  0  0  0  0  0  0  0
   19.9612  -18.6237  -13.4467 N   0  0  0  0  0  0  0  0  0  0  0  0
   20.8006  -19.2508  -14.3785 C   0  0  0  0  0  0  0  0  0  0  0  0
   20.4353  -19.3196  -15.5736 O   0  0  0  0  0  0  0  0  0  0  0  0
   22.0861  -19.8229  -13.9873 C   0  0  0  0  0  0  0  0  0  0  0  0
   22.1605  -20.4519  -12.6432 C   0  0  2  0  0  0  0  0  0  0  0  0
   23.4241  -21.0725  -12.3195 N   0  0  0  0  0  0  0  0  0  0  0  0
   21.0335  -21.3911  -12.4624 C   0  0  0  0  0  0  0  0  0  0  0  0
   19.9121  -21.1394  -11.6906 O   0  0  0  0  0  0  0  0  0  0  0  0
   21.1143  -22.5045  -13.0657 O   0  0  0  0  0  0  0  0  0  0  0  0
  2  1  1  6
  2  3  1  0
  4  2  1  0
  4  5  1  0
  5  7  1  0
  5  6  1  1
  7  8  2  0
  9 10  1  0
 10 11  1  0
 11 12  1  1
 13 11  1  0
 13 14  1  6
 14  7  1  0
 15 16  2  0
 15 13  1  0
 18 17  1  0
 18 20  1  0
 19 18  2  0
 21 20  1  6
 21 22  1  0
 22 15  1  0
 23 21  1  0
 23 24  1  0
 25 23  2  0
M  END
$$$$
