LIN.pdb
     RDKit          3D

 25 24  0  0  1  0  0  0  0  0999 V2000
   19.0975  -21.6861  -16.3142 C   0  0  0  0  0  0  0  0  0  0  0  0
   19.5146  -21.6845  -14.8722 C   0  0  2  0  0  0  0  0  0  0  0  0
   18.3692  -21.3726  -13.9454 C   0  0  0  0  0  0  0  0  0  0  0  0
   20.6058  -20.6415  -14.6368 C   0  0  0  0  0  0  0  0  0  0  0  0
   21.1064  -20.8403  -13.2160 C   0  0  2  0  0  0  0  0  0  0  0  0
   20.2716  -20.1090  -12.2807 N   0  0  0  0  0  0  0  0  0  0  0  0
   22.4975  -20.3542  -13.0625 C   0  0  0  0  0  0  0  0  0  0  0  0
   22.7662  -19.1121  -13.0888 O   0  0  0  0  0  0  0  0  0  0  0  0
   25.0076  -21.0206   -8.8651 C   0  0  0  0  0  0  0  0  0  0  0  0
   24.4981  -20.5157  -10.2273 C   0  0  0  0  0  0  0  0  0  0  0  0
   25.3712  -21.0503  -11.3148 C   0  0  2  0  0  0  0  0  0  0  0  0
   26.8498  -20.8280  -11.0268 C   0  0  0  0  0  0  0  0  0  0  0  0
   24.9808  -20.7145  -12.7083 C   0  0  2  0  0  0  0  0  0  0  0  0
   23.6079  -21.2159  -12.8791 N   0  0  0  0  0  0  0  0  0  0  0  0
   25.8058  -21.1780  -13.7937 C   0  0  0  0  0  0  0  0  0  0  0  0
   26.0112  -22.4277  -13.8762 O   0  0  0  0  0  0  0  0  0  0  0  0
   25.6717  -22.9567  -18.6087 N   0  0  0  0  0  0  0  0  0  0  0  0
   25.3048  -21.6663  -18.2010 C   0  0  0  0  0  0  0  0  0  0  0  0
   25.0120  -20.8157  -19.0712 O   0  0  0  0  0  0  0  0  0  0  0  0
   25.2568  -21.2941  -16.7896 C   0  0  0  0  0  0  0  0  0  0  0  0
   26.5160  -20.7873  -16.1851 C   0  0  2  0  0  0  0  0  0  0  0  0
   26.4249  -20.4046  -14.7952 N   0  0  0  0  0  0  0  0  0  0  0  0
   27.0692  -19.6948  -17.0129 C   0  0  0  0  0  0  0  0  0  0  0  0
   26.8798  -18.3454  -16.7683 O   0  0  0  0  0  0  0  0  0  0  0  0
   27.7672  -20.0348  -18.0166 O   0  0  0  0  0  0  0  0  0  0  0  0
  2  1  1  6
  2  3  1  0
  4  2  1  0
  4  5  1  0
  5  7  1  0
  5  6  1  1
  7  8  2  0
  9 10  1  0
 10 11  1  0
 11 12  1  1
 13 11  1  0
 13 14  1  6
 14  7  1  0
 15 16  2  0
 15 13  1  0
 18 17  1  0
 18 20  1  0
 19 18  2  0
 21 20  1  6
 21 22  1  0
 22 15  1  0
 23 21  1  0
 23 24  1  0
 25 23  2  0
M  END
$$$$
