LIN.pdb
     RDKit          3D

 25 24  0  0  1  0  0  0  0  0999 V2000
   19.4853  -19.6342  -17.1099 C   0  0  0  0  0  0  0  0  0  0  0  0
   20.6335  -19.9575  -16.1986 C   0  0  2  0  0  0  0  0  0  0  0  0
   20.2545  -20.9485  -15.1296 C   0  0  0  0  0  0  0  0  0  0  0  0
   21.1350  -18.6908  -15.5072 C   0  0  0  0  0  0  0  0  0  0  0  0
   21.6149  -17.7520  -16.6014 C   0  0  2  0  0  0  0  0  0  0  0  0
   22.5319  -18.4413  -17.4904 N   0  0  0  0  0  0  0  0  0  0  0  0
   22.3233  -16.5813  -16.0335 C   0  0  0  0  0  0  0  0  0  0  0  0
   21.8306  -15.9208  -15.0657 O   0  0  0  0  0  0  0  0  0  0  0  0
   26.7458  -17.5553  -15.9084 C   0  0  0  0  0  0  0  0  0  0  0  0
   26.0737  -16.4789  -15.0367 C   0  0  0  0  0  0  0  0  0  0  0  0
   25.7036  -15.3087  -15.8878 C   0  0  2  0  0  0  0  0  0  0  0  0
   26.6177  -14.1139  -15.6518 C   0  0  0  0  0  0  0  0  0  0  0  0
   24.2624  -14.9523  -15.9401 C   0  0  2  0  0  0  0  0  0  0  0  0
   23.5744  -16.1195  -16.5142 N   0  0  0  0  0  0  0  0  0  0  0  0
   23.8648  -13.7599  -16.6429 C   0  0  0  0  0  0  0  0  0  0  0  0
   24.3429  -12.6572  -16.2355 O   0  0  0  0  0  0  0  0  0  0  0  0
   21.0435  -10.3931  -19.6255 N   0  0  0  0  0  0  0  0  0  0  0  0
   21.2685  -10.3572  -18.2420 C   0  0  0  0  0  0  0  0  0  0  0  0
   20.7510   -9.4389  -17.5671 O   0  0  0  0  0  0  0  0  0  0  0  0
   22.0896  -11.3631  -17.5737 C   0  0  0  0  0  0  0  0  0  0  0  0
   22.6750  -12.4284  -18.4283 C   0  0  2  0  0  0  0  0  0  0  0  0
   22.9959  -13.6613  -17.7475 N   0  0  0  0  0  0  0  0  0  0  0  0
   23.8400  -11.8989  -19.1681 C   0  0  0  0  0  0  0  0  0  0  0  0
   24.9392  -11.2948  -18.5822 O   0  0  0  0  0  0  0  0  0  0  0  0
   23.8162  -12.0148  -20.4315 O   0  0  0  0  0  0  0  0  0  0  0  0
  2  1  1  1
  2  3  1  0
  4  2  1  0
  4  5  1  0
  5  7  1  0
  5  6  1  6
  7  8  2  0
  9 10  1  0
 10 11  1  0
 11 12  1  1
 13 11  1  0
 13 14  1  6
 14  7  1  0
 15 16  2  0
 15 13  1  0
 18 17  1  0
 18 20  1  0
 19 18  2  0
 21 20  1  1
 21 22  1  0
 22 15  1  0
 23 21  1  0
 23 24  1  0
 25 23  2  0
M  END
$$$$
