LIN.pdb
     RDKit          3D

 25 24  0  0  1  0  0  0  0  0999 V2000
   19.9388  -14.4503  -20.7673 C   0  0  0  0  0  0  0  0  0  0  0  0
   21.2488  -14.7514  -20.0992 C   0  0  2  0  0  0  0  0  0  0  0  0
   21.8243  -16.0726  -20.5370 C   0  0  0  0  0  0  0  0  0  0  0  0
   21.0727  -14.7962  -18.5823 C   0  0  0  0  0  0  0  0  0  0  0  0
   22.4526  -15.0142  -17.9845 C   0  0  2  0  0  0  0  0  0  0  0  0
   22.5753  -16.3701  -17.4817 N   0  0  0  0  0  0  0  0  0  0  0  0
   22.7040  -14.0853  -16.8580 C   0  0  0  0  0  0  0  0  0  0  0  0
   22.0355  -14.1638  -15.7798 O   0  0  0  0  0  0  0  0  0  0  0  0
   27.5324  -13.2690  -15.1618 C   0  0  0  0  0  0  0  0  0  0  0  0
   26.0022  -13.4336  -15.2015 C   0  0  0  0  0  0  0  0  0  0  0  0
   25.3687  -12.1216  -15.5305 C   0  0  2  0  0  0  0  0  0  0  0  0
   25.8192  -11.0131  -14.5888 C   0  0  0  0  0  0  0  0  0  0  0  0
   23.9037  -12.1324  -15.7769 C   0  0  2  0  0  0  0  0  0  0  0  0
   23.6852  -13.0630  -16.8956 N   0  0  0  0  0  0  0  0  0  0  0  0
   23.2331  -10.8863  -16.0436 C   0  0  0  0  0  0  0  0  0  0  0  0
   23.4855  -10.3141  -17.1480 O   0  0  0  0  0  0  0  0  0  0  0  0
   19.0232   -7.4590  -17.2018 N   0  0  0  0  0  0  0  0  0  0  0  0
   19.3921   -7.8881  -15.9189 C   0  0  0  0  0  0  0  0  0  0  0  0
   19.0670   -7.1929  -14.9302 O   0  0  0  0  0  0  0  0  0  0  0  0
   20.1440   -9.1228  -15.7115 C   0  0  0  0  0  0  0  0  0  0  0  0
   21.6195   -8.9983  -15.5879 C   0  0  2  0  0  0  0  0  0  0  0  0
   22.3138  -10.2097  -15.2179 N   0  0  0  0  0  0  0  0  0  0  0  0
   21.9575   -7.8813  -14.6808 C   0  0  0  0  0  0  0  0  0  0  0  0
   21.9569   -6.5444  -15.0403 O   0  0  0  0  0  0  0  0  0  0  0  0
   22.2678   -8.1863  -13.4888 O   0  0  0  0  0  0  0  0  0  0  0  0
  2  1  1  6
  2  3  1  0
  4  2  1  0
  4  5  1  0
  5  7  1  0
  5  6  1  1
  7  8  2  0
  9 10  1  0
 10 11  1  0
 11 12  1  1
 13 11  1  0
 13 14  1  6
 14  7  1  0
 15 16  2  0
 15 13  1  0
 18 17  1  0
 18 20  1  0
 19 18  2  0
 21 20  1  1
 21 22  1  0
 22 15  1  0
 23 21  1  0
 23 24  1  0
 25 23  2  0
M  END
$$$$
