SAK.pdb
     RDKit          3D

 21 20  0  0  1  0  0  0  0  0999 V2000
    7.4567  -13.0701   20.3903 O   0  0  0  0  0  0  0  0  0  0  0  0
    8.3814  -12.2853   19.7072 C   0  0  0  0  0  0  0  0  0  0  0  0
    8.9463  -13.0433   18.5247 C   0  0  2  0  0  0  0  0  0  0  0  0
    7.9109  -13.3507   17.5860 N   0  0  0  0  0  0  0  0  0  0  0  0
    9.6941  -14.2533   18.9626 C   0  0  0  0  0  0  0  0  0  0  0  0
    9.2096  -15.3773   18.7052 O   0  0  0  0  0  0  0  0  0  0  0  0
   13.0904  -15.1556   19.4280 C   0  0  0  0  0  0  0  0  0  0  0  0
   11.7038  -15.3598   20.0014 C   0  0  2  0  0  0  0  0  0  0  0  0
   10.9243  -14.1862   19.6547 N   0  0  0  0  0  0  0  0  0  0  0  0
   11.8062  -15.5329   21.4846 C   0  0  0  0  0  0  0  0  0  0  0  0
   12.3422  -14.6309   22.1365 O   0  0  0  0  0  0  0  0  0  0  0  0
   11.3137  -16.6780   22.1310 N   0  0  0  0  0  0  0  0  0  0  0  0
   11.2927  -17.0057   23.5007 C   0  0  1  0  0  0  0  0  0  0  0  0
    9.9692  -17.5130   24.0573 C   0  0  0  0  0  0  0  0  0  0  0  0
    9.6110  -18.8864   23.5845 C   0  0  0  0  0  0  0  0  0  0  0  0
    8.2582  -19.3663   23.9851 C   0  0  0  0  0  0  0  0  0  0  0  0
    7.8187  -20.6667   23.4161 C   0  0  0  0  0  0  0  0  0  0  0  0
    6.4518  -20.9971   23.7518 N   0  0  0  0  0  0  0  0  0  0  0  0
   12.3844  -17.7876   24.0510 C   0  0  0  0  0  0  0  0  0  0  0  0
   13.0875  -18.5824   23.3776 O   0  0  0  0  0  0  0  0  0  0  0  0
   12.6847  -17.6634   25.3995 O   0  0  0  0  0  0  0  0  0  0  0  0
  2  1  1  0
  3  2  1  0
  3  4  1  6
  5  3  1  0
  5  6  2  0
  8  7  1  1
  8  9  1  0
  8 10  1  0
  9  5  1  0
 10 12  1  0
 11 10  2  0
 12 13  1  0
 13 14  1  6
 14 15  1  0
 16 15  1  0
 16 17  1  0
 17 18  1  0
 19 21  1  0
 19 13  1  0
 20 19  2  0
M  END
$$$$
