SAK.pdb
     RDKit          3D

 21 20  0  0  1  0  0  0  0  0999 V2000
   14.3749  -17.5614   16.1244 O   0  0  0  0  0  0  0  0  0  0  0  0
   13.4195  -16.7917   15.4668 C   0  0  0  0  0  0  0  0  0  0  0  0
   13.7112  -15.3175   15.6502 C   0  0  2  0  0  0  0  0  0  0  0  0
   14.9935  -14.9894   15.1065 N   0  0  0  0  0  0  0  0  0  0  0  0
   13.5772  -14.9110   17.0755 C   0  0  0  0  0  0  0  0  0  0  0  0
   14.6195  -14.7271   17.7420 O   0  0  0  0  0  0  0  0  0  0  0  0
   10.7114  -14.1102   19.3485 C   0  0  0  0  0  0  0  0  0  0  0  0
   12.1896  -14.3139   19.0907 C   0  0  2  0  0  0  0  0  0  0  0  0
   12.3262  -14.7246   17.7058 N   0  0  0  0  0  0  0  0  0  0  0  0
   12.7124  -15.3579   20.0274 C   0  0  0  0  0  0  0  0  0  0  0  0
   12.5782  -16.5429   19.7056 O   0  0  0  0  0  0  0  0  0  0  0  0
   13.3382  -15.0185   21.2377 N   0  0  0  0  0  0  0  0  0  0  0  0
   13.8928  -15.8465   22.2331 C   0  0  1  0  0  0  0  0  0  0  0  0
   15.0898  -15.2884   22.9912 C   0  0  0  0  0  0  0  0  0  0  0  0
   16.0418  -16.3423   23.4610 C   0  0  0  0  0  0  0  0  0  0  0  0
   17.2168  -15.8435   24.2302 C   0  0  0  0  0  0  0  0  0  0  0  0
   18.1634  -16.8700   24.7381 C   0  0  0  0  0  0  0  0  0  0  0  0
   19.3162  -16.2986   25.3973 N   0  0  0  0  0  0  0  0  0  0  0  0
   13.0025  -16.5228   23.1582 C   0  0  0  0  0  0  0  0  0  0  0  0
   12.1766  -15.9303   23.8974 O   0  0  0  0  0  0  0  0  0  0  0  0
   13.0516  -17.9062   23.2456 O   0  0  0  0  0  0  0  0  0  0  0  0
  2  1  1  0
  3  2  1  0
  3  4  1  1
  5  3  1  0
  5  6  2  0
  8  7  1  1
  8  9  1  0
  8 10  1  0
  9  5  1  0
 10 12  1  0
 11 10  2  0
 12 13  1  0
 13 14  1  1
 14 15  1  0
 16 15  1  0
 16 17  1  0
 17 18  1  0
 19 21  1  0
 19 13  1  0
 20 19  2  0
M  END
$$$$
