SAK.pdb
     RDKit          3D

 21 20  0  0  1  0  0  0  0  0999 V2000
    9.3661  -16.2546   16.0024 O   0  0  0  0  0  0  0  0  0  0  0  0
   10.1273  -16.8496   17.0045 C   0  0  0  0  0  0  0  0  0  0  0  0
    9.2969  -17.0397   18.2561 C   0  0  2  0  0  0  0  0  0  0  0  0
    7.9736  -17.4672   17.9190 N   0  0  0  0  0  0  0  0  0  0  0  0
    9.3007  -15.8147   19.1012 C   0  0  0  0  0  0  0  0  0  0  0  0
   10.3636  -15.4921   19.6760 O   0  0  0  0  0  0  0  0  0  0  0  0
    6.9586  -13.0077   19.7939 C   0  0  0  0  0  0  0  0  0  0  0  0
    8.1126  -13.8933   20.2145 C   0  0  2  0  0  0  0  0  0  0  0  0
    8.1578  -15.0032   19.2810 N   0  0  0  0  0  0  0  0  0  0  0  0
    7.8850  -14.3640   21.6170 C   0  0  0  0  0  0  0  0  0  0  0  0
    6.7638  -14.1975   22.1081 O   0  0  0  0  0  0  0  0  0  0  0  0
    8.9025  -14.9775   22.3653 N   0  0  0  0  0  0  0  0  0  0  0  0
    8.8190  -15.7765   23.5222 C   0  0  1  0  0  0  0  0  0  0  0  0
    8.0849  -17.1031   23.3797 C   0  0  0  0  0  0  0  0  0  0  0  0
    8.0088  -17.8821   24.6545 C   0  0  0  0  0  0  0  0  0  0  0  0
    7.2960  -19.1876   24.5627 C   0  0  0  0  0  0  0  0  0  0  0  0
    7.1486  -19.9550   25.8266 C   0  0  0  0  0  0  0  0  0  0  0  0
    6.2827  -21.1048   25.6917 N   0  0  0  0  0  0  0  0  0  0  0  0
   10.0083  -15.9625   24.3327 C   0  0  0  0  0  0  0  0  0  0  0  0
    9.9959  -16.4250   25.5013 O   0  0  0  0  0  0  0  0  0  0  0  0
   11.2420  -15.6145   23.8027 O   0  0  0  0  0  0  0  0  0  0  0  0
  2  1  1  0
  3  2  1  0
  3  4  1  6
  5  3  1  0
  5  6  2  0
  8  7  1  6
  8  9  1  0
  8 10  1  0
  9  5  1  0
 10 12  1  0
 11 10  2  0
 12 13  1  0
 13 14  1  6
 14 15  1  0
 16 15  1  0
 16 17  1  0
 17 18  1  0
 19 21  1  0
 19 13  1  0
 20 19  2  0
M  END
$$$$
