SAK.pdb
     RDKit          3D

 21 20  0  0  1  0  0  0  0  0999 V2000
    6.8130  -18.1945   18.1132 O   0  0  0  0  0  0  0  0  0  0  0  0
    6.5619  -17.2377   17.1338 C   0  0  0  0  0  0  0  0  0  0  0  0
    7.8103  -16.4283   16.8538 C   0  0  2  0  0  0  0  0  0  0  0  0
    8.7768  -17.2226   16.1592 N   0  0  0  0  0  0  0  0  0  0  0  0
    8.3583  -15.8272   18.1001 C   0  0  0  0  0  0  0  0  0  0  0  0
    9.2560  -16.4453   18.7135 O   0  0  0  0  0  0  0  0  0  0  0  0
    7.6544  -12.7343   20.0907 C   0  0  0  0  0  0  0  0  0  0  0  0
    8.4609  -13.9859   19.8153 C   0  0  2  0  0  0  0  0  0  0  0  0
    7.9088  -14.5916   18.6180 N   0  0  0  0  0  0  0  0  0  0  0  0
    8.3596  -14.9047   20.9926 C   0  0  0  0  0  0  0  0  0  0  0  0
    7.2315  -15.2264   21.3796 O   0  0  0  0  0  0  0  0  0  0  0  0
    9.5005  -15.3949   21.6481 N   0  0  0  0  0  0  0  0  0  0  0  0
    9.6067  -16.2368   22.7723 C   0  0  1  0  0  0  0  0  0  0  0  0
   10.4697  -17.4809   22.6099 C   0  0  0  0  0  0  0  0  0  0  0  0
   10.3798  -18.4240   23.7676 C   0  0  0  0  0  0  0  0  0  0  0  0
   11.3104  -19.5869   23.7168 C   0  0  0  0  0  0  0  0  0  0  0  0
   11.1738  -20.5955   24.7993 C   0  0  0  0  0  0  0  0  0  0  0  0
   12.1431  -21.6638   24.7018 N   0  0  0  0  0  0  0  0  0  0  0  0
    9.8502  -15.6415   24.0731 C   0  0  0  0  0  0  0  0  0  0  0  0
    9.2874  -16.0157   25.1327 O   0  0  0  0  0  0  0  0  0  0  0  0
   10.7554  -14.5952   24.1727 O   0  0  0  0  0  0  0  0  0  0  0  0
  2  1  1  0
  3  2  1  0
  3  4  1  1
  5  3  1  0
  5  6  2  0
  8  7  1  1
  8  9  1  0
  8 10  1  0
  9  5  1  0
 10 12  1  0
 11 10  2  0
 12 13  1  0
 13 14  1  6
 14 15  1  0
 16 15  1  0
 16 17  1  0
 17 18  1  0
 19 21  1  0
 19 13  1  0
 20 19  2  0
M  END
$$$$
