SAK.pdb
     RDKit          3D

 21 20  0  0  1  0  0  0  0  0999 V2000
    8.0498  -14.9835   14.5108 O   0  0  0  0  0  0  0  0  0  0  0  0
    9.3065  -15.2120   15.0640 C   0  0  0  0  0  0  0  0  0  0  0  0
    9.1738  -15.8387   16.4357 C   0  0  2  0  0  0  0  0  0  0  0  0
    7.9628  -16.5956   16.5255 N   0  0  0  0  0  0  0  0  0  0  0  0
    9.2869  -14.8173   17.5123 C   0  0  0  0  0  0  0  0  0  0  0  0
   10.4047  -14.2977   17.7240 O   0  0  0  0  0  0  0  0  0  0  0  0
    6.9216  -12.9952   19.7431 C   0  0  0  0  0  0  0  0  0  0  0  0
    8.3133  -13.5007   19.4258 C   0  0  2  0  0  0  0  0  0  0  0  0
    8.1883  -14.4109   18.3028 N   0  0  0  0  0  0  0  0  0  0  0  0
    8.8727  -14.1892   20.6314 C   0  0  0  0  0  0  0  0  0  0  0  0
    9.0498  -13.5158   21.6517 O   0  0  0  0  0  0  0  0  0  0  0  0
    9.1918  -15.5566   20.6203 N   0  0  0  0  0  0  0  0  0  0  0  0
    9.7683  -16.3596   21.6236 C   0  0  1  0  0  0  0  0  0  0  0  0
    9.6010  -17.8651   21.4680 C   0  0  0  0  0  0  0  0  0  0  0  0
   10.2034  -18.6508   22.5895 C   0  0  0  0  0  0  0  0  0  0  0  0
   10.1040  -20.1318   22.4562 C   0  0  0  0  0  0  0  0  0  0  0  0
   10.6645  -20.9387   23.5709 C   0  0  0  0  0  0  0  0  0  0  0  0
   10.3705  -22.3492   23.4508 N   0  0  0  0  0  0  0  0  0  0  0  0
   11.1168  -16.0628   22.0701 C   0  0  0  0  0  0  0  0  0  0  0  0
   11.4786  -16.0854   23.2735 O   0  0  0  0  0  0  0  0  0  0  0  0
   12.0779  -15.7321   21.1262 O   0  0  0  0  0  0  0  0  0  0  0  0
  2  1  1  0
  3  2  1  0
  3  4  1  6
  5  3  1  0
  5  6  2  0
  8  7  1  1
  8  9  1  0
  8 10  1  0
  9  5  1  0
 10 12  1  0
 11 10  2  0
 12 13  1  0
 13 14  1  6
 14 15  1  0
 16 15  1  0
 16 17  1  0
 17 18  1  0
 19 21  1  0
 19 13  1  0
 20 19  2  0
M  END
$$$$
