SAK.pdb
     RDKit          3D

 21 20  0  0  1  0  0  0  0  0999 V2000
    7.0292  -18.9035   19.6814 O   0  0  0  0  0  0  0  0  0  0  0  0
    6.2990  -18.0707   18.8381 C   0  0  0  0  0  0  0  0  0  0  0  0
    7.2205  -17.1096   18.1175 C   0  0  2  0  0  0  0  0  0  0  0  0
    8.1244  -17.8238   17.2687 N   0  0  0  0  0  0  0  0  0  0  0  0
    7.9263  -16.2142   19.0740 C   0  0  0  0  0  0  0  0  0  0  0  0
    9.0689  -16.5421   19.4630 O   0  0  0  0  0  0  0  0  0  0  0  0
    7.1130  -12.9809   20.7809 C   0  0  0  0  0  0  0  0  0  0  0  0
    7.9917  -14.1979   20.5817 C   0  0  2  0  0  0  0  0  0  0  0  0
    7.3621  -15.0130   19.5598 N   0  0  0  0  0  0  0  0  0  0  0  0
    8.1094  -14.9365   21.8783 C   0  0  0  0  0  0  0  0  0  0  0  0
    7.3626  -15.9030   22.0631 O   0  0  0  0  0  0  0  0  0  0  0  0
    9.0340  -14.5563   22.8643 N   0  0  0  0  0  0  0  0  0  0  0  0
    9.5464  -15.2866   23.9543 C   0  0  1  0  0  0  0  0  0  0  0  0
    8.5746  -16.2204   24.6630 C   0  0  0  0  0  0  0  0  0  0  0  0
    9.2022  -17.0034   25.7726 C   0  0  0  0  0  0  0  0  0  0  0  0
    8.2862  -17.9285   26.4978 C   0  0  0  0  0  0  0  0  0  0  0  0
    8.8957  -18.7704   27.5598 C   0  0  0  0  0  0  0  0  0  0  0  0
    7.9156  -19.4861   28.3455 N   0  0  0  0  0  0  0  0  0  0  0  0
   10.8358  -15.9383   23.8170 C   0  0  0  0  0  0  0  0  0  0  0  0
   11.8021  -15.7541   24.5992 O   0  0  0  0  0  0  0  0  0  0  0  0
   11.0322  -16.8210   22.7651 O   0  0  0  0  0  0  0  0  0  0  0  0
  2  1  1  0
  3  2  1  0
  3  4  1  1
  5  3  1  0
  5  6  2  0
  8  7  1  1
  8  9  1  0
  8 10  1  0
  9  5  1  0
 10 12  1  0
 11 10  2  0
 12 13  1  0
 13 14  1  6
 14 15  1  0
 16 15  1  0
 16 17  1  0
 17 18  1  0
 19 21  1  0
 19 13  1  0
 20 19  2  0
M  END
$$$$
