SAK.pdb
     RDKit          3D

 21 20  0  0  1  0  0  0  0  0999 V2000
   10.3117  -12.5834   19.1909 O   0  0  0  0  0  0  0  0  0  0  0  0
   10.3840  -13.5507   18.1925 C   0  0  0  0  0  0  0  0  0  0  0  0
    9.0792  -14.3128   18.0999 C   0  0  2  0  0  0  0  0  0  0  0  0
    8.0244  -13.4490   17.6653 N   0  0  0  0  0  0  0  0  0  0  0  0
    8.7598  -14.9998   19.3809 C   0  0  0  0  0  0  0  0  0  0  0  0
    7.9192  -14.4747   20.1438 O   0  0  0  0  0  0  0  0  0  0  0  0
    9.8891  -18.1547   21.0551 C   0  0  0  0  0  0  0  0  0  0  0  0
    9.0602  -16.8880   21.0202 C   0  0  2  0  0  0  0  0  0  0  0  0
    9.3641  -16.2164   19.7705 N   0  0  0  0  0  0  0  0  0  0  0  0
    9.4122  -16.0377   22.2007 C   0  0  0  0  0  0  0  0  0  0  0  0
   10.4745  -15.4084   22.1638 O   0  0  0  0  0  0  0  0  0  0  0  0
    8.5730  -15.9467   23.3228 N   0  0  0  0  0  0  0  0  0  0  0  0
    8.6760  -15.1308   24.4662 C   0  0  1  0  0  0  0  0  0  0  0  0
    7.4525  -14.2944   24.8161 C   0  0  0  0  0  0  0  0  0  0  0  0
    7.6676  -13.3821   25.9820 C   0  0  0  0  0  0  0  0  0  0  0  0
    6.4794  -12.5826   26.3941 C   0  0  0  0  0  0  0  0  0  0  0  0
    6.6482  -11.7041   27.5805 C   0  0  0  0  0  0  0  0  0  0  0  0
    5.4174  -11.0660   27.9908 N   0  0  0  0  0  0  0  0  0  0  0  0
    9.2460  -15.6907   25.6776 C   0  0  0  0  0  0  0  0  0  0  0  0
    9.7357  -15.0006   26.6069 O   0  0  0  0  0  0  0  0  0  0  0  0
    9.2599  -17.0685   25.8372 O   0  0  0  0  0  0  0  0  0  0  0  0
  2  1  1  0
  3  2  1  0
  3  4  1  1
  5  3  1  0
  5  6  2  0
  8  7  1  1
  8  9  1  0
  8 10  1  0
  9  5  1  0
 10 12  1  0
 11 10  2  0
 12 13  1  0
 13 14  1  1
 14 15  1  0
 16 15  1  0
 16 17  1  0
 17 18  1  0
 19 21  1  0
 19 13  1  0
 20 19  2  0
M  END
$$$$
