SAK.pdb
     RDKit          3D

 21 20  0  0  1  0  0  0  0  0999 V2000
   13.7274  -17.1590   21.6928 O   0  0  0  0  0  0  0  0  0  0  0  0
   13.0834  -18.1934   21.0198 C   0  0  0  0  0  0  0  0  0  0  0  0
   11.6929  -17.7659   20.6008 C   0  0  2  0  0  0  0  0  0  0  0  0
   11.7591  -16.6390   19.7214 N   0  0  0  0  0  0  0  0  0  0  0  0
   10.8232  -17.5148   21.7821 C   0  0  0  0  0  0  0  0  0  0  0  0
   10.4187  -16.3489   21.9856 O   0  0  0  0  0  0  0  0  0  0  0  0
    9.0849  -19.6903   24.2684 C   0  0  0  0  0  0  0  0  0  0  0  0
    9.4910  -18.3227   23.7608 C   0  0  2  0  0  0  0  0  0  0  0  0
   10.4363  -18.5346   22.6807 N   0  0  0  0  0  0  0  0  0  0  0  0
   10.1041  -17.5444   24.8827 C   0  0  0  0  0  0  0  0  0  0  0  0
   11.3117  -17.6922   25.0968 O   0  0  0  0  0  0  0  0  0  0  0  0
    9.3454  -16.6695   25.6767 N   0  0  0  0  0  0  0  0  0  0  0  0
    9.7203  -15.9178   26.8073 C   0  0  1  0  0  0  0  0  0  0  0  0
    8.7127  -14.8896   27.3037 C   0  0  0  0  0  0  0  0  0  0  0  0
    8.1729  -14.0122   26.2190 C   0  0  0  0  0  0  0  0  0  0  0  0
    7.1410  -13.0270   26.6496 C   0  0  0  0  0  0  0  0  0  0  0  0
    6.7159  -12.0246   25.6385 C   0  0  0  0  0  0  0  0  0  0  0  0
    5.7210  -11.1032   26.1400 N   0  0  0  0  0  0  0  0  0  0  0  0
   10.3140  -16.6042   27.9397 C   0  0  0  0  0  0  0  0  0  0  0  0
   11.0778  -16.0537   28.7723 O   0  0  0  0  0  0  0  0  0  0  0  0
   10.0331  -17.9490   28.1310 O   0  0  0  0  0  0  0  0  0  0  0  0
  2  1  1  0
  3  2  1  0
  3  4  1  1
  5  3  1  0
  5  6  2  0
  8  7  1  1
  8  9  1  0
  8 10  1  0
  9  5  1  0
 10 12  1  0
 11 10  2  0
 12 13  1  0
 13 14  1  1
 14 15  1  0
 16 15  1  0
 16 17  1  0
 17 18  1  0
 19 21  1  0
 19 13  1  0
 20 19  2  0
M  END
$$$$
