SAK.pdb
     RDKit          3D

 21 20  0  0  1  0  0  0  0  0999 V2000
    7.2141  -18.3415   20.8541 O   0  0  0  0  0  0  0  0  0  0  0  0
    6.1453  -17.9422   20.0567 C   0  0  0  0  0  0  0  0  0  0  0  0
    6.6471  -17.2326   18.8172 C   0  0  2  0  0  0  0  0  0  0  0  0
    7.2281  -18.1691   17.9045 N   0  0  0  0  0  0  0  0  0  0  0  0
    7.5787  -16.1254   19.1654 C   0  0  0  0  0  0  0  0  0  0  0  0
    8.8089  -16.3453   19.1148 O   0  0  0  0  0  0  0  0  0  0  0  0
    7.1958  -12.5343   20.1507 C   0  0  0  0  0  0  0  0  0  0  0  0
    8.0333  -13.7830   19.9712 C   0  0  2  0  0  0  0  0  0  0  0  0
    7.1336  -14.8403   19.5495 N   0  0  0  0  0  0  0  0  0  0  0  0
    8.7029  -14.1161   21.2678 C   0  0  0  0  0  0  0  0  0  0  0  0
    9.6449  -13.4046   21.6316 O   0  0  0  0  0  0  0  0  0  0  0  0
    8.2864  -15.1994   22.0581 N   0  0  0  0  0  0  0  0  0  0  0  0
    8.7806  -15.6613   23.2935 C   0  0  1  0  0  0  0  0  0  0  0  0
    7.8911  -16.6298   24.0614 C   0  0  0  0  0  0  0  0  0  0  0  0
    8.4713  -17.0616   25.3709 C   0  0  0  0  0  0  0  0  0  0  0  0
    7.6912  -18.0989   26.1032 C   0  0  0  0  0  0  0  0  0  0  0  0
    8.2424  -18.5472   27.4082 C   0  0  0  0  0  0  0  0  0  0  0  0
    7.3575  -19.4442   28.1171 N   0  0  0  0  0  0  0  0  0  0  0  0
   10.1620  -16.0981   23.3766 C   0  0  0  0  0  0  0  0  0  0  0  0
   10.9232  -15.8388   24.3425 O   0  0  0  0  0  0  0  0  0  0  0  0
   10.6916  -16.8480   22.3368 O   0  0  0  0  0  0  0  0  0  0  0  0
  2  1  1  0
  3  2  1  0
  3  4  1  6
  5  3  1  0
  5  6  2  0
  8  7  1  1
  8  9  1  0
  8 10  1  0
  9  5  1  0
 10 12  1  0
 11 10  2  0
 12 13  1  0
 13 14  1  6
 14 15  1  0
 16 15  1  0
 16 17  1  0
 17 18  1  0
 19 21  1  0
 19 13  1  0
 20 19  2  0
M  END
$$$$
