SAK.pdb
     RDKit          3D

 21 20  0  0  1  0  0  0  0  0999 V2000
   10.9961  -13.1451   19.5657 O   0  0  0  0  0  0  0  0  0  0  0  0
   10.4759  -13.7753   18.4388 C   0  0  0  0  0  0  0  0  0  0  0  0
    8.9834  -13.9793   18.5894 C   0  0  2  0  0  0  0  0  0  0  0  0
    8.2951  -12.7282   18.4972 N   0  0  0  0  0  0  0  0  0  0  0  0
    8.6598  -14.7152   19.8418 C   0  0  0  0  0  0  0  0  0  0  0  0
    8.3014  -14.0565   20.8428 O   0  0  0  0  0  0  0  0  0  0  0  0
    8.5783  -18.3161   20.8661 C   0  0  0  0  0  0  0  0  0  0  0  0
    8.5108  -16.8381   21.1886 C   0  0  2  0  0  0  0  0  0  0  0  0
    8.7401  -16.1221   19.9477 N   0  0  0  0  0  0  0  0  0  0  0  0
    9.5525  -16.5106   22.2124 C   0  0  0  0  0  0  0  0  0  0  0  0
   10.7075  -16.3156   21.8203 O   0  0  0  0  0  0  0  0  0  0  0  0
    9.2439  -16.4236   23.5795 N   0  0  0  0  0  0  0  0  0  0  0  0
   10.0958  -16.2877   24.6928 C   0  0  1  0  0  0  0  0  0  0  0  0
    9.4892  -15.6573   25.9392 C   0  0  0  0  0  0  0  0  0  0  0  0
   10.4542  -15.5360   27.0758 C   0  0  0  0  0  0  0  0  0  0  0  0
    9.8974  -14.9441   28.3250 C   0  0  0  0  0  0  0  0  0  0  0  0
   10.8508  -14.7394   29.4461 C   0  0  0  0  0  0  0  0  0  0  0  0
   10.2572  -14.0596   30.5756 N   0  0  0  0  0  0  0  0  0  0  0  0
   10.9358  -17.4082   25.0733 C   0  0  0  0  0  0  0  0  0  0  0  0
   10.5373  -18.5992   25.1225 O   0  0  0  0  0  0  0  0  0  0  0  0
   12.2612  -17.1699   25.4060 O   0  0  0  0  0  0  0  0  0  0  0  0
  2  1  1  0
  3  2  1  0
  3  4  1  1
  5  3  1  0
  5  6  2  0
  8  7  1  6
  8  9  1  0
  8 10  1  0
  9  5  1  0
 10 12  1  0
 11 10  2  0
 12 13  1  0
 13 14  1  1
 14 15  1  0
 16 15  1  0
 16 17  1  0
 17 18  1  0
 19 21  1  0
 19 13  1  0
 20 19  2  0
M  END
$$$$
