SAK.pdb
     RDKit          3D

 21 20  0  0  1  0  0  0  0  0999 V2000
    8.5915  -18.4957   21.1369 O   0  0  0  0  0  0  0  0  0  0  0  0
    7.8391  -18.2442   19.9931 C   0  0  0  0  0  0  0  0  0  0  0  0
    8.5167  -17.1972   19.1348 C   0  0  2  0  0  0  0  0  0  0  0  0
    9.7082  -17.7272   18.5456 N   0  0  0  0  0  0  0  0  0  0  0  0
    8.7693  -15.9471   19.9018 C   0  0  0  0  0  0  0  0  0  0  0  0
    9.9323  -15.7198   20.3021 O   0  0  0  0  0  0  0  0  0  0  0  0
    6.7561  -12.9386   20.8287 C   0  0  0  0  0  0  0  0  0  0  0  0
    7.9860  -13.8092   20.9781 C   0  0  2  0  0  0  0  0  0  0  0  0
    7.7542  -15.0090   20.1959 N   0  0  0  0  0  0  0  0  0  0  0  0
    8.1891  -14.1283   22.4264 C   0  0  0  0  0  0  0  0  0  0  0  0
    8.3809  -13.1880   23.2043 O   0  0  0  0  0  0  0  0  0  0  0  0
    8.1654  -15.4489   22.9028 N   0  0  0  0  0  0  0  0  0  0  0  0
    8.3211  -15.9412   24.2133 C   0  0  1  0  0  0  0  0  0  0  0  0
    7.8894  -17.3817   24.4532 C   0  0  0  0  0  0  0  0  0  0  0  0
    6.6229  -17.7499   23.7473 C   0  0  0  0  0  0  0  0  0  0  0  0
    6.2837  -19.2009   23.7609 C   0  0  0  0  0  0  0  0  0  0  0  0
    5.0120  -19.5926   23.0995 C   0  0  0  0  0  0  0  0  0  0  0  0
    4.8655  -21.0241   22.9597 N   0  0  0  0  0  0  0  0  0  0  0  0
    9.5636  -15.6815   24.9164 C   0  0  0  0  0  0  0  0  0  0  0  0
    9.7295  -15.8826   26.1459 O   0  0  0  0  0  0  0  0  0  0  0  0
   10.6443  -15.1809   24.2054 O   0  0  0  0  0  0  0  0  0  0  0  0
  2  1  1  0
  3  2  1  0
  3  4  1  1
  5  3  1  0
  5  6  2  0
  8  7  1  1
  8  9  1  0
  8 10  1  0
  9  5  1  0
 10 12  1  0
 11 10  2  0
 12 13  1  0
 13 14  1  6
 14 15  1  0
 16 15  1  0
 16 17  1  0
 17 18  1  0
 19 21  1  0
 19 13  1  0
 20 19  2  0
M  END
$$$$
