SAK.pdb
     RDKit          3D

 21 20  0  0  1  0  0  0  0  0999 V2000
    8.2331  -19.1967   18.9605 O   0  0  0  0  0  0  0  0  0  0  0  0
    7.2907  -18.4970   18.2123 C   0  0  0  0  0  0  0  0  0  0  0  0
    7.8416  -17.1498   17.7955 C   0  0  2  0  0  0  0  0  0  0  0  0
    8.7483  -17.2972   16.6984 N   0  0  0  0  0  0  0  0  0  0  0  0
    8.4547  -16.4342   18.9475 C   0  0  0  0  0  0  0  0  0  0  0  0
    9.6864  -16.5494   19.1318 O   0  0  0  0  0  0  0  0  0  0  0  0
    7.1695  -14.2358   21.6947 C   0  0  0  0  0  0  0  0  0  0  0  0
    8.2917  -14.9658   20.9871 C   0  0  2  0  0  0  0  0  0  0  0  0
    7.7065  -15.6327   19.8391 N   0  0  0  0  0  0  0  0  0  0  0  0
    8.9142  -15.9447   21.9328 C   0  0  0  0  0  0  0  0  0  0  0  0
    8.3969  -17.0620   22.0320 O   0  0  0  0  0  0  0  0  0  0  0  0
   10.0506  -15.6199   22.6911 N   0  0  0  0  0  0  0  0  0  0  0  0
   10.7630  -16.3912   23.6299 C   0  0  1  0  0  0  0  0  0  0  0  0
   12.2823  -16.3262   23.5492 C   0  0  0  0  0  0  0  0  0  0  0  0
   12.9680  -17.3738   24.3678 C   0  0  0  0  0  0  0  0  0  0  0  0
   14.4571  -17.3530   24.3127 C   0  0  0  0  0  0  0  0  0  0  0  0
   15.1642  -18.4476   25.0266 C   0  0  0  0  0  0  0  0  0  0  0  0
   16.5861  -18.4663   24.7656 N   0  0  0  0  0  0  0  0  0  0  0  0
   10.3474  -16.3628   25.0200 C   0  0  0  0  0  0  0  0  0  0  0  0
    9.6315  -15.4589   25.5201 O   0  0  0  0  0  0  0  0  0  0  0  0
   10.7550  -17.3865   25.8626 O   0  0  0  0  0  0  0  0  0  0  0  0
  2  1  1  0
  3  2  1  0
  3  4  1  6
  5  3  1  0
  5  6  2  0
  8  7  1  1
  8  9  1  0
  8 10  1  0
  9  5  1  0
 10 12  1  0
 11 10  2  0
 12 13  1  0
 13 14  1  1
 14 15  1  0
 16 15  1  0
 16 17  1  0
 17 18  1  0
 19 21  1  0
 19 13  1  0
 20 19  2  0
M  END
$$$$
