NTN.pdb
     RDKit          3D

 24 23  0  0  1  0  0  0  0  0999 V2000
   15.3063  -13.4922  -15.7246 N   0  0  0  0  0  0  0  0  0  0  0  0
   16.4590  -14.1295  -15.1894 C   0  0  0  0  0  0  0  0  0  0  0  0
   16.3888  -15.3328  -14.8112 O   0  0  0  0  0  0  0  0  0  0  0  0
   17.7866  -13.4388  -15.0430 C   0  0  0  0  0  0  0  0  0  0  0  0
   18.3724  -13.3659  -16.4225 C   0  0  2  0  0  0  0  0  0  0  0  0
   18.7497  -14.6820  -16.8467 N   0  0  0  0  0  0  0  0  0  0  0  0
   19.4417  -12.3491  -16.5846 C   0  0  0  0  0  0  0  0  0  0  0  0
   20.5625  -12.5462  -16.0376 O   0  0  0  0  0  0  0  0  0  0  0  0
   20.8885  -10.7400  -19.7025 C   0  0  0  0  0  0  0  0  0  0  0  0
   20.5156   -9.5849  -18.8008 C   0  0  1  0  0  0  0  0  0  0  0  0
   19.4033   -8.9432  -19.3255 O   0  0  0  0  0  0  0  0  0  0  0  0
   20.2972  -10.1209  -17.4258 C   0  0  2  0  0  0  0  0  0  0  0  0
   19.2886  -11.1442  -17.3238 N   0  0  0  0  0  0  0  0  0  0  0  0
   20.1247   -9.0694  -16.3810 C   0  0  0  0  0  0  0  0  0  0  0  0
   19.0534   -8.8576  -15.7989 O   0  0  0  0  0  0  0  0  0  0  0  0
   23.1999   -4.5063  -14.1212 N   0  0  0  0  0  0  0  0  0  0  0  0
   22.7062   -5.7576  -13.6805 C   0  0  0  0  0  0  0  0  0  0  0  0
   22.3097   -5.8848  -12.5027 O   0  0  0  0  0  0  0  0  0  0  0  0
   22.6614   -6.8968  -14.6121 C   0  0  0  0  0  0  0  0  0  0  0  0
   21.2514   -7.1957  -15.0845 C   0  0  2  0  0  0  0  0  0  0  0  0
   21.2556   -8.2858  -16.0471 N   0  0  0  0  0  0  0  0  0  0  0  0
   20.7359   -5.9661  -15.7493 C   0  0  0  0  0  0  0  0  0  0  0  0
   19.9434   -5.0454  -15.0907 O   0  0  0  0  0  0  0  0  0  0  0  0
   21.0285   -5.7514  -16.9436 O   0  0  0  0  0  0  0  0  0  0  0  0
  2  1  1  0
  3  2  2  0
  4  2  1  0
  4  5  1  0
  5  6  1  1
  7  5  1  0
  8  7  2  0
 10  9  1  6
 10 12  1  0
 11 10  1  0
 12 13  1  6
 12 14  1  0
 13  7  1  0
 14 15  2  0
 14 21  1  0
 17 16  1  0
 18 17  2  0
 19 17  1  0
 20 19  1  6
 20 22  1  0
 21 20  1  0
 22 23  1  0
 24 22  2  0
M  END
$$$$
