NTN.pdb
     RDKit          3D

 24 23  0  0  1  0  0  0  0  0999 V2000
   19.2546  -15.2577  -13.9105 N   0  0  0  0  0  0  0  0  0  0  0  0
   18.9284  -14.9825  -15.2667 C   0  0  0  0  0  0  0  0  0  0  0  0
   18.1986  -15.7886  -15.9098 O   0  0  0  0  0  0  0  0  0  0  0  0
   19.4134  -13.7609  -15.9972 C   0  0  0  0  0  0  0  0  0  0  0  0
   18.1877  -13.0853  -16.5382 C   0  0  2  0  0  0  0  0  0  0  0  0
   17.6970  -13.8252  -17.6633 N   0  0  0  0  0  0  0  0  0  0  0  0
   18.3478  -11.6319  -16.7941 C   0  0  0  0  0  0  0  0  0  0  0  0
   19.0490  -11.2561  -17.7746 O   0  0  0  0  0  0  0  0  0  0  0  0
   16.0850   -9.0586  -17.8177 C   0  0  0  0  0  0  0  0  0  0  0  0
   16.6653   -8.4662  -16.5533 C   0  0  1  0  0  0  0  0  0  0  0  0
   15.7138   -8.5312  -15.5461 O   0  0  0  0  0  0  0  0  0  0  0  0
   17.9222   -9.2018  -16.2301 C   0  0  2  0  0  0  0  0  0  0  0  0
   17.7587  -10.6136  -15.9955 N   0  0  0  0  0  0  0  0  0  0  0  0
   18.7507   -8.5581  -15.1688 C   0  0  0  0  0  0  0  0  0  0  0  0
   18.9396   -9.0611  -14.0541 O   0  0  0  0  0  0  0  0  0  0  0  0
   21.8502   -5.0272  -12.9767 N   0  0  0  0  0  0  0  0  0  0  0  0
   22.3745   -5.4809  -14.2108 C   0  0  0  0  0  0  0  0  0  0  0  0
   23.5352   -5.1605  -14.5437 O   0  0  0  0  0  0  0  0  0  0  0  0
   21.5508   -6.3273  -15.0900 C   0  0  0  0  0  0  0  0  0  0  0  0
   20.1515   -6.5319  -14.5417 C   0  0  2  0  0  0  0  0  0  0  0  0
   19.3478   -7.3103  -15.4706 N   0  0  0  0  0  0  0  0  0  0  0  0
   19.5359   -5.1847  -14.3817 C   0  0  0  0  0  0  0  0  0  0  0  0
   19.5583   -4.4983  -13.1825 O   0  0  0  0  0  0  0  0  0  0  0  0
   18.9804   -4.6486  -15.3625 O   0  0  0  0  0  0  0  0  0  0  0  0
  2  1  1  0
  3  2  2  0
  4  2  1  0
  4  5  1  0
  5  6  1  6
  7  5  1  0
  8  7  2  0
 10  9  1  6
 10 12  1  0
 11 10  1  0
 12 13  1  1
 12 14  1  0
 13  7  1  0
 14 15  2  0
 14 21  1  0
 17 16  1  0
 18 17  2  0
 19 17  1  0
 20 19  1  6
 20 22  1  0
 21 20  1  0
 22 23  1  0
 24 22  2  0
M  END
$$$$
