NTN.pdb
     RDKit          3D

 24 23  0  0  1  0  0  0  0  0999 V2000
   18.5414  -15.8448  -17.9217 N   0  0  0  0  0  0  0  0  0  0  0  0
   19.2254  -14.6044  -18.0439 C   0  0  0  0  0  0  0  0  0  0  0  0
   20.4281  -14.5895  -18.4303 O   0  0  0  0  0  0  0  0  0  0  0  0
   18.5867  -13.2794  -17.7320 C   0  0  0  0  0  0  0  0  0  0  0  0
   19.6717  -12.4204  -17.1520 C   0  0  2  0  0  0  0  0  0  0  0  0
   20.1752  -13.0350  -15.9591 N   0  0  0  0  0  0  0  0  0  0  0  0
   19.3041  -10.9917  -16.9869 C   0  0  0  0  0  0  0  0  0  0  0  0
   19.2783  -10.2443  -18.0042 O   0  0  0  0  0  0  0  0  0  0  0  0
   16.1639   -9.5820  -15.8791 C   0  0  0  0  0  0  0  0  0  0  0  0
   17.1626   -8.8950  -14.9751 C   0  0  1  0  0  0  0  0  0  0  0  0
   17.0713   -9.4416  -13.7035 O   0  0  0  0  0  0  0  0  0  0  0  0
   18.5162   -9.0371  -15.5858 C   0  0  2  0  0  0  0  0  0  0  0  0
   18.9761  -10.3935  -15.7394 N   0  0  0  0  0  0  0  0  0  0  0  0
   19.5593   -8.1671  -14.9675 C   0  0  0  0  0  0  0  0  0  0  0  0
   20.5258   -8.6089  -14.3336 O   0  0  0  0  0  0  0  0  0  0  0  0
   22.2219   -3.9378  -13.7572 N   0  0  0  0  0  0  0  0  0  0  0  0
   22.5155   -4.6457  -14.9473 C   0  0  0  0  0  0  0  0  0  0  0  0
   23.5522   -4.3721  -15.5887 O   0  0  0  0  0  0  0  0  0  0  0  0
   21.6004   -5.6985  -15.4183 C   0  0  0  0  0  0  0  0  0  0  0  0
   20.3395   -5.7793  -14.5793 C   0  0  2  0  0  0  0  0  0  0  0  0
   19.4236   -6.7669  -15.1277 N   0  0  0  0  0  0  0  0  0  0  0  0
   19.6893   -4.4396  -14.6249 C   0  0  0  0  0  0  0  0  0  0  0  0
   20.0091   -3.4310  -13.7359 O   0  0  0  0  0  0  0  0  0  0  0  0
   18.8255   -4.2113  -15.4964 O   0  0  0  0  0  0  0  0  0  0  0  0
  2  1  1  0
  3  2  2  0
  4  2  1  0
  4  5  1  0
  5  6  1  1
  7  5  1  0
  8  7  2  0
 10  9  1  6
 10 12  1  0
 11 10  1  0
 12 13  1  1
 12 14  1  0
 13  7  1  0
 14 15  2  0
 14 21  1  0
 17 16  1  0
 18 17  2  0
 19 17  1  0
 20 19  1  6
 20 22  1  0
 21 20  1  0
 22 23  1  0
 24 22  2  0
M  END
$$$$
