NTN.pdb
     RDKit          3D

 24 23  0  0  1  0  0  0  0  0999 V2000
   13.9108  -13.6666  -13.3169 N   0  0  0  0  0  0  0  0  0  0  0  0
   14.4469  -13.9082  -14.6113 C   0  0  0  0  0  0  0  0  0  0  0  0
   13.7246  -14.4482  -15.4960 O   0  0  0  0  0  0  0  0  0  0  0  0
   15.8557  -13.5514  -14.9972 C   0  0  0  0  0  0  0  0  0  0  0  0
   15.9045  -12.0528  -15.0559 C   0  0  2  0  0  0  0  0  0  0  0  0
   14.9863  -11.5880  -16.0534 N   0  0  0  0  0  0  0  0  0  0  0  0
   17.2706  -11.4855  -15.1808 C   0  0  0  0  0  0  0  0  0  0  0  0
   18.2122  -12.0040  -14.5182 O   0  0  0  0  0  0  0  0  0  0  0  0
   19.6638  -11.4090  -17.8064 C   0  0  0  0  0  0  0  0  0  0  0  0
   19.5394   -9.9384  -17.4775 C   0  0  1  0  0  0  0  0  0  0  0  0
   18.8093   -9.3124  -18.4771 O   0  0  0  0  0  0  0  0  0  0  0  0
   18.9207   -9.8156  -16.1257 C   0  0  2  0  0  0  0  0  0  0  0  0
   17.5991  -10.3762  -16.0072 N   0  0  0  0  0  0  0  0  0  0  0  0
   18.9925   -8.4432  -15.5438 C   0  0  0  0  0  0  0  0  0  0  0  0
   18.0208   -7.6796  -15.4792 O   0  0  0  0  0  0  0  0  0  0  0  0
   21.2561   -4.2584  -13.4183 N   0  0  0  0  0  0  0  0  0  0  0  0
   22.1133   -5.3541  -13.1567 C   0  0  0  0  0  0  0  0  0  0  0  0
   23.0995   -5.2008  -12.4053 O   0  0  0  0  0  0  0  0  0  0  0  0
   21.8355   -6.6641  -13.7687 C   0  0  0  0  0  0  0  0  0  0  0  0
   20.4971   -6.6913  -14.4818 C   0  0  2  0  0  0  0  0  0  0  0  0
   20.2427   -8.0097  -15.0403 N   0  0  0  0  0  0  0  0  0  0  0  0
   20.5659   -5.7011  -15.5928 C   0  0  0  0  0  0  0  0  0  0  0  0
   20.0013   -4.4432  -15.4993 O   0  0  0  0  0  0  0  0  0  0  0  0
   21.1556   -6.0104  -16.6486 O   0  0  0  0  0  0  0  0  0  0  0  0
  2  1  1  0
  3  2  2  0
  4  2  1  0
  4  5  1  0
  5  6  1  6
  7  5  1  0
  8  7  2  0
 10  9  1  6
 10 12  1  0
 11 10  1  0
 12 13  1  6
 12 14  1  0
 13  7  1  0
 14 15  2  0
 14 21  1  0
 17 16  1  0
 18 17  2  0
 19 17  1  0
 20 19  1  6
 20 22  1  0
 21 20  1  0
 22 23  1  0
 24 22  2  0
M  END
$$$$
