NTN.pdb
     RDKit          3D

 24 23  0  0  1  0  0  0  0  0999 V2000
   17.8709  -13.7536  -18.3170 N   0  0  0  0  0  0  0  0  0  0  0  0
   18.0611  -14.0838  -16.9472 C   0  0  0  0  0  0  0  0  0  0  0  0
   17.5563  -15.1453  -16.4844 O   0  0  0  0  0  0  0  0  0  0  0  0
   18.8449  -13.2230  -15.9955 C   0  0  0  0  0  0  0  0  0  0  0  0
   19.2813  -12.0225  -16.7828 C   0  0  2  0  0  0  0  0  0  0  0  0
   20.1529  -12.4414  -17.8406 N   0  0  0  0  0  0  0  0  0  0  0  0
   19.8197  -10.9096  -15.9611 C   0  0  0  0  0  0  0  0  0  0  0  0
   19.2046  -10.5694  -14.9122 O   0  0  0  0  0  0  0  0  0  0  0  0
   23.0308  -10.8727  -14.3426 C   0  0  0  0  0  0  0  0  0  0  0  0
   23.0178   -9.5179  -15.0139 C   0  0  1  0  0  0  0  0  0  0  0  0
   23.9032   -9.5345  -16.0816 O   0  0  0  0  0  0  0  0  0  0  0  0
   21.6135   -9.2108  -15.4128 C   0  0  2  0  0  0  0  0  0  0  0  0
   20.9999  -10.1836  -16.2801 N   0  0  0  0  0  0  0  0  0  0  0  0
   21.4114   -7.8195  -15.9135 C   0  0  0  0  0  0  0  0  0  0  0  0
   21.2817   -7.5395  -17.1118 O   0  0  0  0  0  0  0  0  0  0  0  0
   20.6059   -2.7367  -15.8346 N   0  0  0  0  0  0  0  0  0  0  0  0
   19.6155   -3.4600  -15.1277 C   0  0  0  0  0  0  0  0  0  0  0  0
   18.5596   -2.8872  -14.7846 O   0  0  0  0  0  0  0  0  0  0  0  0
   19.8356   -4.8796  -14.8047 C   0  0  0  0  0  0  0  0  0  0  0  0
   21.1929   -5.3698  -15.2716 C   0  0  2  0  0  0  0  0  0  0  0  0
   21.3636   -6.7788  -14.9547 N   0  0  0  0  0  0  0  0  0  0  0  0
   22.2248   -4.5818  -14.5410 C   0  0  0  0  0  0  0  0  0  0  0  0
   22.7914   -3.4365  -15.0672 O   0  0  0  0  0  0  0  0  0  0  0  0
   22.5943   -4.9620  -13.4110 O   0  0  0  0  0  0  0  0  0  0  0  0
  2  1  1  0
  3  2  2  0
  4  2  1  0
  4  5  1  0
  5  6  1  6
  7  5  1  0
  8  7  2  0
 10  9  1  6
 10 12  1  0
 11 10  1  0
 12 13  1  6
 12 14  1  0
 13  7  1  0
 14 15  2  0
 14 21  1  0
 17 16  1  0
 18 17  2  0
 19 17  1  0
 20 19  1  1
 20 22  1  0
 21 20  1  0
 22 23  1  0
 24 22  2  0
M  END
$$$$
