NTN.pdb
     RDKit          3D

 24 23  0  0  1  0  0  0  0  0999 V2000
   20.8273  -15.3200  -18.4488 N   0  0  0  0  0  0  0  0  0  0  0  0
   19.7253  -15.3240  -17.5506 C   0  0  0  0  0  0  0  0  0  0  0  0
   18.9022  -16.2820  -17.5758 O   0  0  0  0  0  0  0  0  0  0  0  0
   19.4762  -14.2293  -16.5503 C   0  0  0  0  0  0  0  0  0  0  0  0
   20.5471  -13.2038  -16.7801 C   0  0  2  0  0  0  0  0  0  0  0  0
   21.8325  -13.8191  -16.6270 N   0  0  0  0  0  0  0  0  0  0  0  0
   20.3794  -11.9525  -15.9992 C   0  0  0  0  0  0  0  0  0  0  0  0
   19.6802  -11.9755  -14.9480 O   0  0  0  0  0  0  0  0  0  0  0  0
   22.6398  -10.2323  -14.0384 C   0  0  0  0  0  0  0  0  0  0  0  0
   22.1646   -9.0979  -14.9179 C   0  0  1  0  0  0  0  0  0  0  0  0
   23.1610   -8.7869  -15.8314 O   0  0  0  0  0  0  0  0  0  0  0  0
   20.8820   -9.5119  -15.5573 C   0  0  2  0  0  0  0  0  0  0  0  0
   20.9589  -10.7053  -16.3603 N   0  0  0  0  0  0  0  0  0  0  0  0
   20.1727   -8.4104  -16.2720 C   0  0  0  0  0  0  0  0  0  0  0  0
   20.1364   -8.3116  -17.5050 O   0  0  0  0  0  0  0  0  0  0  0  0
   15.7057   -4.8305  -16.2283 N   0  0  0  0  0  0  0  0  0  0  0  0
   16.9625   -4.6815  -15.5943 C   0  0  0  0  0  0  0  0  0  0  0  0
   17.4542   -3.5411  -15.4583 O   0  0  0  0  0  0  0  0  0  0  0  0
   17.6784   -5.8688  -15.0987 C   0  0  0  0  0  0  0  0  0  0  0  0
   18.8159   -6.2763  -16.0155 C   0  0  2  0  0  0  0  0  0  0  0  0
   19.5083   -7.4395  -15.4842 N   0  0  0  0  0  0  0  0  0  0  0  0
   19.7688   -5.1327  -16.0761 C   0  0  0  0  0  0  0  0  0  0  0  0
   19.6599   -4.1275  -17.0181 O   0  0  0  0  0  0  0  0  0  0  0  0
   20.7003   -5.0717  -15.2475 O   0  0  0  0  0  0  0  0  0  0  0  0
  2  1  1  0
  3  2  2  0
  4  2  1  0
  4  5  1  0
  5  6  1  1
  7  5  1  0
  8  7  2  0
 10  9  1  1
 10 12  1  0
 11 10  1  0
 12 13  1  6
 12 14  1  0
 13  7  1  0
 14 15  2  0
 14 21  1  0
 17 16  1  0
 18 17  2  0
 19 17  1  0
 20 19  1  1
 20 22  1  0
 21 20  1  0
 22 23  1  0
 24 22  2  0
M  END
$$$$
