NTN.pdb
     RDKit          3D

 24 23  0  0  1  0  0  0  0  0999 V2000
   16.8078  -13.9424  -16.6895 N   0  0  0  0  0  0  0  0  0  0  0  0
   16.9251  -13.1184  -15.5368 C   0  0  0  0  0  0  0  0  0  0  0  0
   15.9836  -13.0838  -14.6951 O   0  0  0  0  0  0  0  0  0  0  0  0
   18.1311  -12.2656  -15.2552 C   0  0  0  0  0  0  0  0  0  0  0  0
   19.0578  -12.4577  -16.4196 C   0  0  2  0  0  0  0  0  0  0  0  0
   19.5246  -13.8127  -16.4346 N   0  0  0  0  0  0  0  0  0  0  0  0
   20.1387  -11.4451  -16.5200 C   0  0  0  0  0  0  0  0  0  0  0  0
   21.0204  -11.3987  -15.6174 O   0  0  0  0  0  0  0  0  0  0  0  0
   22.2731  -10.5717  -19.5978 C   0  0  0  0  0  0  0  0  0  0  0  0
   21.8119   -9.2480  -19.0307 C   0  0  1  0  0  0  0  0  0  0  0  0
   20.8852   -8.6845  -19.8954 O   0  0  0  0  0  0  0  0  0  0  0  0
   21.2733   -9.4919  -17.6611 C   0  0  2  0  0  0  0  0  0  0  0  0
   20.2512  -10.5037  -17.5796 N   0  0  0  0  0  0  0  0  0  0  0  0
   20.8819   -8.2517  -16.9291 C   0  0  0  0  0  0  0  0  0  0  0  0
   19.7086   -7.9557  -16.6703 O   0  0  0  0  0  0  0  0  0  0  0  0
   22.9231   -4.4686  -13.0256 N   0  0  0  0  0  0  0  0  0  0  0  0
   21.7614   -5.0887  -13.5447 C   0  0  0  0  0  0  0  0  0  0  0  0
   20.6443   -4.5614  -13.3580 O   0  0  0  0  0  0  0  0  0  0  0  0
   21.8780   -6.3464  -14.3012 C   0  0  0  0  0  0  0  0  0  0  0  0
   21.7129   -6.1346  -15.7940 C   0  0  2  0  0  0  0  0  0  0  0  0
   21.9187   -7.3821  -16.5126 N   0  0  0  0  0  0  0  0  0  0  0  0
   22.7506   -5.1544  -16.2208 C   0  0  0  0  0  0  0  0  0  0  0  0
   22.5685   -3.7890  -16.1114 O   0  0  0  0  0  0  0  0  0  0  0  0
   23.8272   -5.5741  -16.6928 O   0  0  0  0  0  0  0  0  0  0  0  0
  2  1  1  0
  3  2  2  0
  4  2  1  0
  4  5  1  0
  5  6  1  1
  7  5  1  0
  8  7  2  0
 10  9  1  6
 10 12  1  0
 11 10  1  0
 12 13  1  6
 12 14  1  0
 13  7  1  0
 14 15  2  0
 14 21  1  0
 17 16  1  0
 18 17  2  0
 19 17  1  0
 20 19  1  1
 20 22  1  0
 21 20  1  0
 22 23  1  0
 24 22  2  0
M  END
$$$$
