NTN.pdb
     RDKit          3D

 24 23  0  0  1  0  0  0  0  0999 V2000
   15.4981  -14.3440  -14.7207 N   0  0  0  0  0  0  0  0  0  0  0  0
   16.8707  -14.5751  -14.4310 C   0  0  0  0  0  0  0  0  0  0  0  0
   17.2286  -15.6852  -13.9458 O   0  0  0  0  0  0  0  0  0  0  0  0
   17.9455  -13.5516  -14.6729 C   0  0  0  0  0  0  0  0  0  0  0  0
   17.9494  -13.2933  -16.1510 C   0  0  2  0  0  0  0  0  0  0  0  0
   18.4910  -14.4338  -16.8294 N   0  0  0  0  0  0  0  0  0  0  0  0
   18.5673  -12.0036  -16.5492 C   0  0  0  0  0  0  0  0  0  0  0  0
   19.7884  -11.9826  -16.8698 O   0  0  0  0  0  0  0  0  0  0  0  0
   17.5544   -9.5806  -19.2096 C   0  0  0  0  0  0  0  0  0  0  0  0
   17.7142   -8.7213  -17.9757 C   0  0  1  0  0  0  0  0  0  0  0  0
   16.4605   -8.3154  -17.5426 O   0  0  0  0  0  0  0  0  0  0  0  0
   18.4677   -9.5079  -16.9565 C   0  0  2  0  0  0  0  0  0  0  0  0
   17.8683  -10.7662  -16.5927 N   0  0  0  0  0  0  0  0  0  0  0  0
   18.8721   -8.7211  -15.7546 C   0  0  0  0  0  0  0  0  0  0  0  0
   18.4553   -8.9582  -14.6139 O   0  0  0  0  0  0  0  0  0  0  0  0
   21.4292   -5.1135  -13.0264 N   0  0  0  0  0  0  0  0  0  0  0  0
   22.2829   -5.5934  -14.0484 C   0  0  0  0  0  0  0  0  0  0  0  0
   23.4775   -5.2289  -14.0768 O   0  0  0  0  0  0  0  0  0  0  0  0
   21.7586   -6.5185  -15.0668 C   0  0  0  0  0  0  0  0  0  0  0  0
   20.2768   -6.7883  -14.8874 C   0  0  2  0  0  0  0  0  0  0  0  0
   19.7838   -7.6548  -15.9461 N   0  0  0  0  0  0  0  0  0  0  0  0
   19.5738   -5.4773  -14.9693 C   0  0  0  0  0  0  0  0  0  0  0  0
   19.4012   -4.6599  -13.8685 O   0  0  0  0  0  0  0  0  0  0  0  0
   19.1240   -5.0952  -16.0691 O   0  0  0  0  0  0  0  0  0  0  0  0
  2  1  1  0
  3  2  2  0
  4  2  1  0
  4  5  1  0
  5  6  1  6
  7  5  1  0
  8  7  2  0
 10  9  1  6
 10 12  1  0
 11 10  1  0
 12 13  1  1
 12 14  1  0
 13  7  1  0
 14 15  2  0
 14 21  1  0
 17 16  1  0
 18 17  2  0
 19 17  1  0
 20 19  1  6
 20 22  1  0
 21 20  1  0
 22 23  1  0
 24 22  2  0
M  END
$$$$
