NTN.pdb
     RDKit          3D

 24 23  0  0  1  0  0  0  0  0999 V2000
   16.1510  -14.9362  -15.8790 N   0  0  0  0  0  0  0  0  0  0  0  0
   17.1147  -14.4609  -14.9481 C   0  0  0  0  0  0  0  0  0  0  0  0
   17.1874  -14.9854  -13.8011 O   0  0  0  0  0  0  0  0  0  0  0  0
   18.0736  -13.3442  -15.2557 C   0  0  0  0  0  0  0  0  0  0  0  0
   17.6646  -12.8008  -16.5933 C   0  0  2  0  0  0  0  0  0  0  0  0
   17.8295  -13.8191  -17.5884 N   0  0  0  0  0  0  0  0  0  0  0  0
   18.2903  -11.5023  -16.9480 C   0  0  0  0  0  0  0  0  0  0  0  0
   19.3683  -11.5010  -17.6056 O   0  0  0  0  0  0  0  0  0  0  0  0
   17.0229   -8.9571  -19.0861 C   0  0  0  0  0  0  0  0  0  0  0  0
   17.3914   -8.1466  -17.8640 C   0  0  1  0  0  0  0  0  0  0  0  0
   16.2299   -7.7578  -17.2129 O   0  0  0  0  0  0  0  0  0  0  0  0
   18.2988   -8.9725  -17.0154 C   0  0  2  0  0  0  0  0  0  0  0  0
   17.7527  -10.2357  -16.5897 N   0  0  0  0  0  0  0  0  0  0  0  0
   18.9182   -8.2280  -15.8800 C   0  0  0  0  0  0  0  0  0  0  0  0
   18.6413   -8.4432  -14.6932 O   0  0  0  0  0  0  0  0  0  0  0  0
   23.1231   -3.6937  -15.3035 N   0  0  0  0  0  0  0  0  0  0  0  0
   22.4000   -4.8132  -14.8264 C   0  0  0  0  0  0  0  0  0  0  0  0
   22.3133   -5.0136  -13.5963 O   0  0  0  0  0  0  0  0  0  0  0  0
   21.7548   -5.7298  -15.7810 C   0  0  0  0  0  0  0  0  0  0  0  0
   20.4787   -6.3317  -15.2243 C   0  0  2  0  0  0  0  0  0  0  0  0
   19.8730   -7.2308  -16.1937 N   0  0  0  0  0  0  0  0  0  0  0  0
   19.5386   -5.2079  -14.9544 C   0  0  0  0  0  0  0  0  0  0  0  0
   19.2916   -4.7398  -13.6779 O   0  0  0  0  0  0  0  0  0  0  0  0
   18.9511   -4.6624  -15.9111 O   0  0  0  0  0  0  0  0  0  0  0  0
  2  1  1  0
  3  2  2  0
  4  2  1  0
  4  5  1  0
  5  6  1  6
  7  5  1  0
  8  7  2  0
 10  9  1  6
 10 12  1  0
 11 10  1  0
 12 13  1  1
 12 14  1  0
 13  7  1  0
 14 15  2  0
 14 21  1  0
 17 16  1  0
 18 17  2  0
 19 17  1  0
 20 19  1  6
 20 22  1  0
 21 20  1  0
 22 23  1  0
 24 22  2  0
M  END
$$$$
