NTN.pdb
     RDKit          3D

 24 23  0  0  1  0  0  0  0  0999 V2000
   22.3345  -20.7567  -16.4616 N   0  0  0  0  0  0  0  0  0  0  0  0
   21.8624  -19.9011  -15.4289 C   0  0  0  0  0  0  0  0  0  0  0  0
   21.1934  -18.8719  -15.7272 O   0  0  0  0  0  0  0  0  0  0  0  0
   22.1198  -20.1550  -13.9693 C   0  0  0  0  0  0  0  0  0  0  0  0
   20.8886  -20.8307  -13.4408 C   0  0  2  0  0  0  0  0  0  0  0  0
   19.7904  -19.9105  -13.4785 N   0  0  0  0  0  0  0  0  0  0  0  0
   21.0695  -21.5022  -12.1294 C   0  0  0  0  0  0  0  0  0  0  0  0
   21.8260  -22.5106  -12.0567 O   0  0  0  0  0  0  0  0  0  0  0  0
   22.6184  -20.6035   -8.9831 C   0  0  0  0  0  0  0  0  0  0  0  0
   21.1971  -20.9241   -8.5790 C   0  0  1  0  0  0  0  0  0  0  0  0
   20.5180  -19.7390   -8.3374 O   0  0  0  0  0  0  0  0  0  0  0  0
   20.5826  -21.7503   -9.6584 C   0  0  2  0  0  0  0  0  0  0  0  0
   20.4361  -21.0840  -10.9271 N   0  0  0  0  0  0  0  0  0  0  0  0
   19.3272  -22.4483   -9.2532 C   0  0  0  0  0  0  0  0  0  0  0  0
   18.2000  -22.0835   -9.6103 O   0  0  0  0  0  0  0  0  0  0  0  0
   16.2386  -25.9388   -7.0660 N   0  0  0  0  0  0  0  0  0  0  0  0
   17.2391  -26.5667   -7.8460 C   0  0  0  0  0  0  0  0  0  0  0  0
   17.1407  -27.7831   -8.1134 O   0  0  0  0  0  0  0  0  0  0  0  0
   18.3845  -25.7830   -8.3374 C   0  0  0  0  0  0  0  0  0  0  0  0
   18.3304  -24.3388   -7.8773 C   0  0  2  0  0  0  0  0  0  0  0  0
   19.4502  -23.5872   -8.4212 N   0  0  0  0  0  0  0  0  0  0  0  0
   18.4276  -24.3426   -6.3906 C   0  0  0  0  0  0  0  0  0  0  0  0
   19.5452  -23.8824   -5.7207 O   0  0  0  0  0  0  0  0  0  0  0  0
   17.4678  -24.7730   -5.7187 O   0  0  0  0  0  0  0  0  0  0  0  0
  2  1  1  0
  3  2  2  0
  4  2  1  0
  4  5  1  0
  5  6  1  1
  7  5  1  0
  8  7  2  0
 10  9  1  6
 10 12  1  0
 11 10  1  0
 12 13  1  6
 12 14  1  0
 13  7  1  0
 14 15  2  0
 14 21  1  0
 17 16  1  0
 18 17  2  0
 19 17  1  0
 20 19  1  6
 20 22  1  0
 21 20  1  0
 22 23  1  0
 24 22  2  0
M  END
$$$$
