GMV.pdb
     RDKit          3D

 20 19  0  0  1  0  0  0  0  0999 V2000
   31.3481  -22.2174  -10.7266 N   0  0  0  0  0  0  0  0  0  0  0  0
   30.6379  -21.0225  -10.3765 C   0  0  0  0  0  0  0  0  0  0  0  0
   29.2646  -21.3324   -9.8662 C   0  0  0  0  0  0  0  0  0  0  0  0
   28.6838  -22.4097  -10.0962 O   0  0  0  0  0  0  0  0  0  0  0  0
   28.7117  -18.1390   -4.8117 C   0  0  0  0  0  0  0  0  0  0  0  0
   27.5760  -19.5403   -4.6315 S   0  0  0  0  0  0  0  0  0  0  0  0
   27.7509  -20.5669   -6.1299 C   0  0  0  0  0  0  0  0  0  0  0  0
   27.0588  -19.9375   -7.2877 C   0  0  0  0  0  0  0  0  0  0  0  0
   27.2339  -20.6479   -8.6015 C   0  0  2  0  0  0  0  0  0  0  0  0
   28.5963  -20.3523   -9.0849 N   0  0  0  0  0  0  0  0  0  0  0  0
   26.2760  -20.1539   -9.6344 C   0  0  0  0  0  0  0  0  0  0  0  0
   26.2588  -18.9578  -10.0220 O   0  0  0  0  0  0  0  0  0  0  0  0
   23.9295  -21.0993  -13.7357 C   0  0  0  0  0  0  0  0  0  0  0  0
   24.7847  -21.4688  -12.5978 C   0  0  1  0  0  0  0  0  0  0  0  0
   26.2303  -21.4104  -13.0305 C   0  0  0  0  0  0  0  0  0  0  0  0
   24.5027  -20.6692  -11.3721 C   0  0  2  0  0  0  0  0  0  0  0  0
   25.3124  -21.0399  -10.2435 N   0  0  0  0  0  0  0  0  0  0  0  0
   23.0543  -20.7088  -11.0141 C   0  0  0  0  0  0  0  0  0  0  0  0
   22.5769  -21.5158  -10.1750 O   0  0  0  0  0  0  0  0  0  0  0  0
   22.1686  -19.8278  -11.6175 O   0  0  0  0  0  0  0  0  0  0  0  0
  2  1  1  0
  3 10  1  0
  3  2  1  0
  4  3  2  0
  5  6  1  0
  6  7  1  0
  8  7  1  0
  9  8  1  1
  9 10  1  0
  9 11  1  0
 11 12  2  0
 14 13  1  6
 14 15  1  0
 16 14  1  0
 17 11  1  0
 16 17  1  1
 18 16  1  0
 18 20  1  0
 19 18  2  0
M  END
$$$$
