GMV.pdb
     RDKit          3D

 20 19  0  0  1  0  0  0  0  0999 V2000
   31.3537  -22.2134  -10.7960 N   0  0  0  0  0  0  0  0  0  0  0  0
   30.7470  -21.0540  -10.2109 C   0  0  0  0  0  0  0  0  0  0  0  0
   29.3895  -21.3659   -9.6610 C   0  0  0  0  0  0  0  0  0  0  0  0
   28.8106  -22.4501   -9.8611 O   0  0  0  0  0  0  0  0  0  0  0  0
   28.4469  -18.1589   -4.6113 C   0  0  0  0  0  0  0  0  0  0  0  0
   27.9968  -19.8930   -4.3353 S   0  0  0  0  0  0  0  0  0  0  0  0
   28.1438  -20.7461   -5.9417 C   0  0  0  0  0  0  0  0  0  0  0  0
   27.3005  -20.0829   -6.9735 C   0  0  0  0  0  0  0  0  0  0  0  0
   27.3885  -20.6783   -8.3516 C   0  0  2  0  0  0  0  0  0  0  0  0
   28.7347  -20.3794   -8.8763 N   0  0  0  0  0  0  0  0  0  0  0  0
   26.3983  -20.0676   -9.2870 C   0  0  0  0  0  0  0  0  0  0  0  0
   26.4122  -18.8451   -9.5808 O   0  0  0  0  0  0  0  0  0  0  0  0
   26.1785  -20.4930  -12.7372 C   0  0  0  0  0  0  0  0  0  0  0  0
   24.8282  -20.8735  -12.2962 C   0  0  1  0  0  0  0  0  0  0  0  0
   24.6701  -22.3691  -12.4327 C   0  0  0  0  0  0  0  0  0  0  0  0
   24.4944  -20.3666  -10.9349 C   0  0  2  0  0  0  0  0  0  0  0  0
   25.3653  -20.8647   -9.9052 N   0  0  0  0  0  0  0  0  0  0  0  0
   23.0670  -20.6302  -10.5876 C   0  0  0  0  0  0  0  0  0  0  0  0
   22.7185  -21.4142   -9.6672 O   0  0  0  0  0  0  0  0  0  0  0  0
   22.0551  -19.9966  -11.2942 O   0  0  0  0  0  0  0  0  0  0  0  0
  2  1  1  0
  3 10  1  0
  3  2  1  0
  4  3  2  0
  5  6  1  0
  6  7  1  0
  8  7  1  0
  9  8  1  1
  9 10  1  0
  9 11  1  0
 11 12  2  0
 14 13  1  1
 14 15  1  0
 16 14  1  0
 17 11  1  0
 16 17  1  1
 18 16  1  0
 18 20  1  0
 19 18  2  0
M  END
$$$$
