GMV.pdb
     RDKit          3D

 20 19  0  0  1  0  0  0  0  0999 V2000
   28.9019  -21.7454  -15.5046 N   0  0  0  0  0  0  0  0  0  0  0  0
   28.2229  -20.6852  -14.8193 C   0  0  0  0  0  0  0  0  0  0  0  0
   27.1414  -21.2143  -13.9288 C   0  0  0  0  0  0  0  0  0  0  0  0
   26.3656  -22.1254  -14.2735 O   0  0  0  0  0  0  0  0  0  0  0  0
   27.2856  -19.7863   -7.8292 C   0  0  0  0  0  0  0  0  0  0  0  0
   25.5861  -20.4074   -7.7191 S   0  0  0  0  0  0  0  0  0  0  0  0
   25.1401  -21.0415   -9.3711 C   0  0  0  0  0  0  0  0  0  0  0  0
   26.1631  -20.6557  -10.3812 C   0  0  0  0  0  0  0  0  0  0  0  0
   25.8824  -21.1165  -11.7847 C   0  0  2  0  0  0  0  0  0  0  0  0
   26.9958  -20.6503  -12.6333 N   0  0  0  0  0  0  0  0  0  0  0  0
   24.6264  -20.5191  -12.3270 C   0  0  0  0  0  0  0  0  0  0  0  0
   24.5156  -19.2916  -12.5764 O   0  0  0  0  0  0  0  0  0  0  0  0
   23.0617  -20.7471  -15.4951 C   0  0  0  0  0  0  0  0  0  0  0  0
   22.0267  -21.2410  -14.5745 C   0  0  1  0  0  0  0  0  0  0  0  0
   21.8974  -22.7367  -14.7376 C   0  0  0  0  0  0  0  0  0  0  0  0
   22.2513  -20.8185  -13.1630 C   0  0  2  0  0  0  0  0  0  0  0  0
   23.4658  -21.3355  -12.5933 N   0  0  0  0  0  0  0  0  0  0  0  0
   21.0819  -21.1544  -12.2986 C   0  0  0  0  0  0  0  0  0  0  0  0
   19.9755  -20.5606  -12.3802 O   0  0  0  0  0  0  0  0  0  0  0  0
   21.1888  -22.1631  -11.3521 O   0  0  0  0  0  0  0  0  0  0  0  0
  2  1  1  0
  3 10  1  0
  3  2  1  0
  4  3  2  0
  5  6  1  0
  6  7  1  0
  8  7  1  0
  9  8  1  1
  9 10  1  0
  9 11  1  0
 11 12  2  0
 14 13  1  6
 14 15  1  0
 16 14  1  0
 17 11  1  0
 16 17  1  1
 18 16  1  0
 18 20  1  0
 19 18  2  0
M  END
$$$$
