GMV.pdb
     RDKit          3D

 20 19  0  0  1  0  0  0  0  0999 V2000
   28.7119  -21.9325  -15.8192 N   0  0  0  0  0  0  0  0  0  0  0  0
   28.1308  -20.8559  -15.0722 C   0  0  0  0  0  0  0  0  0  0  0  0
   27.0941  -21.3533  -14.1128 C   0  0  0  0  0  0  0  0  0  0  0  0
   26.3885  -22.3545  -14.3373 O   0  0  0  0  0  0  0  0  0  0  0  0
   27.4356  -20.4082   -7.8036 C   0  0  0  0  0  0  0  0  0  0  0  0
   25.6432  -20.1850   -7.9572 S   0  0  0  0  0  0  0  0  0  0  0  0
   25.1511  -20.8967   -9.5638 C   0  0  0  0  0  0  0  0  0  0  0  0
   26.1092  -20.5043  -10.6334 C   0  0  0  0  0  0  0  0  0  0  0  0
   25.8202  -21.0773  -11.9933 C   0  0  2  0  0  0  0  0  0  0  0  0
   26.9090  -20.6500  -12.8927 N   0  0  0  0  0  0  0  0  0  0  0  0
   24.5418  -20.5536  -12.5588 C   0  0  0  0  0  0  0  0  0  0  0  0
   24.3947  -19.3506  -12.8941 O   0  0  0  0  0  0  0  0  0  0  0  0
   20.7523  -21.3305  -15.4112 C   0  0  0  0  0  0  0  0  0  0  0  0
   22.0072  -21.7079  -14.7437 C   0  0  1  0  0  0  0  0  0  0  0  0
   23.1532  -21.5180  -15.7087 C   0  0  0  0  0  0  0  0  0  0  0  0
   22.2093  -21.0092  -13.4428 C   0  0  2  0  0  0  0  0  0  0  0  0
   23.4003  -21.4170  -12.7487 N   0  0  0  0  0  0  0  0  0  0  0  0
   21.0146  -21.1435  -12.5583 C   0  0  0  0  0  0  0  0  0  0  0  0
   20.7606  -22.1868  -11.9023 O   0  0  0  0  0  0  0  0  0  0  0  0
   20.1248  -20.0865  -12.4329 O   0  0  0  0  0  0  0  0  0  0  0  0
  2  1  1  0
  3 10  1  0
  3  2  1  0
  4  3  2  0
  5  6  1  0
  6  7  1  0
  8  7  1  0
  9  8  1  1
  9 10  1  0
  9 11  1  0
 11 12  2  0
 14 13  1  6
 14 15  1  0
 16 14  1  0
 17 11  1  0
 16 17  1  1
 18 16  1  0
 18 20  1  0
 19 18  2  0
M  END
$$$$
