GMV.pdb
     RDKit          3D

 20 19  0  0  1  0  0  0  0  0999 V2000
   26.7910  -22.6322  -17.2946 N   0  0  0  0  0  0  0  0  0  0  0  0
   27.2178  -23.6420  -16.3711 C   0  0  0  0  0  0  0  0  0  0  0  0
   28.2300  -24.5558  -16.9895 C   0  0  0  0  0  0  0  0  0  0  0  0
   28.3211  -24.7328  -18.2188 O   0  0  0  0  0  0  0  0  0  0  0  0
   34.4853  -26.1388  -16.5742 C   0  0  0  0  0  0  0  0  0  0  0  0
   33.7488  -24.5841  -16.0028 S   0  0  0  0  0  0  0  0  0  0  0  0
   31.9756  -24.6435  -16.4294 C   0  0  0  0  0  0  0  0  0  0  0  0
   31.4093  -25.9926  -16.1561 C   0  0  0  0  0  0  0  0  0  0  0  0
   30.0422  -26.2414  -16.7308 C   0  0  2  0  0  0  0  0  0  0  0  0
   29.1256  -25.2511  -16.1338 N   0  0  0  0  0  0  0  0  0  0  0  0
   29.5271  -27.5972  -16.3773 C   0  0  0  0  0  0  0  0  0  0  0  0
   29.0645  -27.8682  -15.2399 O   0  0  0  0  0  0  0  0  0  0  0  0
   26.7065  -29.5541  -17.7374 C   0  0  0  0  0  0  0  0  0  0  0  0
   27.8962  -30.3991  -17.9193 C   0  0  1  0  0  0  0  0  0  0  0  0
   28.2454  -30.4463  -19.3877 C   0  0  0  0  0  0  0  0  0  0  0  0
   29.0391  -29.9918  -17.0537 C   0  0  2  0  0  0  0  0  0  0  0  0
   29.5370  -28.6737  -17.3394 N   0  0  0  0  0  0  0  0  0  0  0  0
   30.1457  -30.9923  -17.1018 C   0  0  0  0  0  0  0  0  0  0  0  0
   31.2406  -30.7768  -17.6832 O   0  0  0  0  0  0  0  0  0  0  0  0
   29.9897  -32.2258  -16.4863 O   0  0  0  0  0  0  0  0  0  0  0  0
  2  1  1  0
  3 10  1  0
  3  2  1  0
  4  3  2  0
  5  6  1  0
  6  7  1  0
  8  7  1  0
  9  8  1  1
  9 10  1  0
  9 11  1  0
 11 12  2  0
 14 13  1  6
 14 15  1  0
 16 14  1  0
 17 11  1  0
 16 17  1  6
 18 16  1  0
 18 20  1  0
 19 18  2  0
M  END
$$$$
