GMV.pdb
     RDKit          3D

 20 19  0  0  1  0  0  0  0  0999 V2000
   31.2557  -22.3081  -11.2464 N   0  0  0  0  0  0  0  0  0  0  0  0
   30.8199  -21.1178  -10.5770 C   0  0  0  0  0  0  0  0  0  0  0  0
   29.5781  -21.3639   -9.7773 C   0  0  0  0  0  0  0  0  0  0  0  0
   28.8795  -22.3865   -9.9085 O   0  0  0  0  0  0  0  0  0  0  0  0
   29.3208  -19.7351   -4.0460 C   0  0  0  0  0  0  0  0  0  0  0  0
   27.5104  -19.6518   -4.0861 S   0  0  0  0  0  0  0  0  0  0  0  0
   26.9901  -20.1262   -5.7695 C   0  0  0  0  0  0  0  0  0  0  0  0
   28.0840  -19.8864   -6.7501 C   0  0  0  0  0  0  0  0  0  0  0  0
   27.9427  -20.6152   -8.0578 C   0  0  2  0  0  0  0  0  0  0  0  0
   29.1807  -20.3858   -8.8269 N   0  0  0  0  0  0  0  0  0  0  0  0
   26.8072  -20.0871   -8.8704 C   0  0  0  0  0  0  0  0  0  0  0  0
   26.6901  -18.8678   -9.1546 O   0  0  0  0  0  0  0  0  0  0  0  0
   24.0424  -20.9355  -12.7051 C   0  0  0  0  0  0  0  0  0  0  0  0
   25.0356  -21.3029  -11.6847 C   0  0  1  0  0  0  0  0  0  0  0  0
   26.4201  -21.1337  -12.2634 C   0  0  0  0  0  0  0  0  0  0  0  0
   24.8425  -20.5804  -10.3955 C   0  0  2  0  0  0  0  0  0  0  0  0
   25.7775  -20.9652   -9.3737 N   0  0  0  0  0  0  0  0  0  0  0  0
   23.4407  -20.7108   -9.8999 C   0  0  0  0  0  0  0  0  0  0  0  0
   23.1138  -21.4833   -8.9620 O   0  0  0  0  0  0  0  0  0  0  0  0
   22.4294  -19.9586  -10.4798 O   0  0  0  0  0  0  0  0  0  0  0  0
  2  1  1  0
  3 10  1  0
  3  2  1  0
  4  3  2  0
  5  6  1  0
  6  7  1  0
  8  7  1  0
  9  8  1  1
  9 10  1  0
  9 11  1  0
 11 12  2  0
 14 13  1  6
 14 15  1  0
 16 14  1  0
 17 11  1  0
 16 17  1  1
 18 16  1  0
 18 20  1  0
 19 18  2  0
M  END
$$$$
