GMV.pdb
     RDKit          3D

 20 19  0  0  1  0  0  0  0  0999 V2000
   31.2110  -22.3270  -11.3126 N   0  0  0  0  0  0  0  0  0  0  0  0
   30.6842  -21.1203  -10.7459 C   0  0  0  0  0  0  0  0  0  0  0  0
   29.5288  -21.4026   -9.8360 C   0  0  0  0  0  0  0  0  0  0  0  0
   28.9410  -22.5001   -9.8084 O   0  0  0  0  0  0  0  0  0  0  0  0
   28.7757  -20.3259   -3.6181 C   0  0  0  0  0  0  0  0  0  0  0  0
   27.4038  -19.3301   -4.2601 S   0  0  0  0  0  0  0  0  0  0  0  0
   26.9433  -20.0343   -5.8793 C   0  0  0  0  0  0  0  0  0  0  0  0
   28.0383  -19.8468   -6.8699 C   0  0  0  0  0  0  0  0  0  0  0  0
   27.8738  -20.6061   -8.1574 C   0  0  2  0  0  0  0  0  0  0  0  0
   29.0851  -20.3709   -8.9663 N   0  0  0  0  0  0  0  0  0  0  0  0
   26.7061  -20.1163   -8.9481 C   0  0  0  0  0  0  0  0  0  0  0  0
   26.5642  -18.9076   -9.2644 O   0  0  0  0  0  0  0  0  0  0  0  0
   24.0354  -21.1589  -12.7699 C   0  0  0  0  0  0  0  0  0  0  0  0
   24.9782  -21.4969  -11.6931 C   0  0  1  0  0  0  0  0  0  0  0  0
   26.3883  -21.3850  -12.2217 C   0  0  0  0  0  0  0  0  0  0  0  0
   24.7500  -20.7086  -10.4490 C   0  0  2  0  0  0  0  0  0  0  0  0
   25.6723  -21.0215   -9.3915 N   0  0  0  0  0  0  0  0  0  0  0  0
   23.3417  -20.8355   -9.9713 C   0  0  0  0  0  0  0  0  0  0  0  0
   23.0131  -21.5444   -8.9850 O   0  0  0  0  0  0  0  0  0  0  0  0
   22.3259  -20.1525  -10.6243 O   0  0  0  0  0  0  0  0  0  0  0  0
  2  1  1  0
  3 10  1  0
  3  2  1  0
  4  3  2  0
  5  6  1  0
  6  7  1  0
  8  7  1  0
  9  8  1  1
  9 10  1  0
  9 11  1  0
 11 12  2  0
 14 13  1  6
 14 15  1  0
 16 14  1  0
 17 11  1  0
 16 17  1  1
 18 16  1  0
 18 20  1  0
 19 18  2  0
M  END
$$$$
