GMV.pdb
     RDKit          3D

 20 19  0  0  1  0  0  0  0  0999 V2000
   31.1792  -22.1591  -11.2085 N   0  0  0  0  0  0  0  0  0  0  0  0
   30.7753  -20.9651  -10.5258 C   0  0  0  0  0  0  0  0  0  0  0  0
   29.6212  -21.2242   -9.6076 C   0  0  0  0  0  0  0  0  0  0  0  0
   28.8931  -22.2301   -9.7021 O   0  0  0  0  0  0  0  0  0  0  0  0
   28.9489  -19.5665   -3.2066 C   0  0  0  0  0  0  0  0  0  0  0  0
   27.7905  -20.6599   -4.0719 S   0  0  0  0  0  0  0  0  0  0  0  0
   27.1894  -19.7516   -5.5359 C   0  0  0  0  0  0  0  0  0  0  0  0
   28.2714  -19.5995   -6.5467 C   0  0  0  0  0  0  0  0  0  0  0  0
   28.1239  -20.4534   -7.7757 C   0  0  2  0  0  0  0  0  0  0  0  0
   29.3463  -20.2791   -8.5834 N   0  0  0  0  0  0  0  0  0  0  0  0
   26.9675  -20.0250   -8.6168 C   0  0  0  0  0  0  0  0  0  0  0  0
   26.8010  -18.8322   -8.9785 O   0  0  0  0  0  0  0  0  0  0  0  0
   24.1210  -21.1632  -12.3217 C   0  0  0  0  0  0  0  0  0  0  0  0
   25.1402  -21.4753  -11.3085 C   0  0  1  0  0  0  0  0  0  0  0  0
   26.5090  -21.3513  -11.9342 C   0  0  0  0  0  0  0  0  0  0  0  0
   24.9870  -20.6748  -10.0608 C   0  0  2  0  0  0  0  0  0  0  0  0
   25.9738  -20.9744   -9.0592 N   0  0  0  0  0  0  0  0  0  0  0  0
   23.6112  -20.8002   -9.4957 C   0  0  0  0  0  0  0  0  0  0  0  0
   23.3463  -21.4999   -8.4840 O   0  0  0  0  0  0  0  0  0  0  0  0
   22.5550  -20.1262  -10.0913 O   0  0  0  0  0  0  0  0  0  0  0  0
  2  1  1  0
  3 10  1  0
  3  2  1  0
  4  3  2  0
  5  6  1  0
  6  7  1  0
  8  7  1  0
  9  8  1  1
  9 10  1  0
  9 11  1  0
 11 12  2  0
 14 13  1  6
 14 15  1  0
 16 14  1  0
 17 11  1  0
 16 17  1  1
 18 16  1  0
 18 20  1  0
 19 18  2  0
M  END
$$$$
