GMV.pdb
     RDKit          3D

 20 19  0  0  1  0  0  0  0  0999 V2000
   19.1246  -21.8858  -13.0493 N   0  0  0  0  0  0  0  0  0  0  0  0
   20.3863  -22.2617  -13.6163 C   0  0  0  0  0  0  0  0  0  0  0  0
   21.3836  -21.1490  -13.5167 C   0  0  0  0  0  0  0  0  0  0  0  0
   21.1338  -19.9819  -13.8721 O   0  0  0  0  0  0  0  0  0  0  0  0
   27.2164  -21.2297  -10.5207 C   0  0  0  0  0  0  0  0  0  0  0  0
   25.7103  -21.0526   -9.5277 S   0  0  0  0  0  0  0  0  0  0  0  0
   24.3801  -20.5287  -10.6617 C   0  0  0  0  0  0  0  0  0  0  0  0
   24.7789  -20.7395  -12.0802 C   0  0  0  0  0  0  0  0  0  0  0  0
   23.7223  -20.4096  -13.0980 C   0  0  2  0  0  0  0  0  0  0  0  0
   22.6715  -21.4401  -12.9931 N   0  0  0  0  0  0  0  0  0  0  0  0
   24.2564  -20.4559  -14.4912 C   0  0  0  0  0  0  0  0  0  0  0  0
   24.4935  -21.5373  -15.0877 O   0  0  0  0  0  0  0  0  0  0  0  0
   24.7293  -18.2510  -18.8381 C   0  0  0  0  0  0  0  0  0  0  0  0
   24.1338  -18.4338  -17.5059 C   0  0  1  0  0  0  0  0  0  0  0  0
   22.7409  -18.9954  -17.6634 C   0  0  0  0  0  0  0  0  0  0  0  0
   24.9926  -19.2343  -16.5877 C   0  0  2  0  0  0  0  0  0  0  0  0
   24.5287  -19.2439  -15.2270 N   0  0  0  0  0  0  0  0  0  0  0  0
   26.4185  -18.7981  -16.6527 C   0  0  0  0  0  0  0  0  0  0  0  0
   26.8496  -17.7727  -16.0644 O   0  0  0  0  0  0  0  0  0  0  0  0
   27.3346  -19.5365  -17.3876 O   0  0  0  0  0  0  0  0  0  0  0  0
  2  1  1  0
  3 10  1  0
  3  2  1  0
  4  3  2  0
  5  6  1  0
  6  7  1  0
  8  7  1  0
  9  8  1  1
  9 10  1  0
  9 11  1  0
 11 12  2  0
 14 13  1  6
 14 15  1  0
 16 14  1  0
 17 11  1  0
 16 17  1  1
 18 16  1  0
 18 20  1  0
 19 18  2  0
M  END
$$$$
