GMV.pdb
     RDKit          3D

 20 19  0  0  1  0  0  0  0  0999 V2000
   17.7239  -10.9503  -18.5485 N   0  0  0  0  0  0  0  0  0  0  0  0
   18.1874   -9.5939  -18.5504 C   0  0  0  0  0  0  0  0  0  0  0  0
   18.8808   -9.2513  -17.2681 C   0  0  0  0  0  0  0  0  0  0  0  0
   18.2683   -8.9446  -16.2280 O   0  0  0  0  0  0  0  0  0  0  0  0
   23.6487  -12.3669  -13.8957 C   0  0  0  0  0  0  0  0  0  0  0  0
   24.3686  -10.8386  -14.5530 S   0  0  0  0  0  0  0  0  0  0  0  0
   23.0223   -9.6103  -14.6471 C   0  0  0  0  0  0  0  0  0  0  0  0
   22.1692   -9.8493  -15.8432 C   0  0  0  0  0  0  0  0  0  0  0  0
   20.9844   -8.9330  -15.9777 C   0  0  2  0  0  0  0  0  0  0  0  0
   20.3006   -9.2781  -17.2389 N   0  0  0  0  0  0  0  0  0  0  0  0
   21.3949   -7.5007  -16.0691 C   0  0  0  0  0  0  0  0  0  0  0  0
   22.0718   -7.0524  -17.0294 O   0  0  0  0  0  0  0  0  0  0  0  0
   19.5645   -4.4614  -16.6172 C   0  0  0  0  0  0  0  0  0  0  0  0
   20.2157   -4.2559  -15.3148 C   0  0  1  0  0  0  0  0  0  0  0  0
   19.1744   -4.3481  -14.2250 C   0  0  0  0  0  0  0  0  0  0  0  0
   21.3807   -5.1593  -15.0958 C   0  0  2  0  0  0  0  0  0  0  0  0
   21.0280   -6.5521  -15.0444 N   0  0  0  0  0  0  0  0  0  0  0  0
   22.1549   -4.7692  -13.8809 C   0  0  0  0  0  0  0  0  0  0  0  0
   22.1488   -5.4426  -12.8179 O   0  0  0  0  0  0  0  0  0  0  0  0
   22.9263   -3.6161  -13.8933 O   0  0  0  0  0  0  0  0  0  0  0  0
  2  1  1  0
  3 10  1  0
  3  2  1  0
  4  3  2  0
  5  6  1  0
  6  7  1  0
  8  7  1  0
  9  8  1  6
  9 10  1  0
  9 11  1  0
 11 12  2  0
 14 13  1  6
 14 15  1  0
 16 14  1  0
 17 11  1  0
 16 17  1  1
 18 16  1  0
 18 20  1  0
 19 18  2  0
M  END
$$$$
