GMV.pdb
     RDKit          3D

 20 19  0  0  1  0  0  0  0  0999 V2000
   18.8069  -21.9643  -12.2416 N   0  0  0  0  0  0  0  0  0  0  0  0
   20.0601  -22.4909  -12.6964 C   0  0  0  0  0  0  0  0  0  0  0  0
   21.1592  -21.4835  -12.5571 C   0  0  0  0  0  0  0  0  0  0  0  0
   20.9826  -20.2616  -12.7196 O   0  0  0  0  0  0  0  0  0  0  0  0
   25.4314  -19.8794   -8.3414 C   0  0  0  0  0  0  0  0  0  0  0  0
   26.4992  -20.8475   -9.4408 S   0  0  0  0  0  0  0  0  0  0  0  0
   25.8360  -20.6620  -11.1306 C   0  0  0  0  0  0  0  0  0  0  0  0
   24.6563  -21.5457  -11.3373 C   0  0  0  0  0  0  0  0  0  0  0  0
   23.5671  -20.9684  -12.1986 C   0  0  2  0  0  0  0  0  0  0  0  0
   22.4610  -21.9446  -12.2246 N   0  0  0  0  0  0  0  0  0  0  0  0
   24.0183  -20.7664  -13.6071 C   0  0  0  0  0  0  0  0  0  0  0  0
   24.3316  -21.7239  -14.3596 O   0  0  0  0  0  0  0  0  0  0  0  0
   24.1064  -17.7543  -17.5296 C   0  0  0  0  0  0  0  0  0  0  0  0
   23.6670  -18.0833  -16.1653 C   0  0  1  0  0  0  0  0  0  0  0  0
   22.1764  -18.3254  -16.1743 C   0  0  0  0  0  0  0  0  0  0  0  0
   24.4426  -19.2006  -15.5560 C   0  0  2  0  0  0  0  0  0  0  0  0
   24.1166  -19.4435  -14.1770 N   0  0  0  0  0  0  0  0  0  0  0  0
   25.9125  -18.9996  -15.7199 C   0  0  0  0  0  0  0  0  0  0  0  0
   26.5837  -18.2218  -14.9934 O   0  0  0  0  0  0  0  0  0  0  0  0
   26.5983  -19.6878  -16.7101 O   0  0  0  0  0  0  0  0  0  0  0  0
  2  1  1  0
  3 10  1  0
  3  2  1  0
  4  3  2  0
  5  6  1  0
  6  7  1  0
  8  7  1  0
  9  8  1  1
  9 10  1  0
  9 11  1  0
 11 12  2  0
 14 13  1  6
 14 15  1  0
 16 14  1  0
 17 11  1  0
 16 17  1  1
 18 16  1  0
 18 20  1  0
 19 18  2  0
M  END
$$$$
