GMV.pdb
     RDKit          3D

 20 19  0  0  1  0  0  0  0  0999 V2000
   31.3893  -22.2371  -11.4198 N   0  0  0  0  0  0  0  0  0  0  0  0
   30.6498  -21.0508  -11.1024 C   0  0  0  0  0  0  0  0  0  0  0  0
   29.4160  -21.3698  -10.3160 C   0  0  0  0  0  0  0  0  0  0  0  0
   28.8326  -22.4678  -10.3870 O   0  0  0  0  0  0  0  0  0  0  0  0
   28.4666  -19.4067   -4.6022 C   0  0  0  0  0  0  0  0  0  0  0  0
   26.6891  -19.3584   -4.9543 S   0  0  0  0  0  0  0  0  0  0  0  0
   26.4459  -20.1343   -6.5879 C   0  0  0  0  0  0  0  0  0  0  0  0
   27.6208  -19.8936   -7.4695 C   0  0  0  0  0  0  0  0  0  0  0  0
   27.6037  -20.6376   -8.7761 C   0  0  2  0  0  0  0  0  0  0  0  0
   28.8891  -20.3740   -9.4509 N   0  0  0  0  0  0  0  0  0  0  0  0
   26.5175  -20.1542   -9.6788 C   0  0  0  0  0  0  0  0  0  0  0  0
   26.5027  -18.9900  -10.1540 O   0  0  0  0  0  0  0  0  0  0  0  0
   23.6992  -21.3312  -13.3763 C   0  0  0  0  0  0  0  0  0  0  0  0
   24.6727  -21.6081  -12.3094 C   0  0  1  0  0  0  0  0  0  0  0  0
   26.0643  -21.5819  -12.8954 C   0  0  0  0  0  0  0  0  0  0  0  0
   24.5131  -20.7143  -11.1275 C   0  0  2  0  0  0  0  0  0  0  0  0
   25.4192  -21.0138  -10.0522 N   0  0  0  0  0  0  0  0  0  0  0  0
   23.1034  -20.7017  -10.6373 C   0  0  0  0  0  0  0  0  0  0  0  0
   22.6867  -21.4641   -9.7272 O   0  0  0  0  0  0  0  0  0  0  0  0
   22.1867  -19.8199  -11.1912 O   0  0  0  0  0  0  0  0  0  0  0  0
  2  1  1  0
  3 10  1  0
  3  2  1  0
  4  3  2  0
  5  6  1  0
  6  7  1  0
  8  7  1  0
  9  8  1  1
  9 10  1  0
  9 11  1  0
 11 12  2  0
 14 13  1  6
 14 15  1  0
 16 14  1  0
 17 11  1  0
 16 17  1  1
 18 16  1  0
 18 20  1  0
 19 18  2  0
M  END
$$$$
