GMV.pdb
     RDKit          3D

 20 19  0  0  1  0  0  0  0  0999 V2000
   19.7423  -12.9921  -17.6245 N   0  0  0  0  0  0  0  0  0  0  0  0
   20.1531  -11.6862  -18.0493 C   0  0  0  0  0  0  0  0  0  0  0  0
   20.9049  -10.9713  -16.9694 C   0  0  0  0  0  0  0  0  0  0  0  0
   20.4704  -10.8491  -15.8087 O   0  0  0  0  0  0  0  0  0  0  0  0
   27.0536  -11.6503  -14.7163 C   0  0  0  0  0  0  0  0  0  0  0  0
   26.9880  -10.0641  -15.5913 S   0  0  0  0  0  0  0  0  0  0  0  0
   25.2897   -9.4219  -15.4085 C   0  0  0  0  0  0  0  0  0  0  0  0
   24.3582  -10.1129  -16.3414 C   0  0  0  0  0  0  0  0  0  0  0  0
   22.9146   -9.7101  -16.2196 C   0  0  2  0  0  0  0  0  0  0  0  0
   22.1701  -10.4083  -17.2852 N   0  0  0  0  0  0  0  0  0  0  0  0
   22.7252   -8.2442  -16.4287 C   0  0  0  0  0  0  0  0  0  0  0  0
   22.9915   -7.6780  -17.5194 O   0  0  0  0  0  0  0  0  0  0  0  0
   20.2701   -4.2084  -15.7075 C   0  0  0  0  0  0  0  0  0  0  0  0
   20.5241   -5.6566  -15.6776 C   0  0  1  0  0  0  0  0  0  0  0  0
   19.8740   -6.2943  -16.8823 C   0  0  0  0  0  0  0  0  0  0  0  0
   21.9695   -5.9929  -15.5398 C   0  0  2  0  0  0  0  0  0  0  0  0
   22.2206   -7.3985  -15.3729 N   0  0  0  0  0  0  0  0  0  0  0  0
   22.6108   -5.2114  -14.4418 C   0  0  0  0  0  0  0  0  0  0  0  0
   22.5295   -5.5380  -13.2293 O   0  0  0  0  0  0  0  0  0  0  0  0
   23.3368   -4.0674  -14.7401 O   0  0  0  0  0  0  0  0  0  0  0  0
  2  1  1  0
  3 10  1  0
  3  2  1  0
  4  3  2  0
  5  6  1  0
  6  7  1  0
  8  7  1  0
  9  8  1  6
  9 10  1  0
  9 11  1  0
 11 12  2  0
 14 13  1  6
 14 15  1  0
 16 14  1  0
 17 11  1  0
 16 17  1  1
 18 16  1  0
 18 20  1  0
 19 18  2  0
M  END
$$$$
