GMV.pdb
     RDKit          3D

 20 19  0  0  1  0  0  0  0  0999 V2000
   29.5485  -21.6119  -13.7366 N   0  0  0  0  0  0  0  0  0  0  0  0
   28.6365  -20.5481  -13.4345 C   0  0  0  0  0  0  0  0  0  0  0  0
   27.4335  -21.0518  -12.6988 C   0  0  0  0  0  0  0  0  0  0  0  0
   26.7325  -21.9945  -13.1120 O   0  0  0  0  0  0  0  0  0  0  0  0
   28.2359  -20.4041   -5.9054 C   0  0  0  0  0  0  0  0  0  0  0  0
   26.8328  -19.8349   -6.9021 S   0  0  0  0  0  0  0  0  0  0  0  0
   26.9526  -20.6695   -8.5204 C   0  0  0  0  0  0  0  0  0  0  0  0
   25.8474  -20.2414   -9.4210 C   0  0  0  0  0  0  0  0  0  0  0  0
   25.8525  -20.8731  -10.7856 C   0  0  2  0  0  0  0  0  0  0  0  0
   27.0777  -20.4249  -11.4748 N   0  0  0  0  0  0  0  0  0  0  0  0
   24.6888  -20.4305  -11.6091 C   0  0  0  0  0  0  0  0  0  0  0  0
   24.5620  -19.2482  -12.0181 O   0  0  0  0  0  0  0  0  0  0  0  0
   21.3670  -21.5341  -14.9627 C   0  0  0  0  0  0  0  0  0  0  0  0
   22.4858  -21.8817  -14.0738 C   0  0  1  0  0  0  0  0  0  0  0  0
   23.7633  -21.9063  -14.8786 C   0  0  0  0  0  0  0  0  0  0  0  0
   22.5650  -21.0102  -12.8674 C   0  0  2  0  0  0  0  0  0  0  0  0
   23.6416  -21.3532  -11.9785 N   0  0  0  0  0  0  0  0  0  0  0  0
   21.2673  -20.9760  -12.1308 C   0  0  0  0  0  0  0  0  0  0  0  0
   20.3333  -20.1850  -12.4229 O   0  0  0  0  0  0  0  0  0  0  0  0
   21.0510  -21.8442  -11.0705 O   0  0  0  0  0  0  0  0  0  0  0  0
  2  1  1  0
  3 10  1  0
  3  2  1  0
  4  3  2  0
  5  6  1  0
  6  7  1  0
  8  7  1  0
  9  8  1  1
  9 10  1  0
  9 11  1  0
 11 12  2  0
 14 13  1  6
 14 15  1  0
 16 14  1  0
 17 11  1  0
 16 17  1  1
 18 16  1  0
 18 20  1  0
 19 18  2  0
M  END
$$$$
