GMV.pdb
     RDKit          3D

 20 19  0  0  1  0  0  0  0  0999 V2000
   20.9177  -15.4837  -19.5274 N   0  0  0  0  0  0  0  0  0  0  0  0
   21.2273  -14.0867  -19.6120 C   0  0  0  0  0  0  0  0  0  0  0  0
   21.3889  -13.4792  -18.2529 C   0  0  0  0  0  0  0  0  0  0  0  0
   20.4241  -13.2042  -17.5150 O   0  0  0  0  0  0  0  0  0  0  0  0
   26.7837  -13.6856  -14.5944 C   0  0  0  0  0  0  0  0  0  0  0  0
   25.8727  -15.1501  -15.1525 S   0  0  0  0  0  0  0  0  0  0  0  0
   24.1842  -14.6014  -15.5740 C   0  0  0  0  0  0  0  0  0  0  0  0
   24.1607  -13.1449  -15.8798 C   0  0  0  0  0  0  0  0  0  0  0  0
   22.8631  -12.6288  -16.4377 C   0  0  2  0  0  0  0  0  0  0  0  0
   22.7022  -13.2052  -17.7863 N   0  0  0  0  0  0  0  0  0  0  0  0
   22.8710  -11.1433  -16.5845 C   0  0  0  0  0  0  0  0  0  0  0  0
   23.2599  -10.5707  -17.6343 O   0  0  0  0  0  0  0  0  0  0  0  0
   20.8683   -7.1205  -16.8006 C   0  0  0  0  0  0  0  0  0  0  0  0
   21.1836   -8.5549  -16.7243 C   0  0  1  0  0  0  0  0  0  0  0  0
   21.5730   -9.0460  -18.0983 C   0  0  0  0  0  0  0  0  0  0  0  0
   22.1923   -8.8756  -15.6751 C   0  0  2  0  0  0  0  0  0  0  0  0
   22.4261  -10.2847  -15.5123 N   0  0  0  0  0  0  0  0  0  0  0  0
   21.8404   -8.2478  -14.3676 C   0  0  0  0  0  0  0  0  0  0  0  0
   21.3663   -8.8977  -13.4000 O   0  0  0  0  0  0  0  0  0  0  0  0
   22.0335   -6.8868  -14.1798 O   0  0  0  0  0  0  0  0  0  0  0  0
  2  1  1  0
  3 10  1  0
  3  2  1  0
  4  3  2  0
  5  6  1  0
  6  7  1  0
  8  7  1  0
  9  8  1  6
  9 10  1  0
  9 11  1  0
 11 12  2  0
 14 13  1  6
 14 15  1  0
 16 14  1  0
 17 11  1  0
 16 17  1  1
 18 16  1  0
 18 20  1  0
 19 18  2  0
M  END
$$$$
