GMV.pdb
     RDKit          3D

 20 19  0  0  1  0  0  0  0  0999 V2000
   31.1526  -22.2628  -11.3193 N   0  0  0  0  0  0  0  0  0  0  0  0
   30.7939  -21.0947  -10.5700 C   0  0  0  0  0  0  0  0  0  0  0  0
   29.5782  -21.3362   -9.7296 C   0  0  0  0  0  0  0  0  0  0  0  0
   28.8925  -22.3724   -9.8127 O   0  0  0  0  0  0  0  0  0  0  0  0
   29.0429  -20.5584   -3.5488 C   0  0  0  0  0  0  0  0  0  0  0  0
   27.6610  -19.4842   -4.0200 S   0  0  0  0  0  0  0  0  0  0  0  0
   27.1033  -20.0232   -5.6717 C   0  0  0  0  0  0  0  0  0  0  0  0
   28.1720  -19.8143   -6.6866 C   0  0  0  0  0  0  0  0  0  0  0  0
   27.9905  -20.5724   -7.9725 C   0  0  2  0  0  0  0  0  0  0  0  0
   29.1917  -20.3374   -8.7966 N   0  0  0  0  0  0  0  0  0  0  0  0
   26.8133  -20.0811   -8.7479 C   0  0  0  0  0  0  0  0  0  0  0  0
   26.6613  -18.8698   -9.0494 O   0  0  0  0  0  0  0  0  0  0  0  0
   24.1109  -21.0639  -12.5567 C   0  0  0  0  0  0  0  0  0  0  0  0
   25.0683  -21.4169  -11.4978 C   0  0  1  0  0  0  0  0  0  0  0  0
   26.4717  -21.2720  -12.0362 C   0  0  0  0  0  0  0  0  0  0  0  0
   24.8414  -20.6644  -10.2314 C   0  0  2  0  0  0  0  0  0  0  0  0
   25.7815  -20.9877   -9.1929 N   0  0  0  0  0  0  0  0  0  0  0  0
   23.4412  -20.8281   -9.7410 C   0  0  0  0  0  0  0  0  0  0  0  0
   23.1398  -21.5477   -8.7538 O   0  0  0  0  0  0  0  0  0  0  0  0
   22.4025  -20.1691  -10.3825 O   0  0  0  0  0  0  0  0  0  0  0  0
  2  1  1  0
  3 10  1  0
  3  2  1  0
  4  3  2  0
  5  6  1  0
  6  7  1  0
  8  7  1  0
  9  8  1  1
  9 10  1  0
  9 11  1  0
 11 12  2  0
 14 13  1  6
 14 15  1  0
 16 14  1  0
 17 11  1  0
 16 17  1  1
 18 16  1  0
 18 20  1  0
 19 18  2  0
M  END
$$$$
