GMV.pdb
     RDKit          3D

 20 19  0  0  1  0  0  0  0  0999 V2000
   28.6846  -20.9642  -15.9336 N   0  0  0  0  0  0  0  0  0  0  0  0
   28.2658  -20.1301  -14.8457 C   0  0  0  0  0  0  0  0  0  0  0  0
   27.2992  -20.8427  -13.9511 C   0  0  0  0  0  0  0  0  0  0  0  0
   26.7376  -21.9068  -14.2721 O   0  0  0  0  0  0  0  0  0  0  0  0
   27.3751  -20.2620   -7.6946 C   0  0  0  0  0  0  0  0  0  0  0  0
   25.5756  -20.4672   -7.7718 S   0  0  0  0  0  0  0  0  0  0  0  0
   25.1708  -21.0057   -9.4677 C   0  0  0  0  0  0  0  0  0  0  0  0
   26.1503  -20.4587  -10.4459 C   0  0  0  0  0  0  0  0  0  0  0  0
   25.9299  -20.8755  -11.8738 C   0  0  2  0  0  0  0  0  0  0  0  0
   27.0115  -20.2779  -12.6800 N   0  0  0  0  0  0  0  0  0  0  0  0
   24.6355  -20.3616  -12.4111 C   0  0  0  0  0  0  0  0  0  0  0  0
   24.4791  -19.1652  -12.7655 O   0  0  0  0  0  0  0  0  0  0  0  0
   22.7483  -22.7030  -15.0519 C   0  0  0  0  0  0  0  0  0  0  0  0
   22.5756  -21.2604  -14.8241 C   0  0  1  0  0  0  0  0  0  0  0  0
   21.4816  -20.7476  -15.7299 C   0  0  0  0  0  0  0  0  0  0  0  0
   22.3631  -20.9175  -13.3894 C   0  0  2  0  0  0  0  0  0  0  0  0
   23.4884  -21.2274  -12.5502 N   0  0  0  0  0  0  0  0  0  0  0  0
   21.1205  -21.5478  -12.8544 C   0  0  0  0  0  0  0  0  0  0  0  0
   21.1079  -22.6780  -12.3015 O   0  0  0  0  0  0  0  0  0  0  0  0
   19.9080  -20.8814  -12.9566 O   0  0  0  0  0  0  0  0  0  0  0  0
  2  1  1  0
  3 10  1  0
  3  2  1  0
  4  3  2  0
  5  6  1  0
  6  7  1  0
  8  7  1  0
  9  8  1  1
  9 10  1  0
  9 11  1  0
 11 12  2  0
 14 13  1  1
 14 15  1  0
 16 14  1  0
 17 11  1  0
 16 17  1  1
 18 16  1  0
 18 20  1  0
 19 18  2  0
M  END
$$$$
