GMV.pdb
     RDKit          3D

 20 19  0  0  1  0  0  0  0  0999 V2000
   21.6207  -11.5122  -20.9917 N   0  0  0  0  0  0  0  0  0  0  0  0
   21.6745  -10.1220  -20.6463 C   0  0  0  0  0  0  0  0  0  0  0  0
   21.7716   -9.9303  -19.1644 C   0  0  0  0  0  0  0  0  0  0  0  0
   20.8218  -10.1499  -18.3894 O   0  0  0  0  0  0  0  0  0  0  0  0
   27.2290  -10.5679  -16.2865 C   0  0  0  0  0  0  0  0  0  0  0  0
   26.2516  -10.3852  -14.7707 S   0  0  0  0  0  0  0  0  0  0  0  0
   24.6781   -9.5899  -15.2412 C   0  0  0  0  0  0  0  0  0  0  0  0
   24.3973   -9.7857  -16.6898 C   0  0  0  0  0  0  0  0  0  0  0  0
   23.0823   -9.2341  -17.1671 C   0  0  2  0  0  0  0  0  0  0  0  0
   23.0031   -9.4775  -18.6202 N   0  0  0  0  0  0  0  0  0  0  0  0
   22.9863   -7.7596  -16.9550 C   0  0  0  0  0  0  0  0  0  0  0  0
   23.6908   -6.9381  -17.5952 O   0  0  0  0  0  0  0  0  0  0  0  0
   20.4445   -3.8197  -15.8669 C   0  0  0  0  0  0  0  0  0  0  0  0
   20.6375   -5.2280  -16.2439 C   0  0  1  0  0  0  0  0  0  0  0  0
   20.4491   -5.3673  -17.7357 C   0  0  0  0  0  0  0  0  0  0  0  0
   21.9289   -5.7907  -15.7571 C   0  0  2  0  0  0  0  0  0  0  0  0
   22.0669   -7.2024  -15.9912 N   0  0  0  0  0  0  0  0  0  0  0  0
   22.1556   -5.4733  -14.3164 C   0  0  0  0  0  0  0  0  0  0  0  0
   22.6873   -4.4020  -13.9254 O   0  0  0  0  0  0  0  0  0  0  0  0
   21.7730   -6.3814  -13.3398 O   0  0  0  0  0  0  0  0  0  0  0  0
  2  1  1  0
  3 10  1  0
  3  2  1  0
  4  3  2  0
  5  6  1  0
  6  7  1  0
  8  7  1  0
  9  8  1  6
  9 10  1  0
  9 11  1  0
 11 12  2  0
 14 13  1  6
 14 15  1  0
 16 14  1  0
 17 11  1  0
 16 17  1  1
 18 16  1  0
 18 20  1  0
 19 18  2  0
M  END
$$$$
