DAY.pdb
     RDKit          3D

 26 26  0  0  1  0  0  0  0  0999 V2000
    9.2377  -18.7520   19.8841 N   0  0  0  0  0  0  0  0  0  0  0  0
   10.2049  -17.6928   19.7787 C   0  0  1  0  0  0  0  0  0  0  0  0
   10.5870  -17.5456   18.3013 C   0  0  0  0  0  0  0  0  0  0  0  0
   11.4270  -18.6946   17.8809 C   0  0  0  0  0  0  0  0  0  0  0  0
   12.2842  -19.1843   18.6356 O   0  0  0  0  0  0  0  0  0  0  0  0
    9.5821  -16.4027   20.1890 C   0  0  0  0  0  0  0  0  0  0  0  0
   10.2452  -15.3375   20.1074 O   0  0  0  0  0  0  0  0  0  0  0  0
   11.2399  -19.2225   16.6155 O   0  0  0  0  0  0  0  0  0  0  0  0
    6.1939  -15.1943   21.2339 C   0  0  0  0  0  0  0  0  0  0  0  0
    7.7034  -15.0868   21.1994 C   0  0  2  0  0  0  0  0  0  0  0  0
    8.2560  -16.3197   20.6748 N   0  0  0  0  0  0  0  0  0  0  0  0
    8.2376  -14.7781   22.5475 C   0  0  0  0  0  0  0  0  0  0  0  0
    7.7817  -13.8125   23.2093 O   0  0  0  0  0  0  0  0  0  0  0  0
   10.5588  -14.7707   30.8097 O   0  0  0  0  0  0  0  0  0  0  0  0
   10.1173  -14.9257   29.4933 C   0  0  0  0  0  0  0  0  0  0  0  0
    9.6429  -13.8538   28.7664 C   0  0  0  0  0  0  0  0  0  0  0  0
    9.2047  -13.9951   27.4665 C   0  0  0  0  0  0  0  0  0  0  0  0
    9.2206  -15.2239   26.8282 C   0  0  0  0  0  0  0  0  0  0  0  0
    8.7512  -15.3888   25.4298 C   0  0  0  0  0  0  0  0  0  0  0  0
    9.8652  -15.2936   24.4160 C   0  0  2  0  0  0  0  0  0  0  0  0
    9.2659  -15.5579   23.1164 N   0  0  0  0  0  0  0  0  0  0  0  0
   11.0059  -16.1785   24.6862 C   0  0  0  0  0  0  0  0  0  0  0  0
   10.9399  -17.5240   24.3657 O   0  0  0  0  0  0  0  0  0  0  0  0
    9.6971  -16.2952   27.5608 C   0  0  0  0  0  0  0  0  0  0  0  0
   10.1349  -16.1515   28.8606 C   0  0  0  0  0  0  0  0  0  0  0  0
   12.0903  -15.7830   25.2136 O   0  0  0  0  0  0  0  0  0  0  0  0
  2  1  1  6
  2  3  1  0
  4  3  1  0
  4  8  1  0
  5  4  2  0
  6  2  1  0
  7  6  2  0
 10  9  1  1
 10 11  1  0
 11  6  1  0
 12 10  1  0
 12 21  1  0
 13 12  2  0
 15 14  1  0
 16 15  2  0
 17 16  1  0
 18 24  1  0
 18 17  2  0
 19 18  1  0
 20 21  1  0
 20 22  1  0
 20 19  1  1
 22 26  2  0
 22 23  1  0
 24 25  2  0
 25 15  1  0
M  END
$$$$
