DAY.pdb
     RDKit          3D

 26 26  0  0  1  0  0  0  0  0999 V2000
    9.4396  -18.3852   19.6692 N   0  0  0  0  0  0  0  0  0  0  0  0
    9.3609  -17.2057   18.8500 C   0  0  1  0  0  0  0  0  0  0  0  0
    8.7585  -17.6069   17.4985 C   0  0  0  0  0  0  0  0  0  0  0  0
    9.7656  -18.3460   16.6972 C   0  0  0  0  0  0  0  0  0  0  0  0
   10.9753  -18.0686   16.7568 O   0  0  0  0  0  0  0  0  0  0  0  0
    8.4171  -16.2302   19.4652 C   0  0  0  0  0  0  0  0  0  0  0  0
    8.2212  -15.1189   18.9106 O   0  0  0  0  0  0  0  0  0  0  0  0
    9.3320  -19.3658   15.8684 O   0  0  0  0  0  0  0  0  0  0  0  0
    5.4942  -16.0068   21.4627 C   0  0  0  0  0  0  0  0  0  0  0  0
    6.9138  -15.4980   21.3323 C   0  0  2  0  0  0  0  0  0  0  0  0
    7.7193  -16.5016   20.6656 N   0  0  0  0  0  0  0  0  0  0  0  0
    7.4684  -15.1462   22.6615 C   0  0  0  0  0  0  0  0  0  0  0  0
    6.7808  -14.4978   23.4890 O   0  0  0  0  0  0  0  0  0  0  0  0
   10.8727  -14.7388   30.5392 O   0  0  0  0  0  0  0  0  0  0  0  0
   10.3311  -14.9929   29.2767 C   0  0  0  0  0  0  0  0  0  0  0  0
    9.6532  -16.1645   29.0112 C   0  0  0  0  0  0  0  0  0  0  0  0
    9.1146  -16.4258   27.7688 C   0  0  0  0  0  0  0  0  0  0  0  0
    9.2294  -15.5213   26.7266 C   0  0  0  0  0  0  0  0  0  0  0  0
    8.6545  -15.7913   25.3852 C   0  0  0  0  0  0  0  0  0  0  0  0
    9.4250  -15.1324   24.2671 C   0  0  2  0  0  0  0  0  0  0  0  0
    8.7756  -15.5297   23.0267 N   0  0  0  0  0  0  0  0  0  0  0  0
   10.8612  -15.4398   24.2593 C   0  0  0  0  0  0  0  0  0  0  0  0
   11.7383  -14.7079   25.0420 O   0  0  0  0  0  0  0  0  0  0  0  0
    9.9096  -14.3485   26.9977 C   0  0  0  0  0  0  0  0  0  0  0  0
   10.4474  -14.0893   28.2409 C   0  0  0  0  0  0  0  0  0  0  0  0
   11.3764  -16.3641   23.5588 O   0  0  0  0  0  0  0  0  0  0  0  0
  2  1  1  1
  2  3  1  0
  4  3  1  0
  4  8  1  0
  5  4  2  0
  6  2  1  0
  7  6  2  0
 10  9  1  1
 10 11  1  0
 11  6  1  0
 12 10  1  0
 12 21  1  0
 13 12  2  0
 15 14  1  0
 16 15  2  0
 17 16  1  0
 18 24  1  0
 18 17  2  0
 19 18  1  0
 20 21  1  0
 20 22  1  0
 20 19  1  1
 22 26  2  0
 22 23  1  0
 24 25  2  0
 25 15  1  0
M  END
$$$$
