DAY.pdb
     RDKit          3D

 26 26  0  0  1  0  0  0  0  0999 V2000
   11.5909  -16.7405   18.0325 N   0  0  0  0  0  0  0  0  0  0  0  0
   10.8266  -17.4668   19.0107 C   0  0  1  0  0  0  0  0  0  0  0  0
   11.7991  -18.3185   19.8347 C   0  0  0  0  0  0  0  0  0  0  0  0
   12.4460  -19.3306   18.9630 C   0  0  0  0  0  0  0  0  0  0  0  0
   13.5926  -19.7502   19.1936 O   0  0  0  0  0  0  0  0  0  0  0  0
   10.1881  -16.5105   19.9587 C   0  0  0  0  0  0  0  0  0  0  0  0
   10.9067  -15.7340   20.6380 O   0  0  0  0  0  0  0  0  0  0  0  0
   11.7431  -19.8091   17.8713 O   0  0  0  0  0  0  0  0  0  0  0  0
    6.6708  -15.6586   21.0010 C   0  0  0  0  0  0  0  0  0  0  0  0
    8.1770  -15.5469   21.1027 C   0  0  2  0  0  0  0  0  0  0  0  0
    8.7862  -16.4349   20.1327 N   0  0  0  0  0  0  0  0  0  0  0  0
    8.6327  -15.8474   22.4812 C   0  0  0  0  0  0  0  0  0  0  0  0
    9.8471  -16.0626   22.7196 O   0  0  0  0  0  0  0  0  0  0  0  0
   10.5972  -14.6699   30.7432 O   0  0  0  0  0  0  0  0  0  0  0  0
   10.1973  -14.7097   29.4051 C   0  0  0  0  0  0  0  0  0  0  0  0
   10.7067  -15.6495   28.5334 C   0  0  0  0  0  0  0  0  0  0  0  0
   10.3192  -15.6981   27.2108 C   0  0  0  0  0  0  0  0  0  0  0  0
    9.3976  -14.8029   26.6945 C   0  0  0  0  0  0  0  0  0  0  0  0
    8.9730  -14.8448   25.2729 C   0  0  0  0  0  0  0  0  0  0  0  0
    8.1039  -16.0354   24.9492 C   0  0  2  0  0  0  0  0  0  0  0  0
    7.7172  -15.8984   23.5528 N   0  0  0  0  0  0  0  0  0  0  0  0
    6.9389  -16.1910   25.8300 C   0  0  0  0  0  0  0  0  0  0  0  0
    5.8186  -15.3957   25.6568 O   0  0  0  0  0  0  0  0  0  0  0  0
    8.8897  -13.8629   27.5721 C   0  0  0  0  0  0  0  0  0  0  0  0
    9.2787  -13.8162   28.8944 C   0  0  0  0  0  0  0  0  0  0  0  0
    6.8833  -17.0350   26.7763 O   0  0  0  0  0  0  0  0  0  0  0  0
  2  1  1  6
  2  3  1  0
  4  3  1  0
  4  8  1  0
  5  4  2  0
  6  2  1  0
  7  6  2  0
 10  9  1  1
 10 11  1  0
 11  6  1  0
 12 10  1  0
 12 21  1  0
 13 12  2  0
 15 14  1  0
 16 15  2  0
 17 16  1  0
 18 24  1  0
 18 17  2  0
 19 18  1  0
 20 21  1  0
 20 22  1  0
 20 19  1  1
 22 26  2  0
 22 23  1  0
 24 25  2  0
 25 15  1  0
M  END
$$$$
