DAY.pdb
     RDKit          3D

 26 26  0  0  1  0  0  0  0  0999 V2000
    9.4640  -18.7755   20.0483 N   0  0  0  0  0  0  0  0  0  0  0  0
   10.1830  -17.6175   19.5893 C   0  0  1  0  0  0  0  0  0  0  0  0
   10.1473  -17.6144   18.0567 C   0  0  0  0  0  0  0  0  0  0  0  0
   11.1333  -18.5892   17.5275 C   0  0  0  0  0  0  0  0  0  0  0  0
   12.1477  -18.9037   18.1725 O   0  0  0  0  0  0  0  0  0  0  0  0
    9.4796  -16.3816   20.0351 C   0  0  0  0  0  0  0  0  0  0  0  0
    9.8555  -15.2617   19.6045 O   0  0  0  0  0  0  0  0  0  0  0  0
   10.9041  -19.1531   16.2847 O   0  0  0  0  0  0  0  0  0  0  0  0
    6.3640  -15.4776   21.8626 C   0  0  0  0  0  0  0  0  0  0  0  0
    7.7998  -15.2000   21.4718 C   0  0  2  0  0  0  0  0  0  0  0  0
    8.3894  -16.4108   20.9362 N   0  0  0  0  0  0  0  0  0  0  0  0
    8.5677  -14.6840   22.6304 C   0  0  0  0  0  0  0  0  0  0  0  0
    8.1228  -13.7318   23.3183 O   0  0  0  0  0  0  0  0  0  0  0  0
   10.4179  -15.1652   30.8026 O   0  0  0  0  0  0  0  0  0  0  0  0
   10.0923  -15.1753   29.4440 C   0  0  0  0  0  0  0  0  0  0  0  0
   10.1587  -16.3353   28.7006 C   0  0  0  0  0  0  0  0  0  0  0  0
    9.8398  -16.3569   27.3591 C   0  0  0  0  0  0  0  0  0  0  0  0
    9.4366  -15.2115   26.6936 C   0  0  0  0  0  0  0  0  0  0  0  0
    9.0912  -15.2219   25.2502 C   0  0  0  0  0  0  0  0  0  0  0  0
   10.2984  -15.3492   24.3533 C   0  0  2  0  0  0  0  0  0  0  0  0
    9.8107  -15.2477   22.9858 N   0  0  0  0  0  0  0  0  0  0  0  0
   11.0850  -16.5708   24.5678 C   0  0  0  0  0  0  0  0  0  0  0  0
   12.2591  -16.5282   25.3008 O   0  0  0  0  0  0  0  0  0  0  0  0
    9.3714  -14.0514   27.4430 C   0  0  0  0  0  0  0  0  0  0  0  0
    9.6909  -14.0321   28.7845 C   0  0  0  0  0  0  0  0  0  0  0  0
   10.7531  -17.7074   24.1111 O   0  0  0  0  0  0  0  0  0  0  0  0
  2  1  1  1
  2  3  1  0
  4  3  1  0
  4  8  1  0
  5  4  2  0
  6  2  1  0
  7  6  2  0
 10  9  1  1
 10 11  1  0
 11  6  1  0
 12 10  1  0
 12 21  1  0
 13 12  2  0
 15 14  1  0
 16 15  2  0
 17 16  1  0
 18 24  1  0
 18 17  2  0
 19 18  1  0
 20 21  1  0
 20 22  1  0
 20 19  1  1
 22 26  2  0
 22 23  1  0
 24 25  2  0
 25 15  1  0
M  END
$$$$
