DAY.pdb
     RDKit          3D

 26 26  0  0  1  0  0  0  0  0999 V2000
    8.0759  -18.2104   18.6048 N   0  0  0  0  0  0  0  0  0  0  0  0
    9.2236  -17.8724   19.4031 C   0  0  1  0  0  0  0  0  0  0  0  0
   10.4702  -18.4134   18.6934 C   0  0  0  0  0  0  0  0  0  0  0  0
   10.2931  -19.8560   18.3930 C   0  0  0  0  0  0  0  0  0  0  0  0
    9.2709  -20.2824   17.8297 O   0  0  0  0  0  0  0  0  0  0  0  0
    9.3748  -16.3910   19.4613 C   0  0  0  0  0  0  0  0  0  0  0  0
   10.5118  -15.8882   19.6496 O   0  0  0  0  0  0  0  0  0  0  0  0
   11.2987  -20.7350   18.7548 O   0  0  0  0  0  0  0  0  0  0  0  0
    7.1631  -13.4000   18.9396 C   0  0  0  0  0  0  0  0  0  0  0  0
    8.4228  -14.0725   19.4415 C   0  0  2  0  0  0  0  0  0  0  0  0
    8.2789  -15.5088   19.3120 N   0  0  0  0  0  0  0  0  0  0  0  0
    8.7066  -13.6753   20.8415 C   0  0  0  0  0  0  0  0  0  0  0  0
    8.9032  -12.4700   21.1359 O   0  0  0  0  0  0  0  0  0  0  0  0
    6.6644  -12.2248   29.0281 O   0  0  0  0  0  0  0  0  0  0  0  0
    6.8672  -12.5418   27.6826 C   0  0  0  0  0  0  0  0  0  0  0  0
    5.8362  -12.4772   26.7687 C   0  0  0  0  0  0  0  0  0  0  0  0
    6.0249  -12.7878   25.4384 C   0  0  0  0  0  0  0  0  0  0  0  0
    7.2624  -13.1803   24.9565 C   0  0  0  0  0  0  0  0  0  0  0  0
    7.4779  -13.5176   23.5272 C   0  0  0  0  0  0  0  0  0  0  0  0
    8.7374  -14.3146   23.2903 C   0  0  2  0  0  0  0  0  0  0  0  0
    8.7623  -14.6373   21.8713 N   0  0  0  0  0  0  0  0  0  0  0  0
    8.8612  -15.5136   24.1295 C   0  0  0  0  0  0  0  0  0  0  0  0
    8.1191  -16.6475   23.8448 O   0  0  0  0  0  0  0  0  0  0  0  0
    8.2927  -13.2434   25.8763 C   0  0  0  0  0  0  0  0  0  0  0  0
    8.1016  -12.9322   27.2062 C   0  0  0  0  0  0  0  0  0  0  0  0
    9.6294  -15.5877   25.1370 O   0  0  0  0  0  0  0  0  0  0  0  0
  2  1  1  6
  2  3  1  0
  4  3  1  0
  4  8  1  0
  5  4  2  0
  6  2  1  0
  7  6  2  0
 10  9  1  1
 10 11  1  0
 11  6  1  0
 12 10  1  0
 12 21  1  0
 13 12  2  0
 15 14  1  0
 16 15  2  0
 17 16  1  0
 18 24  1  0
 18 17  2  0
 19 18  1  0
 20 21  1  0
 20 22  1  0
 20 19  1  1
 22 26  2  0
 22 23  1  0
 24 25  2  0
 25 15  1  0
M  END
$$$$
