DAY.pdb
     RDKit          3D

 26 26  0  0  1  0  0  0  0  0999 V2000
    9.0041  -18.6632   16.5454 N   0  0  0  0  0  0  0  0  0  0  0  0
   10.0791  -18.2380   17.4011 C   0  0  1  0  0  0  0  0  0  0  0  0
   10.5519  -16.8615   16.9194 C   0  0  0  0  0  0  0  0  0  0  0  0
   11.2634  -16.9977   15.6241 C   0  0  0  0  0  0  0  0  0  0  0  0
   12.2490  -17.7438   15.4985 O   0  0  0  0  0  0  0  0  0  0  0  0
    9.5711  -18.0528   18.7897 C   0  0  0  0  0  0  0  0  0  0  0  0
    8.5349  -17.3687   18.9874 O   0  0  0  0  0  0  0  0  0  0  0  0
   10.8066  -16.2701   14.5392 O   0  0  0  0  0  0  0  0  0  0  0  0
   10.0070  -19.8165   22.0037 C   0  0  0  0  0  0  0  0  0  0  0  0
    9.6336  -18.5622   21.2430 C   0  0  2  0  0  0  0  0  0  0  0  0
   10.2122  -18.6211   19.9155 N   0  0  0  0  0  0  0  0  0  0  0  0
   10.0743  -17.3527   21.9785 C   0  0  0  0  0  0  0  0  0  0  0  0
   11.2533  -16.9332   21.8693 O   0  0  0  0  0  0  0  0  0  0  0  0
    7.4050  -13.1315   17.8302 O   0  0  0  0  0  0  0  0  0  0  0  0
    7.6287  -13.4641   19.1686 C   0  0  0  0  0  0  0  0  0  0  0  0
    8.7381  -13.0018   19.8453 C   0  0  0  0  0  0  0  0  0  0  0  0
    8.9690  -13.3238   21.1662 C   0  0  0  0  0  0  0  0  0  0  0  0
    8.0949  -14.1288   21.8772 C   0  0  0  0  0  0  0  0  0  0  0  0
    8.3327  -14.4827   23.2988 C   0  0  0  0  0  0  0  0  0  0  0  0
    9.5143  -15.4018   23.4907 C   0  0  2  0  0  0  0  0  0  0  0  0
    9.1839  -16.6475   22.8146 N   0  0  0  0  0  0  0  0  0  0  0  0
    9.8893  -15.6198   24.8939 C   0  0  0  0  0  0  0  0  0  0  0  0
    9.6775  -16.8505   25.4924 O   0  0  0  0  0  0  0  0  0  0  0  0
    6.9843  -14.5896   21.1946 C   0  0  0  0  0  0  0  0  0  0  0  0
    6.7554  -14.2663   19.8736 C   0  0  0  0  0  0  0  0  0  0  0  0
   10.4136  -14.7259   25.6264 O   0  0  0  0  0  0  0  0  0  0  0  0
  2  1  1  6
  2  3  1  0
  4  3  1  0
  4  8  1  0
  5  4  2  0
  6  2  1  0
  7  6  2  0
 10  9  1  1
 10 11  1  0
 11  6  1  0
 12 10  1  0
 12 21  1  0
 13 12  2  0
 15 14  1  0
 16 15  2  0
 17 16  1  0
 18 24  1  0
 18 17  2  0
 19 18  1  0
 20 21  1  0
 20 22  1  0
 20 19  1  1
 22 26  2  0
 22 23  1  0
 24 25  2  0
 25 15  1  0
M  END
$$$$
