DAY.pdb
     RDKit          3D

 26 26  0  0  1  0  0  0  0  0999 V2000
   13.6827  -21.1267   19.0484 N   0  0  0  0  0  0  0  0  0  0  0  0
   13.6920  -19.7554   19.4818 C   0  0  1  0  0  0  0  0  0  0  0  0
   13.7493  -18.8650   18.2351 C   0  0  0  0  0  0  0  0  0  0  0  0
   15.1605  -18.5336   17.9168 C   0  0  0  0  0  0  0  0  0  0  0  0
   16.0974  -18.9187   18.6364 O   0  0  0  0  0  0  0  0  0  0  0  0
   12.4101  -19.4396   20.1732 C   0  0  0  0  0  0  0  0  0  0  0  0
   12.2835  -18.3462   20.7809 O   0  0  0  0  0  0  0  0  0  0  0  0
   15.4236  -17.7768   16.7885 O   0  0  0  0  0  0  0  0  0  0  0  0
    8.9252  -20.6925   20.0673 C   0  0  0  0  0  0  0  0  0  0  0  0
   10.0467  -19.9888   20.8011 C   0  0  2  0  0  0  0  0  0  0  0  0
   11.3099  -20.3289   20.1774 N   0  0  0  0  0  0  0  0  0  0  0  0
   10.0344  -20.3435   22.2406 C   0  0  0  0  0  0  0  0  0  0  0  0
    9.0147  -20.1295   22.9423 O   0  0  0  0  0  0  0  0  0  0  0  0
   17.3037  -22.6956   22.6028 O   0  0  0  0  0  0  0  0  0  0  0  0
   15.9724  -22.6875   23.0263 C   0  0  0  0  0  0  0  0  0  0  0  0
   14.9338  -22.7949   22.1251 C   0  0  0  0  0  0  0  0  0  0  0  0
   13.6161  -22.7880   22.5318 C   0  0  0  0  0  0  0  0  0  0  0  0
   13.2731  -22.6726   23.8684 C   0  0  0  0  0  0  0  0  0  0  0  0
   11.8588  -22.6635   24.3185 C   0  0  0  0  0  0  0  0  0  0  0  0
   11.2276  -21.2938   24.2604 C   0  0  2  0  0  0  0  0  0  0  0  0
   11.1627  -20.9272   22.8534 N   0  0  0  0  0  0  0  0  0  0  0  0
   11.9176  -20.2755   25.0631 C   0  0  0  0  0  0  0  0  0  0  0  0
   12.3131  -19.0796   24.4877 O   0  0  0  0  0  0  0  0  0  0  0  0
   14.3175  -22.5653   24.7680 C   0  0  0  0  0  0  0  0  0  0  0  0
   15.6346  -22.5725   24.3589 C   0  0  0  0  0  0  0  0  0  0  0  0
   12.1885  -20.4188   26.2946 O   0  0  0  0  0  0  0  0  0  0  0  0
  2  1  1  6
  2  3  1  0
  4  3  1  0
  4  8  1  0
  5  4  2  0
  6  2  1  0
  7  6  2  0
 10  9  1  6
 10 11  1  0
 11  6  1  0
 12 10  1  0
 12 21  1  0
 13 12  2  0
 15 14  1  0
 16 15  2  0
 17 16  1  0
 18 24  1  0
 18 17  2  0
 19 18  1  0
 20 21  1  0
 20 22  1  0
 20 19  1  6
 22 26  2  0
 22 23  1  0
 24 25  2  0
 25 15  1  0
M  END
$$$$
