DAY.pdb
     RDKit          3D

 26 26  0  0  1  0  0  0  0  0999 V2000
    9.4967  -19.2370   15.7905 N   0  0  0  0  0  0  0  0  0  0  0  0
   10.1360  -18.1455   16.4749 C   0  0  1  0  0  0  0  0  0  0  0  0
    9.7376  -16.8448   15.7681 C   0  0  0  0  0  0  0  0  0  0  0  0
   10.5927  -16.6383   14.5728 C   0  0  0  0  0  0  0  0  0  0  0  0
   11.4599  -17.4647   14.2428 O   0  0  0  0  0  0  0  0  0  0  0  0
    9.6130  -18.0520   17.8673 C   0  0  0  0  0  0  0  0  0  0  0  0
    8.4984  -17.5099   18.0786 O   0  0  0  0  0  0  0  0  0  0  0  0
   10.4081  -15.4935   13.8176 O   0  0  0  0  0  0  0  0  0  0  0  0
   10.1639  -19.8121   21.0364 C   0  0  0  0  0  0  0  0  0  0  0  0
    9.7720  -18.5369   20.3212 C   0  0  2  0  0  0  0  0  0  0  0  0
   10.3255  -18.5536   18.9818 N   0  0  0  0  0  0  0  0  0  0  0  0
   10.2226  -17.3484   21.0845 C   0  0  0  0  0  0  0  0  0  0  0  0
   11.3429  -16.8288   20.8543 O   0  0  0  0  0  0  0  0  0  0  0  0
    7.5377  -12.6915   17.7042 O   0  0  0  0  0  0  0  0  0  0  0  0
    7.8256  -13.1745   18.9832 C   0  0  0  0  0  0  0  0  0  0  0  0
    6.9262  -13.9635   19.6696 C   0  0  0  0  0  0  0  0  0  0  0  0
    7.1998  -14.4457   20.9323 C   0  0  0  0  0  0  0  0  0  0  0  0
    8.3941  -14.1595   21.5721 C   0  0  0  0  0  0  0  0  0  0  0  0
    8.6998  -14.6721   22.9310 C   0  0  0  0  0  0  0  0  0  0  0  0
    9.8236  -15.6795   22.9450 C   0  0  2  0  0  0  0  0  0  0  0  0
    9.4076  -16.7757   22.0828 N   0  0  0  0  0  0  0  0  0  0  0  0
   10.2006  -16.1462   24.2855 C   0  0  0  0  0  0  0  0  0  0  0  0
   10.9576  -15.3413   25.1203 O   0  0  0  0  0  0  0  0  0  0  0  0
    9.2923  -13.3684   20.8800 C   0  0  0  0  0  0  0  0  0  0  0  0
    9.0166  -12.8873   19.6172 C   0  0  0  0  0  0  0  0  0  0  0  0
    9.8699  -17.2792   24.7521 O   0  0  0  0  0  0  0  0  0  0  0  0
  2  1  1  6
  2  3  1  0
  4  3  1  0
  4  8  1  0
  5  4  2  0
  6  2  1  0
  7  6  2  0
 10  9  1  1
 10 11  1  0
 11  6  1  0
 12 10  1  0
 12 21  1  0
 13 12  2  0
 15 14  1  0
 16 15  2  0
 17 16  1  0
 18 24  1  0
 18 17  2  0
 19 18  1  0
 20 21  1  0
 20 22  1  0
 20 19  1  1
 22 26  2  0
 22 23  1  0
 24 25  2  0
 25 15  1  0
M  END
$$$$
