DAY.pdb
     RDKit          3D

 26 26  0  0  1  0  0  0  0  0999 V2000
   11.4029  -17.1728   17.7805 N   0  0  0  0  0  0  0  0  0  0  0  0
   10.5863  -17.7417   18.8188 C   0  0  1  0  0  0  0  0  0  0  0  0
   11.5150  -18.4104   19.8389 C   0  0  0  0  0  0  0  0  0  0  0  0
   12.0162  -19.6977   19.2964 C   0  0  0  0  0  0  0  0  0  0  0  0
   11.7505  -20.0633   18.1390 O   0  0  0  0  0  0  0  0  0  0  0  0
    9.8682  -16.6554   19.5434 C   0  0  0  0  0  0  0  0  0  0  0  0
   10.5013  -15.6395   19.9283 O   0  0  0  0  0  0  0  0  0  0  0  0
   12.7969  -20.4991   20.1107 O   0  0  0  0  0  0  0  0  0  0  0  0
    6.3110  -15.9431   20.5431 C   0  0  0  0  0  0  0  0  0  0  0  0
    7.8004  -15.6735   20.5642 C   0  0  2  0  0  0  0  0  0  0  0  0
    8.4827  -16.7155   19.8231 N   0  0  0  0  0  0  0  0  0  0  0  0
    8.2961  -15.5797   21.9583 C   0  0  0  0  0  0  0  0  0  0  0  0
    9.4265  -15.0892   22.2024 O   0  0  0  0  0  0  0  0  0  0  0  0
    9.4534  -12.9818   29.9976 O   0  0  0  0  0  0  0  0  0  0  0  0
    9.0833  -13.3180   28.6930 C   0  0  0  0  0  0  0  0  0  0  0  0
    9.9661  -13.9430   27.8371 C   0  0  0  0  0  0  0  0  0  0  0  0
    9.6117  -14.2794   26.5475 C   0  0  0  0  0  0  0  0  0  0  0  0
    8.3489  -14.0045   26.0501 C   0  0  0  0  0  0  0  0  0  0  0  0
    7.9558  -14.3611   24.6640 C   0  0  0  0  0  0  0  0  0  0  0  0
    7.8676  -15.8507   24.4381 C   0  0  2  0  0  0  0  0  0  0  0  0
    7.5135  -16.0370   23.0388 N   0  0  0  0  0  0  0  0  0  0  0  0
    6.9376  -16.5449   25.3383 C   0  0  0  0  0  0  0  0  0  0  0  0
    5.5695  -16.4073   25.1738 O   0  0  0  0  0  0  0  0  0  0  0  0
    7.4676  -13.3781   26.9118 C   0  0  0  0  0  0  0  0  0  0  0  0
    7.8242  -13.0427   28.2011 C   0  0  0  0  0  0  0  0  0  0  0  0
    7.3125  -17.2908   26.2941 O   0  0  0  0  0  0  0  0  0  0  0  0
  2  1  1  6
  2  3  1  0
  4  3  1  0
  4  8  1  0
  5  4  2  0
  6  2  1  0
  7  6  2  0
 10  9  1  1
 10 11  1  0
 11  6  1  0
 12 10  1  0
 12 21  1  0
 13 12  2  0
 15 14  1  0
 16 15  2  0
 17 16  1  0
 18 24  1  0
 18 17  2  0
 19 18  1  0
 20 21  1  0
 20 22  1  0
 20 19  1  1
 22 26  2  0
 22 23  1  0
 24 25  2  0
 25 15  1  0
M  END
$$$$
