LNQ.pdb
     RDKit          3D

 26 25  0  0  1  0  0  0  0  0999 V2000
    5.8169  -11.2152   25.9368 C   0  0  0  0  0  0  0  0  0  0  0  0
    7.0180  -12.1353   25.8624 C   0  0  1  0  0  0  0  0  0  0  0  0
    7.5378  -12.3723   27.2560 C   0  0  0  0  0  0  0  0  0  0  0  0
    6.5896  -13.4002   25.1755 C   0  0  0  0  0  0  0  0  0  0  0  0
    7.7450  -14.2959   24.8146 C   0  0  2  0  0  0  0  0  0  0  0  0
    9.0182  -13.6756   24.9648 N   0  0  0  0  0  0  0  0  0  0  0  0
    7.6203  -14.8688   23.4639 C   0  0  0  0  0  0  0  0  0  0  0  0
    6.5993  -15.5426   23.1809 O   0  0  0  0  0  0  0  0  0  0  0  0
    7.6728  -12.0801   20.1393 N   0  0  0  0  0  0  0  0  0  0  0  0
    7.4348  -13.5019   19.9911 C   0  0  0  0  0  0  0  0  0  0  0  0
    6.2345  -13.8051   19.8400 O   0  0  0  0  0  0  0  0  0  0  0  0
    8.5616  -14.4450   20.0263 C   0  0  0  0  0  0  0  0  0  0  0  0
    8.4956  -15.4067   21.1533 C   0  0  2  0  0  0  0  0  0  0  0  0
    8.5887  -14.7101   22.4456 N   0  0  0  0  0  0  0  0  0  0  0  0
    9.6109  -16.4185   21.0953 C   0  0  0  0  0  0  0  0  0  0  0  0
    9.7529  -17.2331   20.1639 O   0  0  0  0  0  0  0  0  0  0  0  0
   14.2125  -14.0090   19.6252 N   0  0  0  0  0  0  0  0  0  0  0  0
   14.8871  -15.1224   20.1955 C   0  0  0  0  0  0  0  0  0  0  0  0
   16.1172  -15.2761   20.0293 O   0  0  0  0  0  0  0  0  0  0  0  0
   14.1499  -16.1273   20.9987 C   0  0  0  0  0  0  0  0  0  0  0  0
   12.6978  -15.8654   21.1583 C   0  0  0  0  0  0  0  0  0  0  0  0
   11.9373  -16.8843   21.9167 C   0  0  2  0  0  0  0  0  0  0  0  0
   10.5593  -16.4543   22.1568 N   0  0  0  0  0  0  0  0  0  0  0  0
   12.5823  -17.3187   23.1797 C   0  0  0  0  0  0  0  0  0  0  0  0
   13.7389  -17.8218   23.2265 O   0  0  0  0  0  0  0  0  0  0  0  0
   11.9279  -17.1854   24.3842 O   0  0  0  0  0  0  0  0  0  0  0  0
  2  3  1  1
  2  1  1  0
  4  5  1  0
  4  2  1  0
  5  6  1  6
  7  5  1  0
  7  8  2  0
 10  9  1  0
 11 10  2  0
 12 10  1  0
 13 12  1  6
 13 14  1  0
 14  7  1  0
 15 23  1  0
 15 13  1  0
 16 15  2  0
 18 17  1  0
 18 19  2  0
 20 21  1  0
 20 18  1  0
 22 21  1  1
 22 23  1  0
 22 24  1  0
 24 25  2  0
 24 26  1  0
M  END
$$$$
