LNQ.pdb
     RDKit          3D

 26 25  0  0  1  0  0  0  0  0999 V2000
    7.8065  -11.0310   25.9847 C   0  0  0  0  0  0  0  0  0  0  0  0
    7.0996  -12.3177   26.3580 C   0  0  1  0  0  0  0  0  0  0  0  0
    5.8622  -11.9826   27.1487 C   0  0  0  0  0  0  0  0  0  0  0  0
    6.7985  -13.0644   25.0903 C   0  0  0  0  0  0  0  0  0  0  0  0
    7.7595  -14.1937   24.8284 C   0  0  2  0  0  0  0  0  0  0  0  0
    9.0966  -13.9116   25.2298 N   0  0  0  0  0  0  0  0  0  0  0  0
    7.7391  -14.6448   23.4269 C   0  0  0  0  0  0  0  0  0  0  0  0
    6.6912  -15.1643   22.9704 O   0  0  0  0  0  0  0  0  0  0  0  0
    7.4359  -11.8800   19.7551 N   0  0  0  0  0  0  0  0  0  0  0  0
    7.6069  -13.3181   19.8064 C   0  0  0  0  0  0  0  0  0  0  0  0
    6.5856  -13.9645   19.4988 O   0  0  0  0  0  0  0  0  0  0  0  0
    8.9024  -13.8925   20.1964 C   0  0  0  0  0  0  0  0  0  0  0  0
    8.7882  -15.0170   21.1564 C   0  0  2  0  0  0  0  0  0  0  0  0
    8.8380  -14.5314   22.5441 N   0  0  0  0  0  0  0  0  0  0  0  0
    9.8980  -16.0213   20.9809 C   0  0  0  0  0  0  0  0  0  0  0  0
   10.1223  -16.6186   19.9113 O   0  0  0  0  0  0  0  0  0  0  0  0
   14.8729  -15.5773   19.0895 N   0  0  0  0  0  0  0  0  0  0  0  0
   14.5310  -14.7661   20.2052 C   0  0  0  0  0  0  0  0  0  0  0  0
   15.1095  -13.6746   20.4009 O   0  0  0  0  0  0  0  0  0  0  0  0
   13.4833  -15.1942   21.1631 C   0  0  0  0  0  0  0  0  0  0  0  0
   12.8209  -16.4823   20.8396 C   0  0  0  0  0  0  0  0  0  0  0  0
   11.9831  -17.0650   21.9120 C   0  0  2  0  0  0  0  0  0  0  0  0
   10.7419  -16.3107   22.0906 N   0  0  0  0  0  0  0  0  0  0  0  0
   12.6817  -17.2463   23.2077 C   0  0  0  0  0  0  0  0  0  0  0  0
   13.7536  -17.9018   23.3281 O   0  0  0  0  0  0  0  0  0  0  0  0
   12.1760  -16.6904   24.3619 O   0  0  0  0  0  0  0  0  0  0  0  0
  2  3  1  6
  2  1  1  0
  4  5  1  0
  4  2  1  0
  5  6  1  6
  7  5  1  0
  7  8  2  0
 10  9  1  0
 11 10  2  0
 12 10  1  0
 13 12  1  6
 13 14  1  0
 14  7  1  0
 15 23  1  0
 15 13  1  0
 16 15  2  0
 18 17  1  0
 18 19  2  0
 20 21  1  0
 20 18  1  0
 22 21  1  6
 22 23  1  0
 22 24  1  0
 24 25  2  0
 24 26  1  0
M  END
$$$$
