LNQ.pdb
     RDKit          3D

 26 25  0  0  1  0  0  0  0  0999 V2000
    7.6433  -13.4202   18.9385 C   0  0  0  0  0  0  0  0  0  0  0  0
    8.3002  -13.5344   20.2987 C   0  0  1  0  0  0  0  0  0  0  0  0
    8.0754  -12.2532   21.0579 C   0  0  0  0  0  0  0  0  0  0  0  0
    7.7213  -14.7340   20.9925 C   0  0  0  0  0  0  0  0  0  0  0  0
    8.2035  -14.8850   22.4109 C   0  0  2  0  0  0  0  0  0  0  0  0
    9.2750  -14.0090   22.7470 N   0  0  0  0  0  0  0  0  0  0  0  0
    8.5644  -16.2730   22.7445 C   0  0  0  0  0  0  0  0  0  0  0  0
    7.9642  -17.2129   22.1676 O   0  0  0  0  0  0  0  0  0  0  0  0
   12.1969  -19.3495   21.1499 N   0  0  0  0  0  0  0  0  0  0  0  0
   12.4475  -18.0532   21.7472 C   0  0  0  0  0  0  0  0  0  0  0  0
   13.6562  -17.7918   21.9100 O   0  0  0  0  0  0  0  0  0  0  0  0
   11.3231  -17.1765   22.1039 C   0  0  0  0  0  0  0  0  0  0  0  0
   10.6501  -17.5592   23.3687 C   0  0  2  0  0  0  0  0  0  0  0  0
    9.5578  -16.6266   23.6867 N   0  0  0  0  0  0  0  0  0  0  0  0
   11.6048  -17.5635   24.5347 C   0  0  0  0  0  0  0  0  0  0  0  0
   12.1961  -18.5836   24.9360 O   0  0  0  0  0  0  0  0  0  0  0  0
    9.5441  -12.8272   28.4546 N   0  0  0  0  0  0  0  0  0  0  0  0
    8.7348  -13.8317   27.8579 C   0  0  0  0  0  0  0  0  0  0  0  0
    7.5881  -13.5606   27.4385 O   0  0  0  0  0  0  0  0  0  0  0  0
    9.2291  -15.2227   27.7197 C   0  0  0  0  0  0  0  0  0  0  0  0
    9.9069  -15.5268   26.4348 C   0  0  0  0  0  0  0  0  0  0  0  0
   11.2706  -16.0928   26.5420 C   0  0  2  0  0  0  0  0  0  0  0  0
   11.8519  -16.3413   25.2223 N   0  0  0  0  0  0  0  0  0  0  0  0
   11.3695  -17.2998   27.3982 C   0  0  0  0  0  0  0  0  0  0  0  0
   11.7248  -17.2602   28.6087 O   0  0  0  0  0  0  0  0  0  0  0  0
   11.0679  -18.5453   26.8935 O   0  0  0  0  0  0  0  0  0  0  0  0
  2  3  1  1
  2  1  1  0
  4  5  1  0
  4  2  1  0
  5  6  1  6
  7  5  1  0
  7  8  2  0
 10  9  1  0
 11 10  2  0
 12 10  1  0
 13 12  1  6
 13 14  1  0
 14  7  1  0
 15 23  1  0
 15 13  1  0
 16 15  2  0
 18 17  1  0
 18 19  2  0
 20 21  1  0
 20 18  1  0
 22 21  1  6
 22 23  1  0
 22 24  1  0
 24 25  2  0
 24 26  1  0
M  END
$$$$
