LNQ.pdb
     RDKit          3D

 26 25  0  0  1  0  0  0  0  0999 V2000
    7.4306  -12.0716   21.1608 C   0  0  0  0  0  0  0  0  0  0  0  0
    7.6198  -13.4513   20.5646 C   0  0  1  0  0  0  0  0  0  0  0  0
    8.4810  -13.3371   19.3342 C   0  0  0  0  0  0  0  0  0  0  0  0
    8.2234  -14.3324   21.6205 C   0  0  0  0  0  0  0  0  0  0  0  0
    8.4354  -15.7490   21.1563 C   0  0  2  0  0  0  0  0  0  0  0  0
    7.2378  -16.4017   20.7459 N   0  0  0  0  0  0  0  0  0  0  0  0
    9.1430  -16.5736   22.1500 C   0  0  0  0  0  0  0  0  0  0  0  0
    8.4804  -17.3601   22.8704 O   0  0  0  0  0  0  0  0  0  0  0  0
   14.6323  -18.9554   23.7696 N   0  0  0  0  0  0  0  0  0  0  0  0
   13.2460  -18.5881   23.9782 C   0  0  0  0  0  0  0  0  0  0  0  0
   12.7683  -18.9918   25.0572 O   0  0  0  0  0  0  0  0  0  0  0  0
   12.5300  -17.8058   22.9605 C   0  0  0  0  0  0  0  0  0  0  0  0
   11.2045  -17.3173   23.4115 C   0  0  2  0  0  0  0  0  0  0  0  0
   10.5421  -16.5398   22.3528 N   0  0  0  0  0  0  0  0  0  0  0  0
   11.3145  -16.4355   24.6286 C   0  0  0  0  0  0  0  0  0  0  0  0
   11.8491  -15.3106   24.6171 O   0  0  0  0  0  0  0  0  0  0  0  0
    8.7147  -12.2943   26.5222 N   0  0  0  0  0  0  0  0  0  0  0  0
    7.9928  -13.5067   26.3519 C   0  0  0  0  0  0  0  0  0  0  0  0
    6.7769  -13.4889   26.0592 O   0  0  0  0  0  0  0  0  0  0  0  0
    8.6621  -14.8192   26.5183 C   0  0  0  0  0  0  0  0  0  0  0  0
   10.1195  -14.7542   26.7912 C   0  0  0  0  0  0  0  0  0  0  0  0
   10.7861  -16.0499   27.0526 C   0  0  2  0  0  0  0  0  0  0  0  0
   10.7822  -16.9030   25.8638 N   0  0  0  0  0  0  0  0  0  0  0  0
   10.2628  -16.7836   28.2306 C   0  0  0  0  0  0  0  0  0  0  0  0
   10.2343  -16.2924   29.3930 O   0  0  0  0  0  0  0  0  0  0  0  0
    9.7724  -18.0639   28.0993 O   0  0  0  0  0  0  0  0  0  0  0  0
  2  3  1  6
  2  1  1  0
  4  5  1  0
  4  2  1  0
  5  6  1  1
  7  5  1  0
  7  8  2  0
 10  9  1  0
 11 10  2  0
 12 10  1  0
 13 12  1  6
 13 14  1  0
 14  7  1  0
 15 23  1  0
 15 13  1  0
 16 15  2  0
 18 17  1  0
 18 19  2  0
 20 21  1  0
 20 18  1  0
 22 21  1  6
 22 23  1  0
 22 24  1  0
 24 25  2  0
 24 26  1  0
M  END
$$$$
