LNQ.pdb
     RDKit          3D

 26 25  0  0  1  0  0  0  0  0999 V2000
    7.6781  -12.6042   18.5667 C   0  0  0  0  0  0  0  0  0  0  0  0
    8.4371  -13.4647   19.5557 C   0  0  1  0  0  0  0  0  0  0  0  0
    9.3901  -12.5925   20.3301 C   0  0  0  0  0  0  0  0  0  0  0  0
    7.4331  -14.1557   20.4332 C   0  0  0  0  0  0  0  0  0  0  0  0
    8.0691  -15.0034   21.5029 C   0  0  2  0  0  0  0  0  0  0  0  0
    8.9404  -16.0084   20.9937 N   0  0  0  0  0  0  0  0  0  0  0  0
    7.0812  -15.6072   22.4126 C   0  0  0  0  0  0  0  0  0  0  0  0
    5.9901  -16.0134   21.9425 O   0  0  0  0  0  0  0  0  0  0  0  0
    5.7703  -19.2201   23.9584 N   0  0  0  0  0  0  0  0  0  0  0  0
    7.0037  -19.1651   23.1994 C   0  0  0  0  0  0  0  0  0  0  0  0
    7.1445  -20.1005   22.3866 O   0  0  0  0  0  0  0  0  0  0  0  0
    7.9583  -18.0702   23.4235 C   0  0  0  0  0  0  0  0  0  0  0  0
    7.4995  -17.0786   24.4262 C   0  0  2  0  0  0  0  0  0  0  0  0
    7.2801  -15.7638   23.8039 N   0  0  0  0  0  0  0  0  0  0  0  0
    8.5002  -16.8993   25.5385 C   0  0  0  0  0  0  0  0  0  0  0  0
    9.7308  -16.8441   25.3545 O   0  0  0  0  0  0  0  0  0  0  0  0
    5.8891  -21.3605   27.2285 N   0  0  0  0  0  0  0  0  0  0  0  0
    6.8096  -21.3440   28.3112 C   0  0  0  0  0  0  0  0  0  0  0  0
    6.9310  -22.3386   29.0599 O   0  0  0  0  0  0  0  0  0  0  0  0
    7.6456  -20.1492   28.5795 C   0  0  0  0  0  0  0  0  0  0  0  0
    7.3906  -18.9882   27.6908 C   0  0  0  0  0  0  0  0  0  0  0  0
    8.3001  -17.8327   27.8608 C   0  0  2  0  0  0  0  0  0  0  0  0
    8.0250  -16.7858   26.8760 N   0  0  0  0  0  0  0  0  0  0  0  0
    9.7417  -18.1815   27.8716 C   0  0  0  0  0  0  0  0  0  0  0  0
   10.3407  -18.6716   26.8745 O   0  0  0  0  0  0  0  0  0  0  0  0
   10.5050  -17.9776   28.9997 O   0  0  0  0  0  0  0  0  0  0  0  0
  2  3  1  1
  2  1  1  0
  4  5  1  0
  4  2  1  0
  5  6  1  6
  7  5  1  0
  7  8  2  0
 10  9  1  0
 11 10  2  0
 12 10  1  0
 13 12  1  6
 13 14  1  0
 14  7  1  0
 15 23  1  0
 15 13  1  0
 16 15  2  0
 18 17  1  0
 18 19  2  0
 20 21  1  0
 20 18  1  0
 22 21  1  6
 22 23  1  0
 22 24  1  0
 24 25  2  0
 24 26  1  0
M  END
$$$$
