LNQ.pdb
     RDKit          3D

 26 25  0  0  1  0  0  0  0  0999 V2000
    7.1482  -12.7622   18.3053 C   0  0  0  0  0  0  0  0  0  0  0  0
    8.2315  -13.6046   18.9470 C   0  0  1  0  0  0  0  0  0  0  0  0
    9.4437  -12.7427   19.1834 C   0  0  0  0  0  0  0  0  0  0  0  0
    7.6738  -14.1884   20.2134 C   0  0  0  0  0  0  0  0  0  0  0  0
    8.6812  -15.0024   20.9814 C   0  0  2  0  0  0  0  0  0  0  0  0
    9.3887  -15.9423   20.1786 N   0  0  0  0  0  0  0  0  0  0  0  0
    8.0940  -15.6793   22.1497 C   0  0  0  0  0  0  0  0  0  0  0  0
    7.1239  -15.1430   22.7395 O   0  0  0  0  0  0  0  0  0  0  0  0
    5.4872  -19.6851   24.5210 N   0  0  0  0  0  0  0  0  0  0  0  0
    6.9132  -19.8585   24.3296 C   0  0  0  0  0  0  0  0  0  0  0  0
    7.4291  -20.7090   25.0821 O   0  0  0  0  0  0  0  0  0  0  0  0
    7.6225  -19.0644   23.3163 C   0  0  0  0  0  0  0  0  0  0  0  0
    7.8346  -17.6510   23.7117 C   0  0  2  0  0  0  0  0  0  0  0  0
    8.5556  -16.9137   22.6626 N   0  0  0  0  0  0  0  0  0  0  0  0
    8.6328  -17.5369   24.9848 C   0  0  0  0  0  0  0  0  0  0  0  0
    8.2838  -18.0515   26.0640 O   0  0  0  0  0  0  0  0  0  0  0  0
    8.9055  -13.7153   28.8644 N   0  0  0  0  0  0  0  0  0  0  0  0
    9.9606  -14.5437   29.3340 C   0  0  0  0  0  0  0  0  0  0  0  0
   10.3302  -14.4900   30.5277 O   0  0  0  0  0  0  0  0  0  0  0  0
   10.6483  -15.4886   28.4215 C   0  0  0  0  0  0  0  0  0  0  0  0
   10.0689  -15.5840   27.0584 C   0  0  0  0  0  0  0  0  0  0  0  0
   10.6441  -16.6309   26.1840 C   0  0  2  0  0  0  0  0  0  0  0  0
    9.8532  -16.8036   24.9649 N   0  0  0  0  0  0  0  0  0  0  0  0
   10.8725  -17.9342   26.8541 C   0  0  0  0  0  0  0  0  0  0  0  0
   10.0286  -18.8727   26.8443 O   0  0  0  0  0  0  0  0  0  0  0  0
   12.0469  -18.1795   27.5305 O   0  0  0  0  0  0  0  0  0  0  0  0
  2  3  1  1
  2  1  1  0
  4  5  1  0
  4  2  1  0
  5  6  1  6
  7  5  1  0
  7  8  2  0
 10  9  1  0
 11 10  2  0
 12 10  1  0
 13 12  1  6
 13 14  1  0
 14  7  1  0
 15 23  1  0
 15 13  1  0
 16 15  2  0
 18 17  1  0
 18 19  2  0
 20 21  1  0
 20 18  1  0
 22 21  1  1
 22 23  1  0
 22 24  1  0
 24 25  2  0
 24 26  1  0
M  END
$$$$
