LNQ.pdb
     RDKit          3D

 26 25  0  0  1  0  0  0  0  0999 V2000
    7.1699  -12.3374   27.7588 C   0  0  0  0  0  0  0  0  0  0  0  0
    6.3316  -12.9895   26.6786 C   0  0  1  0  0  0  0  0  0  0  0  0
    5.6318  -11.9147   25.8890 C   0  0  0  0  0  0  0  0  0  0  0  0
    7.2415  -13.8356   25.8350 C   0  0  0  0  0  0  0  0  0  0  0  0
    6.5047  -14.6399   24.7969 C   0  0  2  0  0  0  0  0  0  0  0  0
    5.5936  -15.5863   25.3471 N   0  0  0  0  0  0  0  0  0  0  0  0
    7.4097  -15.3065   23.8457 C   0  0  0  0  0  0  0  0  0  0  0  0
    7.4680  -16.5607   23.8386 O   0  0  0  0  0  0  0  0  0  0  0  0
    8.3247  -12.4975   19.8814 N   0  0  0  0  0  0  0  0  0  0  0  0
    8.4529  -13.9219   20.1156 C   0  0  0  0  0  0  0  0  0  0  0  0
    7.5479  -14.6071   19.5988 O   0  0  0  0  0  0  0  0  0  0  0  0
    9.5796  -14.4404   20.9042 C   0  0  0  0  0  0  0  0  0  0  0  0
    9.1651  -15.3178   22.0255 C   0  0  2  0  0  0  0  0  0  0  0  0
    8.2325  -14.6192   22.9235 N   0  0  0  0  0  0  0  0  0  0  0  0
   10.3426  -15.7722   22.8490 C   0  0  0  0  0  0  0  0  0  0  0  0
   11.4076  -16.1885   22.3554 O   0  0  0  0  0  0  0  0  0  0  0  0
   10.6732  -15.2439   29.2492 N   0  0  0  0  0  0  0  0  0  0  0  0
   11.9521  -15.7375   28.8744 C   0  0  0  0  0  0  0  0  0  0  0  0
   12.8212  -15.9791   29.7408 O   0  0  0  0  0  0  0  0  0  0  0  0
   12.2866  -15.9763   27.4498 C   0  0  0  0  0  0  0  0  0  0  0  0
   11.2464  -15.5558   26.4783 C   0  0  0  0  0  0  0  0  0  0  0  0
   11.3773  -16.1095   25.1117 C   0  0  2  0  0  0  0  0  0  0  0  0
   10.2437  -15.7275   24.2688 N   0  0  0  0  0  0  0  0  0  0  0  0
   11.6026  -17.5746   25.0611 C   0  0  0  0  0  0  0  0  0  0  0  0
   12.7390  -18.1037   25.2089 O   0  0  0  0  0  0  0  0  0  0  0  0
   10.5523  -18.4394   24.8467 O   0  0  0  0  0  0  0  0  0  0  0  0
  2  3  1  6
  2  1  1  0
  4  5  1  0
  4  2  1  0
  5  6  1  1
  7  5  1  0
  7  8  2  0
 10  9  1  0
 11 10  2  0
 12 10  1  0
 13 12  1  6
 13 14  1  0
 14  7  1  0
 15 23  1  0
 15 13  1  0
 16 15  2  0
 18 17  1  0
 18 19  2  0
 20 21  1  0
 20 18  1  0
 22 21  1  1
 22 23  1  0
 22 24  1  0
 24 25  2  0
 24 26  1  0
M  END
$$$$
