LNQ.pdb
     RDKit          3D

 26 25  0  0  1  0  0  0  0  0999 V2000
    6.5992  -12.3466   26.5417 C   0  0  0  0  0  0  0  0  0  0  0  0
    6.6793  -12.9378   25.1493 C   0  0  1  0  0  0  0  0  0  0  0  0
    7.3053  -11.9265   24.2253 C   0  0  0  0  0  0  0  0  0  0  0  0
    7.4635  -14.2159   25.2340 C   0  0  0  0  0  0  0  0  0  0  0  0
    7.7310  -14.8343   23.8875 C   0  0  2  0  0  0  0  0  0  0  0  0
    6.5491  -15.1872   23.1752 N   0  0  0  0  0  0  0  0  0  0  0  0
    8.6379  -15.9919   23.9630 C   0  0  0  0  0  0  0  0  0  0  0  0
    8.3569  -16.9347   24.7431 O   0  0  0  0  0  0  0  0  0  0  0  0
   11.0427  -16.6992   19.8645 N   0  0  0  0  0  0  0  0  0  0  0  0
   10.9206  -17.6274   20.9707 C   0  0  0  0  0  0  0  0  0  0  0  0
   10.1649  -18.5935   20.7447 O   0  0  0  0  0  0  0  0  0  0  0  0
   11.6548  -17.3845   22.2206 C   0  0  0  0  0  0  0  0  0  0  0  0
   10.7753  -17.2217   23.4035 C   0  0  2  0  0  0  0  0  0  0  0  0
    9.8246  -16.1169   23.2042 N   0  0  0  0  0  0  0  0  0  0  0  0
   11.5634  -16.9297   24.6543 C   0  0  0  0  0  0  0  0  0  0  0  0
   12.1638  -15.8570   24.8545 O   0  0  0  0  0  0  0  0  0  0  0  0
    9.9489  -13.9774   28.3585 N   0  0  0  0  0  0  0  0  0  0  0  0
   10.8312  -14.6370   29.2565 C   0  0  0  0  0  0  0  0  0  0  0  0
   11.0522  -14.1663   30.3940 O   0  0  0  0  0  0  0  0  0  0  0  0
   11.5105  -15.8959   28.8666 C   0  0  0  0  0  0  0  0  0  0  0  0
   11.2078  -16.3781   27.4960 C   0  0  0  0  0  0  0  0  0  0  0  0
   11.9635  -17.5699   27.0489 C   0  0  2  0  0  0  0  0  0  0  0  0
   11.6326  -17.9265   25.6688 N   0  0  0  0  0  0  0  0  0  0  0  0
   11.8396  -18.7471   27.9426 C   0  0  0  0  0  0  0  0  0  0  0  0
   10.9763  -19.6526   27.7756 O   0  0  0  0  0  0  0  0  0  0  0  0
   12.6854  -18.9042   29.0181 O   0  0  0  0  0  0  0  0  0  0  0  0
  2  3  1  6
  2  1  1  0
  4  5  1  0
  4  2  1  0
  5  6  1  1
  7  5  1  0
  7  8  2  0
 10  9  1  0
 11 10  2  0
 12 10  1  0
 13 12  1  6
 13 14  1  0
 14  7  1  0
 15 23  1  0
 15 13  1  0
 16 15  2  0
 18 17  1  0
 18 19  2  0
 20 21  1  0
 20 18  1  0
 22 21  1  1
 22 23  1  0
 22 24  1  0
 24 25  2  0
 24 26  1  0
M  END
$$$$
