LNQ.pdb
     RDKit          3D

 26 25  0  0  1  0  0  0  0  0999 V2000
    6.7771  -12.4373   19.1778 C   0  0  0  0  0  0  0  0  0  0  0  0
    7.9152  -13.4304   19.2931 C   0  0  1  0  0  0  0  0  0  0  0  0
    9.2209  -12.6800   19.2752 C   0  0  0  0  0  0  0  0  0  0  0  0
    7.7128  -14.2211   20.5538 C   0  0  0  0  0  0  0  0  0  0  0  0
    8.9549  -14.9447   21.0020 C   0  0  2  0  0  0  0  0  0  0  0  0
    9.4419  -15.8875   20.0520 N   0  0  0  0  0  0  0  0  0  0  0  0
    8.7944  -15.5905   22.3155 C   0  0  0  0  0  0  0  0  0  0  0  0
    7.9021  -15.1726   23.0938 O   0  0  0  0  0  0  0  0  0  0  0  0
    8.7814  -19.1486   22.0941 N   0  0  0  0  0  0  0  0  0  0  0  0
    9.7531  -19.5288   23.0998 C   0  0  0  0  0  0  0  0  0  0  0  0
   10.2162  -20.6775   22.9529 O   0  0  0  0  0  0  0  0  0  0  0  0
   10.1116  -18.5881   24.1707 C   0  0  0  0  0  0  0  0  0  0  0  0
    9.3955  -17.2923   24.0867 C   0  0  2  0  0  0  0  0  0  0  0  0
    9.5902  -16.6680   22.7689 N   0  0  0  0  0  0  0  0  0  0  0  0
    9.8725  -16.3173   25.1320 C   0  0  0  0  0  0  0  0  0  0  0  0
   11.0266  -15.8499   25.1612 O   0  0  0  0  0  0  0  0  0  0  0  0
    6.1302  -12.0442   27.6244 N   0  0  0  0  0  0  0  0  0  0  0  0
    6.6802  -12.2426   26.3290 C   0  0  0  0  0  0  0  0  0  0  0  0
    6.2522  -11.5946   25.3486 O   0  0  0  0  0  0  0  0  0  0  0  0
    7.7716  -13.2218   26.1088 C   0  0  0  0  0  0  0  0  0  0  0  0
    8.2734  -13.8933   27.3336 C   0  0  0  0  0  0  0  0  0  0  0  0
    9.3502  -14.8885   27.1294 C   0  0  2  0  0  0  0  0  0  0  0  0
    8.9637  -15.9008   26.1460 N   0  0  0  0  0  0  0  0  0  0  0  0
    9.8437  -15.5243   28.3753 C   0  0  0  0  0  0  0  0  0  0  0  0
   10.3309  -14.8695   29.3381 O   0  0  0  0  0  0  0  0  0  0  0  0
    9.7871  -16.8910   28.5361 O   0  0  0  0  0  0  0  0  0  0  0  0
  2  3  1  1
  2  1  1  0
  4  5  1  0
  4  2  1  0
  5  6  1  6
  7  5  1  0
  7  8  2  0
 10  9  1  0
 11 10  2  0
 12 10  1  0
 13 12  1  6
 13 14  1  0
 14  7  1  0
 15 23  1  0
 15 13  1  0
 16 15  2  0
 18 17  1  0
 18 19  2  0
 20 21  1  0
 20 18  1  0
 22 21  1  1
 22 23  1  0
 22 24  1  0
 24 25  2  0
 24 26  1  0
M  END
$$$$
