LNQ.pdb
     RDKit          3D

 26 25  0  0  1  0  0  0  0  0999 V2000
    6.6017  -11.5595   27.6516 C   0  0  0  0  0  0  0  0  0  0  0  0
    6.4372  -12.5200   26.4918 C   0  0  1  0  0  0  0  0  0  0  0  0
    6.2886  -11.7275   25.2196 C   0  0  0  0  0  0  0  0  0  0  0  0
    7.6292  -13.4335   26.4753 C   0  0  0  0  0  0  0  0  0  0  0  0
    7.6101  -14.4075   25.3273 C   0  0  2  0  0  0  0  0  0  0  0  0
    6.3981  -15.1488   25.2261 N   0  0  0  0  0  0  0  0  0  0  0  0
    8.7618  -15.3249   25.3402 C   0  0  0  0  0  0  0  0  0  0  0  0
    9.9043  -14.8635   25.5817 O   0  0  0  0  0  0  0  0  0  0  0  0
    7.3569  -19.8346   26.3259 N   0  0  0  0  0  0  0  0  0  0  0  0
    8.6785  -19.2492   26.4304 C   0  0  0  0  0  0  0  0  0  0  0  0
    9.0319  -18.9933   27.5989 O   0  0  0  0  0  0  0  0  0  0  0  0
    9.4751  -19.0073   25.2191 C   0  0  0  0  0  0  0  0  0  0  0  0
    9.8519  -17.5855   25.0308 C   0  0  2  0  0  0  0  0  0  0  0  0
    8.6682  -16.7144   25.0947 N   0  0  0  0  0  0  0  0  0  0  0  0
   10.5224  -17.3528   23.7014 C   0  0  0  0  0  0  0  0  0  0  0  0
   10.0858  -17.7984   22.6234 O   0  0  0  0  0  0  0  0  0  0  0  0
   10.3872  -14.1122   19.5668 N   0  0  0  0  0  0  0  0  0  0  0  0
   11.8039  -14.1334   19.4555 C   0  0  0  0  0  0  0  0  0  0  0  0
   12.3655  -13.7789   18.3956 O   0  0  0  0  0  0  0  0  0  0  0  0
   12.6485  -14.5768   20.5906 C   0  0  0  0  0  0  0  0  0  0  0  0
   11.9039  -15.0504   21.7839 C   0  0  0  0  0  0  0  0  0  0  0  0
   12.3936  -16.3071   22.3940 C   0  0  2  0  0  0  0  0  0  0  0  0
   11.7200  -16.5835   23.6634 N   0  0  0  0  0  0  0  0  0  0  0  0
   13.8666  -16.3809   22.5511 C   0  0  0  0  0  0  0  0  0  0  0  0
   14.6604  -16.4849   21.5753 O   0  0  0  0  0  0  0  0  0  0  0  0
   14.4425  -16.3361   23.8014 O   0  0  0  0  0  0  0  0  0  0  0  0
  2  3  1  6
  2  1  1  0
  4  5  1  0
  4  2  1  0
  5  6  1  1
  7  5  1  0
  7  8  2  0
 10  9  1  0
 11 10  2  0
 12 10  1  0
 13 12  1  6
 13 14  1  0
 14  7  1  0
 15 23  1  0
 15 13  1  0
 16 15  2  0
 18 17  1  0
 18 19  2  0
 20 21  1  0
 20 18  1  0
 22 21  1  1
 22 23  1  0
 22 24  1  0
 24 25  2  0
 24 26  1  0
M  END
$$$$
