LNQ.pdb
     RDKit          3D

 26 25  0  0  1  0  0  0  0  0999 V2000
    7.1328  -11.8768   19.8748 C   0  0  0  0  0  0  0  0  0  0  0  0
    7.8578  -13.1770   19.5945 C   0  0  1  0  0  0  0  0  0  0  0  0
    9.3232  -12.8869   19.4030 C   0  0  0  0  0  0  0  0  0  0  0  0
    7.5920  -14.1109   20.7403 C   0  0  0  0  0  0  0  0  0  0  0  0
    8.3570  -15.4037   20.6374 C   0  0  2  0  0  0  0  0  0  0  0  0
    7.8387  -16.2986   19.6582 N   0  0  0  0  0  0  0  0  0  0  0  0
    8.4856  -16.0934   21.9320 C   0  0  0  0  0  0  0  0  0  0  0  0
    7.4805  -16.1747   22.6802 O   0  0  0  0  0  0  0  0  0  0  0  0
   12.3209  -19.2191   25.5368 N   0  0  0  0  0  0  0  0  0  0  0  0
   10.9758  -19.0380   25.0289 C   0  0  0  0  0  0  0  0  0  0  0  0
   10.0813  -19.4409   25.7991 O   0  0  0  0  0  0  0  0  0  0  0  0
   10.7625  -18.4246   23.7104 C   0  0  0  0  0  0  0  0  0  0  0  0
    9.7918  -17.3036   23.7274 C   0  0  2  0  0  0  0  0  0  0  0  0
    9.6842  -16.6805   22.3991 N   0  0  0  0  0  0  0  0  0  0  0  0
   10.1894  -16.2302   24.7076 C   0  0  0  0  0  0  0  0  0  0  0  0
   11.1449  -15.4523   24.5257 O   0  0  0  0  0  0  0  0  0  0  0  0
    7.0505  -11.7881   26.9438 N   0  0  0  0  0  0  0  0  0  0  0  0
    6.5975  -13.0617   26.5049 C   0  0  0  0  0  0  0  0  0  0  0  0
    5.4201  -13.2194   26.1132 O   0  0  0  0  0  0  0  0  0  0  0  0
    7.5076  -14.2322   26.5022 C   0  0  0  0  0  0  0  0  0  0  0  0
    8.8985  -13.9511   26.9371 C   0  0  0  0  0  0  0  0  0  0  0  0
    9.8255  -15.1051   26.9224 C   0  0  2  0  0  0  0  0  0  0  0  0
    9.4397  -16.0885   25.9098 N   0  0  0  0  0  0  0  0  0  0  0  0
   10.0196  -15.7544   28.2418 C   0  0  0  0  0  0  0  0  0  0  0  0
   10.3908  -15.1267   29.2720 O   0  0  0  0  0  0  0  0  0  0  0  0
    9.7950  -17.1040   28.3999 O   0  0  0  0  0  0  0  0  0  0  0  0
  2  3  1  1
  2  1  1  0
  4  5  1  0
  4  2  1  0
  5  6  1  6
  7  5  1  0
  7  8  2  0
 10  9  1  0
 11 10  2  0
 12 10  1  0
 13 12  1  6
 13 14  1  0
 14  7  1  0
 15 23  1  0
 15 13  1  0
 16 15  2  0
 18 17  1  0
 18 19  2  0
 20 21  1  0
 20 18  1  0
 22 21  1  1
 22 23  1  0
 22 24  1  0
 24 25  2  0
 24 26  1  0
M  END
$$$$
