LNQ.pdb
     RDKit          3D

 26 25  0  0  1  0  0  0  0  0999 V2000
    6.5049  -12.5570   18.9536 C   0  0  0  0  0  0  0  0  0  0  0  0
    7.7187  -13.4165   19.2409 C   0  0  1  0  0  0  0  0  0  0  0  0
    8.9360  -12.5326   19.3136 C   0  0  0  0  0  0  0  0  0  0  0  0
    7.4633  -14.1653   20.5175 C   0  0  0  0  0  0  0  0  0  0  0  0
    8.6723  -14.9120   21.0155 C   0  0  2  0  0  0  0  0  0  0  0  0
    9.2021  -15.8372   20.0711 N   0  0  0  0  0  0  0  0  0  0  0  0
    8.4341  -15.5868   22.3023 C   0  0  0  0  0  0  0  0  0  0  0  0
    7.7765  -14.9896   23.1897 O   0  0  0  0  0  0  0  0  0  0  0  0
    6.8448  -20.1214   23.4803 N   0  0  0  0  0  0  0  0  0  0  0  0
    8.1524  -19.6974   23.0212 C   0  0  0  0  0  0  0  0  0  0  0  0
    8.4165  -20.0368   21.8505 O   0  0  0  0  0  0  0  0  0  0  0  0
    9.0361  -18.9360   23.9154 C   0  0  0  0  0  0  0  0  0  0  0  0
    8.7397  -17.4833   23.9467 C   0  0  2  0  0  0  0  0  0  0  0  0
    8.9036  -16.8839   22.6133 N   0  0  0  0  0  0  0  0  0  0  0  0
    9.6466  -16.7448   24.8971 C   0  0  0  0  0  0  0  0  0  0  0  0
   10.8572  -16.5486   24.6803 O   0  0  0  0  0  0  0  0  0  0  0  0
    6.4758  -11.9305   26.1905 N   0  0  0  0  0  0  0  0  0  0  0  0
    7.5392  -12.5933   26.8611 C   0  0  0  0  0  0  0  0  0  0  0  0
    7.8284  -12.3012   28.0424 O   0  0  0  0  0  0  0  0  0  0  0  0
    8.3308  -13.6441   26.1772 C   0  0  0  0  0  0  0  0  0  0  0  0
    9.6294  -13.9722   26.8164 C   0  0  0  0  0  0  0  0  0  0  0  0
    9.9085  -15.4132   27.0095 C   0  0  2  0  0  0  0  0  0  0  0  0
    9.1010  -16.2395   26.1114 N   0  0  0  0  0  0  0  0  0  0  0  0
    9.7843  -15.8808   28.4115 C   0  0  0  0  0  0  0  0  0  0  0  0
   10.3633  -15.3170   29.3810 O   0  0  0  0  0  0  0  0  0  0  0  0
    9.0101  -16.9773   28.7199 O   0  0  0  0  0  0  0  0  0  0  0  0
  2  3  1  1
  2  1  1  0
  4  5  1  0
  4  2  1  0
  5  6  1  6
  7  5  1  0
  7  8  2  0
 10  9  1  0
 11 10  2  0
 12 10  1  0
 13 12  1  6
 13 14  1  0
 14  7  1  0
 15 23  1  0
 15 13  1  0
 16 15  2  0
 18 17  1  0
 18 19  2  0
 20 21  1  0
 20 18  1  0
 22 21  1  1
 22 23  1  0
 22 24  1  0
 24 25  2  0
 24 26  1  0
M  END
$$$$
