KIK.pdb
     RDKit          3D

 27 26  0  0  1  0  0  0  0  0999 V2000
   10.5344  -17.1124   16.2097 N   0  0  0  0  0  0  0  0  0  0  0  0
    9.7540  -17.5487   17.2919 C   0  0  1  0  0  0  0  0  0  0  0  0
    9.8630  -18.9215   17.7979 C   0  0  0  0  0  0  0  0  0  0  0  0
    9.0887  -20.0344   17.2832 C   0  0  0  0  0  0  0  0  0  0  0  0
    9.1110  -21.4073   17.7427 C   0  0  0  0  0  0  0  0  0  0  0  0
    8.2774  -22.4605   17.1464 C   0  0  0  0  0  0  0  0  0  0  0  0
    8.8047  -22.7296   15.7568 N   0  0  0  0  0  0  0  0  0  0  0  0
   10.0527  -16.6347   18.4675 C   0  0  0  0  0  0  0  0  0  0  0  0
   11.2147  -16.2487   18.7155 O   0  0  0  0  0  0  0  0  0  0  0  0
    6.4736  -12.7057   19.7698 C   0  0  0  0  0  0  0  0  0  0  0  0
    7.7260  -13.4987   19.6273 C   0  0  0  0  0  0  0  0  0  0  0  0
    7.9661  -14.5174   20.6900 C   0  0  2  0  0  0  0  0  0  0  0  0
    8.0988  -13.7392   22.0141 C   0  0  0  0  0  0  0  0  0  0  0  0
    9.1524  -15.3979   20.4835 C   0  0  2  0  0  0  0  0  0  0  0  0
    9.0010  -16.2171   19.2899 N   0  0  0  0  0  0  0  0  0  0  0  0
    9.5698  -16.1907   21.6536 C   0  0  0  0  0  0  0  0  0  0  0  0
    8.9056  -17.1934   22.0095 O   0  0  0  0  0  0  0  0  0  0  0  0
   10.7118  -15.8296   22.3793 N   0  0  0  0  0  0  0  0  0  0  0  0
   11.2710  -16.6153   23.4734 C   0  0  1  0  0  0  0  0  0  0  0  0
   12.7184  -16.2784   23.5934 C   0  0  0  0  0  0  0  0  0  0  0  0
   13.6411  -17.3308   23.0810 C   0  0  0  0  0  0  0  0  0  0  0  0
   15.0975  -16.9846   23.2520 C   0  0  0  0  0  0  0  0  0  0  0  0
   16.0166  -18.1035   22.8976 C   0  0  0  0  0  0  0  0  0  0  0  0
   17.4110  -17.7609   23.0071 N   0  0  0  0  0  0  0  0  0  0  0  0
   10.4847  -16.3504   24.6978 C   0  0  0  0  0  0  0  0  0  0  0  0
    9.8150  -15.2880   24.8230 O   0  0  0  0  0  0  0  0  0  0  0  0
   10.4440  -17.2454   25.7576 O   0  0  0  0  0  0  0  0  0  0  0  0
  2  1  1  6
  2  3  1  0
  3  4  1  0
  5  6  1  0
  5  4  1  0
  7  6  1  0
  8  2  1  0
  9  8  2  0
 11 10  1  0
 12 11  1  0
 12 13  1  1
 12 14  1  0
 14 15  1  6
 15  8  1  0
 16 17  2  0
 16 14  1  0
 18 16  1  0
 19 18  1  0
 20 21  1  0
 19 20  1  1
 21 22  1  0
 23 22  1  0
 23 24  1  0
 25 19  1  0
 26 25  2  0
 27 25  1  0
M  END
$$$$
