KIK.pdb
     RDKit          3D

 27 26  0  0  1  0  0  0  0  0999 V2000
   10.8041  -17.7410   16.9851 N   0  0  0  0  0  0  0  0  0  0  0  0
    9.5955  -17.7150   17.6988 C   0  0  1  0  0  0  0  0  0  0  0  0
    8.8909  -18.9562   18.0384 C   0  0  0  0  0  0  0  0  0  0  0  0
    9.5382  -20.1192   18.6142 C   0  0  0  0  0  0  0  0  0  0  0  0
    8.9493  -21.4176   18.8667 C   0  0  0  0  0  0  0  0  0  0  0  0
    9.7196  -22.5528   19.3935 C   0  0  0  0  0  0  0  0  0  0  0  0
    8.7546  -23.6905   19.6297 N   0  0  0  0  0  0  0  0  0  0  0  0
    9.8568  -16.9986   19.0123 C   0  0  0  0  0  0  0  0  0  0  0  0
   10.9812  -17.0225   19.5565 O   0  0  0  0  0  0  0  0  0  0  0  0
    6.8104  -12.4572   19.7652 C   0  0  0  0  0  0  0  0  0  0  0  0
    7.9457  -13.4204   19.7965 C   0  0  0  0  0  0  0  0  0  0  0  0
    7.9010  -14.4310   20.8924 C   0  0  2  0  0  0  0  0  0  0  0  0
    8.0125  -13.6434   22.2129 C   0  0  0  0  0  0  0  0  0  0  0  0
    8.9451  -15.4948   20.8321 C   0  0  2  0  0  0  0  0  0  0  0  0
    8.8132  -16.2968   19.6246 N   0  0  0  0  0  0  0  0  0  0  0  0
    9.0788  -16.3267   22.0412 C   0  0  0  0  0  0  0  0  0  0  0  0
    8.2014  -17.1765   22.3261 O   0  0  0  0  0  0  0  0  0  0  0  0
   10.1872  -16.1739   22.8835 N   0  0  0  0  0  0  0  0  0  0  0  0
   10.4701  -17.0292   24.0304 C   0  0  1  0  0  0  0  0  0  0  0  0
   11.8673  -17.5326   23.8998 C   0  0  0  0  0  0  0  0  0  0  0  0
   12.3277  -18.3768   25.0386 C   0  0  0  0  0  0  0  0  0  0  0  0
   13.7210  -18.9203   24.8557 C   0  0  0  0  0  0  0  0  0  0  0  0
   14.1979  -19.7269   26.0151 C   0  0  0  0  0  0  0  0  0  0  0  0
   15.5441  -20.2150   25.8630 N   0  0  0  0  0  0  0  0  0  0  0  0
   10.2170  -16.2611   25.2688 C   0  0  0  0  0  0  0  0  0  0  0  0
   10.1439  -15.0013   25.2488 O   0  0  0  0  0  0  0  0  0  0  0  0
   10.0492  -16.8790   26.5000 O   0  0  0  0  0  0  0  0  0  0  0  0
  2  1  1  1
  2  3  1  0
  3  4  1  0
  5  6  1  0
  5  4  1  0
  7  6  1  0
  8  2  1  0
  9  8  2  0
 11 10  1  0
 12 11  1  0
 12 13  1  1
 12 14  1  0
 14 15  1  6
 15  8  1  0
 16 17  2  0
 16 14  1  0
 18 16  1  0
 19 18  1  0
 20 21  1  0
 19 20  1  6
 21 22  1  0
 23 22  1  0
 23 24  1  0
 25 19  1  0
 26 25  2  0
 27 25  1  0
M  END
$$$$
