KIK.pdb
     RDKit          3D

 27 26  0  0  1  0  0  0  0  0999 V2000
    7.5473  -14.0747   20.2815 N   0  0  0  0  0  0  0  0  0  0  0  0
    7.2444  -15.0693   21.2246 C   0  0  1  0  0  0  0  0  0  0  0  0
    7.4175  -16.4910   20.9065 C   0  0  0  0  0  0  0  0  0  0  0  0
    6.6096  -17.2043   19.9360 C   0  0  0  0  0  0  0  0  0  0  0  0
    6.5990  -18.6292   19.6792 C   0  0  0  0  0  0  0  0  0  0  0  0
    5.7286  -19.2504   18.6712 C   0  0  0  0  0  0  0  0  0  0  0  0
    5.8973  -20.7474   18.7809 N   0  0  0  0  0  0  0  0  0  0  0  0
    8.0895  -14.8012   22.4577 C   0  0  0  0  0  0  0  0  0  0  0  0
    9.3289  -14.6631   22.3824 O   0  0  0  0  0  0  0  0  0  0  0  0
    6.0704  -11.4476   26.1267 C   0  0  0  0  0  0  0  0  0  0  0  0
    6.9925  -12.2694   25.2948 C   0  0  0  0  0  0  0  0  0  0  0  0
    7.3652  -13.5952   25.8672 C   0  0  2  0  0  0  0  0  0  0  0  0
    8.1537  -13.3032   27.1592 C   0  0  0  0  0  0  0  0  0  0  0  0
    8.1529  -14.4878   24.9682 C   0  0  2  0  0  0  0  0  0  0  0  0
    7.4635  -14.7071   23.7051 N   0  0  0  0  0  0  0  0  0  0  0  0
    8.6230  -15.7473   25.5719 C   0  0  0  0  0  0  0  0  0  0  0  0
    7.7994  -16.6029   25.9755 O   0  0  0  0  0  0  0  0  0  0  0  0
    9.9946  -15.9986   25.7014 N   0  0  0  0  0  0  0  0  0  0  0  0
   10.5556  -17.2409   26.2200 C   0  0  1  0  0  0  0  0  0  0  0  0
   11.9065  -17.4267   25.6173 C   0  0  0  0  0  0  0  0  0  0  0  0
   12.6493  -18.6159   26.1229 C   0  0  0  0  0  0  0  0  0  0  0  0
   14.0494  -18.7236   25.5769 C   0  0  0  0  0  0  0  0  0  0  0  0
   14.7976  -19.9035   26.0968 C   0  0  0  0  0  0  0  0  0  0  0  0
   16.1214  -20.0353   25.5457 N   0  0  0  0  0  0  0  0  0  0  0  0
   10.5556  -17.1807   27.6979 C   0  0  0  0  0  0  0  0  0  0  0  0
   10.5409  -16.0735   28.3033 O   0  0  0  0  0  0  0  0  0  0  0  0
   10.5716  -18.3245   28.4837 O   0  0  0  0  0  0  0  0  0  0  0  0
  2  1  1  6
  2  3  1  0
  3  4  1  0
  5  6  1  0
  5  4  1  0
  7  6  1  0
  8  2  1  0
  9  8  2  0
 11 10  1  0
 12 11  1  0
 12 13  1  1
 12 14  1  0
 14 15  1  6
 15  8  1  0
 16 17  2  0
 16 14  1  0
 18 16  1  0
 19 18  1  0
 20 21  1  0
 19 20  1  6
 21 22  1  0
 23 22  1  0
 23 24  1  0
 25 19  1  0
 26 25  2  0
 27 25  1  0
M  END
$$$$
