KIK.pdb
     RDKit          3D

 27 26  0  0  1  0  0  0  0  0999 V2000
    8.0903  -14.3083   20.2959 N   0  0  0  0  0  0  0  0  0  0  0  0
    7.3599  -14.9551   21.3052 C   0  0  1  0  0  0  0  0  0  0  0  0
    7.0619  -16.3892   21.2223 C   0  0  0  0  0  0  0  0  0  0  0  0
    6.9896  -17.1270   19.9759 C   0  0  0  0  0  0  0  0  0  0  0  0
    6.5148  -18.4812   19.7827 C   0  0  0  0  0  0  0  0  0  0  0  0
    6.5207  -19.1481   18.4732 C   0  0  0  0  0  0  0  0  0  0  0  0
    5.7631  -20.4467   18.6176 N   0  0  0  0  0  0  0  0  0  0  0  0
    8.1058  -14.7483   22.6119 C   0  0  0  0  0  0  0  0  0  0  0  0
    9.3518  -14.8186   22.6706 O   0  0  0  0  0  0  0  0  0  0  0  0
    6.1262  -11.0739   26.0813 C   0  0  0  0  0  0  0  0  0  0  0  0
    6.9906  -12.0109   25.3116 C   0  0  0  0  0  0  0  0  0  0  0  0
    7.1897  -13.3545   25.9275 C   0  0  2  0  0  0  0  0  0  0  0  0
    7.9005  -13.1129   27.2740 C   0  0  0  0  0  0  0  0  0  0  0  0
    7.9556  -14.3347   25.1041 C   0  0  2  0  0  0  0  0  0  0  0  0
    7.3788  -14.4730   23.7749 N   0  0  0  0  0  0  0  0  0  0  0  0
    8.2102  -15.6401   25.7391 C   0  0  0  0  0  0  0  0  0  0  0  0
    7.2563  -16.4029   26.0246 O   0  0  0  0  0  0  0  0  0  0  0  0
    9.5206  -16.0391   26.0304 N   0  0  0  0  0  0  0  0  0  0  0  0
    9.8815  -17.3528   26.5510 C   0  0  1  0  0  0  0  0  0  0  0  0
   11.0433  -17.8593   25.7660 C   0  0  0  0  0  0  0  0  0  0  0  0
   11.5887  -19.1621   26.2423 C   0  0  0  0  0  0  0  0  0  0  0  0
   12.7635  -19.6502   25.4350 C   0  0  0  0  0  0  0  0  0  0  0  0
   13.2470  -20.9978   25.8500 C   0  0  0  0  0  0  0  0  0  0  0  0
   14.2390  -21.5521   24.9655 N   0  0  0  0  0  0  0  0  0  0  0  0
   10.1382  -17.2335   28.0028 C   0  0  0  0  0  0  0  0  0  0  0  0
   10.4888  -16.1335   28.5126 O   0  0  0  0  0  0  0  0  0  0  0  0
   10.0080  -18.3115   28.8670 O   0  0  0  0  0  0  0  0  0  0  0  0
  2  1  1  6
  2  3  1  0
  3  4  1  0
  5  6  1  0
  5  4  1  0
  7  6  1  0
  8  2  1  0
  9  8  2  0
 11 10  1  0
 12 11  1  0
 12 13  1  1
 12 14  1  0
 14 15  1  6
 15  8  1  0
 16 17  2  0
 16 14  1  0
 18 16  1  0
 19 18  1  0
 20 21  1  0
 19 20  1  6
 21 22  1  0
 23 22  1  0
 23 24  1  0
 25 19  1  0
 26 25  2  0
 27 25  1  0
M  END
$$$$
