KIK.pdb
     RDKit          3D

 27 26  0  0  1  0  0  0  0  0999 V2000
    6.4896  -15.2438   21.4420 N   0  0  0  0  0  0  0  0  0  0  0  0
    7.6934  -15.9459   21.6112 C   0  0  1  0  0  0  0  0  0  0  0  0
    8.6665  -16.0529   20.5185 C   0  0  0  0  0  0  0  0  0  0  0  0
    8.4018  -16.7364   19.2671 C   0  0  0  0  0  0  0  0  0  0  0  0
    8.3420  -16.1534   17.9431 C   0  0  0  0  0  0  0  0  0  0  0  0
    8.0185  -16.9360   16.7421 C   0  0  0  0  0  0  0  0  0  0  0  0
    8.8594  -18.1903   16.7730 N   0  0  0  0  0  0  0  0  0  0  0  0
    8.4300  -15.3136   22.7792 C   0  0  0  0  0  0  0  0  0  0  0  0
    9.6652  -15.1287   22.7491 O   0  0  0  0  0  0  0  0  0  0  0  0
    6.2727  -11.3708   25.7738 C   0  0  0  0  0  0  0  0  0  0  0  0
    7.2380  -12.3180   25.1503 C   0  0  0  0  0  0  0  0  0  0  0  0
    7.4988  -13.5689   25.9195 C   0  0  2  0  0  0  0  0  0  0  0  0
    8.2158  -13.1395   27.2149 C   0  0  0  0  0  0  0  0  0  0  0  0
    8.2935  -14.6109   25.2066 C   0  0  2  0  0  0  0  0  0  0  0  0
    7.7065  -14.9303   23.9135 N   0  0  0  0  0  0  0  0  0  0  0  0
    8.6080  -15.8195   25.9890 C   0  0  0  0  0  0  0  0  0  0  0  0
    7.6864  -16.5496   26.4259 O   0  0  0  0  0  0  0  0  0  0  0  0
    9.9401  -16.1622   26.2526 N   0  0  0  0  0  0  0  0  0  0  0  0
   10.3580  -17.4161   26.8692 C   0  0  1  0  0  0  0  0  0  0  0  0
   11.5042  -17.9588   26.0854 C   0  0  0  0  0  0  0  0  0  0  0  0
   12.0233  -19.2667   26.5768 C   0  0  0  0  0  0  0  0  0  0  0  0
   13.1952  -19.7820   25.7824 C   0  0  0  0  0  0  0  0  0  0  0  0
   13.6272  -21.1504   26.1861 C   0  0  0  0  0  0  0  0  0  0  0  0
   14.6858  -21.6853   25.3695 N   0  0  0  0  0  0  0  0  0  0  0  0
   10.6646  -17.1648   28.2942 C   0  0  0  0  0  0  0  0  0  0  0  0
   11.0472  -16.0278   28.6860 O   0  0  0  0  0  0  0  0  0  0  0  0
   10.5483  -18.1542   29.2604 O   0  0  0  0  0  0  0  0  0  0  0  0
  2  1  1  6
  2  3  1  0
  3  4  1  0
  5  6  1  0
  5  4  1  0
  7  6  1  0
  8  2  1  0
  9  8  2  0
 11 10  1  0
 12 11  1  0
 12 13  1  1
 12 14  1  0
 14 15  1  6
 15  8  1  0
 16 17  2  0
 16 14  1  0
 18 16  1  0
 19 18  1  0
 20 21  1  0
 19 20  1  6
 21 22  1  0
 23 22  1  0
 23 24  1  0
 25 19  1  0
 26 25  2  0
 27 25  1  0
M  END
$$$$
