KIK.pdb
     RDKit          3D

 27 26  0  0  1  0  0  0  0  0999 V2000
    8.3045  -14.6189   20.4560 N   0  0  0  0  0  0  0  0  0  0  0  0
    7.4337  -15.1102   21.4413 C   0  0  1  0  0  0  0  0  0  0  0  0
    6.9464  -16.4934   21.3983 C   0  0  0  0  0  0  0  0  0  0  0  0
    7.7390  -17.6133   20.9285 C   0  0  0  0  0  0  0  0  0  0  0  0
    7.3112  -18.9876   20.7707 C   0  0  0  0  0  0  0  0  0  0  0  0
    6.7213  -19.5002   19.5262 C   0  0  0  0  0  0  0  0  0  0  0  0
    7.8315  -19.6210   18.5093 N   0  0  0  0  0  0  0  0  0  0  0  0
    8.1225  -14.9412   22.7843 C   0  0  0  0  0  0  0  0  0  0  0  0
    9.3657  -15.0011   22.8925 O   0  0  0  0  0  0  0  0  0  0  0  0
    7.1352  -11.0331   26.0857 C   0  0  0  0  0  0  0  0  0  0  0  0
    6.6844  -12.2555   25.3646 C   0  0  0  0  0  0  0  0  0  0  0  0
    7.0013  -13.5501   26.0339 C   0  0  2  0  0  0  0  0  0  0  0  0
    7.6593  -13.1916   27.3812 C   0  0  0  0  0  0  0  0  0  0  0  0
    7.8745  -14.4798   25.2602 C   0  0  2  0  0  0  0  0  0  0  0  0
    7.3450  -14.7134   23.9246 N   0  0  0  0  0  0  0  0  0  0  0  0
    8.2339  -15.7349   25.9439 C   0  0  0  0  0  0  0  0  0  0  0  0
    7.3564  -16.5966   26.1898 O   0  0  0  0  0  0  0  0  0  0  0  0
    9.5596  -15.9750   26.3264 N   0  0  0  0  0  0  0  0  0  0  0  0
   10.0183  -17.2001   26.9712 C   0  0  1  0  0  0  0  0  0  0  0  0
   11.1596  -17.7414   26.1794 C   0  0  0  0  0  0  0  0  0  0  0  0
   11.8129  -18.9396   26.7787 C   0  0  0  0  0  0  0  0  0  0  0  0
   13.0197  -19.4108   26.0095 C   0  0  0  0  0  0  0  0  0  0  0  0
   13.6557  -20.6259   26.5937 C   0  0  0  0  0  0  0  0  0  0  0  0
   14.8797  -21.0076   25.9383 N   0  0  0  0  0  0  0  0  0  0  0  0
   10.3490  -16.8989   28.3810 C   0  0  0  0  0  0  0  0  0  0  0  0
   10.5507  -15.7128   28.7622 O   0  0  0  0  0  0  0  0  0  0  0  0
   10.4528  -17.8928   29.3440 O   0  0  0  0  0  0  0  0  0  0  0  0
  2  1  1  6
  2  3  1  0
  3  4  1  0
  5  6  1  0
  5  4  1  0
  7  6  1  0
  8  2  1  0
  9  8  2  0
 11 10  1  0
 12 11  1  0
 12 13  1  1
 12 14  1  0
 14 15  1  6
 15  8  1  0
 16 17  2  0
 16 14  1  0
 18 16  1  0
 19 18  1  0
 20 21  1  0
 19 20  1  6
 21 22  1  0
 23 22  1  0
 23 24  1  0
 25 19  1  0
 26 25  2  0
 27 25  1  0
M  END
$$$$
