KIK.pdb
     RDKit          3D

 27 26  0  0  1  0  0  0  0  0999 V2000
    9.3160  -15.8273   20.4990 N   0  0  0  0  0  0  0  0  0  0  0  0
    8.4891  -16.3106   21.5253 C   0  0  1  0  0  0  0  0  0  0  0  0
    8.3445  -17.7508   21.7650 C   0  0  0  0  0  0  0  0  0  0  0  0
    8.0231  -18.7124   20.7281 C   0  0  0  0  0  0  0  0  0  0  0  0
    7.7665  -18.4429   19.3288 C   0  0  0  0  0  0  0  0  0  0  0  0
    7.4552  -19.5012   18.3579 C   0  0  0  0  0  0  0  0  0  0  0  0
    7.2364  -18.8418   17.0168 N   0  0  0  0  0  0  0  0  0  0  0  0
    8.9811  -15.7075   22.8295 C   0  0  0  0  0  0  0  0  0  0  0  0
   10.1704  -15.8226   23.1944 O   0  0  0  0  0  0  0  0  0  0  0  0
    6.6929  -11.5629   26.9153 C   0  0  0  0  0  0  0  0  0  0  0  0
    7.7148  -12.5725   26.5227 C   0  0  0  0  0  0  0  0  0  0  0  0
    7.3984  -13.3650   25.2995 C   0  0  2  0  0  0  0  0  0  0  0  0
    6.0337  -14.0339   25.5576 C   0  0  0  0  0  0  0  0  0  0  0  0
    8.4134  -14.3875   24.9128 C   0  0  2  0  0  0  0  0  0  0  0  0
    8.0800  -15.0076   23.6388 N   0  0  0  0  0  0  0  0  0  0  0  0
    8.7417  -15.3839   25.9479 C   0  0  0  0  0  0  0  0  0  0  0  0
    7.9756  -16.3542   26.1593 O   0  0  0  0  0  0  0  0  0  0  0  0
    9.9122  -15.2543   26.7057 N   0  0  0  0  0  0  0  0  0  0  0  0
   10.4212  -16.2784   27.6108 C   0  0  1  0  0  0  0  0  0  0  0  0
   11.6626  -16.8489   27.0141 C   0  0  0  0  0  0  0  0  0  0  0  0
   12.2804  -17.9480   27.8090 C   0  0  0  0  0  0  0  0  0  0  0  0
   13.5209  -18.5213   27.1746 C   0  0  0  0  0  0  0  0  0  0  0  0
   14.1381  -19.6202   27.9704 C   0  0  0  0  0  0  0  0  0  0  0  0
   15.2329  -20.2727   27.3002 N   0  0  0  0  0  0  0  0  0  0  0  0
   10.6140  -15.6763   28.9479 C   0  0  0  0  0  0  0  0  0  0  0  0
   10.6108  -14.4238   29.1034 O   0  0  0  0  0  0  0  0  0  0  0  0
   10.8058  -16.4484   30.0850 O   0  0  0  0  0  0  0  0  0  0  0  0
  2  1  1  6
  2  3  1  0
  3  4  1  0
  5  6  1  0
  5  4  1  0
  7  6  1  0
  8  2  1  0
  9  8  2  0
 11 10  1  0
 12 11  1  0
 12 13  1  1
 12 14  1  0
 14 15  1  6
 15  8  1  0
 16 17  2  0
 16 14  1  0
 18 16  1  0
 19 18  1  0
 20 21  1  0
 19 20  1  6
 21 22  1  0
 23 22  1  0
 23 24  1  0
 25 19  1  0
 26 25  2  0
 27 25  1  0
M  END
$$$$
