KIK.pdb
     RDKit          3D

 27 26  0  0  1  0  0  0  0  0999 V2000
    8.0645  -13.1648   20.0490 N   0  0  0  0  0  0  0  0  0  0  0  0
    7.4211  -14.1471   20.8182 C   0  0  1  0  0  0  0  0  0  0  0  0
    7.3709  -15.5440   20.3725 C   0  0  0  0  0  0  0  0  0  0  0  0
    6.9654  -15.9515   19.0411 C   0  0  0  0  0  0  0  0  0  0  0  0
    6.6997  -17.2970   18.5769 C   0  0  0  0  0  0  0  0  0  0  0  0
    6.2626  -17.5947   17.2058 C   0  0  0  0  0  0  0  0  0  0  0  0
    6.0238  -19.0834   17.1147 N   0  0  0  0  0  0  0  0  0  0  0  0
    8.0795  -14.1584   22.1868 C   0  0  0  0  0  0  0  0  0  0  0  0
    9.3223  -14.1720   22.3133 O   0  0  0  0  0  0  0  0  0  0  0  0
    5.6608  -11.3549   26.1812 C   0  0  0  0  0  0  0  0  0  0  0  0
    6.6527  -12.0561   25.3198 C   0  0  0  0  0  0  0  0  0  0  0  0
    6.8773  -13.4955   25.6391 C   0  0  2  0  0  0  0  0  0  0  0  0
    7.4545  -13.5375   27.0679 C   0  0  0  0  0  0  0  0  0  0  0  0
    7.7676  -14.2341   24.6971 C   0  0  2  0  0  0  0  0  0  0  0  0
    7.2737  -14.1533   23.3302 N   0  0  0  0  0  0  0  0  0  0  0  0
    8.1034  -15.6151   25.0870 C   0  0  0  0  0  0  0  0  0  0  0  0
    7.2059  -16.4879   25.1645 O   0  0  0  0  0  0  0  0  0  0  0  0
    9.4286  -15.9640   25.3759 N   0  0  0  0  0  0  0  0  0  0  0  0
    9.8581  -17.3020   25.7664 C   0  0  1  0  0  0  0  0  0  0  0  0
   11.0466  -17.6659   24.9432 C   0  0  0  0  0  0  0  0  0  0  0  0
   11.7252  -18.9250   25.3626 C   0  0  0  0  0  0  0  0  0  0  0  0
   12.9532  -19.2425   24.5493 C   0  0  0  0  0  0  0  0  0  0  0  0
   13.6308  -20.5022   24.9690 C   0  0  0  0  0  0  0  0  0  0  0  0
   14.8017  -20.8139   24.1908 N   0  0  0  0  0  0  0  0  0  0  0  0
   10.1055  -17.3140   27.2246 C   0  0  0  0  0  0  0  0  0  0  0  0
   10.0746  -18.3919   27.8802 O   0  0  0  0  0  0  0  0  0  0  0  0
   10.3807  -16.1551   27.9367 O   0  0  0  0  0  0  0  0  0  0  0  0
  2  1  1  6
  2  3  1  0
  3  4  1  0
  5  6  1  0
  5  4  1  0
  7  6  1  0
  8  2  1  0
  9  8  2  0
 11 10  1  0
 12 11  1  0
 12 13  1  1
 12 14  1  0
 14 15  1  6
 15  8  1  0
 16 17  2  0
 16 14  1  0
 18 16  1  0
 19 18  1  0
 20 21  1  0
 19 20  1  6
 21 22  1  0
 23 22  1  0
 23 24  1  0
 25 19  1  0
 26 25  2  0
 27 25  1  0
M  END
$$$$
