KIK.pdb
     RDKit          3D

 27 26  0  0  1  0  0  0  0  0999 V2000
    6.9749  -14.8724   20.9534 N   0  0  0  0  0  0  0  0  0  0  0  0
    8.3729  -14.7466   20.9662 C   0  0  1  0  0  0  0  0  0  0  0  0
    9.0455  -13.7027   20.1848 C   0  0  0  0  0  0  0  0  0  0  0  0
    9.1794  -13.7364   18.7412 C   0  0  0  0  0  0  0  0  0  0  0  0
    8.1153  -13.7195   17.7594 C   0  0  0  0  0  0  0  0  0  0  0  0
    8.3621  -13.8340   16.3153 C   0  0  0  0  0  0  0  0  0  0  0  0
    7.0200  -13.8984   15.6254 N   0  0  0  0  0  0  0  0  0  0  0  0
    8.7993  -14.5418   22.4094 C   0  0  0  0  0  0  0  0  0  0  0  0
    9.9736  -14.2352   22.7061 O   0  0  0  0  0  0  0  0  0  0  0  0
    5.7689  -11.6494   25.5701 C   0  0  0  0  0  0  0  0  0  0  0  0
    6.8981  -12.4175   24.9764 C   0  0  0  0  0  0  0  0  0  0  0  0
    7.1299  -13.7716   25.5571 C   0  0  2  0  0  0  0  0  0  0  0  0
    7.5461  -13.5483   27.0245 C   0  0  0  0  0  0  0  0  0  0  0  0
    8.1412  -14.6115   24.8521 C   0  0  2  0  0  0  0  0  0  0  0  0
    7.8538  -14.7008   23.4280 N   0  0  0  0  0  0  0  0  0  0  0  0
    8.4028  -15.9324   25.4512 C   0  0  0  0  0  0  0  0  0  0  0  0
    7.4644  -16.7458   25.6267 O   0  0  0  0  0  0  0  0  0  0  0  0
    9.7026  -16.2897   25.8310 N   0  0  0  0  0  0  0  0  0  0  0  0
   10.0576  -17.5668   26.4392 C   0  0  1  0  0  0  0  0  0  0  0  0
   11.3049  -18.0595   25.7880 C   0  0  0  0  0  0  0  0  0  0  0  0
   11.0791  -19.0138   24.6655 C   0  0  0  0  0  0  0  0  0  0  0  0
   12.3553  -19.5318   24.0546 C   0  0  0  0  0  0  0  0  0  0  0  0
   12.1309  -20.3960   22.8608 C   0  0  0  0  0  0  0  0  0  0  0  0
   13.3456  -20.7729   22.1855 N   0  0  0  0  0  0  0  0  0  0  0  0
   10.1721  -17.3799   27.9020 C   0  0  0  0  0  0  0  0  0  0  0  0
   10.3321  -16.2313   28.3999 O   0  0  0  0  0  0  0  0  0  0  0  0
   10.1100  -18.4447   28.7898 O   0  0  0  0  0  0  0  0  0  0  0  0
  2  1  1  1
  2  3  1  0
  3  4  1  0
  5  6  1  0
  5  4  1  0
  7  6  1  0
  8  2  1  0
  9  8  2  0
 11 10  1  0
 12 11  1  0
 12 13  1  1
 12 14  1  0
 14 15  1  6
 15  8  1  0
 16 17  2  0
 16 14  1  0
 18 16  1  0
 19 18  1  0
 20 21  1  0
 19 20  1  6
 21 22  1  0
 23 22  1  0
 23 24  1  0
 25 19  1  0
 26 25  2  0
 27 25  1  0
M  END
$$$$
