APM.pdb
     RDKit          3D

 21 21  0  0  1  0  0  0  0  0999 V2000
   10.3950  -13.4797   18.9225 C   0  0  0  0  0  0  0  0  0  0  0  0
    8.8826  -13.5700   18.9697 C   0  0  2  0  0  0  0  0  0  0  0  0
    8.3203  -12.3066   18.6315 N   0  0  0  0  0  0  0  0  0  0  0  0
    8.3869  -14.2182   20.1732 C   0  0  0  0  0  0  0  0  0  0  0  0
    8.2386  -13.4519   21.1891 O   0  0  0  0  0  0  0  0  0  0  0  0
    8.0507  -15.5820   20.3606 N   0  0  0  0  0  0  0  0  0  0  0  0
    8.2056  -16.5847   19.3263 C   0  0  0  0  0  0  0  0  0  0  0  0
    7.1364  -17.6144   19.7340 C   0  0  0  0  0  0  0  0  0  0  0  0
    7.2893  -17.6257   21.2124 C   0  0  0  0  0  0  0  0  0  0  0  0
    7.5261  -16.1832   21.5706 C   0  0  1  0  0  0  0  0  0  0  0  0
    8.4741  -16.1250   22.6944 C   0  0  0  0  0  0  0  0  0  0  0  0
    9.7043  -16.2429   22.4700 O   0  0  0  0  0  0  0  0  0  0  0  0
   10.4304  -13.3733   29.7739 C   0  0  0  0  0  0  0  0  0  0  0  0
    9.0640  -13.5590   28.5656 S   0  0  0  0  0  0  0  0  0  0  0  0
    9.5613  -14.8208   27.3689 C   0  0  0  0  0  0  0  0  0  0  0  0
    8.5556  -14.9605   26.2493 C   0  0  0  0  0  0  0  0  0  0  0  0
    9.0931  -15.7975   25.1113 C   0  0  2  0  0  0  0  0  0  0  0  0
    8.0972  -15.9403   24.0504 N   0  0  0  0  0  0  0  0  0  0  0  0
    9.4250  -17.1436   25.6335 C   0  0  0  0  0  0  0  0  0  0  0  0
    8.6025  -18.2390   25.3695 O   0  0  0  0  0  0  0  0  0  0  0  0
   10.4570  -17.3041   26.3215 O   0  0  0  0  0  0  0  0  0  0  0  0
  2  1  1  1
  3  2  1  0
  4  5  2  0
  4  2  1  0
  6  4  1  0
  7  6  1  0
  8  7  1  0
  9  8  1  0
  9 10  1  0
 10 11  1  1
 10  6  1  0
 11 18  1  0
 12 11  2  0
 13 14  1  0
 15 14  1  0
 16 15  1  0
 17 16  1  1
 18 17  1  0
 19 20  1  0
 19 17  1  0
 21 19  2  0
M  END
$$$$
