APM.pdb
     RDKit          3D

 21 21  0  0  1  0  0  0  0  0999 V2000
    4.8283  -17.7133   23.0965 C   0  0  0  0  0  0  0  0  0  0  0  0
    5.8610  -18.1650   22.0831 C   0  0  2  0  0  0  0  0  0  0  0  0
    5.8982  -19.5877   22.0444 N   0  0  0  0  0  0  0  0  0  0  0  0
    7.1313  -17.4697   22.2140 C   0  0  0  0  0  0  0  0  0  0  0  0
    7.9291  -17.9436   23.0973 O   0  0  0  0  0  0  0  0  0  0  0  0
    7.5925  -16.3411   21.4918 N   0  0  0  0  0  0  0  0  0  0  0  0
    6.8113  -15.6873   20.4616 C   0  0  0  0  0  0  0  0  0  0  0  0
    7.9151  -15.0691   19.5846 C   0  0  0  0  0  0  0  0  0  0  0  0
    8.8722  -14.5874   20.6147 C   0  0  0  0  0  0  0  0  0  0  0  0
    8.8664  -15.6703   21.6599 C   0  0  1  0  0  0  0  0  0  0  0  0
    9.0135  -15.0484   22.9852 C   0  0  0  0  0  0  0  0  0  0  0  0
    8.8276  -13.8125   23.1105 O   0  0  0  0  0  0  0  0  0  0  0  0
    6.0800  -12.0760   25.8773 C   0  0  0  0  0  0  0  0  0  0  0  0
    6.5996  -12.8289   27.4662 S   0  0  0  0  0  0  0  0  0  0  0  0
    8.1101  -13.7737   27.1544 C   0  0  0  0  0  0  0  0  0  0  0  0
    8.0905  -14.4315   25.7938 C   0  0  0  0  0  0  0  0  0  0  0  0
    9.4101  -15.0935   25.4698 C   0  0  2  0  0  0  0  0  0  0  0  0
    9.3580  -15.7553   24.1670 N   0  0  0  0  0  0  0  0  0  0  0  0
    9.6925  -16.1123   26.5075 C   0  0  0  0  0  0  0  0  0  0  0  0
   10.2123  -15.7473   27.7496 O   0  0  0  0  0  0  0  0  0  0  0  0
    9.4629  -17.3185   26.2701 O   0  0  0  0  0  0  0  0  0  0  0  0
  2  1  1  1
  3  2  1  0
  4  5  2  0
  4  2  1  0
  6  4  1  0
  7  6  1  0
  8  7  1  0
  9  8  1  0
  9 10  1  0
 10 11  1  1
 10  6  1  0
 11 18  1  0
 12 11  2  0
 13 14  1  0
 15 14  1  0
 16 15  1  0
 17 16  1  1
 18 17  1  0
 19 20  1  0
 19 17  1  0
 21 19  2  0
M  END
$$$$
