APM.pdb
     RDKit          3D

 21 21  0  0  1  0  0  0  0  0999 V2000
    9.4466  -18.4205   19.2926 C   0  0  0  0  0  0  0  0  0  0  0  0
   10.1647  -17.0876   19.2204 C   0  0  2  0  0  0  0  0  0  0  0  0
   11.5447  -17.3055   18.9468 N   0  0  0  0  0  0  0  0  0  0  0  0
    9.8374  -16.2025   20.3267 C   0  0  0  0  0  0  0  0  0  0  0  0
   10.6833  -16.1890   21.2888 O   0  0  0  0  0  0  0  0  0  0  0  0
    8.7074  -15.3599   20.4718 N   0  0  0  0  0  0  0  0  0  0  0  0
    7.6848  -15.2250   19.4543 C   0  0  0  0  0  0  0  0  0  0  0  0
    7.1472  -13.8119   19.7443 C   0  0  0  0  0  0  0  0  0  0  0  0
    7.1305  -13.8042   21.2305 C   0  0  0  0  0  0  0  0  0  0  0  0
    8.3897  -14.5318   21.6182 C   0  0  1  0  0  0  0  0  0  0  0  0
    8.1261  -15.3172   22.8342 C   0  0  0  0  0  0  0  0  0  0  0  0
    7.8895  -16.5467   22.7349 O   0  0  0  0  0  0  0  0  0  0  0  0
    7.2709  -11.3036   27.3495 C   0  0  0  0  0  0  0  0  0  0  0  0
    6.6165  -12.4824   26.1071 S   0  0  0  0  0  0  0  0  0  0  0  0
    6.6723  -14.1349   26.8403 C   0  0  0  0  0  0  0  0  0  0  0  0
    8.0004  -14.8135   26.5954 C   0  0  0  0  0  0  0  0  0  0  0  0
    7.9873  -15.6348   25.3266 C   0  0  2  0  0  0  0  0  0  0  0  0
    8.1188  -14.7796   24.1480 N   0  0  0  0  0  0  0  0  0  0  0  0
    6.6957  -16.3560   25.2465 C   0  0  0  0  0  0  0  0  0  0  0  0
    6.4229  -17.4357   26.0867 O   0  0  0  0  0  0  0  0  0  0  0  0
    5.8348  -15.9944   24.4146 O   0  0  0  0  0  0  0  0  0  0  0  0
  2  1  1  1
  3  2  1  0
  4  5  2  0
  4  2  1  0
  6  4  1  0
  7  6  1  0
  8  7  1  0
  9  8  1  0
  9 10  1  0
 10 11  1  1
 10  6  1  0
 11 18  1  0
 12 11  2  0
 13 14  1  0
 15 14  1  0
 16 15  1  0
 17 16  1  1
 18 17  1  0
 19 20  1  0
 19 17  1  0
 21 19  2  0
M  END
$$$$
