APM.pdb
     RDKit          3D

 21 21  0  0  1  0  0  0  0  0999 V2000
    9.2929  -18.5899   19.3657 C   0  0  0  0  0  0  0  0  0  0  0  0
    9.6668  -17.1286   19.2152 C   0  0  2  0  0  0  0  0  0  0  0  0
   10.7912  -17.0125   18.3497 N   0  0  0  0  0  0  0  0  0  0  0  0
    9.7282  -16.4217   20.4843 C   0  0  0  0  0  0  0  0  0  0  0  0
   10.9048  -16.2484   20.9607 O   0  0  0  0  0  0  0  0  0  0  0  0
    8.6564  -15.9051   21.2540 N   0  0  0  0  0  0  0  0  0  0  0  0
    7.2731  -15.9693   20.8280 C   0  0  0  0  0  0  0  0  0  0  0  0
    6.6680  -14.7610   21.5653 C   0  0  0  0  0  0  0  0  0  0  0  0
    7.3460  -14.8535   22.8848 C   0  0  0  0  0  0  0  0  0  0  0  0
    8.7555  -15.2606   22.5484 C   0  0  1  0  0  0  0  0  0  0  0  0
    9.2498  -16.1637   23.5995 C   0  0  0  0  0  0  0  0  0  0  0  0
    9.0424  -17.3985   23.4992 O   0  0  0  0  0  0  0  0  0  0  0  0
    9.7979  -12.9892   29.6830 C   0  0  0  0  0  0  0  0  0  0  0  0
   11.0476  -14.0510   28.8631 S   0  0  0  0  0  0  0  0  0  0  0  0
   10.1794  -15.0876   27.6618 C   0  0  0  0  0  0  0  0  0  0  0  0
   11.1319  -15.9728   26.8914 C   0  0  0  0  0  0  0  0  0  0  0  0
   10.4400  -16.6881   25.7538 C   0  0  2  0  0  0  0  0  0  0  0  0
    9.9635  -15.7375   24.7502 N   0  0  0  0  0  0  0  0  0  0  0  0
    9.2757  -17.4238   26.2996 C   0  0  0  0  0  0  0  0  0  0  0  0
    7.9761  -16.9538   26.1097 O   0  0  0  0  0  0  0  0  0  0  0  0
    9.4569  -18.4822   26.9406 O   0  0  0  0  0  0  0  0  0  0  0  0
  2  1  1  1
  3  2  1  0
  4  5  2  0
  4  2  1  0
  6  4  1  0
  7  6  1  0
  8  7  1  0
  9  8  1  0
  9 10  1  0
 10 11  1  1
 10  6  1  0
 11 18  1  0
 12 11  2  0
 13 14  1  0
 15 14  1  0
 16 15  1  0
 17 16  1  1
 18 17  1  0
 19 20  1  0
 19 17  1  0
 21 19  2  0
M  END
$$$$
