APM.pdb
     RDKit          3D

 21 21  0  0  1  0  0  0  0  0999 V2000
    6.1732  -18.7290   22.1684 C   0  0  0  0  0  0  0  0  0  0  0  0
    6.8904  -18.3516   20.8875 C   0  0  2  0  0  0  0  0  0  0  0  0
    7.2488  -19.5326   20.1779 N   0  0  0  0  0  0  0  0  0  0  0  0
    7.9296  -17.3546   21.0878 C   0  0  0  0  0  0  0  0  0  0  0  0
    9.0926  -17.8192   21.3581 O   0  0  0  0  0  0  0  0  0  0  0  0
    7.8165  -15.9436   21.0222 N   0  0  0  0  0  0  0  0  0  0  0  0
    6.5924  -15.2642   20.6497 C   0  0  0  0  0  0  0  0  0  0  0  0
    7.1363  -13.9430   20.0765 C   0  0  0  0  0  0  0  0  0  0  0  0
    8.2345  -13.6398   21.0311 C   0  0  0  0  0  0  0  0  0  0  0  0
    8.8590  -14.9797   21.3139 C   0  0  1  0  0  0  0  0  0  0  0  0
    9.2896  -15.0127   22.7205 C   0  0  0  0  0  0  0  0  0  0  0  0
   10.2998  -14.3539   23.0716 O   0  0  0  0  0  0  0  0  0  0  0  0
    6.1935  -11.0455   27.0503 C   0  0  0  0  0  0  0  0  0  0  0  0
    5.9722  -12.8172   26.6337 S   0  0  0  0  0  0  0  0  0  0  0  0
    7.5814  -13.4616   26.1171 C   0  0  0  0  0  0  0  0  0  0  0  0
    7.5100  -14.9276   25.7566 C   0  0  0  0  0  0  0  0  0  0  0  0
    8.8053  -15.4230   25.1555 C   0  0  2  0  0  0  0  0  0  0  0  0
    8.6345  -15.7506   23.7408 N   0  0  0  0  0  0  0  0  0  0  0  0
    9.2213  -16.6474   25.8783 C   0  0  0  0  0  0  0  0  0  0  0  0
    9.2959  -17.8771   25.2239 O   0  0  0  0  0  0  0  0  0  0  0  0
    9.5106  -16.5814   27.0932 O   0  0  0  0  0  0  0  0  0  0  0  0
  2  1  1  1
  3  2  1  0
  4  5  2  0
  4  2  1  0
  6  4  1  0
  7  6  1  0
  8  7  1  0
  9  8  1  0
  9 10  1  0
 10 11  1  1
 10  6  1  0
 11 18  1  0
 12 11  2  0
 13 14  1  0
 15 14  1  0
 16 15  1  0
 17 16  1  1
 18 17  1  0
 19 20  1  0
 19 17  1  0
 21 19  2  0
M  END
$$$$
