APM.pdb
     RDKit          3D

 21 21  0  0  1  0  0  0  0  0999 V2000
 -266.0872  294.5125   59.3328 C   0  0  0  0  0  0  0  0  0  0  0  0
 -266.5716  293.2773   58.5998 C   0  0  2  0  0  0  0  0  0  0  0  0
 -267.7899  293.5725   57.9251 N   0  0  0  0  0  0  0  0  0  0  0  0
 -266.5392  292.0773   59.4203 C   0  0  0  0  0  0  0  0  0  0  0  0
 -265.6859  291.1906   59.0642 O   0  0  0  0  0  0  0  0  0  0  0  0
 -267.3287  291.7691   60.5559 N   0  0  0  0  0  0  0  0  0  0  0  0
 -267.4666  292.6605   61.6896 C   0  0  0  0  0  0  0  0  0  0  0  0
 -267.7772  291.6682   62.8249 C   0  0  0  0  0  0  0  0  0  0  0  0
 -268.6947  290.7193   62.1416 C   0  0  0  0  0  0  0  0  0  0  0  0
 -268.1081  290.5648   60.7641 C   0  0  1  0  0  0  0  0  0  0  0  0
 -269.2069  290.4214   59.7961 C   0  0  0  0  0  0  0  0  0  0  0  0
 -269.2159  289.4380   59.0149 O   0  0  0  0  0  0  0  0  0  0  0  0
 -273.3825  289.5225   64.2470 C   0  0  0  0  0  0  0  0  0  0  0  0
 -272.0747  290.7840   64.4905 S   0  0  0  0  0  0  0  0  0  0  0  0
 -271.9743  291.7659   62.9748 C   0  0  0  0  0  0  0  0  0  0  0  0
 -270.8972  291.2556   62.0454 C   0  0  0  0  0  0  0  0  0  0  0  0
 -270.7647  292.1173   60.8107 C   0  0  2  0  0  0  0  0  0  0  0  0
 -270.2886  291.3325   59.6728 N   0  0  0  0  0  0  0  0  0  0  0  0
 -269.7825  293.1907   61.0895 C   0  0  0  0  0  0  0  0  0  0  0  0
 -269.8815  294.4344   60.4651 O   0  0  0  0  0  0  0  0  0  0  0  0
 -268.8495  292.9828   61.8960 O   0  0  0  0  0  0  0  0  0  0  0  0
  2  1  1  1
  3  2  1  0
  4  5  2  0
  4  2  1  0
  6  4  1  0
  7  6  1  0
  8  7  1  0
  9  8  1  0
  9 10  1  0
 10 11  1  6
 10  6  1  0
 11 18  1  0
 12 11  2  0
 13 14  1  0
 15 14  1  0
 16 15  1  0
 17 16  1  1
 18 17  1  0
 19 20  1  0
 19 17  1  0
 21 19  2  0
M  END
$$$$
