APM.pdb
     RDKit          3D

 21 21  0  0  1  0  0  0  0  0999 V2000
    6.3142  -18.2340   19.8853 C   0  0  0  0  0  0  0  0  0  0  0  0
    7.4580  -17.5550   19.1583 C   0  0  2  0  0  0  0  0  0  0  0  0
    8.2575  -18.5373   18.5081 N   0  0  0  0  0  0  0  0  0  0  0  0
    8.1482  -16.5695   19.9748 C   0  0  0  0  0  0  0  0  0  0  0  0
    9.0387  -17.0385   20.7674 O   0  0  0  0  0  0  0  0  0  0  0  0
    7.9589  -15.1654   20.0029 N   0  0  0  0  0  0  0  0  0  0  0  0
    7.0618  -14.4695   19.1030 C   0  0  0  0  0  0  0  0  0  0  0  0
    7.7036  -13.0714   19.0494 C   0  0  0  0  0  0  0  0  0  0  0  0
    8.0970  -12.8750   20.4692 C   0  0  0  0  0  0  0  0  0  0  0  0
    8.5960  -14.2265   20.9048 C   0  0  1  0  0  0  0  0  0  0  0  0
    8.2177  -14.4391   22.3107 C   0  0  0  0  0  0  0  0  0  0  0  0
    7.0584  -14.8381   22.5837 O   0  0  0  0  0  0  0  0  0  0  0  0
    7.0388  -11.4756   27.8007 C   0  0  0  0  0  0  0  0  0  0  0  0
    5.9309  -12.2367   26.5539 S   0  0  0  0  0  0  0  0  0  0  0  0
    6.5490  -13.9034   26.2196 C   0  0  0  0  0  0  0  0  0  0  0  0
    7.0797  -14.0336   24.8104 C   0  0  0  0  0  0  0  0  0  0  0  0
    8.5837  -14.1818   24.7870 C   0  0  2  0  0  0  0  0  0  0  0  0
    9.0844  -14.2234   23.4140 N   0  0  0  0  0  0  0  0  0  0  0  0
    8.9417  -15.4520   25.4603 C   0  0  0  0  0  0  0  0  0  0  0  0
    8.9459  -15.5507   26.8518 O   0  0  0  0  0  0  0  0  0  0  0  0
    9.2452  -16.4526   24.7742 O   0  0  0  0  0  0  0  0  0  0  0  0
  2  1  1  1
  3  2  1  0
  4  5  2  0
  4  2  1  0
  6  4  1  0
  7  6  1  0
  8  7  1  0
  9  8  1  0
  9 10  1  0
 10 11  1  1
 10  6  1  0
 11 18  1  0
 12 11  2  0
 13 14  1  0
 15 14  1  0
 16 15  1  0
 17 16  1  6
 18 17  1  0
 19 20  1  0
 19 17  1  0
 21 19  2  0
M  END
$$$$
