APM.pdb
     RDKit          3D

 21 21  0  0  1  0  0  0  0  0999 V2000
    6.1631  -19.6138   21.7145 C   0  0  0  0  0  0  0  0  0  0  0  0
    6.8931  -18.9366   22.8573 C   0  0  2  0  0  0  0  0  0  0  0  0
    5.9488  -18.4774   23.8187 N   0  0  0  0  0  0  0  0  0  0  0  0
    7.9005  -17.9888   22.4089 C   0  0  0  0  0  0  0  0  0  0  0  0
    8.9826  -18.5076   21.9602 O   0  0  0  0  0  0  0  0  0  0  0  0
    7.8348  -16.5732   22.4074 N   0  0  0  0  0  0  0  0  0  0  0  0
    6.6569  -15.8352   22.8157 C   0  0  0  0  0  0  0  0  0  0  0  0
    6.8214  -14.5284   22.0188 C   0  0  0  0  0  0  0  0  0  0  0  0
    8.2830  -14.2900   22.1456 C   0  0  0  0  0  0  0  0  0  0  0  0
    8.8930  -15.6605   22.0228 C   0  0  1  0  0  0  0  0  0  0  0  0
   10.0640  -15.7375   22.9104 C   0  0  0  0  0  0  0  0  0  0  0  0
   11.1195  -15.1357   22.5922 O   0  0  0  0  0  0  0  0  0  0  0  0
    8.8547  -14.2409   29.6282 C   0  0  0  0  0  0  0  0  0  0  0  0
   10.2323  -14.0634   28.4316 S   0  0  0  0  0  0  0  0  0  0  0  0
    9.8736  -15.1395   27.0227 C   0  0  0  0  0  0  0  0  0  0  0  0
   10.8568  -14.9332   25.8936 C   0  0  0  0  0  0  0  0  0  0  0  0
   11.1265  -16.2158   25.1408 C   0  0  2  0  0  0  0  0  0  0  0  0
   10.0952  -16.4582   24.1330 N   0  0  0  0  0  0  0  0  0  0  0  0
   11.1176  -17.3389   26.1069 C   0  0  0  0  0  0  0  0  0  0  0  0
   10.1117  -18.3049   26.0758 O   0  0  0  0  0  0  0  0  0  0  0  0
   12.0238  -17.4255   26.9644 O   0  0  0  0  0  0  0  0  0  0  0  0
  2  1  1  6
  3  2  1  0
  4  5  2  0
  4  2  1  0
  6  4  1  0
  7  6  1  0
  8  7  1  0
  9  8  1  0
  9 10  1  0
 10 11  1  1
 10  6  1  0
 11 18  1  0
 12 11  2  0
 13 14  1  0
 15 14  1  0
 16 15  1  0
 17 16  1  1
 18 17  1  0
 19 20  1  0
 19 17  1  0
 21 19  2  0
M  END
$$$$
