APM.pdb
     RDKit          3D

 21 21  0  0  1  0  0  0  0  0999 V2000
   10.5092  -13.4327   19.0085 C   0  0  0  0  0  0  0  0  0  0  0  0
    9.0493  -13.7571   18.7615 C   0  0  2  0  0  0  0  0  0  0  0  0
    8.3885  -12.6080   18.2421 N   0  0  0  0  0  0  0  0  0  0  0  0
    8.4187  -14.4380   19.8808 C   0  0  0  0  0  0  0  0  0  0  0  0
    7.7855  -13.6818   20.6984 O   0  0  0  0  0  0  0  0  0  0  0  0
    8.4182  -15.8236   20.1776 N   0  0  0  0  0  0  0  0  0  0  0  0
    9.1404  -16.8021   19.3901 C   0  0  0  0  0  0  0  0  0  0  0  0
    8.3134  -18.0747   19.6474 C   0  0  0  0  0  0  0  0  0  0  0  0
    8.0089  -17.9383   21.0958 C   0  0  0  0  0  0  0  0  0  0  0  0
    7.7324  -16.4702   21.2788 C   0  0  1  0  0  0  0  0  0  0  0  0
    8.2443  -16.0534   22.5937 C   0  0  0  0  0  0  0  0  0  0  0  0
    9.4747  -15.8473   22.7394 O   0  0  0  0  0  0  0  0  0  0  0  0
    6.6708  -11.0804   28.3828 C   0  0  0  0  0  0  0  0  0  0  0  0
    5.9825  -12.0745   27.0046 S   0  0  0  0  0  0  0  0  0  0  0  0
    7.2369  -13.2867   26.5264 C   0  0  0  0  0  0  0  0  0  0  0  0
    6.8100  -14.0906   25.3199 C   0  0  0  0  0  0  0  0  0  0  0  0
    7.8875  -15.0527   24.8749 C   0  0  2  0  0  0  0  0  0  0  0  0
    7.4340  -15.8597   23.7431 N   0  0  0  0  0  0  0  0  0  0  0  0
    8.2059  -15.9574   26.0040 C   0  0  0  0  0  0  0  0  0  0  0  0
    9.2155  -15.6425   26.9137 O   0  0  0  0  0  0  0  0  0  0  0  0
    7.5620  -17.0200   26.1470 O   0  0  0  0  0  0  0  0  0  0  0  0
  2  1  1  1
  3  2  1  0
  4  5  2  0
  4  2  1  0
  6  4  1  0
  7  6  1  0
  8  7  1  0
  9  8  1  0
  9 10  1  0
 10 11  1  1
 10  6  1  0
 11 18  1  0
 12 11  2  0
 13 14  1  0
 15 14  1  0
 16 15  1  0
 17 16  1  1
 18 17  1  0
 19 20  1  0
 19 17  1  0
 21 19  2  0
M  END
$$$$
