APM.pdb
     RDKit          3D

 21 21  0  0  1  0  0  0  0  0999 V2000
    7.3927  -18.1923   19.0222 C   0  0  0  0  0  0  0  0  0  0  0  0
    8.4223  -17.2042   18.5111 C   0  0  2  0  0  0  0  0  0  0  0  0
    9.4556  -17.9056   17.8275 N   0  0  0  0  0  0  0  0  0  0  0  0
    8.8284  -16.2331   19.5141 C   0  0  0  0  0  0  0  0  0  0  0  0
    9.8248  -16.5780   20.2417 O   0  0  0  0  0  0  0  0  0  0  0  0
    8.2626  -14.9625   19.7852 N   0  0  0  0  0  0  0  0  0  0  0  0
    7.1524  -14.4137   19.0332 C   0  0  0  0  0  0  0  0  0  0  0  0
    7.3802  -12.9013   19.2084 C   0  0  0  0  0  0  0  0  0  0  0  0
    7.7954  -12.8308   20.6338 C   0  0  0  0  0  0  0  0  0  0  0  0
    8.6739  -14.0382   20.8232 C   0  0  1  0  0  0  0  0  0  0  0  0
    8.4603  -14.5699   22.1784 C   0  0  0  0  0  0  0  0  0  0  0  0
    7.4792  -15.3228   22.3978 O   0  0  0  0  0  0  0  0  0  0  0  0
    6.5524  -11.4354   28.1371 C   0  0  0  0  0  0  0  0  0  0  0  0
    6.0982  -11.9457   26.4358 S   0  0  0  0  0  0  0  0  0  0  0  0
    6.8826  -13.5442   26.1177 C   0  0  0  0  0  0  0  0  0  0  0  0
    7.4081  -13.6406   24.7039 C   0  0  0  0  0  0  0  0  0  0  0  0
    8.7822  -14.2685   24.6559 C   0  0  2  0  0  0  0  0  0  0  0  0
    9.2999  -14.2916   23.2886 N   0  0  0  0  0  0  0  0  0  0  0  0
    8.6798  -15.6624   25.1470 C   0  0  0  0  0  0  0  0  0  0  0  0
    9.0241  -16.7389   24.3294 O   0  0  0  0  0  0  0  0  0  0  0  0
    8.2791  -15.8810   26.3114 O   0  0  0  0  0  0  0  0  0  0  0  0
  2  1  1  1
  3  2  1  0
  4  5  2  0
  4  2  1  0
  6  4  1  0
  7  6  1  0
  8  7  1  0
  9  8  1  0
  9 10  1  0
 10 11  1  1
 10  6  1  0
 11 18  1  0
 12 11  2  0
 13 14  1  0
 15 14  1  0
 16 15  1  0
 17 16  1  6
 18 17  1  0
 19 20  1  0
 19 17  1  0
 21 19  2  0
M  END
$$$$
