APM.pdb
     RDKit          3D

 21 21  0  0  1  0  0  0  0  0999 V2000
   10.0892  -13.1744   19.1474 C   0  0  0  0  0  0  0  0  0  0  0  0
    8.5959  -13.4296   19.0964 C   0  0  2  0  0  0  0  0  0  0  0  0
    7.9233  -12.2379   18.7039 N   0  0  0  0  0  0  0  0  0  0  0  0
    8.0944  -14.1196   20.2740 C   0  0  0  0  0  0  0  0  0  0  0  0
    7.6559  -13.3624   21.2098 O   0  0  0  0  0  0  0  0  0  0  0  0
    8.0316  -15.5148   20.5134 N   0  0  0  0  0  0  0  0  0  0  0  0
    8.4506  -16.5043   19.5416 C   0  0  0  0  0  0  0  0  0  0  0  0
    7.5900  -17.7152   19.9452 C   0  0  0  0  0  0  0  0  0  0  0  0
    7.6504  -17.6363   21.4282 C   0  0  0  0  0  0  0  0  0  0  0  0
    7.5665  -16.1628   21.7236 C   0  0  1  0  0  0  0  0  0  0  0  0
    8.4116  -15.8662   22.8910 C   0  0  0  0  0  0  0  0  0  0  0  0
    9.6581  -15.8038   22.7498 O   0  0  0  0  0  0  0  0  0  0  0  0
    6.1095  -10.7754   26.1207 C   0  0  0  0  0  0  0  0  0  0  0  0
    6.2033  -12.5637   26.5138 S   0  0  0  0  0  0  0  0  0  0  0  0
    7.8665  -13.1304   26.0847 C   0  0  0  0  0  0  0  0  0  0  0  0
    8.0638  -14.5925   26.4125 C   0  0  0  0  0  0  0  0  0  0  0  0
    8.8067  -15.3199   25.3154 C   0  0  2  0  0  0  0  0  0  0  0  0
    7.9151  -15.6380   24.2011 N   0  0  0  0  0  0  0  0  0  0  0  0
    9.3426  -16.5852   25.8691 C   0  0  0  0  0  0  0  0  0  0  0  0
    8.8139  -17.8177   25.4854 O   0  0  0  0  0  0  0  0  0  0  0  0
   10.2829  -16.5517   26.6930 O   0  0  0  0  0  0  0  0  0  0  0  0
  2  1  1  1
  3  2  1  0
  4  5  2  0
  4  2  1  0
  6  4  1  0
  7  6  1  0
  8  7  1  0
  9  8  1  0
  9 10  1  0
 10 11  1  1
 10  6  1  0
 11 18  1  0
 12 11  2  0
 13 14  1  0
 15 14  1  0
 16 15  1  0
 17 16  1  1
 18 17  1  0
 19 20  1  0
 19 17  1  0
 21 19  2  0
M  END
$$$$
