APM.pdb
     RDKit          3D

 21 21  0  0  1  0  0  0  0  0999 V2000
    5.9320  -18.0998   21.3561 C   0  0  0  0  0  0  0  0  0  0  0  0
    6.9019  -17.6382   20.2866 C   0  0  2  0  0  0  0  0  0  0  0  0
    7.4867  -18.7717   19.6541 N   0  0  0  0  0  0  0  0  0  0  0  0
    7.8034  -16.5939   20.7460 C   0  0  0  0  0  0  0  0  0  0  0  0
    8.8860  -17.0042   21.2947 O   0  0  0  0  0  0  0  0  0  0  0  0
    7.6341  -15.1894   20.6634 N   0  0  0  0  0  0  0  0  0  0  0  0
    6.4481  -14.5662   20.1121 C   0  0  0  0  0  0  0  0  0  0  0  0
    7.0076  -13.2171   19.6255 C   0  0  0  0  0  0  0  0  0  0  0  0
    7.9358  -12.8685   20.7328 C   0  0  0  0  0  0  0  0  0  0  0  0
    8.5744  -14.1792   21.1064 C   0  0  1  0  0  0  0  0  0  0  0  0
    8.7920  -14.2008   22.5614 C   0  0  0  0  0  0  0  0  0  0  0  0
    8.6349  -13.1454   23.2241 O   0  0  0  0  0  0  0  0  0  0  0  0
    6.7394  -11.2009   27.0144 C   0  0  0  0  0  0  0  0  0  0  0  0
    6.5242  -12.7698   26.0907 S   0  0  0  0  0  0  0  0  0  0  0  0
    8.0937  -13.6659   26.1637 C   0  0  0  0  0  0  0  0  0  0  0  0
    8.0230  -14.9836   25.4268 C   0  0  0  0  0  0  0  0  0  0  0  0
    9.3316  -15.3204   24.7495 C   0  0  2  0  0  0  0  0  0  0  0  0
    9.1757  -15.3532   23.2961 N   0  0  0  0  0  0  0  0  0  0  0  0
    9.7682  -16.6593   25.2093 C   0  0  0  0  0  0  0  0  0  0  0  0
   10.1990  -16.8632   26.5203 O   0  0  0  0  0  0  0  0  0  0  0  0
    9.7518  -17.6235   24.4129 O   0  0  0  0  0  0  0  0  0  0  0  0
  2  1  1  1
  3  2  1  0
  4  5  2  0
  4  2  1  0
  6  4  1  0
  7  6  1  0
  8  7  1  0
  9  8  1  0
  9 10  1  0
 10 11  1  1
 10  6  1  0
 11 18  1  0
 12 11  2  0
 13 14  1  0
 15 14  1  0
 16 15  1  0
 17 16  1  1
 18 17  1  0
 19 20  1  0
 19 17  1  0
 21 19  2  0
M  END
$$$$
