APM.pdb
     RDKit          3D

 21 21  0  0  1  0  0  0  0  0999 V2000
    9.1851  -18.8472   19.5062 C   0  0  0  0  0  0  0  0  0  0  0  0
    9.6660  -17.4705   19.0926 C   0  0  2  0  0  0  0  0  0  0  0  0
   10.9548  -17.5764   18.4971 N   0  0  0  0  0  0  0  0  0  0  0  0
    9.4941  -16.4695   20.1331 C   0  0  0  0  0  0  0  0  0  0  0  0
   10.5177  -16.2678   20.8766 O   0  0  0  0  0  0  0  0  0  0  0  0
    8.3434  -15.6957   20.4250 N   0  0  0  0  0  0  0  0  0  0  0  0
    7.1086  -15.7994   19.6743 C   0  0  0  0  0  0  0  0  0  0  0  0
    6.5037  -14.3992   19.8826 C   0  0  0  0  0  0  0  0  0  0  0  0
    6.8233  -14.1519   21.3129 C   0  0  0  0  0  0  0  0  0  0  0  0
    8.2076  -14.7171   21.4855 C   0  0  1  0  0  0  0  0  0  0  0  0
    8.3112  -15.3115   22.8275 C   0  0  0  0  0  0  0  0  0  0  0  0
    8.0157  -16.5213   22.9905 O   0  0  0  0  0  0  0  0  0  0  0  0
   10.9518  -14.7451   30.1812 C   0  0  0  0  0  0  0  0  0  0  0  0
    9.9759  -13.7781   28.9671 S   0  0  0  0  0  0  0  0  0  0  0  0
    9.3697  -14.9308   27.7120 C   0  0  0  0  0  0  0  0  0  0  0  0
    9.2393  -14.2703   26.3588 C   0  0  0  0  0  0  0  0  0  0  0  0
    8.7784  -15.2446   25.2992 C   0  0  2  0  0  0  0  0  0  0  0  0
    8.7314  -14.6054   23.9850 N   0  0  0  0  0  0  0  0  0  0  0  0
    7.4158  -15.7096   25.6486 C   0  0  0  0  0  0  0  0  0  0  0  0
    6.2860  -15.0675   25.1416 O   0  0  0  0  0  0  0  0  0  0  0  0
    7.2726  -16.6920   26.4091 O   0  0  0  0  0  0  0  0  0  0  0  0
  2  1  1  1
  3  2  1  0
  4  5  2  0
  4  2  1  0
  6  4  1  0
  7  6  1  0
  8  7  1  0
  9  8  1  0
  9 10  1  0
 10 11  1  1
 10  6  1  0
 11 18  1  0
 12 11  2  0
 13 14  1  0
 15 14  1  0
 16 15  1  0
 17 16  1  1
 18 17  1  0
 19 20  1  0
 19 17  1  0
 21 19  2  0
M  END
$$$$
