APM.pdb
     RDKit          3D

 21 21  0  0  1  0  0  0  0  0999 V2000
    5.5848  -17.7657   21.9760 C   0  0  0  0  0  0  0  0  0  0  0  0
    6.5393  -17.6766   20.8018 C   0  0  2  0  0  0  0  0  0  0  0  0
    6.9289  -18.9873   20.4055 N   0  0  0  0  0  0  0  0  0  0  0  0
    7.5976  -16.6992   20.9996 C   0  0  0  0  0  0  0  0  0  0  0  0
    8.6061  -17.1099   21.6745 O   0  0  0  0  0  0  0  0  0  0  0  0
    7.6510  -15.3590   20.5426 N   0  0  0  0  0  0  0  0  0  0  0  0
    6.5591  -14.7190   19.8375 C   0  0  0  0  0  0  0  0  0  0  0  0
    7.3073  -13.6578   19.0104 C   0  0  0  0  0  0  0  0  0  0  0  0
    8.3208  -13.1846   19.9893 C   0  0  0  0  0  0  0  0  0  0  0  0
    8.7564  -14.4354   20.7043 C   0  0  1  0  0  0  0  0  0  0  0  0
    9.0232  -14.1055   22.1131 C   0  0  0  0  0  0  0  0  0  0  0  0
    9.2790  -12.9174   22.4304 O   0  0  0  0  0  0  0  0  0  0  0  0
    6.3085  -11.8013   28.3444 C   0  0  0  0  0  0  0  0  0  0  0  0
    6.2120  -12.3104   26.5858 S   0  0  0  0  0  0  0  0  0  0  0  0
    7.4850  -13.5655   26.3103 C   0  0  0  0  0  0  0  0  0  0  0  0
    7.6520  -13.8835   24.8422 C   0  0  0  0  0  0  0  0  0  0  0  0
    8.9351  -14.6350   24.5716 C   0  0  2  0  0  0  0  0  0  0  0  0
    9.0133  -15.0508   23.1720 N   0  0  0  0  0  0  0  0  0  0  0  0
    8.9614  -15.8442   25.4270 C   0  0  0  0  0  0  0  0  0  0  0  0
    9.1968  -15.7485   26.7987 O   0  0  0  0  0  0  0  0  0  0  0  0
    8.7700  -16.9692   24.9153 O   0  0  0  0  0  0  0  0  0  0  0  0
  2  1  1  1
  3  2  1  0
  4  5  2  0
  4  2  1  0
  6  4  1  0
  7  6  1  0
  8  7  1  0
  9  8  1  0
  9 10  1  0
 10 11  1  1
 10  6  1  0
 11 18  1  0
 12 11  2  0
 13 14  1  0
 15 14  1  0
 16 15  1  0
 17 16  1  6
 18 17  1  0
 19 20  1  0
 19 17  1  0
 21 19  2  0
M  END
$$$$
