APM.pdb
     RDKit          3D

 21 21  0  0  1  0  0  0  0  0999 V2000
    5.6410  -17.7610   21.0298 C   0  0  0  0  0  0  0  0  0  0  0  0
    6.7593  -17.5556   20.0274 C   0  0  2  0  0  0  0  0  0  0  0  0
    7.2854  -18.8195   19.6367 N   0  0  0  0  0  0  0  0  0  0  0  0
    7.7120  -16.5361   20.4364 C   0  0  0  0  0  0  0  0  0  0  0  0
    8.6599  -16.9426   21.1964 O   0  0  0  0  0  0  0  0  0  0  0  0
    7.7217  -15.1592   20.1017 N   0  0  0  0  0  0  0  0  0  0  0  0
    6.7231  -14.5444   19.2509 C   0  0  0  0  0  0  0  0  0  0  0  0
    7.5071  -13.3555   18.6664 C   0  0  0  0  0  0  0  0  0  0  0  0
    8.2729  -12.8969   19.8548 C   0  0  0  0  0  0  0  0  0  0  0  0
    8.6855  -14.1705   20.5427 C   0  0  1  0  0  0  0  0  0  0  0  0
    8.6551  -13.9528   21.9975 C   0  0  0  0  0  0  0  0  0  0  0  0
    8.2011  -12.8726   22.4500 O   0  0  0  0  0  0  0  0  0  0  0  0
    6.9543  -11.8800   28.2336 C   0  0  0  0  0  0  0  0  0  0  0  0
    6.4613  -12.5799   26.6124 S   0  0  0  0  0  0  0  0  0  0  0  0
    7.5227  -14.0084   26.2892 C   0  0  0  0  0  0  0  0  0  0  0  0
    7.6181  -14.3147   24.8122 C   0  0  0  0  0  0  0  0  0  0  0  0
    9.0365  -14.6249   24.3923 C   0  0  2  0  0  0  0  0  0  0  0  0
    9.1107  -14.8944   22.9572 N   0  0  0  0  0  0  0  0  0  0  0  0
    9.4909  -15.8300   25.1245 C   0  0  0  0  0  0  0  0  0  0  0  0
    9.8586  -15.7577   26.4682 O   0  0  0  0  0  0  0  0  0  0  0  0
    9.5470  -16.9301   24.5324 O   0  0  0  0  0  0  0  0  0  0  0  0
  2  1  1  1
  3  2  1  0
  4  5  2  0
  4  2  1  0
  6  4  1  0
  7  6  1  0
  8  7  1  0
  9  8  1  0
  9 10  1  0
 10 11  1  1
 10  6  1  0
 11 18  1  0
 12 11  2  0
 13 14  1  0
 15 14  1  0
 16 15  1  0
 17 16  1  1
 18 17  1  0
 19 20  1  0
 19 17  1  0
 21 19  2  0
M  END
$$$$
