APM.pdb
     RDKit          3D

 21 21  0  0  1  0  0  0  0  0999 V2000
    5.8934  -17.8614   21.2639 C   0  0  0  0  0  0  0  0  0  0  0  0
    7.1297  -17.6554   20.4114 C   0  0  2  0  0  0  0  0  0  0  0  0
    7.7892  -18.9027   20.2215 N   0  0  0  0  0  0  0  0  0  0  0  0
    7.9435  -16.5323   20.8482 C   0  0  0  0  0  0  0  0  0  0  0  0
    8.8409  -16.8096   21.7194 O   0  0  0  0  0  0  0  0  0  0  0  0
    7.8671  -15.1795   20.4335 N   0  0  0  0  0  0  0  0  0  0  0  0
    6.8793  -14.6951   19.4908 C   0  0  0  0  0  0  0  0  0  0  0  0
    7.6037  -13.4802   18.8835 C   0  0  0  0  0  0  0  0  0  0  0  0
    8.2553  -12.8968   20.0853 C   0  0  0  0  0  0  0  0  0  0  0  0
    8.7215  -14.0932   20.8705 C   0  0  1  0  0  0  0  0  0  0  0  0
    8.5829  -13.7997   22.3056 C   0  0  0  0  0  0  0  0  0  0  0  0
    8.1186  -12.6896   22.6658 O   0  0  0  0  0  0  0  0  0  0  0  0
    7.0135  -11.7937   28.0477 C   0  0  0  0  0  0  0  0  0  0  0  0
    6.0883  -12.5088   26.6356 S   0  0  0  0  0  0  0  0  0  0  0  0
    6.7083  -14.1872   26.3707 C   0  0  0  0  0  0  0  0  0  0  0  0
    7.0922  -14.4230   24.9280 C   0  0  0  0  0  0  0  0  0  0  0  0
    8.5918  -14.4374   24.7398 C   0  0  2  0  0  0  0  0  0  0  0  0
    8.9420  -14.6980   23.3444 N   0  0  0  0  0  0  0  0  0  0  0  0
    9.1610  -15.5164   25.5803 C   0  0  0  0  0  0  0  0  0  0  0  0
    9.7597  -16.6363   25.0028 O   0  0  0  0  0  0  0  0  0  0  0  0
    9.1057  -15.4255   26.8264 O   0  0  0  0  0  0  0  0  0  0  0  0
  2  1  1  1
  3  2  1  0
  4  5  2  0
  4  2  1  0
  6  4  1  0
  7  6  1  0
  8  7  1  0
  9  8  1  0
  9 10  1  0
 10 11  1  1
 10  6  1  0
 11 18  1  0
 12 11  2  0
 13 14  1  0
 15 14  1  0
 16 15  1  0
 17 16  1  6
 18 17  1  0
 19 20  1  0
 19 17  1  0
 21 19  2  0
M  END
$$$$
