APM.pdb
     RDKit          3D

 21 21  0  0  1  0  0  0  0  0999 V2000
    8.3983  -12.3641   19.7781 C   0  0  0  0  0  0  0  0  0  0  0  0
    7.7203  -13.6782   19.4449 C   0  0  2  0  0  0  0  0  0  0  0  0
    6.4517  -13.4215   18.8521 N   0  0  0  0  0  0  0  0  0  0  0  0
    7.7621  -14.6353   20.5387 C   0  0  0  0  0  0  0  0  0  0  0  0
    6.8776  -14.4676   21.4502 O   0  0  0  0  0  0  0  0  0  0  0  0
    8.6534  -15.7219   20.7206 N   0  0  0  0  0  0  0  0  0  0  0  0
    9.7220  -16.0328   19.7929 C   0  0  0  0  0  0  0  0  0  0  0  0
    9.8964  -17.5453   20.0207 C   0  0  0  0  0  0  0  0  0  0  0  0
    9.7532  -17.6375   21.4973 C   0  0  0  0  0  0  0  0  0  0  0  0
    8.6545  -16.6620   21.8238 C   0  0  1  0  0  0  0  0  0  0  0  0
    8.9564  -16.0257   23.1157 C   0  0  0  0  0  0  0  0  0  0  0  0
    9.9159  -15.2193   23.1965 O   0  0  0  0  0  0  0  0  0  0  0  0
    6.2850  -10.8569   26.7575 C   0  0  0  0  0  0  0  0  0  0  0  0
    5.9587  -12.5968   26.2807 S   0  0  0  0  0  0  0  0  0  0  0  0
    7.4846  -13.5310   26.5463 C   0  0  0  0  0  0  0  0  0  0  0  0
    7.3154  -14.9929   26.2020 C   0  0  0  0  0  0  0  0  0  0  0  0
    8.5563  -15.5664   25.5572 C   0  0  2  0  0  0  0  0  0  0  0  0
    8.2274  -16.2575   24.3115 N   0  0  0  0  0  0  0  0  0  0  0  0
    9.1651  -16.5405   26.4927 C   0  0  0  0  0  0  0  0  0  0  0  0
    9.8092  -16.1144   27.6544 O   0  0  0  0  0  0  0  0  0  0  0  0
    9.1026  -17.7639   26.2404 O   0  0  0  0  0  0  0  0  0  0  0  0
  2  1  1  1
  3  2  1  0
  4  5  2  0
  4  2  1  0
  6  4  1  0
  7  6  1  0
  8  7  1  0
  9  8  1  0
  9 10  1  0
 10 11  1  1
 10  6  1  0
 11 18  1  0
 12 11  2  0
 13 14  1  0
 15 14  1  0
 16 15  1  0
 17 16  1  1
 18 17  1  0
 19 20  1  0
 19 17  1  0
 21 19  2  0
M  END
$$$$
