EIG.pdb
     RDKit          3D

 22 21  0  0  1  0  0  0  0  0999 V2000
    8.4219  -17.4708   15.2969 N   0  0  0  0  0  0  0  0  0  0  0  0
    7.9491  -17.6291   16.6187 C   0  0  1  0  0  0  0  0  0  0  0  0
    7.7087  -19.0421   16.9933 C   0  0  0  0  0  0  0  0  0  0  0  0
    8.9208  -19.8858   17.0599 C   0  0  0  0  0  0  0  0  0  0  0  0
    8.7613  -21.2770   17.4460 C   0  0  0  0  0  0  0  0  0  0  0  0
    9.2822  -22.2974   16.9613 O   0  0  0  0  0  0  0  0  0  0  0  0
    8.7899  -16.9057   17.6286 C   0  0  0  0  0  0  0  0  0  0  0  0
   10.0394  -16.8238   17.4974 O   0  0  0  0  0  0  0  0  0  0  0  0
    7.8915  -21.5467   18.5306 O   0  0  0  0  0  0  0  0  0  0  0  0
    6.6387  -12.4787   20.1511 C   0  0  0  0  0  0  0  0  0  0  0  0
    7.5818  -13.3830   19.3462 C   0  0  0  0  0  0  0  0  0  0  0  0
    8.1689  -14.3630   20.3013 C   0  0  2  0  0  0  0  0  0  0  0  0
    8.9392  -13.6575   21.4147 C   0  0  0  0  0  0  0  0  0  0  0  0
    8.9728  -15.4628   19.7034 C   0  0  2  0  0  0  0  0  0  0  0  0
    8.2235  -16.2839   18.7713 N   0  0  0  0  0  0  0  0  0  0  0  0
    9.6059  -16.3306   20.7278 C   0  0  0  0  0  0  0  0  0  0  0  0
    8.8584  -17.1014   21.4174 O   0  0  0  0  0  0  0  0  0  0  0  0
   11.0017  -16.2929   20.9251 N   0  0  0  0  0  0  0  0  0  0  0  0
   11.6186  -17.1568   21.9018 C   0  0  0  0  0  0  0  0  0  0  0  0
   12.2506  -16.4311   23.0048 C   0  0  0  0  0  0  0  0  0  0  0  0
   13.0821  -15.5209   22.8088 O   0  0  0  0  0  0  0  0  0  0  0  0
   11.9172  -16.7626   24.3225 O   0  0  0  0  0  0  0  0  0  0  0  0
  2  1  1  6
  2  7  1  0
  3  2  1  0
  3  4  1  0
  5  4  1  0
  5  6  2  0
  7  8  2  0
  9  5  1  0
 10 11  1  0
 11 12  1  0
 12 13  1  1
 12 14  1  0
 14 16  1  0
 14 15  1  6
 15  7  1  0
 16 17  2  0
 18 16  1  0
 18 19  1  0
 19 20  1  0
 20 21  2  0
 20 22  1  0
M  END
$$$$
