EIG.pdb
     RDKit          3D

 22 21  0  0  1  0  0  0  0  0999 V2000
    8.3213  -14.7430   20.2356 N   0  0  0  0  0  0  0  0  0  0  0  0
    7.5396  -15.2625   21.2914 C   0  0  1  0  0  0  0  0  0  0  0  0
    7.2235  -16.7016   21.1378 C   0  0  0  0  0  0  0  0  0  0  0  0
    6.6711  -17.0830   19.8207 C   0  0  0  0  0  0  0  0  0  0  0  0
    6.3456  -18.4811   19.5981 C   0  0  0  0  0  0  0  0  0  0  0  0
    5.5018  -19.1971   20.1662 O   0  0  0  0  0  0  0  0  0  0  0  0
    8.1022  -14.9427   22.6447 C   0  0  0  0  0  0  0  0  0  0  0  0
    9.3445  -14.9407   22.8500 O   0  0  0  0  0  0  0  0  0  0  0  0
    7.0783  -19.1589   18.5935 O   0  0  0  0  0  0  0  0  0  0  0  0
    5.8609  -11.1908   25.8846 C   0  0  0  0  0  0  0  0  0  0  0  0
    6.8594  -12.0380   25.0843 C   0  0  0  0  0  0  0  0  0  0  0  0
    7.0274  -13.3237   25.8164 C   0  0  2  0  0  0  0  0  0  0  0  0
    7.6096  -13.0957   27.2091 C   0  0  0  0  0  0  0  0  0  0  0  0
    7.7601  -14.3995   25.0958 C   0  0  2  0  0  0  0  0  0  0  0  0
    7.2697  -14.6297   23.7501 N   0  0  0  0  0  0  0  0  0  0  0  0
    7.7734  -15.6820   25.8431 C   0  0  0  0  0  0  0  0  0  0  0  0
    6.6710  -16.3053   26.0001 O   0  0  0  0  0  0  0  0  0  0  0  0
    8.9828  -16.1875   26.3633 N   0  0  0  0  0  0  0  0  0  0  0  0
    8.9997  -17.4512   27.0586 C   0  0  0  0  0  0  0  0  0  0  0  0
   10.3126  -17.7977   27.6055 C   0  0  0  0  0  0  0  0  0  0  0  0
   11.3534  -17.2031   27.2568 O   0  0  0  0  0  0  0  0  0  0  0  0
   10.4115  -18.8263   28.5486 O   0  0  0  0  0  0  0  0  0  0  0  0
  2  1  1  6
  2  7  1  0
  3  2  1  0
  3  4  1  0
  5  4  1  0
  5  6  2  0
  7  8  2  0
  9  5  1  0
 10 11  1  0
 11 12  1  0
 12 13  1  1
 12 14  1  0
 14 16  1  0
 14 15  1  6
 15  7  1  0
 16 17  2  0
 18 16  1  0
 18 19  1  0
 19 20  1  0
 20 21  2  0
 20 22  1  0
M  END
$$$$
