EIG.pdb
     RDKit          3D

 22 21  0  0  1  0  0  0  0  0999 V2000
    5.4234  -18.6530   23.4044 N   0  0  0  0  0  0  0  0  0  0  0  0
    5.8476  -18.0345   24.6016 C   0  0  1  0  0  0  0  0  0  0  0  0
    6.4321  -18.9815   25.5793 C   0  0  0  0  0  0  0  0  0  0  0  0
    7.6559  -19.6743   25.1234 C   0  0  0  0  0  0  0  0  0  0  0  0
    8.3137  -20.5764   26.0528 C   0  0  0  0  0  0  0  0  0  0  0  0
    7.9856  -20.8988   27.2085 O   0  0  0  0  0  0  0  0  0  0  0  0
    6.7292  -16.8448   24.3618 C   0  0  0  0  0  0  0  0  0  0  0  0
    7.3303  -16.6894   23.2664 O   0  0  0  0  0  0  0  0  0  0  0  0
    9.5069  -21.1972   25.6095 O   0  0  0  0  0  0  0  0  0  0  0  0
    5.6942  -11.9537   26.9155 C   0  0  0  0  0  0  0  0  0  0  0  0
    6.2395  -12.6269   25.6487 C   0  0  0  0  0  0  0  0  0  0  0  0
    7.3399  -13.5349   26.0752 C   0  0  2  0  0  0  0  0  0  0  0  0
    8.5788  -12.7459   26.4913 C   0  0  0  0  0  0  0  0  0  0  0  0
    7.6907  -14.6306   25.1319 C   0  0  2  0  0  0  0  0  0  0  0  0
    6.9274  -15.8449   25.3488 N   0  0  0  0  0  0  0  0  0  0  0  0
    9.1403  -14.9501   25.1401 C   0  0  0  0  0  0  0  0  0  0  0  0
    9.9647  -14.0424   24.7867 O   0  0  0  0  0  0  0  0  0  0  0  0
    9.5822  -16.2313   25.5299 N   0  0  0  0  0  0  0  0  0  0  0  0
   10.9932  -16.5277   25.5758 C   0  0  0  0  0  0  0  0  0  0  0  0
   11.2897  -17.8759   26.0625 C   0  0  0  0  0  0  0  0  0  0  0  0
   12.4407  -18.2192   26.4029 O   0  0  0  0  0  0  0  0  0  0  0  0
   10.2560  -18.8144   26.1515 O   0  0  0  0  0  0  0  0  0  0  0  0
  2  1  1  6
  2  7  1  0
  3  2  1  0
  3  4  1  0
  5  4  1  0
  5  6  2  0
  7  8  2  0
  9  5  1  0
 10 11  1  0
 11 12  1  0
 12 13  1  6
 12 14  1  0
 14 16  1  0
 14 15  1  1
 15  7  1  0
 16 17  2  0
 18 16  1  0
 18 19  1  0
 19 20  1  0
 20 21  2  0
 20 22  1  0
M  END
$$$$
