EIG.pdb
     RDKit          3D

 22 21  0  0  1  0  0  0  0  0999 V2000
    8.8287  -15.5746   20.2244 N   0  0  0  0  0  0  0  0  0  0  0  0
    8.2352  -16.0175   21.4274 C   0  0  1  0  0  0  0  0  0  0  0  0
    8.3173  -17.4840   21.6201 C   0  0  0  0  0  0  0  0  0  0  0  0
    8.1815  -18.2851   20.3851 C   0  0  0  0  0  0  0  0  0  0  0  0
    8.2894  -19.7296   20.4955 C   0  0  0  0  0  0  0  0  0  0  0  0
    8.2380  -20.5971   19.6055 O   0  0  0  0  0  0  0  0  0  0  0  0
    8.7141  -15.2562   22.6279 C   0  0  0  0  0  0  0  0  0  0  0  0
    9.9174  -14.9020   22.7374 O   0  0  0  0  0  0  0  0  0  0  0  0
    8.4818  -20.2618   21.7937 O   0  0  0  0  0  0  0  0  0  0  0  0
    6.5762  -11.2921   26.7230 C   0  0  0  0  0  0  0  0  0  0  0  0
    7.7185  -12.2810   26.4538 C   0  0  0  0  0  0  0  0  0  0  0  0
    7.3211  -13.0975   25.2737 C   0  0  2  0  0  0  0  0  0  0  0  0
    5.8977  -13.6289   25.4223 C   0  0  0  0  0  0  0  0  0  0  0  0
    8.2614  -14.1798   24.8766 C   0  0  2  0  0  0  0  0  0  0  0  0
    7.8426  -14.9010   23.6897 N   0  0  0  0  0  0  0  0  0  0  0  0
    8.5203  -15.1440   25.9751 C   0  0  0  0  0  0  0  0  0  0  0  0
    7.6060  -15.3344   26.8447 O   0  0  0  0  0  0  0  0  0  0  0  0
    9.7528  -15.8258   26.0449 N   0  0  0  0  0  0  0  0  0  0  0  0
   10.0069  -16.7542   27.1193 C   0  0  0  0  0  0  0  0  0  0  0  0
   11.2730  -17.4753   26.9789 C   0  0  0  0  0  0  0  0  0  0  0  0
   11.9904  -17.3629   25.9635 O   0  0  0  0  0  0  0  0  0  0  0  0
   11.6985  -18.3186   28.0109 O   0  0  0  0  0  0  0  0  0  0  0  0
  2  1  1  6
  2  7  1  0
  3  2  1  0
  3  4  1  0
  5  4  1  0
  5  6  2  0
  7  8  2  0
  9  5  1  0
 10 11  1  0
 11 12  1  0
 12 13  1  1
 12 14  1  0
 14 16  1  0
 14 15  1  6
 15  7  1  0
 16 17  2  0
 18 16  1  0
 18 19  1  0
 19 20  1  0
 20 21  2  0
 20 22  1  0
M  END
$$$$
