EIG.pdb
     RDKit          3D

 22 21  0  0  1  0  0  0  0  0999 V2000
    7.6515  -13.9069   20.0055 N   0  0  0  0  0  0  0  0  0  0  0  0
    7.0605  -14.5123   21.1368 C   0  0  1  0  0  0  0  0  0  0  0  0
    6.6742  -15.9252   20.9149 C   0  0  0  0  0  0  0  0  0  0  0  0
    6.8157  -16.4003   19.5222 C   0  0  0  0  0  0  0  0  0  0  0  0
    7.3877  -17.7182   19.3074 C   0  0  0  0  0  0  0  0  0  0  0  0
    6.9609  -18.8327   19.6583 O   0  0  0  0  0  0  0  0  0  0  0  0
    7.8725  -14.3317   22.3850 C   0  0  0  0  0  0  0  0  0  0  0  0
    9.1101  -14.1068   22.3303 O   0  0  0  0  0  0  0  0  0  0  0  0
    8.6116  -17.7791   18.5975 O   0  0  0  0  0  0  0  0  0  0  0  0
    6.1356  -11.3331   26.4431 C   0  0  0  0  0  0  0  0  0  0  0  0
    7.0457  -11.9825   25.3918 C   0  0  0  0  0  0  0  0  0  0  0  0
    7.3880  -13.3433   25.8902 C   0  0  2  0  0  0  0  0  0  0  0  0
    8.1819  -13.2724   27.1922 C   0  0  0  0  0  0  0  0  0  0  0  0
    8.0375  -14.2572   24.9124 C   0  0  2  0  0  0  0  0  0  0  0  0
    7.2911  -14.4049   23.6772 N   0  0  0  0  0  0  0  0  0  0  0  0
    8.3192  -15.5984   25.4828 C   0  0  0  0  0  0  0  0  0  0  0  0
    7.3426  -16.2833   25.9362 O   0  0  0  0  0  0  0  0  0  0  0  0
    9.6400  -16.0911   25.5181 N   0  0  0  0  0  0  0  0  0  0  0  0
    9.9005  -17.4319   25.9823 C   0  0  0  0  0  0  0  0  0  0  0  0
   10.3887  -17.4864   27.3611 C   0  0  0  0  0  0  0  0  0  0  0  0
   10.4978  -16.4621   28.0664 O   0  0  0  0  0  0  0  0  0  0  0  0
   10.7462  -18.7215   27.9124 O   0  0  0  0  0  0  0  0  0  0  0  0
  2  1  1  6
  2  7  1  0
  3  2  1  0
  3  4  1  0
  5  4  1  0
  5  6  2  0
  7  8  2  0
  9  5  1  0
 10 11  1  0
 11 12  1  0
 12 13  1  1
 12 14  1  0
 14 16  1  0
 14 15  1  6
 15  7  1  0
 16 17  2  0
 18 16  1  0
 18 19  1  0
 19 20  1  0
 20 21  2  0
 20 22  1  0
M  END
$$$$
