EIG.pdb
     RDKit          3D

 22 21  0  0  1  0  0  0  0  0999 V2000
    8.3352  -15.5917   20.8128 N   0  0  0  0  0  0  0  0  0  0  0  0
    7.8294  -15.8398   22.1083 C   0  0  1  0  0  0  0  0  0  0  0  0
    7.7678  -17.2797   22.4512 C   0  0  0  0  0  0  0  0  0  0  0  0
    8.1532  -18.1991   21.3595 C   0  0  0  0  0  0  0  0  0  0  0  0
    8.0546  -19.6273   21.6059 C   0  0  0  0  0  0  0  0  0  0  0  0
    8.3198  -20.5803   20.8518 O   0  0  0  0  0  0  0  0  0  0  0  0
    8.5171  -15.0297   23.1671 C   0  0  0  0  0  0  0  0  0  0  0  0
    9.6826  -14.5861   22.9938 O   0  0  0  0  0  0  0  0  0  0  0  0
    7.5916  -20.0282   22.8828 O   0  0  0  0  0  0  0  0  0  0  0  0
    5.3219  -11.8789   26.2539 C   0  0  0  0  0  0  0  0  0  0  0  0
    6.5853  -12.1316   25.4200 C   0  0  0  0  0  0  0  0  0  0  0  0
    7.4264  -13.0957   26.1817 C   0  0  2  0  0  0  0  0  0  0  0  0
    8.0363  -12.4412   27.4188 C   0  0  0  0  0  0  0  0  0  0  0  0
    8.4555  -13.8314   25.3988 C   0  0  2  0  0  0  0  0  0  0  0  0
    7.8935  -14.7262   24.4049 N   0  0  0  0  0  0  0  0  0  0  0  0
    9.4015  -14.5826   26.2614 C   0  0  0  0  0  0  0  0  0  0  0  0
   10.0830  -13.9347   27.1241 O   0  0  0  0  0  0  0  0  0  0  0  0
    9.5353  -15.9793   26.1192 N   0  0  0  0  0  0  0  0  0  0  0  0
   10.3710  -16.7231   27.0298 C   0  0  0  0  0  0  0  0  0  0  0  0
   10.4405  -18.1523   26.7215 C   0  0  0  0  0  0  0  0  0  0  0  0
   10.0824  -18.6099   25.6166 O   0  0  0  0  0  0  0  0  0  0  0  0
   10.9220  -19.0391   27.6905 O   0  0  0  0  0  0  0  0  0  0  0  0
  2  1  1  6
  2  7  1  0
  3  2  1  0
  3  4  1  0
  5  4  1  0
  5  6  2  0
  7  8  2  0
  9  5  1  0
 10 11  1  0
 11 12  1  0
 12 13  1  1
 12 14  1  0
 14 16  1  0
 14 15  1  6
 15  7  1  0
 16 17  2  0
 18 16  1  0
 18 19  1  0
 19 20  1  0
 20 21  2  0
 20 22  1  0
M  END
$$$$
