EIG.pdb
     RDKit          3D

 22 21  0  0  1  0  0  0  0  0999 V2000
   10.4842  -17.6330   16.2219 N   0  0  0  0  0  0  0  0  0  0  0  0
    9.3881  -17.5226   17.1062 C   0  0  1  0  0  0  0  0  0  0  0  0
    8.7375  -18.8198   17.4033 C   0  0  0  0  0  0  0  0  0  0  0  0
    9.3143  -19.9842   16.6983 C   0  0  0  0  0  0  0  0  0  0  0  0
    8.7418  -21.2926   16.9636 C   0  0  0  0  0  0  0  0  0  0  0  0
    7.7836  -21.6037   17.6933 O   0  0  0  0  0  0  0  0  0  0  0  0
    9.7185  -16.7515   18.3498 C   0  0  0  0  0  0  0  0  0  0  0  0
   10.9017  -16.6737   18.7732 O   0  0  0  0  0  0  0  0  0  0  0  0
    9.3386  -22.3990   16.3114 O   0  0  0  0  0  0  0  0  0  0  0  0
    6.5581  -12.3787   19.8381 C   0  0  0  0  0  0  0  0  0  0  0  0
    7.7882  -13.2150   19.4604 C   0  0  0  0  0  0  0  0  0  0  0  0
    7.9755  -14.2277   20.5359 C   0  0  2  0  0  0  0  0  0  0  0  0
    8.1933  -13.5612   21.8920 C   0  0  0  0  0  0  0  0  0  0  0  0
    8.9996  -15.2760   20.2802 C   0  0  2  0  0  0  0  0  0  0  0  0
    8.7228  -16.0780   19.1035 N   0  0  0  0  0  0  0  0  0  0  0  0
    9.2088  -16.1681   21.4481 C   0  0  0  0  0  0  0  0  0  0  0  0
    8.2706  -16.9680   21.7775 O   0  0  0  0  0  0  0  0  0  0  0  0
   10.4201  -16.1212   22.1687 N   0  0  0  0  0  0  0  0  0  0  0  0
   10.6226  -16.9906   23.3019 C   0  0  0  0  0  0  0  0  0  0  0  0
   11.9727  -16.9129   23.8618 C   0  0  0  0  0  0  0  0  0  0  0  0
   12.8729  -16.2318   23.3287 O   0  0  0  0  0  0  0  0  0  0  0  0
   12.2709  -17.6214   25.0308 O   0  0  0  0  0  0  0  0  0  0  0  0
  2  1  1  1
  2  7  1  0
  3  2  1  0
  3  4  1  0
  5  4  1  0
  5  6  2  0
  7  8  2  0
  9  5  1  0
 10 11  1  0
 11 12  1  0
 12 13  1  1
 12 14  1  0
 14 16  1  0
 14 15  1  6
 15  7  1  0
 16 17  2  0
 18 16  1  0
 18 19  1  0
 19 20  1  0
 20 21  2  0
 20 22  1  0
M  END
$$$$
