EIG.pdb
     RDKit          3D

 22 21  0  0  1  0  0  0  0  0999 V2000
    8.7440  -15.2875   20.3357 N   0  0  0  0  0  0  0  0  0  0  0  0
    8.1129  -15.8046   21.4889 C   0  0  1  0  0  0  0  0  0  0  0  0
    8.0888  -17.2851   21.5338 C   0  0  0  0  0  0  0  0  0  0  0  0
    7.8986  -17.9469   20.2256 C   0  0  0  0  0  0  0  0  0  0  0  0
    7.7935  -19.3956   20.2046 C   0  0  0  0  0  0  0  0  0  0  0  0
    6.7790  -20.1149   20.1745 O   0  0  0  0  0  0  0  0  0  0  0  0
    8.6376  -15.2034   22.7591 C   0  0  0  0  0  0  0  0  0  0  0  0
    9.8748  -15.1086   22.9726 O   0  0  0  0  0  0  0  0  0  0  0  0
    9.0057  -20.1277   20.2199 O   0  0  0  0  0  0  0  0  0  0  0  0
    6.7380  -11.4355   27.2369 C   0  0  0  0  0  0  0  0  0  0  0  0
    7.8389  -12.4151   26.8083 C   0  0  0  0  0  0  0  0  0  0  0  0
    7.3660  -13.0885   25.5673 C   0  0  2  0  0  0  0  0  0  0  0  0
    5.9177  -13.5510   25.7059 C   0  0  0  0  0  0  0  0  0  0  0  0
    8.2312  -14.1780   25.0403 C   0  0  2  0  0  0  0  0  0  0  0  0
    7.7732  -14.7165   23.7735 N   0  0  0  0  0  0  0  0  0  0  0  0
    8.4115  -15.2858   26.0118 C   0  0  0  0  0  0  0  0  0  0  0  0
    7.3786  -15.9246   26.4036 O   0  0  0  0  0  0  0  0  0  0  0  0
    9.6995  -15.6129   26.4838 N   0  0  0  0  0  0  0  0  0  0  0  0
    9.8682  -16.6614   27.4601 C   0  0  0  0  0  0  0  0  0  0  0  0
   11.2353  -16.7656   27.9727 C   0  0  0  0  0  0  0  0  0  0  0  0
   12.1655  -16.0626   27.5267 O   0  0  0  0  0  0  0  0  0  0  0  0
   11.5156  -17.6795   28.9942 O   0  0  0  0  0  0  0  0  0  0  0  0
  2  1  1  6
  2  7  1  0
  3  2  1  0
  3  4  1  0
  5  4  1  0
  5  6  2  0
  7  8  2  0
  9  5  1  0
 10 11  1  0
 11 12  1  0
 12 13  1  1
 12 14  1  0
 14 16  1  0
 14 15  1  6
 15  7  1  0
 16 17  2  0
 18 16  1  0
 18 19  1  0
 19 20  1  0
 20 21  2  0
 20 22  1  0
M  END
$$$$
