EIG.pdb
     RDKit          3D

 22 21  0  0  1  0  0  0  0  0999 V2000
   10.3154  -18.1581   16.9874 N   0  0  0  0  0  0  0  0  0  0  0  0
    9.6339  -18.1289   18.2245 C   0  0  1  0  0  0  0  0  0  0  0  0
    9.9565  -19.2778   19.1023 C   0  0  0  0  0  0  0  0  0  0  0  0
    9.7965  -20.6072   18.4757 C   0  0  0  0  0  0  0  0  0  0  0  0
   10.0182  -21.7806   19.3029 C   0  0  0  0  0  0  0  0  0  0  0  0
    9.3412  -22.2209   20.2490 O   0  0  0  0  0  0  0  0  0  0  0  0
    9.7688  -16.8136   18.9330 C   0  0  0  0  0  0  0  0  0  0  0  0
   10.7937  -16.0970   18.7869 O   0  0  0  0  0  0  0  0  0  0  0  0
   11.1652  -22.5605   19.0169 O   0  0  0  0  0  0  0  0  0  0  0  0
    8.1631  -12.0199   20.3653 C   0  0  0  0  0  0  0  0  0  0  0  0
    7.5341  -13.0448   21.3187 C   0  0  0  0  0  0  0  0  0  0  0  0
    7.5250  -14.3540   20.6092 C   0  0  2  0  0  0  0  0  0  0  0  0
    6.4572  -15.2847   21.1785 C   0  0  0  0  0  0  0  0  0  0  0  0
    8.8363  -15.0468   20.4915 C   0  0  2  0  0  0  0  0  0  0  0  0
    8.7571  -16.3168   19.7949 N   0  0  0  0  0  0  0  0  0  0  0  0
    9.4987  -15.2444   21.8052 C   0  0  0  0  0  0  0  0  0  0  0  0
    9.8057  -14.2137   22.4921 O   0  0  0  0  0  0  0  0  0  0  0  0
    9.7778  -16.5461   22.2703 N   0  0  0  0  0  0  0  0  0  0  0  0
   10.2445  -16.7481   23.6202 C   0  0  0  0  0  0  0  0  0  0  0  0
   11.6932  -16.5966   23.7645 C   0  0  0  0  0  0  0  0  0  0  0  0
   12.4411  -16.4114   22.7823 O   0  0  0  0  0  0  0  0  0  0  0  0
   12.2645  -16.6603   25.0400 O   0  0  0  0  0  0  0  0  0  0  0  0
  2  1  1  6
  2  7  1  0
  3  2  1  0
  3  4  1  0
  5  4  1  0
  5  6  2  0
  7  8  2  0
  9  5  1  0
 10 11  1  0
 11 12  1  0
 12 13  1  1
 12 14  1  0
 14 16  1  0
 14 15  1  1
 15  7  1  0
 16 17  2  0
 18 16  1  0
 18 19  1  0
 19 20  1  0
 20 21  2  0
 20 22  1  0
M  END
$$$$
