EIG.pdb
     RDKit          3D

 22 21  0  0  1  0  0  0  0  0999 V2000
    8.6853  -15.2577   20.8316 N   0  0  0  0  0  0  0  0  0  0  0  0
    8.1305  -15.7508   22.0334 C   0  0  1  0  0  0  0  0  0  0  0  0
    8.1680  -17.2281   22.1373 C   0  0  0  0  0  0  0  0  0  0  0  0
    7.6870  -17.9511   20.9409 C   0  0  0  0  0  0  0  0  0  0  0  0
    7.6067  -19.4000   21.0078 C   0  0  0  0  0  0  0  0  0  0  0  0
    8.5213  -20.2415   21.0597 O   0  0  0  0  0  0  0  0  0  0  0  0
    8.6897  -15.0784   23.2522 C   0  0  0  0  0  0  0  0  0  0  0  0
    9.9037  -14.7508   23.3163 O   0  0  0  0  0  0  0  0  0  0  0  0
    6.3110  -19.9716   21.0169 O   0  0  0  0  0  0  0  0  0  0  0  0
    5.5977  -11.5305   26.1682 C   0  0  0  0  0  0  0  0  0  0  0  0
    6.7585  -12.1439   25.3735 C   0  0  0  0  0  0  0  0  0  0  0  0
    7.3321  -13.2348   26.2091 C   0  0  2  0  0  0  0  0  0  0  0  0
    7.8177  -12.7037   27.5555 C   0  0  0  0  0  0  0  0  0  0  0  0
    8.3667  -14.0846   25.5605 C   0  0  2  0  0  0  0  0  0  0  0  0
    7.8853  -14.7813   24.3826 N   0  0  0  0  0  0  0  0  0  0  0  0
    8.9746  -15.0615   26.4983 C   0  0  0  0  0  0  0  0  0  0  0  0
    9.5248  -14.6212   27.5622 O   0  0  0  0  0  0  0  0  0  0  0  0
    8.9393  -16.4409   26.2072 N   0  0  0  0  0  0  0  0  0  0  0  0
    9.4151  -17.3978   27.1762 C   0  0  0  0  0  0  0  0  0  0  0  0
   10.8714  -17.5459   27.1821 C   0  0  0  0  0  0  0  0  0  0  0  0
   11.4522  -18.3528   27.9370 O   0  0  0  0  0  0  0  0  0  0  0  0
   11.6427  -16.7617   26.3176 O   0  0  0  0  0  0  0  0  0  0  0  0
  2  1  1  6
  2  7  1  0
  3  2  1  0
  3  4  1  0
  5  4  1  0
  5  6  2  0
  7  8  2  0
  9  5  1  0
 10 11  1  0
 11 12  1  0
 12 13  1  1
 12 14  1  0
 14 16  1  0
 14 15  1  6
 15  7  1  0
 16 17  2  0
 18 16  1  0
 18 19  1  0
 19 20  1  0
 20 21  2  0
 20 22  1  0
M  END
$$$$
