EIG.pdb
     RDKit          3D

 22 21  0  0  1  0  0  0  0  0999 V2000
    9.3295  -18.2057   16.4143 N   0  0  0  0  0  0  0  0  0  0  0  0
    8.5633  -18.1186   17.5979 C   0  0  1  0  0  0  0  0  0  0  0  0
    8.1881  -19.4387   18.1556 C   0  0  0  0  0  0  0  0  0  0  0  0
    9.3199  -20.3569   18.4033 C   0  0  0  0  0  0  0  0  0  0  0  0
    9.0315  -21.6440   19.0119 C   0  0  0  0  0  0  0  0  0  0  0  0
    9.8056  -22.5742   19.2999 O   0  0  0  0  0  0  0  0  0  0  0  0
    9.1811  -17.2187   18.6268 C   0  0  0  0  0  0  0  0  0  0  0  0
   10.4306  -17.0912   18.7149 O   0  0  0  0  0  0  0  0  0  0  0  0
    7.6796  -21.9116   19.3380 O   0  0  0  0  0  0  0  0  0  0  0  0
    6.7130  -12.4895   20.1385 C   0  0  0  0  0  0  0  0  0  0  0  0
    7.7950  -13.4753   19.6772 C   0  0  0  0  0  0  0  0  0  0  0  0
    8.0585  -14.3992   20.8149 C   0  0  2  0  0  0  0  0  0  0  0  0
    8.5313  -13.6361   22.0497 C   0  0  0  0  0  0  0  0  0  0  0  0
    8.9436  -15.5599   20.5274 C   0  0  2  0  0  0  0  0  0  0  0  0
    8.3949  -16.4738   19.5434 N   0  0  0  0  0  0  0  0  0  0  0  0
    9.3124  -16.3148   21.7511 C   0  0  0  0  0  0  0  0  0  0  0  0
    8.4238  -17.0425   22.3073 O   0  0  0  0  0  0  0  0  0  0  0  0
   10.6175  -16.2197   22.2770 N   0  0  0  0  0  0  0  0  0  0  0  0
   10.9586  -16.9098   23.4970 C   0  0  0  0  0  0  0  0  0  0  0  0
   12.3773  -16.8128   23.8440 C   0  0  0  0  0  0  0  0  0  0  0  0
   13.2126  -16.2903   23.0775 O   0  0  0  0  0  0  0  0  0  0  0  0
   12.8180  -17.3195   25.0713 O   0  0  0  0  0  0  0  0  0  0  0  0
  2  1  1  6
  2  7  1  0
  3  2  1  0
  3  4  1  0
  5  4  1  0
  5  6  2  0
  7  8  2  0
  9  5  1  0
 10 11  1  0
 11 12  1  0
 12 13  1  1
 12 14  1  0
 14 16  1  0
 14 15  1  6
 15  7  1  0
 16 17  2  0
 18 16  1  0
 18 19  1  0
 19 20  1  0
 20 21  2  0
 20 22  1  0
M  END
$$$$
