EIG.pdb
     RDKit          3D

 22 21  0  0  1  0  0  0  0  0999 V2000
    8.6417  -14.2646   20.3309 N   0  0  0  0  0  0  0  0  0  0  0  0
    7.7166  -14.8022   21.2534 C   0  0  1  0  0  0  0  0  0  0  0  0
    7.3249  -16.1982   20.9496 C   0  0  0  0  0  0  0  0  0  0  0  0
    7.0861  -16.4829   19.5187 C   0  0  0  0  0  0  0  0  0  0  0  0
    6.7217  -17.8389   19.1462 C   0  0  0  0  0  0  0  0  0  0  0  0
    5.7316  -18.5127   19.4824 O   0  0  0  0  0  0  0  0  0  0  0  0
    8.1478  -14.6276   22.6795 C   0  0  0  0  0  0  0  0  0  0  0  0
    9.3610  -14.7050   23.0075 O   0  0  0  0  0  0  0  0  0  0  0  0
    7.6016  -18.5233   18.2727 O   0  0  0  0  0  0  0  0  0  0  0  0
    5.9153  -11.0027   26.1049 C   0  0  0  0  0  0  0  0  0  0  0  0
    6.8890  -11.8702   25.2957 C   0  0  0  0  0  0  0  0  0  0  0  0
    6.8305  -13.2435   25.8683 C   0  0  2  0  0  0  0  0  0  0  0  0
    7.2063  -13.2428   27.3479 C   0  0  0  0  0  0  0  0  0  0  0  0
    7.5717  -14.2976   25.1248 C   0  0  2  0  0  0  0  0  0  0  0  0
    7.2181  -14.3692   23.7197 N   0  0  0  0  0  0  0  0  0  0  0  0
    7.4265  -15.6408   25.7398 C   0  0  0  0  0  0  0  0  0  0  0  0
    6.2569  -16.1420   25.8357 O   0  0  0  0  0  0  0  0  0  0  0  0
    8.5627  -16.3349   26.2046 N   0  0  0  0  0  0  0  0  0  0  0  0
    8.4272  -17.6648   26.7465 C   0  0  0  0  0  0  0  0  0  0  0  0
    9.6978  -18.2509   27.1763 C   0  0  0  0  0  0  0  0  0  0  0  0
    9.7559  -19.3562   27.7538 O   0  0  0  0  0  0  0  0  0  0  0  0
   10.8882  -17.5564   26.9359 O   0  0  0  0  0  0  0  0  0  0  0  0
  2  1  1  6
  2  7  1  0
  3  2  1  0
  3  4  1  0
  5  4  1  0
  5  6  2  0
  7  8  2  0
  9  5  1  0
 10 11  1  0
 11 12  1  0
 12 13  1  1
 12 14  1  0
 14 16  1  0
 14 15  1  6
 15  7  1  0
 16 17  2  0
 18 16  1  0
 18 19  1  0
 19 20  1  0
 20 21  2  0
 20 22  1  0
M  END
$$$$
