EIG.pdb
     RDKit          3D

 22 21  0  0  1  0  0  0  0  0999 V2000
    5.7637  -19.1037   24.5190 N   0  0  0  0  0  0  0  0  0  0  0  0
    6.1686  -18.1606   25.4897 C   0  0  1  0  0  0  0  0  0  0  0  0
    7.0282  -18.7375   26.5493 C   0  0  0  0  0  0  0  0  0  0  0  0
    7.1590  -20.2097   26.5153 C   0  0  0  0  0  0  0  0  0  0  0  0
    8.0057  -20.8409   27.5128 C   0  0  0  0  0  0  0  0  0  0  0  0
    9.0292  -21.5311   27.3594 O   0  0  0  0  0  0  0  0  0  0  0  0
    6.7601  -16.9212   24.8864 C   0  0  0  0  0  0  0  0  0  0  0  0
    7.1164  -16.8902   23.6792 O   0  0  0  0  0  0  0  0  0  0  0  0
    7.6404  -20.6646   28.8696 O   0  0  0  0  0  0  0  0  0  0  0  0
    5.5148  -11.8876   26.9257 C   0  0  0  0  0  0  0  0  0  0  0  0
    5.8424  -12.7386   25.6912 C   0  0  0  0  0  0  0  0  0  0  0  0
    7.2041  -13.3043   25.8989 C   0  0  2  0  0  0  0  0  0  0  0  0
    8.2789  -12.2314   25.7431 C   0  0  0  0  0  0  0  0  0  0  0  0
    7.5381  -14.5200   25.1091 C   0  0  2  0  0  0  0  0  0  0  0  0
    6.9458  -15.7333   25.6398 N   0  0  0  0  0  0  0  0  0  0  0  0
    9.0010  -14.7137   24.9486 C   0  0  0  0  0  0  0  0  0  0  0  0
    9.6636  -13.8334   24.3049 O   0  0  0  0  0  0  0  0  0  0  0  0
    9.6308  -15.8494   25.4984 N   0  0  0  0  0  0  0  0  0  0  0  0
   11.0554  -16.0270   25.3569 C   0  0  0  0  0  0  0  0  0  0  0  0
   11.5684  -17.2037   26.0603 C   0  0  0  0  0  0  0  0  0  0  0  0
   11.4633  -17.3343   27.2973 O   0  0  0  0  0  0  0  0  0  0  0  0
   12.1975  -18.2175   25.3298 O   0  0  0  0  0  0  0  0  0  0  0  0
  2  1  1  6
  2  7  1  0
  3  2  1  0
  3  4  1  0
  5  4  1  0
  5  6  2  0
  7  8  2  0
  9  5  1  0
 10 11  1  0
 11 12  1  0
 12 13  1  6
 12 14  1  0
 14 16  1  0
 14 15  1  1
 15  7  1  0
 16 17  2  0
 18 16  1  0
 18 19  1  0
 19 20  1  0
 20 21  2  0
 20 22  1  0
M  END
$$$$
