DAT.pdb
     RDKit          3D

 21 20  0  0  1  0  0  0  0  0999 V2000
   16.4070  -11.3634  -14.8017 N   0  0  0  0  0  0  0  0  0  0  0  0
   17.7810  -11.2769  -15.2432 C   0  0  1  0  0  0  0  0  0  0  0  0
   18.0212  -12.1390  -16.4642 C   0  0  0  0  0  0  0  0  0  0  0  0
   17.7787  -13.5581  -16.1260 C   0  0  0  0  0  0  0  0  0  0  0  0
   17.8259  -13.9264  -14.9306 O   0  0  0  0  0  0  0  0  0  0  0  0
   18.1213   -9.8614  -15.4918 C   0  0  0  0  0  0  0  0  0  0  0  0
   19.2063   -9.6078  -16.0817 O   0  0  0  0  0  0  0  0  0  0  0  0
   17.4982  -14.5020  -17.0988 O   0  0  0  0  0  0  0  0  0  0  0  0
   16.5139   -6.5274  -15.0881 C   0  0  0  0  0  0  0  0  0  0  0  0
   17.7117   -7.4327  -15.3161 C   0  0  2  0  0  0  0  0  0  0  0  0
   17.2866   -8.7791  -15.0988 N   0  0  0  0  0  0  0  0  0  0  0  0
   18.8563   -7.0458  -14.4521 C   0  0  0  0  0  0  0  0  0  0  0  0
   18.8743   -7.3806  -13.2395 O   0  0  0  0  0  0  0  0  0  0  0  0
   22.2515   -8.1941  -14.5746 C   0  0  0  0  0  0  0  0  0  0  0  0
   22.3672   -6.7100  -14.6329 C   0  0  1  0  0  0  0  0  0  0  0  0
   22.5748   -6.3215  -15.9569 O   0  0  0  0  0  0  0  0  0  0  0  0
   21.1259   -5.9949  -14.1531 C   0  0  2  0  0  0  0  0  0  0  0  0
   19.9634   -6.2970  -14.9342 N   0  0  0  0  0  0  0  0  0  0  0  0
   21.3721   -4.5569  -13.9882 C   0  0  0  0  0  0  0  0  0  0  0  0
   20.7553   -3.7164  -14.6732 O   0  0  0  0  0  0  0  0  0  0  0  0
   22.2981   -4.1260  -13.0634 O   0  0  0  0  0  0  0  0  0  0  0  0
  2  1  1  6
  2  3  1  0
  3  4  1  0
  4  8  1  0
  5  4  2  0
  6  2  1  0
  7  6  2  0
 10  9  1  1
 10 12  1  0
 10 11  1  0
 11  6  1  0
 12 13  2  0
 15 16  1  0
 15 14  1  6
 17 15  1  0
 18 12  1  0
 17 18  1  6
 19 17  1  0
 19 21  1  0
 20 19  2  0
M  END
$$$$
