DAT.pdb
     RDKit          3D

 21 20  0  0  1  0  0  0  0  0999 V2000
   16.8333  -10.2841  -16.8277 N   0  0  0  0  0  0  0  0  0  0  0  0
   17.1943   -8.9996  -17.3846 C   0  0  1  0  0  0  0  0  0  0  0  0
   16.1341   -7.9582  -17.0963 C   0  0  0  0  0  0  0  0  0  0  0  0
   14.9082   -8.2720  -17.8615 C   0  0  0  0  0  0  0  0  0  0  0  0
   14.9743   -9.0368  -18.8503 O   0  0  0  0  0  0  0  0  0  0  0  0
   18.5166   -8.5999  -16.8623 C   0  0  0  0  0  0  0  0  0  0  0  0
   18.6543   -8.4990  -15.6131 O   0  0  0  0  0  0  0  0  0  0  0  0
   13.6771   -7.7420  -17.5159 O   0  0  0  0  0  0  0  0  0  0  0  0
   21.9563   -8.1392  -18.1872 C   0  0  0  0  0  0  0  0  0  0  0  0
   20.8901   -7.9690  -17.1192 C   0  0  2  0  0  0  0  0  0  0  0  0
   19.6339   -8.3256  -17.6984 N   0  0  0  0  0  0  0  0  0  0  0  0
   20.8950   -6.5920  -16.5624 C   0  0  0  0  0  0  0  0  0  0  0  0
   20.2960   -5.6643  -17.1651 O   0  0  0  0  0  0  0  0  0  0  0  0
   19.6173   -5.2797  -13.2786 C   0  0  0  0  0  0  0  0  0  0  0  0
   21.0479   -4.8772  -13.3822 C   0  0  1  0  0  0  0  0  0  0  0  0
   21.8224   -5.7483  -12.6152 O   0  0  0  0  0  0  0  0  0  0  0  0
   21.5843   -4.9366  -14.7933 C   0  0  2  0  0  0  0  0  0  0  0  0
   21.5583   -6.2559  -15.3516 N   0  0  0  0  0  0  0  0  0  0  0  0
   22.8922   -4.2768  -14.8922 C   0  0  0  0  0  0  0  0  0  0  0  0
   23.9068   -4.9104  -15.2460 O   0  0  0  0  0  0  0  0  0  0  0  0
   23.0038   -2.9371  -14.5901 O   0  0  0  0  0  0  0  0  0  0  0  0
  2  1  1  1
  2  3  1  0
  3  4  1  0
  4  8  1  0
  5  4  2  0
  6  2  1  0
  7  6  2  0
 10  9  1  6
 10 12  1  0
 10 11  1  0
 11  6  1  0
 12 13  2  0
 15 16  1  0
 15 14  1  6
 17 15  1  0
 18 12  1  0
 17 18  1  1
 19 17  1  0
 19 21  1  0
 20 19  2  0
M  END
$$$$
