DAT.pdb
     RDKit          3D

 21 20  0  0  1  0  0  0  0  0999 V2000
   13.4777   -8.7211  -10.9798 N   0  0  0  0  0  0  0  0  0  0  0  0
   14.6782   -8.9075  -10.1959 C   0  0  1  0  0  0  0  0  0  0  0  0
   15.3350  -10.2361  -10.5042 C   0  0  0  0  0  0  0  0  0  0  0  0
   14.4233  -11.3393  -10.1319 C   0  0  0  0  0  0  0  0  0  0  0  0
   13.9340  -11.3763   -8.9803 O   0  0  0  0  0  0  0  0  0  0  0  0
   15.5923   -7.7720  -10.4332 C   0  0  0  0  0  0  0  0  0  0  0  0
   15.9479   -7.5357  -11.6194 O   0  0  0  0  0  0  0  0  0  0  0  0
   14.0899  -12.3428  -11.0251 O   0  0  0  0  0  0  0  0  0  0  0  0
   16.7523   -4.8169   -8.5428 C   0  0  0  0  0  0  0  0  0  0  0  0
   16.8650   -5.7839   -9.7084 C   0  0  2  0  0  0  0  0  0  0  0  0
   16.0863   -6.9390   -9.3917 N   0  0  0  0  0  0  0  0  0  0  0  0
   18.2827   -6.1117  -10.0062 C   0  0  0  0  0  0  0  0  0  0  0  0
   18.9873   -6.7064   -9.1501 O   0  0  0  0  0  0  0  0  0  0  0  0
   19.4751   -7.2305  -13.7635 C   0  0  0  0  0  0  0  0  0  0  0  0
   20.2392   -7.4165  -12.4981 C   0  0  1  0  0  0  0  0  0  0  0  0
   21.5740   -7.6800  -12.8072 O   0  0  0  0  0  0  0  0  0  0  0  0
   20.2255   -6.1964  -11.6074 C   0  0  2  0  0  0  0  0  0  0  0  0
   18.9044   -5.7807  -11.2402 N   0  0  0  0  0  0  0  0  0  0  0  0
   21.0509   -5.1200  -12.1690 C   0  0  0  0  0  0  0  0  0  0  0  0
   22.2737   -5.2793  -12.3578 O   0  0  0  0  0  0  0  0  0  0  0  0
   20.4690   -3.9139  -12.4936 O   0  0  0  0  0  0  0  0  0  0  0  0
  2  1  1  6
  2  3  1  0
  3  4  1  0
  4  8  1  0
  5  4  2  0
  6  2  1  0
  7  6  2  0
 10  9  1  1
 10 12  1  0
 10 11  1  0
 11  6  1  0
 12 13  2  0
 15 16  1  0
 15 14  1  6
 17 15  1  0
 18 12  1  0
 17 18  1  6
 19 17  1  0
 19 21  1  0
 20 19  2  0
M  END
$$$$
