DAT.pdb
     RDKit          3D

 21 20  0  0  1  0  0  0  0  0999 V2000
   16.7950  -10.8610  -14.9903 N   0  0  0  0  0  0  0  0  0  0  0  0
   17.9508  -10.4750  -15.7685 C   0  0  1  0  0  0  0  0  0  0  0  0
   17.5428   -9.8062  -17.0638 C   0  0  0  0  0  0  0  0  0  0  0  0
   16.9093  -10.7993  -17.9578 C   0  0  0  0  0  0  0  0  0  0  0  0
   17.1483  -12.0176  -17.7979 O   0  0  0  0  0  0  0  0  0  0  0  0
   18.8182   -9.6056  -14.9482 C   0  0  0  0  0  0  0  0  0  0  0  0
   18.2775   -8.6633  -14.3086 O   0  0  0  0  0  0  0  0  0  0  0  0
   16.0516  -10.4213  -18.9763 O   0  0  0  0  0  0  0  0  0  0  0  0
   22.2974   -9.5897  -13.6903 C   0  0  0  0  0  0  0  0  0  0  0  0
   21.0045   -8.8823  -14.0569 C   0  0  2  0  0  0  0  0  0  0  0  0
   20.2259   -9.7819  -14.8476 N   0  0  0  0  0  0  0  0  0  0  0  0
   21.2682   -7.5933  -14.7463 C   0  0  0  0  0  0  0  0  0  0  0  0
   21.5819   -7.5807  -15.9647 O   0  0  0  0  0  0  0  0  0  0  0  0
   19.3563   -4.9262  -15.9857 C   0  0  0  0  0  0  0  0  0  0  0  0
   20.2857   -4.2556  -15.0337 C   0  0  1  0  0  0  0  0  0  0  0  0
   19.6154   -4.0210  -13.8326 O   0  0  0  0  0  0  0  0  0  0  0  0
   21.5041   -5.0858  -14.7038 C   0  0  2  0  0  0  0  0  0  0  0  0
   21.1830   -6.3381  -14.0861 N   0  0  0  0  0  0  0  0  0  0  0  0
   22.4988   -4.2982  -13.9651 C   0  0  0  0  0  0  0  0  0  0  0  0
   22.8148   -4.5959  -12.7956 O   0  0  0  0  0  0  0  0  0  0  0  0
   23.0942   -3.2129  -14.5701 O   0  0  0  0  0  0  0  0  0  0  0  0
  2  1  1  1
  2  3  1  0
  3  4  1  0
  4  8  1  0
  5  4  2  0
  6  2  1  0
  7  6  2  0
 10  9  1  6
 10 12  1  0
 10 11  1  0
 11  6  1  0
 12 13  2  0
 15 16  1  0
 15 14  1  6
 17 15  1  0
 18 12  1  0
 17 18  1  1
 19 17  1  0
 19 21  1  0
 20 19  2  0
M  END
$$$$
