DAT.pdb
     RDKit          3D

 21 20  0  0  1  0  0  0  0  0999 V2000
   18.4360  -10.6624  -17.5978 N   0  0  0  0  0  0  0  0  0  0  0  0
   19.2317  -10.7869  -16.3971 C   0  0  1  0  0  0  0  0  0  0  0  0
   20.6558  -11.1854  -16.7205 C   0  0  0  0  0  0  0  0  0  0  0  0
   20.6824  -12.5808  -17.2095 C   0  0  0  0  0  0  0  0  0  0  0  0
   19.8678  -13.4132  -16.7509 O   0  0  0  0  0  0  0  0  0  0  0  0
   19.1716   -9.5185  -15.6429 C   0  0  0  0  0  0  0  0  0  0  0  0
   19.2594   -8.4399  -16.2898 O   0  0  0  0  0  0  0  0  0  0  0  0
   21.5884  -13.0004  -18.1682 O   0  0  0  0  0  0  0  0  0  0  0  0
   18.4693   -8.4255  -12.1573 C   0  0  0  0  0  0  0  0  0  0  0  0
   18.9828   -8.1937  -13.5677 C   0  0  2  0  0  0  0  0  0  0  0  0
   19.0203   -9.4588  -14.2300 N   0  0  0  0  0  0  0  0  0  0  0  0
   20.3020   -7.5111  -13.5592 C   0  0  0  0  0  0  0  0  0  0  0  0
   21.3362   -8.1387  -13.2137 O   0  0  0  0  0  0  0  0  0  0  0  0
   22.5232   -6.6827  -16.0552 C   0  0  0  0  0  0  0  0  0  0  0  0
   22.2630   -5.3651  -15.4102 C   0  0  1  0  0  0  0  0  0  0  0  0
   21.3011   -4.6779  -16.1513 O   0  0  0  0  0  0  0  0  0  0  0  0
   21.7314   -5.4846  -14.0011 C   0  0  2  0  0  0  0  0  0  0  0  0
   20.4641   -6.1493  -13.9307 N   0  0  0  0  0  0  0  0  0  0  0  0
   21.7604   -4.1889  -13.3112 C   0  0  0  0  0  0  0  0  0  0  0  0
   22.8384   -3.5995  -13.0954 O   0  0  0  0  0  0  0  0  0  0  0  0
   20.5803   -3.6126  -12.8946 O   0  0  0  0  0  0  0  0  0  0  0  0
  2  1  1  6
  2  3  1  0
  3  4  1  0
  4  8  1  0
  5  4  2  0
  6  2  1  0
  7  6  2  0
 10  9  1  1
 10 12  1  0
 10 11  1  0
 11  6  1  0
 12 13  2  0
 15 16  1  0
 15 14  1  6
 17 15  1  0
 18 12  1  0
 17 18  1  6
 19 17  1  0
 19 21  1  0
 20 19  2  0
M  END
$$$$
