DAT.pdb
     RDKit          3D

 21 20  0  0  1  0  0  0  0  0999 V2000
   16.2663  -11.6396  -16.9800 N   0  0  0  0  0  0  0  0  0  0  0  0
   16.6074  -11.0915  -15.6862 C   0  0  1  0  0  0  0  0  0  0  0  0
   17.4128  -12.0771  -14.8669 C   0  0  0  0  0  0  0  0  0  0  0  0
   16.5686  -13.2400  -14.5177 C   0  0  0  0  0  0  0  0  0  0  0  0
   15.3879  -13.0579  -14.1441 O   0  0  0  0  0  0  0  0  0  0  0  0
   17.3254   -9.8149  -15.8755 C   0  0  0  0  0  0  0  0  0  0  0  0
   18.3572   -9.8172  -16.5999 O   0  0  0  0  0  0  0  0  0  0  0  0
   17.0468  -14.5368  -14.5917 O   0  0  0  0  0  0  0  0  0  0  0  0
   16.7103   -6.2203  -15.3555 C   0  0  0  0  0  0  0  0  0  0  0  0
   17.6593   -7.3966  -15.5042 C   0  0  2  0  0  0  0  0  0  0  0  0
   16.9087   -8.5915  -15.2818 N   0  0  0  0  0  0  0  0  0  0  0  0
   18.8243   -7.2724  -14.5913 C   0  0  0  0  0  0  0  0  0  0  0  0
   18.7190   -7.6069  -13.3830 O   0  0  0  0  0  0  0  0  0  0  0  0
   22.0827   -8.9759  -14.5925 C   0  0  0  0  0  0  0  0  0  0  0  0
   22.3935   -7.5189  -14.5981 C   0  0  1  0  0  0  0  0  0  0  0  0
   22.7267   -7.1298  -15.8959 O   0  0  0  0  0  0  0  0  0  0  0  0
   21.2298   -6.6583  -14.1649 C   0  0  2  0  0  0  0  0  0  0  0  0
   20.0871   -6.7825  -15.0203 N   0  0  0  0  0  0  0  0  0  0  0  0
   21.6517   -5.2707  -13.9370 C   0  0  0  0  0  0  0  0  0  0  0  0
   21.1537   -4.3318  -14.5903 O   0  0  0  0  0  0  0  0  0  0  0  0
   22.6123   -4.9980  -12.9876 O   0  0  0  0  0  0  0  0  0  0  0  0
  2  1  1  6
  2  3  1  0
  3  4  1  0
  4  8  1  0
  5  4  2  0
  6  2  1  0
  7  6  2  0
 10  9  1  1
 10 12  1  0
 10 11  1  0
 11  6  1  0
 12 13  2  0
 15 16  1  0
 15 14  1  6
 17 15  1  0
 18 12  1  0
 17 18  1  6
 19 17  1  0
 19 21  1  0
 20 19  2  0
M  END
$$$$
