DAT.pdb
     RDKit          3D

 21 20  0  0  1  0  0  0  0  0999 V2000
   17.3054  -10.3769  -15.6483 N   0  0  0  0  0  0  0  0  0  0  0  0
   18.6735  -10.0248  -15.9565 C   0  0  1  0  0  0  0  0  0  0  0  0
   18.8220   -9.6141  -17.4059 C   0  0  0  0  0  0  0  0  0  0  0  0
   18.5622  -10.7774  -18.2811 C   0  0  0  0  0  0  0  0  0  0  0  0
   19.1911  -11.8439  -18.0964 O   0  0  0  0  0  0  0  0  0  0  0  0
   19.1193   -8.9616  -15.0334 C   0  0  0  0  0  0  0  0  0  0  0  0
   18.4341   -7.9052  -14.9714 O   0  0  0  0  0  0  0  0  0  0  0  0
   17.6364  -10.7246  -19.3088 O   0  0  0  0  0  0  0  0  0  0  0  0
   21.6078   -8.5104  -12.3244 C   0  0  0  0  0  0  0  0  0  0  0  0
   20.6973   -7.9703  -13.4134 C   0  0  2  0  0  0  0  0  0  0  0  0
   20.2784   -9.0745  -14.2170 N   0  0  0  0  0  0  0  0  0  0  0  0
   21.3690   -6.9073  -14.2041 C   0  0  0  0  0  0  0  0  0  0  0  0
   22.2715   -7.2070  -15.0278 O   0  0  0  0  0  0  0  0  0  0  0  0
   20.4431   -4.8373  -16.9443 C   0  0  0  0  0  0  0  0  0  0  0  0
   20.8248   -3.8709  -15.8765 C   0  0  1  0  0  0  0  0  0  0  0  0
   19.6682   -3.4040  -15.2510 O   0  0  0  0  0  0  0  0  0  0  0  0
   21.6920   -4.4814  -14.8007 C   0  0  2  0  0  0  0  0  0  0  0  0
   21.0383   -5.5313  -14.0773 N   0  0  0  0  0  0  0  0  0  0  0  0
   22.2793   -3.4461  -13.9413 C   0  0  0  0  0  0  0  0  0  0  0  0
   23.0941   -2.6185  -14.3968 O   0  0  0  0  0  0  0  0  0  0  0  0
   21.9272   -3.3849  -12.6106 O   0  0  0  0  0  0  0  0  0  0  0  0
  2  1  1  1
  2  3  1  0
  3  4  1  0
  4  8  1  0
  5  4  2  0
  6  2  1  0
  7  6  2  0
 10  9  1  1
 10 12  1  0
 10 11  1  0
 11  6  1  0
 12 13  2  0
 15 16  1  0
 15 14  1  6
 17 15  1  0
 18 12  1  0
 17 18  1  1
 19 17  1  0
 19 21  1  0
 20 19  2  0
M  END
$$$$
