DAT.pdb
     RDKit          3D

 21 20  0  0  1  0  0  0  0  0999 V2000
   18.7978  -12.4759  -16.6050 N   0  0  0  0  0  0  0  0  0  0  0  0
   19.6453  -11.4908  -17.2387 C   0  0  1  0  0  0  0  0  0  0  0  0
   18.8824  -10.6956  -18.2766 C   0  0  0  0  0  0  0  0  0  0  0  0
   18.4551  -11.5910  -19.3731 C   0  0  0  0  0  0  0  0  0  0  0  0
   17.2348  -11.7514  -19.6016 O   0  0  0  0  0  0  0  0  0  0  0  0
   20.2353  -10.6208  -16.2013 C   0  0  0  0  0  0  0  0  0  0  0  0
   19.4522  -10.0109  -15.4239 O   0  0  0  0  0  0  0  0  0  0  0  0
   19.3704  -12.2644  -20.1635 O   0  0  0  0  0  0  0  0  0  0  0  0
   23.5571  -10.0165  -14.6988 C   0  0  0  0  0  0  0  0  0  0  0  0
   22.1346   -9.5856  -15.0102 C   0  0  2  0  0  0  0  0  0  0  0  0
   21.6369  -10.4408  -16.0406 N   0  0  0  0  0  0  0  0  0  0  0  0
   22.0716   -8.1478  -15.3776 C   0  0  0  0  0  0  0  0  0  0  0  0
   22.4660   -7.7669  -16.5099 O   0  0  0  0  0  0  0  0  0  0  0  0
   19.5323   -5.9803  -16.3088 C   0  0  0  0  0  0  0  0  0  0  0  0
   20.1394   -5.2676  -15.1500 C   0  0  1  0  0  0  0  0  0  0  0  0
   19.3474   -5.4781  -14.0207 O   0  0  0  0  0  0  0  0  0  0  0  0
   21.5289   -5.7541  -14.8109 C   0  0  2  0  0  0  0  0  0  0  0  0
   21.5760   -7.1508  -14.4948 N   0  0  0  0  0  0  0  0  0  0  0  0
   22.1599   -4.8960  -13.8005 C   0  0  0  0  0  0  0  0  0  0  0  0
   22.4917   -5.3509  -12.6873 O   0  0  0  0  0  0  0  0  0  0  0  0
   22.3903   -3.5673  -14.0831 O   0  0  0  0  0  0  0  0  0  0  0  0
  2  1  1  1
  2  3  1  0
  3  4  1  0
  4  8  1  0
  5  4  2  0
  6  2  1  0
  7  6  2  0
 10  9  1  6
 10 12  1  0
 10 11  1  0
 11  6  1  0
 12 13  2  0
 15 16  1  0
 15 14  1  6
 17 15  1  0
 18 12  1  0
 17 18  1  1
 19 17  1  0
 19 21  1  0
 20 19  2  0
M  END
$$$$
