DAT.pdb
     RDKit          3D

 21 20  0  0  1  0  0  0  0  0999 V2000
   18.9375   -9.5543  -15.1884 N   0  0  0  0  0  0  0  0  0  0  0  0
   19.5255   -8.5055  -15.9913 C   0  0  1  0  0  0  0  0  0  0  0  0
   18.7032   -8.2384  -17.2340 C   0  0  0  0  0  0  0  0  0  0  0  0
   18.7204   -9.4317  -18.1072 C   0  0  0  0  0  0  0  0  0  0  0  0
   17.6400   -9.9562  -18.4602 O   0  0  0  0  0  0  0  0  0  0  0  0
   19.6835   -7.2929  -15.1633 C   0  0  0  0  0  0  0  0  0  0  0  0
   18.6491   -6.7874  -14.6495 O   0  0  0  0  0  0  0  0  0  0  0  0
   19.9050   -9.9932  -18.5516 O   0  0  0  0  0  0  0  0  0  0  0  0
   22.3616   -5.4765  -13.4324 C   0  0  0  0  0  0  0  0  0  0  0  0
   21.0124   -5.4865  -14.1295 C   0  0  2  0  0  0  0  0  0  0  0  0
   20.9407   -6.6737  -14.9208 N   0  0  0  0  0  0  0  0  0  0  0  0
   20.8052   -4.2513  -14.9279 C   0  0  0  0  0  0  0  0  0  0  0  0
   21.2898   -4.1580  -16.0852 O   0  0  0  0  0  0  0  0  0  0  0  0
   17.6271   -2.5356  -16.1110 C   0  0  0  0  0  0  0  0  0  0  0  0
   18.4171   -1.5464  -15.3256 C   0  0  1  0  0  0  0  0  0  0  0  0
   17.8874   -1.4610  -14.0375 O   0  0  0  0  0  0  0  0  0  0  0  0
   19.8723   -1.9250  -15.1796 C   0  0  2  0  0  0  0  0  0  0  0  0
   20.0685   -3.1377  -14.4422 N   0  0  0  0  0  0  0  0  0  0  0  0
   20.6677   -0.7948  -14.6842 C   0  0  0  0  0  0  0  0  0  0  0  0
   21.3342   -0.8890  -13.6340 O   0  0  0  0  0  0  0  0  0  0  0  0
   20.6802    0.3897  -15.3881 O   0  0  0  0  0  0  0  0  0  0  0  0
  2  1  1  1
  2  3  1  0
  3  4  1  0
  4  8  1  0
  5  4  2  0
  6  2  1  0
  7  6  2  0
 10  9  1  6
 10 12  1  0
 10 11  1  0
 11  6  1  0
 12 13  2  0
 15 16  1  0
 15 14  1  6
 17 15  1  0
 18 12  1  0
 17 18  1  1
 19 17  1  0
 19 21  1  0
 20 19  2  0
M  END
$$$$
