DAT.pdb
     RDKit          3D

 21 20  0  0  1  0  0  0  0  0999 V2000
   19.4770  -11.6662  -16.8889 N   0  0  0  0  0  0  0  0  0  0  0  0
   18.5660  -10.6948  -16.3259 C   0  0  1  0  0  0  0  0  0  0  0  0
   17.3753  -11.3689  -15.6783 C   0  0  0  0  0  0  0  0  0  0  0  0
   16.6383  -12.1556  -16.6907 C   0  0  0  0  0  0  0  0  0  0  0  0
   16.5951  -11.7541  -17.8755 O   0  0  0  0  0  0  0  0  0  0  0  0
   19.3003   -9.8378  -15.3733 C   0  0  0  0  0  0  0  0  0  0  0  0
   18.6443   -8.9841  -14.7172 O   0  0  0  0  0  0  0  0  0  0  0  0
   15.9881  -13.3339  -16.3670 O   0  0  0  0  0  0  0  0  0  0  0  0
   22.6775   -9.6473  -13.8631 C   0  0  0  0  0  0  0  0  0  0  0  0
   21.3562   -9.0223  -14.2754 C   0  0  2  0  0  0  0  0  0  0  0  0
   20.7039   -9.9311  -15.1637 N   0  0  0  0  0  0  0  0  0  0  0  0
   21.5557   -7.6779  -14.8746 C   0  0  0  0  0  0  0  0  0  0  0  0
   22.0156   -7.5673  -16.0404 O   0  0  0  0  0  0  0  0  0  0  0  0
   19.4226   -5.0973  -16.1082 C   0  0  0  0  0  0  0  0  0  0  0  0
   20.2365   -4.4154  -15.0631 C   0  0  1  0  0  0  0  0  0  0  0  0
   19.4806   -4.3092  -13.8951 O   0  0  0  0  0  0  0  0  0  0  0  0
   21.4982   -5.1653  -14.7051 C   0  0  2  0  0  0  0  0  0  0  0  0
   21.2467   -6.4757  -14.1831 N   0  0  0  0  0  0  0  0  0  0  0  0
   22.3788   -4.3494  -13.8598 C   0  0  0  0  0  0  0  0  0  0  0  0
   22.6804   -4.7140  -12.7056 O   0  0  0  0  0  0  0  0  0  0  0  0
   22.8813   -3.1622  -14.3460 O   0  0  0  0  0  0  0  0  0  0  0  0
  2  1  1  1
  2  3  1  0
  3  4  1  0
  4  8  1  0
  5  4  2  0
  6  2  1  0
  7  6  2  0
 10  9  1  6
 10 12  1  0
 10 11  1  0
 11  6  1  0
 12 13  2  0
 15 16  1  0
 15 14  1  6
 17 15  1  0
 18 12  1  0
 17 18  1  1
 19 17  1  0
 19 21  1  0
 20 19  2  0
M  END
$$$$
