DAT.pdb
     RDKit          3D

 21 20  0  0  1  0  0  0  0  0999 V2000
   17.2200  -11.3013  -15.5123 N   0  0  0  0  0  0  0  0  0  0  0  0
   17.9859  -10.4059  -16.3502 C   0  0  1  0  0  0  0  0  0  0  0  0
   17.0866   -9.4262  -17.0734 C   0  0  0  0  0  0  0  0  0  0  0  0
   16.3122  -10.1371  -18.1135 C   0  0  0  0  0  0  0  0  0  0  0  0
   16.9124  -10.8199  -18.9740 O   0  0  0  0  0  0  0  0  0  0  0  0
   18.9993   -9.7186  -15.5246 C   0  0  0  0  0  0  0  0  0  0  0  0
   18.5988   -9.0221  -14.5530 O   0  0  0  0  0  0  0  0  0  0  0  0
   14.9306  -10.0711  -18.1667 O   0  0  0  0  0  0  0  0  0  0  0  0
   22.6519   -9.8715  -15.0140 C   0  0  0  0  0  0  0  0  0  0  0  0
   21.3207   -9.1487  -14.9049 C   0  0  2  0  0  0  0  0  0  0  0  0
   20.3968   -9.8059  -15.7740 N   0  0  0  0  0  0  0  0  0  0  0  0
   21.4629   -7.7015  -15.2073 C   0  0  0  0  0  0  0  0  0  0  0  0
   21.7142   -7.3225  -16.3804 O   0  0  0  0  0  0  0  0  0  0  0  0
   19.3265   -5.0544  -15.6733 C   0  0  0  0  0  0  0  0  0  0  0  0
   20.2088   -4.5367  -14.5902 C   0  0  1  0  0  0  0  0  0  0  0  0
   19.5482   -4.6599  -13.3674 O   0  0  0  0  0  0  0  0  0  0  0  0
   21.5100   -5.2943  -14.4666 C   0  0  2  0  0  0  0  0  0  0  0  0
   21.3269   -6.6930  -14.2157 N   0  0  0  0  0  0  0  0  0  0  0  0
   22.4194   -4.6364  -13.5203 C   0  0  0  0  0  0  0  0  0  0  0  0
   22.8561   -3.4888  -13.7403 O   0  0  0  0  0  0  0  0  0  0  0  0
   22.7983   -5.2942  -12.3703 O   0  0  0  0  0  0  0  0  0  0  0  0
  2  1  1  1
  2  3  1  0
  3  4  1  0
  4  8  1  0
  5  4  2  0
  6  2  1  0
  7  6  2  0
 10  9  1  6
 10 12  1  0
 10 11  1  0
 11  6  1  0
 12 13  2  0
 15 16  1  0
 15 14  1  6
 17 15  1  0
 18 12  1  0
 17 18  1  1
 19 17  1  0
 19 21  1  0
 20 19  2  0
M  END
$$$$
