DAT.pdb
     RDKit          3D

 21 20  0  0  1  0  0  0  0  0999 V2000
   19.1279  -12.7695  -17.1935 N   0  0  0  0  0  0  0  0  0  0  0  0
   19.8434  -11.6051  -17.6653 C   0  0  1  0  0  0  0  0  0  0  0  0
   18.9875  -10.7747  -18.5978 C   0  0  0  0  0  0  0  0  0  0  0  0
   18.7350  -11.5291  -19.8444 C   0  0  0  0  0  0  0  0  0  0  0  0
   19.6870  -12.0911  -20.4316 O   0  0  0  0  0  0  0  0  0  0  0  0
   20.3134  -10.8225  -16.5043 C   0  0  0  0  0  0  0  0  0  0  0  0
   19.4469  -10.3118  -15.7442 O   0  0  0  0  0  0  0  0  0  0  0  0
   17.4666  -11.6351  -20.3884 O   0  0  0  0  0  0  0  0  0  0  0  0
   23.4988  -10.1822  -14.7232 C   0  0  0  0  0  0  0  0  0  0  0  0
   22.0685   -9.8216  -15.0848 C   0  0  2  0  0  0  0  0  0  0  0  0
   21.6894  -10.6203  -16.2069 N   0  0  0  0  0  0  0  0  0  0  0  0
   21.9246   -8.3658  -15.3419 C   0  0  0  0  0  0  0  0  0  0  0  0
   22.2013   -7.8935  -16.4747 O   0  0  0  0  0  0  0  0  0  0  0  0
   20.0315   -3.9849  -14.7902 C   0  0  0  0  0  0  0  0  0  0  0  0
   20.0599   -5.4684  -14.6567 C   0  0  1  0  0  0  0  0  0  0  0  0
   19.4982   -6.0389  -15.7995 O   0  0  0  0  0  0  0  0  0  0  0  0
   21.4563   -6.0296  -14.5246 C   0  0  2  0  0  0  0  0  0  0  0  0
   21.4788   -7.4514  -14.3498 N   0  0  0  0  0  0  0  0  0  0  0  0
   22.2298   -5.2960  -13.5151 C   0  0  0  0  0  0  0  0  0  0  0  0
   22.7910   -4.2174  -13.7940 O   0  0  0  0  0  0  0  0  0  0  0  0
   22.3394   -5.8042  -12.2391 O   0  0  0  0  0  0  0  0  0  0  0  0
  2  1  1  1
  2  3  1  0
  3  4  1  0
  4  8  1  0
  5  4  2  0
  6  2  1  0
  7  6  2  0
 10  9  1  6
 10 12  1  0
 10 11  1  0
 11  6  1  0
 12 13  2  0
 15 16  1  0
 15 14  1  6
 17 15  1  0
 18 12  1  0
 17 18  1  1
 19 17  1  0
 19 21  1  0
 20 19  2  0
M  END
$$$$
