DAT.pdb
     RDKit          3D

 21 20  0  0  1  0  0  0  0  0999 V2000
   18.5193  -12.2493  -15.7246 N   0  0  0  0  0  0  0  0  0  0  0  0
   18.3488  -10.9484  -16.3322 C   0  0  1  0  0  0  0  0  0  0  0  0
   17.0279  -10.3250  -15.9345 C   0  0  0  0  0  0  0  0  0  0  0  0
   15.9203  -11.0338  -16.6109 C   0  0  0  0  0  0  0  0  0  0  0  0
   14.7383  -10.6797  -16.4000 O   0  0  0  0  0  0  0  0  0  0  0  0
   19.4950  -10.0908  -15.9694 C   0  0  0  0  0  0  0  0  0  0  0  0
   19.6608   -9.8071  -14.7522 O   0  0  0  0  0  0  0  0  0  0  0  0
   16.1507  -12.0870  -17.4791 O   0  0  0  0  0  0  0  0  0  0  0  0
   22.5916   -8.8932  -17.6034 C   0  0  0  0  0  0  0  0  0  0  0  0
   21.5614   -8.8427  -16.4888 C   0  0  2  0  0  0  0  0  0  0  0  0
   20.4139   -9.5738  -16.9239 N   0  0  0  0  0  0  0  0  0  0  0  0
   21.2403   -7.4428  -16.1101 C   0  0  0  0  0  0  0  0  0  0  0  0
   20.3992   -6.7851  -16.7755 O   0  0  0  0  0  0  0  0  0  0  0  0
   19.7305   -5.9435  -13.0593 C   0  0  0  0  0  0  0  0  0  0  0  0
   21.0436   -5.2663  -13.2514 C   0  0  1  0  0  0  0  0  0  0  0  0
   21.9765   -5.8267  -12.3781 O   0  0  0  0  0  0  0  0  0  0  0  0
   21.5976   -5.4229  -14.6481 C   0  0  2  0  0  0  0  0  0  0  0  0
   21.8485   -6.7874  -15.0058 N   0  0  0  0  0  0  0  0  0  0  0  0
   22.7440   -4.5322  -14.8673 C   0  0  0  0  0  0  0  0  0  0  0  0
   23.8723   -4.9910  -15.1365 O   0  0  0  0  0  0  0  0  0  0  0  0
   22.5741   -3.1680  -14.7749 O   0  0  0  0  0  0  0  0  0  0  0  0
  2  1  1  1
  2  3  1  0
  3  4  1  0
  4  8  1  0
  5  4  2  0
  6  2  1  0
  7  6  2  0
 10  9  1  6
 10 12  1  0
 10 11  1  0
 11  6  1  0
 12 13  2  0
 15 16  1  0
 15 14  1  6
 17 15  1  0
 18 12  1  0
 17 18  1  1
 19 17  1  0
 19 21  1  0
 20 19  2  0
M  END
$$$$
