MSM.pdb
     RDKit          3D

 23 22  0  0  1  0  0  0  0  0999 V2000
    9.0320  -11.5819   19.8153 C   0  0  0  0  0  0  0  0  0  0  0  0
    7.7539  -12.4630   18.9007 S   0  0  0  0  0  0  0  0  0  0  0  0
    8.0337  -14.2449   19.0808 C   0  0  0  0  0  0  0  0  0  0  0  0
    8.1503  -14.5752   20.5715 C   0  0  0  0  0  0  0  0  0  0  0  0
    8.2887  -16.0934   20.7470 C   0  0  2  0  0  0  0  0  0  0  0  0
    7.0646  -16.6988   20.2503 N   0  0  0  0  0  0  0  0  0  0  0  0
    8.5244  -16.3785   22.1640 C   0  0  0  0  0  0  0  0  0  0  0  0
    7.5296  -16.2763   22.9425 O   0  0  0  0  0  0  0  0  0  0  0  0
   12.1436  -17.7900   23.6625 O   0  0  0  0  0  0  0  0  0  0  0  0
   10.9672  -18.2945   24.1937 C   0  0  0  0  0  0  0  0  0  0  0  0
    9.9119  -17.2115   24.1160 C   0  0  2  0  0  0  0  0  0  0  0  0
    9.7476  -16.7544   22.7431 N   0  0  0  0  0  0  0  0  0  0  0  0
   10.2106  -16.0762   25.0206 C   0  0  0  0  0  0  0  0  0  0  0  0
   11.1262  -15.2696   24.6661 O   0  0  0  0  0  0  0  0  0  0  0  0
    5.7634  -13.0601   27.2177 C   0  0  0  0  0  0  0  0  0  0  0  0
    7.2329  -12.0071   27.1562 S   0  0  0  0  0  0  0  0  0  0  0  0
    8.6267  -13.0559   26.5987 C   0  0  0  0  0  0  0  0  0  0  0  0
    9.1207  -13.9216   27.7212 C   0  0  0  0  0  0  0  0  0  0  0  0
   10.1391  -14.8887   27.2431 C   0  0  2  0  0  0  0  0  0  0  0  0
    9.5704  -15.8032   26.2446 N   0  0  0  0  0  0  0  0  0  0  0  0
   10.7860  -15.6088   28.3244 C   0  0  0  0  0  0  0  0  0  0  0  0
   10.7492  -16.8354   28.5029 O   0  0  0  0  0  0  0  0  0  0  0  0
   11.5273  -14.8685   29.2669 O   0  0  0  0  0  0  0  0  0  0  0  0
  1  2  1  0
  3  2  1  0
  4  3  1  0
  5  6  1  1
  5  7  1  0
  5  4  1  0
  7  8  2  0
 10  9  1  0
 11 10  1  6
 11 13  1  0
 12  7  1  0
 12 11  1  0
 13 14  2  0
 13 20  1  0
 15 16  1  0
 17 16  1  0
 18 17  1  0
 19 18  1  1
 20 19  1  0
 21 19  1  0
 21 23  1  0
 22 21  2  0
M  END
$$$$
