MSM.pdb
     RDKit          3D

 23 22  0  0  1  0  0  0  0  0999 V2000
    5.8057  -12.2727   26.5177 C   0  0  0  0  0  0  0  0  0  0  0  0
    6.7583  -11.4261   25.2441 S   0  0  0  0  0  0  0  0  0  0  0  0
    6.9287  -12.5290   23.8157 C   0  0  0  0  0  0  0  0  0  0  0  0
    7.7165  -13.7700   24.2450 C   0  0  0  0  0  0  0  0  0  0  0  0
    7.9174  -14.6896   23.0331 C   0  0  2  0  0  0  0  0  0  0  0  0
    6.6005  -15.1190   22.5939 N   0  0  0  0  0  0  0  0  0  0  0  0
    8.7709  -15.8097   23.4354 C   0  0  0  0  0  0  0  0  0  0  0  0
    8.2650  -16.6607   24.2264 O   0  0  0  0  0  0  0  0  0  0  0  0
   12.6999  -16.1182   22.3003 O   0  0  0  0  0  0  0  0  0  0  0  0
   12.1091  -17.3402   22.5800 C   0  0  0  0  0  0  0  0  0  0  0  0
   10.9523  -17.0993   23.5267 C   0  0  2  0  0  0  0  0  0  0  0  0
   10.0969  -16.0312   23.0283 N   0  0  0  0  0  0  0  0  0  0  0  0
   11.4115  -16.8106   24.9059 C   0  0  0  0  0  0  0  0  0  0  0  0
   12.2810  -15.8962   25.0549 O   0  0  0  0  0  0  0  0  0  0  0  0
    8.6858  -13.8403   27.6166 C   0  0  0  0  0  0  0  0  0  0  0  0
   10.3275  -13.4763   28.2833 S   0  0  0  0  0  0  0  0  0  0  0  0
   11.4499  -14.8059   27.7125 C   0  0  0  0  0  0  0  0  0  0  0  0
   10.9325  -16.1518   28.1300 C   0  0  0  0  0  0  0  0  0  0  0  0
   11.6081  -17.2406   27.3821 C   0  0  2  0  0  0  0  0  0  0  0  0
   10.9714  -17.4577   26.0766 N   0  0  0  0  0  0  0  0  0  0  0  0
   11.7064  -18.4723   28.1432 C   0  0  0  0  0  0  0  0  0  0  0  0
   12.2528  -18.5998   29.2492 O   0  0  0  0  0  0  0  0  0  0  0  0
   11.1375  -19.6397   27.5962 O   0  0  0  0  0  0  0  0  0  0  0  0
  1  2  1  0
  3  2  1  0
  4  3  1  0
  5  6  1  1
  5  7  1  0
  5  4  1  0
  7  8  2  0
 10  9  1  0
 11 10  1  6
 11 13  1  0
 12  7  1  0
 12 11  1  0
 13 14  2  0
 13 20  1  0
 15 16  1  0
 17 16  1  0
 18 17  1  0
 19 18  1  1
 20 19  1  0
 21 19  1  0
 21 23  1  0
 22 21  2  0
M  END
$$$$
