MSM.pdb
     RDKit          3D

 23 22  0  0  1  0  0  0  0  0999 V2000
    8.5385  -11.6107   19.7160 C   0  0  0  0  0  0  0  0  0  0  0  0
    7.7144  -12.5515   18.4191 S   0  0  0  0  0  0  0  0  0  0  0  0
    8.4913  -14.1852   18.3026 C   0  0  0  0  0  0  0  0  0  0  0  0
    8.3438  -14.8960   19.6509 C   0  0  0  0  0  0  0  0  0  0  0  0
    8.8973  -16.3227   19.5372 C   0  0  2  0  0  0  0  0  0  0  0  0
    8.0361  -17.0479   18.6184 N   0  0  0  0  0  0  0  0  0  0  0  0
    8.9247  -16.9191   20.8745 C   0  0  0  0  0  0  0  0  0  0  0  0
    7.8068  -17.2135   21.3939 O   0  0  0  0  0  0  0  0  0  0  0  0
   12.4087  -17.7132   23.0679 O   0  0  0  0  0  0  0  0  0  0  0  0
   11.2935  -18.5029   23.2989 C   0  0  0  0  0  0  0  0  0  0  0  0
   10.0600  -17.6726   23.0129 C   0  0  2  0  0  0  0  0  0  0  0  0
   10.0715  -17.1963   21.6367 N   0  0  0  0  0  0  0  0  0  0  0  0
    9.9148  -16.5446   23.9631 C   0  0  0  0  0  0  0  0  0  0  0  0
   10.5814  -15.4892   23.7263 O   0  0  0  0  0  0  0  0  0  0  0  0
    6.6477  -10.8903   27.6505 C   0  0  0  0  0  0  0  0  0  0  0  0
    6.5577  -12.2170   26.4242 S   0  0  0  0  0  0  0  0  0  0  0  0
    7.8265  -13.4579   26.8760 C   0  0  0  0  0  0  0  0  0  0  0  0
    7.9086  -14.5354   25.8340 C   0  0  0  0  0  0  0  0  0  0  0  0
    9.0903  -15.4048   26.0550 C   0  0  2  0  0  0  0  0  0  0  0  0
    9.1007  -16.5305   25.1119 N   0  0  0  0  0  0  0  0  0  0  0  0
    9.2119  -15.8543   27.4295 C   0  0  0  0  0  0  0  0  0  0  0  0
    9.3113  -15.1226   28.4258 O   0  0  0  0  0  0  0  0  0  0  0  0
    9.2200  -17.2414   27.6776 O   0  0  0  0  0  0  0  0  0  0  0  0
  1  2  1  0
  3  2  1  0
  4  3  1  0
  5  6  1  6
  5  7  1  0
  5  4  1  0
  7  8  2  0
 10  9  1  0
 11 10  1  1
 11 13  1  0
 12  7  1  0
 12 11  1  0
 13 14  2  0
 13 20  1  0
 15 16  1  0
 17 16  1  0
 18 17  1  0
 19 18  1  1
 20 19  1  0
 21 19  1  0
 21 23  1  0
 22 21  2  0
M  END
$$$$
