MSM.pdb
     RDKit          3D

 23 22  0  0  1  0  0  0  0  0999 V2000
    7.6868  -12.8009   16.2820 C   0  0  0  0  0  0  0  0  0  0  0  0
    7.8264  -12.9940   18.0680 S   0  0  0  0  0  0  0  0  0  0  0  0
    6.6550  -14.2674   18.6085 C   0  0  0  0  0  0  0  0  0  0  0  0
    6.8595  -14.5190   20.1050 C   0  0  0  0  0  0  0  0  0  0  0  0
    8.3620  -14.5480   20.4155 C   0  0  2  0  0  0  0  0  0  0  0  0
    9.0409  -15.0191   19.2202 N   0  0  0  0  0  0  0  0  0  0  0  0
    8.5817  -15.4215   21.5703 C   0  0  0  0  0  0  0  0  0  0  0  0
    7.9195  -15.1624   22.6193 O   0  0  0  0  0  0  0  0  0  0  0  0
   11.8916  -17.9214   22.2444 O   0  0  0  0  0  0  0  0  0  0  0  0
   10.6433  -18.4695   22.4931 C   0  0  0  0  0  0  0  0  0  0  0  0
    9.6859  -17.3395   22.8079 C   0  0  2  0  0  0  0  0  0  0  0  0
    9.4562  -16.5192   21.6266 N   0  0  0  0  0  0  0  0  0  0  0  0
   10.1547  -16.5122   23.9447 C   0  0  0  0  0  0  0  0  0  0  0  0
   10.8048  -15.4553   23.6716 O   0  0  0  0  0  0  0  0  0  0  0  0
    6.6100  -11.6053   27.8385 C   0  0  0  0  0  0  0  0  0  0  0  0
    6.7888  -12.8819   26.5694 S   0  0  0  0  0  0  0  0  0  0  0  0
    8.2601  -13.8795   27.0094 C   0  0  0  0  0  0  0  0  0  0  0  0
    8.5324  -14.9149   25.9573 C   0  0  0  0  0  0  0  0  0  0  0  0
    9.7253  -15.7271   26.3015 C   0  0  2  0  0  0  0  0  0  0  0  0
    9.9454  -16.7877   25.3097 N   0  0  0  0  0  0  0  0  0  0  0  0
    9.6782  -16.2561   27.6520 C   0  0  0  0  0  0  0  0  0  0  0  0
   10.1322  -15.7019   28.6643 O   0  0  0  0  0  0  0  0  0  0  0  0
    9.0668  -17.5095   27.8548 O   0  0  0  0  0  0  0  0  0  0  0  0
  1  2  1  0
  3  2  1  0
  4  3  1  0
  5  6  1  6
  5  7  1  0
  5  4  1  0
  7  8  2  0
 10  9  1  0
 11 10  1  6
 11 13  1  0
 12  7  1  0
 12 11  1  0
 13 14  2  0
 13 20  1  0
 15 16  1  0
 17 16  1  0
 18 17  1  0
 19 18  1  6
 20 19  1  0
 21 19  1  0
 21 23  1  0
 22 21  2  0
M  END
$$$$
