MSM.pdb
     RDKit          3D

 23 22  0  0  1  0  0  0  0  0999 V2000
    7.8818  -11.5442   19.7178 C   0  0  0  0  0  0  0  0  0  0  0  0
    8.2396  -12.5412   18.2603 S   0  0  0  0  0  0  0  0  0  0  0  0
    7.6086  -14.2184   18.5337 C   0  0  0  0  0  0  0  0  0  0  0  0
    8.0201  -14.6750   19.9362 C   0  0  0  0  0  0  0  0  0  0  0  0
    8.7753  -16.0071   19.8366 C   0  0  2  0  0  0  0  0  0  0  0  0
    8.0271  -16.8608   18.9295 N   0  0  0  0  0  0  0  0  0  0  0  0
    8.8923  -16.5774   21.1804 C   0  0  0  0  0  0  0  0  0  0  0  0
    8.0121  -16.2370   22.0262 O   0  0  0  0  0  0  0  0  0  0  0  0
   12.2683  -18.4988   22.6731 O   0  0  0  0  0  0  0  0  0  0  0  0
   11.0593  -19.0595   23.0532 C   0  0  0  0  0  0  0  0  0  0  0  0
    9.9961  -17.9840   22.9784 C   0  0  2  0  0  0  0  0  0  0  0  0
    9.8868  -17.4657   21.6218 N   0  0  0  0  0  0  0  0  0  0  0  0
   10.2422  -16.8887   23.9460 C   0  0  0  0  0  0  0  0  0  0  0  0
   11.0509  -15.9718   23.6001 O   0  0  0  0  0  0  0  0  0  0  0  0
    6.7797  -12.0920   27.5074 C   0  0  0  0  0  0  0  0  0  0  0  0
    6.9308  -13.0179   25.9607 S   0  0  0  0  0  0  0  0  0  0  0  0
    7.8531  -14.5543   26.3380 C   0  0  0  0  0  0  0  0  0  0  0  0
    9.2733  -14.4501   25.8630 C   0  0  0  0  0  0  0  0  0  0  0  0
   10.0281  -15.6934   26.1552 C   0  0  2  0  0  0  0  0  0  0  0  0
    9.6595  -16.7659   25.2220 N   0  0  0  0  0  0  0  0  0  0  0  0
    9.9042  -16.1180   27.5374 C   0  0  0  0  0  0  0  0  0  0  0  0
   10.1736  -15.4310   28.5341 O   0  0  0  0  0  0  0  0  0  0  0  0
    9.4383  -17.4231   27.7934 O   0  0  0  0  0  0  0  0  0  0  0  0
  1  2  1  0
  3  2  1  0
  4  3  1  0
  5  6  1  6
  5  7  1  0
  5  4  1  0
  7  8  2  0
 10  9  1  0
 11 10  1  6
 11 13  1  0
 12  7  1  0
 12 11  1  0
 13 14  2  0
 13 20  1  0
 15 16  1  0
 17 16  1  0
 18 17  1  0
 19 18  1  1
 20 19  1  0
 21 19  1  0
 21 23  1  0
 22 21  2  0
M  END
$$$$
