MSM.pdb
     RDKit          3D

 23 22  0  0  1  0  0  0  0  0999 V2000
    5.9519  -11.3167   25.3786 C   0  0  0  0  0  0  0  0  0  0  0  0
    6.7051  -12.8666   25.9048 S   0  0  0  0  0  0  0  0  0  0  0  0
    7.7229  -13.5083   24.5491 C   0  0  0  0  0  0  0  0  0  0  0  0
    6.8068  -14.1842   23.5250 C   0  0  0  0  0  0  0  0  0  0  0  0
    7.6491  -14.6984   22.3499 C   0  0  2  0  0  0  0  0  0  0  0  0
    6.7264  -15.1566   21.3252 N   0  0  0  0  0  0  0  0  0  0  0  0
    8.5258  -15.7654   22.8376 C   0  0  0  0  0  0  0  0  0  0  0  0
    8.0256  -16.5853   23.6644 O   0  0  0  0  0  0  0  0  0  0  0  0
   12.5453  -16.0312   21.9208 O   0  0  0  0  0  0  0  0  0  0  0  0
   11.9020  -17.2513   22.0550 C   0  0  0  0  0  0  0  0  0  0  0  0
   10.7047  -17.0564   22.9611 C   0  0  2  0  0  0  0  0  0  0  0  0
    9.8682  -15.9671   22.4767 N   0  0  0  0  0  0  0  0  0  0  0  0
   11.1032  -16.8321   24.3708 C   0  0  0  0  0  0  0  0  0  0  0  0
   12.0520  -16.0156   24.5888 O   0  0  0  0  0  0  0  0  0  0  0  0
   11.2421  -13.0797   28.6702 C   0  0  0  0  0  0  0  0  0  0  0  0
   10.0248  -14.3507   29.0886 S   0  0  0  0  0  0  0  0  0  0  0  0
   10.8423  -15.9749   28.8710 C   0  0  0  0  0  0  0  0  0  0  0  0
   10.1470  -16.7806   27.8124 C   0  0  0  0  0  0  0  0  0  0  0  0
   11.1186  -17.3391   26.8402 C   0  0  2  0  0  0  0  0  0  0  0  0
   10.5250  -17.4416   25.5008 N   0  0  0  0  0  0  0  0  0  0  0  0
   11.6890  -18.6013   27.2730 C   0  0  0  0  0  0  0  0  0  0  0  0
   12.3855  -18.7737   28.2845 O   0  0  0  0  0  0  0  0  0  0  0  0
   11.4423  -19.7464   26.4896 O   0  0  0  0  0  0  0  0  0  0  0  0
  1  2  1  0
  3  2  1  0
  4  3  1  0
  5  6  1  6
  5  7  1  0
  5  4  1  0
  7  8  2  0
 10  9  1  0
 11 10  1  6
 11 13  1  0
 12  7  1  0
 12 11  1  0
 13 14  2  0
 13 20  1  0
 15 16  1  0
 17 16  1  0
 18 17  1  0
 19 18  1  1
 20 19  1  0
 21 19  1  0
 21 23  1  0
 22 21  2  0
M  END
$$$$
