MSM.pdb
     RDKit          3D

 23 22  0  0  1  0  0  0  0  0999 V2000
    7.9745  -11.9482   20.2588 C   0  0  0  0  0  0  0  0  0  0  0  0
    8.1905  -12.5838   18.5867 S   0  0  0  0  0  0  0  0  0  0  0  0
    8.4569  -14.3746   18.6752 C   0  0  0  0  0  0  0  0  0  0  0  0
    8.5101  -14.7908   20.1478 C   0  0  0  0  0  0  0  0  0  0  0  0
    8.7820  -16.2981   20.2412 C   0  0  2  0  0  0  0  0  0  0  0  0
    7.6939  -16.9763   19.5573 N   0  0  0  0  0  0  0  0  0  0  0  0
    8.8766  -16.6672   21.6553 C   0  0  0  0  0  0  0  0  0  0  0  0
    7.8141  -16.5859   22.3413 O   0  0  0  0  0  0  0  0  0  0  0  0
   12.4156  -17.7479   23.6386 O   0  0  0  0  0  0  0  0  0  0  0  0
   11.2578  -18.4378   23.9611 C   0  0  0  0  0  0  0  0  0  0  0  0
   10.0784  -17.5197   23.7189 C   0  0  2  0  0  0  0  0  0  0  0  0
   10.0323  -17.1027   22.3243 N   0  0  0  0  0  0  0  0  0  0  0  0
   10.0912  -16.3455   24.6231 C   0  0  0  0  0  0  0  0  0  0  0  0
   10.7292  -15.3163   24.2381 O   0  0  0  0  0  0  0  0  0  0  0  0
    6.3981  -11.9647   26.3002 C   0  0  0  0  0  0  0  0  0  0  0  0
    6.9720  -12.2409   27.9933 S   0  0  0  0  0  0  0  0  0  0  0  0
    8.5176  -13.2175   27.8878 C   0  0  0  0  0  0  0  0  0  0  0  0
    8.3670  -14.3436   26.9066 C   0  0  0  0  0  0  0  0  0  0  0  0
    9.6314  -15.1077   26.7705 C   0  0  2  0  0  0  0  0  0  0  0  0
    9.4575  -16.2607   25.8777 N   0  0  0  0  0  0  0  0  0  0  0  0
   10.1957  -15.4987   28.0491 C   0  0  0  0  0  0  0  0  0  0  0  0
   10.3183  -16.6614   28.4627 O   0  0  0  0  0  0  0  0  0  0  0  0
   10.6514  -14.4835   28.9137 O   0  0  0  0  0  0  0  0  0  0  0  0
  1  2  1  0
  3  2  1  0
  4  3  1  0
  5  6  1  1
  5  7  1  0
  5  4  1  0
  7  8  2  0
 10  9  1  0
 11 10  1  6
 11 13  1  0
 12  7  1  0
 12 11  1  0
 13 14  2  0
 13 20  1  0
 15 16  1  0
 17 16  1  0
 18 17  1  0
 19 18  1  1
 20 19  1  0
 21 19  1  0
 21 23  1  0
 22 21  2  0
M  END
$$$$
