MSM.pdb
     RDKit          3D

 23 22  0  0  1  0  0  0  0  0999 V2000
    7.3608  -11.8023   18.3451 C   0  0  0  0  0  0  0  0  0  0  0  0
    7.5507  -12.4547   20.0139 S   0  0  0  0  0  0  0  0  0  0  0  0
    8.0114  -14.2045   19.9053 C   0  0  0  0  0  0  0  0  0  0  0  0
    8.1973  -14.7520   21.3232 C   0  0  0  0  0  0  0  0  0  0  0  0
    8.5131  -16.2520   21.2522 C   0  0  2  0  0  0  0  0  0  0  0  0
    7.3365  -16.9161   20.7173 N   0  0  0  0  0  0  0  0  0  0  0  0
    8.8622  -16.7182   22.5959 C   0  0  0  0  0  0  0  0  0  0  0  0
    7.9157  -16.8144   23.4331 O   0  0  0  0  0  0  0  0  0  0  0  0
   12.7726  -17.3067   24.0023 O   0  0  0  0  0  0  0  0  0  0  0  0
   11.8040  -18.1961   24.4397 C   0  0  0  0  0  0  0  0  0  0  0  0
   10.4646  -17.4910   24.4027 C   0  0  2  0  0  0  0  0  0  0  0  0
   10.1457  -17.0690   23.0458 N   0  0  0  0  0  0  0  0  0  0  0  0
   10.4122  -16.3445   25.3404 C   0  0  0  0  0  0  0  0  0  0  0  0
   10.9755  -15.2648   24.9782 O   0  0  0  0  0  0  0  0  0  0  0  0
    7.0487  -10.8304   26.0079 C   0  0  0  0  0  0  0  0  0  0  0  0
    6.8976  -12.4325   26.8342 S   0  0  0  0  0  0  0  0  0  0  0  0
    8.5671  -13.1841   26.8660 C   0  0  0  0  0  0  0  0  0  0  0  0
    8.5436  -14.4970   27.5935 C   0  0  0  0  0  0  0  0  0  0  0  0
    9.8573  -15.1808   27.5067 C   0  0  2  0  0  0  0  0  0  0  0  0
    9.7913  -16.3375   26.6043 N   0  0  0  0  0  0  0  0  0  0  0  0
   10.3927  -15.5430   28.8060 C   0  0  0  0  0  0  0  0  0  0  0  0
   10.7603  -14.7500   29.6858 O   0  0  0  0  0  0  0  0  0  0  0  0
   10.5147  -16.9120   29.1172 O   0  0  0  0  0  0  0  0  0  0  0  0
  1  2  1  0
  3  2  1  0
  4  3  1  0
  5  6  1  1
  5  7  1  0
  5  4  1  0
  7  8  2  0
 10  9  1  0
 11 10  1  6
 11 13  1  0
 12  7  1  0
 12 11  1  0
 13 14  2  0
 13 20  1  0
 15 16  1  0
 17 16  1  0
 18 17  1  0
 19 18  1  1
 20 19  1  0
 21 19  1  0
 21 23  1  0
 22 21  2  0
M  END
$$$$
