MSM.pdb
     RDKit          3D

 23 22  0  0  1  0  0  0  0  0999 V2000
    6.5786  -12.8445   19.6003 C   0  0  0  0  0  0  0  0  0  0  0  0
    7.7810  -12.9408   18.2619 S   0  0  0  0  0  0  0  0  0  0  0  0
    9.1922  -13.9332   18.8181 C   0  0  0  0  0  0  0  0  0  0  0  0
    9.5404  -13.5298   20.2537 C   0  0  0  0  0  0  0  0  0  0  0  0
   10.7079  -14.3903   20.7550 C   0  0  2  0  0  0  0  0  0  0  0  0
   11.0857  -15.2799   19.6699 N   0  0  0  0  0  0  0  0  0  0  0  0
   10.2724  -15.1136   21.9517 C   0  0  0  0  0  0  0  0  0  0  0  0
    9.7969  -14.4198   22.8996 O   0  0  0  0  0  0  0  0  0  0  0  0
   11.6200  -18.8235   23.2442 O   0  0  0  0  0  0  0  0  0  0  0  0
   10.2437  -18.6659   23.2798 C   0  0  0  0  0  0  0  0  0  0  0  0
    9.9404  -17.1856   23.3752 C   0  0  2  0  0  0  0  0  0  0  0  0
   10.3313  -16.5030   22.1496 N   0  0  0  0  0  0  0  0  0  0  0  0
   10.5800  -16.5606   24.5571 C   0  0  0  0  0  0  0  0  0  0  0  0
   11.4510  -15.6603   24.3446 O   0  0  0  0  0  0  0  0  0  0  0  0
    6.7702  -12.8430   26.5226 C   0  0  0  0  0  0  0  0  0  0  0  0
    8.3344  -12.2725   27.2296 S   0  0  0  0  0  0  0  0  0  0  0  0
    9.2695  -13.7604   27.7448 C   0  0  0  0  0  0  0  0  0  0  0  0
    9.4389  -14.7057   26.5911 C   0  0  0  0  0  0  0  0  0  0  0  0
   10.3061  -15.8514   26.9606 C   0  0  2  0  0  0  0  0  0  0  0  0
   10.3114  -16.8713   25.9040 N   0  0  0  0  0  0  0  0  0  0  0  0
    9.9716  -16.4192   28.2536 C   0  0  0  0  0  0  0  0  0  0  0  0
    9.3552  -17.4784   28.4431 O   0  0  0  0  0  0  0  0  0  0  0  0
   10.3731  -15.7219   29.4105 O   0  0  0  0  0  0  0  0  0  0  0  0
  1  2  1  0
  3  2  1  0
  4  3  1  0
  5  6  1  6
  5  7  1  0
  5  4  1  0
  7  8  2  0
 10  9  1  0
 11 10  1  6
 11 13  1  0
 12  7  1  0
 12 11  1  0
 13 14  2  0
 13 20  1  0
 15 16  1  0
 17 16  1  0
 18 17  1  0
 19 18  1  6
 20 19  1  0
 21 19  1  0
 21 23  1  0
 22 21  2  0
M  END
$$$$
