MSM.pdb
     RDKit          3D

 23 22  0  0  1  0  0  0  0  0999 V2000
    8.1574  -11.7368   20.1033 C   0  0  0  0  0  0  0  0  0  0  0  0
    8.6015  -12.4748   18.5207 S   0  0  0  0  0  0  0  0  0  0  0  0
    8.2830  -14.2575   18.6005 C   0  0  0  0  0  0  0  0  0  0  0  0
    8.6059  -14.7510   20.0137 C   0  0  0  0  0  0  0  0  0  0  0  0
    8.4148  -16.2722   20.0775 C   0  0  2  0  0  0  0  0  0  0  0  0
    7.0483  -16.5532   19.6709 N   0  0  0  0  0  0  0  0  0  0  0  0
    8.7007  -16.7203   21.4421 C   0  0  0  0  0  0  0  0  0  0  0  0
    7.7575  -16.6323   22.2839 O   0  0  0  0  0  0  0  0  0  0  0  0
   12.5108  -17.6153   23.0719 O   0  0  0  0  0  0  0  0  0  0  0  0
   11.4572  -18.4713   23.3506 C   0  0  0  0  0  0  0  0  0  0  0  0
   10.1706  -17.6767   23.2737 C   0  0  2  0  0  0  0  0  0  0  0  0
    9.9205  -17.2384   21.9075 N   0  0  0  0  0  0  0  0  0  0  0  0
   10.1693  -16.5262   24.2080 C   0  0  0  0  0  0  0  0  0  0  0  0
   10.7029  -15.4451   23.8071 O   0  0  0  0  0  0  0  0  0  0  0  0
    6.1506  -12.2468   25.8027 C   0  0  0  0  0  0  0  0  0  0  0  0
    6.6035  -12.7974   27.4651 S   0  0  0  0  0  0  0  0  0  0  0  0
    8.2813  -13.5231   27.3560 C   0  0  0  0  0  0  0  0  0  0  0  0
    8.2821  -14.7233   26.4544 C   0  0  0  0  0  0  0  0  0  0  0  0
    9.6378  -15.3178   26.3556 C   0  0  2  0  0  0  0  0  0  0  0  0
    9.6275  -16.5168   25.5076 N   0  0  0  0  0  0  0  0  0  0  0  0
   10.2349  -15.5816   27.6517 C   0  0  0  0  0  0  0  0  0  0  0  0
   10.4891  -16.7020   28.1187 O   0  0  0  0  0  0  0  0  0  0  0  0
   10.5634  -14.4818   28.4692 O   0  0  0  0  0  0  0  0  0  0  0  0
  1  2  1  0
  3  2  1  0
  4  3  1  0
  5  6  1  1
  5  7  1  0
  5  4  1  0
  7  8  2  0
 10  9  1  0
 11 10  1  6
 11 13  1  0
 12  7  1  0
 12 11  1  0
 13 14  2  0
 13 20  1  0
 15 16  1  0
 17 16  1  0
 18 17  1  0
 19 18  1  1
 20 19  1  0
 21 19  1  0
 21 23  1  0
 22 21  2  0
M  END
$$$$
