MSM.pdb
     RDKit          3D

 23 22  0  0  1  0  0  0  0  0999 V2000
    8.2342  -11.7378   20.3208 C   0  0  0  0  0  0  0  0  0  0  0  0
    8.5170  -12.9038   18.9766 S   0  0  0  0  0  0  0  0  0  0  0  0
    7.3138  -14.2526   19.1140 C   0  0  0  0  0  0  0  0  0  0  0  0
    7.4708  -14.9124   20.4869 C   0  0  0  0  0  0  0  0  0  0  0  0
    8.8345  -15.6119   20.5624 C   0  0  2  0  0  0  0  0  0  0  0  0
    8.8718  -16.6011   19.4985 N   0  0  0  0  0  0  0  0  0  0  0  0
    8.9787  -16.2081   21.8923 C   0  0  0  0  0  0  0  0  0  0  0  0
    7.9920  -16.0981   22.6799 O   0  0  0  0  0  0  0  0  0  0  0  0
   12.5759  -17.6996   23.5964 O   0  0  0  0  0  0  0  0  0  0  0  0
   11.3927  -18.3863   23.8175 C   0  0  0  0  0  0  0  0  0  0  0  0
   10.2501  -17.3960   23.7367 C   0  0  2  0  0  0  0  0  0  0  0  0
   10.1061  -16.8903   22.3786 N   0  0  0  0  0  0  0  0  0  0  0  0
   10.4078  -16.2831   24.7027 C   0  0  0  0  0  0  0  0  0  0  0  0
   10.8497  -15.1784   24.2571 O   0  0  0  0  0  0  0  0  0  0  0  0
    6.2298  -12.0457   27.9064 C   0  0  0  0  0  0  0  0  0  0  0  0
    7.7271  -11.8164   26.9176 S   0  0  0  0  0  0  0  0  0  0  0  0
    8.9541  -13.0438   27.5019 C   0  0  0  0  0  0  0  0  0  0  0  0
    8.9934  -14.2318   26.5851 C   0  0  0  0  0  0  0  0  0  0  0  0
   10.1178  -15.1366   26.9290 C   0  0  2  0  0  0  0  0  0  0  0  0
   10.1108  -16.3336   26.0783 N   0  0  0  0  0  0  0  0  0  0  0  0
   10.1561  -15.4796   28.3386 C   0  0  0  0  0  0  0  0  0  0  0  0
    9.8685  -16.5837   28.8245 O   0  0  0  0  0  0  0  0  0  0  0  0
   10.5526  -14.4850   29.2548 O   0  0  0  0  0  0  0  0  0  0  0  0
  1  2  1  0
  3  2  1  0
  4  3  1  0
  5  6  1  6
  5  7  1  0
  5  4  1  0
  7  8  2  0
 10  9  1  0
 11 10  1  6
 11 13  1  0
 12  7  1  0
 12 11  1  0
 13 14  2  0
 13 20  1  0
 15 16  1  0
 17 16  1  0
 18 17  1  0
 19 18  1  1
 20 19  1  0
 21 19  1  0
 21 23  1  0
 22 21  2  0
M  END
$$$$
