MSM.pdb
     RDKit          3D

 23 22  0  0  1  0  0  0  0  0999 V2000
    8.2559  -12.0246   20.7794 C   0  0  0  0  0  0  0  0  0  0  0  0
    8.1982  -12.3391   19.0062 S   0  0  0  0  0  0  0  0  0  0  0  0
    7.4608  -13.9716   18.7288 C   0  0  0  0  0  0  0  0  0  0  0  0
    7.3374  -14.6897   20.0756 C   0  0  0  0  0  0  0  0  0  0  0  0
    8.3402  -15.8501   20.1273 C   0  0  2  0  0  0  0  0  0  0  0  0
    7.9918  -16.7698   19.0575 N   0  0  0  0  0  0  0  0  0  0  0  0
    8.2655  -16.4710   21.4516 C   0  0  0  0  0  0  0  0  0  0  0  0
    7.1095  -16.6298   21.9460 O   0  0  0  0  0  0  0  0  0  0  0  0
    9.6210  -19.8621   22.4626 O   0  0  0  0  0  0  0  0  0  0  0  0
    8.6393  -19.0887   23.0615 C   0  0  0  0  0  0  0  0  0  0  0  0
    9.2450  -17.7460   23.4124 C   0  0  2  0  0  0  0  0  0  0  0  0
    9.3527  -16.9076   22.2265 N   0  0  0  0  0  0  0  0  0  0  0  0
   10.5587  -17.8855   24.0840 C   0  0  0  0  0  0  0  0  0  0  0  0
   11.0712  -19.0471   24.1336 O   0  0  0  0  0  0  0  0  0  0  0  0
    9.8378  -13.2604   29.6781 C   0  0  0  0  0  0  0  0  0  0  0  0
    9.8963  -13.6088   27.9040 S   0  0  0  0  0  0  0  0  0  0  0  0
    9.5683  -15.3981   27.6932 C   0  0  0  0  0  0  0  0  0  0  0  0
    9.7732  -15.8097   26.2642 C   0  0  0  0  0  0  0  0  0  0  0  0
   11.1044  -16.4363   26.0732 C   0  0  2  0  0  0  0  0  0  0  0  0
   11.2996  -16.8447   24.6761 N   0  0  0  0  0  0  0  0  0  0  0  0
   11.3503  -17.5319   26.9925 C   0  0  0  0  0  0  0  0  0  0  0  0
   10.7853  -18.6357   26.9732 O   0  0  0  0  0  0  0  0  0  0  0  0
   12.3126  -17.3474   28.0053 O   0  0  0  0  0  0  0  0  0  0  0  0
  1  2  1  0
  3  2  1  0
  4  3  1  0
  5  6  1  6
  5  7  1  0
  5  4  1  0
  7  8  2  0
 10  9  1  0
 11 10  1  6
 11 13  1  0
 12  7  1  0
 12 11  1  0
 13 14  2  0
 13 20  1  0
 15 16  1  0
 17 16  1  0
 18 17  1  0
 19 18  1  6
 20 19  1  0
 21 19  1  0
 21 23  1  0
 22 21  2  0
M  END
$$$$
