MSM.pdb
     RDKit          3D

 23 22  0  0  1  0  0  0  0  0999 V2000
    8.8403  -11.7243   19.8995 C   0  0  0  0  0  0  0  0  0  0  0  0
    8.1709  -12.1596   18.2843 S   0  0  0  0  0  0  0  0  0  0  0  0
    8.4561  -13.9259   17.9934 C   0  0  0  0  0  0  0  0  0  0  0  0
    8.3494  -14.6669   19.3292 C   0  0  0  0  0  0  0  0  0  0  0  0
    8.7659  -16.1308   19.1338 C   0  0  2  0  0  0  0  0  0  0  0  0
    7.8526  -16.7140   18.1657 N   0  0  0  0  0  0  0  0  0  0  0  0
    8.7174  -16.8057   20.4327 C   0  0  0  0  0  0  0  0  0  0  0  0
    7.6040  -17.3011   20.7802 O   0  0  0  0  0  0  0  0  0  0  0  0
   12.0105  -18.1329   22.3593 O   0  0  0  0  0  0  0  0  0  0  0  0
   10.7997  -18.7345   22.6637 C   0  0  0  0  0  0  0  0  0  0  0  0
    9.7171  -17.6782   22.5935 C   0  0  2  0  0  0  0  0  0  0  0  0
    9.7872  -16.9566   21.3304 N   0  0  0  0  0  0  0  0  0  0  0  0
    9.7753  -16.7432   23.7419 C   0  0  0  0  0  0  0  0  0  0  0  0
   10.7529  -15.9330   23.7892 O   0  0  0  0  0  0  0  0  0  0  0  0
    6.4493  -11.3235   26.7151 C   0  0  0  0  0  0  0  0  0  0  0  0
    6.2841  -13.0808   26.3191 S   0  0  0  0  0  0  0  0  0  0  0  0
    7.8191  -13.9079   26.8786 C   0  0  0  0  0  0  0  0  0  0  0  0
    7.7773  -15.3743   26.5602 C   0  0  0  0  0  0  0  0  0  0  0  0
    9.0645  -15.8337   25.9830 C   0  0  2  0  0  0  0  0  0  0  0  0
    8.8422  -16.6659   24.7936 N   0  0  0  0  0  0  0  0  0  0  0  0
    9.9133  -16.4998   26.9536 C   0  0  0  0  0  0  0  0  0  0  0  0
   10.0370  -17.7264   27.0882 O   0  0  0  0  0  0  0  0  0  0  0  0
   10.6735  -15.7015   27.8315 O   0  0  0  0  0  0  0  0  0  0  0  0
  1  2  1  0
  3  2  1  0
  4  3  1  0
  5  6  1  6
  5  7  1  0
  5  4  1  0
  7  8  2  0
 10  9  1  0
 11 10  1  1
 11 13  1  0
 12  7  1  0
 12 11  1  0
 13 14  2  0
 13 20  1  0
 15 16  1  0
 17 16  1  0
 18 17  1  0
 19 18  1  1
 20 19  1  0
 21 19  1  0
 21 23  1  0
 22 21  2  0
M  END
$$$$
