DVM.pdb
     RDKit          3D

 24 23  0  0  1  0  0  0  0  0999 V2000
   10.5763  -18.4763   18.4616 N   0  0  0  0  0  0  0  0  0  0  0  0
    9.3199  -18.3477   19.2524 C   0  0  1  0  0  0  0  0  0  0  0  0
    9.2375  -19.5428   20.1328 C   0  0  0  0  0  0  0  0  0  0  0  0
    9.2797  -20.8351   19.4340 C   0  0  0  0  0  0  0  0  0  0  0  0
    8.5549  -20.9796   18.4106 O   0  0  0  0  0  0  0  0  0  0  0  0
    9.3533  -17.0549   19.9633 C   0  0  0  0  0  0  0  0  0  0  0  0
   10.4367  -16.6136   20.4677 O   0  0  0  0  0  0  0  0  0  0  0  0
   10.1052  -21.8369   19.9242 O   0  0  0  0  0  0  0  0  0  0  0  0
    8.0080  -12.4165   20.9103 C   0  0  0  0  0  0  0  0  0  0  0  0
    7.9773  -13.7009   20.1330 C   0  0  2  0  0  0  0  0  0  0  0  0
    6.7118  -13.8616   19.3229 C   0  0  0  0  0  0  0  0  0  0  0  0
    8.3407  -14.9302   20.8416 C   0  0  2  0  0  0  0  0  0  0  0  0
    8.2554  -16.1910   20.1729 N   0  0  0  0  0  0  0  0  0  0  0  0
    8.0938  -14.9589   22.3106 C   0  0  0  0  0  0  0  0  0  0  0  0
    7.0155  -15.4924   22.7630 O   0  0  0  0  0  0  0  0  0  0  0  0
    7.1679  -11.3488   27.9923 C   0  0  0  0  0  0  0  0  0  0  0  0
    6.2564  -11.8997   26.5467 S   0  0  0  0  0  0  0  0  0  0  0  0
    6.5340  -13.6131   26.1365 C   0  0  0  0  0  0  0  0  0  0  0  0
    7.0610  -13.8777   24.7624 C   0  0  0  0  0  0  0  0  0  0  0  0
    8.5040  -14.2648   24.6989 C   0  0  2  0  0  0  0  0  0  0  0  0
    8.9446  -14.4375   23.3018 N   0  0  0  0  0  0  0  0  0  0  0  0
    8.8797  -15.4409   25.4912 C   0  0  0  0  0  0  0  0  0  0  0  0
    9.1120  -16.5131   24.8716 O   0  0  0  0  0  0  0  0  0  0  0  0
    9.0048  -15.4867   26.8500 O   0  0  0  0  0  0  0  0  0  0  0  0
  2  1  1  1
  2  3  1  0
  3  4  1  0
  4  8  1  0
  4  5  2  0
  6  2  1  0
  7  6  2  0
 10  9  1  1
 10 12  1  0
 11 10  1  0
 12 13  1  6
 12 14  1  0
 13  6  1  0
 14 21  1  0
 15 14  2  0
 17 16  1  0
 18 17  1  0
 19 18  1  0
 20 19  1  6
 20 22  1  0
 21 20  1  0
 22 24  1  0
 23 22  2  0
M  END
$$$$
