DVM.pdb
     RDKit          3D

 24 23  0  0  1  0  0  0  0  0999 V2000
   12.4363  -17.4057   19.1951 N   0  0  0  0  0  0  0  0  0  0  0  0
   11.5092  -18.0314   20.1798 C   0  0  1  0  0  0  0  0  0  0  0  0
   12.3399  -18.8639   21.0892 C   0  0  0  0  0  0  0  0  0  0  0  0
   13.0145  -20.0021   20.4490 C   0  0  0  0  0  0  0  0  0  0  0  0
   12.5038  -20.4790   19.3977 O   0  0  0  0  0  0  0  0  0  0  0  0
   10.7492  -16.9555   20.8451 C   0  0  0  0  0  0  0  0  0  0  0  0
   11.3492  -15.9862   21.4136 O   0  0  0  0  0  0  0  0  0  0  0  0
   14.1740  -20.5044   21.0222 O   0  0  0  0  0  0  0  0  0  0  0  0
    7.6337  -14.7982   19.4228 C   0  0  0  0  0  0  0  0  0  0  0  0
    7.4797  -15.1918   20.8637 C   0  0  2  0  0  0  0  0  0  0  0  0
    6.8153  -14.1175   21.6933 C   0  0  0  0  0  0  0  0  0  0  0  0
    8.6458  -15.7688   21.5366 C   0  0  2  0  0  0  0  0  0  0  0  0
    9.3427  -16.8659   20.9410 N   0  0  0  0  0  0  0  0  0  0  0  0
    8.6513  -15.7305   23.0260 C   0  0  0  0  0  0  0  0  0  0  0  0
    8.6249  -16.8310   23.6895 O   0  0  0  0  0  0  0  0  0  0  0  0
    6.1522  -10.7704   26.7920 C   0  0  0  0  0  0  0  0  0  0  0  0
    7.1970  -11.6925   27.9244 S   0  0  0  0  0  0  0  0  0  0  0  0
    7.7415  -13.2628   27.2771 C   0  0  0  0  0  0  0  0  0  0  0  0
    8.0576  -13.2916   25.8159 C   0  0  0  0  0  0  0  0  0  0  0  0
    8.4829  -14.6230   25.2840 C   0  0  2  0  0  0  0  0  0  0  0  0
    8.6765  -14.5717   23.8226 N   0  0  0  0  0  0  0  0  0  0  0  0
    7.6144  -15.7519   25.6346 C   0  0  0  0  0  0  0  0  0  0  0  0
    6.5047  -15.8409   25.0446 O   0  0  0  0  0  0  0  0  0  0  0  0
    7.8953  -16.7275   26.5475 O   0  0  0  0  0  0  0  0  0  0  0  0
  2  1  1  6
  2  3  1  0
  3  4  1  0
  4  8  1  0
  4  5  2  0
  6  2  1  0
  7  6  2  0
 10  9  1  6
 10 12  1  0
 11 10  1  0
 12 13  1  1
 12 14  1  0
 13  6  1  0
 14 21  1  0
 15 14  2  0
 17 16  1  0
 18 17  1  0
 19 18  1  0
 20 19  1  6
 20 22  1  0
 21 20  1  0
 22 24  1  0
 23 22  2  0
M  END
$$$$
