DVM.pdb
     RDKit          3D

 24 23  0  0  1  0  0  0  0  0999 V2000
   12.5721  -16.0054   19.7178 N   0  0  0  0  0  0  0  0  0  0  0  0
   12.2854  -17.0990   20.6885 C   0  0  1  0  0  0  0  0  0  0  0  0
   13.5965  -17.6551   21.1149 C   0  0  0  0  0  0  0  0  0  0  0  0
   14.3123  -18.4218   20.0852 C   0  0  0  0  0  0  0  0  0  0  0  0
   15.3249  -17.8922   19.5487 O   0  0  0  0  0  0  0  0  0  0  0  0
   11.4633  -16.5423   21.7802 C   0  0  0  0  0  0  0  0  0  0  0  0
   11.7992  -15.4622   22.3663 O   0  0  0  0  0  0  0  0  0  0  0  0
   13.8491  -19.6847   19.7450 O   0  0  0  0  0  0  0  0  0  0  0  0
    7.7096  -15.4290   21.8544 C   0  0  0  0  0  0  0  0  0  0  0  0
    8.0626  -16.2196   23.0813 C   0  0  2  0  0  0  0  0  0  0  0  0
    7.3624  -15.7145   24.3215 C   0  0  0  0  0  0  0  0  0  0  0  0
    9.4800  -16.5003   23.3215 C   0  0  2  0  0  0  0  0  0  0  0  0
   10.2723  -17.1014   22.2944 N   0  0  0  0  0  0  0  0  0  0  0  0
    9.8733  -16.8319   24.7198 C   0  0  0  0  0  0  0  0  0  0  0  0
   10.3505  -17.9952   24.9862 O   0  0  0  0  0  0  0  0  0  0  0  0
    8.8889  -11.1139   27.4690 C   0  0  0  0  0  0  0  0  0  0  0  0
    9.1228  -12.6498   28.3691 S   0  0  0  0  0  0  0  0  0  0  0  0
   10.1098  -13.8492   27.4924 C   0  0  0  0  0  0  0  0  0  0  0  0
   10.1945  -15.2055   28.1164 C   0  0  0  0  0  0  0  0  0  0  0  0
   10.3175  -16.3419   27.1522 C   0  0  2  0  0  0  0  0  0  0  0  0
    9.7695  -15.9773   25.8320 N   0  0  0  0  0  0  0  0  0  0  0  0
    9.7431  -17.6158   27.5981 C   0  0  0  0  0  0  0  0  0  0  0  0
    8.5893  -17.9122   27.1879 O   0  0  0  0  0  0  0  0  0  0  0  0
   10.3447  -18.5226   28.4227 O   0  0  0  0  0  0  0  0  0  0  0  0
  2  1  1  6
  2  3  1  0
  3  4  1  0
  4  8  1  0
  4  5  2  0
  6  2  1  0
  7  6  2  0
 10  9  1  6
 10 12  1  0
 11 10  1  0
 12 13  1  6
 12 14  1  0
 13  6  1  0
 14 21  1  0
 15 14  2  0
 17 16  1  0
 18 17  1  0
 19 18  1  0
 20 19  1  1
 20 22  1  0
 21 20  1  0
 22 24  1  0
 23 22  2  0
M  END
$$$$
