DVM.pdb
     RDKit          3D

 24 23  0  0  1  0  0  0  0  0999 V2000
    8.7913  -18.8988   20.0317 N   0  0  0  0  0  0  0  0  0  0  0  0
   10.0708  -18.1672   19.8119 C   0  0  1  0  0  0  0  0  0  0  0  0
   10.2743  -18.0815   18.3417 C   0  0  0  0  0  0  0  0  0  0  0  0
   10.8349  -19.2892   17.7192 C   0  0  0  0  0  0  0  0  0  0  0  0
   10.9386  -20.3282   18.4287 O   0  0  0  0  0  0  0  0  0  0  0  0
    9.9821  -16.8661   20.5026 C   0  0  0  0  0  0  0  0  0  0  0  0
   11.0220  -16.1562   20.6962 O   0  0  0  0  0  0  0  0  0  0  0  0
   11.2269  -19.2389   16.3891 O   0  0  0  0  0  0  0  0  0  0  0  0
    7.0910  -14.0814   19.8666 C   0  0  0  0  0  0  0  0  0  0  0  0
    7.6077  -14.0892   21.2765 C   0  0  2  0  0  0  0  0  0  0  0  0
    7.7891  -12.6981   21.8383 C   0  0  0  0  0  0  0  0  0  0  0  0
    8.7470  -14.9598   21.5755 C   0  0  2  0  0  0  0  0  0  0  0  0
    8.8068  -16.2741   21.0160 N   0  0  0  0  0  0  0  0  0  0  0  0
    9.3887  -14.7947   22.9100 C   0  0  0  0  0  0  0  0  0  0  0  0
   10.1091  -13.7563   23.1440 O   0  0  0  0  0  0  0  0  0  0  0  0
    5.6894  -12.3737   26.7250 C   0  0  0  0  0  0  0  0  0  0  0  0
    7.3696  -12.1616   27.3217 S   0  0  0  0  0  0  0  0  0  0  0  0
    8.4143  -13.5786   27.0354 C   0  0  0  0  0  0  0  0  0  0  0  0
    8.3895  -14.1377   25.6487 C   0  0  0  0  0  0  0  0  0  0  0  0
    9.3659  -15.2405   25.3908 C   0  0  2  0  0  0  0  0  0  0  0  0
    9.2952  -15.6926   23.9885 N   0  0  0  0  0  0  0  0  0  0  0  0
    9.2727  -16.3930   26.2935 C   0  0  0  0  0  0  0  0  0  0  0  0
    8.7614  -17.4513   25.8396 O   0  0  0  0  0  0  0  0  0  0  0  0
    9.6922  -16.4312   27.5923 O   0  0  0  0  0  0  0  0  0  0  0  0
  2  1  1  6
  2  3  1  0
  3  4  1  0
  4  8  1  0
  4  5  2  0
  6  2  1  0
  7  6  2  0
 10  9  1  6
 10 12  1  0
 11 10  1  0
 12 13  1  1
 12 14  1  0
 13  6  1  0
 14 21  1  0
 15 14  2  0
 17 16  1  0
 18 17  1  0
 19 18  1  0
 20 19  1  1
 20 22  1  0
 21 20  1  0
 22 24  1  0
 23 22  2  0
M  END
$$$$
