DVM.pdb
     RDKit          3D

 24 23  0  0  1  0  0  0  0  0999 V2000
   11.3546  -18.8377   20.1164 N   0  0  0  0  0  0  0  0  0  0  0  0
   12.0763  -17.6483   20.6501 C   0  0  1  0  0  0  0  0  0  0  0  0
   12.9688  -17.1602   19.5660 C   0  0  0  0  0  0  0  0  0  0  0  0
   14.3314  -17.7110   19.5858 C   0  0  0  0  0  0  0  0  0  0  0  0
   14.5766  -18.6575   20.3843 O   0  0  0  0  0  0  0  0  0  0  0  0
   11.0731  -16.6708   21.1147 C   0  0  0  0  0  0  0  0  0  0  0  0
   11.4245  -15.6272   21.7552 O   0  0  0  0  0  0  0  0  0  0  0  0
   15.2861  -17.1717   18.7355 O   0  0  0  0  0  0  0  0  0  0  0  0
    7.5684  -15.2356   19.2924 C   0  0  0  0  0  0  0  0  0  0  0  0
    7.4799  -15.5644   20.7549 C   0  0  2  0  0  0  0  0  0  0  0  0
    6.5824  -14.6137   21.5127 C   0  0  0  0  0  0  0  0  0  0  0  0
    8.7325  -15.8289   21.4666 C   0  0  2  0  0  0  0  0  0  0  0  0
    9.6755  -16.7597   20.9295 N   0  0  0  0  0  0  0  0  0  0  0  0
    8.6969  -15.7286   22.9527 C   0  0  0  0  0  0  0  0  0  0  0  0
    9.1499  -16.6974   23.6655 O   0  0  0  0  0  0  0  0  0  0  0  0
    6.7522  -10.4701   26.6477 C   0  0  0  0  0  0  0  0  0  0  0  0
    6.8058  -11.7990   27.8541 S   0  0  0  0  0  0  0  0  0  0  0  0
    7.3805  -13.3492   27.1852 C   0  0  0  0  0  0  0  0  0  0  0  0
    7.5892  -13.3835   25.7049 C   0  0  0  0  0  0  0  0  0  0  0  0
    8.1336  -14.6693   25.1696 C   0  0  2  0  0  0  0  0  0  0  0  0
    8.1937  -14.6456   23.6959 N   0  0  0  0  0  0  0  0  0  0  0  0
    7.4489  -15.8846   25.6232 C   0  0  0  0  0  0  0  0  0  0  0  0
    7.8948  -16.4569   26.6533 O   0  0  0  0  0  0  0  0  0  0  0  0
    6.3621  -16.4619   25.0316 O   0  0  0  0  0  0  0  0  0  0  0  0
  2  1  1  6
  2  3  1  0
  3  4  1  0
  4  8  1  0
  4  5  2  0
  6  2  1  0
  7  6  2  0
 10  9  1  6
 10 12  1  0
 11 10  1  0
 12 13  1  1
 12 14  1  0
 13  6  1  0
 14 21  1  0
 15 14  2  0
 17 16  1  0
 18 17  1  0
 19 18  1  0
 20 19  1  6
 20 22  1  0
 21 20  1  0
 22 24  1  0
 23 22  2  0
M  END
$$$$
