DVM.pdb
     RDKit          3D

 24 23  0  0  1  0  0  0  0  0999 V2000
   11.2282  -18.3252   19.9012 N   0  0  0  0  0  0  0  0  0  0  0  0
   12.1010  -17.5179   20.7996 C   0  0  1  0  0  0  0  0  0  0  0  0
   12.9984  -16.7162   19.9268 C   0  0  0  0  0  0  0  0  0  0  0  0
   14.2591  -17.3751   19.5571 C   0  0  0  0  0  0  0  0  0  0  0  0
   14.3691  -18.6125   19.7813 O   0  0  0  0  0  0  0  0  0  0  0  0
   11.2344  -16.7252   21.6932 C   0  0  0  0  0  0  0  0  0  0  0  0
   11.7324  -15.8821   22.5082 O   0  0  0  0  0  0  0  0  0  0  0  0
   15.2702  -16.6170   18.9841 O   0  0  0  0  0  0  0  0  0  0  0  0
    7.3770  -15.2033   20.8854 C   0  0  0  0  0  0  0  0  0  0  0  0
    7.6395  -15.6854   22.2831 C   0  0  2  0  0  0  0  0  0  0  0  0
    6.9571  -14.8360   23.3302 C   0  0  0  0  0  0  0  0  0  0  0  0
    9.0243  -16.0001   22.6421 C   0  0  2  0  0  0  0  0  0  0  0  0
    9.8254  -16.7959   21.7652 N   0  0  0  0  0  0  0  0  0  0  0  0
    9.3308  -16.1292   24.0944 C   0  0  0  0  0  0  0  0  0  0  0  0
    9.5934  -17.2867   24.5875 O   0  0  0  0  0  0  0  0  0  0  0  0
    8.4685  -10.9733   26.2070 C   0  0  0  0  0  0  0  0  0  0  0  0
    7.5205  -12.4244   26.6755 S   0  0  0  0  0  0  0  0  0  0  0  0
    8.4199  -13.5612   27.7147 C   0  0  0  0  0  0  0  0  0  0  0  0
    9.7496  -14.0069   27.1957 C   0  0  0  0  0  0  0  0  0  0  0  0
    9.7365  -15.2964   26.4387 C   0  0  2  0  0  0  0  0  0  0  0  0
    9.3595  -15.0788   25.0293 N   0  0  0  0  0  0  0  0  0  0  0  0
    8.9125  -16.3627   27.0183 C   0  0  0  0  0  0  0  0  0  0  0  0
    9.1933  -16.7502   28.1839 O   0  0  0  0  0  0  0  0  0  0  0  0
    7.8582  -16.9822   26.4111 O   0  0  0  0  0  0  0  0  0  0  0  0
  2  1  1  6
  2  3  1  0
  3  4  1  0
  4  8  1  0
  4  5  2  0
  6  2  1  0
  7  6  2  0
 10  9  1  6
 10 12  1  0
 11 10  1  0
 12 13  1  6
 12 14  1  0
 13  6  1  0
 14 21  1  0
 15 14  2  0
 17 16  1  0
 18 17  1  0
 19 18  1  0
 20 19  1  1
 20 22  1  0
 21 20  1  0
 22 24  1  0
 23 22  2  0
M  END
$$$$
