DVM.pdb
     RDKit          3D

 24 23  0  0  1  0  0  0  0  0999 V2000
   11.2233  -17.9925   20.2768 N   0  0  0  0  0  0  0  0  0  0  0  0
    9.8099  -18.0216   20.7480 C   0  0  1  0  0  0  0  0  0  0  0  0
    9.6757  -19.2002   21.6441 C   0  0  0  0  0  0  0  0  0  0  0  0
    9.7480  -20.5051   20.9717 C   0  0  0  0  0  0  0  0  0  0  0  0
   10.0205  -20.5226   19.7393 O   0  0  0  0  0  0  0  0  0  0  0  0
    9.5087  -16.7233   21.3816 C   0  0  0  0  0  0  0  0  0  0  0  0
   10.3145  -16.2017   22.2192 O   0  0  0  0  0  0  0  0  0  0  0  0
    9.5134  -21.6555   21.7113 O   0  0  0  0  0  0  0  0  0  0  0  0
    7.9000  -13.2885   19.7418 C   0  0  0  0  0  0  0  0  0  0  0  0
    7.4127  -13.6161   21.1239 C   0  0  2  0  0  0  0  0  0  0  0  0
    7.2429  -12.3881   21.9882 C   0  0  0  0  0  0  0  0  0  0  0  0
    8.0816  -14.7067   21.8371 C   0  0  2  0  0  0  0  0  0  0  0  0
    8.3551  -15.9377   21.1635 N   0  0  0  0  0  0  0  0  0  0  0  0
    7.8220  -14.8135   23.3003 C   0  0  0  0  0  0  0  0  0  0  0  0
    7.0307  -15.7260   23.7398 O   0  0  0  0  0  0  0  0  0  0  0  0
   11.1880  -15.6110   29.2982 C   0  0  0  0  0  0  0  0  0  0  0  0
   10.3602  -14.0266   29.1290 S   0  0  0  0  0  0  0  0  0  0  0  0
    8.9278  -14.0780   28.0677 C   0  0  0  0  0  0  0  0  0  0  0  0
    9.1985  -13.9705   26.6010 C   0  0  0  0  0  0  0  0  0  0  0  0
    8.0006  -14.1312   25.7203 C   0  0  2  0  0  0  0  0  0  0  0  0
    8.3658  -13.9853   24.2986 N   0  0  0  0  0  0  0  0  0  0  0  0
    6.8613  -13.2629   26.0361 C   0  0  0  0  0  0  0  0  0  0  0  0
    6.8000  -12.1453   25.4575 O   0  0  0  0  0  0  0  0  0  0  0  0
    5.8485  -13.5518   26.9051 O   0  0  0  0  0  0  0  0  0  0  0  0
  2  1  1  1
  2  3  1  0
  3  4  1  0
  4  8  1  0
  4  5  2  0
  6  2  1  0
  7  6  2  0
 10  9  1  6
 10 12  1  0
 11 10  1  0
 12 13  1  6
 12 14  1  0
 13  6  1  0
 14 21  1  0
 15 14  2  0
 17 16  1  0
 18 17  1  0
 19 18  1  0
 20 19  1  1
 20 22  1  0
 21 20  1  0
 22 24  1  0
 23 22  2  0
M  END
$$$$
