DVM.pdb
     RDKit          3D

 24 23  0  0  1  0  0  0  0  0999 V2000
   10.1366  -18.4401   18.6162 N   0  0  0  0  0  0  0  0  0  0  0  0
    8.9376  -18.2941   19.4889 C   0  0  1  0  0  0  0  0  0  0  0  0
    8.9028  -19.4832   20.3805 C   0  0  0  0  0  0  0  0  0  0  0  0
    8.8164  -20.7775   19.6893 C   0  0  0  0  0  0  0  0  0  0  0  0
    8.2323  -20.8143   18.5708 O   0  0  0  0  0  0  0  0  0  0  0  0
    9.0314  -16.9976   20.1875 C   0  0  0  0  0  0  0  0  0  0  0  0
   10.1640  -16.4910   20.4766 O   0  0  0  0  0  0  0  0  0  0  0  0
    9.3730  -21.8978   20.2897 O   0  0  0  0  0  0  0  0  0  0  0  0
    7.6812  -13.4904   19.2954 C   0  0  0  0  0  0  0  0  0  0  0  0
    7.5110  -13.7355   20.7672 C   0  0  2  0  0  0  0  0  0  0  0  0
    7.8489  -12.5225   21.6028 C   0  0  0  0  0  0  0  0  0  0  0  0
    8.0836  -14.9652   21.3197 C   0  0  2  0  0  0  0  0  0  0  0  0
    7.9458  -16.1983   20.6095 N   0  0  0  0  0  0  0  0  0  0  0  0
    8.1357  -15.0759   22.8046 C   0  0  0  0  0  0  0  0  0  0  0  0
    7.0812  -15.4221   23.4528 O   0  0  0  0  0  0  0  0  0  0  0  0
    6.2149  -10.5715   26.8374 C   0  0  0  0  0  0  0  0  0  0  0  0
    6.2808  -12.3523   26.6169 S   0  0  0  0  0  0  0  0  0  0  0  0
    7.7837  -12.9219   25.8436 C   0  0  0  0  0  0  0  0  0  0  0  0
    7.8637  -14.3911   25.5770 C   0  0  0  0  0  0  0  0  0  0  0  0
    9.1900  -14.8763   25.0855 C   0  0  2  0  0  0  0  0  0  0  0  0
    9.2593  -14.8260   23.6128 N   0  0  0  0  0  0  0  0  0  0  0  0
    9.5945  -16.2039   25.5605 C   0  0  0  0  0  0  0  0  0  0  0  0
    9.1461  -17.2070   24.9438 O   0  0  0  0  0  0  0  0  0  0  0  0
   10.4199  -16.4612   26.6171 O   0  0  0  0  0  0  0  0  0  0  0  0
  2  1  1  6
  2  3  1  0
  3  4  1  0
  4  8  1  0
  4  5  2  0
  6  2  1  0
  7  6  2  0
 10  9  1  6
 10 12  1  0
 11 10  1  0
 12 13  1  1
 12 14  1  0
 13  6  1  0
 14 21  1  0
 15 14  2  0
 17 16  1  0
 18 17  1  0
 19 18  1  0
 20 19  1  6
 20 22  1  0
 21 20  1  0
 22 24  1  0
 23 22  2  0
M  END
$$$$
