DVM.pdb
     RDKit          3D

 24 23  0  0  1  0  0  0  0  0999 V2000
   12.2465  -17.1759   19.0136 N   0  0  0  0  0  0  0  0  0  0  0  0
   11.1635  -17.8978   19.7391 C   0  0  1  0  0  0  0  0  0  0  0  0
   11.7508  -19.1666   20.2441 C   0  0  0  0  0  0  0  0  0  0  0  0
   12.6993  -19.8204   19.3313 C   0  0  0  0  0  0  0  0  0  0  0  0
   13.8092  -20.1971   19.8000 O   0  0  0  0  0  0  0  0  0  0  0  0
   10.6322  -17.0013   20.7840 C   0  0  0  0  0  0  0  0  0  0  0  0
   11.3977  -16.1934   21.4039 O   0  0  0  0  0  0  0  0  0  0  0  0
   12.3412  -19.9935   18.0020 O   0  0  0  0  0  0  0  0  0  0  0  0
    7.2577  -14.6522   20.7275 C   0  0  0  0  0  0  0  0  0  0  0  0
    7.5090  -15.3624   22.0265 C   0  0  2  0  0  0  0  0  0  0  0  0
    7.1171  -14.5346   23.2285 C   0  0  0  0  0  0  0  0  0  0  0  0
    8.8098  -16.0124   22.2025 C   0  0  2  0  0  0  0  0  0  0  0  0
    9.2889  -16.9287   21.2151 N   0  0  0  0  0  0  0  0  0  0  0  0
    9.2431  -16.2840   23.6018 C   0  0  0  0  0  0  0  0  0  0  0  0
    9.2476  -17.4915   24.0421 O   0  0  0  0  0  0  0  0  0  0  0  0
   10.8858  -13.5764   30.9314 C   0  0  0  0  0  0  0  0  0  0  0  0
   10.0572  -13.3344   29.3569 S   0  0  0  0  0  0  0  0  0  0  0  0
   10.1492  -14.7498   28.2755 C   0  0  0  0  0  0  0  0  0  0  0  0
    9.8945  -14.4813   26.8267 C   0  0  0  0  0  0  0  0  0  0  0  0
    9.9838  -15.6774   25.9336 C   0  0  2  0  0  0  0  0  0  0  0  0
    9.6603  -15.3218   24.5391 N   0  0  0  0  0  0  0  0  0  0  0  0
    9.1918  -16.8396   26.3505 C   0  0  0  0  0  0  0  0  0  0  0  0
    9.7803  -17.7460   26.9982 O   0  0  0  0  0  0  0  0  0  0  0  0
    7.8636  -17.0363   26.1031 O   0  0  0  0  0  0  0  0  0  0  0  0
  2  1  1  1
  2  3  1  0
  3  4  1  0
  4  8  1  0
  4  5  2  0
  6  2  1  0
  7  6  2  0
 10  9  1  6
 10 12  1  0
 11 10  1  0
 12 13  1  6
 12 14  1  0
 13  6  1  0
 14 21  1  0
 15 14  2  0
 17 16  1  0
 18 17  1  0
 19 18  1  0
 20 19  1  1
 20 22  1  0
 21 20  1  0
 22 24  1  0
 23 22  2  0
M  END
$$$$
