IIK.pdb
     RDKit          3D

 26 25  0  0  1  0  0  0  0  0999 V2000
   12.6490  -12.1968  -11.6307 C   0  0  0  0  0  0  0  0  0  0  0  0
   14.1157  -11.9560  -11.8698 C   0  0  0  0  0  0  0  0  0  0  0  0
   14.6385  -10.8152  -11.0144 C   0  0  2  0  0  0  0  0  0  0  0  0
   13.8004   -9.5884  -11.1512 C   0  0  0  0  0  0  0  0  0  0  0  0
   16.1150  -10.5606  -11.3493 C   0  0  2  0  0  0  0  0  0  0  0  0
   16.7946  -11.7652  -10.8227 N   0  0  0  0  0  0  0  0  0  0  0  0
   16.6353   -9.4054  -10.5697 C   0  0  0  0  0  0  0  0  0  0  0  0
   16.7477   -9.5270   -9.3125 O   0  0  0  0  0  0  0  0  0  0  0  0
   21.1201   -7.1233  -11.6722 C   0  0  0  0  0  0  0  0  0  0  0  0
   19.8614   -7.6225  -10.9619 C   0  0  0  0  0  0  0  0  0  0  0  0
   18.7670   -6.6134  -11.0284 C   0  0  2  0  0  0  0  0  0  0  0  0
   19.2588   -5.2549  -10.5751 C   0  0  0  0  0  0  0  0  0  0  0  0
   17.5098   -7.0337  -10.3556 C   0  0  2  0  0  0  0  0  0  0  0  0
   17.0121   -8.1811  -11.1556 N   0  0  0  0  0  0  0  0  0  0  0  0
   16.4645   -6.0387  -10.1846 C   0  0  0  0  0  0  0  0  0  0  0  0
   15.6805   -5.6818  -11.1353 O   0  0  0  0  0  0  0  0  0  0  0  0
   16.2170   -5.3839   -8.9524 N   0  0  0  0  0  0  0  0  0  0  0  0
   15.0828   -4.4450   -8.7938 C   0  0  1  0  0  0  0  0  0  0  0  0
   14.3898   -4.7316   -7.4881 C   0  0  0  0  0  0  0  0  0  0  0  0
   13.2328   -3.8265   -7.1895 C   0  0  0  0  0  0  0  0  0  0  0  0
   12.6246   -4.1977   -5.8238 C   0  0  0  0  0  0  0  0  0  0  0  0
   11.4092   -3.3102   -5.5738 C   0  0  0  0  0  0  0  0  0  0  0  0
   10.8757   -3.6094   -4.2667 N   0  0  0  0  0  0  0  0  0  0  0  0
   15.5221   -3.0618   -8.9483 C   0  0  0  0  0  0  0  0  0  0  0  0
   16.8761   -2.7378   -8.9402 O   0  0  0  0  0  0  0  0  0  0  0  0
   14.7195   -2.1140   -9.0928 O   0  0  0  0  0  0  0  0  0  0  0  0
  2  1  1  0
  3  5  1  0
  3  2  1  0
  3  4  1  6
  5  6  1  1
  7  5  1  0
  7  8  2  0
 10  9  1  0
 11 10  1  0
 11 13  1  0
 11 12  1  1
 13 14  1  6
 14  7  1  0
 15 13  1  0
 15 17  1  0
 16 15  2  0
 18 17  1  0
 18 24  1  0
 18 19  1  1
 20 19  1  0
 21 22  1  0
 21 20  1  0
 22 23  1  0
 24 25  1  0
 26 24  2  0
M  END
$$$$
