IIK.pdb
     RDKit          3D

 26 25  0  0  1  0  0  0  0  0999 V2000
   26.7235  -18.1620  -14.8302 C   0  0  0  0  0  0  0  0  0  0  0  0
   25.8775  -19.3839  -14.5902 C   0  0  0  0  0  0  0  0  0  0  0  0
   26.5650  -20.3609  -13.6525 C   0  0  2  0  0  0  0  0  0  0  0  0
   27.8562  -20.8550  -14.2136 C   0  0  0  0  0  0  0  0  0  0  0  0
   25.5983  -21.5018  -13.3050 C   0  0  2  0  0  0  0  0  0  0  0  0
   25.1852  -22.0118  -14.6314 N   0  0  0  0  0  0  0  0  0  0  0  0
   24.3715  -20.9668  -12.6556 C   0  0  0  0  0  0  0  0  0  0  0  0
   24.4814  -20.4159  -11.5188 O   0  0  0  0  0  0  0  0  0  0  0  0
   19.8239  -17.5106  -13.7715 C   0  0  0  0  0  0  0  0  0  0  0  0
   20.1763  -18.7252  -12.9123 C   0  0  0  0  0  0  0  0  0  0  0  0
   21.3902  -19.4184  -13.4282 C   0  0  2  0  0  0  0  0  0  0  0  0
   21.1998  -19.8359  -14.8712 C   0  0  0  0  0  0  0  0  0  0  0  0
   21.8756  -20.5231  -12.5599 C   0  0  2  0  0  0  0  0  0  0  0  0
   23.0913  -21.0384  -13.2387 N   0  0  0  0  0  0  0  0  0  0  0  0
   20.9567  -21.6094  -12.2639 C   0  0  0  0  0  0  0  0  0  0  0  0
   20.7163  -22.5623  -13.0886 O   0  0  0  0  0  0  0  0  0  0  0  0
   20.2542  -21.7131  -11.0375 N   0  0  0  0  0  0  0  0  0  0  0  0
   19.3913  -22.8794  -10.7408 C   0  0  1  0  0  0  0  0  0  0  0  0
   19.4025  -23.1309   -9.2563 C   0  0  0  0  0  0  0  0  0  0  0  0
   18.5421  -24.2766   -8.8157 C   0  0  0  0  0  0  0  0  0  0  0  0
   18.6513  -24.4485   -7.2890 C   0  0  0  0  0  0  0  0  0  0  0  0
   17.7412  -25.5956   -6.8610 C   0  0  0  0  0  0  0  0  0  0  0  0
   17.9092  -25.8194   -5.4452 N   0  0  0  0  0  0  0  0  0  0  0  0
   18.0585  -22.7031  -11.3088 C   0  0  0  0  0  0  0  0  0  0  0  0
   17.3554  -23.7863  -11.8292 O   0  0  0  0  0  0  0  0  0  0  0  0
   17.4902  -21.5903  -11.3567 O   0  0  0  0  0  0  0  0  0  0  0  0
  2  1  1  0
  3  5  1  0
  3  2  1  0
  3  4  1  6
  5  6  1  6
  7  5  1  0
  7  8  2  0
 10  9  1  0
 11 10  1  0
 11 13  1  0
 11 12  1  6
 13 14  1  6
 14  7  1  0
 15 13  1  0
 15 17  1  0
 16 15  2  0
 18 17  1  0
 18 24  1  0
 18 19  1  1
 20 19  1  0
 21 22  1  0
 21 20  1  0
 22 23  1  0
 24 25  1  0
 26 24  2  0
M  END
$$$$
