IIK.pdb
     RDKit          3D

 26 25  0  0  1  0  0  0  0  0999 V2000
   21.2016  -19.4602  -15.6364 C   0  0  0  0  0  0  0  0  0  0  0  0
   20.2374  -18.3697  -16.0204 C   0  0  0  0  0  0  0  0  0  0  0  0
   20.8630  -16.9945  -15.8662 C   0  0  2  0  0  0  0  0  0  0  0  0
   21.4083  -16.7826  -14.4935 C   0  0  0  0  0  0  0  0  0  0  0  0
   19.8417  -15.9206  -16.2669 C   0  0  2  0  0  0  0  0  0  0  0  0
   19.4879  -16.2906  -17.6554 N   0  0  0  0  0  0  0  0  0  0  0  0
   20.4904  -14.5836  -16.3366 C   0  0  0  0  0  0  0  0  0  0  0  0
   21.0208  -14.1144  -15.2848 O   0  0  0  0  0  0  0  0  0  0  0  0
   24.0157  -13.2814  -19.8326 C   0  0  0  0  0  0  0  0  0  0  0  0
   23.1590  -13.3029  -18.5664 C   0  0  0  0  0  0  0  0  0  0  0  0
   22.0028  -12.3698  -18.6800 C   0  0  2  0  0  0  0  0  0  0  0  0
   22.4724  -10.9676  -19.0059 C   0  0  0  0  0  0  0  0  0  0  0  0
   21.0656  -12.4186  -17.5272 C   0  0  2  0  0  0  0  0  0  0  0  0
   20.5483  -13.8102  -17.5124 N   0  0  0  0  0  0  0  0  0  0  0  0
   19.9687  -11.4656  -17.5015 C   0  0  0  0  0  0  0  0  0  0  0  0
   19.0522  -11.4346  -18.3986 O   0  0  0  0  0  0  0  0  0  0  0  0
   19.8136  -10.4953  -16.4803 N   0  0  0  0  0  0  0  0  0  0  0  0
   18.7087   -9.5099  -16.5162 C   0  0  1  0  0  0  0  0  0  0  0  0
   17.7249   -9.8387  -15.4248 C   0  0  0  0  0  0  0  0  0  0  0  0
   16.6705   -8.7957  -15.2067 C   0  0  0  0  0  0  0  0  0  0  0  0
   15.3536   -9.2453  -15.8671 C   0  0  0  0  0  0  0  0  0  0  0  0
   14.2686   -8.2254  -15.5352 C   0  0  0  0  0  0  0  0  0  0  0  0
   13.0908   -8.5297  -16.3117 N   0  0  0  0  0  0  0  0  0  0  0  0
   19.2224   -8.1447  -16.4688 C   0  0  0  0  0  0  0  0  0  0  0  0
   18.4481   -7.0750  -16.9101 O   0  0  0  0  0  0  0  0  0  0  0  0
   20.3636   -7.8707  -16.0376 O   0  0  0  0  0  0  0  0  0  0  0  0
  2  1  1  0
  3  5  1  0
  3  2  1  0
  3  4  1  1
  5  6  1  6
  7  5  1  0
  7  8  2  0
 10  9  1  0
 11 10  1  0
 11 13  1  0
 11 12  1  1
 13 14  1  6
 14  7  1  0
 15 13  1  0
 15 17  1  0
 16 15  2  0
 18 17  1  0
 18 24  1  0
 18 19  1  1
 20 19  1  0
 21 22  1  0
 21 20  1  0
 22 23  1  0
 24 25  1  0
 26 24  2  0
M  END
$$$$
