IIK.pdb
     RDKit          3D

 26 25  0  0  1  0  0  0  0  0999 V2000
   27.9968  -18.0301  -18.0689 C   0  0  0  0  0  0  0  0  0  0  0  0
   28.5030  -18.7289  -16.8353 C   0  0  0  0  0  0  0  0  0  0  0  0
   27.3652  -19.3376  -16.0346 C   0  0  2  0  0  0  0  0  0  0  0  0
   26.3060  -18.3342  -15.7224 C   0  0  0  0  0  0  0  0  0  0  0  0
   27.9294  -20.0102  -14.7751 C   0  0  2  0  0  0  0  0  0  0  0  0
   28.7873  -21.0856  -15.3205 N   0  0  0  0  0  0  0  0  0  0  0  0
   26.8436  -20.6806  -14.0105 C   0  0  0  0  0  0  0  0  0  0  0  0
   26.3754  -21.7712  -14.4571 O   0  0  0  0  0  0  0  0  0  0  0  0
   27.0605  -20.2938   -8.7450 C   0  0  0  0  0  0  0  0  0  0  0  0
   26.7476  -20.9691  -10.0806 C   0  0  0  0  0  0  0  0  0  0  0  0
   25.4534  -20.4870  -10.6400 C   0  0  2  0  0  0  0  0  0  0  0  0
   24.3001  -20.8695   -9.7363 C   0  0  0  0  0  0  0  0  0  0  0  0
   25.2289  -20.8580  -12.0619 C   0  0  2  0  0  0  0  0  0  0  0  0
   26.3077  -20.1679  -12.8130 N   0  0  0  0  0  0  0  0  0  0  0  0
   23.9310  -20.5627  -12.6452 C   0  0  0  0  0  0  0  0  0  0  0  0
   23.4444  -19.3768  -12.6968 O   0  0  0  0  0  0  0  0  0  0  0  0
   23.0962  -21.5572  -13.2131 N   0  0  0  0  0  0  0  0  0  0  0  0
   21.7877  -21.2122  -13.8147 C   0  0  1  0  0  0  0  0  0  0  0  0
   21.3451  -22.3435  -14.7043 C   0  0  0  0  0  0  0  0  0  0  0  0
   20.0857  -22.0724  -15.4706 C   0  0  0  0  0  0  0  0  0  0  0  0
   19.7615  -23.2759  -16.3756 C   0  0  0  0  0  0  0  0  0  0  0  0
   18.6445  -22.8775  -17.3354 C   0  0  0  0  0  0  0  0  0  0  0  0
   18.4647  -23.9325  -18.3036 N   0  0  0  0  0  0  0  0  0  0  0  0
   20.8193  -20.8439  -12.7868 C   0  0  0  0  0  0  0  0  0  0  0  0
   20.7495  -21.5471  -11.5871 O   0  0  0  0  0  0  0  0  0  0  0  0
   20.0170  -19.8954  -12.9283 O   0  0  0  0  0  0  0  0  0  0  0  0
  2  1  1  0
  3  5  1  0
  3  2  1  0
  3  4  1  1
  5  6  1  6
  7  5  1  0
  7  8  2  0
 10  9  1  0
 11 10  1  0
 11 13  1  0
 11 12  1  1
 13 14  1  6
 14  7  1  0
 15 13  1  0
 15 17  1  0
 16 15  2  0
 18 17  1  0
 18 24  1  0
 18 19  1  1
 20 19  1  0
 21 22  1  0
 21 20  1  0
 22 23  1  0
 24 25  1  0
 26 24  2  0
M  END
$$$$
