IIK.pdb
     RDKit          3D

 26 25  0  0  1  0  0  0  0  0999 V2000
   19.5319  -13.3326  -22.4429 C   0  0  0  0  0  0  0  0  0  0  0  0
   20.7338  -13.5065  -21.5532 C   0  0  0  0  0  0  0  0  0  0  0  0
   20.6508  -12.6155  -20.3261 C   0  0  2  0  0  0  0  0  0  0  0  0
   20.5240  -11.1747  -20.6928 C   0  0  0  0  0  0  0  0  0  0  0  0
   21.8558  -12.8878  -19.4146 C   0  0  2  0  0  0  0  0  0  0  0  0
   21.6888  -14.3118  -19.0483 N   0  0  0  0  0  0  0  0  0  0  0  0
   21.7416  -12.1091  -18.1522 C   0  0  0  0  0  0  0  0  0  0  0  0
   20.8298  -12.4237  -17.3291 O   0  0  0  0  0  0  0  0  0  0  0  0
   25.7358  -11.5580  -15.1072 C   0  0  0  0  0  0  0  0  0  0  0  0
   24.2942  -11.6154  -15.6133 C   0  0  0  0  0  0  0  0  0  0  0  0
   23.7819  -10.2552  -15.9415 C   0  0  2  0  0  0  0  0  0  0  0  0
   23.8784   -9.3389  -14.7399 C   0  0  0  0  0  0  0  0  0  0  0  0
   22.4371  -10.2477  -16.5750 C   0  0  2  0  0  0  0  0  0  0  0  0
   22.5960  -11.0392  -17.8211 N   0  0  0  0  0  0  0  0  0  0  0  0
   21.8277   -8.9600  -16.8622 C   0  0  0  0  0  0  0  0  0  0  0  0
   22.3558   -8.1011  -17.6554 O   0  0  0  0  0  0  0  0  0  0  0  0
   20.5955   -8.5465  -16.2972 N   0  0  0  0  0  0  0  0  0  0  0  0
   20.0196   -7.2155  -16.5964 C   0  0  1  0  0  0  0  0  0  0  0  0
   18.5192   -7.3318  -16.6456 C   0  0  0  0  0  0  0  0  0  0  0  0
   17.8080   -6.0468  -16.9457 C   0  0  0  0  0  0  0  0  0  0  0  0
   16.2916   -6.3030  -17.0332 C   0  0  0  0  0  0  0  0  0  0  0  0
   15.5911   -4.9833  -17.3416 C   0  0  0  0  0  0  0  0  0  0  0  0
   14.2042   -5.2509  -17.6377 N   0  0  0  0  0  0  0  0  0  0  0  0
   20.5124   -6.2091  -15.6613 C   0  0  0  0  0  0  0  0  0  0  0  0
   20.8533   -4.9327  -16.1006 O   0  0  0  0  0  0  0  0  0  0  0  0
   20.6516   -6.4376  -14.4399 O   0  0  0  0  0  0  0  0  0  0  0  0
  2  1  1  0
  3  5  1  0
  3  2  1  0
  3  4  1  6
  5  6  1  1
  7  5  1  0
  7  8  2  0
 10  9  1  0
 11 10  1  0
 11 13  1  0
 11 12  1  1
 13 14  1  6
 14  7  1  0
 15 13  1  0
 15 17  1  0
 16 15  2  0
 18 17  1  0
 18 24  1  0
 18 19  1  1
 20 19  1  0
 21 22  1  0
 21 20  1  0
 22 23  1  0
 24 25  1  0
 26 24  2  0
M  END
$$$$
