IIK.pdb
     RDKit          3D

 26 25  0  0  1  0  0  0  0  0999 V2000
   20.0782  -17.8087  -17.4031 C   0  0  0  0  0  0  0  0  0  0  0  0
   21.5501  -17.6316  -17.1415 C   0  0  0  0  0  0  0  0  0  0  0  0
   21.8396  -16.2996  -16.4720 C   0  0  2  0  0  0  0  0  0  0  0  0
   21.2001  -15.1626  -17.1963 C   0  0  0  0  0  0  0  0  0  0  0  0
   23.3571  -16.1230  -16.3206 C   0  0  2  0  0  0  0  0  0  0  0  0
   23.7417  -17.2421  -15.4320 N   0  0  0  0  0  0  0  0  0  0  0  0
   23.6654  -14.8694  -15.5812 C   0  0  0  0  0  0  0  0  0  0  0  0
   23.3205  -14.7861  -14.3639 O   0  0  0  0  0  0  0  0  0  0  0  0
   28.3695  -13.0470  -15.5043 C   0  0  0  0  0  0  0  0  0  0  0  0
   26.9143  -13.3120  -15.1172 C   0  0  0  0  0  0  0  0  0  0  0  0
   26.0182  -12.2274  -15.6081 C   0  0  2  0  0  0  0  0  0  0  0  0
   26.4428  -10.8847  -15.0515 C   0  0  0  0  0  0  0  0  0  0  0  0
   24.5694  -12.5043  -15.4231 C   0  0  2  0  0  0  0  0  0  0  0  0
   24.3233  -13.7679  -16.1627 N   0  0  0  0  0  0  0  0  0  0  0  0
   23.6234  -11.4801  -15.8330 C   0  0  0  0  0  0  0  0  0  0  0  0
   23.4339  -11.1583  -17.0603 O   0  0  0  0  0  0  0  0  0  0  0  0
   22.8246  -10.7554  -14.9136 N   0  0  0  0  0  0  0  0  0  0  0  0
   21.8894   -9.7018  -15.3701 C   0  0  1  0  0  0  0  0  0  0  0  0
   20.4781  -10.1472  -15.0925 C   0  0  0  0  0  0  0  0  0  0  0  0
   19.4270   -9.1509  -15.4791 C   0  0  0  0  0  0  0  0  0  0  0  0
   18.0360   -9.6925  -15.0993 C   0  0  0  0  0  0  0  0  0  0  0  0
   16.9765   -8.7346  -15.6354 C   0  0  0  0  0  0  0  0  0  0  0  0
   16.1653   -9.4327  -16.6035 N   0  0  0  0  0  0  0  0  0  0  0  0
   22.2346   -8.4078  -14.7901 C   0  0  0  0  0  0  0  0  0  0  0  0
   21.7507   -7.2255  -15.3439 O   0  0  0  0  0  0  0  0  0  0  0  0
   22.9694   -8.2965  -13.7846 O   0  0  0  0  0  0  0  0  0  0  0  0
  2  1  1  0
  3  5  1  0
  3  2  1  0
  3  4  1  6
  5  6  1  1
  7  5  1  0
  7  8  2  0
 10  9  1  0
 11 10  1  0
 11 13  1  0
 11 12  1  1
 13 14  1  6
 14  7  1  0
 15 13  1  0
 15 17  1  0
 16 15  2  0
 18 17  1  0
 18 24  1  0
 18 19  1  1
 20 19  1  0
 21 22  1  0
 21 20  1  0
 22 23  1  0
 24 25  1  0
 26 24  2  0
M  END
$$$$
