IIK.pdb
     RDKit          3D

 26 25  0  0  1  0  0  0  0  0999 V2000
   15.8059  -21.3145    0.4427 C   0  0  0  0  0  0  0  0  0  0  0  0
   15.2265  -20.6221    1.6473 C   0  0  0  0  0  0  0  0  0  0  0  0
   16.2897  -19.8527    2.4115 C   0  0  2  0  0  0  0  0  0  0  0  0
   17.4356  -20.7255    2.8008 C   0  0  0  0  0  0  0  0  0  0  0  0
   15.6465  -19.1522    3.6166 C   0  0  2  0  0  0  0  0  0  0  0  0
   14.6211  -18.2839    2.9964 N   0  0  0  0  0  0  0  0  0  0  0  0
   16.6249  -18.2472    4.2776 C   0  0  0  0  0  0  0  0  0  0  0  0
   17.6458  -18.7602    4.8275 O   0  0  0  0  0  0  0  0  0  0  0  0
   18.2529  -13.8172    1.9988 C   0  0  0  0  0  0  0  0  0  0  0  0
   18.2329  -15.0604    2.8886 C   0  0  0  0  0  0  0  0  0  0  0  0
   17.5924  -14.7742    4.2032 C   0  0  2  0  0  0  0  0  0  0  0  0
   18.2926  -13.6300    4.9056 C   0  0  0  0  0  0  0  0  0  0  0  0
   17.4167  -15.9704    5.0680 C   0  0  2  0  0  0  0  0  0  0  0  0
   16.4778  -16.8471    4.3236 N   0  0  0  0  0  0  0  0  0  0  0  0
   16.9516  -15.7632    6.4292 C   0  0  0  0  0  0  0  0  0  0  0  0
   15.8085  -15.2498    6.7039 O   0  0  0  0  0  0  0  0  0  0  0  0
   17.7169  -16.1173    7.5683 N   0  0  0  0  0  0  0  0  0  0  0  0
   17.2020  -15.8999    8.9396 C   0  0  1  0  0  0  0  0  0  0  0  0
   16.9772  -17.2367    9.5951 C   0  0  0  0  0  0  0  0  0  0  0  0
   15.7426  -17.9519    9.1356 C   0  0  0  0  0  0  0  0  0  0  0  0
   15.6254  -19.3031    9.8656 C   0  0  0  0  0  0  0  0  0  0  0  0
   14.3975  -20.0382    9.3371 C   0  0  0  0  0  0  0  0  0  0  0  0
   14.3597  -21.3585    9.9184 N   0  0  0  0  0  0  0  0  0  0  0  0
   18.0746  -15.0031    9.6908 C   0  0  0  0  0  0  0  0  0  0  0  0
   19.4568  -15.0530    9.5315 O   0  0  0  0  0  0  0  0  0  0  0  0
   17.6336  -14.1595   10.5016 O   0  0  0  0  0  0  0  0  0  0  0  0
  2  1  1  0
  3  5  1  0
  3  2  1  0
  3  4  1  1
  5  6  1  6
  7  5  1  0
  7  8  2  0
 10  9  1  0
 11 10  1  0
 11 13  1  0
 11 12  1  1
 13 14  1  6
 14  7  1  0
 15 13  1  0
 15 17  1  0
 16 15  2  0
 18 17  1  0
 18 24  1  0
 18 19  1  1
 20 19  1  0
 21 22  1  0
 21 20  1  0
 22 23  1  0
 24 25  1  0
 26 24  2  0
M  END
$$$$
