IIK.pdb
     RDKit          3D

 26 25  0  0  1  0  0  0  0  0999 V2000
   19.6775  -17.3757  -17.9354 C   0  0  0  0  0  0  0  0  0  0  0  0
   21.1447  -17.3620  -17.5983 C   0  0  0  0  0  0  0  0  0  0  0  0
   21.5335  -16.0939  -16.8587 C   0  0  2  0  0  0  0  0  0  0  0  0
   21.0625  -14.8693  -17.5691 C   0  0  0  0  0  0  0  0  0  0  0  0
   23.0495  -16.0883  -16.6162 C   0  0  2  0  0  0  0  0  0  0  0  0
   23.2612  -17.2808  -15.7659 N   0  0  0  0  0  0  0  0  0  0  0  0
   23.4428  -14.9093  -15.7986 C   0  0  0  0  0  0  0  0  0  0  0  0
   23.0207  -14.8343  -14.6053 O   0  0  0  0  0  0  0  0  0  0  0  0
   28.2752  -13.4494  -15.3518 C   0  0  0  0  0  0  0  0  0  0  0  0
   26.7812  -13.6278  -15.0802 C   0  0  0  0  0  0  0  0  0  0  0  0
   26.0006  -12.4519  -15.5581 C   0  0  2  0  0  0  0  0  0  0  0  0
   26.4695  -11.1822  -14.8791 C   0  0  0  0  0  0  0  0  0  0  0  0
   24.5266  -12.6352  -15.4998 C   0  0  2  0  0  0  0  0  0  0  0  0
   24.2627  -13.8702  -16.2803 N   0  0  0  0  0  0  0  0  0  0  0  0
   23.6866  -11.5457  -15.9683 C   0  0  0  0  0  0  0  0  0  0  0  0
   23.6283  -11.1915  -17.2000 O   0  0  0  0  0  0  0  0  0  0  0  0
   22.8553  -10.7872  -15.1069 N   0  0  0  0  0  0  0  0  0  0  0  0
   22.0383   -9.6631  -15.6187 C   0  0  1  0  0  0  0  0  0  0  0  0
   20.5842  -10.0494  -15.5607 C   0  0  0  0  0  0  0  0  0  0  0  0
   19.6389   -8.9701  -15.9949 C   0  0  0  0  0  0  0  0  0  0  0  0
   18.1892   -9.4809  -15.8948 C   0  0  0  0  0  0  0  0  0  0  0  0
   17.2596   -8.4308  -16.4953 C   0  0  0  0  0  0  0  0  0  0  0  0
   15.9500   -9.0124  -16.6667 N   0  0  0  0  0  0  0  0  0  0  0  0
   22.3574   -8.4226  -14.9192 C   0  0  0  0  0  0  0  0  0  0  0  0
   22.3229   -7.1994  -15.5835 O   0  0  0  0  0  0  0  0  0  0  0  0
   22.6726   -8.3951  -13.7095 O   0  0  0  0  0  0  0  0  0  0  0  0
  2  1  1  0
  3  5  1  0
  3  2  1  0
  3  4  1  6
  5  6  1  1
  7  5  1  0
  7  8  2  0
 10  9  1  0
 11 10  1  0
 11 13  1  0
 11 12  1  1
 13 14  1  6
 14  7  1  0
 15 13  1  0
 15 17  1  0
 16 15  2  0
 18 17  1  0
 18 24  1  0
 18 19  1  1
 20 19  1  0
 21 22  1  0
 21 20  1  0
 22 23  1  0
 24 25  1  0
 26 24  2  0
M  END
$$$$
