IIK.pdb
     RDKit          3D

 26 25  0  0  1  0  0  0  0  0999 V2000
   19.9827  -19.3400  -18.1986 C   0  0  0  0  0  0  0  0  0  0  0  0
   21.3413  -19.1316  -17.5846 C   0  0  0  0  0  0  0  0  0  0  0  0
   21.5042  -17.7148  -17.0625 C   0  0  2  0  0  0  0  0  0  0  0  0
   21.0598  -16.6996  -18.0616 C   0  0  0  0  0  0  0  0  0  0  0  0
   22.9555  -17.5007  -16.6101 C   0  0  2  0  0  0  0  0  0  0  0  0
   23.1054  -18.4549  -15.4889 N   0  0  0  0  0  0  0  0  0  0  0  0
   23.1273  -16.1397  -16.0344 C   0  0  0  0  0  0  0  0  0  0  0  0
   22.4630  -15.8342  -14.9984 O   0  0  0  0  0  0  0  0  0  0  0  0
   27.8608  -14.2386  -15.3116 C   0  0  0  0  0  0  0  0  0  0  0  0
   26.3623  -14.5274  -15.2184 C   0  0  0  0  0  0  0  0  0  0  0  0
   25.5697  -13.5244  -15.9840 C   0  0  2  0  0  0  0  0  0  0  0  0
   25.8981  -12.1178  -15.5294 C   0  0  0  0  0  0  0  0  0  0  0  0
   24.1095  -13.8008  -16.0192 C   0  0  2  0  0  0  0  0  0  0  0  0
   23.9921  -15.1706  -16.5795 N   0  0  0  0  0  0  0  0  0  0  0  0
   23.2596  -12.8756  -16.7497 C   0  0  0  0  0  0  0  0  0  0  0  0
   23.3364  -12.7144  -18.0201 O   0  0  0  0  0  0  0  0  0  0  0  0
   22.2692  -12.0789  -16.1230 N   0  0  0  0  0  0  0  0  0  0  0  0
   21.4278  -11.1423  -16.9026 C   0  0  1  0  0  0  0  0  0  0  0  0
   20.0180  -11.1981  -16.3769 C   0  0  0  0  0  0  0  0  0  0  0  0
   19.0651  -10.2636  -17.0594 C   0  0  0  0  0  0  0  0  0  0  0  0
   17.6641  -10.4065  -16.4354 C   0  0  0  0  0  0  0  0  0  0  0  0
   16.6688   -9.6247  -17.2872 C   0  0  0  0  0  0  0  0  0  0  0  0
   15.3961   -9.5966  -16.6075 N   0  0  0  0  0  0  0  0  0  0  0  0
   22.0094   -9.8038  -16.9175 C   0  0  0  0  0  0  0  0  0  0  0  0
   21.7585   -8.9281  -17.9704 O   0  0  0  0  0  0  0  0  0  0  0  0
   22.7497   -9.3825  -16.0020 O   0  0  0  0  0  0  0  0  0  0  0  0
  2  1  1  0
  3  5  1  0
  3  2  1  0
  3  4  1  6
  5  6  1  1
  7  5  1  0
  7  8  2  0
 10  9  1  0
 11 10  1  0
 11 13  1  0
 11 12  1  1
 13 14  1  6
 14  7  1  0
 15 13  1  0
 15 17  1  0
 16 15  2  0
 18 17  1  0
 18 24  1  0
 18 19  1  1
 20 19  1  0
 21 22  1  0
 21 20  1  0
 22 23  1  0
 24 25  1  0
 26 24  2  0
M  END
$$$$
