IIK.pdb
     RDKit          3D

 26 25  0  0  1  0  0  0  0  0999 V2000
   16.9924  -18.0546  -22.6199 C   0  0  0  0  0  0  0  0  0  0  0  0
   17.7945  -16.8166  -22.3191 C   0  0  0  0  0  0  0  0  0  0  0  0
   17.2816  -16.1100  -21.0765 C   0  0  2  0  0  0  0  0  0  0  0  0
   15.8314  -15.7759  -21.1856 C   0  0  0  0  0  0  0  0  0  0  0  0
   18.1509  -14.8764  -20.7947 C   0  0  2  0  0  0  0  0  0  0  0  0
   19.4733  -15.4593  -20.4761 N   0  0  0  0  0  0  0  0  0  0  0  0
   17.6867  -14.1808  -19.5643 C   0  0  0  0  0  0  0  0  0  0  0  0
   16.5194  -13.6858  -19.5547 O   0  0  0  0  0  0  0  0  0  0  0  0
   18.4070  -16.2626  -14.8422 C   0  0  0  0  0  0  0  0  0  0  0  0
   17.7838  -15.4095  -15.9474 C   0  0  0  0  0  0  0  0  0  0  0  0
   18.4548  -14.0830  -16.0498 C   0  0  2  0  0  0  0  0  0  0  0  0
   18.3625  -13.3301  -14.7392 C   0  0  0  0  0  0  0  0  0  0  0  0
   18.0263  -13.2727  -17.2201 C   0  0  2  0  0  0  0  0  0  0  0  0
   18.4764  -14.0442  -18.4060 N   0  0  0  0  0  0  0  0  0  0  0  0
   18.4878  -11.8969  -17.3005 C   0  0  0  0  0  0  0  0  0  0  0  0
   19.7194  -11.5849  -17.4783 O   0  0  0  0  0  0  0  0  0  0  0  0
   17.6168  -10.7838  -17.1973 N   0  0  0  0  0  0  0  0  0  0  0  0
   18.1312   -9.3962  -17.2518 C   0  0  1  0  0  0  0  0  0  0  0  0
   17.0790   -8.5083  -17.8615 C   0  0  0  0  0  0  0  0  0  0  0  0
   17.4550   -7.0588  -17.9289 C   0  0  0  0  0  0  0  0  0  0  0  0
   16.3142   -6.2583  -18.5850 C   0  0  0  0  0  0  0  0  0  0  0  0
   16.7873   -4.8245  -18.8032 C   0  0  0  0  0  0  0  0  0  0  0  0
   15.7019   -4.0567  -19.3644 N   0  0  0  0  0  0  0  0  0  0  0  0
   18.5981   -8.9586  -15.9402 C   0  0  0  0  0  0  0  0  0  0  0  0
   19.7159   -8.1374  -15.8178 O   0  0  0  0  0  0  0  0  0  0  0  0
   18.0289   -9.2929  -14.8782 O   0  0  0  0  0  0  0  0  0  0  0  0
  2  1  1  0
  3  5  1  0
  3  2  1  0
  3  4  1  6
  5  6  1  1
  7  5  1  0
  7  8  2  0
 10  9  1  0
 11 10  1  0
 11 13  1  0
 11 12  1  1
 13 14  1  6
 14  7  1  0
 15 13  1  0
 15 17  1  0
 16 15  2  0
 18 17  1  0
 18 24  1  0
 18 19  1  1
 20 19  1  0
 21 22  1  0
 21 20  1  0
 22 23  1  0
 24 25  1  0
 26 24  2  0
M  END
$$$$
