IIK.pdb
     RDKit          3D

 26 25  0  0  1  0  0  0  0  0999 V2000
   26.6119  -19.8427   -8.0724 C   0  0  0  0  0  0  0  0  0  0  0  0
   26.1935  -20.5250   -9.3475 C   0  0  0  0  0  0  0  0  0  0  0  0
   24.7508  -20.2078   -9.7002 C   0  0  2  0  0  0  0  0  0  0  0  0
   23.8088  -20.6339   -8.6245 C   0  0  0  0  0  0  0  0  0  0  0  0
   24.4096  -20.8284  -11.0623 C   0  0  2  0  0  0  0  0  0  0  0  0
   24.8289  -22.2391  -10.9066 N   0  0  0  0  0  0  0  0  0  0  0  0
   25.2666  -20.2468  -12.1302 C   0  0  0  0  0  0  0  0  0  0  0  0
   25.0904  -19.0329  -12.4515 O   0  0  0  0  0  0  0  0  0  0  0  0
   30.3265  -20.8206  -11.9847 C   0  0  0  0  0  0  0  0  0  0  0  0
   28.9040  -20.3375  -12.2691 C   0  0  0  0  0  0  0  0  0  0  0  0
   28.4599  -20.7377  -13.6340 C   0  0  2  0  0  0  0  0  0  0  0  0
   29.4255  -20.2313  -14.6847 C   0  0  0  0  0  0  0  0  0  0  0  0
   27.0425  -20.4053  -13.9348 C   0  0  2  0  0  0  0  0  0  0  0  0
   26.2670  -20.9744  -12.8039 N   0  0  0  0  0  0  0  0  0  0  0  0
   26.4944  -20.8503  -15.2051 C   0  0  0  0  0  0  0  0  0  0  0  0
   26.6380  -22.0470  -15.6445 O   0  0  0  0  0  0  0  0  0  0  0  0
   25.7487  -20.0034  -16.0625 N   0  0  0  0  0  0  0  0  0  0  0  0
   24.6280  -20.5266  -16.8769 C   0  0  1  0  0  0  0  0  0  0  0  0
   23.6866  -21.2877  -15.9815 C   0  0  0  0  0  0  0  0  0  0  0  0
   23.5255  -22.7344  -16.3392 C   0  0  0  0  0  0  0  0  0  0  0  0
   23.8901  -23.6111  -15.1263 C   0  0  0  0  0  0  0  0  0  0  0  0
   23.7869  -25.0771  -15.5356 C   0  0  0  0  0  0  0  0  0  0  0  0
   24.0757  -25.9021  -14.3872 N   0  0  0  0  0  0  0  0  0  0  0  0
   23.9940  -19.4586  -17.6434 C   0  0  0  0  0  0  0  0  0  0  0  0
   23.6235  -18.2640  -17.0316 O   0  0  0  0  0  0  0  0  0  0  0  0
   23.7552  -19.5598  -18.8665 O   0  0  0  0  0  0  0  0  0  0  0  0
  2  1  1  0
  3  5  1  0
  3  2  1  0
  3  4  1  1
  5  6  1  1
  7  5  1  0
  7  8  2  0
 10  9  1  0
 11 10  1  0
 11 13  1  0
 11 12  1  6
 13 14  1  1
 14  7  1  0
 15 13  1  0
 15 17  1  0
 16 15  2  0
 18 17  1  0
 18 24  1  0
 18 19  1  1
 20 19  1  0
 21 22  1  0
 21 20  1  0
 22 23  1  0
 24 25  1  0
 26 24  2  0
M  END
$$$$
