IIK.pdb
     RDKit          3D

 26 25  0  0  1  0  0  0  0  0999 V2000
   29.4015  -17.5939  -16.6777 C   0  0  0  0  0  0  0  0  0  0  0  0
   28.0201  -17.3235  -16.1438 C   0  0  0  0  0  0  0  0  0  0  0  0
   27.4197  -18.5620  -15.5020 C   0  0  2  0  0  0  0  0  0  0  0  0
   27.5848  -19.7697  -16.3626 C   0  0  0  0  0  0  0  0  0  0  0  0
   25.9520  -18.2907  -15.1425 C   0  0  2  0  0  0  0  0  0  0  0  0
   26.0394  -17.1604  -14.1913 N   0  0  0  0  0  0  0  0  0  0  0  0
   25.3792  -19.4372  -14.3871 C   0  0  0  0  0  0  0  0  0  0  0  0
   25.1663  -20.5227  -15.0070 O   0  0  0  0  0  0  0  0  0  0  0  0
   26.6970  -20.6220   -9.3552 C   0  0  0  0  0  0  0  0  0  0  0  0
   26.2084  -20.8253  -10.7897 C   0  0  0  0  0  0  0  0  0  0  0  0
   24.7751  -20.4436  -10.9318 C   0  0  2  0  0  0  0  0  0  0  0  0
   23.9060  -21.2554   -9.9946 C   0  0  0  0  0  0  0  0  0  0  0  0
   24.2811  -20.4443  -12.3339 C   0  0  2  0  0  0  0  0  0  0  0  0
   25.0617  -19.3814  -13.0159 N   0  0  0  0  0  0  0  0  0  0  0  0
   22.8573  -20.2529  -12.5535 C   0  0  0  0  0  0  0  0  0  0  0  0
   22.2574  -19.1460  -12.3073 O   0  0  0  0  0  0  0  0  0  0  0  0
   22.0122  -21.2691  -13.0650 N   0  0  0  0  0  0  0  0  0  0  0  0
   20.5655  -21.0333  -13.2760 C   0  0  1  0  0  0  0  0  0  0  0  0
   20.2084  -21.4175  -14.6874 C   0  0  0  0  0  0  0  0  0  0  0  0
   18.7595  -21.2415  -15.0293 C   0  0  0  0  0  0  0  0  0  0  0  0
   18.5127  -21.6895  -16.4822 C   0  0  0  0  0  0  0  0  0  0  0  0
   17.0655  -21.3766  -16.8498 C   0  0  0  0  0  0  0  0  0  0  0  0
   16.8453  -21.7455  -18.2276 N   0  0  0  0  0  0  0  0  0  0  0  0
   19.7705  -21.7046  -12.2527 C   0  0  0  0  0  0  0  0  0  0  0  0
   20.2284  -22.8697  -11.6432 O   0  0  0  0  0  0  0  0  0  0  0  0
   18.6574  -21.2758  -11.8777 O   0  0  0  0  0  0  0  0  0  0  0  0
  2  1  1  0
  3  5  1  0
  3  2  1  0
  3  4  1  6
  5  6  1  1
  7  5  1  0
  7  8  2  0
 10  9  1  0
 11 10  1  0
 11 13  1  0
 11 12  1  1
 13 14  1  6
 14  7  1  0
 15 13  1  0
 15 17  1  0
 16 15  2  0
 18 17  1  0
 18 24  1  0
 18 19  1  6
 20 19  1  0
 21 22  1  0
 21 20  1  0
 22 23  1  0
 24 25  1  0
 26 24  2  0
M  END
$$$$
