IIK.pdb
     RDKit          3D

 26 25  0  0  1  0  0  0  0  0999 V2000
   25.2537  -15.9000  -17.7654 C   0  0  0  0  0  0  0  0  0  0  0  0
   25.5465  -14.5790  -17.1053 C   0  0  0  0  0  0  0  0  0  0  0  0
   24.4747  -13.5502  -17.4204 C   0  0  2  0  0  0  0  0  0  0  0  0
   24.2599  -13.4032  -18.8897 C   0  0  0  0  0  0  0  0  0  0  0  0
   24.8277  -12.2199  -16.7404 C   0  0  2  0  0  0  0  0  0  0  0  0
   25.0696  -12.6118  -15.3340 N   0  0  0  0  0  0  0  0  0  0  0  0
   23.6506  -11.3103  -16.7306 C   0  0  0  0  0  0  0  0  0  0  0  0
   23.2367  -10.8466  -17.8359 O   0  0  0  0  0  0  0  0  0  0  0  0
   19.1395  -12.6193  -14.7602 C   0  0  0  0  0  0  0  0  0  0  0  0
   20.1628  -11.8577  -15.6032 C   0  0  0  0  0  0  0  0  0  0  0  0
   20.7320  -10.7043  -14.8508 C   0  0  2  0  0  0  0  0  0  0  0  0
   19.6333   -9.7800  -14.3698 C   0  0  0  0  0  0  0  0  0  0  0  0
   21.8241   -9.9914  -15.5642 C   0  0  2  0  0  0  0  0  0  0  0  0
   22.9686  -10.9372  -15.5560 N   0  0  0  0  0  0  0  0  0  0  0  0
   22.2321   -8.6916  -15.0581 C   0  0  0  0  0  0  0  0  0  0  0  0
   22.8952   -8.5450  -13.9697 O   0  0  0  0  0  0  0  0  0  0  0  0
   21.9393   -7.4769  -15.7268 N   0  0  0  0  0  0  0  0  0  0  0  0
   22.4224   -6.1768  -15.2079 C   0  0  1  0  0  0  0  0  0  0  0  0
   22.4083   -5.1684  -16.3260 C   0  0  0  0  0  0  0  0  0  0  0  0
   22.7964   -3.7806  -15.9133 C   0  0  0  0  0  0  0  0  0  0  0  0
   22.8126   -2.8592  -17.1475 C   0  0  0  0  0  0  0  0  0  0  0  0
   23.2720   -1.4707  -16.7136 C   0  0  0  0  0  0  0  0  0  0  0  0
   23.2483   -0.5936  -17.8594 N   0  0  0  0  0  0  0  0  0  0  0  0
   21.6684   -5.7716  -14.0258 C   0  0  0  0  0  0  0  0  0  0  0  0
   22.3048   -5.1636  -12.9470 O   0  0  0  0  0  0  0  0  0  0  0  0
   20.4347   -5.9469  -13.9230 O   0  0  0  0  0  0  0  0  0  0  0  0
  2  1  1  0
  3  5  1  0
  3  2  1  0
  3  4  1  6
  5  6  1  1
  7  5  1  0
  7  8  2  0
 10  9  1  0
 11 10  1  0
 11 13  1  0
 11 12  1  6
 13 14  1  1
 14  7  1  0
 15 13  1  0
 15 17  1  0
 16 15  2  0
 18 17  1  0
 18 24  1  0
 18 19  1  6
 20 19  1  0
 21 22  1  0
 21 20  1  0
 22 23  1  0
 24 25  1  0
 26 24  2  0
M  END
$$$$
