IIK.pdb
     RDKit          3D

 26 25  0  0  1  0  0  0  0  0999 V2000
   15.2124  -13.2737  -15.4938 C   0  0  0  0  0  0  0  0  0  0  0  0
   16.0405  -12.1817  -14.8707 C   0  0  0  0  0  0  0  0  0  0  0  0
   15.1978  -11.2826  -13.9831 C   0  0  2  0  0  0  0  0  0  0  0  0
   13.9799  -10.7881  -14.6891 C   0  0  0  0  0  0  0  0  0  0  0  0
   16.0682  -10.1408  -13.4393 C   0  0  2  0  0  0  0  0  0  0  0  0
   16.9306  -10.8163  -12.4443 N   0  0  0  0  0  0  0  0  0  0  0  0
   15.2366   -9.1640  -12.6860 C   0  0  0  0  0  0  0  0  0  0  0  0
   14.3324   -8.5321  -13.3112 O   0  0  0  0  0  0  0  0  0  0  0  0
   12.7615  -10.1470   -8.2274 C   0  0  0  0  0  0  0  0  0  0  0  0
   13.0781   -9.4169   -9.5329 C   0  0  0  0  0  0  0  0  0  0  0  0
   14.1829   -8.4341   -9.3485 C   0  0  2  0  0  0  0  0  0  0  0  0
   13.8245   -7.4135   -8.2888 C   0  0  0  0  0  0  0  0  0  0  0  0
   14.6673   -7.8186  -10.6119 C   0  0  2  0  0  0  0  0  0  0  0  0
   15.3997   -8.9045  -11.3111 N   0  0  0  0  0  0  0  0  0  0  0  0
   15.4925   -6.6262  -10.5149 C   0  0  0  0  0  0  0  0  0  0  0  0
   16.6936   -6.6454  -10.0647 O   0  0  0  0  0  0  0  0  0  0  0  0
   15.0440   -5.3431  -10.9162 N   0  0  0  0  0  0  0  0  0  0  0  0
   15.9213   -4.1544  -10.8141 C   0  0  1  0  0  0  0  0  0  0  0  0
   15.9478   -3.4506  -12.1449 C   0  0  0  0  0  0  0  0  0  0  0  0
   16.7547   -2.1874  -12.1615 C   0  0  0  0  0  0  0  0  0  0  0  0
   16.7890   -1.6141  -13.5907 C   0  0  0  0  0  0  0  0  0  0  0  0
   17.6774   -0.3739  -13.5975 C   0  0  0  0  0  0  0  0  0  0  0  0
   17.7000    0.1749  -14.9320 N   0  0  0  0  0  0  0  0  0  0  0  0
   15.5253   -3.3055   -9.6949 C   0  0  0  0  0  0  0  0  0  0  0  0
   16.4553   -2.4944   -9.0503 O   0  0  0  0  0  0  0  0  0  0  0  0
   14.3518   -3.2642   -9.2652 O   0  0  0  0  0  0  0  0  0  0  0  0
  2  1  1  0
  3  5  1  0
  3  2  1  0
  3  4  1  6
  5  6  1  1
  7  5  1  0
  7  8  2  0
 10  9  1  0
 11 10  1  0
 11 13  1  0
 11 12  1  1
 13 14  1  1
 14  7  1  0
 15 13  1  0
 15 17  1  0
 16 15  2  0
 18 17  1  0
 18 24  1  0
 18 19  1  6
 20 19  1  0
 21 22  1  0
 21 20  1  0
 22 23  1  0
 24 25  1  0
 26 24  2  0
M  END
$$$$
