LKD.pdb
     RDKit          3D

 26 25  0  0  1  0  0  0  0  0999 V2000
   29.3989  -19.0748   -5.0916 C   0  0  0  0  0  0  0  0  0  0  0  0
   28.3107  -19.9227   -5.6984 C   0  0  1  0  0  0  0  0  0  0  0  0
   27.3086  -20.3895   -4.6664 C   0  0  0  0  0  0  0  0  0  0  0  0
   27.5339  -19.1673   -6.7634 C   0  0  0  0  0  0  0  0  0  0  0  0
   26.6478  -20.1969   -7.4286 C   0  0  2  0  0  0  0  0  0  0  0  0
   27.4841  -21.4050   -7.5180 N   0  0  0  0  0  0  0  0  0  0  0  0
   26.2219  -19.8188   -8.7748 C   0  0  0  0  0  0  0  0  0  0  0  0
   25.6760  -18.6942   -8.9477 O   0  0  0  0  0  0  0  0  0  0  0  0
   26.4118  -20.6847   -9.8669 N   0  0  0  0  0  0  0  0  0  0  0  0
   26.0084  -20.3155  -11.2635 C   0  0  1  0  0  0  0  0  0  0  0  0
   27.0379  -20.8606  -12.1936 C   0  0  0  0  0  0  0  0  0  0  0  0
   26.7750  -20.6222  -13.6444 C   0  0  0  0  0  0  0  0  0  0  0  0
   27.8942  -21.2417  -14.4623 C   0  0  0  0  0  0  0  0  0  0  0  0
   27.6966  -20.8646  -15.9258 C   0  0  0  0  0  0  0  0  0  0  0  0
   28.7438  -21.5222  -16.6977 N   0  0  0  0  0  0  0  0  0  0  0  0
   24.6445  -20.8590  -11.4850 C   0  0  0  0  0  0  0  0  0  0  0  0
   24.0818  -21.5115  -10.5405 O   0  0  0  0  0  0  0  0  0  0  0  0
   23.8885  -20.7177  -12.6635 N   0  0  0  0  0  0  0  0  0  0  0  0
   22.4579  -21.1568  -12.6949 C   0  0  1  0  0  0  0  0  0  0  0  0
   21.7373  -20.3937  -11.6338 C   0  0  0  0  0  0  0  0  0  0  0  0
   20.3054  -20.6550  -11.5206 C   0  0  0  0  0  0  0  0  0  0  0  0
   19.7022  -21.5317  -12.1720 O   0  0  0  0  0  0  0  0  0  0  0  0
   21.9546  -20.8887  -14.0605 C   0  0  0  0  0  0  0  0  0  0  0  0
   21.1616  -21.7791  -14.7201 O   0  0  0  0  0  0  0  0  0  0  0  0
   19.5263  -19.8932  -10.6344 O   0  0  0  0  0  0  0  0  0  0  0  0
   22.2542  -19.8204  -14.6464 O   0  0  0  0  0  0  0  0  0  0  0  0
  2  1  1  1
  2  3  1  0
  4  2  1  0
  5  4  1  0
  5  6  1  6
  7  5  1  0
  8  7  2  0
  9  7  1  0
 10  9  1  0
 11 12  1  0
 10 11  1  6
 13 14  1  0
 13 12  1  0
 14 15  1  0
 16 18  1  0
 16 10  1  0
 17 16  2  0
 19 20  1  1
 19 18  1  0
 20 21  1  0
 21 22  2  0
 21 25  1  0
 23 24  1  0
 23 19  1  0
 26 23  2  0
M  END
$$$$
