LKD.pdb
     RDKit          3D

 26 25  0  0  1  0  0  0  0  0999 V2000
   26.7777  -16.6960  -16.4777 C   0  0  0  0  0  0  0  0  0  0  0  0
   26.1663  -15.4162  -15.9681 C   0  0  1  0  0  0  0  0  0  0  0  0
   27.1824  -14.3013  -15.8613 C   0  0  0  0  0  0  0  0  0  0  0  0
   25.0548  -14.9200  -16.8773 C   0  0  0  0  0  0  0  0  0  0  0  0
   24.4579  -13.7213  -16.1743 C   0  0  2  0  0  0  0  0  0  0  0  0
   24.0941  -14.2177  -14.8370 N   0  0  0  0  0  0  0  0  0  0  0  0
   23.2574  -13.2002  -16.8253 C   0  0  0  0  0  0  0  0  0  0  0  0
   23.3415  -12.7814  -18.0128 O   0  0  0  0  0  0  0  0  0  0  0  0
   22.0238  -13.1610  -16.1505 N   0  0  0  0  0  0  0  0  0  0  0  0
   20.7603  -12.6998  -16.8141 C   0  0  1  0  0  0  0  0  0  0  0  0
   19.6383  -13.5214  -16.2773 C   0  0  0  0  0  0  0  0  0  0  0  0
   19.2633  -14.7057  -17.1066 C   0  0  0  0  0  0  0  0  0  0  0  0
   18.1755  -15.4891  -16.3937 C   0  0  0  0  0  0  0  0  0  0  0  0
   17.7778  -16.6759  -17.2636 C   0  0  0  0  0  0  0  0  0  0  0  0
   16.6768  -17.3625  -16.5993 N   0  0  0  0  0  0  0  0  0  0  0  0
   20.6282  -11.2456  -16.5444 C   0  0  0  0  0  0  0  0  0  0  0  0
   20.8821  -10.8127  -15.3687 O   0  0  0  0  0  0  0  0  0  0  0  0
   20.2451  -10.2704  -17.4840 N   0  0  0  0  0  0  0  0  0  0  0  0
   20.0634   -8.8472  -17.0573 C   0  0  1  0  0  0  0  0  0  0  0  0
   20.3010   -7.9918  -18.2568 C   0  0  0  0  0  0  0  0  0  0  0  0
   20.0624   -6.5625  -18.0788 C   0  0  0  0  0  0  0  0  0  0  0  0
   19.7123   -6.0423  -17.0000 O   0  0  0  0  0  0  0  0  0  0  0  0
   18.6924   -8.7326  -16.5119 C   0  0  0  0  0  0  0  0  0  0  0  0
   17.6297   -9.3407  -17.1099 O   0  0  0  0  0  0  0  0  0  0  0  0
   20.2274   -5.6881  -19.1655 O   0  0  0  0  0  0  0  0  0  0  0  0
   18.4792   -8.0620  -15.4730 O   0  0  0  0  0  0  0  0  0  0  0  0
  2  1  1  6
  2  3  1  0
  4  2  1  0
  5  4  1  0
  5  6  1  1
  7  5  1  0
  8  7  2  0
  9  7  1  0
 10  9  1  0
 11 12  1  0
 10 11  1  1
 13 14  1  0
 13 12  1  0
 14 15  1  0
 16 18  1  0
 16 10  1  0
 17 16  2  0
 19 20  1  6
 19 18  1  0
 20 21  1  0
 21 22  2  0
 21 25  1  0
 23 24  1  0
 23 19  1  0
 26 23  2  0
M  END
$$$$
