LKD.pdb
     RDKit          3D

 26 25  0  0  1  0  0  0  0  0999 V2000
   24.7263  -33.8282  -11.4652 C   0  0  0  0  0  0  0  0  0  0  0  0
   25.1977  -33.2488  -10.1562 C   0  0  1  0  0  0  0  0  0  0  0  0
   25.0546  -31.7439  -10.1138 C   0  0  0  0  0  0  0  0  0  0  0  0
   24.4148  -33.8038   -8.9783 C   0  0  0  0  0  0  0  0  0  0  0  0
   25.0276  -33.1727   -7.7480 C   0  0  2  0  0  0  0  0  0  0  0  0
   26.4518  -33.5395   -7.8122 N   0  0  0  0  0  0  0  0  0  0  0  0
   24.4687  -33.6744   -6.4940 C   0  0  0  0  0  0  0  0  0  0  0  0
   23.2750  -33.3878   -6.2014 O   0  0  0  0  0  0  0  0  0  0  0  0
   25.2378  -34.4640   -5.6202 N   0  0  0  0  0  0  0  0  0  0  0  0
   24.6617  -35.6325   -4.8771 C   0  0  1  0  0  0  0  0  0  0  0  0
   24.2764  -36.6649   -5.8810 C   0  0  0  0  0  0  0  0  0  0  0  0
   23.6599  -37.9027   -5.3165 C   0  0  0  0  0  0  0  0  0  0  0  0
   23.3380  -38.8607   -6.4497 C   0  0  0  0  0  0  0  0  0  0  0  0
   22.6885  -40.1093   -5.8645 C   0  0  0  0  0  0  0  0  0  0  0  0
   22.3912  -41.0128   -6.9692 N   0  0  0  0  0  0  0  0  0  0  0  0
   25.6901  -36.0862   -3.9069 C   0  0  0  0  0  0  0  0  0  0  0  0
   26.8720  -36.3265   -4.3309 O   0  0  0  0  0  0  0  0  0  0  0  0
   25.4861  -36.2779   -2.5278 N   0  0  0  0  0  0  0  0  0  0  0  0
   26.5966  -36.7986   -1.6698 C   0  0  1  0  0  0  0  0  0  0  0  0
   27.2050  -35.6269   -0.9739 C   0  0  0  0  0  0  0  0  0  0  0  0
   28.2691  -35.9319   -0.0220 C   0  0  0  0  0  0  0  0  0  0  0  0
   28.6205  -37.0891    0.2850 O   0  0  0  0  0  0  0  0  0  0  0  0
   25.9998  -37.7895   -0.7468 C   0  0  0  0  0  0  0  0  0  0  0  0
   26.7533  -38.4626    0.1675 O   0  0  0  0  0  0  0  0  0  0  0  0
   28.9625  -34.8847    0.6066 O   0  0  0  0  0  0  0  0  0  0  0  0
   24.7697  -38.0332   -0.7901 O   0  0  0  0  0  0  0  0  0  0  0  0
  2  1  1  6
  2  3  1  0
  4  2  1  0
  5  4  1  0
  5  6  1  1
  7  5  1  0
  8  7  2  0
  9  7  1  0
 10  9  1  0
 11 12  1  0
 10 11  1  6
 13 14  1  0
 13 12  1  0
 14 15  1  0
 16 18  1  0
 16 10  1  0
 17 16  2  0
 19 20  1  1
 19 18  1  0
 20 21  1  0
 21 22  2  0
 21 25  1  0
 23 24  1  0
 23 19  1  0
 26 23  2  0
M  END
$$$$
