LKD.pdb
     RDKit          3D

 26 25  0  0  1  0  0  0  0  0999 V2000
   29.4724  -19.1848   -5.8420 C   0  0  0  0  0  0  0  0  0  0  0  0
   28.2028  -19.9230   -6.1802 C   0  0  1  0  0  0  0  0  0  0  0  0
   27.3388  -20.1601   -4.9619 C   0  0  0  0  0  0  0  0  0  0  0  0
   27.3562  -19.1597   -7.1847 C   0  0  0  0  0  0  0  0  0  0  0  0
   26.3233  -20.1470   -7.6806 C   0  0  2  0  0  0  0  0  0  0  0  0
   26.9905  -21.4565   -7.5973 N   0  0  0  0  0  0  0  0  0  0  0  0
   25.9113  -19.9161   -9.0639 C   0  0  0  0  0  0  0  0  0  0  0  0
   25.5173  -18.7646   -9.3981 O   0  0  0  0  0  0  0  0  0  0  0  0
   25.9488  -20.9512  -10.0157 N   0  0  0  0  0  0  0  0  0  0  0  0
   25.6593  -20.7165  -11.4685 C   0  0  1  0  0  0  0  0  0  0  0  0
   26.4802  -21.6788  -12.2572 C   0  0  0  0  0  0  0  0  0  0  0  0
   26.2487  -21.6530  -13.7325 C   0  0  0  0  0  0  0  0  0  0  0  0
   27.5881  -21.6203  -14.4468 C   0  0  0  0  0  0  0  0  0  0  0  0
   27.3402  -21.4777  -15.9440 C   0  0  0  0  0  0  0  0  0  0  0  0
   28.6309  -21.2684  -16.5884 N   0  0  0  0  0  0  0  0  0  0  0  0
   24.1948  -20.8752  -11.6556 C   0  0  0  0  0  0  0  0  0  0  0  0
   23.5639  -21.6938  -10.9032 O   0  0  0  0  0  0  0  0  0  0  0  0
   23.4118  -20.1900  -12.6031 N   0  0  0  0  0  0  0  0  0  0  0  0
   21.9422  -20.4580  -12.6976 C   0  0  1  0  0  0  0  0  0  0  0  0
   21.2451  -19.1421  -12.5993 C   0  0  0  0  0  0  0  0  0  0  0  0
   19.7872  -19.1859  -12.6632 C   0  0  0  0  0  0  0  0  0  0  0  0
   19.0678  -18.1900  -12.8814 O   0  0  0  0  0  0  0  0  0  0  0  0
   21.7128  -21.1537  -13.9835 C   0  0  0  0  0  0  0  0  0  0  0  0
   20.9173  -22.2567  -14.0700 O   0  0  0  0  0  0  0  0  0  0  0  0
   19.1180  -20.4060  -12.4726 O   0  0  0  0  0  0  0  0  0  0  0  0
   22.2557  -20.7353  -15.0344 O   0  0  0  0  0  0  0  0  0  0  0  0
  2  1  1  1
  2  3  1  0
  4  2  1  0
  5  4  1  0
  5  6  1  6
  7  5  1  0
  8  7  2  0
  9  7  1  0
 10  9  1  0
 11 12  1  0
 10 11  1  6
 13 14  1  0
 13 12  1  0
 14 15  1  0
 16 18  1  0
 16 10  1  0
 17 16  2  0
 19 20  1  6
 19 18  1  0
 20 21  1  0
 21 22  2  0
 21 25  1  0
 23 24  1  0
 23 19  1  0
 26 23  2  0
M  END
$$$$
