LKD.pdb
     RDKit          3D

 26 25  0  0  1  0  0  0  0  0999 V2000
   28.9072  -12.3933  -17.6467 C   0  0  0  0  0  0  0  0  0  0  0  0
   27.5655  -12.0633  -17.0446 C   0  0  1  0  0  0  0  0  0  0  0  0
   27.5844  -12.1360  -15.5343 C   0  0  0  0  0  0  0  0  0  0  0  0
   27.1083  -10.6632  -17.4173 C   0  0  0  0  0  0  0  0  0  0  0  0
   25.7122  -10.5265  -16.8517 C   0  0  2  0  0  0  0  0  0  0  0  0
   25.0250  -11.7644  -17.2545 N   0  0  0  0  0  0  0  0  0  0  0  0
   24.9745   -9.3835  -17.3865 C   0  0  0  0  0  0  0  0  0  0  0  0
   25.4208   -8.2208  -17.1823 O   0  0  0  0  0  0  0  0  0  0  0  0
   23.7865   -9.5633  -18.1180 N   0  0  0  0  0  0  0  0  0  0  0  0
   22.9987   -8.4104  -18.6653 C   0  0  1  0  0  0  0  0  0  0  0  0
   22.0626   -8.9466  -19.6941 C   0  0  0  0  0  0  0  0  0  0  0  0
   21.2015   -7.9267  -20.3643 C   0  0  0  0  0  0  0  0  0  0  0  0
   20.3134   -8.6168  -21.3843 C   0  0  0  0  0  0  0  0  0  0  0  0
   19.4409   -7.5670  -22.0625 C   0  0  0  0  0  0  0  0  0  0  0  0
   18.4869   -8.2670  -22.9138 N   0  0  0  0  0  0  0  0  0  0  0  0
   22.3241   -7.7547  -17.5165 C   0  0  0  0  0  0  0  0  0  0  0  0
   22.1152   -8.4363  -16.4554 O   0  0  0  0  0  0  0  0  0  0  0  0
   21.8849   -6.4182  -17.4794 N   0  0  0  0  0  0  0  0  0  0  0  0
   21.2953   -5.8563  -16.2236 C   0  0  1  0  0  0  0  0  0  0  0  0
   22.3363   -5.9630  -15.1595 C   0  0  0  0  0  0  0  0  0  0  0  0
   22.0626   -5.2356  -13.9237 C   0  0  0  0  0  0  0  0  0  0  0  0
   20.9159   -4.9934  -13.4957 O   0  0  0  0  0  0  0  0  0  0  0  0
   20.8952   -4.4630  -16.5212 C   0  0  0  0  0  0  0  0  0  0  0  0
   19.7954   -3.8954  -15.9509 O   0  0  0  0  0  0  0  0  0  0  0  0
   23.1300   -4.7644  -13.1418 O   0  0  0  0  0  0  0  0  0  0  0  0
   21.5709   -3.7674  -17.3174 O   0  0  0  0  0  0  0  0  0  0  0  0
  2  1  1  1
  2  3  1  0
  4  2  1  0
  5  4  1  0
  5  6  1  6
  7  5  1  0
  8  7  2  0
  9  7  1  0
 10  9  1  0
 11 12  1  0
 10 11  1  6
 13 14  1  0
 13 12  1  0
 14 15  1  0
 16 18  1  0
 16 10  1  0
 17 16  2  0
 19 20  1  1
 19 18  1  0
 20 21  1  0
 21 22  2  0
 21 25  1  0
 23 24  1  0
 23 19  1  0
 26 23  2  0
M  END
$$$$
