LKD.pdb
     RDKit          3D

 26 25  0  0  1  0  0  0  0  0999 V2000
   27.0968  -13.8218  -16.5056 C   0  0  0  0  0  0  0  0  0  0  0  0
   25.5958  -13.8840  -16.3853 C   0  0  1  0  0  0  0  0  0  0  0  0
   25.1528  -14.4367  -15.0493 C   0  0  0  0  0  0  0  0  0  0  0  0
   24.9601  -12.5119  -16.5324 C   0  0  0  0  0  0  0  0  0  0  0  0
   23.4668  -12.7503  -16.5104 C   0  0  2  0  0  0  0  0  0  0  0  0
   23.2204  -13.6702  -17.6330 N   0  0  0  0  0  0  0  0  0  0  0  0
   22.6783  -11.5366  -16.7151 C   0  0  0  0  0  0  0  0  0  0  0  0
   22.8824  -10.8451  -17.7509 O   0  0  0  0  0  0  0  0  0  0  0  0
   21.7060  -11.1357  -15.7810 N   0  0  0  0  0  0  0  0  0  0  0  0
   20.7822   -9.9806  -16.0298 C   0  0  1  0  0  0  0  0  0  0  0  0
   19.4151  -10.3904  -15.5996 C   0  0  0  0  0  0  0  0  0  0  0  0
   18.6168  -11.1222  -16.6282 C   0  0  0  0  0  0  0  0  0  0  0  0
   18.0710  -12.4012  -16.0186 C   0  0  0  0  0  0  0  0  0  0  0  0
   17.3490  -13.1907  -17.1041 C   0  0  0  0  0  0  0  0  0  0  0  0
   16.9473  -14.4686  -16.5292 N   0  0  0  0  0  0  0  0  0  0  0  0
   21.3263   -8.8153  -15.2875 C   0  0  0  0  0  0  0  0  0  0  0  0
   21.8404   -9.0074  -14.1329 O   0  0  0  0  0  0  0  0  0  0  0  0
   21.3357   -7.4848  -15.7457 N   0  0  0  0  0  0  0  0  0  0  0  0
   21.9151   -6.4007  -14.8916 C   0  0  1  0  0  0  0  0  0  0  0  0
   22.1218   -5.2101  -15.7675 C   0  0  0  0  0  0  0  0  0  0  0  0
   22.5581   -3.9905  -15.0941 C   0  0  0  0  0  0  0  0  0  0  0  0
   22.0158   -2.8770  -15.2459 O   0  0  0  0  0  0  0  0  0  0  0  0
   20.9579   -6.1634  -13.7882 C   0  0  0  0  0  0  0  0  0  0  0  0
   21.3616   -5.6770  -12.5810 O   0  0  0  0  0  0  0  0  0  0  0  0
   23.6516   -4.0340  -14.2137 O   0  0  0  0  0  0  0  0  0  0  0  0
   19.7379   -6.4105  -13.9453 O   0  0  0  0  0  0  0  0  0  0  0  0
  2  1  1  1
  2  3  1  0
  4  2  1  0
  5  4  1  0
  5  6  1  6
  7  5  1  0
  8  7  2  0
  9  7  1  0
 10  9  1  0
 11 12  1  0
 10 11  1  1
 13 14  1  0
 13 12  1  0
 14 15  1  0
 16 18  1  0
 16 10  1  0
 17 16  2  0
 19 20  1  6
 19 18  1  0
 20 21  1  0
 21 22  2  0
 21 25  1  0
 23 24  1  0
 23 19  1  0
 26 23  2  0
M  END
$$$$
