LKD.pdb
     RDKit          3D

 26 25  0  0  1  0  0  0  0  0999 V2000
   22.7453  -12.1317  -22.8249 C   0  0  0  0  0  0  0  0  0  0  0  0
   23.0563  -11.6601  -21.4277 C   0  0  1  0  0  0  0  0  0  0  0  0
   24.3835  -10.9393  -21.3509 C   0  0  0  0  0  0  0  0  0  0  0  0
   21.9986  -10.7020  -20.9065 C   0  0  0  0  0  0  0  0  0  0  0  0
   22.4063  -10.3783  -19.4865 C   0  0  2  0  0  0  0  0  0  0  0  0
   22.5637  -11.6898  -18.8367 N   0  0  0  0  0  0  0  0  0  0  0  0
   21.4048   -9.6069  -18.7526 C   0  0  0  0  0  0  0  0  0  0  0  0
   21.0989   -8.4549  -19.1676 O   0  0  0  0  0  0  0  0  0  0  0  0
   20.7855  -10.1284  -17.6023 N   0  0  0  0  0  0  0  0  0  0  0  0
   19.7460   -9.3666  -16.8351 C   0  0  1  0  0  0  0  0  0  0  0  0
   18.7735  -10.3528  -16.2841 C   0  0  0  0  0  0  0  0  0  0  0  0
   17.6313   -9.7634  -15.5232 C   0  0  0  0  0  0  0  0  0  0  0  0
   16.7696  -10.8844  -14.9698 C   0  0  0  0  0  0  0  0  0  0  0  0
   15.6554  -10.2741  -14.1276 C   0  0  0  0  0  0  0  0  0  0  0  0
   15.0112  -11.3567  -13.3942 N   0  0  0  0  0  0  0  0  0  0  0  0
   20.4570   -8.5746  -15.7997 C   0  0  0  0  0  0  0  0  0  0  0  0
   21.2601   -9.1772  -15.0085 O   0  0  0  0  0  0  0  0  0  0  0  0
   20.3330   -7.1868  -15.6026 N   0  0  0  0  0  0  0  0  0  0  0  0
   21.1032   -6.5119  -14.5108 C   0  0  1  0  0  0  0  0  0  0  0  0
   21.5741   -5.2010  -15.0465 C   0  0  0  0  0  0  0  0  0  0  0  0
   22.2228   -4.3145  -14.0849 C   0  0  0  0  0  0  0  0  0  0  0  0
   22.5648   -4.6613  -12.9361 O   0  0  0  0  0  0  0  0  0  0  0  0
   20.1887   -6.3835  -13.3543 C   0  0  0  0  0  0  0  0  0  0  0  0
   18.8460   -6.5810  -13.4766 O   0  0  0  0  0  0  0  0  0  0  0  0
   22.4952   -2.9828  -14.4387 O   0  0  0  0  0  0  0  0  0  0  0  0
   20.6393   -6.0847  -12.2220 O   0  0  0  0  0  0  0  0  0  0  0  0
  2  1  1  6
  2  3  1  0
  4  2  1  0
  5  4  1  0
  5  6  1  1
  7  5  1  0
  8  7  2  0
  9  7  1  0
 10  9  1  0
 11 12  1  0
 10 11  1  1
 13 14  1  0
 13 12  1  0
 14 15  1  0
 16 18  1  0
 16 10  1  0
 17 16  2  0
 19 20  1  6
 19 18  1  0
 20 21  1  0
 21 22  2  0
 21 25  1  0
 23 24  1  0
 23 19  1  0
 26 23  2  0
M  END
$$$$
