LKD.pdb
     RDKit          3D

 26 25  0  0  1  0  0  0  0  0999 V2000
   20.3491  -17.8740  -13.0966 C   0  0  0  0  0  0  0  0  0  0  0  0
   19.3609  -16.9288  -13.7302 C   0  0  1  0  0  0  0  0  0  0  0  0
   18.3189  -16.4482  -12.7453 C   0  0  0  0  0  0  0  0  0  0  0  0
   20.0428  -15.6940  -14.2949 C   0  0  0  0  0  0  0  0  0  0  0  0
   18.9364  -14.8575  -14.8980 C   0  0  2  0  0  0  0  0  0  0  0  0
   18.3556  -15.7103  -15.9480 N   0  0  0  0  0  0  0  0  0  0  0  0
   19.4089  -13.6161  -15.5081 C   0  0  0  0  0  0  0  0  0  0  0  0
   20.1444  -12.8460  -14.8308 O   0  0  0  0  0  0  0  0  0  0  0  0
   19.0569  -13.2745  -16.8264 N   0  0  0  0  0  0  0  0  0  0  0  0
   19.5707  -12.0364  -17.4992 C   0  0  1  0  0  0  0  0  0  0  0  0
   19.5731  -12.2848  -18.9689 C   0  0  0  0  0  0  0  0  0  0  0  0
   20.6877  -13.1451  -19.4672 C   0  0  0  0  0  0  0  0  0  0  0  0
   20.6004  -13.2478  -20.9796 C   0  0  0  0  0  0  0  0  0  0  0  0
   21.7401  -14.1296  -21.4762 C   0  0  0  0  0  0  0  0  0  0  0  0
   21.5744  -14.2989  -22.9146 N   0  0  0  0  0  0  0  0  0  0  0  0
   18.6971  -10.9124  -17.0769 C   0  0  0  0  0  0  0  0  0  0  0  0
   17.4366  -11.1100  -16.9965 O   0  0  0  0  0  0  0  0  0  0  0  0
   19.1341   -9.6171  -16.7427 N   0  0  0  0  0  0  0  0  0  0  0  0
   18.1391   -8.5600  -16.3778 C   0  0  1  0  0  0  0  0  0  0  0  0
   17.3641   -9.0667  -15.2074 C   0  0  0  0  0  0  0  0  0  0  0  0
   16.4851   -8.0995  -14.5569 C   0  0  0  0  0  0  0  0  0  0  0  0
   15.5969   -7.4543  -15.1500 O   0  0  0  0  0  0  0  0  0  0  0  0
   18.9059   -7.3275  -16.0899 C   0  0  0  0  0  0  0  0  0  0  0  0
   18.2977   -6.1920  -15.6453 O   0  0  0  0  0  0  0  0  0  0  0  0
   16.6173   -7.8537  -13.1804 O   0  0  0  0  0  0  0  0  0  0  0  0
   20.1498   -7.3039  -16.2532 O   0  0  0  0  0  0  0  0  0  0  0  0
  2  1  1  1
  2  3  1  0
  4  2  1  0
  5  4  1  0
  5  6  1  6
  7  5  1  0
  8  7  2  0
  9  7  1  0
 10  9  1  0
 11 12  1  0
 10 11  1  6
 13 14  1  0
 13 12  1  0
 14 15  1  0
 16 18  1  0
 16 10  1  0
 17 16  2  0
 19 20  1  1
 19 18  1  0
 20 21  1  0
 21 22  2  0
 21 25  1  0
 23 24  1  0
 23 19  1  0
 26 23  2  0
M  END
$$$$
