LKD.pdb
     RDKit          3D

 26 25  0  0  1  0  0  0  0  0999 V2000
   27.8887  -10.8843  -16.6038 C   0  0  0  0  0  0  0  0  0  0  0  0
   26.5448  -11.3067  -16.0684 C   0  0  1  0  0  0  0  0  0  0  0  0
   26.4307  -11.0884  -14.5764 C   0  0  0  0  0  0  0  0  0  0  0  0
   25.4095  -10.5348  -16.7194 C   0  0  0  0  0  0  0  0  0  0  0  0
   24.1377  -11.1263  -16.1537 C   0  0  2  0  0  0  0  0  0  0  0  0
   24.0905  -12.4942  -16.6959 N   0  0  0  0  0  0  0  0  0  0  0  0
   22.9289  -10.4151  -16.5657 C   0  0  0  0  0  0  0  0  0  0  0  0
   22.7546  -10.1693  -17.7912 O   0  0  0  0  0  0  0  0  0  0  0  0
   21.9691  -10.0066  -15.6221 N   0  0  0  0  0  0  0  0  0  0  0  0
   20.7160   -9.2816  -16.0142 C   0  0  1  0  0  0  0  0  0  0  0  0
   19.5584  -10.0466  -15.4694 C   0  0  0  0  0  0  0  0  0  0  0  0
   18.2149   -9.4664  -15.7681 C   0  0  0  0  0  0  0  0  0  0  0  0
   17.1399  -10.4122  -15.2628 C   0  0  0  0  0  0  0  0  0  0  0  0
   15.7743   -9.8200  -15.5909 C   0  0  0  0  0  0  0  0  0  0  0  0
   14.7650  -10.8075  -15.2290 N   0  0  0  0  0  0  0  0  0  0  0  0
   20.8272   -7.8970  -15.4894 C   0  0  0  0  0  0  0  0  0  0  0  0
   21.2470   -7.7243  -14.2943 O   0  0  0  0  0  0  0  0  0  0  0  0
   20.5114   -6.7244  -16.2005 N   0  0  0  0  0  0  0  0  0  0  0  0
   20.6973   -5.3846  -15.5594 C   0  0  1  0  0  0  0  0  0  0  0  0
   21.1119   -4.4341  -16.6327 C   0  0  0  0  0  0  0  0  0  0  0  0
   21.2373   -3.0356  -16.2331 C   0  0  0  0  0  0  0  0  0  0  0  0
   21.0552   -2.6230  -15.0697 O   0  0  0  0  0  0  0  0  0  0  0  0
   19.4101   -5.0301  -14.9210 C   0  0  0  0  0  0  0  0  0  0  0  0
   19.3554   -4.2694  -13.7917 O   0  0  0  0  0  0  0  0  0  0  0  0
   21.5830   -2.0664  -17.1890 O   0  0  0  0  0  0  0  0  0  0  0  0
   18.3281   -5.4303  -15.4144 O   0  0  0  0  0  0  0  0  0  0  0  0
  2  1  1  6
  2  3  1  0
  4  2  1  0
  5  4  1  0
  5  6  1  6
  7  5  1  0
  8  7  2  0
  9  7  1  0
 10  9  1  0
 11 12  1  0
 10 11  1  1
 13 14  1  0
 13 12  1  0
 14 15  1  0
 16 18  1  0
 16 10  1  0
 17 16  2  0
 19 20  1  6
 19 18  1  0
 20 21  1  0
 21 22  2  0
 21 25  1  0
 23 24  1  0
 23 19  1  0
 26 23  2  0
M  END
$$$$
