LKD.pdb
     RDKit          3D

 26 25  0  0  1  0  0  0  0  0999 V2000
   19.4461  -15.9449  -16.1879 C   0  0  0  0  0  0  0  0  0  0  0  0
   18.9940  -14.5262  -16.4207 C   0  0  1  0  0  0  0  0  0  0  0  0
   17.7236  -14.2012  -15.6677 C   0  0  0  0  0  0  0  0  0  0  0  0
   20.0430  -13.5195  -15.9795 C   0  0  0  0  0  0  0  0  0  0  0  0
   19.5550  -12.1776  -16.4779 C   0  0  2  0  0  0  0  0  0  0  0  0
   19.1290  -12.4284  -17.8645 N   0  0  0  0  0  0  0  0  0  0  0  0
   20.5895  -11.1449  -16.4831 C   0  0  0  0  0  0  0  0  0  0  0  0
   21.1527  -10.8414  -15.3953 O   0  0  0  0  0  0  0  0  0  0  0  0
   20.9598  -10.4934  -17.6735 N   0  0  0  0  0  0  0  0  0  0  0  0
   21.9278   -9.3480  -17.6939 C   0  0  1  0  0  0  0  0  0  0  0  0
   22.4342   -9.2050  -19.0886 C   0  0  0  0  0  0  0  0  0  0  0  0
   23.3765   -8.0675  -19.3100 C   0  0  0  0  0  0  0  0  0  0  0  0
   23.6834   -7.9559  -20.7929 C   0  0  0  0  0  0  0  0  0  0  0  0
   24.6698   -6.8131  -21.0032 C   0  0  0  0  0  0  0  0  0  0  0  0
   24.7556   -6.5604  -22.4362 N   0  0  0  0  0  0  0  0  0  0  0  0
   21.2058   -8.1537  -17.1868 C   0  0  0  0  0  0  0  0  0  0  0  0
   20.0240   -7.9216  -17.6156 O   0  0  0  0  0  0  0  0  0  0  0  0
   21.7076   -7.2300  -16.2512 N   0  0  0  0  0  0  0  0  0  0  0  0
   20.8663   -6.0714  -15.8147 C   0  0  1  0  0  0  0  0  0  0  0  0
   19.6253   -6.6311  -15.2033 C   0  0  0  0  0  0  0  0  0  0  0  0
   18.7332   -5.6638  -14.5709 C   0  0  0  0  0  0  0  0  0  0  0  0
   18.7630   -4.4366  -14.7945 O   0  0  0  0  0  0  0  0  0  0  0  0
   21.6836   -5.2769  -14.8708 C   0  0  0  0  0  0  0  0  0  0  0  0
   21.1629   -4.2211  -14.1845 O   0  0  0  0  0  0  0  0  0  0  0  0
   17.7692   -6.1041  -13.6492 O   0  0  0  0  0  0  0  0  0  0  0  0
   22.8904   -5.5641  -14.6825 O   0  0  0  0  0  0  0  0  0  0  0  0
  2  1  1  1
  2  3  1  0
  4  2  1  0
  5  4  1  0
  5  6  1  6
  7  5  1  0
  8  7  2  0
  9  7  1  0
 10  9  1  0
 11 12  1  0
 10 11  1  6
 13 14  1  0
 13 12  1  0
 14 15  1  0
 16 18  1  0
 16 10  1  0
 17 16  2  0
 19 20  1  1
 19 18  1  0
 20 21  1  0
 21 22  2  0
 21 25  1  0
 23 24  1  0
 23 19  1  0
 26 23  2  0
M  END
$$$$
