LKD.pdb
     RDKit          3D

 26 25  0  0  1  0  0  0  0  0999 V2000
   27.7806   -9.6443  -16.4224 C   0  0  0  0  0  0  0  0  0  0  0  0
   26.5010  -10.4041  -16.1845 C   0  0  1  0  0  0  0  0  0  0  0  0
   26.2983  -10.7371  -14.7235 C   0  0  0  0  0  0  0  0  0  0  0  0
   25.2834   -9.6144  -16.6343 C   0  0  0  0  0  0  0  0  0  0  0  0
   24.1057  -10.5472  -16.4600 C   0  0  2  0  0  0  0  0  0  0  0  0
   24.3595  -11.6471  -17.4049 N   0  0  0  0  0  0  0  0  0  0  0  0
   22.8204   -9.9329  -16.7875 C   0  0  0  0  0  0  0  0  0  0  0  0
   22.6883   -9.3533  -17.9008 O   0  0  0  0  0  0  0  0  0  0  0  0
   21.7417   -9.9801  -15.8859 N   0  0  0  0  0  0  0  0  0  0  0  0
   20.4438   -9.2764  -16.1497 C   0  0  1  0  0  0  0  0  0  0  0  0
   19.3669  -10.0290  -15.4454 C   0  0  0  0  0  0  0  0  0  0  0  0
   17.9904   -9.4727  -15.6086 C   0  0  0  0  0  0  0  0  0  0  0  0
   17.0077  -10.3414  -14.8437 C   0  0  0  0  0  0  0  0  0  0  0  0
   15.6103   -9.7534  -15.0010 C   0  0  0  0  0  0  0  0  0  0  0  0
   14.6698  -10.6728  -14.3726 N   0  0  0  0  0  0  0  0  0  0  0  0
   20.6029   -7.8740  -15.6885 C   0  0  0  0  0  0  0  0  0  0  0  0
   21.5638   -7.5935  -14.8933 O   0  0  0  0  0  0  0  0  0  0  0  0
   19.7795   -6.7934  -16.0553 N   0  0  0  0  0  0  0  0  0  0  0  0
   20.1542   -5.3977  -15.6651 C   0  0  1  0  0  0  0  0  0  0  0  0
   21.5361   -5.1521  -16.1726 C   0  0  0  0  0  0  0  0  0  0  0  0
   21.9996   -3.7688  -16.1180 C   0  0  0  0  0  0  0  0  0  0  0  0
   21.3220   -2.8229  -15.6674 O   0  0  0  0  0  0  0  0  0  0  0  0
   19.1390   -4.4977  -16.2561 C   0  0  0  0  0  0  0  0  0  0  0  0
   18.7466   -3.3516  -15.6321 O   0  0  0  0  0  0  0  0  0  0  0  0
   23.2812   -3.4444  -16.5922 O   0  0  0  0  0  0  0  0  0  0  0  0
   18.6115   -4.7777  -17.3596 O   0  0  0  0  0  0  0  0  0  0  0  0
  2  1  1  1
  2  3  1  0
  4  2  1  0
  5  4  1  0
  5  6  1  6
  7  5  1  0
  8  7  2  0
  9  7  1  0
 10  9  1  0
 11 12  1  0
 10 11  1  1
 13 14  1  0
 13 12  1  0
 14 15  1  0
 16 18  1  0
 16 10  1  0
 17 16  2  0
 19 20  1  6
 19 18  1  0
 20 21  1  0
 21 22  2  0
 21 25  1  0
 23 24  1  0
 23 19  1  0
 26 23  2  0
M  END
$$$$
