LKD.pdb
     RDKit          3D

 26 25  0  0  1  0  0  0  0  0999 V2000
   26.4296  -21.2395   -9.4142 C   0  0  0  0  0  0  0  0  0  0  0  0
   25.1505  -21.2317  -10.2112 C   0  0  1  0  0  0  0  0  0  0  0  0
   24.0328  -20.5130   -9.4894 C   0  0  0  0  0  0  0  0  0  0  0  0
   25.3266  -20.5450  -11.5550 C   0  0  0  0  0  0  0  0  0  0  0  0
   23.9632  -20.5739  -12.2091 C   0  0  2  0  0  0  0  0  0  0  0  0
   23.5065  -21.9649  -12.0554 N   0  0  0  0  0  0  0  0  0  0  0  0
   23.9910  -20.2424  -13.6325 C   0  0  0  0  0  0  0  0  0  0  0  0
   24.4662  -19.1291  -13.9895 O   0  0  0  0  0  0  0  0  0  0  0  0
   23.4996  -21.1403  -14.5973 N   0  0  0  0  0  0  0  0  0  0  0  0
   23.5898  -20.8656  -16.0690 C   0  0  1  0  0  0  0  0  0  0  0  0
   23.7357  -22.1741  -16.7680 C   0  0  0  0  0  0  0  0  0  0  0  0
   24.8180  -23.0591  -16.2427 C   0  0  0  0  0  0  0  0  0  0  0  0
   24.7851  -24.3823  -16.9867 C   0  0  0  0  0  0  0  0  0  0  0  0
   25.9237  -25.2581  -16.4769 C   0  0  0  0  0  0  0  0  0  0  0  0
   25.7765  -26.5743  -17.0858 N   0  0  0  0  0  0  0  0  0  0  0  0
   22.3705  -20.1087  -16.4500 C   0  0  0  0  0  0  0  0  0  0  0  0
   21.3376  -20.1892  -15.7010 O   0  0  0  0  0  0  0  0  0  0  0  0
   22.2392  -19.2851  -17.5835 N   0  0  0  0  0  0  0  0  0  0  0  0
   21.1169  -18.2984  -17.6687 C   0  0  1  0  0  0  0  0  0  0  0  0
   21.2222  -17.4046  -16.4782 C   0  0  0  0  0  0  0  0  0  0  0  0
   20.3062  -16.2681  -16.4504 C   0  0  0  0  0  0  0  0  0  0  0  0
   19.5035  -15.9960  -17.3661 O   0  0  0  0  0  0  0  0  0  0  0  0
   21.2661  -17.5862  -18.9573 C   0  0  0  0  0  0  0  0  0  0  0  0
   22.2746  -17.8788  -19.8257 O   0  0  0  0  0  0  0  0  0  0  0  0
   20.2991  -15.4061  -15.3415 O   0  0  0  0  0  0  0  0  0  0  0  0
   20.4548  -16.6847  -19.2792 O   0  0  0  0  0  0  0  0  0  0  0  0
  2  1  1  1
  2  3  1  0
  4  2  1  0
  5  4  1  0
  5  6  1  6
  7  5  1  0
  8  7  2  0
  9  7  1  0
 10  9  1  0
 11 12  1  0
 10 11  1  6
 13 14  1  0
 13 12  1  0
 14 15  1  0
 16 18  1  0
 16 10  1  0
 17 16  2  0
 19 20  1  1
 19 18  1  0
 20 21  1  0
 21 22  2  0
 21 25  1  0
 23 24  1  0
 23 19  1  0
 26 23  2  0
M  END
$$$$
