LKD.pdb
     RDKit          3D

 26 25  0  0  1  0  0  0  0  0999 V2000
   29.2819  -19.7259   -5.0864 C   0  0  0  0  0  0  0  0  0  0  0  0
   27.9623  -20.1726   -5.6614 C   0  0  1  0  0  0  0  0  0  0  0  0
   26.8425  -20.0937   -4.6482 C   0  0  0  0  0  0  0  0  0  0  0  0
   27.5476  -19.3225   -6.8504 C   0  0  0  0  0  0  0  0  0  0  0  0
   26.3446  -20.0173   -7.4482 C   0  0  2  0  0  0  0  0  0  0  0  0
   26.6853  -21.4489   -7.4105 N   0  0  0  0  0  0  0  0  0  0  0  0
   26.0767  -19.6338   -8.8330 C   0  0  0  0  0  0  0  0  0  0  0  0
   25.8553  -18.4197   -9.0969 O   0  0  0  0  0  0  0  0  0  0  0  0
   26.0633  -20.5920   -9.8628 N   0  0  0  0  0  0  0  0  0  0  0  0
   25.8702  -20.2199  -11.3028 C   0  0  1  0  0  0  0  0  0  0  0  0
   27.0634  -20.6950  -12.0595 C   0  0  0  0  0  0  0  0  0  0  0  0
   27.0313  -20.4316  -13.5293 C   0  0  0  0  0  0  0  0  0  0  0  0
   27.8958  -21.4586  -14.2388 C   0  0  0  0  0  0  0  0  0  0  0  0
   27.9056  -21.1428  -15.7299 C   0  0  0  0  0  0  0  0  0  0  0  0
   28.6969  -22.1707  -16.3949 N   0  0  0  0  0  0  0  0  0  0  0  0
   24.5907  -20.8292  -11.7460 C   0  0  0  0  0  0  0  0  0  0  0  0
   23.9732  -21.6127  -10.9465 O   0  0  0  0  0  0  0  0  0  0  0  0
   23.9723  -20.6185  -12.9924 N   0  0  0  0  0  0  0  0  0  0  0  0
   22.5377  -20.9961  -13.1921 C   0  0  1  0  0  0  0  0  0  0  0  0
   21.7414  -20.2727  -12.1577 C   0  0  0  0  0  0  0  0  0  0  0  0
   20.3194  -20.5988  -12.1034 C   0  0  0  0  0  0  0  0  0  0  0  0
   19.8008  -21.5622  -12.7033 O   0  0  0  0  0  0  0  0  0  0  0  0
   22.1827  -20.6223  -14.5793 C   0  0  0  0  0  0  0  0  0  0  0  0
   21.3766  -21.4062  -15.3492 O   0  0  0  0  0  0  0  0  0  0  0  0
   19.4508  -19.8024  -11.3392 O   0  0  0  0  0  0  0  0  0  0  0  0
   22.6250  -19.5607  -15.0810 O   0  0  0  0  0  0  0  0  0  0  0  0
  2  1  1  1
  2  3  1  0
  4  2  1  0
  5  4  1  0
  5  6  1  6
  7  5  1  0
  8  7  2  0
  9  7  1  0
 10  9  1  0
 11 12  1  0
 10 11  1  6
 13 14  1  0
 13 12  1  0
 14 15  1  0
 16 18  1  0
 16 10  1  0
 17 16  2  0
 19 20  1  1
 19 18  1  0
 20 21  1  0
 21 22  2  0
 21 25  1  0
 23 24  1  0
 23 19  1  0
 26 23  2  0
M  END
$$$$
