LKD.pdb
     RDKit          3D

 26 25  0  0  1  0  0  0  0  0999 V2000
   35.0180  -35.3601   -5.3854 C   0  0  0  0  0  0  0  0  0  0  0  0
   33.8831  -35.1953   -6.3632 C   0  0  1  0  0  0  0  0  0  0  0  0
   33.6543  -36.4424   -7.1873 C   0  0  0  0  0  0  0  0  0  0  0  0
   32.5735  -34.8795   -5.6606 C   0  0  0  0  0  0  0  0  0  0  0  0
   31.5984  -34.5189   -6.7591 C   0  0  2  0  0  0  0  0  0  0  0  0
   32.1254  -33.2677   -7.3280 N   0  0  0  0  0  0  0  0  0  0  0  0
   30.2386  -34.2811   -6.2783 C   0  0  0  0  0  0  0  0  0  0  0  0
   30.0178  -33.2758   -5.5481 O   0  0  0  0  0  0  0  0  0  0  0  0
   29.1859  -35.1505   -6.6168 N   0  0  0  0  0  0  0  0  0  0  0  0
   27.7834  -34.9410   -6.1282 C   0  0  1  0  0  0  0  0  0  0  0  0
   26.8607  -35.5932   -7.1004 C   0  0  0  0  0  0  0  0  0  0  0  0
   26.1927  -34.6673   -8.0633 C   0  0  0  0  0  0  0  0  0  0  0  0
   27.0217  -34.5852   -9.3327 C   0  0  0  0  0  0  0  0  0  0  0  0
   26.3640  -33.5911  -10.2826 C   0  0  0  0  0  0  0  0  0  0  0  0
   27.2570  -33.4083  -11.4201 N   0  0  0  0  0  0  0  0  0  0  0  0
   27.7088  -35.5000   -4.7546 C   0  0  0  0  0  0  0  0  0  0  0  0
   28.7609  -36.0145   -4.2421 O   0  0  0  0  0  0  0  0  0  0  0  0
   26.5628  -35.5145   -3.9381 N   0  0  0  0  0  0  0  0  0  0  0  0
   26.6478  -36.0264   -2.5340 C   0  0  1  0  0  0  0  0  0  0  0  0
   27.6119  -35.1533   -1.8022 C   0  0  0  0  0  0  0  0  0  0  0  0
   27.6995  -35.3674   -0.3607 C   0  0  0  0  0  0  0  0  0  0  0  0
   27.6742  -34.4495    0.4841 O   0  0  0  0  0  0  0  0  0  0  0  0
   25.2769  -35.9888   -1.9779 C   0  0  0  0  0  0  0  0  0  0  0  0
   24.9678  -36.5837   -0.7915 O   0  0  0  0  0  0  0  0  0  0  0  0
   27.8203  -36.6727    0.1435 O   0  0  0  0  0  0  0  0  0  0  0  0
   24.3587  -35.4002   -2.5983 O   0  0  0  0  0  0  0  0  0  0  0  0
  2  1  1  1
  2  3  1  0
  4  2  1  0
  5  4  1  0
  5  6  1  1
  7  5  1  0
  8  7  2  0
  9  7  1  0
 10  9  1  0
 11 12  1  0
 10 11  1  6
 13 14  1  0
 13 12  1  0
 14 15  1  0
 16 18  1  0
 16 10  1  0
 17 16  2  0
 19 20  1  1
 19 18  1  0
 20 21  1  0
 21 22  2  0
 21 25  1  0
 23 24  1  0
 23 19  1  0
 26 23  2  0
M  END
$$$$
