MFL.pdb
     RDKit          3D

 28 28  0  0  1  0  0  0  0  0999 V2000
    8.5749  -20.8015   20.7736 C   0  0  0  0  0  0  0  0  0  0  0  0
    7.9876  -22.0836   21.9018 S   0  0  0  0  0  0  0  0  0  0  0  0
    6.2850  -21.7527   22.4502 C   0  0  0  0  0  0  0  0  0  0  0  0
    6.0002  -20.2809   22.1647 C   0  0  0  0  0  0  0  0  0  0  0  0
    5.0494  -19.7197   23.2213 C   0  0  2  0  0  0  0  0  0  0  0  0
    3.7162  -19.7800   22.6597 N   0  0  0  0  0  0  0  0  0  0  0  0
    5.4370  -18.3087   23.4426 C   0  0  0  0  0  0  0  0  0  0  0  0
    5.2359  -17.4234   22.5488 O   0  0  0  0  0  0  0  0  0  0  0  0
    6.0470  -17.8701   24.6495 N   0  0  0  0  0  0  0  0  0  0  0  0
    6.6573  -16.5556   24.8020 C   0  0  1  0  0  0  0  0  0  0  0  0
    6.7804  -16.1542   26.2373 C   0  0  0  0  0  0  0  0  0  0  0  0
    7.0889  -14.7595   26.4778 C   0  0  0  0  0  0  0  0  0  0  0  0
    8.3776  -14.3571   26.7470 C   0  0  0  0  0  0  0  0  0  0  0  0
    8.6722  -13.0051   26.9808 C   0  0  0  0  0  0  0  0  0  0  0  0
    7.6809  -12.0685   26.9442 C   0  0  0  0  0  0  0  0  0  0  0  0
    6.3912  -12.4549   26.6770 C   0  0  0  0  0  0  0  0  0  0  0  0
    6.1171  -13.7981   26.4479 C   0  0  0  0  0  0  0  0  0  0  0  0
    7.8690  -16.4057   23.9915 C   0  0  0  0  0  0  0  0  0  0  0  0
    8.7430  -17.3230   23.9619 O   0  0  0  0  0  0  0  0  0  0  0  0
    7.9071  -12.1502   20.4064 C   0  0  0  0  0  0  0  0  0  0  0  0
    7.8565  -13.5945   20.9205 C   0  0  1  0  0  0  0  0  0  0  0  0
    7.6380  -14.5383   19.7840 C   0  0  0  0  0  0  0  0  0  0  0  0
    9.1655  -13.8118   21.6387 C   0  0  0  0  0  0  0  0  0  0  0  0
    9.2578  -15.2008   22.2695 C   0  0  2  0  0  0  0  0  0  0  0  0
    8.1338  -15.2571   23.2072 N   0  0  0  0  0  0  0  0  0  0  0  0
   10.5183  -15.2538   23.0423 C   0  0  0  0  0  0  0  0  0  0  0  0
   10.5026  -15.0566   24.2792 O   0  0  0  0  0  0  0  0  0  0  0  0
   11.7504  -15.5166   22.4610 O   0  0  0  0  0  0  0  0  0  0  0  0
  1  2  1  0
  3  2  1  0
  4  3  1  0
  5  4  1  0
  5  6  1  6
  7  5  1  0
  8  7  2  0
  9  7  1  0
 10  9  1  0
 10 11  1  1
 11 12  1  0
 12 17  2  0
 13 14  2  0
 13 12  1  0
 14 15  1  0
 15 16  2  0
 17 16  1  0
 18 25  1  0
 18 10  1  0
 19 18  2  0
 21 20  1  6
 21 23  1  0
 21 22  1  0
 24 23  1  1
 24 26  1  0
 24 25  1  0
 26 28  1  0
 27 26  2  0
M  END
$$$$
