MFL.pdb
     RDKit          3D

 28 28  0  0  1  0  0  0  0  0999 V2000
   11.7865  -21.3767   17.3996 C   0  0  0  0  0  0  0  0  0  0  0  0
   11.7398  -19.7236   18.1250 S   0  0  0  0  0  0  0  0  0  0  0  0
   11.8939  -19.7916   19.9363 C   0  0  0  0  0  0  0  0  0  0  0  0
   11.8870  -18.3515   20.4411 C   0  0  0  0  0  0  0  0  0  0  0  0
   10.5546  -17.6858   20.0990 C   0  0  2  0  0  0  0  0  0  0  0  0
   10.7333  -17.0208   18.8254 N   0  0  0  0  0  0  0  0  0  0  0  0
   10.2909  -16.6835   21.1554 C   0  0  0  0  0  0  0  0  0  0  0  0
   11.1120  -15.7365   21.3834 O   0  0  0  0  0  0  0  0  0  0  0  0
    9.1215  -16.7226   21.9630 N   0  0  0  0  0  0  0  0  0  0  0  0
    8.8334  -15.7365   22.9965 C   0  0  1  0  0  0  0  0  0  0  0  0
    7.4178  -15.2577   22.9401 C   0  0  0  0  0  0  0  0  0  0  0  0
    7.0577  -14.2389   23.9048 C   0  0  0  0  0  0  0  0  0  0  0  0
    7.3450  -12.9127   23.6725 C   0  0  0  0  0  0  0  0  0  0  0  0
    6.9956  -11.9289   24.6102 C   0  0  0  0  0  0  0  0  0  0  0  0
    6.3643  -12.2757   25.7688 C   0  0  0  0  0  0  0  0  0  0  0  0
    6.0715  -13.5941   26.0141 C   0  0  0  0  0  0  0  0  0  0  0  0
    6.4246  -14.5556   25.0747 C   0  0  0  0  0  0  0  0  0  0  0  0
    9.3131  -16.1551   24.3163 C   0  0  0  0  0  0  0  0  0  0  0  0
    9.3734  -17.3839   24.6210 O   0  0  0  0  0  0  0  0  0  0  0  0
   12.0104  -14.9663   28.8708 C   0  0  0  0  0  0  0  0  0  0  0  0
   10.4857  -14.8200   28.9538 C   0  0  1  0  0  0  0  0  0  0  0  0
   10.1232  -13.7566   29.9374 C   0  0  0  0  0  0  0  0  0  0  0  0
   10.0336  -14.5162   27.5467 C   0  0  0  0  0  0  0  0  0  0  0  0
   10.2856  -15.6823   26.5916 C   0  0  2  0  0  0  0  0  0  0  0  0
    9.7320  -15.2380   25.3102 N   0  0  0  0  0  0  0  0  0  0  0  0
    9.4890  -16.8315   27.0751 C   0  0  0  0  0  0  0  0  0  0  0  0
   10.0410  -17.7421   27.7347 O   0  0  0  0  0  0  0  0  0  0  0  0
    8.1290  -16.9629   26.8338 O   0  0  0  0  0  0  0  0  0  0  0  0
  1  2  1  0
  3  2  1  0
  4  3  1  0
  5  4  1  0
  5  6  1  6
  7  5  1  0
  8  7  2  0
  9  7  1  0
 10  9  1  0
 10 11  1  1
 11 12  1  0
 12 17  2  0
 13 14  2  0
 13 12  1  0
 14 15  1  0
 15 16  2  0
 17 16  1  0
 18 25  1  0
 18 10  1  0
 19 18  2  0
 21 20  1  6
 21 23  1  0
 21 22  1  0
 24 23  1  1
 24 26  1  0
 24 25  1  0
 26 28  1  0
 27 26  2  0
M  END
$$$$
