MFL.pdb
     RDKit          3D

 28 28  0  0  1  0  0  0  0  0999 V2000
    1.3023  -21.3511   23.0070 C   0  0  0  0  0  0  0  0  0  0  0  0
    0.8494  -19.9826   21.9192 S   0  0  0  0  0  0  0  0  0  0  0  0
    2.3197  -19.2264   21.1605 C   0  0  0  0  0  0  0  0  0  0  0  0
    2.9833  -18.3646   22.2309 C   0  0  0  0  0  0  0  0  0  0  0  0
    4.3706  -18.9161   22.5578 C   0  0  2  0  0  0  0  0  0  0  0  0
    4.2232  -19.7525   23.7304 N   0  0  0  0  0  0  0  0  0  0  0  0
    5.2312  -17.7548   22.8750 C   0  0  0  0  0  0  0  0  0  0  0  0
    5.4881  -16.8674   21.9977 O   0  0  0  0  0  0  0  0  0  0  0  0
    5.8108  -17.5687   24.1597 N   0  0  0  0  0  0  0  0  0  0  0  0
    6.6246  -16.4108   24.5068 C   0  0  1  0  0  0  0  0  0  0  0  0
    6.3056  -15.8856   25.8701 C   0  0  0  0  0  0  0  0  0  0  0  0
    6.9022  -14.6101   26.2101 C   0  0  0  0  0  0  0  0  0  0  0  0
    6.2949  -13.4279   25.8512 C   0  0  0  0  0  0  0  0  0  0  0  0
    6.8767  -12.1943   26.1812 C   0  0  0  0  0  0  0  0  0  0  0  0
    8.0565  -12.1508   26.8649 C   0  0  0  0  0  0  0  0  0  0  0  0
    8.6736  -13.3214   27.2294 C   0  0  0  0  0  0  0  0  0  0  0  0
    8.0836  -14.5344   26.8944 C   0  0  0  0  0  0  0  0  0  0  0  0
    8.0463  -16.6224   24.2212 C   0  0  0  0  0  0  0  0  0  0  0  0
    8.6637  -17.6118   24.7172 O   0  0  0  0  0  0  0  0  0  0  0  0
   12.0387  -16.4990   20.7566 C   0  0  0  0  0  0  0  0  0  0  0  0
   11.9366  -15.1324   21.4459 C   0  0  1  0  0  0  0  0  0  0  0  0
   12.3307  -14.0472   20.4988 C   0  0  0  0  0  0  0  0  0  0  0  0
   10.5081  -15.0267   21.9198 C   0  0  0  0  0  0  0  0  0  0  0  0
   10.1599  -16.0943   22.9564 C   0  0  2  0  0  0  0  0  0  0  0  0
    8.8021  -15.7589   23.3919 N   0  0  0  0  0  0  0  0  0  0  0  0
   11.0790  -15.9161   24.1021 C   0  0  0  0  0  0  0  0  0  0  0  0
   12.1335  -16.5887   24.1688 O   0  0  0  0  0  0  0  0  0  0  0  0
   10.8340  -15.0230   25.1352 O   0  0  0  0  0  0  0  0  0  0  0  0
  1  2  1  0
  3  2  1  0
  4  3  1  0
  5  4  1  0
  5  6  1  1
  7  5  1  0
  8  7  2  0
  9  7  1  0
 10  9  1  0
 10 11  1  1
 11 12  1  0
 12 17  2  0
 13 14  2  0
 13 12  1  0
 14 15  1  0
 15 16  2  0
 17 16  1  0
 18 25  1  0
 18 10  1  0
 19 18  2  0
 21 20  1  6
 21 23  1  0
 21 22  1  0
 24 23  1  6
 24 26  1  0
 24 25  1  0
 26 28  1  0
 27 26  2  0
M  END
$$$$
