MFL.pdb
     RDKit          3D

 28 28  0  0  1  0  0  0  0  0999 V2000
    8.6879  -12.2055   18.8964 C   0  0  0  0  0  0  0  0  0  0  0  0
    7.7465  -13.5162   18.0858 S   0  0  0  0  0  0  0  0  0  0  0  0
    8.3818  -15.1608   18.5339 C   0  0  0  0  0  0  0  0  0  0  0  0
    9.4703  -14.9504   19.5826 C   0  0  0  0  0  0  0  0  0  0  0  0
    9.6299  -16.2131   20.4286 C   0  0  2  0  0  0  0  0  0  0  0  0
    8.4395  -17.0104   20.2200 N   0  0  0  0  0  0  0  0  0  0  0  0
    9.7009  -15.7780   21.8413 C   0  0  0  0  0  0  0  0  0  0  0  0
   10.6884  -15.0975   22.2711 O   0  0  0  0  0  0  0  0  0  0  0  0
    8.6838  -16.0920   22.7836 N   0  0  0  0  0  0  0  0  0  0  0  0
    8.6798  -15.5861   24.1502 C   0  0  1  0  0  0  0  0  0  0  0  0
    7.2942  -15.3451   24.6583 C   0  0  0  0  0  0  0  0  0  0  0  0
    7.0550  -14.0420   25.2441 C   0  0  0  0  0  0  0  0  0  0  0  0
    5.9005  -13.7851   25.9485 C   0  0  0  0  0  0  0  0  0  0  0  0
    5.6719  -12.5210   26.5134 C   0  0  0  0  0  0  0  0  0  0  0  0
    6.5949  -11.5265   26.3709 C   0  0  0  0  0  0  0  0  0  0  0  0
    7.7507  -11.7680   25.6711 C   0  0  0  0  0  0  0  0  0  0  0  0
    7.9610  -13.0257   25.1181 C   0  0  0  0  0  0  0  0  0  0  0  0
    9.5578  -16.3585   25.0335 C   0  0  0  0  0  0  0  0  0  0  0  0
    9.7285  -17.6006   24.8481 O   0  0  0  0  0  0  0  0  0  0  0  0
   10.7665  -14.6092   30.1350 C   0  0  0  0  0  0  0  0  0  0  0  0
   10.3842  -14.8977   28.6778 C   0  0  1  0  0  0  0  0  0  0  0  0
   10.0424  -13.6260   27.9736 C   0  0  0  0  0  0  0  0  0  0  0  0
   11.5730  -15.6124   28.0840 C   0  0  0  0  0  0  0  0  0  0  0  0
   11.1748  -16.5617   26.9545 C   0  0  2  0  0  0  0  0  0  0  0  0
   10.2563  -15.7816   26.1215 N   0  0  0  0  0  0  0  0  0  0  0  0
   10.4231  -17.6822   27.5614 C   0  0  0  0  0  0  0  0  0  0  0  0
    9.1735  -17.7134   27.4813 O   0  0  0  0  0  0  0  0  0  0  0  0
   11.0385  -18.7291   28.2325 O   0  0  0  0  0  0  0  0  0  0  0  0
  1  2  1  0
  3  2  1  0
  4  3  1  0
  5  4  1  0
  5  6  1  1
  7  5  1  0
  8  7  2  0
  9  7  1  0
 10  9  1  0
 10 11  1  1
 11 12  1  0
 12 17  2  0
 13 14  2  0
 13 12  1  0
 14 15  1  0
 15 16  2  0
 17 16  1  0
 18 25  1  0
 18 10  1  0
 19 18  2  0
 21 20  1  1
 21 23  1  0
 21 22  1  0
 24 23  1  1
 24 26  1  0
 24 25  1  0
 26 28  1  0
 27 26  2  0
M  END
$$$$
