MFL.pdb
     RDKit          3D

 28 28  0  0  1  0  0  0  0  0999 V2000
   12.9706  -20.2789   22.5117 C   0  0  0  0  0  0  0  0  0  0  0  0
   12.0790  -21.3485   21.3618 S   0  0  0  0  0  0  0  0  0  0  0  0
   10.7338  -20.4496   20.5301 C   0  0  0  0  0  0  0  0  0  0  0  0
   10.6890  -19.0495   21.1356 C   0  0  0  0  0  0  0  0  0  0  0  0
    9.4790  -18.2872   20.5966 C   0  0  2  0  0  0  0  0  0  0  0  0
    9.7373  -18.0276   19.1958 N   0  0  0  0  0  0  0  0  0  0  0  0
    9.4104  -17.0090   21.3392 C   0  0  0  0  0  0  0  0  0  0  0  0
   10.2615  -16.0832   21.1352 O   0  0  0  0  0  0  0  0  0  0  0  0
    8.4035  -16.7480   22.3083 N   0  0  0  0  0  0  0  0  0  0  0  0
    8.3681  -15.5341   23.1137 C   0  0  1  0  0  0  0  0  0  0  0  0
    6.9958  -15.2397   23.6299 C   0  0  0  0  0  0  0  0  0  0  0  0
    6.8468  -13.9908   24.3486 C   0  0  0  0  0  0  0  0  0  0  0  0
    6.0744  -13.9177   25.4858 C   0  0  0  0  0  0  0  0  0  0  0  0
    5.9315  -12.7057   26.1784 C   0  0  0  0  0  0  0  0  0  0  0  0
    6.5589  -11.5796   25.7316 C   0  0  0  0  0  0  0  0  0  0  0  0
    7.3323  -11.6373   24.5991 C   0  0  0  0  0  0  0  0  0  0  0  0
    7.4629  -12.8459   23.9253 C   0  0  0  0  0  0  0  0  0  0  0  0
    9.4456  -15.4913   24.1059 C   0  0  0  0  0  0  0  0  0  0  0  0
   10.5586  -14.9529   23.8269 O   0  0  0  0  0  0  0  0  0  0  0  0
   11.1609  -13.6508   28.3837 C   0  0  0  0  0  0  0  0  0  0  0  0
   10.2522  -14.8070   28.8200 C   0  0  1  0  0  0  0  0  0  0  0  0
    9.4316  -14.4003   29.9994 C   0  0  0  0  0  0  0  0  0  0  0  0
    9.4274  -15.1511   27.6042 C   0  0  0  0  0  0  0  0  0  0  0  0
   10.2755  -15.7301   26.4724 C   0  0  2  0  0  0  0  0  0  0  0  0
    9.3158  -16.0324   25.4078 N   0  0  0  0  0  0  0  0  0  0  0  0
   10.8550  -17.0017   26.9585 C   0  0  0  0  0  0  0  0  0  0  0  0
   12.0820  -17.0789   27.1978 O   0  0  0  0  0  0  0  0  0  0  0  0
   10.0977  -18.1447   27.1705 O   0  0  0  0  0  0  0  0  0  0  0  0
  1  2  1  0
  3  2  1  0
  4  3  1  0
  5  4  1  0
  5  6  1  6
  7  5  1  0
  8  7  2  0
  9  7  1  0
 10  9  1  0
 10 11  1  1
 11 12  1  0
 12 17  2  0
 13 14  2  0
 13 12  1  0
 14 15  1  0
 15 16  2  0
 17 16  1  0
 18 25  1  0
 18 10  1  0
 19 18  2  0
 21 20  1  6
 21 23  1  0
 21 22  1  0
 24 23  1  1
 24 26  1  0
 24 25  1  0
 26 28  1  0
 27 26  2  0
M  END
$$$$
