MFL.pdb
     RDKit          3D

 28 28  0  0  1  0  0  0  0  0999 V2000
   14.3708  -16.6758   17.9704 C   0  0  0  0  0  0  0  0  0  0  0  0
   12.8755  -17.1573   17.0797 S   0  0  0  0  0  0  0  0  0  0  0  0
   11.7560  -18.1226   18.1400 C   0  0  0  0  0  0  0  0  0  0  0  0
   11.3265  -17.2107   19.2857 C   0  0  0  0  0  0  0  0  0  0  0  0
   10.8004  -18.0492   20.4500 C   0  0  2  0  0  0  0  0  0  0  0  0
    9.5643  -18.6569   20.0037 N   0  0  0  0  0  0  0  0  0  0  0  0
   10.5261  -17.1143   21.5639 C   0  0  0  0  0  0  0  0  0  0  0  0
   11.4537  -16.4006   22.0671 O   0  0  0  0  0  0  0  0  0  0  0  0
    9.2289  -16.9637   22.1257 N   0  0  0  0  0  0  0  0  0  0  0  0
    8.9487  -16.0967   23.2629 C   0  0  1  0  0  0  0  0  0  0  0  0
    7.5495  -15.5695   23.2388 C   0  0  0  0  0  0  0  0  0  0  0  0
    7.2272  -14.5895   24.2557 C   0  0  0  0  0  0  0  0  0  0  0  0
    6.4755  -14.9342   25.3563 C   0  0  0  0  0  0  0  0  0  0  0  0
    6.1643  -13.9816   26.3386 C   0  0  0  0  0  0  0  0  0  0  0  0
    6.6046  -12.6962   26.2147 C   0  0  0  0  0  0  0  0  0  0  0  0
    7.3550  -12.3379   25.1227 C   0  0  0  0  0  0  0  0  0  0  0  0
    7.6540  -13.2940   24.1592 C   0  0  0  0  0  0  0  0  0  0  0  0
    9.3880  -16.6822   24.5324 C   0  0  0  0  0  0  0  0  0  0  0  0
    9.7151  -17.9048   24.6001 O   0  0  0  0  0  0  0  0  0  0  0  0
   10.0203  -13.0430   28.5235 C   0  0  0  0  0  0  0  0  0  0  0  0
   10.6955  -14.1536   27.7090 C   0  0  1  0  0  0  0  0  0  0  0  0
   12.1378  -14.2607   28.0808 C   0  0  0  0  0  0  0  0  0  0  0  0
    9.9050  -15.4049   28.0022 C   0  0  0  0  0  0  0  0  0  0  0  0
   10.1086  -16.4827   26.9381 C   0  0  2  0  0  0  0  0  0  0  0  0
    9.4757  -15.9388   25.7342 N   0  0  0  0  0  0  0  0  0  0  0  0
    9.3514  -17.6789   27.3681 C   0  0  0  0  0  0  0  0  0  0  0  0
    9.8332  -18.4469   28.2324 O   0  0  0  0  0  0  0  0  0  0  0  0
    8.1049  -18.0084   26.8559 O   0  0  0  0  0  0  0  0  0  0  0  0
  1  2  1  0
  3  2  1  0
  4  3  1  0
  5  4  1  0
  5  6  1  6
  7  5  1  0
  8  7  2  0
  9  7  1  0
 10  9  1  0
 10 11  1  1
 11 12  1  0
 12 17  2  0
 13 14  2  0
 13 12  1  0
 14 15  1  0
 15 16  2  0
 17 16  1  0
 18 25  1  0
 18 10  1  0
 19 18  2  0
 21 20  1  1
 21 23  1  0
 21 22  1  0
 24 23  1  1
 24 26  1  0
 24 25  1  0
 26 28  1  0
 27 26  2  0
M  END
$$$$
