MFL.pdb
     RDKit          3D

 28 28  0  0  1  0  0  0  0  0999 V2000
   10.6610  -21.8629   22.5188 C   0  0  0  0  0  0  0  0  0  0  0  0
    9.4892  -21.1831   21.3247 S   0  0  0  0  0  0  0  0  0  0  0  0
   10.2851  -19.9580   20.2409 C   0  0  0  0  0  0  0  0  0  0  0  0
   10.6795  -18.7729   21.1178 C   0  0  0  0  0  0  0  0  0  0  0  0
    9.9923  -17.5029   20.6175 C   0  0  2  0  0  0  0  0  0  0  0  0
   10.8873  -16.8930   19.6567 N   0  0  0  0  0  0  0  0  0  0  0  0
    9.8303  -16.6120   21.7879 C   0  0  0  0  0  0  0  0  0  0  0  0
   10.8288  -16.0051   22.2958 O   0  0  0  0  0  0  0  0  0  0  0  0
    8.5676  -16.3877   22.4014 N   0  0  0  0  0  0  0  0  0  0  0  0
    8.3988  -15.5896   23.6089 C   0  0  1  0  0  0  0  0  0  0  0  0
    7.0725  -14.8999   23.6481 C   0  0  0  0  0  0  0  0  0  0  0  0
    6.8579  -14.0088   24.7698 C   0  0  0  0  0  0  0  0  0  0  0  0
    6.2083  -14.4431   25.9031 C   0  0  0  0  0  0  0  0  0  0  0  0
    6.0013  -13.5763   26.9872 C   0  0  0  0  0  0  0  0  0  0  0  0
    6.4430  -12.2867   26.9312 C   0  0  0  0  0  0  0  0  0  0  0  0
    7.0922  -11.8396   25.8076 C   0  0  0  0  0  0  0  0  0  0  0  0
    7.2888  -12.7114   24.7432 C   0  0  0  0  0  0  0  0  0  0  0  0
    8.7713  -16.3251   24.8204 C   0  0  0  0  0  0  0  0  0  0  0  0
    8.4875  -17.5543   24.9418 O   0  0  0  0  0  0  0  0  0  0  0  0
   12.0547  -13.5306   28.2362 C   0  0  0  0  0  0  0  0  0  0  0  0
   11.6537  -14.5985   27.2108 C   0  0  1  0  0  0  0  0  0  0  0  0
   12.8649  -15.3190   26.7171 C   0  0  0  0  0  0  0  0  0  0  0  0
   10.6719  -15.4939   27.9256 C   0  0  0  0  0  0  0  0  0  0  0  0
   10.0362  -16.5217   26.9901 C   0  0  2  0  0  0  0  0  0  0  0  0
    9.4571  -15.7264   25.9047 N   0  0  0  0  0  0  0  0  0  0  0  0
    8.9363  -17.1762   27.7323 C   0  0  0  0  0  0  0  0  0  0  0  0
    9.1969  -17.9798   28.6570 O   0  0  0  0  0  0  0  0  0  0  0  0
    7.5964  -16.9453   27.4562 O   0  0  0  0  0  0  0  0  0  0  0  0
  1  2  1  0
  3  2  1  0
  4  3  1  0
  5  4  1  0
  5  6  1  6
  7  5  1  0
  8  7  2  0
  9  7  1  0
 10  9  1  0
 10 11  1  1
 11 12  1  0
 12 17  2  0
 13 14  2  0
 13 12  1  0
 14 15  1  0
 15 16  2  0
 17 16  1  0
 18 25  1  0
 18 10  1  0
 19 18  2  0
 21 20  1  1
 21 23  1  0
 21 22  1  0
 24 23  1  1
 24 26  1  0
 24 25  1  0
 26 28  1  0
 27 26  2  0
M  END
$$$$
