MFL.pdb
     RDKit          3D

 28 28  0  0  1  0  0  0  0  0999 V2000
    8.9872  -12.1221   18.4262 C   0  0  0  0  0  0  0  0  0  0  0  0
    8.2056  -13.5283   17.6058 S   0  0  0  0  0  0  0  0  0  0  0  0
    8.4803  -15.0702   18.5311 C   0  0  0  0  0  0  0  0  0  0  0  0
    9.8525  -14.9593   19.1896 C   0  0  0  0  0  0  0  0  0  0  0  0
   10.0936  -16.1646   20.0978 C   0  0  2  0  0  0  0  0  0  0  0  0
    9.0614  -17.1327   19.7921 N   0  0  0  0  0  0  0  0  0  0  0  0
    9.9399  -15.6906   21.4913 C   0  0  0  0  0  0  0  0  0  0  0  0
   10.7905  -14.8997   22.0146 O   0  0  0  0  0  0  0  0  0  0  0  0
    8.8482  -16.0872   22.3112 N   0  0  0  0  0  0  0  0  0  0  0  0
    8.6227  -15.5564   23.6494 C   0  0  1  0  0  0  0  0  0  0  0  0
    7.1734  -15.3069   23.9202 C   0  0  0  0  0  0  0  0  0  0  0  0
    6.8825  -14.2822   24.9020 C   0  0  0  0  0  0  0  0  0  0  0  0
    7.2706  -12.9773   24.6977 C   0  0  0  0  0  0  0  0  0  0  0  0
    6.9881  -11.9878   25.6518 C   0  0  0  0  0  0  0  0  0  0  0  0
    6.3224  -12.3080   26.7988 C   0  0  0  0  0  0  0  0  0  0  0  0
    5.9292  -13.6049   27.0163 C   0  0  0  0  0  0  0  0  0  0  0  0
    6.2173  -14.5724   26.0608 C   0  0  0  0  0  0  0  0  0  0  0  0
    9.3430  -16.3120   24.6779 C   0  0  0  0  0  0  0  0  0  0  0  0
    9.8703  -17.4318   24.4052 O   0  0  0  0  0  0  0  0  0  0  0  0
    9.7147  -13.8834   29.6426 C   0  0  0  0  0  0  0  0  0  0  0  0
    9.9934  -14.3859   28.2204 C   0  0  1  0  0  0  0  0  0  0  0  0
   11.2759  -13.8128   27.7137 C   0  0  0  0  0  0  0  0  0  0  0  0
   10.0063  -15.8913   28.3210 C   0  0  0  0  0  0  0  0  0  0  0  0
   10.3257  -16.5596   26.9842 C   0  0  2  0  0  0  0  0  0  0  0  0
    9.4949  -15.8509   26.0079 N   0  0  0  0  0  0  0  0  0  0  0  0
    9.8613  -17.9619   27.0674 C   0  0  0  0  0  0  0  0  0  0  0  0
   10.5841  -18.8291   27.6099 O   0  0  0  0  0  0  0  0  0  0  0  0
    8.6384  -18.3837   26.5659 O   0  0  0  0  0  0  0  0  0  0  0  0
  1  2  1  0
  3  2  1  0
  4  3  1  0
  5  4  1  0
  5  6  1  6
  7  5  1  0
  8  7  2  0
  9  7  1  0
 10  9  1  0
 10 11  1  1
 11 12  1  0
 12 17  2  0
 13 14  2  0
 13 12  1  0
 14 15  1  0
 15 16  2  0
 17 16  1  0
 18 25  1  0
 18 10  1  0
 19 18  2  0
 21 20  1  1
 21 23  1  0
 21 22  1  0
 24 23  1  1
 24 26  1  0
 24 25  1  0
 26 28  1  0
 27 26  2  0
M  END
$$$$
