MFL.pdb
     RDKit          3D

 28 28  0  0  1  0  0  0  0  0999 V2000
    9.1639  -16.6419   17.1949 C   0  0  0  0  0  0  0  0  0  0  0  0
    7.3857  -16.3370   17.2743 S   0  0  0  0  0  0  0  0  0  0  0  0
    7.0110  -14.8661   18.2769 C   0  0  0  0  0  0  0  0  0  0  0  0
    7.7782  -15.0103   19.5882 C   0  0  0  0  0  0  0  0  0  0  0  0
    7.4233  -13.8593   20.5289 C   0  0  2  0  0  0  0  0  0  0  0  0
    7.9588  -12.6524   19.9348 N   0  0  0  0  0  0  0  0  0  0  0  0
    8.1036  -14.1297   21.8150 C   0  0  0  0  0  0  0  0  0  0  0  0
    9.3181  -13.7926   22.0004 O   0  0  0  0  0  0  0  0  0  0  0  0
    7.4468  -14.7721   22.9000 N   0  0  0  0  0  0  0  0  0  0  0  0
    8.0955  -15.0431   24.1764 C   0  0  1  0  0  0  0  0  0  0  0  0
    7.1566  -14.8889   25.3300 C   0  0  0  0  0  0  0  0  0  0  0  0
    6.9458  -13.5332   25.7948 C   0  0  0  0  0  0  0  0  0  0  0  0
    8.0025  -12.7591   26.2182 C   0  0  0  0  0  0  0  0  0  0  0  0
    7.7941  -11.4466   26.6690 C   0  0  0  0  0  0  0  0  0  0  0  0
    6.5362  -10.9190   26.6935 C   0  0  0  0  0  0  0  0  0  0  0  0
    5.4729  -11.6790   26.2744 C   0  0  0  0  0  0  0  0  0  0  0  0
    5.6972  -12.9771   25.8310 C   0  0  0  0  0  0  0  0  0  0  0  0
    8.8785  -16.2816   24.1523 C   0  0  0  0  0  0  0  0  0  0  0  0
    8.3020  -17.4100   24.1765 O   0  0  0  0  0  0  0  0  0  0  0  0
   13.3828  -18.8720   22.3154 C   0  0  0  0  0  0  0  0  0  0  0  0
   13.4452  -18.2829   23.7304 C   0  0  1  0  0  0  0  0  0  0  0  0
   14.8473  -17.8927   24.0644 C   0  0  0  0  0  0  0  0  0  0  0  0
   12.4832  -17.1205   23.7249 C   0  0  0  0  0  0  0  0  0  0  0  0
   11.0535  -17.5488   24.0534 C   0  0  2  0  0  0  0  0  0  0  0  0
   10.2932  -16.2975   24.0993 N   0  0  0  0  0  0  0  0  0  0  0  0
   11.0684  -18.1402   25.4095 C   0  0  0  0  0  0  0  0  0  0  0  0
   11.0664  -17.3957   26.4168 O   0  0  0  0  0  0  0  0  0  0  0  0
   11.0848  -19.5088   25.6367 O   0  0  0  0  0  0  0  0  0  0  0  0
  1  2  1  0
  3  2  1  0
  4  3  1  0
  5  4  1  0
  5  6  1  6
  7  5  1  0
  8  7  2  0
  9  7  1  0
 10  9  1  0
 10 11  1  1
 11 12  1  0
 12 17  2  0
 13 14  2  0
 13 12  1  0
 14 15  1  0
 15 16  2  0
 17 16  1  0
 18 25  1  0
 18 10  1  0
 19 18  2  0
 21 20  1  6
 21 23  1  0
 21 22  1  0
 24 23  1  1
 24 26  1  0
 24 25  1  0
 26 28  1  0
 27 26  2  0
M  END
$$$$
