MFL.pdb
     RDKit          3D

 28 28  0  0  1  0  0  0  0  0999 V2000
    7.9565  -12.3867   18.0603 C   0  0  0  0  0  0  0  0  0  0  0  0
    8.5742  -13.6702   16.9502 S   0  0  0  0  0  0  0  0  0  0  0  0
    8.9700  -15.1958   17.8585 C   0  0  0  0  0  0  0  0  0  0  0  0
    9.4566  -14.7793   19.2437 C   0  0  0  0  0  0  0  0  0  0  0  0
    9.8581  -16.0150   20.0483 C   0  0  2  0  0  0  0  0  0  0  0  0
    8.8671  -17.0341   19.7736 N   0  0  0  0  0  0  0  0  0  0  0  0
    9.8032  -15.6342   21.4772 C   0  0  0  0  0  0  0  0  0  0  0  0
   10.6500  -14.8229   21.9748 O   0  0  0  0  0  0  0  0  0  0  0  0
    8.8147  -16.1467   22.3612 N   0  0  0  0  0  0  0  0  0  0  0  0
    8.5994  -15.6249   23.7047 C   0  0  1  0  0  0  0  0  0  0  0  0
    7.1545  -15.3559   23.9803 C   0  0  0  0  0  0  0  0  0  0  0  0
    6.8798  -14.4447   25.0724 C   0  0  0  0  0  0  0  0  0  0  0  0
    7.2464  -13.1200   24.9967 C   0  0  0  0  0  0  0  0  0  0  0  0
    6.9796  -12.2407   26.0573 C   0  0  0  0  0  0  0  0  0  0  0  0
    6.3509  -12.6897   27.1818 C   0  0  0  0  0  0  0  0  0  0  0  0
    5.9795  -14.0080   27.2716 C   0  0  0  0  0  0  0  0  0  0  0  0
    6.2514  -14.8651   26.2118 C   0  0  0  0  0  0  0  0  0  0  0  0
    9.3098  -16.4008   24.7249 C   0  0  0  0  0  0  0  0  0  0  0  0
    9.6928  -17.5848   24.4846 O   0  0  0  0  0  0  0  0  0  0  0  0
   10.0806  -13.7487   29.4482 C   0  0  0  0  0  0  0  0  0  0  0  0
   10.3105  -14.3668   28.0633 C   0  0  1  0  0  0  0  0  0  0  0  0
   11.5933  -13.8686   27.4836 C   0  0  0  0  0  0  0  0  0  0  0  0
   10.2892  -15.8597   28.2806 C   0  0  0  0  0  0  0  0  0  0  0  0
   10.4226  -16.6385   26.9724 C   0  0  2  0  0  0  0  0  0  0  0  0
    9.6089  -15.8904   26.0112 N   0  0  0  0  0  0  0  0  0  0  0  0
    9.8027  -17.9656   27.1813 C   0  0  0  0  0  0  0  0  0  0  0  0
   10.4307  -18.8602   27.7929 O   0  0  0  0  0  0  0  0  0  0  0  0
    8.5314  -18.2855   26.7269 O   0  0  0  0  0  0  0  0  0  0  0  0
  1  2  1  0
  3  2  1  0
  4  3  1  0
  5  4  1  0
  5  6  1  1
  7  5  1  0
  8  7  2  0
  9  7  1  0
 10  9  1  0
 10 11  1  1
 11 12  1  0
 12 17  2  0
 13 14  2  0
 13 12  1  0
 14 15  1  0
 15 16  2  0
 17 16  1  0
 18 25  1  0
 18 10  1  0
 19 18  2  0
 21 20  1  1
 21 23  1  0
 21 22  1  0
 24 23  1  1
 24 26  1  0
 24 25  1  0
 26 28  1  0
 27 26  2  0
M  END
$$$$
