MFL.pdb
     RDKit          3D

 28 28  0  0  1  0  0  0  0  0999 V2000
    9.6222  -22.8332   20.2989 C   0  0  0  0  0  0  0  0  0  0  0  0
    9.7516  -21.1230   20.8644 S   0  0  0  0  0  0  0  0  0  0  0  0
   11.1270  -20.2581   20.0463 C   0  0  0  0  0  0  0  0  0  0  0  0
   11.1802  -18.8488   20.6293 C   0  0  0  0  0  0  0  0  0  0  0  0
    9.8796  -18.1078   20.3209 C   0  0  2  0  0  0  0  0  0  0  0  0
   10.0045  -17.5838   18.9770 N   0  0  0  0  0  0  0  0  0  0  0  0
    9.7811  -16.9915   21.2874 C   0  0  0  0  0  0  0  0  0  0  0  0
   10.5268  -15.9638   21.1835 O   0  0  0  0  0  0  0  0  0  0  0  0
    8.8606  -17.0053   22.3708 N   0  0  0  0  0  0  0  0  0  0  0  0
    8.7490  -15.9188   23.3355 C   0  0  1  0  0  0  0  0  0  0  0  0
    7.3294  -15.6517   23.7222 C   0  0  0  0  0  0  0  0  0  0  0  0
    7.1154  -14.5088   24.5861 C   0  0  0  0  0  0  0  0  0  0  0  0
    6.3601  -14.6205   25.7316 C   0  0  0  0  0  0  0  0  0  0  0  0
    6.1541  -13.5106   26.5653 C   0  0  0  0  0  0  0  0  0  0  0  0
    6.7019  -12.3017   26.2496 C   0  0  0  0  0  0  0  0  0  0  0  0
    7.4573  -12.1752   25.1105 C   0  0  0  0  0  0  0  0  0  0  0  0
    7.6512  -13.2847   24.2962 C   0  0  0  0  0  0  0  0  0  0  0  0
    9.6968  -16.0579   24.4445 C   0  0  0  0  0  0  0  0  0  0  0  0
   10.9147  -16.3293   24.2221 O   0  0  0  0  0  0  0  0  0  0  0  0
    9.8831  -13.2100   27.1973 C   0  0  0  0  0  0  0  0  0  0  0  0
   10.2311  -14.0906   28.4040 C   0  0  1  0  0  0  0  0  0  0  0  0
    9.7136  -13.4709   29.6602 C   0  0  0  0  0  0  0  0  0  0  0  0
    9.6249  -15.4397   28.1057 C   0  0  0  0  0  0  0  0  0  0  0  0
   10.2730  -16.1125   26.8962 C   0  0  2  0  0  0  0  0  0  0  0  0
    9.3238  -15.8997   25.8010 N   0  0  0  0  0  0  0  0  0  0  0  0
   10.3450  -17.5625   27.1813 C   0  0  0  0  0  0  0  0  0  0  0  0
   11.3276  -18.0302   27.8015 O   0  0  0  0  0  0  0  0  0  0  0  0
    9.3606  -18.4590   26.7911 O   0  0  0  0  0  0  0  0  0  0  0  0
  1  2  1  0
  3  2  1  0
  4  3  1  0
  5  4  1  0
  5  6  1  6
  7  5  1  0
  8  7  2  0
  9  7  1  0
 10  9  1  0
 10 11  1  1
 11 12  1  0
 12 17  2  0
 13 14  2  0
 13 12  1  0
 14 15  1  0
 15 16  2  0
 17 16  1  0
 18 25  1  0
 18 10  1  0
 19 18  2  0
 21 20  1  6
 21 23  1  0
 21 22  1  0
 24 23  1  1
 24 26  1  0
 24 25  1  0
 26 28  1  0
 27 26  2  0
M  END
$$$$
