SKR.pdb
     RDKit          3D

 27 26  0  0  1  0  0  0  0  0999 V2000
   16.8596  -23.6363  -13.4571 O   0  0  0  0  0  0  0  0  0  0  0  0
   16.7990  -22.4164  -12.8293 C   0  0  0  0  0  0  0  0  0  0  0  0
   18.0743  -22.0192  -12.1310 C   0  0  2  0  0  0  0  0  0  0  0  0
   19.0674  -21.7674  -13.1594 N   0  0  0  0  0  0  0  0  0  0  0  0
   18.5769  -23.0096  -11.1789 C   0  0  0  0  0  0  0  0  0  0  0  0
   19.7449  -23.4879  -11.3409 O   0  0  0  0  0  0  0  0  0  0  0  0
   17.8666  -23.5008  -10.0619 N   0  0  0  0  0  0  0  0  0  0  0  0
   18.4420  -24.4597   -9.1118 C   0  0  1  0  0  0  0  0  0  0  0  0
   17.6173  -24.3749   -7.8561 C   0  0  0  0  0  0  0  0  0  0  0  0
   18.0122  -25.3486   -6.8041 C   0  0  0  0  0  0  0  0  0  0  0  0
   17.1439  -25.2928   -5.5806 C   0  0  0  0  0  0  0  0  0  0  0  0
   17.5644  -26.3400   -4.5787 C   0  0  0  0  0  0  0  0  0  0  0  0
   16.6339  -26.3011   -3.4499 N   0  0  0  0  0  0  0  0  0  0  0  0
   18.4851  -25.8207   -9.7143 C   0  0  0  0  0  0  0  0  0  0  0  0
   17.5101  -26.2734  -10.3631 O   0  0  0  0  0  0  0  0  0  0  0  0
   24.7292  -32.4433   -9.7576 N   0  0  0  0  0  0  0  0  0  0  0  0
   23.6137  -32.8822  -10.5344 C   0  0  0  0  0  0  0  0  0  0  0  0
   23.6181  -34.0278  -11.0977 N   0  0  0  0  0  0  0  0  0  0  0  0
   22.4726  -32.0399  -10.6916 N   0  0  0  0  0  0  0  0  0  0  0  0
   22.4728  -30.6953  -10.1650 C   0  0  0  0  0  0  0  0  0  0  0  0
   21.1245  -30.0392  -10.3432 C   0  0  0  0  0  0  0  0  0  0  0  0
   21.0915  -28.6262   -9.8707 C   0  0  0  0  0  0  0  0  0  0  0  0
   19.7519  -27.9956  -10.0209 C   0  0  2  0  0  0  0  0  0  0  0  0
   19.6223  -26.6591   -9.5818 N   0  0  0  0  0  0  0  0  0  0  0  0
   18.6697  -28.8910   -9.5029 C   0  0  0  0  0  0  0  0  0  0  0  0
   18.0669  -29.6307  -10.3028 O   0  0  0  0  0  0  0  0  0  0  0  0
   18.3263  -28.9163   -8.1697 O   0  0  0  0  0  0  0  0  0  0  0  0
  1  2  1  0
  3  2  1  0
  3  4  1  6
  5  3  1  0
  6  5  2  0
  7  5  1  0
  8  9  1  1
  8  7  1  0
 10  9  1  0
 11 10  1  0
 12 11  1  0
 13 12  1  0
 14  8  1  0
 15 14  2  0
 17 16  1  0
 17 19  1  0
 18 17  2  0
 20 19  1  0
 20 21  1  0
 21 22  1  0
 23 22  1  1
 23 24  1  0
 24 14  1  0
 25 23  1  0
 25 27  1  0
 26 25  2  0
M  END
$$$$
