SKR.pdb
     RDKit          3D

 27 26  0  0  1  0  0  0  0  0999 V2000
   17.9652  -18.9631  -19.0982 O   0  0  0  0  0  0  0  0  0  0  0  0
   18.1075  -19.3377  -20.4116 C   0  0  0  0  0  0  0  0  0  0  0  0
   19.5179  -19.7017  -20.7989 C   0  0  2  0  0  0  0  0  0  0  0  0
   19.4834  -20.1474  -22.1800 N   0  0  0  0  0  0  0  0  0  0  0  0
   20.1319  -20.7269  -19.9552 C   0  0  0  0  0  0  0  0  0  0  0  0
   19.8851  -21.9527  -20.1908 O   0  0  0  0  0  0  0  0  0  0  0  0
   20.9999  -20.4775  -18.8699 N   0  0  0  0  0  0  0  0  0  0  0  0
   21.5048  -21.5411  -17.9940 C   0  0  1  0  0  0  0  0  0  0  0  0
   23.0066  -21.4927  -18.0734 C   0  0  0  0  0  0  0  0  0  0  0  0
   23.6903  -22.5463  -17.2777 C   0  0  0  0  0  0  0  0  0  0  0  0
   25.1880  -22.4500  -17.3188 C   0  0  0  0  0  0  0  0  0  0  0  0
   25.8155  -23.5007  -16.4359 C   0  0  0  0  0  0  0  0  0  0  0  0
   27.2522  -23.2358  -16.3501 N   0  0  0  0  0  0  0  0  0  0  0  0
   20.9679  -21.3729  -16.6154 C   0  0  0  0  0  0  0  0  0  0  0  0
   21.2685  -20.3712  -15.9207 O   0  0  0  0  0  0  0  0  0  0  0  0
   15.5258  -23.6147  -10.4082 N   0  0  0  0  0  0  0  0  0  0  0  0
   15.4432  -24.6108  -11.4287 C   0  0  0  0  0  0  0  0  0  0  0  0
   14.7578  -25.6734  -11.2527 N   0  0  0  0  0  0  0  0  0  0  0  0
   16.1304  -24.4297  -12.6660 N   0  0  0  0  0  0  0  0  0  0  0  0
   17.5599  -24.2267  -12.6905 C   0  0  0  0  0  0  0  0  0  0  0  0
   18.0817  -24.1892  -14.1071 C   0  0  0  0  0  0  0  0  0  0  0  0
   19.5374  -23.8810  -14.1892 C   0  0  0  0  0  0  0  0  0  0  0  0
   19.8113  -22.4954  -14.6581 C   0  0  2  0  0  0  0  0  0  0  0  0
   20.0994  -22.3312  -16.0313 N   0  0  0  0  0  0  0  0  0  0  0  0
   20.7951  -21.8051  -13.7655 C   0  0  0  0  0  0  0  0  0  0  0  0
   20.3719  -21.0130  -12.9030 O   0  0  0  0  0  0  0  0  0  0  0  0
   22.1501  -22.0238  -13.8744 O   0  0  0  0  0  0  0  0  0  0  0  0
  1  2  1  0
  3  2  1  0
  3  4  1  6
  5  3  1  0
  6  5  2  0
  7  5  1  0
  8  9  1  1
  8  7  1  0
 10  9  1  0
 11 10  1  0
 12 11  1  0
 13 12  1  0
 14  8  1  0
 15 14  2  0
 17 16  1  0
 17 19  1  0
 18 17  2  0
 20 19  1  0
 20 21  1  0
 21 22  1  0
 23 22  1  1
 23 24  1  0
 24 14  1  0
 25 23  1  0
 25 27  1  0
 26 25  2  0
M  END
$$$$
