SKR.pdb
     RDKit          3D

 27 26  0  0  1  0  0  0  0  0999 V2000
   18.6264  -24.9128    1.0473 O   0  0  0  0  0  0  0  0  0  0  0  0
   17.4372  -25.5920    0.9458 C   0  0  0  0  0  0  0  0  0  0  0  0
   17.5838  -27.0296    0.5175 C   0  0  2  0  0  0  0  0  0  0  0  0
   18.4174  -27.6900    1.5056 N   0  0  0  0  0  0  0  0  0  0  0  0
   18.1512  -27.2084   -0.8189 C   0  0  0  0  0  0  0  0  0  0  0  0
   19.2268  -27.8752   -0.9513 O   0  0  0  0  0  0  0  0  0  0  0  0
   17.6013  -26.6951   -2.0137 N   0  0  0  0  0  0  0  0  0  0  0  0
   18.0015  -27.1710   -3.3428 C   0  0  1  0  0  0  0  0  0  0  0  0
   17.5390  -28.5988   -3.4503 C   0  0  0  0  0  0  0  0  0  0  0  0
   17.8095  -29.2263   -4.7708 C   0  0  0  0  0  0  0  0  0  0  0  0
   17.2256  -30.6023   -4.9104 C   0  0  0  0  0  0  0  0  0  0  0  0
   17.5994  -31.2090   -6.2406 C   0  0  0  0  0  0  0  0  0  0  0  0
   16.8665  -32.4657   -6.3989 N   0  0  0  0  0  0  0  0  0  0  0  0
   17.4506  -26.2773   -4.3986 C   0  0  0  0  0  0  0  0  0  0  0  0
   16.3016  -25.7820   -4.2938 O   0  0  0  0  0  0  0  0  0  0  0  0
   18.4858  -24.7725  -12.9215 N   0  0  0  0  0  0  0  0  0  0  0  0
   18.6469  -23.4520  -12.4010 C   0  0  0  0  0  0  0  0  0  0  0  0
   18.9650  -22.4808  -13.1662 N   0  0  0  0  0  0  0  0  0  0  0  0
   18.4531  -23.2001  -11.0100 N   0  0  0  0  0  0  0  0  0  0  0  0
   18.8514  -24.1762  -10.0232 C   0  0  0  0  0  0  0  0  0  0  0  0
   18.3905  -23.7758   -8.6421 C   0  0  0  0  0  0  0  0  0  0  0  0
   18.8855  -24.6854   -7.5706 C   0  0  0  0  0  0  0  0  0  0  0  0
   17.8376  -25.0286   -6.5712 C   0  0  2  0  0  0  0  0  0  0  0  0
   18.1954  -25.9493   -5.5612 N   0  0  0  0  0  0  0  0  0  0  0  0
   16.5405  -25.3647   -7.2389 C   0  0  0  0  0  0  0  0  0  0  0  0
   16.2478  -26.5619   -7.4161 O   0  0  0  0  0  0  0  0  0  0  0  0
   15.6674  -24.3868   -7.6598 O   0  0  0  0  0  0  0  0  0  0  0  0
  1  2  1  0
  3  2  1  0
  3  4  1  1
  5  3  1  0
  6  5  2  0
  7  5  1  0
  8  9  1  6
  8  7  1  0
 10  9  1  0
 11 10  1  0
 12 11  1  0
 13 12  1  0
 14  8  1  0
 15 14  2  0
 17 16  1  0
 17 19  1  0
 18 17  2  0
 20 19  1  0
 20 21  1  0
 21 22  1  0
 23 22  1  6
 23 24  1  0
 24 14  1  0
 25 23  1  0
 25 27  1  0
 26 25  2  0
M  END
$$$$
