SKR.pdb
     RDKit          3D

 27 26  0  0  1  0  0  0  0  0999 V2000
   25.4002  -22.7407  -13.5763 O   0  0  0  0  0  0  0  0  0  0  0  0
   26.6413  -22.2950  -13.1933 C   0  0  0  0  0  0  0  0  0  0  0  0
   26.6779  -20.8419  -12.7947 C   0  0  2  0  0  0  0  0  0  0  0  0
   26.0192  -20.7326  -11.5057 N   0  0  0  0  0  0  0  0  0  0  0  0
   26.0530  -19.9343  -13.7569 C   0  0  0  0  0  0  0  0  0  0  0  0
   25.0341  -19.2601  -13.4012 O   0  0  0  0  0  0  0  0  0  0  0  0
   26.4867  -19.7289  -15.0847 N   0  0  0  0  0  0  0  0  0  0  0  0
   25.7472  -18.9010  -16.0443 C   0  0  1  0  0  0  0  0  0  0  0  0
   26.6457  -18.7102  -17.2361 C   0  0  0  0  0  0  0  0  0  0  0  0
   27.7716  -17.7676  -17.0023 C   0  0  0  0  0  0  0  0  0  0  0  0
   28.7807  -17.7530  -18.1137 C   0  0  0  0  0  0  0  0  0  0  0  0
   29.8343  -16.7017  -17.8653 C   0  0  0  0  0  0  0  0  0  0  0  0
   30.7826  -16.7238  -18.9797 N   0  0  0  0  0  0  0  0  0  0  0  0
   24.4388  -19.5324  -16.3703 C   0  0  0  0  0  0  0  0  0  0  0  0
   24.3012  -20.7804  -16.3606 O   0  0  0  0  0  0  0  0  0  0  0  0
   19.6469  -22.5529  -13.2857 N   0  0  0  0  0  0  0  0  0  0  0  0
   18.4982  -22.0892  -13.9969 C   0  0  0  0  0  0  0  0  0  0  0  0
   17.3313  -22.5190  -13.7077 N   0  0  0  0  0  0  0  0  0  0  0  0
   18.6412  -21.1332  -15.0465 N   0  0  0  0  0  0  0  0  0  0  0  0
   19.9468  -20.6449  -15.4236 C   0  0  0  0  0  0  0  0  0  0  0  0
   20.4915  -19.6885  -14.3897 C   0  0  0  0  0  0  0  0  0  0  0  0
   21.8185  -19.1188  -14.7575 C   0  0  0  0  0  0  0  0  0  0  0  0
   21.9810  -18.9269  -16.2243 C   0  0  2  0  0  0  0  0  0  0  0  0
   23.2986  -18.7562  -16.7040 N   0  0  0  0  0  0  0  0  0  0  0  0
   21.0286  -17.8959  -16.7452 C   0  0  0  0  0  0  0  0  0  0  0  0
   21.3412  -16.6933  -16.6651 O   0  0  0  0  0  0  0  0  0  0  0  0
   19.8211  -18.2436  -17.3083 O   0  0  0  0  0  0  0  0  0  0  0  0
  1  2  1  0
  3  2  1  0
  3  4  1  1
  5  3  1  0
  6  5  2  0
  7  5  1  0
  8  9  1  6
  8  7  1  0
 10  9  1  0
 11 10  1  0
 12 11  1  0
 13 12  1  0
 14  8  1  0
 15 14  2  0
 17 16  1  0
 17 19  1  0
 18 17  2  0
 20 19  1  0
 20 21  1  0
 21 22  1  0
 23 22  1  1
 23 24  1  0
 24 14  1  0
 25 23  1  0
 25 27  1  0
 26 25  2  0
M  END
$$$$
