SKR.pdb
     RDKit          3D

 27 26  0  0  1  0  0  0  0  0999 V2000
   23.6008  -13.7251  -19.8800 O   0  0  0  0  0  0  0  0  0  0  0  0
   24.0462  -14.8216  -19.1834 C   0  0  0  0  0  0  0  0  0  0  0  0
   23.1455  -16.0255  -19.2886 C   0  0  2  0  0  0  0  0  0  0  0  0
   23.2924  -16.5566  -20.6316 N   0  0  0  0  0  0  0  0  0  0  0  0
   21.7360  -15.7536  -19.0071 C   0  0  0  0  0  0  0  0  0  0  0  0
   20.9910  -15.3154  -19.9410 O   0  0  0  0  0  0  0  0  0  0  0  0
   21.1036  -15.9369  -17.7582 N   0  0  0  0  0  0  0  0  0  0  0  0
   19.6849  -15.6374  -17.5329 C   0  0  1  0  0  0  0  0  0  0  0  0
   19.2487  -16.4632  -16.3531 C   0  0  0  0  0  0  0  0  0  0  0  0
   18.8518  -17.8536  -16.6994 C   0  0  0  0  0  0  0  0  0  0  0  0
   18.5126  -18.6947  -15.5030 C   0  0  0  0  0  0  0  0  0  0  0  0
   18.3598  -20.1440  -15.8947 C   0  0  0  0  0  0  0  0  0  0  0  0
   17.9754  -20.9069  -14.7064 N   0  0  0  0  0  0  0  0  0  0  0  0
   19.4893  -14.1728  -17.3494 C   0  0  0  0  0  0  0  0  0  0  0  0
   20.3547  -13.4709  -16.7708 O   0  0  0  0  0  0  0  0  0  0  0  0
   13.3924   -7.9721  -18.3482 N   0  0  0  0  0  0  0  0  0  0  0  0
   14.6527   -7.3004  -18.3217 C   0  0  0  0  0  0  0  0  0  0  0  0
   14.7183   -6.0378  -18.1443 N   0  0  0  0  0  0  0  0  0  0  0  0
   15.8625   -8.0370  -18.4945 N   0  0  0  0  0  0  0  0  0  0  0  0
   15.8465   -9.4806  -18.5263 C   0  0  0  0  0  0  0  0  0  0  0  0
   17.2286  -10.0365  -18.7732 C   0  0  0  0  0  0  0  0  0  0  0  0
   17.2610  -11.5251  -18.8343 C   0  0  0  0  0  0  0  0  0  0  0  0
   18.0246  -12.1352  -17.7121 C   0  0  2  0  0  0  0  0  0  0  0  0
   18.3240  -13.5117  -17.8172 N   0  0  0  0  0  0  0  0  0  0  0  0
   17.4335  -11.7626  -16.3880 C   0  0  0  0  0  0  0  0  0  0  0  0
   17.8585  -10.7486  -15.8036 O   0  0  0  0  0  0  0  0  0  0  0  0
   16.4361  -12.5104  -15.8035 O   0  0  0  0  0  0  0  0  0  0  0  0
  1  2  1  0
  3  2  1  0
  3  4  1  6
  5  3  1  0
  6  5  2  0
  7  5  1  0
  8  9  1  1
  8  7  1  0
 10  9  1  0
 11 10  1  0
 12 11  1  0
 13 12  1  0
 14  8  1  0
 15 14  2  0
 17 16  1  0
 17 19  1  0
 18 17  2  0
 20 19  1  0
 20 21  1  0
 21 22  1  0
 23 22  1  6
 23 24  1  0
 24 14  1  0
 25 23  1  0
 25 27  1  0
 26 25  2  0
M  END
$$$$
