SKR.pdb
     RDKit          3D

 27 26  0  0  1  0  0  0  0  0999 V2000
   21.8761  -20.8208  -23.7371 O   0  0  0  0  0  0  0  0  0  0  0  0
   22.1590  -19.5244  -23.3835 C   0  0  0  0  0  0  0  0  0  0  0  0
   22.4955  -19.3431  -21.9256 C   0  0  2  0  0  0  0  0  0  0  0  0
   21.2676  -19.5302  -21.1741 N   0  0  0  0  0  0  0  0  0  0  0  0
   23.0925  -18.0483  -21.5984 C   0  0  0  0  0  0  0  0  0  0  0  0
   22.8658  -17.5319  -20.4578 O   0  0  0  0  0  0  0  0  0  0  0  0
   23.9226  -17.2932  -22.4553 N   0  0  0  0  0  0  0  0  0  0  0  0
   24.5881  -16.0559  -22.0316 C   0  0  1  0  0  0  0  0  0  0  0  0
   25.9908  -16.1098  -22.5734 C   0  0  0  0  0  0  0  0  0  0  0  0
   26.8484  -14.9711  -22.1510 C   0  0  0  0  0  0  0  0  0  0  0  0
   28.2778  -15.1031  -22.5904 C   0  0  0  0  0  0  0  0  0  0  0  0
   29.0934  -13.9249  -22.1172 C   0  0  0  0  0  0  0  0  0  0  0  0
   30.4708  -14.0993  -22.5800 N   0  0  0  0  0  0  0  0  0  0  0  0
   23.8109  -14.8700  -22.4862 C   0  0  0  0  0  0  0  0  0  0  0  0
   23.4131  -14.7720  -23.6730 O   0  0  0  0  0  0  0  0  0  0  0  0
   18.6933   -8.8624  -18.1297 N   0  0  0  0  0  0  0  0  0  0  0  0
   18.6863   -8.5107  -19.5141 C   0  0  0  0  0  0  0  0  0  0  0  0
   17.9099   -7.5976  -19.9539 N   0  0  0  0  0  0  0  0  0  0  0  0
   19.5528   -9.1800  -20.4292 N   0  0  0  0  0  0  0  0  0  0  0  0
   20.3939  -10.2664  -19.9850 C   0  0  0  0  0  0  0  0  0  0  0  0
   21.1459  -10.8822  -21.1407 C   0  0  0  0  0  0  0  0  0  0  0  0
   22.0237  -12.0155  -20.7335 C   0  0  0  0  0  0  0  0  0  0  0  0
   22.6936  -12.6741  -21.8877 C   0  0  2  0  0  0  0  0  0  0  0  0
   23.4888  -13.8065  -21.6036 N   0  0  0  0  0  0  0  0  0  0  0  0
   23.3887  -11.6716  -22.7556 C   0  0  0  0  0  0  0  0  0  0  0  0
   22.7208  -11.0322  -23.5895 O   0  0  0  0  0  0  0  0  0  0  0  0
   24.7423  -11.4406  -22.6546 O   0  0  0  0  0  0  0  0  0  0  0  0
  1  2  1  0
  3  2  1  0
  3  4  1  1
  5  3  1  0
  6  5  2  0
  7  5  1  0
  8  9  1  6
  8  7  1  0
 10  9  1  0
 11 10  1  0
 12 11  1  0
 13 12  1  0
 14  8  1  0
 15 14  2  0
 17 16  1  0
 17 19  1  0
 18 17  2  0
 20 19  1  0
 20 21  1  0
 21 22  1  0
 23 22  1  1
 23 24  1  0
 24 14  1  0
 25 23  1  0
 25 27  1  0
 26 25  2  0
M  END
$$$$
