SKR.pdb
     RDKit          3D

 27 26  0  0  1  0  0  0  0  0999 V2000
   27.8865   -8.9527  -17.1407 O   0  0  0  0  0  0  0  0  0  0  0  0
   29.0437   -9.6649  -16.9415 C   0  0  0  0  0  0  0  0  0  0  0  0
   29.1527  -10.9106  -17.7830 C   0  0  2  0  0  0  0  0  0  0  0  0
   29.3907  -10.4864  -19.1507 N   0  0  0  0  0  0  0  0  0  0  0  0
   27.9813  -11.7849  -17.7247 C   0  0  0  0  0  0  0  0  0  0  0  0
   27.0972  -11.6979  -18.6357 O   0  0  0  0  0  0  0  0  0  0  0  0
   27.7306  -12.7466  -16.7219 N   0  0  0  0  0  0  0  0  0  0  0  0
   26.4948  -13.5359  -16.6673 C   0  0  1  0  0  0  0  0  0  0  0  0
   26.7898  -14.7470  -15.8245 C   0  0  0  0  0  0  0  0  0  0  0  0
   25.6526  -15.6979  -15.7098 C   0  0  0  0  0  0  0  0  0  0  0  0
   25.9716  -16.9169  -14.8937 C   0  0  0  0  0  0  0  0  0  0  0  0
   24.8476  -17.9208  -14.9707 C   0  0  0  0  0  0  0  0  0  0  0  0
   25.2755  -19.1478  -14.2975 N   0  0  0  0  0  0  0  0  0  0  0  0
   25.3724  -12.7028  -16.1542 C   0  0  0  0  0  0  0  0  0  0  0  0
   25.5015  -12.0111  -15.1143 O   0  0  0  0  0  0  0  0  0  0  0  0
   21.4932   -5.7173  -16.4586 N   0  0  0  0  0  0  0  0  0  0  0  0
   20.4248   -6.5028  -15.9277 C   0  0  0  0  0  0  0  0  0  0  0  0
   19.4285   -5.9497  -15.3521 N   0  0  0  0  0  0  0  0  0  0  0  0
   20.4579   -7.9254  -16.0345 N   0  0  0  0  0  0  0  0  0  0  0  0
   21.6231   -8.5965  -16.5609 C   0  0  0  0  0  0  0  0  0  0  0  0
   21.3638  -10.0719  -16.7513 C   0  0  0  0  0  0  0  0  0  0  0  0
   22.5409  -10.8109  -17.2890 C   0  0  0  0  0  0  0  0  0  0  0  0
   22.9699  -11.9346  -16.4128 C   0  0  2  0  0  0  0  0  0  0  0  0
   24.1168  -12.6552  -16.8138 N   0  0  0  0  0  0  0  0  0  0  0  0
   21.8147  -12.8191  -16.0602 C   0  0  0  0  0  0  0  0  0  0  0  0
   21.5876  -13.8210  -16.7638 O   0  0  0  0  0  0  0  0  0  0  0  0
   21.0010  -12.5531  -14.9817 O   0  0  0  0  0  0  0  0  0  0  0  0
  1  2  1  0
  3  2  1  0
  3  4  1  6
  5  3  1  0
  6  5  2  0
  7  5  1  0
  8  9  1  1
  8  7  1  0
 10  9  1  0
 11 10  1  0
 12 11  1  0
 13 12  1  0
 14  8  1  0
 15 14  2  0
 17 16  1  0
 17 19  1  0
 18 17  2  0
 20 19  1  0
 20 21  1  0
 21 22  1  0
 23 22  1  6
 23 24  1  0
 24 14  1  0
 25 23  1  0
 25 27  1  0
 26 25  2  0
M  END
$$$$
