SKR.pdb
     RDKit          3D

 27 26  0  0  1  0  0  0  0  0999 V2000
   31.9332   -2.0645  -17.7329 O   0  0  0  0  0  0  0  0  0  0  0  0
   31.8745   -3.4228  -17.9262 C   0  0  0  0  0  0  0  0  0  0  0  0
   33.2205   -4.0793  -18.0965 C   0  0  2  0  0  0  0  0  0  0  0  0
   33.7192   -3.7047  -19.4074 N   0  0  0  0  0  0  0  0  0  0  0  0
   33.2050   -5.5360  -17.9622 C   0  0  0  0  0  0  0  0  0  0  0  0
   32.9794   -6.2506  -18.9906 O   0  0  0  0  0  0  0  0  0  0  0  0
   33.4233   -6.2467  -16.7620 N   0  0  0  0  0  0  0  0  0  0  0  0
   33.3458   -7.7096  -16.6781 C   0  0  1  0  0  0  0  0  0  0  0  0
   34.0319   -8.1082  -15.3996 C   0  0  0  0  0  0  0  0  0  0  0  0
   35.5126   -8.1910  -15.5061 C   0  0  0  0  0  0  0  0  0  0  0  0
   36.1762   -8.6829  -14.2525 C   0  0  0  0  0  0  0  0  0  0  0  0
   37.6769   -8.5692  -14.3623 C   0  0  0  0  0  0  0  0  0  0  0  0
   38.2646   -8.9308  -13.0717 N   0  0  0  0  0  0  0  0  0  0  0  0
   31.9285   -8.1574  -16.7671 C   0  0  0  0  0  0  0  0  0  0  0  0
   31.0308   -7.6067  -16.0836 O   0  0  0  0  0  0  0  0  0  0  0  0
   24.8890   -7.1262  -20.9503 N   0  0  0  0  0  0  0  0  0  0  0  0
   24.6694   -8.4352  -20.4224 C   0  0  0  0  0  0  0  0  0  0  0  0
   23.5454   -9.0217  -20.5726 N   0  0  0  0  0  0  0  0  0  0  0  0
   25.7105   -9.1083  -19.7159 N   0  0  0  0  0  0  0  0  0  0  0  0
   27.0044   -8.4898  -19.5479 C   0  0  0  0  0  0  0  0  0  0  0  0
   27.9439   -9.3892  -18.7806 C   0  0  0  0  0  0  0  0  0  0  0  0
   29.3001   -8.8004  -18.5944 C   0  0  0  0  0  0  0  0  0  0  0  0
   30.2222   -9.6941  -17.8422 C   0  0  2  0  0  0  0  0  0  0  0  0
   31.5342   -9.2190  -17.6224 N   0  0  0  0  0  0  0  0  0  0  0  0
   30.1863  -11.0896  -18.3831 C   0  0  0  0  0  0  0  0  0  0  0  0
   31.1849  -11.5275  -18.9842 O   0  0  0  0  0  0  0  0  0  0  0  0
   29.0811  -11.8969  -18.2326 O   0  0  0  0  0  0  0  0  0  0  0  0
  1  2  1  0
  3  2  1  0
  3  4  1  6
  5  3  1  0
  6  5  2  0
  7  5  1  0
  8  9  1  1
  8  7  1  0
 10  9  1  0
 11 10  1  0
 12 11  1  0
 13 12  1  0
 14  8  1  0
 15 14  2  0
 17 16  1  0
 17 19  1  0
 18 17  2  0
 20 19  1  0
 20 21  1  0
 21 22  1  0
 23 22  1  6
 23 24  1  0
 24 14  1  0
 25 23  1  0
 25 27  1  0
 26 25  2  0
M  END
$$$$
