SKR.pdb
     RDKit          3D

 27 26  0  0  1  0  0  0  0  0999 V2000
   27.9350  -15.4432  -16.3433 O   0  0  0  0  0  0  0  0  0  0  0  0
   27.0999  -14.6835  -17.1250 C   0  0  0  0  0  0  0  0  0  0  0  0
   26.6279  -13.4122  -16.4670 C   0  0  2  0  0  0  0  0  0  0  0  0
   26.6111  -13.6496  -15.0349 N   0  0  0  0  0  0  0  0  0  0  0  0
   25.3142  -12.9502  -16.9152 C   0  0  0  0  0  0  0  0  0  0  0  0
   25.1457  -12.6576  -18.1420 O   0  0  0  0  0  0  0  0  0  0  0  0
   24.1797  -12.7932  -16.0897 N   0  0  0  0  0  0  0  0  0  0  0  0
   22.9095  -12.2446  -16.5786 C   0  0  1  0  0  0  0  0  0  0  0  0
   21.8140  -13.0782  -15.9713 C   0  0  0  0  0  0  0  0  0  0  0  0
   20.8956  -13.6916  -16.9668 C   0  0  0  0  0  0  0  0  0  0  0  0
   19.7847  -14.4876  -16.3455 C   0  0  0  0  0  0  0  0  0  0  0  0
   18.7970  -14.9360  -17.3946 C   0  0  0  0  0  0  0  0  0  0  0  0
   17.8709  -15.8891  -16.7816 N   0  0  0  0  0  0  0  0  0  0  0  0
   22.8145  -10.7945  -16.2542 C   0  0  0  0  0  0  0  0  0  0  0  0
   23.4096  -10.3128  -15.2591 O   0  0  0  0  0  0  0  0  0  0  0  0
   18.7561   -4.4379  -17.3345 N   0  0  0  0  0  0  0  0  0  0  0  0
   19.7538   -3.5444  -17.8311 C   0  0  0  0  0  0  0  0  0  0  0  0
   19.6992   -2.2947  -17.5760 N   0  0  0  0  0  0  0  0  0  0  0  0
   20.8315   -4.0407  -18.6239 N   0  0  0  0  0  0  0  0  0  0  0  0
   20.9186   -5.4447  -18.9502 C   0  0  0  0  0  0  0  0  0  0  0  0
   21.3401   -6.2589  -17.7503 C   0  0  0  0  0  0  0  0  0  0  0  0
   21.4332   -7.7188  -18.0340 C   0  0  0  0  0  0  0  0  0  0  0  0
   21.9021   -8.5085  -16.8630 C   0  0  2  0  0  0  0  0  0  0  0  0
   22.0522   -9.9006  -17.0502 N   0  0  0  0  0  0  0  0  0  0  0  0
   21.1270   -8.1624  -15.6298 C   0  0  0  0  0  0  0  0  0  0  0  0
   20.1106   -8.8259  -15.3524 O   0  0  0  0  0  0  0  0  0  0  0  0
   21.5090   -7.1332  -14.7989 O   0  0  0  0  0  0  0  0  0  0  0  0
  1  2  1  0
  3  2  1  0
  3  4  1  1
  5  3  1  0
  6  5  2  0
  7  5  1  0
  8  9  1  1
  8  7  1  0
 10  9  1  0
 11 10  1  0
 12 11  1  0
 13 12  1  0
 14  8  1  0
 15 14  2  0
 17 16  1  0
 17 19  1  0
 18 17  2  0
 20 19  1  0
 20 21  1  0
 21 22  1  0
 23 22  1  6
 23 24  1  0
 24 14  1  0
 25 23  1  0
 25 27  1  0
 26 25  2  0
M  END
$$$$
