SKR.pdb
     RDKit          3D

 27 26  0  0  1  0  0  0  0  0999 V2000
   16.0701  -30.8702   -6.4234 O   0  0  0  0  0  0  0  0  0  0  0  0
   16.7096  -31.3583   -7.5364 C   0  0  0  0  0  0  0  0  0  0  0  0
   18.1303  -30.8791   -7.6900 C   0  0  2  0  0  0  0  0  0  0  0  0
   18.9636  -31.7304   -6.8604 N   0  0  0  0  0  0  0  0  0  0  0  0
   18.3372  -29.4748   -7.3361 C   0  0  0  0  0  0  0  0  0  0  0  0
   18.9013  -29.1909   -6.2314 O   0  0  0  0  0  0  0  0  0  0  0  0
   17.9584  -28.3696   -8.1288 N   0  0  0  0  0  0  0  0  0  0  0  0
   18.1165  -26.9801   -7.6845 C   0  0  1  0  0  0  0  0  0  0  0  0
   18.3248  -26.1495   -8.9218 C   0  0  0  0  0  0  0  0  0  0  0  0
   18.3512  -24.6842   -8.6714 C   0  0  0  0  0  0  0  0  0  0  0  0
   18.6585  -23.8731   -9.8968 C   0  0  0  0  0  0  0  0  0  0  0  0
   18.7335  -22.4039   -9.5603 C   0  0  0  0  0  0  0  0  0  0  0  0
   19.1192  -21.6714  -10.7671 N   0  0  0  0  0  0  0  0  0  0  0  0
   16.9434  -26.5625   -6.8681 C   0  0  0  0  0  0  0  0  0  0  0  0
   15.7766  -26.8923   -7.1941 O   0  0  0  0  0  0  0  0  0  0  0  0
   14.6801  -21.9961   -1.2631 N   0  0  0  0  0  0  0  0  0  0  0  0
   14.0424  -22.9286   -0.3889 C   0  0  0  0  0  0  0  0  0  0  0  0
   13.0130  -22.5934    0.2877 N   0  0  0  0  0  0  0  0  0  0  0  0
   14.5512  -24.2554   -0.2601 N   0  0  0  0  0  0  0  0  0  0  0  0
   15.6796  -24.6902   -1.0493 C   0  0  0  0  0  0  0  0  0  0  0  0
   15.3152  -24.7958   -2.5110 C   0  0  0  0  0  0  0  0  0  0  0  0
   16.4456  -25.2544   -3.3669 C   0  0  0  0  0  0  0  0  0  0  0  0
   16.0735  -25.3768   -4.8026 C   0  0  2  0  0  0  0  0  0  0  0  0
   17.0926  -25.7788   -5.6944 N   0  0  0  0  0  0  0  0  0  0  0  0
   15.3242  -24.1694   -5.2736 C   0  0  0  0  0  0  0  0  0  0  0  0
   15.8949  -23.3666   -6.0353 O   0  0  0  0  0  0  0  0  0  0  0  0
   14.0253  -23.9261   -4.8869 O   0  0  0  0  0  0  0  0  0  0  0  0
  1  2  1  0
  3  2  1  0
  3  4  1  1
  5  3  1  0
  6  5  2  0
  7  5  1  0
  8  9  1  6
  8  7  1  0
 10  9  1  0
 11 10  1  0
 12 11  1  0
 13 12  1  0
 14  8  1  0
 15 14  2  0
 17 16  1  0
 17 19  1  0
 18 17  2  0
 20 19  1  0
 20 21  1  0
 21 22  1  0
 23 22  1  1
 23 24  1  0
 24 14  1  0
 25 23  1  0
 25 27  1  0
 26 25  2  0
M  END
$$$$
