SKR.pdb
     RDKit          3D

 27 26  0  0  1  0  0  0  0  0999 V2000
   20.9154  -10.8291    4.7398 O   0  0  0  0  0  0  0  0  0  0  0  0
   20.4187  -12.0314    5.1798 C   0  0  0  0  0  0  0  0  0  0  0  0
   19.6738  -11.9486    6.4875 C   0  0  2  0  0  0  0  0  0  0  0  0
   20.6563  -11.7023    7.5274 N   0  0  0  0  0  0  0  0  0  0  0  0
   18.8861  -13.1378    6.8119 C   0  0  0  0  0  0  0  0  0  0  0  0
   19.3793  -14.0139    7.5920 O   0  0  0  0  0  0  0  0  0  0  0  0
   17.5896  -13.4147    6.3263 N   0  0  0  0  0  0  0  0  0  0  0  0
   16.8418  -14.6216    6.6971 C   0  0  1  0  0  0  0  0  0  0  0  0
   15.4216  -14.1925    6.9480 C   0  0  0  0  0  0  0  0  0  0  0  0
   14.5169  -15.2991    7.3576 C   0  0  0  0  0  0  0  0  0  0  0  0
   13.1094  -14.8524    7.6283 C   0  0  0  0  0  0  0  0  0  0  0  0
   12.2722  -16.0012    8.1347 C   0  0  0  0  0  0  0  0  0  0  0  0
   10.9533  -15.4857    8.5041 N   0  0  0  0  0  0  0  0  0  0  0  0
   16.9803  -15.6601    5.6392 C   0  0  0  0  0  0  0  0  0  0  0  0
   16.9984  -15.3480    4.4231 O   0  0  0  0  0  0  0  0  0  0  0  0
   19.0076  -24.5219    5.8900 N   0  0  0  0  0  0  0  0  0  0  0  0
   19.1004  -24.0734    4.5371 C   0  0  0  0  0  0  0  0  0  0  0  0
   19.5250  -24.8502    3.6172 N   0  0  0  0  0  0  0  0  0  0  0  0
   18.7172  -22.7423    4.1942 N   0  0  0  0  0  0  0  0  0  0  0  0
   18.3307  -21.8012    5.2189 C   0  0  0  0  0  0  0  0  0  0  0  0
   18.0015  -20.4524    4.6251 C   0  0  0  0  0  0  0  0  0  0  0  0
   17.6902  -19.4183    5.6520 C   0  0  0  0  0  0  0  0  0  0  0  0
   17.3194  -18.1049    5.0587 C   0  0  2  0  0  0  0  0  0  0  0  0
   17.0966  -17.0381    5.9576 N   0  0  0  0  0  0  0  0  0  0  0  0
   16.2277  -18.2561    4.0454 C   0  0  0  0  0  0  0  0  0  0  0  0
   15.0460  -18.1046    4.4073 O   0  0  0  0  0  0  0  0  0  0  0  0
   16.4974  -18.5573    2.7292 O   0  0  0  0  0  0  0  0  0  0  0  0
  1  2  1  0
  3  2  1  0
  3  4  1  1
  5  3  1  0
  6  5  2  0
  7  5  1  0
  8  9  1  6
  8  7  1  0
 10  9  1  0
 11 10  1  0
 12 11  1  0
 13 12  1  0
 14  8  1  0
 15 14  2  0
 17 16  1  0
 17 19  1  0
 18 17  2  0
 20 19  1  0
 20 21  1  0
 21 22  1  0
 23 22  1  1
 23 24  1  0
 24 14  1  0
 25 23  1  0
 25 27  1  0
 26 25  2  0
M  END
$$$$
