YWW.pdb
     RDKit          3D

 41 45  0  0  1  0  0  0  0  0999 V2000
   21.5103  -18.9245  -19.6603 O   0  0  0  0  0  0  0  0  0  0  0  0
   22.2125  -19.5571  -18.6643 C   0  0  0  0  0  0  0  0  0  0  0  0
   22.1958  -20.9358  -18.5712 C   0  0  0  0  0  0  0  0  0  0  0  0
   22.9056  -21.5444  -17.5673 C   0  0  0  0  0  0  0  0  0  0  0  0
   23.6227  -20.8035  -16.6663 C   0  0  0  0  0  0  0  0  0  0  0  0
   24.3734  -21.4740  -15.6032 C   0  0  0  0  0  0  0  0  0  0  0  0
   25.8589  -21.1414  -15.8020 C   0  0  2  0  0  0  0  0  0  0  0  0
   26.3672  -21.9043  -16.9094 N   0  0  0  0  0  0  0  0  0  0  0  0
   26.5507  -21.5043  -14.5638 C   0  0  0  0  0  0  0  0  0  0  0  0
   26.7929  -22.7373  -14.3467 O   0  0  0  0  0  0  0  0  0  0  0  0
   23.6430  -19.4340  -16.7532 C   0  0  0  0  0  0  0  0  0  0  0  0
   22.9286  -18.8215  -17.7640 C   0  0  0  0  0  0  0  0  0  0  0  0
   26.9820  -20.6059  -13.5697 N   0  0  0  0  0  0  0  0  0  0  0  0
   27.7082  -21.0859  -12.4229 C   0  0  1  0  0  0  0  0  0  0  0  0
   28.9218  -20.3288  -12.0476 C   0  0  0  0  0  0  0  0  0  0  0  0
   30.0603  -21.0871  -11.5302 C   0  0  0  0  0  0  0  0  0  0  0  0
   30.8966  -21.9462  -12.2037 C   0  0  0  0  0  0  0  0  0  0  0  0
   31.7759  -22.3984  -11.2871 N   0  0  0  0  0  0  0  0  0  0  0  0
   31.5408  -21.8730  -10.0731 C   0  0  0  0  0  0  0  0  0  0  0  0
   32.1303  -22.0045   -8.8245 C   0  0  0  0  0  0  0  0  0  0  0  0
   31.6696  -21.3319   -7.7208 C   0  0  0  0  0  0  0  0  0  0  0  0
   30.5797  -20.4941   -7.8593 C   0  0  0  0  0  0  0  0  0  0  0  0
   29.9814  -20.3502   -9.0883 C   0  0  0  0  0  0  0  0  0  0  0  0
   30.4627  -21.0367  -10.1822 C   0  0  0  0  0  0  0  0  0  0  0  0
   26.7742  -21.0047  -11.2451 C   0  0  0  0  0  0  0  0  0  0  0  0
   25.8758  -20.1394  -11.2565 O   0  0  0  0  0  0  0  0  0  0  0  0
   26.8725  -21.8584  -10.1423 N   0  0  0  0  0  0  0  0  0  0  0  0
   25.9559  -21.7776   -8.9812 C   0  0  1  0  0  0  0  0  0  0  0  0
   26.8671  -21.8180   -7.7931 C   0  0  0  0  0  0  0  0  0  0  0  0
   27.1140  -20.5085   -7.1803 C   0  0  0  0  0  0  0  0  0  0  0  0
   26.6287  -19.2915   -7.6734 C   0  0  0  0  0  0  0  0  0  0  0  0
   27.0999  -18.3504   -6.8589 N   0  0  0  0  0  0  0  0  0  0  0  0
   27.8484  -18.8809   -5.8840 C   0  0  0  0  0  0  0  0  0  0  0  0
   28.5409  -18.3839   -4.7976 C   0  0  0  0  0  0  0  0  0  0  0  0
   29.2302  -19.1567   -3.9146 C   0  0  0  0  0  0  0  0  0  0  0  0
   29.2422  -20.5337   -4.1128 C   0  0  0  0  0  0  0  0  0  0  0  0
   28.5664  -21.0703   -5.1829 C   0  0  0  0  0  0  0  0  0  0  0  0
   27.8790  -20.2669   -6.0595 C   0  0  0  0  0  0  0  0  0  0  0  0
   25.1379  -20.5726   -9.0733 C   0  0  0  0  0  0  0  0  0  0  0  0
   25.5223  -19.4151   -9.7621 O   0  0  0  0  0  0  0  0  0  0  0  0
   23.9955  -20.5486   -8.4902 O   0  0  0  0  0  0  0  0  0  0  0  0
  2  1  1  0
  3  2  2  0
  4  3  1  0
  5  4  2  0
  5 11  1  0
  6  5  1  0
  7  6  1  0
  7  9  1  0
  7  8  1  6
  9 10  2  0
 11 12  2  0
 12  2  1  0
 13  9  1  0
 13 14  1  0
 14 25  1  0
 14 15  1  1
 16 15  1  0
 17 16  2  0
 18 17  1  0
 19 18  1  0
 19 24  2  0
 20 19  1  0
 21 20  2  0
 21 22  1  0
 22 23  2  0
 23 24  1  0
 24 16  1  0
 25 26  2  0
 27 25  1  0
 27 28  1  0
 28 29  1  1
 28 39  1  0
 30 29  1  0
 31 30  2  0
 32 31  1  0
 33 32  1  0
 33 38  2  0
 34 35  2  0
 34 33  1  0
 35 36  1  0
 36 37  2  0
 38 37  1  0
 38 30  1  0
 39 41  2  0
 39 40  1  0
M  END
$$$$
