YWW.pdb
     RDKit          3D

 41 45  0  0  1  0  0  0  0  0999 V2000
   29.5344  -16.0213  -18.8694 O   0  0  0  0  0  0  0  0  0  0  0  0
   28.9010  -16.7200  -17.8713 C   0  0  0  0  0  0  0  0  0  0  0  0
   29.3356  -16.6106  -16.5640 C   0  0  0  0  0  0  0  0  0  0  0  0
   28.6862  -17.3185  -15.5847 C   0  0  0  0  0  0  0  0  0  0  0  0
   27.6219  -18.1242  -15.8899 C   0  0  0  0  0  0  0  0  0  0  0  0
   26.9434  -18.8702  -14.8286 C   0  0  0  0  0  0  0  0  0  0  0  0
   27.9262  -19.9243  -14.2996 C   0  0  2  0  0  0  0  0  0  0  0  0
   28.1100  -20.9396  -15.3007 N   0  0  0  0  0  0  0  0  0  0  0  0
   27.3348  -20.4946  -13.0879 C   0  0  0  0  0  0  0  0  0  0  0  0
   26.3676  -21.3155  -13.2169 O   0  0  0  0  0  0  0  0  0  0  0  0
   27.1858  -18.2372  -17.1862 C   0  0  0  0  0  0  0  0  0  0  0  0
   27.8395  -17.5244  -18.1719 C   0  0  0  0  0  0  0  0  0  0  0  0
   27.7380  -20.2180  -11.7680 N   0  0  0  0  0  0  0  0  0  0  0  0
   27.0568  -20.8304  -10.6572 C   0  0  1  0  0  0  0  0  0  0  0  0
   27.7235  -20.7332   -9.3409 C   0  0  0  0  0  0  0  0  0  0  0  0
   26.8966  -20.9113   -8.1478 C   0  0  0  0  0  0  0  0  0  0  0  0
   25.6498  -21.4823   -8.0452 C   0  0  0  0  0  0  0  0  0  0  0  0
   25.3118  -21.3970   -6.7427 N   0  0  0  0  0  0  0  0  0  0  0  0
   26.2754  -20.8040   -6.0183 C   0  0  0  0  0  0  0  0  0  0  0  0
   26.4245  -20.4773   -4.6785 C   0  0  0  0  0  0  0  0  0  0  0  0
   27.5465  -19.8519   -4.1961 C   0  0  0  0  0  0  0  0  0  0  0  0
   28.5631  -19.5367   -5.0769 C   0  0  0  0  0  0  0  0  0  0  0  0
   28.4345  -19.8519   -6.4085 C   0  0  0  0  0  0  0  0  0  0  0  0
   27.2975  -20.4803   -6.8691 C   0  0  0  0  0  0  0  0  0  0  0  0
   25.7304  -20.1324  -10.5155 C   0  0  0  0  0  0  0  0  0  0  0  0
   25.7227  -18.8945  -10.3625 O   0  0  0  0  0  0  0  0  0  0  0  0
   24.5103  -20.8141  -10.5492 N   0  0  0  0  0  0  0  0  0  0  0  0
   23.2074  -20.1366  -10.3536 C   0  0  1  0  0  0  0  0  0  0  0  0
   23.0986  -19.2093  -11.5248 C   0  0  0  0  0  0  0  0  0  0  0  0
   22.3989  -19.7803  -12.6806 C   0  0  0  0  0  0  0  0  0  0  0  0
   21.0755  -20.2363  -12.6679 C   0  0  0  0  0  0  0  0  0  0  0  0
   20.8359  -20.7046  -13.8904 N   0  0  0  0  0  0  0  0  0  0  0  0
   21.9104  -20.5785  -14.6788 C   0  0  0  0  0  0  0  0  0  0  0  0
   22.2011  -20.8736  -15.9962 C   0  0  0  0  0  0  0  0  0  0  0  0
   23.4012  -20.6225  -16.5866 C   0  0  0  0  0  0  0  0  0  0  0  0
   24.4019  -20.0321  -15.8214 C   0  0  0  0  0  0  0  0  0  0  0  0
   24.1549  -19.7226  -14.5049 C   0  0  0  0  0  0  0  0  0  0  0  0
   22.9343  -19.9877  -13.9336 C   0  0  0  0  0  0  0  0  0  0  0  0
   22.1381  -21.1259  -10.2662 C   0  0  0  0  0  0  0  0  0  0  0  0
   20.9106  -20.8992   -9.6308 O   0  0  0  0  0  0  0  0  0  0  0  0
   22.3145  -22.2827  -10.7920 O   0  0  0  0  0  0  0  0  0  0  0  0
  2  1  1  0
  3  2  2  0
  4  3  1  0
  5  4  2  0
  5 11  1  0
  6  5  1  0
  7  6  1  0
  7  9  1  0
  7  8  1  6
  9 10  2  0
 11 12  2  0
 12  2  1  0
 13  9  1  0
 13 14  1  0
 14 25  1  0
 14 15  1  1
 16 15  1  0
 17 16  2  0
 18 17  1  0
 19 18  1  0
 19 24  2  0
 20 19  1  0
 21 20  2  0
 21 22  1  0
 22 23  2  0
 23 24  1  0
 24 16  1  0
 25 26  2  0
 27 25  1  0
 27 28  1  0
 28 29  1  6
 28 39  1  0
 30 29  1  0
 31 30  2  0
 32 31  1  0
 33 32  1  0
 33 38  2  0
 34 35  2  0
 34 33  1  0
 35 36  1  0
 36 37  2  0
 38 37  1  0
 38 30  1  0
 39 41  2  0
 39 40  1  0
M  END
$$$$
