YWW.pdb
     RDKit          3D

 41 45  0  0  1  0  0  0  0  0999 V2000
   20.1104   -8.0871  -19.8118 O   0  0  0  0  0  0  0  0  0  0  0  0
   19.3911   -9.2066  -19.4730 C   0  0  0  0  0  0  0  0  0  0  0  0
   18.0294   -9.1170  -19.2548 C   0  0  0  0  0  0  0  0  0  0  0  0
   17.3328  -10.2497  -18.9177 C   0  0  0  0  0  0  0  0  0  0  0  0
   17.9702  -11.4556  -18.7969 C   0  0  0  0  0  0  0  0  0  0  0  0
   17.2068  -12.6517  -18.4367 C   0  0  0  0  0  0  0  0  0  0  0  0
   17.1303  -13.5470  -19.6815 C   0  0  2  0  0  0  0  0  0  0  0  0
   16.2302  -12.9535  -20.6325 N   0  0  0  0  0  0  0  0  0  0  0  0
   16.6320  -14.8520  -19.2433 C   0  0  0  0  0  0  0  0  0  0  0  0
   15.3706  -15.0221  -19.1674 O   0  0  0  0  0  0  0  0  0  0  0  0
   19.3222  -11.5510  -19.0121 C   0  0  0  0  0  0  0  0  0  0  0  0
   20.0233  -10.4107  -19.3516 C   0  0  0  0  0  0  0  0  0  0  0  0
   17.4267  -15.9586  -18.8897 N   0  0  0  0  0  0  0  0  0  0  0  0
   16.8121  -17.1761  -18.4283 C   0  0  1  0  0  0  0  0  0  0  0  0
   16.3702  -18.1271  -19.4708 C   0  0  0  0  0  0  0  0  0  0  0  0
   17.1531  -18.1920  -20.7044 C   0  0  0  0  0  0  0  0  0  0  0  0
   18.5129  -18.0650  -20.8655 C   0  0  0  0  0  0  0  0  0  0  0  0
   18.7402  -18.1891  -22.1887 N   0  0  0  0  0  0  0  0  0  0  0  0
   17.6000  -18.3869  -22.8711 C   0  0  0  0  0  0  0  0  0  0  0  0
   17.2854  -18.5672  -24.2099 C   0  0  0  0  0  0  0  0  0  0  0  0
   15.9962  -18.7501  -24.6428 C   0  0  0  0  0  0  0  0  0  0  0  0
   14.9760  -18.7547  -23.7112 C   0  0  0  0  0  0  0  0  0  0  0  0
   15.2670  -18.5777  -22.3796 C   0  0  0  0  0  0  0  0  0  0  0  0
   16.5703  -18.3957  -21.9695 C   0  0  0  0  0  0  0  0  0  0  0  0
   17.8386  -17.9002  -17.5986 C   0  0  0  0  0  0  0  0  0  0  0  0
   19.0445  -17.6405  -17.7841 O   0  0  0  0  0  0  0  0  0  0  0  0
   17.4955  -18.8489  -16.6308 N   0  0  0  0  0  0  0  0  0  0  0  0
   18.5057  -19.6325  -15.8821 C   0  0  1  0  0  0  0  0  0  0  0  0
   18.9791  -18.6934  -14.8155 C   0  0  0  0  0  0  0  0  0  0  0  0
   19.9706  -19.2718  -13.9023 C   0  0  0  0  0  0  0  0  0  0  0  0
   21.3532  -19.0738  -13.9950 C   0  0  0  0  0  0  0  0  0  0  0  0
   21.8942  -19.7893  -13.0119 N   0  0  0  0  0  0  0  0  0  0  0  0
   20.9558  -20.4265  -12.3009 C   0  0  0  0  0  0  0  0  0  0  0  0
   20.9561  -21.2607  -11.2004 C   0  0  0  0  0  0  0  0  0  0  0  0
   19.8311  -21.7788  -10.6364 C   0  0  0  0  0  0  0  0  0  0  0  0
   18.6011  -21.4518  -11.1983 C   0  0  0  0  0  0  0  0  0  0  0  0
   18.5556  -20.6249  -12.2956 C   0  0  0  0  0  0  0  0  0  0  0  0
   19.7068  -20.1163  -12.8455 C   0  0  0  0  0  0  0  0  0  0  0  0
   17.9090  -20.8654  -15.3788 C   0  0  0  0  0  0  0  0  0  0  0  0
   18.5999  -22.0778  -15.2570 O   0  0  0  0  0  0  0  0  0  0  0  0
   16.6756  -20.8624  -15.0260 O   0  0  0  0  0  0  0  0  0  0  0  0
  2  1  1  0
  3  2  2  0
  4  3  1  0
  5  4  2  0
  5 11  1  0
  6  5  1  0
  7  6  1  0
  7  9  1  0
  7  8  1  6
  9 10  2  0
 11 12  2  0
 12  2  1  0
 13  9  1  0
 13 14  1  0
 14 25  1  0
 14 15  1  6
 16 15  1  0
 17 16  2  0
 18 17  1  0
 19 18  1  0
 19 24  2  0
 20 19  1  0
 21 20  2  0
 21 22  1  0
 22 23  2  0
 23 24  1  0
 24 16  1  0
 25 26  2  0
 27 25  1  0
 27 28  1  0
 28 29  1  1
 28 39  1  0
 30 29  1  0
 31 30  2  0
 32 31  1  0
 33 32  1  0
 33 38  2  0
 34 35  2  0
 34 33  1  0
 35 36  1  0
 36 37  2  0
 38 37  1  0
 38 30  1  0
 39 41  2  0
 39 40  1  0
M  END
$$$$
