YWW.pdb
     RDKit          3D

 41 45  0  0  1  0  0  0  0  0999 V2000
   22.3546  -26.1379  -19.9510 O   0  0  0  0  0  0  0  0  0  0  0  0
   23.2016  -25.6277  -18.9983 C   0  0  0  0  0  0  0  0  0  0  0  0
   24.5229  -26.0309  -18.9567 C   0  0  0  0  0  0  0  0  0  0  0  0
   25.3493  -25.5065  -17.9955 C   0  0  0  0  0  0  0  0  0  0  0  0
   24.8797  -24.5964  -17.0866 C   0  0  0  0  0  0  0  0  0  0  0  0
   25.7797  -24.0494  -16.0697 C   0  0  0  0  0  0  0  0  0  0  0  0
   26.1827  -22.6370  -16.5166 C   0  0  2  0  0  0  0  0  0  0  0  0
   27.2299  -22.7352  -17.4966 N   0  0  0  0  0  0  0  0  0  0  0  0
   26.6540  -21.9269  -15.3262 C   0  0  0  0  0  0  0  0  0  0  0  0
   27.8827  -22.0380  -15.0040 O   0  0  0  0  0  0  0  0  0  0  0  0
   23.5686  -24.1923  -17.1226 C   0  0  0  0  0  0  0  0  0  0  0  0
   22.7367  -24.7201  -18.0904 C   0  0  0  0  0  0  0  0  0  0  0  0
   25.8659  -21.1182  -14.4859 N   0  0  0  0  0  0  0  0  0  0  0  0
   26.4585  -20.4508  -13.3561 C   0  0  1  0  0  0  0  0  0  0  0  0
   26.3120  -18.9801  -13.3086 C   0  0  0  0  0  0  0  0  0  0  0  0
   26.6702  -18.2245  -14.5085 C   0  0  0  0  0  0  0  0  0  0  0  0
   25.8744  -17.4090  -15.2785 C   0  0  0  0  0  0  0  0  0  0  0  0
   26.6643  -16.9562  -16.2729 N   0  0  0  0  0  0  0  0  0  0  0  0
   27.9135  -17.4406  -16.1734 C   0  0  0  0  0  0  0  0  0  0  0  0
   29.0759  -17.2958  -16.9161 C   0  0  0  0  0  0  0  0  0  0  0  0
   30.2460  -17.9282  -16.5789 C   0  0  0  0  0  0  0  0  0  0  0  0
   30.2658  -18.7379  -15.4596 C   0  0  0  0  0  0  0  0  0  0  0  0
   29.1243  -18.8945  -14.7103 C   0  0  0  0  0  0  0  0  0  0  0  0
   27.9609  -18.2485  -15.0696 C   0  0  0  0  0  0  0  0  0  0  0  0
   25.7807  -20.9866  -12.1233 C   0  0  0  0  0  0  0  0  0  0  0  0
   24.6069  -21.3971  -12.2204 O   0  0  0  0  0  0  0  0  0  0  0  0
   26.4126  -21.0430  -10.8775 N   0  0  0  0  0  0  0  0  0  0  0  0
   25.7150  -21.4720   -9.6430 C   0  0  1  0  0  0  0  0  0  0  0  0
   26.8234  -21.7434   -8.6727 C   0  0  0  0  0  0  0  0  0  0  0  0
   27.2357  -20.5742   -7.8889 C   0  0  0  0  0  0  0  0  0  0  0  0
   26.7418  -19.2769   -8.0694 C   0  0  0  0  0  0  0  0  0  0  0  0
   27.3884  -18.5117   -7.1934 N   0  0  0  0  0  0  0  0  0  0  0  0
   28.2564  -19.2286   -6.4690 C   0  0  0  0  0  0  0  0  0  0  0  0
   29.1419  -18.9547   -5.4454 C   0  0  0  0  0  0  0  0  0  0  0  0
   29.9239  -19.8915   -4.8429 C   0  0  0  0  0  0  0  0  0  0  0  0
   29.8306  -21.2088   -5.2806 C   0  0  0  0  0  0  0  0  0  0  0  0
   28.9621  -21.5250   -6.2983 C   0  0  0  0  0  0  0  0  0  0  0  0
   28.1847  -20.5593   -6.8895 C   0  0  0  0  0  0  0  0  0  0  0  0
   24.7775  -20.4390   -9.2143 C   0  0  0  0  0  0  0  0  0  0  0  0
   23.6934  -20.6709   -8.3583 O   0  0  0  0  0  0  0  0  0  0  0  0
   24.9344  -19.2391   -9.6403 O   0  0  0  0  0  0  0  0  0  0  0  0
  2  1  1  0
  3  2  2  0
  4  3  1  0
  5  4  2  0
  5 11  1  0
  6  5  1  0
  7  6  1  0
  7  9  1  0
  7  8  1  6
  9 10  2  0
 11 12  2  0
 12  2  1  0
 13  9  1  0
 13 14  1  0
 14 25  1  0
 14 15  1  6
 16 15  1  0
 17 16  2  0
 18 17  1  0
 19 18  1  0
 19 24  2  0
 20 19  1  0
 21 20  2  0
 21 22  1  0
 22 23  2  0
 23 24  1  0
 24 16  1  0
 25 26  2  0
 27 25  1  0
 27 28  1  0
 28 29  1  1
 28 39  1  0
 30 29  1  0
 31 30  2  0
 32 31  1  0
 33 32  1  0
 33 38  2  0
 34 35  2  0
 34 33  1  0
 35 36  1  0
 36 37  2  0
 38 37  1  0
 38 30  1  0
 39 41  2  0
 39 40  1  0
M  END
$$$$
