YWW.pdb
     RDKit          3D

 41 45  0  0  1  0  0  0  0  0999 V2000
   30.8138  -17.8101  -19.2266 O   0  0  0  0  0  0  0  0  0  0  0  0
   30.0679  -17.8655  -18.0751 C   0  0  0  0  0  0  0  0  0  0  0  0
   29.9890  -19.0425  -17.3551 C   0  0  0  0  0  0  0  0  0  0  0  0
   29.2375  -19.0725  -16.2078 C   0  0  0  0  0  0  0  0  0  0  0  0
   28.5719  -17.9566  -15.7755 C   0  0  0  0  0  0  0  0  0  0  0  0
   27.7762  -18.0113  -14.5479 C   0  0  0  0  0  0  0  0  0  0  0  0
   26.6605  -19.0438  -14.7624 C   0  0  2  0  0  0  0  0  0  0  0  0
   25.7127  -18.5216  -15.7090 N   0  0  0  0  0  0  0  0  0  0  0  0
   26.0238  -19.2660  -13.4629 C   0  0  0  0  0  0  0  0  0  0  0  0
   25.3797  -18.3013  -12.9334 O   0  0  0  0  0  0  0  0  0  0  0  0
   28.6460  -16.7850  -16.4862 C   0  0  0  0  0  0  0  0  0  0  0  0
   29.4027  -16.7548  -17.6411 C   0  0  0  0  0  0  0  0  0  0  0  0
   26.0556  -20.4652  -12.7266 N   0  0  0  0  0  0  0  0  0  0  0  0
   25.3801  -20.5566  -11.4584 C   0  0  1  0  0  0  0  0  0  0  0  0
   24.2063  -21.4540  -11.4005 C   0  0  0  0  0  0  0  0  0  0  0  0
   23.0192  -21.0666  -12.1620 C   0  0  0  0  0  0  0  0  0  0  0  0
   22.7567  -21.2577  -13.4983 C   0  0  0  0  0  0  0  0  0  0  0  0
   21.5417  -20.7153  -13.7162 N   0  0  0  0  0  0  0  0  0  0  0  0
   21.0233  -20.1927  -12.5923 C   0  0  0  0  0  0  0  0  0  0  0  0
   19.8426  -19.5362  -12.2783 C   0  0  0  0  0  0  0  0  0  0  0  0
   19.5639  -19.0932  -11.0100 C   0  0  0  0  0  0  0  0  0  0  0  0
   20.4932  -19.3092  -10.0107 C   0  0  0  0  0  0  0  0  0  0  0  0
   21.6696  -19.9579  -10.3014 C   0  0  0  0  0  0  0  0  0  0  0  0
   21.9265  -20.3935  -11.5836 C   0  0  0  0  0  0  0  0  0  0  0  0
   26.3769  -21.0946  -10.4667 C   0  0  0  0  0  0  0  0  0  0  0  0
   27.4960  -21.4547  -10.8836 O   0  0  0  0  0  0  0  0  0  0  0  0
   26.0997  -21.2056   -9.1010 N   0  0  0  0  0  0  0  0  0  0  0  0
   27.1191  -21.6128   -8.1061 C   0  0  1  0  0  0  0  0  0  0  0  0
   28.1353  -20.5134   -8.1536 C   0  0  0  0  0  0  0  0  0  0  0  0
   27.9841  -19.5091   -7.0953 C   0  0  0  0  0  0  0  0  0  0  0  0
   27.4572  -18.2257   -7.2815 C   0  0  0  0  0  0  0  0  0  0  0  0
   27.5245  -17.6247   -6.0960 N   0  0  0  0  0  0  0  0  0  0  0  0
   28.0549  -18.4333   -5.1702 C   0  0  0  0  0  0  0  0  0  0  0  0
   28.3313  -18.3321   -3.8210 C   0  0  0  0  0  0  0  0  0  0  0  0
   28.8710  -19.3350   -3.0762 C   0  0  0  0  0  0  0  0  0  0  0  0
   29.1653  -20.5397   -3.7068 C   0  0  0  0  0  0  0  0  0  0  0  0
   28.9069  -20.6828   -5.0494 C   0  0  0  0  0  0  0  0  0  0  0  0
   28.3621  -19.6536   -5.7778 C   0  0  0  0  0  0  0  0  0  0  0  0
   26.4954  -21.8017   -6.8004 C   0  0  0  0  0  0  0  0  0  0  0  0
   27.0455  -22.5804   -5.7743 O   0  0  0  0  0  0  0  0  0  0  0  0
   25.3711  -21.2331   -6.5584 O   0  0  0  0  0  0  0  0  0  0  0  0
  2  1  1  0
  3  2  2  0
  4  3  1  0
  5  4  2  0
  5 11  1  0
  6  5  1  0
  7  6  1  0
  7  9  1  0
  7  8  1  6
  9 10  2  0
 11 12  2  0
 12  2  1  0
 13  9  1  0
 13 14  1  0
 14 25  1  0
 14 15  1  6
 16 15  1  0
 17 16  2  0
 18 17  1  0
 19 18  1  0
 19 24  2  0
 20 19  1  0
 21 20  2  0
 21 22  1  0
 22 23  2  0
 23 24  1  0
 24 16  1  0
 25 26  2  0
 27 25  1  0
 27 28  1  0
 28 29  1  1
 28 39  1  0
 30 29  1  0
 31 30  2  0
 32 31  1  0
 33 32  1  0
 33 38  2  0
 34 35  2  0
 34 33  1  0
 35 36  1  0
 36 37  2  0
 38 37  1  0
 38 30  1  0
 39 41  2  0
 39 40  1  0
M  END
$$$$
