YWW.pdb
     RDKit          3D

 41 45  0  0  1  0  0  0  0  0999 V2000
   38.3398  -25.6447  -21.4659 O   0  0  0  0  0  0  0  0  0  0  0  0
   36.9723  -25.7278  -21.3738 C   0  0  0  0  0  0  0  0  0  0  0  0
   36.3794  -26.1294  -20.1919 C   0  0  0  0  0  0  0  0  0  0  0  0
   35.0112  -26.2042  -20.1248 C   0  0  0  0  0  0  0  0  0  0  0  0
   34.2371  -25.8875  -21.2090 C   0  0  0  0  0  0  0  0  0  0  0  0
   32.7787  -25.9740  -21.1147 C   0  0  0  0  0  0  0  0  0  0  0  0
   32.3511  -27.3115  -21.7354 C   0  0  2  0  0  0  0  0  0  0  0  0
   32.4325  -27.2124  -23.1673 N   0  0  0  0  0  0  0  0  0  0  0  0
   30.9719  -27.5610  -21.3123 C   0  0  0  0  0  0  0  0  0  0  0  0
   30.0276  -27.0506  -22.0006 O   0  0  0  0  0  0  0  0  0  0  0  0
   34.8200  -25.4883  -22.3855 C   0  0  0  0  0  0  0  0  0  0  0  0
   36.1973  -25.4128  -22.4529 C   0  0  0  0  0  0  0  0  0  0  0  0
   30.5799  -28.3243  -20.1966 N   0  0  0  0  0  0  0  0  0  0  0  0
   29.4764  -29.2436  -20.2971 C   0  0  1  0  0  0  0  0  0  0  0  0
   29.5873  -30.2952  -21.3307 C   0  0  0  0  0  0  0  0  0  0  0  0
   28.4754  -30.4426  -22.2693 C   0  0  0  0  0  0  0  0  0  0  0  0
   27.6184  -29.4770  -22.7429 C   0  0  0  0  0  0  0  0  0  0  0  0
   26.7654  -30.1150  -23.5695 N   0  0  0  0  0  0  0  0  0  0  0  0
   27.0363  -31.4288  -23.6437 C   0  0  0  0  0  0  0  0  0  0  0  0
   26.4792  -32.5008  -24.3250 C   0  0  0  0  0  0  0  0  0  0  0  0
   26.9692  -33.7774  -24.2113 C   0  0  0  0  0  0  0  0  0  0  0  0
   28.0563  -34.0019  -23.3886 C   0  0  0  0  0  0  0  0  0  0  0  0
   28.6227  -32.9528  -22.7048 C   0  0  0  0  0  0  0  0  0  0  0  0
   28.1122  -31.6791  -22.8355 C   0  0  0  0  0  0  0  0  0  0  0  0
   29.3746  -29.9553  -18.9744 C   0  0  0  0  0  0  0  0  0  0  0  0
   30.3540  -30.6185  -18.5786 O   0  0  0  0  0  0  0  0  0  0  0  0
   28.2298  -29.9021  -18.1738 N   0  0  0  0  0  0  0  0  0  0  0  0
   28.1145  -30.6320  -16.8897 C   0  0  1  0  0  0  0  0  0  0  0  0
   26.8438  -30.1148  -16.2885 C   0  0  0  0  0  0  0  0  0  0  0  0
   25.6289  -30.7431  -16.8185 C   0  0  0  0  0  0  0  0  0  0  0  0
   25.4591  -32.1196  -17.0081 C   0  0  0  0  0  0  0  0  0  0  0  0
   24.2454  -32.2718  -17.5323 N   0  0  0  0  0  0  0  0  0  0  0  0
   23.6316  -31.0925  -17.6886 C   0  0  0  0  0  0  0  0  0  0  0  0
   22.3980  -30.6822  -18.1544 C   0  0  0  0  0  0  0  0  0  0  0  0
   21.9916  -29.3841  -18.1944 C   0  0  0  0  0  0  0  0  0  0  0  0
   22.8683  -28.4042  -17.7395 C   0  0  0  0  0  0  0  0  0  0  0  0
   24.1071  -28.7692  -17.2682 C   0  0  0  0  0  0  0  0  0  0  0  0
   24.4923  -30.0872  -17.2397 C   0  0  0  0  0  0  0  0  0  0  0  0
   28.1258  -32.0713  -17.1304 C   0  0  0  0  0  0  0  0  0  0  0  0
   28.3722  -33.0298  -16.1393 O   0  0  0  0  0  0  0  0  0  0  0  0
   27.9044  -32.5067  -18.3167 O   0  0  0  0  0  0  0  0  0  0  0  0
  2  1  1  0
  3  2  2  0
  4  3  1  0
  5  4  2  0
  5 11  1  0
  6  5  1  0
  7  6  1  0
  7  9  1  0
  7  8  1  6
  9 10  2  0
 11 12  2  0
 12  2  1  0
 13  9  1  0
 13 14  1  0
 14 25  1  0
 14 15  1  6
 16 15  1  0
 17 16  2  0
 18 17  1  0
 19 18  1  0
 19 24  2  0
 20 19  1  0
 21 20  2  0
 21 22  1  0
 22 23  2  0
 23 24  1  0
 24 16  1  0
 25 26  2  0
 27 25  1  0
 27 28  1  0
 28 29  1  6
 28 39  1  0
 30 29  1  0
 31 30  2  0
 32 31  1  0
 33 32  1  0
 33 38  2  0
 34 35  2  0
 34 33  1  0
 35 36  1  0
 36 37  2  0
 38 37  1  0
 38 30  1  0
 39 41  2  0
 39 40  1  0
M  END
$$$$
