YWW.pdb
     RDKit          3D

 41 45  0  0  1  0  0  0  0  0999 V2000
   16.1388  -18.4181  -16.3474 O   0  0  0  0  0  0  0  0  0  0  0  0
   17.0655  -19.0919  -15.5907 C   0  0  0  0  0  0  0  0  0  0  0  0
   18.3066  -18.5324  -15.3529 C   0  0  0  0  0  0  0  0  0  0  0  0
   19.2151  -19.2253  -14.5936 C   0  0  0  0  0  0  0  0  0  0  0  0
   18.9046  -20.4541  -14.0753 C   0  0  0  0  0  0  0  0  0  0  0  0
   19.8895  -21.1754  -13.2673 C   0  0  0  0  0  0  0  0  0  0  0  0
   21.0548  -21.5611  -14.1894 C   0  0  2  0  0  0  0  0  0  0  0  0
   20.6392  -22.6376  -15.0468 N   0  0  0  0  0  0  0  0  0  0  0  0
   22.1623  -21.9832  -13.3300 C   0  0  0  0  0  0  0  0  0  0  0  0
   22.1753  -23.1869  -12.9096 O   0  0  0  0  0  0  0  0  0  0  0  0
   17.6740  -21.0150  -14.3082 C   0  0  0  0  0  0  0  0  0  0  0  0
   16.7593  -20.3174  -15.0724 C   0  0  0  0  0  0  0  0  0  0  0  0
   23.2349  -21.1722  -12.9139 N   0  0  0  0  0  0  0  0  0  0  0  0
   24.3602  -21.7521  -12.2281 C   0  0  1  0  0  0  0  0  0  0  0  0
   25.6235  -21.8392  -12.9918 C   0  0  0  0  0  0  0  0  0  0  0  0
   26.0894  -20.6305  -13.6707 C   0  0  0  0  0  0  0  0  0  0  0  0
   25.3542  -19.5521  -14.1041 C   0  0  0  0  0  0  0  0  0  0  0  0
   26.2384  -18.7089  -14.6743 N   0  0  0  0  0  0  0  0  0  0  0  0
   27.4898  -19.1951  -14.6251 C   0  0  0  0  0  0  0  0  0  0  0  0
   28.7279  -18.7422  -15.0562 C   0  0  0  0  0  0  0  0  0  0  0  0
   29.8789  -19.4663  -14.8729 C   0  0  0  0  0  0  0  0  0  0  0  0
   29.8007  -20.6900  -14.2362 C   0  0  0  0  0  0  0  0  0  0  0  0
   28.5830  -21.1565  -13.8016 C   0  0  0  0  0  0  0  0  0  0  0  0
   27.4408  -20.4105  -13.9975 C   0  0  0  0  0  0  0  0  0  0  0  0
   24.6438  -20.8812  -11.0334 C   0  0  0  0  0  0  0  0  0  0  0  0
   24.2022  -19.7147  -11.0290 O   0  0  0  0  0  0  0  0  0  0  0  0
   25.3797  -21.3265   -9.9312 N   0  0  0  0  0  0  0  0  0  0  0  0
   25.8140  -20.4244   -8.8393 C   0  0  1  0  0  0  0  0  0  0  0  0
   26.3615  -21.3501   -7.7968 C   0  0  0  0  0  0  0  0  0  0  0  0
   26.8981  -20.6714   -6.6123 C   0  0  0  0  0  0  0  0  0  0  0  0
   26.1822  -19.7706   -5.8150 C   0  0  0  0  0  0  0  0  0  0  0  0
   27.0286  -19.3587   -4.8742 N   0  0  0  0  0  0  0  0  0  0  0  0
   28.2296  -19.9330   -5.0154 C   0  0  0  0  0  0  0  0  0  0  0  0
   29.4286  -19.8813   -4.3321 C   0  0  0  0  0  0  0  0  0  0  0  0
   30.5327  -20.5992   -4.6747 C   0  0  0  0  0  0  0  0  0  0  0  0
   30.4560  -21.4392   -5.7811 C   0  0  0  0  0  0  0  0  0  0  0  0
   29.2812  -21.5199   -6.4906 C   0  0  0  0  0  0  0  0  0  0  0  0
   28.1817  -20.7835   -6.1232 C   0  0  0  0  0  0  0  0  0  0  0  0
   26.7761  -19.4519   -9.3476 C   0  0  0  0  0  0  0  0  0  0  0  0
   26.7579  -18.0891   -9.0249 O   0  0  0  0  0  0  0  0  0  0  0  0
   27.7001  -19.8473  -10.1450 O   0  0  0  0  0  0  0  0  0  0  0  0
  2  1  1  0
  3  2  2  0
  4  3  1  0
  5  4  2  0
  5 11  1  0
  6  5  1  0
  7  6  1  0
  7  9  1  0
  7  8  1  6
  9 10  2  0
 11 12  2  0
 12  2  1  0
 13  9  1  0
 13 14  1  0
 14 25  1  0
 14 15  1  6
 16 15  1  0
 17 16  2  0
 18 17  1  0
 19 18  1  0
 19 24  2  0
 20 19  1  0
 21 20  2  0
 21 22  1  0
 22 23  2  0
 23 24  1  0
 24 16  1  0
 25 26  2  0
 27 25  1  0
 27 28  1  0
 28 29  1  1
 28 39  1  0
 30 29  1  0
 31 30  2  0
 32 31  1  0
 33 32  1  0
 33 38  2  0
 34 35  2  0
 34 33  1  0
 35 36  1  0
 36 37  2  0
 38 37  1  0
 38 30  1  0
 39 41  2  0
 39 40  1  0
M  END
$$$$
