YWW.pdb
     RDKit          3D

 41 45  0  0  1  0  0  0  0  0999 V2000
   31.2358  -17.6795  -19.9024 O   0  0  0  0  0  0  0  0  0  0  0  0
   30.3818  -18.1904  -18.9564 C   0  0  0  0  0  0  0  0  0  0  0  0
   30.5083  -17.8153  -17.6323 C   0  0  0  0  0  0  0  0  0  0  0  0
   29.6428  -18.3394  -16.7059 C   0  0  0  0  0  0  0  0  0  0  0  0
   28.6650  -19.2221  -17.0796 C   0  0  0  0  0  0  0  0  0  0  0  0
   27.7519  -19.7685  -16.0741 C   0  0  0  0  0  0  0  0  0  0  0  0
   28.4800  -20.9154  -15.3590 C   0  0  2  0  0  0  0  0  0  0  0  0
   28.4823  -22.0738  -16.2103 N   0  0  0  0  0  0  0  0  0  0  0  0
   27.7466  -21.1854  -14.1210 C   0  0  0  0  0  0  0  0  0  0  0  0
   26.6620  -21.8517  -14.1950 O   0  0  0  0  0  0  0  0  0  0  0  0
   28.5345  -19.5987  -18.3928 C   0  0  0  0  0  0  0  0  0  0  0  0
   29.4057  -19.0709  -19.3253 C   0  0  0  0  0  0  0  0  0  0  0  0
   28.1302  -20.7714  -12.8316 N   0  0  0  0  0  0  0  0  0  0  0  0
   27.3323  -21.1274  -11.6872 C   0  0  1  0  0  0  0  0  0  0  0  0
   27.9426  -20.8950  -10.3606 C   0  0  0  0  0  0  0  0  0  0  0  0
   27.0443  -20.7828   -9.2119 C   0  0  0  0  0  0  0  0  0  0  0  0
   25.7049  -21.0852   -9.1371 C   0  0  0  0  0  0  0  0  0  0  0  0
   25.3331  -20.8004   -7.8728 N   0  0  0  0  0  0  0  0  0  0  0  0
   26.3628  -20.3350   -7.1461 C   0  0  0  0  0  0  0  0  0  0  0  0
   26.5145  -19.9062   -5.8358 C   0  0  0  0  0  0  0  0  0  0  0  0
   27.7166  -19.4653   -5.3424 C   0  0  0  0  0  0  0  0  0  0  0  0
   28.8141  -19.4484   -6.1814 C   0  0  0  0  0  0  0  0  0  0  0  0
   28.6844  -19.8693   -7.4834 C   0  0  0  0  0  0  0  0  0  0  0  0
   27.4661  -20.3078   -7.9557 C   0  0  0  0  0  0  0  0  0  0  0  0
   26.0881  -20.2814  -11.7380 C   0  0  0  0  0  0  0  0  0  0  0  0
   26.2127  -19.0465  -11.8620 O   0  0  0  0  0  0  0  0  0  0  0  0
   24.8020  -20.8229  -11.6526 N   0  0  0  0  0  0  0  0  0  0  0  0
   23.5845  -20.0587  -12.0115 C   0  0  1  0  0  0  0  0  0  0  0  0
   23.7693  -19.7381  -13.4629 C   0  0  0  0  0  0  0  0  0  0  0  0
   22.6109  -19.0904  -14.0875 C   0  0  0  0  0  0  0  0  0  0  0  0
   22.0709  -17.8622  -13.6881 C   0  0  0  0  0  0  0  0  0  0  0  0
   21.0210  -17.6478  -14.4774 N   0  0  0  0  0  0  0  0  0  0  0  0
   20.8554  -18.6498  -15.3495 C   0  0  0  0  0  0  0  0  0  0  0  0
   19.9682  -18.9250  -16.3713 C   0  0  0  0  0  0  0  0  0  0  0  0
   20.0250  -20.0392  -17.1506 C   0  0  0  0  0  0  0  0  0  0  0  0
   21.0371  -20.9626  -16.9083 C   0  0  0  0  0  0  0  0  0  0  0  0
   21.9413  -20.7280  -15.8997 C   0  0  0  0  0  0  0  0  0  0  0  0
   21.8604  -19.5951  -15.1274 C   0  0  0  0  0  0  0  0  0  0  0  0
   22.3936  -20.8483  -11.7150 C   0  0  0  0  0  0  0  0  0  0  0  0
   21.1351  -20.2967  -11.4433 O   0  0  0  0  0  0  0  0  0  0  0  0
   22.4840  -22.1278  -11.6912 O   0  0  0  0  0  0  0  0  0  0  0  0
  2  1  1  0
  3  2  2  0
  4  3  1  0
  5  4  2  0
  5 11  1  0
  6  5  1  0
  7  6  1  0
  7  9  1  0
  7  8  1  6
  9 10  2  0
 11 12  2  0
 12  2  1  0
 13  9  1  0
 13 14  1  0
 14 25  1  0
 14 15  1  1
 16 15  1  0
 17 16  2  0
 18 17  1  0
 19 18  1  0
 19 24  2  0
 20 19  1  0
 21 20  2  0
 21 22  1  0
 22 23  2  0
 23 24  1  0
 24 16  1  0
 25 26  2  0
 27 25  1  0
 27 28  1  0
 28 29  1  6
 28 39  1  0
 30 29  1  0
 31 30  2  0
 32 31  1  0
 33 32  1  0
 33 38  2  0
 34 35  2  0
 34 33  1  0
 35 36  1  0
 36 37  2  0
 38 37  1  0
 38 30  1  0
 39 41  2  0
 39 40  1  0
M  END
$$$$
