YWW.pdb
     RDKit          3D

 41 45  0  0  1  0  0  0  0  0999 V2000
   29.3173  -16.7995  -18.8670 O   0  0  0  0  0  0  0  0  0  0  0  0
   28.6437  -17.4647  -17.8724 C   0  0  0  0  0  0  0  0  0  0  0  0
   29.0221  -17.3073  -16.5526 C   0  0  0  0  0  0  0  0  0  0  0  0
   28.3333  -17.9825  -15.5771 C   0  0  0  0  0  0  0  0  0  0  0  0
   27.2849  -18.8027  -15.8982 C   0  0  0  0  0  0  0  0  0  0  0  0
   26.5636  -19.5131  -14.8407 C   0  0  0  0  0  0  0  0  0  0  0  0
   27.4808  -20.6291  -14.3210 C   0  0  2  0  0  0  0  0  0  0  0  0
   27.4291  -21.7414  -15.2303 N   0  0  0  0  0  0  0  0  0  0  0  0
   26.9810  -21.0173  -13.0008 C   0  0  0  0  0  0  0  0  0  0  0  0
   26.0618  -21.8988  -12.9386 O   0  0  0  0  0  0  0  0  0  0  0  0
   26.9045  -18.9633  -17.2069 C   0  0  0  0  0  0  0  0  0  0  0  0
   27.5978  -18.2834  -18.1889 C   0  0  0  0  0  0  0  0  0  0  0  0
   27.4253  -20.5005  -11.7693 N   0  0  0  0  0  0  0  0  0  0  0  0
   26.7847  -20.8964  -10.5421 C   0  0  1  0  0  0  0  0  0  0  0  0
   27.5092  -20.5862   -9.2910 C   0  0  0  0  0  0  0  0  0  0  0  0
   26.7857  -20.7504   -8.0306 C   0  0  0  0  0  0  0  0  0  0  0  0
   25.5227  -21.2541   -7.8255 C   0  0  0  0  0  0  0  0  0  0  0  0
   25.3104  -21.1856   -6.4958 N   0  0  0  0  0  0  0  0  0  0  0  0
   26.3686  -20.6668   -5.8508 C   0  0  0  0  0  0  0  0  0  0  0  0
   26.6580  -20.3854   -4.5238 C   0  0  0  0  0  0  0  0  0  0  0  0
   27.8534  -19.8364   -4.1338 C   0  0  0  0  0  0  0  0  0  0  0  0
   28.8020  -19.5542   -5.0979 C   0  0  0  0  0  0  0  0  0  0  0  0
   28.5344  -19.8256   -6.4185 C   0  0  0  0  0  0  0  0  0  0  0  0
   27.3258  -20.3773   -6.7854 C   0  0  0  0  0  0  0  0  0  0  0  0
   25.4754  -20.1570  -10.4708 C   0  0  0  0  0  0  0  0  0  0  0  0
   25.4952  -18.9336  -10.2280 O   0  0  0  0  0  0  0  0  0  0  0  0
   24.2414  -20.7845  -10.6662 N   0  0  0  0  0  0  0  0  0  0  0  0
   22.9533  -20.0543  -10.6155 C   0  0  1  0  0  0  0  0  0  0  0  0
   23.0772  -19.0201  -11.6918 C   0  0  0  0  0  0  0  0  0  0  0  0
   22.8589  -19.5347  -13.0479 C   0  0  0  0  0  0  0  0  0  0  0  0
   21.9388  -20.5346  -13.3842 C   0  0  0  0  0  0  0  0  0  0  0  0
   22.0735  -20.7334  -14.6932 N   0  0  0  0  0  0  0  0  0  0  0  0
   23.0114  -19.9320  -15.2129 C   0  0  0  0  0  0  0  0  0  0  0  0
   23.5277  -19.7155  -16.4753 C   0  0  0  0  0  0  0  0  0  0  0  0
   24.4945  -18.8001  -16.7567 C   0  0  0  0  0  0  0  0  0  0  0  0
   24.9989  -18.0314  -15.7125 C   0  0  0  0  0  0  0  0  0  0  0  0
   24.5134  -18.2155  -14.4395 C   0  0  0  0  0  0  0  0  0  0  0  0
   23.5375  -19.1473  -14.1832 C   0  0  0  0  0  0  0  0  0  0  0  0
   21.8441  -20.9849  -10.7979 C   0  0  0  0  0  0  0  0  0  0  0  0
   21.9915  -22.2994  -11.2586 O   0  0  0  0  0  0  0  0  0  0  0  0
   20.6518  -20.5935  -10.5313 O   0  0  0  0  0  0  0  0  0  0  0  0
  2  1  1  0
  3  2  2  0
  4  3  1  0
  5  4  2  0
  5 11  1  0
  6  5  1  0
  7  6  1  0
  7  9  1  0
  7  8  1  6
  9 10  2  0
 11 12  2  0
 12  2  1  0
 13  9  1  0
 13 14  1  0
 14 25  1  0
 14 15  1  1
 16 15  1  0
 17 16  2  0
 18 17  1  0
 19 18  1  0
 19 24  2  0
 20 19  1  0
 21 20  2  0
 21 22  1  0
 22 23  2  0
 23 24  1  0
 24 16  1  0
 25 26  2  0
 27 25  1  0
 27 28  1  0
 28 29  1  6
 28 39  1  0
 30 29  1  0
 31 30  2  0
 32 31  1  0
 33 32  1  0
 33 38  2  0
 34 35  2  0
 34 33  1  0
 35 36  1  0
 36 37  2  0
 38 37  1  0
 38 30  1  0
 39 41  2  0
 39 40  1  0
M  END
$$$$
