YWW.pdb
     RDKit          3D

 41 45  0  0  1  0  0  0  0  0999 V2000
   29.2495  -16.9072  -17.6958 O   0  0  0  0  0  0  0  0  0  0  0  0
   28.5415  -17.5500  -16.7105 C   0  0  0  0  0  0  0  0  0  0  0  0
   27.9371  -18.7653  -16.9703 C   0  0  0  0  0  0  0  0  0  0  0  0
   27.2355  -19.3879  -15.9693 C   0  0  0  0  0  0  0  0  0  0  0  0
   27.1305  -18.8199  -14.7279 C   0  0  0  0  0  0  0  0  0  0  0  0
   26.3772  -19.5023  -13.6743 C   0  0  0  0  0  0  0  0  0  0  0  0
   27.3439  -20.4506  -12.9510 C   0  0  2  0  0  0  0  0  0  0  0  0
   27.8354  -21.4245  -13.8874 N   0  0  0  0  0  0  0  0  0  0  0  0
   26.5880  -21.1003  -11.8787 C   0  0  0  0  0  0  0  0  0  0  0  0
   25.8289  -22.0787  -12.1825 O   0  0  0  0  0  0  0  0  0  0  0  0
   27.7281  -17.6130  -14.4637 C   0  0  0  0  0  0  0  0  0  0  0  0
   28.4346  -16.9864  -15.4714 C   0  0  0  0  0  0  0  0  0  0  0  0
   26.6182  -20.7415  -10.5180 N   0  0  0  0  0  0  0  0  0  0  0  0
   25.7785  -21.4240   -9.5683 C   0  0  1  0  0  0  0  0  0  0  0  0
   26.1983  -21.3591   -8.1519 C   0  0  0  0  0  0  0  0  0  0  0  0
   26.9110  -20.1605   -7.7108 C   0  0  0  0  0  0  0  0  0  0  0  0
   26.8747  -18.8946   -8.2466 C   0  0  0  0  0  0  0  0  0  0  0  0
   27.7098  -18.1515   -7.4927 N   0  0  0  0  0  0  0  0  0  0  0  0
   28.2709  -18.8780   -6.5117 C   0  0  0  0  0  0  0  0  0  0  0  0
   29.1745  -18.6073   -5.4948 C   0  0  0  0  0  0  0  0  0  0  0  0
   29.5909  -19.5680   -4.6080 C   0  0  0  0  0  0  0  0  0  0  0  0
   29.0918  -20.8502   -4.7334 C   0  0  0  0  0  0  0  0  0  0  0  0
   28.1955  -21.1387   -5.7346 C   0  0  0  0  0  0  0  0  0  0  0  0
   27.7924  -20.1563   -6.6133 C   0  0  0  0  0  0  0  0  0  0  0  0
   24.4197  -20.7799   -9.6399 C   0  0  0  0  0  0  0  0  0  0  0  0
   24.2916  -19.6123   -9.2203 O   0  0  0  0  0  0  0  0  0  0  0  0
   23.2987  -21.4360  -10.1572 N   0  0  0  0  0  0  0  0  0  0  0  0
   22.1040  -20.7133  -10.6525 C   0  0  1  0  0  0  0  0  0  0  0  0
   22.6511  -19.7533  -11.6637 C   0  0  0  0  0  0  0  0  0  0  0  0
   21.6304  -18.9439  -12.3378 C   0  0  0  0  0  0  0  0  0  0  0  0
   20.7450  -18.0739  -11.6906 C   0  0  0  0  0  0  0  0  0  0  0  0
   19.9679  -17.5641  -12.6432 N   0  0  0  0  0  0  0  0  0  0  0  0
   20.2956  -18.0463  -13.8482 C   0  0  0  0  0  0  0  0  0  0  0  0
   19.8450  -17.8515  -15.1389 C   0  0  0  0  0  0  0  0  0  0  0  0
   20.3745  -18.4656  -16.2319 C   0  0  0  0  0  0  0  0  0  0  0  0
   21.4356  -19.3456  -16.0446 C   0  0  0  0  0  0  0  0  0  0  0  0
   21.9147  -19.5692  -14.7756 C   0  0  0  0  0  0  0  0  0  0  0  0
   21.3611  -18.9364  -13.6895 C   0  0  0  0  0  0  0  0  0  0  0  0
   21.1318  -21.6620  -11.1858 C   0  0  0  0  0  0  0  0  0  0  0  0
   21.4629  -22.7400  -12.0166 O   0  0  0  0  0  0  0  0  0  0  0  0
   19.8915  -21.5147  -10.8927 O   0  0  0  0  0  0  0  0  0  0  0  0
  2  1  1  0
  3  2  2  0
  4  3  1  0
  5  4  2  0
  5 11  1  0
  6  5  1  0
  7  6  1  0
  7  9  1  0
  7  8  1  6
  9 10  2  0
 11 12  2  0
 12  2  1  0
 13  9  1  0
 13 14  1  0
 14 25  1  0
 14 15  1  1
 16 15  1  0
 17 16  2  0
 18 17  1  0
 19 18  1  0
 19 24  2  0
 20 19  1  0
 21 20  2  0
 21 22  1  0
 22 23  2  0
 23 24  1  0
 24 16  1  0
 25 26  2  0
 27 25  1  0
 27 28  1  0
 28 29  1  6
 28 39  1  0
 30 29  1  0
 31 30  2  0
 32 31  1  0
 33 32  1  0
 33 38  2  0
 34 35  2  0
 34 33  1  0
 35 36  1  0
 36 37  2  0
 38 37  1  0
 38 30  1  0
 39 41  2  0
 39 40  1  0
M  END
$$$$
