YWW.pdb
     RDKit          3D

 41 45  0  0  1  0  0  0  0  0999 V2000
   29.0393  -17.9093  -21.2771 O   0  0  0  0  0  0  0  0  0  0  0  0
   28.1424  -18.1672  -20.2698 C   0  0  0  0  0  0  0  0  0  0  0  0
   26.9021  -18.7006  -20.5646 C   0  0  0  0  0  0  0  0  0  0  0  0
   26.0236  -18.9495  -19.5407 C   0  0  0  0  0  0  0  0  0  0  0  0
   26.3631  -18.6759  -18.2427 C   0  0  0  0  0  0  0  0  0  0  0  0
   25.4101  -18.9501  -17.1657 C   0  0  0  0  0  0  0  0  0  0  0  0
   26.1696  -19.6754  -16.0460 C   0  0  2  0  0  0  0  0  0  0  0  0
   26.6671  -20.9266  -16.5498 N   0  0  0  0  0  0  0  0  0  0  0  0
   25.2187  -19.8990  -14.9556 C   0  0  0  0  0  0  0  0  0  0  0  0
   24.5829  -18.8949  -14.4937 O   0  0  0  0  0  0  0  0  0  0  0  0
   27.5932  -18.1459  -17.9436 C   0  0  0  0  0  0  0  0  0  0  0  0
   28.4775  -17.8956  -18.9743 C   0  0  0  0  0  0  0  0  0  0  0  0
   24.9336  -21.1398  -14.3552 N   0  0  0  0  0  0  0  0  0  0  0  0
   24.3053  -21.1929  -13.0608 C   0  0  1  0  0  0  0  0  0  0  0  0
   24.9702  -20.4415  -11.9746 C   0  0  0  0  0  0  0  0  0  0  0  0
   26.2748  -20.9210  -11.5193 C   0  0  0  0  0  0  0  0  0  0  0  0
   26.5737  -22.0759  -10.8353 C   0  0  0  0  0  0  0  0  0  0  0  0
   27.9077  -22.0539  -10.6407 N   0  0  0  0  0  0  0  0  0  0  0  0
   28.4668  -20.9498  -11.1634 C   0  0  0  0  0  0  0  0  0  0  0  0
   29.7599  -20.4531  -11.2334 C   0  0  0  0  0  0  0  0  0  0  0  0
   30.0559  -19.2599  -11.8428 C   0  0  0  0  0  0  0  0  0  0  0  0
   29.0285  -18.5279  -12.4064 C   0  0  0  0  0  0  0  0  0  0  0  0
   27.7401  -19.0029  -12.3475 C   0  0  0  0  0  0  0  0  0  0  0  0
   27.4681  -20.2045  -11.7296 C   0  0  0  0  0  0  0  0  0  0  0  0
   22.9320  -20.5953  -13.2135 C   0  0  0  0  0  0  0  0  0  0  0  0
   22.3224  -20.2346  -12.1868 O   0  0  0  0  0  0  0  0  0  0  0  0
   22.3145  -20.4280  -14.4566 N   0  0  0  0  0  0  0  0  0  0  0  0
   20.9143  -19.9662  -14.6010 C   0  0  1  0  0  0  0  0  0  0  0  0
   21.0011  -18.8383  -15.5826 C   0  0  0  0  0  0  0  0  0  0  0  0
   19.8265  -17.9599  -15.5944 C   0  0  0  0  0  0  0  0  0  0  0  0
   18.7630  -18.0362  -14.6874 C   0  0  0  0  0  0  0  0  0  0  0  0
   17.8951  -17.0978  -15.0581 N   0  0  0  0  0  0  0  0  0  0  0  0
   18.3303  -16.4305  -16.1339 C   0  0  0  0  0  0  0  0  0  0  0  0
   17.8540  -15.3840  -16.8987 C   0  0  0  0  0  0  0  0  0  0  0  0
   18.5150  -14.8566  -17.9649 C   0  0  0  0  0  0  0  0  0  0  0  0
   19.7476  -15.4006  -18.3116 C   0  0  0  0  0  0  0  0  0  0  0  0
   20.2584  -16.4445  -17.5772 C   0  0  0  0  0  0  0  0  0  0  0  0
   19.5696  -16.9584  -16.5057 C   0  0  0  0  0  0  0  0  0  0  0  0
   20.0646  -21.0732  -15.0278 C   0  0  0  0  0  0  0  0  0  0  0  0
   20.3034  -21.8498  -16.1688 O   0  0  0  0  0  0  0  0  0  0  0  0
   19.0269  -21.3666  -14.3329 O   0  0  0  0  0  0  0  0  0  0  0  0
  2  1  1  0
  3  2  2  0
  4  3  1  0
  5  4  2  0
  5 11  1  0
  6  5  1  0
  7  6  1  0
  7  9  1  0
  7  8  1  6
  9 10  2  0
 11 12  2  0
 12  2  1  0
 13  9  1  0
 13 14  1  0
 14 25  1  0
 14 15  1  1
 16 15  1  0
 17 16  2  0
 18 17  1  0
 19 18  1  0
 19 24  2  0
 20 19  1  0
 21 20  2  0
 21 22  1  0
 22 23  2  0
 23 24  1  0
 24 16  1  0
 25 26  2  0
 27 25  1  0
 27 28  1  0
 28 29  1  6
 28 39  1  0
 30 29  1  0
 31 30  2  0
 32 31  1  0
 33 32  1  0
 33 38  2  0
 34 35  2  0
 34 33  1  0
 35 36  1  0
 36 37  2  0
 38 37  1  0
 38 30  1  0
 39 41  2  0
 39 40  1  0
M  END
$$$$
