YWW.pdb
     RDKit          3D

 41 45  0  0  1  0  0  0  0  0999 V2000
   35.0147  -25.5691  -14.3748 O   0  0  0  0  0  0  0  0  0  0  0  0
   35.5845  -26.6723  -14.9611 C   0  0  0  0  0  0  0  0  0  0  0  0
   35.5293  -27.9003  -14.3296 C   0  0  0  0  0  0  0  0  0  0  0  0
   36.1059  -28.9876  -14.9358 C   0  0  0  0  0  0  0  0  0  0  0  0
   36.7292  -28.8661  -16.1490 C   0  0  0  0  0  0  0  0  0  0  0  0
   37.3373  -30.0400  -16.7778 C   0  0  0  0  0  0  0  0  0  0  0  0
   38.6492  -30.3368  -16.0379 C   0  0  2  0  0  0  0  0  0  0  0  0
   39.6560  -29.4086  -16.4757 N   0  0  0  0  0  0  0  0  0  0  0  0
   39.0315  -31.7097  -16.3731 C   0  0  0  0  0  0  0  0  0  0  0  0
   39.8179  -31.8935  -17.3598 O   0  0  0  0  0  0  0  0  0  0  0  0
   36.7875  -27.6493  -16.7809 C   0  0  0  0  0  0  0  0  0  0  0  0
   36.2069  -26.5549  -16.1707 C   0  0  0  0  0  0  0  0  0  0  0  0
   38.6055  -32.8693  -15.6986 N   0  0  0  0  0  0  0  0  0  0  0  0
   39.0886  -34.1638  -16.1037 C   0  0  1  0  0  0  0  0  0  0  0  0
   39.2330  -35.1766  -15.0361 C   0  0  0  0  0  0  0  0  0  0  0  0
   40.4080  -35.0853  -14.1700 C   0  0  0  0  0  0  0  0  0  0  0  0
   41.5025  -34.2619  -14.2926 C   0  0  0  0  0  0  0  0  0  0  0  0
   42.3099  -34.5658  -13.2564 N   0  0  0  0  0  0  0  0  0  0  0  0
   41.7860  -35.5349  -12.4874 C   0  0  0  0  0  0  0  0  0  0  0  0
   42.1972  -36.1960  -11.3395 C   0  0  0  0  0  0  0  0  0  0  0  0
   41.4430  -37.1778  -10.7479 C   0  0  0  0  0  0  0  0  0  0  0  0
   40.2311  -37.5193  -11.3167 C   0  0  0  0  0  0  0  0  0  0  0  0
   39.8058  -36.8759  -12.4544 C   0  0  0  0  0  0  0  0  0  0  0  0
   40.5815  -35.8928  -13.0301 C   0  0  0  0  0  0  0  0  0  0  0  0
   38.0908  -34.7184  -17.0851 C   0  0  0  0  0  0  0  0  0  0  0  0
   36.9315  -34.2583  -17.0794 O   0  0  0  0  0  0  0  0  0  0  0  0
   38.4109  -35.7253  -18.0007 N   0  0  0  0  0  0  0  0  0  0  0  0
   37.4233  -36.2898  -18.9498 C   0  0  1  0  0  0  0  0  0  0  0  0
   37.9878  -35.9672  -20.2992 C   0  0  0  0  0  0  0  0  0  0  0  0
   37.1945  -36.4806  -21.4210 C   0  0  0  0  0  0  0  0  0  0  0  0
   35.9850  -35.9307  -21.8618 C   0  0  0  0  0  0  0  0  0  0  0  0
   35.5751  -36.7008  -22.8668 N   0  0  0  0  0  0  0  0  0  0  0  0
   36.4366  -37.6993  -23.0970 C   0  0  0  0  0  0  0  0  0  0  0  0
   36.5116  -38.7424  -23.9988 C   0  0  0  0  0  0  0  0  0  0  0  0
   37.5333  -39.6404  -24.0423 C   0  0  0  0  0  0  0  0  0  0  0  0
   38.5698  -39.5051  -23.1242 C   0  0  0  0  0  0  0  0  0  0  0  0
   38.5342  -38.4807  -22.2080 C   0  0  0  0  0  0  0  0  0  0  0  0
   37.4902  -37.5884  -22.1857 C   0  0  0  0  0  0  0  0  0  0  0  0
   37.2450  -37.7158  -18.6959 C   0  0  0  0  0  0  0  0  0  0  0  0
   36.0850  -38.4307  -19.0203 O   0  0  0  0  0  0  0  0  0  0  0  0
   38.1944  -38.3729  -18.1367 O   0  0  0  0  0  0  0  0  0  0  0  0
  2  1  1  0
  3  2  2  0
  4  3  1  0
  5  4  2  0
  5 11  1  0
  6  5  1  0
  7  6  1  0
  7  9  1  0
  7  8  1  6
  9 10  2  0
 11 12  2  0
 12  2  1  0
 13  9  1  0
 13 14  1  0
 14 25  1  0
 14 15  1  1
 16 15  1  0
 17 16  2  0
 18 17  1  0
 19 18  1  0
 19 24  2  0
 20 19  1  0
 21 20  2  0
 21 22  1  0
 22 23  2  0
 23 24  1  0
 24 16  1  0
 25 26  2  0
 27 25  1  0
 27 28  1  0
 28 29  1  6
 28 39  1  0
 30 29  1  0
 31 30  2  0
 32 31  1  0
 33 32  1  0
 33 38  2  0
 34 35  2  0
 34 33  1  0
 35 36  1  0
 36 37  2  0
 38 37  1  0
 38 30  1  0
 39 41  2  0
 39 40  1  0
M  END
$$$$
