YWW.pdb
     RDKit          3D

 41 45  0  0  1  0  0  0  0  0999 V2000
   22.3691  -12.1619  -25.0919 O   0  0  0  0  0  0  0  0  0  0  0  0
   22.2555  -10.9944  -24.3782 C   0  0  0  0  0  0  0  0  0  0  0  0
   23.2525  -10.6194  -23.4976 C   0  0  0  0  0  0  0  0  0  0  0  0
   23.1159   -9.4482  -22.7963 C   0  0  0  0  0  0  0  0  0  0  0  0
   22.0107   -8.6567  -22.9606 C   0  0  0  0  0  0  0  0  0  0  0  0
   21.8862   -7.4107  -22.2022 C   0  0  0  0  0  0  0  0  0  0  0  0
   21.4769   -7.7777  -20.7687 C   0  0  2  0  0  0  0  0  0  0  0  0
   20.1557   -8.3443  -20.7878 N   0  0  0  0  0  0  0  0  0  0  0  0
   21.4975   -6.5412  -19.9852 C   0  0  0  0  0  0  0  0  0  0  0  0
   22.5982   -5.9044  -19.8913 O   0  0  0  0  0  0  0  0  0  0  0  0
   21.0172   -9.0238  -23.8333 C   0  0  0  0  0  0  0  0  0  0  0  0
   21.1549  -10.2027  -24.5393 C   0  0  0  0  0  0  0  0  0  0  0  0
   20.3981   -5.9769  -19.3113 N   0  0  0  0  0  0  0  0  0  0  0  0
   20.5483   -4.7451  -18.5812 C   0  0  1  0  0  0  0  0  0  0  0  0
   19.6323   -3.6446  -18.9504 C   0  0  0  0  0  0  0  0  0  0  0  0
   19.7790   -3.0590  -20.2825 C   0  0  0  0  0  0  0  0  0  0  0  0
   20.9096   -2.9678  -21.0600 C   0  0  0  0  0  0  0  0  0  0  0  0
   20.5298   -2.3375  -22.1898 N   0  0  0  0  0  0  0  0  0  0  0  0
   19.2231   -2.0258  -22.1682 C   0  0  0  0  0  0  0  0  0  0  0  0
   18.3589   -1.3913  -23.0481 C   0  0  0  0  0  0  0  0  0  0  0  0
   17.0311   -1.1974  -22.7613 C   0  0  0  0  0  0  0  0  0  0  0  0
   16.5386   -1.6507  -21.5527 C   0  0  0  0  0  0  0  0  0  0  0  0
   17.3789   -2.2820  -20.6669 C   0  0  0  0  0  0  0  0  0  0  0  0
   18.7091   -2.4649  -20.9781 C   0  0  0  0  0  0  0  0  0  0  0  0
   20.2786   -5.0563  -17.1331 C   0  0  0  0  0  0  0  0  0  0  0  0
   19.4298   -5.9285  -16.8599 O   0  0  0  0  0  0  0  0  0  0  0  0
   20.9401   -4.4092  -16.0852 N   0  0  0  0  0  0  0  0  0  0  0  0
   20.6132   -4.6496  -14.6603 C   0  0  1  0  0  0  0  0  0  0  0  0
   21.9493   -4.7782  -13.9958 C   0  0  0  0  0  0  0  0  0  0  0  0
   22.6268   -6.0541  -14.2502 C   0  0  0  0  0  0  0  0  0  0  0  0
   23.5996   -6.2593  -15.2357 C   0  0  0  0  0  0  0  0  0  0  0  0
   23.9322   -7.5458  -15.1621 N   0  0  0  0  0  0  0  0  0  0  0  0
   23.2423   -8.1724  -14.2011 C   0  0  0  0  0  0  0  0  0  0  0  0
   23.2042   -9.4586  -13.7000 C   0  0  0  0  0  0  0  0  0  0  0  0
   22.4043   -9.8528  -12.6720 C   0  0  0  0  0  0  0  0  0  0  0  0
   21.5704   -8.9064  -12.0850 C   0  0  0  0  0  0  0  0  0  0  0  0
   21.5762   -7.6141  -12.5540 C   0  0  0  0  0  0  0  0  0  0  0  0
   22.3933   -7.2433  -13.5938 C   0  0  0  0  0  0  0  0  0  0  0  0
   19.7864   -3.5622  -14.1470 C   0  0  0  0  0  0  0  0  0  0  0  0
   19.4394   -2.4248  -14.8872 O   0  0  0  0  0  0  0  0  0  0  0  0
   19.3444   -3.6292  -12.9445 O   0  0  0  0  0  0  0  0  0  0  0  0
  2  1  1  0
  3  2  2  0
  4  3  1  0
  5  4  2  0
  5 11  1  0
  6  5  1  0
  7  6  1  0
  7  9  1  0
  7  8  1  6
  9 10  2  0
 11 12  2  0
 12  2  1  0
 13  9  1  0
 13 14  1  0
 14 25  1  0
 14 15  1  6
 16 15  1  0
 17 16  2  0
 18 17  1  0
 19 18  1  0
 19 24  2  0
 20 19  1  0
 21 20  2  0
 21 22  1  0
 22 23  2  0
 23 24  1  0
 24 16  1  0
 25 26  2  0
 27 25  1  0
 27 28  1  0
 28 29  1  1
 28 39  1  0
 30 29  1  0
 31 30  2  0
 32 31  1  0
 33 32  1  0
 33 38  2  0
 34 35  2  0
 34 33  1  0
 35 36  1  0
 36 37  2  0
 38 37  1  0
 38 30  1  0
 39 41  2  0
 39 40  1  0
M  END
$$$$
