AEM.pdb
     RDKit          3D

 23 22  0  0  1  0  0  0  0  0999 V2000
   19.8211  -15.4646  -14.7436 C   0  0  0  0  0  0  0  0  0  0  0  0
   18.7202  -14.8675  -15.5797 C   0  0  2  0  0  0  0  0  0  0  0  0
   18.3062  -15.7995  -16.6105 N   0  0  0  0  0  0  0  0  0  0  0  0
   19.1300  -13.6034  -16.2402 C   0  0  0  0  0  0  0  0  0  0  0  0
   19.8208  -13.6269  -17.2992 O   0  0  0  0  0  0  0  0  0  0  0  0
   18.7842  -12.3254  -15.7421 N   0  0  0  0  0  0  0  0  0  0  0  0
   19.3045  -11.0922  -16.3881 C   0  0  1  0  0  0  0  0  0  0  0  0
   18.1675  -10.1322  -16.3494 C   0  0  0  0  0  0  0  0  0  0  0  0
   17.7176   -9.6915  -15.0061 C   0  0  0  0  0  0  0  0  0  0  0  0
   16.5848   -8.7059  -15.0995 C   0  0  0  0  0  0  0  0  0  0  0  0
   15.4513   -9.1613  -15.3451 O   0  0  0  0  0  0  0  0  0  0  0  0
   20.5291  -10.6640  -15.6886 C   0  0  0  0  0  0  0  0  0  0  0  0
   20.6224  -10.7338  -14.4113 O   0  0  0  0  0  0  0  0  0  0  0  0
   16.7558   -7.3536  -14.9270 O   0  0  0  0  0  0  0  0  0  0  0  0
   28.3427   -9.9096  -15.9623 C   0  0  0  0  0  0  0  0  0  0  0  0
   26.8158  -10.3755  -16.7242 S   0  0  0  0  0  0  0  0  0  0  0  0
   25.3670   -9.7588  -15.8533 C   0  0  0  0  0  0  0  0  0  0  0  0
   24.0647  -10.1962  -16.3967 C   0  0  0  0  0  0  0  0  0  0  0  0
   22.8499   -9.6302  -15.7910 C   0  0  2  0  0  0  0  0  0  0  0  0
   21.6485  -10.1630  -16.4051 N   0  0  0  0  0  0  0  0  0  0  0  0
   22.8080   -8.1597  -15.6955 C   0  0  0  0  0  0  0  0  0  0  0  0
   22.2486   -7.4163  -16.7152 O   0  0  0  0  0  0  0  0  0  0  0  0
   23.2591   -7.5187  -14.7178 O   0  0  0  0  0  0  0  0  0  0  0  0
  2  3  1  0
  2  1  1  6
  2  4  1  0
  4  5  2  0
  6  4  1  0
  6  7  1  0
  7 12  1  0
  8  9  1  0
  7  8  1  1
  9 10  1  0
 10 11  2  0
 10 14  1  0
 12 20  1  0
 12 13  2  0
 16 15  1  0
 17 16  1  0
 19 18  1  6
 18 17  1  0
 19 21  1  0
 20 19  1  0
 21 22  1  0
 23 21  2  0
M  END
$$$$
