AEM.pdb
     RDKit          3D

 23 22  0  0  1  0  0  0  0  0999 V2000
   28.3702  -20.5405  -16.0058 C   0  0  0  0  0  0  0  0  0  0  0  0
   26.9482  -20.9611  -15.7432 C   0  0  2  0  0  0  0  0  0  0  0  0
   26.1038  -20.6204  -16.8718 N   0  0  0  0  0  0  0  0  0  0  0  0
   26.3797  -20.3180  -14.5328 C   0  0  0  0  0  0  0  0  0  0  0  0
   26.4719  -19.0678  -14.3664 O   0  0  0  0  0  0  0  0  0  0  0  0
   25.7159  -21.0415  -13.5145 N   0  0  0  0  0  0  0  0  0  0  0  0
   25.1138  -20.3380  -12.3520 C   0  0  1  0  0  0  0  0  0  0  0  0
   23.6437  -20.4616  -12.5507 C   0  0  0  0  0  0  0  0  0  0  0  0
   23.1859  -20.7942  -13.9221 C   0  0  0  0  0  0  0  0  0  0  0  0
   21.6852  -20.8662  -14.0006 C   0  0  0  0  0  0  0  0  0  0  0  0
   21.1125  -20.0424  -14.7394 O   0  0  0  0  0  0  0  0  0  0  0  0
   25.6442  -20.9247  -11.1084 C   0  0  0  0  0  0  0  0  0  0  0  0
   25.7541  -22.1950  -10.9683 O   0  0  0  0  0  0  0  0  0  0  0  0
   20.9446  -21.7882  -13.3013 O   0  0  0  0  0  0  0  0  0  0  0  0
   28.9380  -19.4151   -4.0015 C   0  0  0  0  0  0  0  0  0  0  0  0
   28.5472  -18.8918   -5.6454 S   0  0  0  0  0  0  0  0  0  0  0  0
   27.4334  -20.0134   -6.5051 C   0  0  0  0  0  0  0  0  0  0  0  0
   27.1577  -19.6773   -7.9170 C   0  0  0  0  0  0  0  0  0  0  0  0
   26.2644  -20.5725   -8.6677 C   0  0  2  0  0  0  0  0  0  0  0  0
   26.0550  -20.1039  -10.0245 N   0  0  0  0  0  0  0  0  0  0  0  0
   24.9920  -20.9103   -8.0044 C   0  0  0  0  0  0  0  0  0  0  0  0
   24.9785  -21.7924   -6.9428 O   0  0  0  0  0  0  0  0  0  0  0  0
   23.8859  -20.4331   -8.3499 O   0  0  0  0  0  0  0  0  0  0  0  0
  2  3  1  0
  2  1  1  6
  2  4  1  0
  4  5  2  0
  6  4  1  0
  6  7  1  0
  7 12  1  0
  8  9  1  0
  7  8  1  1
  9 10  1  0
 10 11  2  0
 10 14  1  0
 12 20  1  0
 12 13  2  0
 16 15  1  0
 17 16  1  0
 19 18  1  1
 18 17  1  0
 19 21  1  0
 20 19  1  0
 21 22  1  0
 23 21  2  0
M  END
$$$$
