AEM.pdb
     RDKit          3D

 23 22  0  0  1  0  0  0  0  0999 V2000
   29.8360  -11.2848  -17.6701 C   0  0  0  0  0  0  0  0  0  0  0  0
   30.1074   -9.8144  -17.8483 C   0  0  2  0  0  0  0  0  0  0  0  0
   29.4198   -9.3122  -19.0221 N   0  0  0  0  0  0  0  0  0  0  0  0
   31.5534   -9.5175  -18.0001 C   0  0  0  0  0  0  0  0  0  0  0  0
   32.1162   -9.6254  -19.1274 O   0  0  0  0  0  0  0  0  0  0  0  0
   32.3736   -9.1060  -16.9236 N   0  0  0  0  0  0  0  0  0  0  0  0
   33.8226   -8.8469  -17.1286 C   0  0  1  0  0  0  0  0  0  0  0  0
   34.1908   -7.8743  -16.0636 C   0  0  0  0  0  0  0  0  0  0  0  0
   33.8093   -6.4598  -16.2971 C   0  0  0  0  0  0  0  0  0  0  0  0
   34.2182   -5.5809  -15.1465 C   0  0  0  0  0  0  0  0  0  0  0  0
   33.9334   -4.3704  -15.2241 O   0  0  0  0  0  0  0  0  0  0  0  0
   34.5478  -10.1297  -17.1040 C   0  0  0  0  0  0  0  0  0  0  0  0
   34.1866  -11.0812  -16.3233 O   0  0  0  0  0  0  0  0  0  0  0  0
   34.8790   -6.0584  -14.0406 O   0  0  0  0  0  0  0  0  0  0  0  0
   38.1710  -14.7305  -21.9679 C   0  0  0  0  0  0  0  0  0  0  0  0
   36.6281  -14.2111  -21.2762 S   0  0  0  0  0  0  0  0  0  0  0  0
   36.7772  -13.5696  -19.6017 C   0  0  0  0  0  0  0  0  0  0  0  0
   36.1848  -12.2349  -19.3771 C   0  0  0  0  0  0  0  0  0  0  0  0
   36.3760  -11.6192  -18.0552 C   0  0  2  0  0  0  0  0  0  0  0  0
   35.6687  -10.3573  -17.9461 N   0  0  0  0  0  0  0  0  0  0  0  0
   37.7731  -11.5031  -17.5994 C   0  0  0  0  0  0  0  0  0  0  0  0
   38.3302  -12.4954  -16.8181 O   0  0  0  0  0  0  0  0  0  0  0  0
   38.5136  -10.5332  -17.8848 O   0  0  0  0  0  0  0  0  0  0  0  0
  2  3  1  0
  2  1  1  6
  2  4  1  0
  4  5  2  0
  6  4  1  0
  6  7  1  0
  7 12  1  0
  8  9  1  0
  7  8  1  1
  9 10  1  0
 10 11  2  0
 10 14  1  0
 12 20  1  0
 12 13  2  0
 16 15  1  0
 17 16  1  0
 19 18  1  6
 18 17  1  0
 19 21  1  0
 20 19  1  0
 21 22  1  0
 23 21  2  0
M  END
$$$$
