AEM.pdb
     RDKit          3D

 23 22  0  0  1  0  0  0  0  0999 V2000
   21.5650  -17.9297  -15.0682 C   0  0  0  0  0  0  0  0  0  0  0  0
   22.7730  -18.2044  -15.9244 C   0  0  2  0  0  0  0  0  0  0  0  0
   22.3735  -18.7921  -17.1884 N   0  0  0  0  0  0  0  0  0  0  0  0
   23.7344  -19.1272  -15.2716 C   0  0  0  0  0  0  0  0  0  0  0  0
   23.4838  -20.3641  -15.1912 O   0  0  0  0  0  0  0  0  0  0  0  0
   24.9598  -18.6953  -14.7123 N   0  0  0  0  0  0  0  0  0  0  0  0
   25.9154  -19.6732  -14.1298 C   0  0  1  0  0  0  0  0  0  0  0  0
   27.2589  -19.1943  -14.5557 C   0  0  0  0  0  0  0  0  0  0  0  0
   28.4158  -20.0415  -14.1751 C   0  0  0  0  0  0  0  0  0  0  0  0
   28.6501  -21.1383  -15.1779 C   0  0  0  0  0  0  0  0  0  0  0  0
   28.6719  -20.8159  -16.3812 O   0  0  0  0  0  0  0  0  0  0  0  0
   25.6944  -19.7519  -12.6747 C   0  0  0  0  0  0  0  0  0  0  0  0
   25.3760  -18.7119  -11.9948 O   0  0  0  0  0  0  0  0  0  0  0  0
   28.8362  -22.4512  -14.8183 O   0  0  0  0  0  0  0  0  0  0  0  0
   27.3770  -19.5505   -5.6069 C   0  0  0  0  0  0  0  0  0  0  0  0
   27.5277  -19.3753   -7.3606 S   0  0  0  0  0  0  0  0  0  0  0  0
   26.3877  -20.4189   -8.2821 C   0  0  0  0  0  0  0  0  0  0  0  0
   26.5687  -20.4180   -9.7484 C   0  0  0  0  0  0  0  0  0  0  0  0
   25.5840  -21.1535  -10.5560 C   0  0  2  0  0  0  0  0  0  0  0  0
   25.8229  -20.9821  -11.9766 N   0  0  0  0  0  0  0  0  0  0  0  0
   24.1703  -20.9220  -10.2084 C   0  0  0  0  0  0  0  0  0  0  0  0
   23.3571  -20.2037  -11.0618 O   0  0  0  0  0  0  0  0  0  0  0  0
   23.6394  -21.3495   -9.1568 O   0  0  0  0  0  0  0  0  0  0  0  0
  2  3  1  0
  2  1  1  1
  2  4  1  0
  4  5  2  0
  6  4  1  0
  6  7  1  0
  7 12  1  0
  8  9  1  0
  7  8  1  1
  9 10  1  0
 10 11  2  0
 10 14  1  0
 12 20  1  0
 12 13  2  0
 16 15  1  0
 17 16  1  0
 19 18  1  1
 18 17  1  0
 19 21  1  0
 20 19  1  0
 21 22  1  0
 23 21  2  0
M  END
$$$$
