AEM.pdb
     RDKit          3D

 23 22  0  0  1  0  0  0  0  0999 V2000
   24.4912  -12.0621  -15.7667 C   0  0  0  0  0  0  0  0  0  0  0  0
   23.0704  -12.2960  -16.2076 C   0  0  2  0  0  0  0  0  0  0  0  0
   23.0433  -13.0428  -17.4503 N   0  0  0  0  0  0  0  0  0  0  0  0
   22.3241  -11.0303  -16.4152 C   0  0  0  0  0  0  0  0  0  0  0  0
   22.4920  -10.3512  -17.4687 O   0  0  0  0  0  0  0  0  0  0  0  0
   21.4017  -10.5154  -15.4744 N   0  0  0  0  0  0  0  0  0  0  0  0
   20.7112   -9.2220  -15.7173 C   0  0  1  0  0  0  0  0  0  0  0  0
   19.3901   -9.3626  -15.0460 C   0  0  0  0  0  0  0  0  0  0  0  0
   18.3684  -10.1704  -15.7563 C   0  0  0  0  0  0  0  0  0  0  0  0
   17.0715  -10.2128  -14.9950 C   0  0  0  0  0  0  0  0  0  0  0  0
   16.9887  -11.0253  -14.0540 O   0  0  0  0  0  0  0  0  0  0  0  0
   21.5644   -8.1235  -15.2297 C   0  0  0  0  0  0  0  0  0  0  0  0
   22.3224   -8.2762  -14.2063 O   0  0  0  0  0  0  0  0  0  0  0  0
   16.0022   -9.4045  -15.2965 O   0  0  0  0  0  0  0  0  0  0  0  0
   27.0715   -3.1898  -17.0714 C   0  0  0  0  0  0  0  0  0  0  0  0
   25.8210   -4.3643  -17.5025 S   0  0  0  0  0  0  0  0  0  0  0  0
   24.5691   -4.5735  -16.2270 C   0  0  0  0  0  0  0  0  0  0  0  0
   23.5497   -5.6073  -16.5003 C   0  0  0  0  0  0  0  0  0  0  0  0
   22.4589   -5.7617  -15.5260 C   0  0  2  0  0  0  0  0  0  0  0  0
   21.5790   -6.8600  -15.8784 N   0  0  0  0  0  0  0  0  0  0  0  0
   21.7029   -4.5358  -15.2121 C   0  0  0  0  0  0  0  0  0  0  0  0
   22.2022   -3.6307  -14.2973 O   0  0  0  0  0  0  0  0  0  0  0  0
   20.6023   -4.2499  -15.7390 O   0  0  0  0  0  0  0  0  0  0  0  0
  2  3  1  0
  2  1  1  6
  2  4  1  0
  4  5  2  0
  6  4  1  0
  6  7  1  0
  7 12  1  0
  8  9  1  0
  7  8  1  1
  9 10  1  0
 10 11  2  0
 10 14  1  0
 12 20  1  0
 12 13  2  0
 16 15  1  0
 17 16  1  0
 19 18  1  6
 18 17  1  0
 19 21  1  0
 20 19  1  0
 21 22  1  0
 23 21  2  0
M  END
$$$$
