AEM.pdb
     RDKit          3D

 23 22  0  0  1  0  0  0  0  0999 V2000
   14.5629   -7.2846   -7.0904 C   0  0  0  0  0  0  0  0  0  0  0  0
   13.8736   -7.1194   -8.4190 C   0  0  2  0  0  0  0  0  0  0  0  0
   12.6829   -7.9449   -8.4768 N   0  0  0  0  0  0  0  0  0  0  0  0
   14.7455   -7.4891   -9.5615 C   0  0  0  0  0  0  0  0  0  0  0  0
   14.3746   -8.3643  -10.3954 O   0  0  0  0  0  0  0  0  0  0  0  0
   16.0131   -6.9027   -9.7858 N   0  0  0  0  0  0  0  0  0  0  0  0
   16.6829   -7.0238  -11.1070 C   0  0  1  0  0  0  0  0  0  0  0  0
   15.7469   -6.3812  -12.0697 C   0  0  0  0  0  0  0  0  0  0  0  0
   16.2399   -6.2084  -13.4583 C   0  0  0  0  0  0  0  0  0  0  0  0
   15.2111   -5.5409  -14.3299 C   0  0  0  0  0  0  0  0  0  0  0  0
   14.6988   -6.2269  -15.2351 O   0  0  0  0  0  0  0  0  0  0  0  0
   18.0262   -6.4235  -11.0210 C   0  0  0  0  0  0  0  0  0  0  0  0
   18.1948   -5.2375  -10.5625 O   0  0  0  0  0  0  0  0  0  0  0  0
   14.8280   -4.2320  -14.1638 O   0  0  0  0  0  0  0  0  0  0  0  0
   23.8900  -10.0630   -9.9087 C   0  0  0  0  0  0  0  0  0  0  0  0
   23.6042   -8.5084   -9.1145 S   0  0  0  0  0  0  0  0  0  0  0  0
   22.7299   -7.3273  -10.1529 C   0  0  0  0  0  0  0  0  0  0  0  0
   21.3072   -7.6345  -10.4062 C   0  0  0  0  0  0  0  0  0  0  0  0
   20.5453   -6.6920  -11.2393 C   0  0  2  0  0  0  0  0  0  0  0  0
   19.1797   -7.1388  -11.4394 N   0  0  0  0  0  0  0  0  0  0  0  0
   21.1832   -6.3004  -12.5093 C   0  0  0  0  0  0  0  0  0  0  0  0
   20.7125   -6.8063  -13.7043 O   0  0  0  0  0  0  0  0  0  0  0  0
   22.1544   -5.5116  -12.5791 O   0  0  0  0  0  0  0  0  0  0  0  0
  2  3  1  0
  2  1  1  1
  2  4  1  0
  4  5  2  0
  6  4  1  0
  6  7  1  0
  7 12  1  0
  8  9  1  0
  7  8  1  6
  9 10  1  0
 10 11  2  0
 10 14  1  0
 12 20  1  0
 12 13  2  0
 16 15  1  0
 17 16  1  0
 19 18  1  6
 18 17  1  0
 19 21  1  0
 20 19  1  0
 21 22  1  0
 23 21  2  0
M  END
$$$$
