AEM.pdb
     RDKit          3D

 23 22  0  0  1  0  0  0  0  0999 V2000
   16.3016  -13.1862  -17.7514 C   0  0  0  0  0  0  0  0  0  0  0  0
   17.1671  -12.8035  -16.5800 C   0  0  2  0  0  0  0  0  0  0  0  0
   16.3910  -12.8081  -15.3552 N   0  0  0  0  0  0  0  0  0  0  0  0
   17.7721  -11.4574  -16.7361 C   0  0  0  0  0  0  0  0  0  0  0  0
   18.6374  -11.2423  -17.6328 O   0  0  0  0  0  0  0  0  0  0  0  0
   17.4295  -10.3578  -15.9148 N   0  0  0  0  0  0  0  0  0  0  0  0
   18.0539   -9.0262  -16.1291 C   0  0  1  0  0  0  0  0  0  0  0  0
   17.0080   -8.0454  -15.7293 C   0  0  0  0  0  0  0  0  0  0  0  0
   17.4221   -6.6220  -15.6704 C   0  0  0  0  0  0  0  0  0  0  0  0
   16.2767   -5.7301  -15.2754 C   0  0  0  0  0  0  0  0  0  0  0  0
   15.1907   -6.2801  -15.0101 O   0  0  0  0  0  0  0  0  0  0  0  0
   19.3169   -8.9609  -15.3722 C   0  0  0  0  0  0  0  0  0  0  0  0
   19.3843   -9.3677  -14.1576 O   0  0  0  0  0  0  0  0  0  0  0  0
   16.3872   -4.3627  -15.1998 O   0  0  0  0  0  0  0  0  0  0  0  0
   26.5521  -11.2315  -15.1409 C   0  0  0  0  0  0  0  0  0  0  0  0
   25.0196  -10.9877  -15.9900 S   0  0  0  0  0  0  0  0  0  0  0  0
   24.0142   -9.6733  -15.2835 C   0  0  0  0  0  0  0  0  0  0  0  0
   22.6746   -9.5052  -15.8834 C   0  0  0  0  0  0  0  0  0  0  0  0
   21.8082   -8.4536  -15.3300 C   0  0  2  0  0  0  0  0  0  0  0  0
   20.5028   -8.4487  -15.9627 N   0  0  0  0  0  0  0  0  0  0  0  0
   22.3949   -7.1022  -15.2787 C   0  0  0  0  0  0  0  0  0  0  0  0
   23.1791   -6.7293  -14.2057 O   0  0  0  0  0  0  0  0  0  0  0  0
   22.2256   -6.2421  -16.1742 O   0  0  0  0  0  0  0  0  0  0  0  0
  2  3  1  0
  2  1  1  6
  2  4  1  0
  4  5  2  0
  6  4  1  0
  6  7  1  0
  7 12  1  0
  8  9  1  0
  7  8  1  1
  9 10  1  0
 10 11  2  0
 10 14  1  0
 12 20  1  0
 12 13  2  0
 16 15  1  0
 17 16  1  0
 19 18  1  6
 18 17  1  0
 19 21  1  0
 20 19  1  0
 21 22  1  0
 23 21  2  0
M  END
$$$$
