AEM.pdb
     RDKit          3D

 23 22  0  0  1  0  0  0  0  0999 V2000
   20.6060  -18.9083  -11.2306 C   0  0  0  0  0  0  0  0  0  0  0  0
   21.0648  -19.8615  -12.3023 C   0  0  2  0  0  0  0  0  0  0  0  0
   20.0253  -20.8285  -12.5974 N   0  0  0  0  0  0  0  0  0  0  0  0
   22.2888  -20.6057  -11.9151 C   0  0  0  0  0  0  0  0  0  0  0  0
   22.2160  -21.6034  -11.1415 O   0  0  0  0  0  0  0  0  0  0  0  0
   23.5809  -20.2573  -12.3734 N   0  0  0  0  0  0  0  0  0  0  0  0
   24.7818  -20.9831  -11.8838 C   0  0  1  0  0  0  0  0  0  0  0  0
   25.6813  -21.0742  -13.0664 C   0  0  0  0  0  0  0  0  0  0  0  0
   25.3390  -22.1000  -14.0820 C   0  0  0  0  0  0  0  0  0  0  0  0
   26.3624  -22.1487  -15.1837 C   0  0  0  0  0  0  0  0  0  0  0  0
   26.0387  -21.6636  -16.2847 O   0  0  0  0  0  0  0  0  0  0  0  0
   25.3295  -20.2716  -10.7151 C   0  0  0  0  0  0  0  0  0  0  0  0
   25.2359  -18.9966  -10.6107 O   0  0  0  0  0  0  0  0  0  0  0  0
   27.6112  -22.6972  -15.0187 O   0  0  0  0  0  0  0  0  0  0  0  0
   28.4552  -18.8116   -3.9286 C   0  0  0  0  0  0  0  0  0  0  0  0
   27.6493  -20.0947   -4.8414 S   0  0  0  0  0  0  0  0  0  0  0  0
   27.9936  -20.0383   -6.6066 C   0  0  0  0  0  0  0  0  0  0  0  0
   26.9336  -20.5842   -7.4788 C   0  0  0  0  0  0  0  0  0  0  0  0
   27.1306  -20.4852   -8.9329 C   0  0  2  0  0  0  0  0  0  0  0  0
   25.9762  -20.9735   -9.6632 N   0  0  0  0  0  0  0  0  0  0  0  0
   28.3861  -21.0598   -9.4491 C   0  0  0  0  0  0  0  0  0  0  0  0
   29.5118  -20.2694   -9.5655 O   0  0  0  0  0  0  0  0  0  0  0  0
   28.5044  -22.2574   -9.7987 O   0  0  0  0  0  0  0  0  0  0  0  0
  2  3  1  0
  2  1  1  1
  2  4  1  0
  4  5  2  0
  6  4  1  0
  6  7  1  0
  7 12  1  0
  8  9  1  0
  7  8  1  6
  9 10  1  0
 10 11  2  0
 10 14  1  0
 12 20  1  0
 12 13  2  0
 16 15  1  0
 17 16  1  0
 19 18  1  1
 18 17  1  0
 19 21  1  0
 20 19  1  0
 21 22  1  0
 23 21  2  0
M  END
$$$$
