AEM.pdb
     RDKit          3D

 23 22  0  0  1  0  0  0  0  0999 V2000
   20.5770  -18.3822  -11.4769 C   0  0  0  0  0  0  0  0  0  0  0  0
   20.6561  -19.6720  -12.2501 C   0  0  2  0  0  0  0  0  0  0  0  0
   19.4767  -20.4800  -12.0073 N   0  0  0  0  0  0  0  0  0  0  0  0
   21.8484  -20.4786  -11.8897 C   0  0  0  0  0  0  0  0  0  0  0  0
   21.7901  -21.3287  -10.9553 O   0  0  0  0  0  0  0  0  0  0  0  0
   23.0933  -20.3525  -12.5495 N   0  0  0  0  0  0  0  0  0  0  0  0
   24.2573  -21.1808  -12.1400 C   0  0  1  0  0  0  0  0  0  0  0  0
   24.8595  -21.6511  -13.4174 C   0  0  0  0  0  0  0  0  0  0  0  0
   26.1561  -22.3649  -13.3157 C   0  0  0  0  0  0  0  0  0  0  0  0
   26.6616  -22.7863  -14.6686 C   0  0  0  0  0  0  0  0  0  0  0  0
   27.6675  -22.1985  -15.1101 O   0  0  0  0  0  0  0  0  0  0  0  0
   25.1379  -20.3764  -11.2740 C   0  0  0  0  0  0  0  0  0  0  0  0
   25.5600  -19.2235  -11.6451 O   0  0  0  0  0  0  0  0  0  0  0  0
   26.0646  -23.7739  -15.4140 O   0  0  0  0  0  0  0  0  0  0  0  0
   28.7110  -19.3074   -4.3337 C   0  0  0  0  0  0  0  0  0  0  0  0
   27.5455  -20.2702   -5.2522 S   0  0  0  0  0  0  0  0  0  0  0  0
   27.7940  -20.1831   -7.0322 C   0  0  0  0  0  0  0  0  0  0  0  0
   26.6167  -20.5267   -7.8560 C   0  0  0  0  0  0  0  0  0  0  0  0
   26.7602  -20.4412   -9.3171 C   0  0  2  0  0  0  0  0  0  0  0  0
   25.5459  -20.8488   -9.9982 N   0  0  0  0  0  0  0  0  0  0  0  0
   27.9510  -21.1007   -9.8829 C   0  0  0  0  0  0  0  0  0  0  0  0
   29.1540  -20.4260   -9.9390 O   0  0  0  0  0  0  0  0  0  0  0  0
   27.9446  -22.2718  -10.3289 O   0  0  0  0  0  0  0  0  0  0  0  0
  2  3  1  0
  2  1  1  1
  2  4  1  0
  4  5  2  0
  6  4  1  0
  6  7  1  0
  7 12  1  0
  8  9  1  0
  7  8  1  6
  9 10  1  0
 10 11  2  0
 10 14  1  0
 12 20  1  0
 12 13  2  0
 16 15  1  0
 17 16  1  0
 19 18  1  1
 18 17  1  0
 19 21  1  0
 20 19  1  0
 21 22  1  0
 23 21  2  0
M  END
$$$$
