AEM.pdb
     RDKit          3D

 23 22  0  0  1  0  0  0  0  0999 V2000
   17.9534  -19.0850    1.5519 C   0  0  0  0  0  0  0  0  0  0  0  0
   16.8210  -19.8052    2.2350 C   0  0  2  0  0  0  0  0  0  0  0  0
   15.5761  -19.5753    1.5277 N   0  0  0  0  0  0  0  0  0  0  0  0
   16.6375  -19.3707    3.6420 C   0  0  0  0  0  0  0  0  0  0  0  0
   15.8720  -18.4035    3.9208 O   0  0  0  0  0  0  0  0  0  0  0  0
   17.2889  -19.9928    4.7327 N   0  0  0  0  0  0  0  0  0  0  0  0
   17.1548  -19.4477    6.1088 C   0  0  1  0  0  0  0  0  0  0  0  0
   17.4362  -20.6020    7.0057 C   0  0  0  0  0  0  0  0  0  0  0  0
   16.3289  -21.5682    7.2095 C   0  0  0  0  0  0  0  0  0  0  0  0
   16.7193  -22.6607    8.1674 C   0  0  0  0  0  0  0  0  0  0  0  0
   17.8711  -22.6196    8.6406 O   0  0  0  0  0  0  0  0  0  0  0  0
   18.0527  -18.2882    6.2554 C   0  0  0  0  0  0  0  0  0  0  0  0
   18.9527  -18.0309    5.3785 O   0  0  0  0  0  0  0  0  0  0  0  0
   15.8676  -23.6767    8.5279 O   0  0  0  0  0  0  0  0  0  0  0  0
   19.9438  -11.3841    5.1998 C   0  0  0  0  0  0  0  0  0  0  0  0
   18.9629  -12.8544    5.1284 S   0  0  0  0  0  0  0  0  0  0  0  0
   19.2454  -13.9681    6.5132 C   0  0  0  0  0  0  0  0  0  0  0  0
   18.5575  -15.2729    6.4302 C   0  0  0  0  0  0  0  0  0  0  0  0
   18.7372  -16.2094    7.5499 C   0  0  2  0  0  0  0  0  0  0  0  0
   17.9496  -17.4144    7.3704 N   0  0  0  0  0  0  0  0  0  0  0  0
   18.5605  -15.6374    8.8970 C   0  0  0  0  0  0  0  0  0  0  0  0
   17.3777  -15.8326    9.5813 O   0  0  0  0  0  0  0  0  0  0  0  0
   19.4418  -14.9658    9.4824 O   0  0  0  0  0  0  0  0  0  0  0  0
  2  3  1  0
  2  1  1  6
  2  4  1  0
  4  5  2  0
  6  4  1  0
  6  7  1  0
  7 12  1  0
  8  9  1  0
  7  8  1  1
  9 10  1  0
 10 11  2  0
 10 14  1  0
 12 20  1  0
 12 13  2  0
 16 15  1  0
 17 16  1  0
 19 18  1  6
 18 17  1  0
 19 21  1  0
 20 19  1  0
 21 22  1  0
 23 21  2  0
M  END
$$$$
