AEM.pdb
     RDKit          3D

 23 22  0  0  1  0  0  0  0  0999 V2000
   17.0589  -10.7985  -17.5759 C   0  0  0  0  0  0  0  0  0  0  0  0
   17.6714  -10.7775  -16.2004 C   0  0  2  0  0  0  0  0  0  0  0  0
   16.8899  -11.5882  -15.2867 N   0  0  0  0  0  0  0  0  0  0  0  0
   17.7599   -9.4069  -15.6385 C   0  0  0  0  0  0  0  0  0  0  0  0
   16.7831   -8.9059  -15.0107 O   0  0  0  0  0  0  0  0  0  0  0  0
   18.9107   -8.5942  -15.7648 N   0  0  0  0  0  0  0  0  0  0  0  0
   18.9563   -7.2413  -15.1512 C   0  0  1  0  0  0  0  0  0  0  0  0
   20.3780   -7.0502  -14.7538 C   0  0  0  0  0  0  0  0  0  0  0  0
   20.7377   -5.7231  -14.1965 C   0  0  0  0  0  0  0  0  0  0  0  0
   22.1785   -5.6776  -13.7659 C   0  0  0  0  0  0  0  0  0  0  0  0
   22.8404   -6.7273  -13.8767 O   0  0  0  0  0  0  0  0  0  0  0  0
   18.4217   -6.2600  -16.1122 C   0  0  0  0  0  0  0  0  0  0  0  0
   18.6945   -6.3399  -17.3630 O   0  0  0  0  0  0  0  0  0  0  0  0
   22.7729   -4.5439  -13.2669 O   0  0  0  0  0  0  0  0  0  0  0  0
   12.3282   -2.4427  -18.8196 C   0  0  0  0  0  0  0  0  0  0  0  0
   13.1749   -3.7631  -18.0020 S   0  0  0  0  0  0  0  0  0  0  0  0
   14.8787   -3.3654  -17.5815 C   0  0  0  0  0  0  0  0  0  0  0  0
   15.6203   -4.4237  -16.8655 C   0  0  0  0  0  0  0  0  0  0  0  0
   17.0376   -4.1749  -16.5617 C   0  0  2  0  0  0  0  0  0  0  0  0
   17.5838   -5.1951  -15.6868 N   0  0  0  0  0  0  0  0  0  0  0  0
   17.3615   -2.8176  -16.0863 C   0  0  0  0  0  0  0  0  0  0  0  0
   17.4593   -2.5640  -14.7330 O   0  0  0  0  0  0  0  0  0  0  0  0
   17.5625   -1.8475  -16.8537 O   0  0  0  0  0  0  0  0  0  0  0  0
  2  3  1  0
  2  1  1  6
  2  4  1  0
  4  5  2  0
  6  4  1  0
  6  7  1  0
  7 12  1  0
  8  9  1  0
  7  8  1  6
  9 10  1  0
 10 11  2  0
 10 14  1  0
 12 20  1  0
 12 13  2  0
 16 15  1  0
 17 16  1  0
 19 18  1  1
 18 17  1  0
 19 21  1  0
 20 19  1  0
 21 22  1  0
 23 21  2  0
M  END
$$$$
