WCF.pdb
     RDKit          3D

 32 34  0  0  1  0  0  0  0  0999 V2000
    6.2636  -17.4419   24.3172 N   0  0  0  0  0  0  0  0  0  0  0  0
    7.2941  -16.4705   24.0482 C   0  0  1  0  0  0  0  0  0  0  0  0
    7.7546  -15.8538   25.3537 C   0  0  0  0  0  0  0  0  0  0  0  0
    6.9092  -14.7252   25.7955 C   0  0  0  0  0  0  0  0  0  0  0  0
    5.7301  -14.8332   26.4981 C   0  0  0  0  0  0  0  0  0  0  0  0
    5.2092  -13.6013   26.7001 N   0  0  0  0  0  0  0  0  0  0  0  0
    6.0185  -12.6833   26.1471 C   0  0  0  0  0  0  0  0  0  0  0  0
    5.9537  -11.3168   26.0771 C   0  0  0  0  0  0  0  0  0  0  0  0
    6.9209  -10.5564   25.4535 C   0  0  0  0  0  0  0  0  0  0  0  0
    7.9702  -11.2514   24.8972 C   0  0  0  0  0  0  0  0  0  0  0  0
    8.0648  -12.6464   24.9517 C   0  0  0  0  0  0  0  0  0  0  0  0
    7.0782  -13.3610   25.5819 C   0  0  0  0  0  0  0  0  0  0  0  0
    8.4161  -17.1115   23.3253 C   0  0  0  0  0  0  0  0  0  0  0  0
    8.8518  -18.2519   23.6383 O   0  0  0  0  0  0  0  0  0  0  0  0
    9.0740  -16.4687   22.2200 N   0  0  0  0  0  0  0  0  0  0  0  0
   10.4419  -16.7788   21.8459 C   0  0  1  0  0  0  0  0  0  0  0  0
   10.8296  -15.9791   20.5906 C   0  0  0  0  0  0  0  0  0  0  0  0
    9.7097  -16.5064   19.2646 S   0  0  0  0  0  0  0  0  0  0  0  0
   11.4071  -16.3637   22.8827 C   0  0  0  0  0  0  0  0  0  0  0  0
   11.6977  -15.1371   22.9673 O   0  0  0  0  0  0  0  0  0  0  0  0
   12.0320  -17.2497   23.7961 N   0  0  0  0  0  0  0  0  0  0  0  0
   13.0547  -16.7328   24.7201 C   0  0  1  0  0  0  0  0  0  0  0  0
   12.5703  -17.0679   26.1139 C   0  0  0  0  0  0  0  0  0  0  0  0
   11.4297  -16.2514   26.5703 C   0  0  0  0  0  0  0  0  0  0  0  0
   11.6750  -14.8791   26.7200 C   0  0  0  0  0  0  0  0  0  0  0  0
   10.6494  -14.0665   27.1398 C   0  0  0  0  0  0  0  0  0  0  0  0
    9.4088  -14.6071   27.4044 C   0  0  0  0  0  0  0  0  0  0  0  0
    9.1756  -15.9547   27.2553 C   0  0  0  0  0  0  0  0  0  0  0  0
   10.1933  -16.7679   26.8377 C   0  0  0  0  0  0  0  0  0  0  0  0
   14.3682  -17.3572   24.4887 C   0  0  0  0  0  0  0  0  0  0  0  0
   15.3700  -17.0212   25.1728 O   0  0  0  0  0  0  0  0  0  0  0  0
   14.5693  -18.3262   23.5303 O   0  0  0  0  0  0  0  0  0  0  0  0
  2  1  1  1
  2 13  1  0
  2  3  1  0
  4  3  1  0
  4  5  2  0
  6  5  1  0
  7  6  1  0
  8  7  2  0
  9  8  1  0
 10  9  2  0
 10 11  1  0
 11 12  2  0
 12  7  1  0
 12  4  1  0
 13 14  2  0
 15 16  1  0
 15 13  1  0
 16 17  1  6
 17 18  1  0
 19 16  1  0
 20 19  2  0
 21 19  1  0
 22 21  1  0
 22 23  1  1
 24 23  1  0
 25 24  2  0
 26 25  1  0
 27 26  2  0
 27 28  1  0
 28 29  2  0
 29 24  1  0
 30 32  1  0
 30 22  1  0
 31 30  2  0
M  END
$$$$
