WCF.pdb
     RDKit          3D

 32 34  0  0  1  0  0  0  0  0999 V2000
    6.5123  -20.9420   21.4269 N   0  0  0  0  0  0  0  0  0  0  0  0
    6.0944  -20.3226   22.6597 C   0  0  1  0  0  0  0  0  0  0  0  0
    6.4286  -21.2392   23.8194 C   0  0  0  0  0  0  0  0  0  0  0  0
    6.8804  -22.5795   23.3918 C   0  0  0  0  0  0  0  0  0  0  0  0
    7.2945  -22.9196   22.1235 C   0  0  0  0  0  0  0  0  0  0  0  0
    7.6008  -24.2366   22.0854 N   0  0  0  0  0  0  0  0  0  0  0  0
    7.3985  -24.7726   23.3000 C   0  0  0  0  0  0  0  0  0  0  0  0
    7.5608  -26.0421   23.7883 C   0  0  0  0  0  0  0  0  0  0  0  0
    7.2950  -26.3749   25.1003 C   0  0  0  0  0  0  0  0  0  0  0  0
    6.8521  -25.3508   25.9056 C   0  0  0  0  0  0  0  0  0  0  0  0
    6.6759  -24.0442   25.4366 C   0  0  0  0  0  0  0  0  0  0  0  0
    6.9522  -23.7605   24.1235 C   0  0  0  0  0  0  0  0  0  0  0  0
    6.7459  -19.0013   22.8072 C   0  0  0  0  0  0  0  0  0  0  0  0
    7.6860  -18.6288   22.0550 O   0  0  0  0  0  0  0  0  0  0  0  0
    6.3409  -18.0631   23.8189 N   0  0  0  0  0  0  0  0  0  0  0  0
    6.9547  -16.7543   23.9522 C   0  0  1  0  0  0  0  0  0  0  0  0
    5.9111  -15.7413   24.4527 C   0  0  0  0  0  0  0  0  0  0  0  0
    5.3580  -16.3176   26.0813 S   0  0  0  0  0  0  0  0  0  0  0  0
    8.0229  -16.7448   24.9707 C   0  0  0  0  0  0  0  0  0  0  0  0
    8.0572  -17.6930   25.8050 O   0  0  0  0  0  0  0  0  0  0  0  0
    9.0194  -15.7420   25.0772 N   0  0  0  0  0  0  0  0  0  0  0  0
   10.0799  -15.8808   26.0887 C   0  0  1  0  0  0  0  0  0  0  0  0
   10.2136  -14.5249   26.7468 C   0  0  0  0  0  0  0  0  0  0  0  0
    9.1128  -13.5924   26.4398 C   0  0  0  0  0  0  0  0  0  0  0  0
    8.4177  -13.0751   27.5421 C   0  0  0  0  0  0  0  0  0  0  0  0
    7.3833  -12.1984   27.3189 C   0  0  0  0  0  0  0  0  0  0  0  0
    7.0485  -11.8449   26.0288 C   0  0  0  0  0  0  0  0  0  0  0  0
    7.7350  -12.3566   24.9521 C   0  0  0  0  0  0  0  0  0  0  0  0
    8.7656  -13.2298   25.1689 C   0  0  0  0  0  0  0  0  0  0  0  0
    9.7404  -16.8927   27.1032 C   0  0  0  0  0  0  0  0  0  0  0  0
    8.5961  -17.4166   27.1319 O   0  0  0  0  0  0  0  0  0  0  0  0
   10.6393  -17.3154   28.0578 O   0  0  0  0  0  0  0  0  0  0  0  0
  2  1  1  6
  2 13  1  0
  2  3  1  0
  4  3  1  0
  4  5  2  0
  6  5  1  0
  7  6  1  0
  8  7  2  0
  9  8  1  0
 10  9  2  0
 10 11  1  0
 11 12  2  0
 12  7  1  0
 12  4  1  0
 13 14  2  0
 15 16  1  0
 15 13  1  0
 16 17  1  1
 17 18  1  0
 19 16  1  0
 20 19  2  0
 21 19  1  0
 22 21  1  0
 22 23  1  1
 24 23  1  0
 25 24  2  0
 26 25  1  0
 27 26  2  0
 27 28  1  0
 28 29  2  0
 29 24  1  0
 30 32  1  0
 30 22  1  0
 31 30  2  0
M  END
$$$$
