WCF.pdb
     RDKit          3D

 32 34  0  0  1  0  0  0  0  0999 V2000
    6.1722  -17.7107   23.9350 N   0  0  0  0  0  0  0  0  0  0  0  0
    7.1982  -16.6984   23.9576 C   0  0  1  0  0  0  0  0  0  0  0  0
    7.4462  -16.2682   25.3894 C   0  0  0  0  0  0  0  0  0  0  0  0
    6.7696  -15.0031   25.7435 C   0  0  0  0  0  0  0  0  0  0  0  0
    5.5708  -14.8945   26.4120 C   0  0  0  0  0  0  0  0  0  0  0  0
    5.2362  -13.5894   26.5319 N   0  0  0  0  0  0  0  0  0  0  0  0
    6.1875  -12.8348   25.9581 C   0  0  0  0  0  0  0  0  0  0  0  0
    6.3306  -11.4801   25.8143 C   0  0  0  0  0  0  0  0  0  0  0  0
    7.4160  -10.9087   25.1834 C   0  0  0  0  0  0  0  0  0  0  0  0
    8.3621  -11.7825   24.6989 C   0  0  0  0  0  0  0  0  0  0  0  0
    8.2446  -13.1707   24.8297 C   0  0  0  0  0  0  0  0  0  0  0  0
    7.1468  -13.6936   25.4641 C   0  0  0  0  0  0  0  0  0  0  0  0
    8.4326  -17.2164   23.3251 C   0  0  0  0  0  0  0  0  0  0  0  0
    8.7903  -18.4196   23.4374 O   0  0  0  0  0  0  0  0  0  0  0  0
    9.2962  -16.3743   22.5422 N   0  0  0  0  0  0  0  0  0  0  0  0
   10.6711  -16.7352   22.2475 C   0  0  1  0  0  0  0  0  0  0  0  0
   11.2657  -15.7333   21.2433 C   0  0  0  0  0  0  0  0  0  0  0  0
   10.3320  -15.9194   19.6993 S   0  0  0  0  0  0  0  0  0  0  0  0
   11.5349  -16.6460   23.4409 C   0  0  0  0  0  0  0  0  0  0  0  0
   12.3609  -15.6923   23.5070 O   0  0  0  0  0  0  0  0  0  0  0  0
   11.5006  -17.5593   24.5247 N   0  0  0  0  0  0  0  0  0  0  0  0
   12.4621  -17.4076   25.6291 C   0  0  1  0  0  0  0  0  0  0  0  0
   11.6425  -17.3888   26.9009 C   0  0  0  0  0  0  0  0  0  0  0  0
   10.8305  -16.1703   27.0792 C   0  0  0  0  0  0  0  0  0  0  0  0
    9.5134  -16.2323   26.6026 C   0  0  0  0  0  0  0  0  0  0  0  0
    8.7072  -15.1283   26.7434 C   0  0  0  0  0  0  0  0  0  0  0  0
    9.2004  -13.9895   27.3442 C   0  0  0  0  0  0  0  0  0  0  0  0
   10.4940  -13.9361   27.8095 C   0  0  0  0  0  0  0  0  0  0  0  0
   11.3006  -15.0324   27.6718 C   0  0  0  0  0  0  0  0  0  0  0  0
   13.4235  -18.5221   25.6755 C   0  0  0  0  0  0  0  0  0  0  0  0
   14.3791  -18.5138   26.4949 O   0  0  0  0  0  0  0  0  0  0  0  0
   13.3313  -19.6153   24.8424 O   0  0  0  0  0  0  0  0  0  0  0  0
  2  1  1  1
  2 13  1  0
  2  3  1  0
  4  3  1  0
  4  5  2  0
  6  5  1  0
  7  6  1  0
  8  7  2  0
  9  8  1  0
 10  9  2  0
 10 11  1  0
 11 12  2  0
 12  7  1  0
 12  4  1  0
 13 14  2  0
 15 16  1  0
 15 13  1  0
 16 17  1  6
 17 18  1  0
 19 16  1  0
 20 19  2  0
 21 19  1  0
 22 21  1  0
 22 23  1  1
 24 23  1  0
 25 24  2  0
 26 25  1  0
 27 26  2  0
 27 28  1  0
 28 29  2  0
 29 24  1  0
 30 32  1  0
 30 22  1  0
 31 30  2  0
M  END
$$$$
