WCF.pdb
     RDKit          3D

 32 34  0  0  1  0  0  0  0  0999 V2000
    6.1781  -17.1014   20.2510 N   0  0  0  0  0  0  0  0  0  0  0  0
    7.2331  -16.4352   20.9729 C   0  0  1  0  0  0  0  0  0  0  0  0
    6.9713  -14.9425   20.9786 C   0  0  0  0  0  0  0  0  0  0  0  0
    7.7423  -14.2114   19.9516 C   0  0  0  0  0  0  0  0  0  0  0  0
    7.2091  -13.5482   18.8693 C   0  0  0  0  0  0  0  0  0  0  0  0
    8.2080  -13.0252   18.1220 N   0  0  0  0  0  0  0  0  0  0  0  0
    9.3879  -13.3281   18.6874 C   0  0  0  0  0  0  0  0  0  0  0  0
   10.6806  -13.0376   18.3398 C   0  0  0  0  0  0  0  0  0  0  0  0
   11.7637  -13.4517   19.0870 C   0  0  0  0  0  0  0  0  0  0  0  0
   11.4745  -14.1822   20.2167 C   0  0  0  0  0  0  0  0  0  0  0  0
   10.1651  -14.4954   20.5982 C   0  0  0  0  0  0  0  0  0  0  0  0
    9.1195  -14.0629   19.8231 C   0  0  0  0  0  0  0  0  0  0  0  0
    7.3233  -16.9756   22.3484 C   0  0  0  0  0  0  0  0  0  0  0  0
    6.3042  -17.1503   23.0689 O   0  0  0  0  0  0  0  0  0  0  0  0
    8.5825  -17.3352   22.9425 N   0  0  0  0  0  0  0  0  0  0  0  0
    8.7014  -17.7064   24.3409 C   0  0  1  0  0  0  0  0  0  0  0  0
    9.2056  -19.1553   24.4510 C   0  0  0  0  0  0  0  0  0  0  0  0
   10.5752  -19.3263   23.2739 S   0  0  0  0  0  0  0  0  0  0  0  0
    9.7095  -16.8911   25.0463 C   0  0  0  0  0  0  0  0  0  0  0  0
   10.7793  -16.6098   24.4361 O   0  0  0  0  0  0  0  0  0  0  0  0
    9.5591  -16.3974   26.3667 N   0  0  0  0  0  0  0  0  0  0  0  0
   10.6814  -15.6926   27.0075 C   0  0  1  0  0  0  0  0  0  0  0  0
   10.4561  -14.2190   26.7480 C   0  0  0  0  0  0  0  0  0  0  0  0
    9.0938  -13.7505   27.0650 C   0  0  0  0  0  0  0  0  0  0  0  0
    8.0600  -14.2894   26.2862 C   0  0  0  0  0  0  0  0  0  0  0  0
    6.7683  -13.8929   26.5369 C   0  0  0  0  0  0  0  0  0  0  0  0
    6.5117  -12.9814   27.5392 C   0  0  0  0  0  0  0  0  0  0  0  0
    7.5313  -12.4568   28.2993 C   0  0  0  0  0  0  0  0  0  0  0  0
    8.8189  -12.8482   28.0537 C   0  0  0  0  0  0  0  0  0  0  0  0
   10.7263  -15.9390   28.4587 C   0  0  0  0  0  0  0  0  0  0  0  0
   11.5839  -15.3683   29.1822 O   0  0  0  0  0  0  0  0  0  0  0  0
    9.8480  -16.7898   29.0932 O   0  0  0  0  0  0  0  0  0  0  0  0
  2  1  1  6
  2 13  1  0
  2  3  1  0
  4  3  1  0
  4  5  2  0
  6  5  1  0
  7  6  1  0
  8  7  2  0
  9  8  1  0
 10  9  2  0
 10 11  1  0
 11 12  2  0
 12  7  1  0
 12  4  1  0
 13 14  2  0
 15 16  1  0
 15 13  1  0
 16 17  1  6
 17 18  1  0
 19 16  1  0
 20 19  2  0
 21 19  1  0
 22 21  1  0
 22 23  1  1
 24 23  1  0
 25 24  2  0
 26 25  1  0
 27 26  2  0
 27 28  1  0
 28 29  2  0
 29 24  1  0
 30 32  1  0
 30 22  1  0
 31 30  2  0
M  END
$$$$
