WCF.pdb
     RDKit          3D

 32 34  0  0  1  0  0  0  0  0999 V2000
   10.1146  -15.8293   22.0989 N   0  0  0  0  0  0  0  0  0  0  0  0
    9.6764  -15.3998   23.4034 C   0  0  1  0  0  0  0  0  0  0  0  0
    8.2343  -15.8172   23.6102 C   0  0  0  0  0  0  0  0  0  0  0  0
    7.3190  -14.6739   23.8072 C   0  0  0  0  0  0  0  0  0  0  0  0
    6.4552  -14.1660   22.8630 C   0  0  0  0  0  0  0  0  0  0  0  0
    5.7994  -13.1002   23.3765 N   0  0  0  0  0  0  0  0  0  0  0  0
    6.2110  -12.8940   24.6381 C   0  0  0  0  0  0  0  0  0  0  0  0
    5.8624  -11.9662   25.5837 C   0  0  0  0  0  0  0  0  0  0  0  0
    6.4182  -11.9444   26.8460 C   0  0  0  0  0  0  0  0  0  0  0  0
    7.3546  -12.9172   27.1107 C   0  0  0  0  0  0  0  0  0  0  0  0
    7.7321  -13.8783   26.1662 C   0  0  0  0  0  0  0  0  0  0  0  0
    7.1528  -13.8602   24.9232 C   0  0  0  0  0  0  0  0  0  0  0  0
   10.5608  -15.9685   24.4458 C   0  0  0  0  0  0  0  0  0  0  0  0
   11.2453  -17.0086   24.2508 O   0  0  0  0  0  0  0  0  0  0  0  0
   10.6915  -15.3640   25.7440 N   0  0  0  0  0  0  0  0  0  0  0  0
   11.5079  -15.9488   26.7922 C   0  0  1  0  0  0  0  0  0  0  0  0
   11.6604  -14.9472   27.9495 C   0  0  0  0  0  0  0  0  0  0  0  0
   10.0321  -14.1909   28.2082 S   0  0  0  0  0  0  0  0  0  0  0  0
   10.8715  -17.1383   27.3911 C   0  0  0  0  0  0  0  0  0  0  0  0
    9.7568  -16.9896   27.9668 O   0  0  0  0  0  0  0  0  0  0  0  0
   11.4257  -18.4429   27.3632 N   0  0  0  0  0  0  0  0  0  0  0  0
   10.7487  -19.5318   28.0864 C   0  0  1  0  0  0  0  0  0  0  0  0
   10.3013  -20.5219   27.0333 C   0  0  0  0  0  0  0  0  0  0  0  0
    9.3546  -19.9688   26.0465 C   0  0  0  0  0  0  0  0  0  0  0  0
    9.8851  -19.6710   24.7833 C   0  0  0  0  0  0  0  0  0  0  0  0
    9.0504  -19.1557   23.8209 C   0  0  0  0  0  0  0  0  0  0  0  0
    7.7191  -18.9419   24.1090 C   0  0  0  0  0  0  0  0  0  0  0  0
    7.2056  -19.2366   25.3509 C   0  0  0  0  0  0  0  0  0  0  0  0
    8.0324  -19.7496   26.3125 C   0  0  0  0  0  0  0  0  0  0  0  0
   11.6497  -20.1980   29.0419 C   0  0  0  0  0  0  0  0  0  0  0  0
   11.2559  -20.4901   30.2014 O   0  0  0  0  0  0  0  0  0  0  0  0
   12.9477  -20.5339   28.7256 O   0  0  0  0  0  0  0  0  0  0  0  0
  2  1  1  6
  2 13  1  0
  2  3  1  0
  4  3  1  0
  4  5  2  0
  6  5  1  0
  7  6  1  0
  8  7  2  0
  9  8  1  0
 10  9  2  0
 10 11  1  0
 11 12  2  0
 12  7  1  0
 12  4  1  0
 13 14  2  0
 15 16  1  0
 15 13  1  0
 16 17  1  1
 17 18  1  0
 19 16  1  0
 20 19  2  0
 21 19  1  0
 22 21  1  0
 22 23  1  6
 24 23  1  0
 25 24  2  0
 26 25  1  0
 27 26  2  0
 27 28  1  0
 28 29  2  0
 29 24  1  0
 30 32  1  0
 30 22  1  0
 31 30  2  0
M  END
$$$$
