WCF.pdb
     RDKit          3D

 32 34  0  0  1  0  0  0  0  0999 V2000
    6.4703  -18.3743   24.7185 N   0  0  0  0  0  0  0  0  0  0  0  0
    7.3531  -17.5284   23.9549 C   0  0  1  0  0  0  0  0  0  0  0  0
    8.0423  -16.5523   24.8871 C   0  0  0  0  0  0  0  0  0  0  0  0
    7.1087  -15.6111   25.5398 C   0  0  0  0  0  0  0  0  0  0  0  0
    5.9188  -15.9508   26.1436 C   0  0  0  0  0  0  0  0  0  0  0  0
    5.3090  -14.8338   26.6021 N   0  0  0  0  0  0  0  0  0  0  0  0
    6.0701  -13.7653   26.3147 C   0  0  0  0  0  0  0  0  0  0  0  0
    5.9141  -12.4268   26.5610 C   0  0  0  0  0  0  0  0  0  0  0  0
    6.8456  -11.4853   26.1756 C   0  0  0  0  0  0  0  0  0  0  0  0
    7.9564  -11.9668   25.5216 C   0  0  0  0  0  0  0  0  0  0  0  0
    8.1445  -13.3276   25.2551 C   0  0  0  0  0  0  0  0  0  0  0  0
    7.1904  -14.2273   25.6566 C   0  0  0  0  0  0  0  0  0  0  0  0
    8.3327  -18.3570   23.2160 C   0  0  0  0  0  0  0  0  0  0  0  0
    9.5288  -18.4788   23.5936 O   0  0  0  0  0  0  0  0  0  0  0  0
    7.9740  -19.0744   22.0224 N   0  0  0  0  0  0  0  0  0  0  0  0
    8.2556  -18.5591   20.6948 C   0  0  1  0  0  0  0  0  0  0  0  0
    7.0250  -17.8079   20.1591 C   0  0  0  0  0  0  0  0  0  0  0  0
    5.7570  -19.0573   19.8103 S   0  0  0  0  0  0  0  0  0  0  0  0
    9.3431  -17.5612   20.7073 C   0  0  0  0  0  0  0  0  0  0  0  0
    9.8349  -17.2041   19.5997 O   0  0  0  0  0  0  0  0  0  0  0  0
    9.8753  -16.9711   21.8813 N   0  0  0  0  0  0  0  0  0  0  0  0
   10.9763  -16.0005   21.7676 C   0  0  1  0  0  0  0  0  0  0  0  0
   10.4411  -14.6921   22.3073 C   0  0  0  0  0  0  0  0  0  0  0  0
    9.2610  -14.1782   21.5867 C   0  0  0  0  0  0  0  0  0  0  0  0
    9.5132  -13.5567   20.3555 C   0  0  0  0  0  0  0  0  0  0  0  0
    8.4525  -13.0605   19.6363 C   0  0  0  0  0  0  0  0  0  0  0  0
    7.1710  -13.1800   20.1310 C   0  0  0  0  0  0  0  0  0  0  0  0
    6.9313  -13.7911   21.3400 C   0  0  0  0  0  0  0  0  0  0  0  0
    7.9837  -14.2867   22.0598 C   0  0  0  0  0  0  0  0  0  0  0  0
   12.1541  -16.4139   22.5489 C   0  0  0  0  0  0  0  0  0  0  0  0
   12.1027  -17.4159   23.3092 O   0  0  0  0  0  0  0  0  0  0  0  0
   13.3549  -15.7413   22.4909 O   0  0  0  0  0  0  0  0  0  0  0  0
  2  1  1  1
  2 13  1  0
  2  3  1  0
  4  3  1  0
  4  5  2  0
  6  5  1  0
  7  6  1  0
  8  7  2  0
  9  8  1  0
 10  9  2  0
 10 11  1  0
 11 12  2  0
 12  7  1  0
 12  4  1  0
 13 14  2  0
 15 16  1  0
 15 13  1  0
 16 17  1  1
 17 18  1  0
 19 16  1  0
 20 19  2  0
 21 19  1  0
 22 21  1  0
 22 23  1  1
 24 23  1  0
 25 24  2  0
 26 25  1  0
 27 26  2  0
 27 28  1  0
 28 29  2  0
 29 24  1  0
 30 32  1  0
 30 22  1  0
 31 30  2  0
M  END
$$$$
