WCF.pdb
     RDKit          3D

 32 34  0  0  1  0  0  0  0  0999 V2000
    7.7721  -17.8949   21.5279 N   0  0  0  0  0  0  0  0  0  0  0  0
    8.4734  -16.8190   22.1825 C   0  0  1  0  0  0  0  0  0  0  0  0
    7.4777  -15.7614   22.6145 C   0  0  0  0  0  0  0  0  0  0  0  0
    6.9696  -14.9458   21.4919 C   0  0  0  0  0  0  0  0  0  0  0  0
    5.7471  -15.0995   20.8777 C   0  0  0  0  0  0  0  0  0  0  0  0
    5.6322  -14.2062   19.8684 N   0  0  0  0  0  0  0  0  0  0  0  0
    6.7513  -13.4666   19.8035 C   0  0  0  0  0  0  0  0  0  0  0  0
    7.1341  -12.4404   18.9807 C   0  0  0  0  0  0  0  0  0  0  0  0
    8.3526  -11.8051   19.1003 C   0  0  0  0  0  0  0  0  0  0  0  0
    9.1761  -12.2616   20.1038 C   0  0  0  0  0  0  0  0  0  0  0  0
    8.8141  -13.3075   20.9599 C   0  0  0  0  0  0  0  0  0  0  0  0
    7.5921  -13.9101   20.8025 C   0  0  0  0  0  0  0  0  0  0  0  0
    9.2415  -17.3439   23.3343 C   0  0  0  0  0  0  0  0  0  0  0  0
    8.7590  -18.1912   24.1327 O   0  0  0  0  0  0  0  0  0  0  0  0
   10.5872  -16.9172   23.6082 N   0  0  0  0  0  0  0  0  0  0  0  0
   11.3411  -17.4134   24.7452 C   0  0  1  0  0  0  0  0  0  0  0  0
   12.8369  -17.4676   24.3911 C   0  0  0  0  0  0  0  0  0  0  0  0
   13.0209  -18.7011   23.0738 S   0  0  0  0  0  0  0  0  0  0  0  0
   11.2510  -16.5076   25.9071 C   0  0  0  0  0  0  0  0  0  0  0  0
   11.9067  -15.4283   25.8716 O   0  0  0  0  0  0  0  0  0  0  0  0
   10.4743  -16.7647   27.0649 N   0  0  0  0  0  0  0  0  0  0  0  0
   10.7038  -15.9679   28.2813 C   0  0  1  0  0  0  0  0  0  0  0  0
    9.3567  -15.4013   28.6735 C   0  0  0  0  0  0  0  0  0  0  0  0
    8.6996  -14.6143   27.6130 C   0  0  0  0  0  0  0  0  0  0  0  0
    8.9882  -13.2423   27.5952 C   0  0  0  0  0  0  0  0  0  0  0  0
    8.4076  -12.4576   26.6280 C   0  0  0  0  0  0  0  0  0  0  0  0
    7.5598  -13.0249   25.7004 C   0  0  0  0  0  0  0  0  0  0  0  0
    7.2814  -14.3719   25.7241 C   0  0  0  0  0  0  0  0  0  0  0  0
    7.8567  -15.1576   26.6849 C   0  0  0  0  0  0  0  0  0  0  0  0
   11.2354  -16.7891   29.3820 C   0  0  0  0  0  0  0  0  0  0  0  0
   11.5297  -16.2682   30.4896 O   0  0  0  0  0  0  0  0  0  0  0  0
   11.4347  -18.1471   29.2638 O   0  0  0  0  0  0  0  0  0  0  0  0
  2  1  1  1
  2 13  1  0
  2  3  1  0
  4  3  1  0
  4  5  2  0
  6  5  1  0
  7  6  1  0
  8  7  2  0
  9  8  1  0
 10  9  2  0
 10 11  1  0
 11 12  2  0
 12  7  1  0
 12  4  1  0
 13 14  2  0
 15 16  1  0
 15 13  1  0
 16 17  1  6
 17 18  1  0
 19 16  1  0
 20 19  2  0
 21 19  1  0
 22 21  1  0
 22 23  1  1
 24 23  1  0
 25 24  2  0
 26 25  1  0
 27 26  2  0
 27 28  1  0
 28 29  2  0
 29 24  1  0
 30 32  1  0
 30 22  1  0
 31 30  2  0
M  END
$$$$
