WCF.pdb
     RDKit          3D

 32 34  0  0  1  0  0  0  0  0999 V2000
    6.5439  -18.3201   24.5654 N   0  0  0  0  0  0  0  0  0  0  0  0
    7.0185  -17.0499   24.0763 C   0  0  1  0  0  0  0  0  0  0  0  0
    7.6410  -16.2736   25.2194 C   0  0  0  0  0  0  0  0  0  0  0  0
    6.7945  -15.1607   25.6974 C   0  0  0  0  0  0  0  0  0  0  0  0
    5.6610  -15.2889   26.4684 C   0  0  0  0  0  0  0  0  0  0  0  0
    5.1220  -14.0677   26.6871 N   0  0  0  0  0  0  0  0  0  0  0  0
    5.8746  -13.1370   26.0781 C   0  0  0  0  0  0  0  0  0  0  0  0
    5.7716  -11.7734   25.9973 C   0  0  0  0  0  0  0  0  0  0  0  0
    6.6817  -10.9973   25.3103 C   0  0  0  0  0  0  0  0  0  0  0  0
    7.7142  -11.6732   24.7015 C   0  0  0  0  0  0  0  0  0  0  0  0
    7.8468  -13.0648   24.7654 C   0  0  0  0  0  0  0  0  0  0  0  0
    6.9165  -13.7954   25.4596 C   0  0  0  0  0  0  0  0  0  0  0  0
    7.9849  -17.2620   22.9748 C   0  0  0  0  0  0  0  0  0  0  0  0
    8.6933  -18.3011   22.8943 O   0  0  0  0  0  0  0  0  0  0  0  0
    8.1699  -16.2925   21.9290 N   0  0  0  0  0  0  0  0  0  0  0  0
    9.4014  -16.2017   21.1657 C   0  0  1  0  0  0  0  0  0  0  0  0
    9.3776  -14.9354   20.2930 C   0  0  0  0  0  0  0  0  0  0  0  0
    7.6882  -14.7692   19.6535 S   0  0  0  0  0  0  0  0  0  0  0  0
   10.5829  -16.0491   22.0371 C   0  0  0  0  0  0  0  0  0  0  0  0
   11.7130  -15.9156   21.4883 O   0  0  0  0  0  0  0  0  0  0  0  0
   10.5373  -16.0397   23.4541 N   0  0  0  0  0  0  0  0  0  0  0  0
   11.7950  -15.9963   24.2178 C   0  0  1  0  0  0  0  0  0  0  0  0
   11.6606  -14.8401   25.1846 C   0  0  0  0  0  0  0  0  0  0  0  0
   11.0422  -15.1993   26.4747 C   0  0  0  0  0  0  0  0  0  0  0  0
   11.9089  -15.7053   27.4538 C   0  0  0  0  0  0  0  0  0  0  0  0
   11.3910  -16.0547   28.6778 C   0  0  0  0  0  0  0  0  0  0  0  0
   10.0422  -15.9042   28.9215 C   0  0  0  0  0  0  0  0  0  0  0  0
    9.1979  -15.4070   27.9558 C   0  0  0  0  0  0  0  0  0  0  0  0
    9.7085  -15.0577   26.7357 C   0  0  0  0  0  0  0  0  0  0  0  0
   12.0250  -17.2436   24.9660 C   0  0  0  0  0  0  0  0  0  0  0  0
   13.0857  -17.4143   25.6221 O   0  0  0  0  0  0  0  0  0  0  0  0
   11.1092  -18.2725   24.9905 O   0  0  0  0  0  0  0  0  0  0  0  0
  2  1  1  1
  2 13  1  0
  2  3  1  0
  4  3  1  0
  4  5  2  0
  6  5  1  0
  7  6  1  0
  8  7  2  0
  9  8  1  0
 10  9  2  0
 10 11  1  0
 11 12  2  0
 12  7  1  0
 12  4  1  0
 13 14  2  0
 15 16  1  0
 15 13  1  0
 16 17  1  6
 17 18  1  0
 19 16  1  0
 20 19  2  0
 21 19  1  0
 22 21  1  0
 22 23  1  1
 24 23  1  0
 25 24  2  0
 26 25  1  0
 27 26  2  0
 27 28  1  0
 28 29  2  0
 29 24  1  0
 30 32  1  0
 30 22  1  0
 31 30  2  0
M  END
$$$$
