WCF.pdb
     RDKit          3D

 32 34  0  0  1  0  0  0  0  0999 V2000
    6.9772  -17.7794   20.4591 N   0  0  0  0  0  0  0  0  0  0  0  0
    8.3262  -17.3801   20.1447 C   0  0  1  0  0  0  0  0  0  0  0  0
    8.4824  -17.2829   18.6405 C   0  0  0  0  0  0  0  0  0  0  0  0
    8.0644  -18.5095   17.9304 C   0  0  0  0  0  0  0  0  0  0  0  0
    7.1070  -18.5782   16.9434 C   0  0  0  0  0  0  0  0  0  0  0  0
    6.9582  -19.8626   16.5459 N   0  0  0  0  0  0  0  0  0  0  0  0
    7.7963  -20.6423   17.2481 C   0  0  0  0  0  0  0  0  0  0  0  0
    8.0397  -21.9902   17.2278 C   0  0  0  0  0  0  0  0  0  0  0  0
    8.9714  -22.5911   18.0486 C   0  0  0  0  0  0  0  0  0  0  0  0
    9.6544  -21.7545   18.9012 C   0  0  0  0  0  0  0  0  0  0  0  0
    9.4284  -20.3742   18.9458 C   0  0  0  0  0  0  0  0  0  0  0  0
    8.4909  -19.8213   18.1113 C   0  0  0  0  0  0  0  0  0  0  0  0
    8.6394  -16.0935   20.8071 C   0  0  0  0  0  0  0  0  0  0  0  0
    9.0580  -15.0928   20.1656 O   0  0  0  0  0  0  0  0  0  0  0  0
    8.4817  -15.9106   22.2247 N   0  0  0  0  0  0  0  0  0  0  0  0
    8.7066  -14.6299   22.8703 C   0  0  1  0  0  0  0  0  0  0  0  0
    7.5551  -13.6688   22.5295 C   0  0  0  0  0  0  0  0  0  0  0  0
    6.2428  -13.9685   23.7454 S   0  0  0  0  0  0  0  0  0  0  0  0
    8.6944  -14.7421   24.3420 C   0  0  0  0  0  0  0  0  0  0  0  0
    8.0538  -13.8737   24.9991 O   0  0  0  0  0  0  0  0  0  0  0  0
    9.3530  -15.7627   25.0731 N   0  0  0  0  0  0  0  0  0  0  0  0
   10.6137  -15.4558   25.7682 C   0  0  1  0  0  0  0  0  0  0  0  0
   10.2442  -15.1866   27.2107 C   0  0  0  0  0  0  0  0  0  0  0  0
    9.2698  -14.0941   27.3915 C   0  0  0  0  0  0  0  0  0  0  0  0
    9.8081  -12.8208   27.6260 C   0  0  0  0  0  0  0  0  0  0  0  0
    8.9494  -11.7621   27.7994 C   0  0  0  0  0  0  0  0  0  0  0  0
    7.5869  -11.9658   27.7409 C   0  0  0  0  0  0  0  0  0  0  0  0
    7.0660  -13.2181   27.5104 C   0  0  0  0  0  0  0  0  0  0  0  0
    7.9166  -14.2754   27.3372 C   0  0  0  0  0  0  0  0  0  0  0  0
   11.5637  -16.5791   25.7015 C   0  0  0  0  0  0  0  0  0  0  0  0
   11.2484  -17.6555   25.1302 O   0  0  0  0  0  0  0  0  0  0  0  0
   12.8265  -16.5148   26.2484 O   0  0  0  0  0  0  0  0  0  0  0  0
  2  1  1  6
  2 13  1  0
  2  3  1  0
  4  3  1  0
  4  5  2  0
  6  5  1  0
  7  6  1  0
  8  7  2  0
  9  8  1  0
 10  9  2  0
 10 11  1  0
 11 12  2  0
 12  7  1  0
 12  4  1  0
 13 14  2  0
 15 16  1  0
 15 13  1  0
 16 17  1  1
 17 18  1  0
 19 16  1  0
 20 19  2  0
 21 19  1  0
 22 21  1  0
 22 23  1  1
 24 23  1  0
 25 24  2  0
 26 25  1  0
 27 26  2  0
 27 28  1  0
 28 29  2  0
 29 24  1  0
 30 32  1  0
 30 22  1  0
 31 30  2  0
M  END
$$$$
