WCF.pdb
     RDKit          3D

 32 34  0  0  1  0  0  0  0  0999 V2000
    9.0181  -17.7817   20.4676 N   0  0  0  0  0  0  0  0  0  0  0  0
    9.0815  -16.9212   21.6224 C   0  0  1  0  0  0  0  0  0  0  0  0
    7.6944  -16.3952   21.9322 C   0  0  0  0  0  0  0  0  0  0  0  0
    7.2140  -15.4029   20.9483 C   0  0  0  0  0  0  0  0  0  0  0  0
    6.3003  -15.6437   19.9469 C   0  0  0  0  0  0  0  0  0  0  0  0
    6.1238  -14.5196   19.2155 N   0  0  0  0  0  0  0  0  0  0  0  0
    6.9000  -13.5428   19.7123 C   0  0  0  0  0  0  0  0  0  0  0  0
    7.0859  -12.2352   19.3485 C   0  0  0  0  0  0  0  0  0  0  0  0
    7.9453  -11.3905   20.0198 C   0  0  0  0  0  0  0  0  0  0  0  0
    8.6161  -11.9367   21.0899 C   0  0  0  0  0  0  0  0  0  0  0  0
    8.4481  -13.2682   21.4860 C   0  0  0  0  0  0  0  0  0  0  0  0
    7.5831  -14.0713   20.7874 C   0  0  0  0  0  0  0  0  0  0  0  0
    9.6510  -17.6601   22.7722 C   0  0  0  0  0  0  0  0  0  0  0  0
    9.3747  -18.8691   22.9963 O   0  0  0  0  0  0  0  0  0  0  0  0
   10.5564  -17.0396   23.7011 N   0  0  0  0  0  0  0  0  0  0  0  0
   11.0339  -17.7213   24.8905 C   0  0  1  0  0  0  0  0  0  0  0  0
   12.4439  -18.2807   24.6359 C   0  0  0  0  0  0  0  0  0  0  0  0
   12.8113  -18.0018   22.8816 S   0  0  0  0  0  0  0  0  0  0  0  0
   11.1835  -16.8004   26.0342 C   0  0  0  0  0  0  0  0  0  0  0  0
   11.9474  -15.8033   25.8984 O   0  0  0  0  0  0  0  0  0  0  0  0
   10.5247  -16.9564   27.2798 N   0  0  0  0  0  0  0  0  0  0  0  0
   10.8945  -16.0855   28.4075 C   0  0  1  0  0  0  0  0  0  0  0  0
    9.6103  -15.4386   28.8784 C   0  0  0  0  0  0  0  0  0  0  0  0
    8.8276  -14.7969   27.8054 C   0  0  0  0  0  0  0  0  0  0  0  0
    9.1417  -13.4586   27.5294 C   0  0  0  0  0  0  0  0  0  0  0  0
    8.4479  -12.8080   26.5376 C   0  0  0  0  0  0  0  0  0  0  0  0
    7.4645  -13.4737   25.8369 C   0  0  0  0  0  0  0  0  0  0  0  0
    7.1617  -14.7870   26.1133 C   0  0  0  0  0  0  0  0  0  0  0  0
    7.8495  -15.4391   27.0998 C   0  0  0  0  0  0  0  0  0  0  0  0
   11.4997  -16.8476   29.5128 C   0  0  0  0  0  0  0  0  0  0  0  0
   11.9898  -16.2559   30.5099 O   0  0  0  0  0  0  0  0  0  0  0  0
   11.5602  -18.2239   29.5177 O   0  0  0  0  0  0  0  0  0  0  0  0
  2  1  1  6
  2 13  1  0
  2  3  1  0
  4  3  1  0
  4  5  2  0
  6  5  1  0
  7  6  1  0
  8  7  2  0
  9  8  1  0
 10  9  2  0
 10 11  1  0
 11 12  2  0
 12  7  1  0
 12  4  1  0
 13 14  2  0
 15 16  1  0
 15 13  1  0
 16 17  1  6
 17 18  1  0
 19 16  1  0
 20 19  2  0
 21 19  1  0
 22 21  1  0
 22 23  1  1
 24 23  1  0
 25 24  2  0
 26 25  1  0
 27 26  2  0
 27 28  1  0
 28 29  2  0
 29 24  1  0
 30 32  1  0
 30 22  1  0
 31 30  2  0
M  END
$$$$
