WCF.pdb
     RDKit          3D

 32 34  0  0  1  0  0  0  0  0999 V2000
    6.5181  -18.2628   23.8338 N   0  0  0  0  0  0  0  0  0  0  0  0
    7.4571  -17.1875   24.0342 C   0  0  1  0  0  0  0  0  0  0  0  0
    7.3973  -16.7326   25.4785 C   0  0  0  0  0  0  0  0  0  0  0  0
    6.5674  -15.5260   25.6759 C   0  0  0  0  0  0  0  0  0  0  0  0
    5.4075  -15.4623   26.4149 C   0  0  0  0  0  0  0  0  0  0  0  0
    4.8958  -14.2119   26.3471 N   0  0  0  0  0  0  0  0  0  0  0  0
    5.6924  -13.4496   25.5803 C   0  0  0  0  0  0  0  0  0  0  0  0
    5.6295  -12.1335   25.2054 C   0  0  0  0  0  0  0  0  0  0  0  0
    6.5816  -11.5421   24.4014 C   0  0  0  0  0  0  0  0  0  0  0  0
    7.6134  -12.3539   23.9894 C   0  0  0  0  0  0  0  0  0  0  0  0
    7.7055  -13.7015   24.3550 C   0  0  0  0  0  0  0  0  0  0  0  0
    6.7344  -14.2467   25.1555 C   0  0  0  0  0  0  0  0  0  0  0  0
    8.8195  -17.6306   23.6607 C   0  0  0  0  0  0  0  0  0  0  0  0
    9.1877  -18.8311   23.7677 O   0  0  0  0  0  0  0  0  0  0  0  0
    9.8036  -16.7143   23.1510 N   0  0  0  0  0  0  0  0  0  0  0  0
   11.2263  -16.9990   23.2002 C   0  0  1  0  0  0  0  0  0  0  0  0
   12.0012  -15.8949   22.4612 C   0  0  0  0  0  0  0  0  0  0  0  0
   11.2582  -15.7440   20.8132 S   0  0  0  0  0  0  0  0  0  0  0  0
   11.7473  -16.9797   24.5810 C   0  0  0  0  0  0  0  0  0  0  0  0
   12.8413  -16.3852   24.7953 O   0  0  0  0  0  0  0  0  0  0  0  0
   11.1013  -17.5829   25.6895 N   0  0  0  0  0  0  0  0  0  0  0  0
   11.8425  -17.7626   26.9486 C   0  0  1  0  0  0  0  0  0  0  0  0
   10.9996  -17.1198   28.0284 C   0  0  0  0  0  0  0  0  0  0  0  0
   10.9444  -15.6476   27.9564 C   0  0  0  0  0  0  0  0  0  0  0  0
    9.7230  -15.0962   27.5442 C   0  0  0  0  0  0  0  0  0  0  0  0
    9.6098  -13.7292   27.4607 C   0  0  0  0  0  0  0  0  0  0  0  0
   10.6870  -12.9298   27.7800 C   0  0  0  0  0  0  0  0  0  0  0  0
   11.8824  -13.4781   28.1837 C   0  0  0  0  0  0  0  0  0  0  0  0
   12.0002  -14.8383   28.2684 C   0  0  0  0  0  0  0  0  0  0  0  0
   12.0504  -19.1860   27.2638 C   0  0  0  0  0  0  0  0  0  0  0  0
   11.5287  -20.0851   26.5539 O   0  0  0  0  0  0  0  0  0  0  0  0
   12.8141  -19.6045   28.3312 O   0  0  0  0  0  0  0  0  0  0  0  0
  2  1  1  1
  2 13  1  0
  2  3  1  0
  4  3  1  0
  4  5  2  0
  6  5  1  0
  7  6  1  0
  8  7  2  0
  9  8  1  0
 10  9  2  0
 10 11  1  0
 11 12  2  0
 12  7  1  0
 12  4  1  0
 13 14  2  0
 15 16  1  0
 15 13  1  0
 16 17  1  6
 17 18  1  0
 19 16  1  0
 20 19  2  0
 21 19  1  0
 22 21  1  0
 22 23  1  1
 24 23  1  0
 25 24  2  0
 26 25  1  0
 27 26  2  0
 27 28  1  0
 28 29  2  0
 29 24  1  0
 30 32  1  0
 30 22  1  0
 31 30  2  0
M  END
$$$$
