WCF.pdb
     RDKit          3D

 32 34  0  0  1  0  0  0  0  0999 V2000
    7.1260  -19.5210   21.3218 N   0  0  0  0  0  0  0  0  0  0  0  0
    7.5382  -18.3822   22.1036 C   0  0  1  0  0  0  0  0  0  0  0  0
    7.3588  -18.6937   23.5759 C   0  0  0  0  0  0  0  0  0  0  0  0
    6.5656  -17.6752   24.2948 C   0  0  0  0  0  0  0  0  0  0  0  0
    5.4548  -17.9234   25.0696 C   0  0  0  0  0  0  0  0  0  0  0  0
    4.9635  -16.7556   25.5436 N   0  0  0  0  0  0  0  0  0  0  0  0
    5.7255  -15.7430   25.0993 C   0  0  0  0  0  0  0  0  0  0  0  0
    5.6645  -14.3879   25.2906 C   0  0  0  0  0  0  0  0  0  0  0  0
    6.5762  -13.5154   24.7335 C   0  0  0  0  0  0  0  0  0  0  0  0
    7.5652  -14.0847   23.9645 C   0  0  0  0  0  0  0  0  0  0  0  0
    7.6542  -15.4646   23.7501 C   0  0  0  0  0  0  0  0  0  0  0  0
    6.7242  -16.2934   24.3238 C   0  0  0  0  0  0  0  0  0  0  0  0
    8.9430  -18.0358   21.7895 C   0  0  0  0  0  0  0  0  0  0  0  0
    9.8155  -18.9153   21.5583 O   0  0  0  0  0  0  0  0  0  0  0  0
    9.3937  -16.6717   21.7280 N   0  0  0  0  0  0  0  0  0  0  0  0
   10.6928  -16.2616   22.2296 C   0  0  1  0  0  0  0  0  0  0  0  0
   11.1708  -15.0127   21.4696 C   0  0  0  0  0  0  0  0  0  0  0  0
    9.7055  -14.2761   20.6944 S   0  0  0  0  0  0  0  0  0  0  0  0
   10.6355  -15.8539   23.6470 C   0  0  0  0  0  0  0  0  0  0  0  0
    9.5680  -15.3283   24.0717 O   0  0  0  0  0  0  0  0  0  0  0  0
   11.6995  -16.0138   24.5702 N   0  0  0  0  0  0  0  0  0  0  0  0
   11.3951  -16.2904   25.9836 C   0  0  1  0  0  0  0  0  0  0  0  0
    9.8997  -16.1151   26.1341 C   0  0  0  0  0  0  0  0  0  0  0  0
    9.4964  -14.8071   26.6839 C   0  0  0  0  0  0  0  0  0  0  0  0
    8.1422  -14.4713   26.5451 C   0  0  0  0  0  0  0  0  0  0  0  0
    7.7062  -13.2661   27.0407 C   0  0  0  0  0  0  0  0  0  0  0  0
    8.5970  -12.4150   27.6599 C   0  0  0  0  0  0  0  0  0  0  0  0
    9.9244  -12.7513   27.7924 C   0  0  0  0  0  0  0  0  0  0  0  0
   10.3636  -13.9499   27.3007 C   0  0  0  0  0  0  0  0  0  0  0  0
   11.7745  -17.6605   26.3679 C   0  0  0  0  0  0  0  0  0  0  0  0
   11.7599  -18.0178   27.5748 O   0  0  0  0  0  0  0  0  0  0  0  0
   12.1574  -18.6094   25.4455 O   0  0  0  0  0  0  0  0  0  0  0  0
  2  1  1  6
  2 13  1  0
  2  3  1  0
  4  3  1  0
  4  5  2  0
  6  5  1  0
  7  6  1  0
  8  7  2  0
  9  8  1  0
 10  9  2  0
 10 11  1  0
 11 12  2  0
 12  7  1  0
 12  4  1  0
 13 14  2  0
 15 16  1  0
 15 13  1  0
 16 17  1  6
 17 18  1  0
 19 16  1  0
 20 19  2  0
 21 19  1  0
 22 21  1  0
 22 23  1  6
 24 23  1  0
 25 24  2  0
 26 25  1  0
 27 26  2  0
 27 28  1  0
 28 29  2  0
 29 24  1  0
 30 32  1  0
 30 22  1  0
 31 30  2  0
M  END
$$$$
