WCF.pdb
     RDKit          3D

 32 34  0  0  1  0  0  0  0  0999 V2000
    6.2812  -20.0405   20.3898 N   0  0  0  0  0  0  0  0  0  0  0  0
    5.9527  -18.8392   21.1158 C   0  0  1  0  0  0  0  0  0  0  0  0
    5.3338  -19.2121   22.4479 C   0  0  0  0  0  0  0  0  0  0  0  0
    3.9603  -19.7430   22.3244 C   0  0  0  0  0  0  0  0  0  0  0  0
    3.3972  -20.7065   23.1308 C   0  0  0  0  0  0  0  0  0  0  0  0
    2.1406  -20.9734   22.7071 N   0  0  0  0  0  0  0  0  0  0  0  0
    1.8622  -20.2073   21.6397 C   0  0  0  0  0  0  0  0  0  0  0  0
    0.7466  -20.0881   20.8538 C   0  0  0  0  0  0  0  0  0  0  0  0
    0.6747  -19.2121   19.7908 C   0  0  0  0  0  0  0  0  0  0  0  0
    1.7979  -18.4524   19.5570 C   0  0  0  0  0  0  0  0  0  0  0  0
    2.9526  -18.5512   20.3413 C   0  0  0  0  0  0  0  0  0  0  0  0
    2.9782  -19.4374   21.3877 C   0  0  0  0  0  0  0  0  0  0  0  0
    7.1659  -18.0094   21.2944 C   0  0  0  0  0  0  0  0  0  0  0  0
    8.3261  -18.5001   21.2571 O   0  0  0  0  0  0  0  0  0  0  0  0
    7.0900  -16.5911   21.5194 N   0  0  0  0  0  0  0  0  0  0  0  0
    8.2018  -15.8324   22.0631 C   0  0  1  0  0  0  0  0  0  0  0  0
    7.7549  -14.3877   22.3438 C   0  0  0  0  0  0  0  0  0  0  0  0
    7.2494  -13.6755   20.7539 S   0  0  0  0  0  0  0  0  0  0  0  0
    8.6469  -16.3603   23.3677 C   0  0  0  0  0  0  0  0  0  0  0  0
    8.2671  -17.5181   23.7014 O   0  0  0  0  0  0  0  0  0  0  0  0
    9.4769  -15.6558   24.2759 N   0  0  0  0  0  0  0  0  0  0  0  0
   10.6290  -16.3414   24.8837 C   0  0  1  0  0  0  0  0  0  0  0  0
   11.4334  -15.2699   25.5868 C   0  0  0  0  0  0  0  0  0  0  0  0
   10.7185  -14.6046   26.6923 C   0  0  0  0  0  0  0  0  0  0  0  0
   10.8784  -15.1767   27.9623 C   0  0  0  0  0  0  0  0  0  0  0  0
   10.2388  -14.5989   29.0326 C   0  0  0  0  0  0  0  0  0  0  0  0
    9.4584  -13.4781   28.8433 C   0  0  0  0  0  0  0  0  0  0  0  0
    9.3061  -12.9223   27.5941 C   0  0  0  0  0  0  0  0  0  0  0  0
    9.9407  -13.4937   26.5253 C   0  0  0  0  0  0  0  0  0  0  0  0
   10.2076  -17.3633   25.8568 C   0  0  0  0  0  0  0  0  0  0  0  0
   11.0600  -18.0443   26.4848 O   0  0  0  0  0  0  0  0  0  0  0  0
    8.8829  -17.6245   26.1300 O   0  0  0  0  0  0  0  0  0  0  0  0
  2  1  1  1
  2 13  1  0
  2  3  1  0
  4  3  1  0
  4  5  2  0
  6  5  1  0
  7  6  1  0
  8  7  2  0
  9  8  1  0
 10  9  2  0
 10 11  1  0
 11 12  2  0
 12  7  1  0
 12  4  1  0
 13 14  2  0
 15 16  1  0
 15 13  1  0
 16 17  1  1
 17 18  1  0
 19 16  1  0
 20 19  2  0
 21 19  1  0
 22 21  1  0
 22 23  1  1
 24 23  1  0
 25 24  2  0
 26 25  1  0
 27 26  2  0
 27 28  1  0
 28 29  2  0
 29 24  1  0
 30 32  1  0
 30 22  1  0
 31 30  2  0
M  END
$$$$
