PAR.pdb
     RDKit          3D

 24 24  0  0  1  0  0  0  0  0999 V2000
    8.5714  -14.1893   18.8136 N   0  0  0  0  0  0  0  0  0  0  0  0
    8.0144  -13.0480   18.0709 C   0  0  0  0  0  0  0  0  0  0  0  0
    6.9099  -12.4877   18.9358 C   0  0  0  0  0  0  0  0  0  0  0  0
    6.7320  -13.5574   20.0248 C   0  0  0  0  0  0  0  0  0  0  0  0
    8.1592  -14.0010   20.1889 C   0  0  1  0  0  0  0  0  0  0  0  0
    8.3527  -15.2139   20.9793 C   0  0  0  0  0  0  0  0  0  0  0  0
    8.1014  -15.3024   22.2116 O   0  0  0  0  0  0  0  0  0  0  0  0
    8.9974  -18.7989   20.0766 C   0  0  0  0  0  0  0  0  0  0  0  0
    9.0347  -17.6402   21.0490 C   0  0  2  0  0  0  0  0  0  0  0  0
    8.8515  -16.3811   20.3621 N   0  0  0  0  0  0  0  0  0  0  0  0
   10.3227  -17.7025   21.7675 C   0  0  0  0  0  0  0  0  0  0  0  0
   10.6889  -18.8360   22.2000 O   0  0  0  0  0  0  0  0  0  0  0  0
   16.8350  -13.6832   18.3398 N   0  0  0  0  0  0  0  0  0  0  0  0
   15.7371  -14.5898   18.2050 C   0  0  0  0  0  0  0  0  0  0  0  0
   15.8992  -15.6068   17.4331 N   0  0  0  0  0  0  0  0  0  0  0  0
   14.5090  -14.3926   18.8884 N   0  0  0  0  0  0  0  0  0  0  0  0
   14.4566  -14.4854   20.3291 C   0  0  0  0  0  0  0  0  0  0  0  0
   13.5195  -15.6200   20.7558 C   0  0  0  0  0  0  0  0  0  0  0  0
   13.4377  -15.7128   22.2495 C   0  0  0  0  0  0  0  0  0  0  0  0
   12.4902  -16.7683   22.6769 C   0  0  2  0  0  0  0  0  0  0  0  0
   11.1865  -16.6143   22.0174 N   0  0  0  0  0  0  0  0  0  0  0  0
   12.2246  -16.6665   24.1292 C   0  0  0  0  0  0  0  0  0  0  0  0
   13.0730  -17.0872   25.1378 O   0  0  0  0  0  0  0  0  0  0  0  0
   11.1212  -16.1523   24.5466 O   0  0  0  0  0  0  0  0  0  0  0  0
  1  2  1  0
  3  2  1  0
  4  5  1  0
  4  3  1  0
  5  1  1  0
  5  6  1  1
  6  7  2  0
  9  8  1  6
  9 10  1  0
 10  6  1  0
 11  9  1  0
 12 11  2  0
 14 13  1  0
 14 15  2  0
 16 14  1  0
 17 16  1  0
 18 17  1  0
 19 18  1  0
 20 21  1  0
 20 19  1  6
 21 11  1  0
 22 20  1  0
 23 22  1  0
 24 22  2  0
M  END
$$$$
