PAR.pdb
     RDKit          3D

 24 24  0  0  1  0  0  0  0  0999 V2000
    7.1097  -14.3916   18.3670 N   0  0  0  0  0  0  0  0  0  0  0  0
    7.2244  -13.6581   17.0969 C   0  0  0  0  0  0  0  0  0  0  0  0
    8.4473  -12.7818   17.2311 C   0  0  0  0  0  0  0  0  0  0  0  0
    8.7961  -12.8822   18.7245 C   0  0  0  0  0  0  0  0  0  0  0  0
    8.4175  -14.3140   18.9840 C   0  0  1  0  0  0  0  0  0  0  0  0
    8.3730  -14.7066   20.3902 C   0  0  0  0  0  0  0  0  0  0  0  0
    7.4658  -14.3581   21.1932 O   0  0  0  0  0  0  0  0  0  0  0  0
    8.2194  -16.8717   22.5847 C   0  0  0  0  0  0  0  0  0  0  0  0
    9.4167  -15.9948   22.2897 C   0  0  2  0  0  0  0  0  0  0  0  0
    9.3915  -15.5262   20.9220 N   0  0  0  0  0  0  0  0  0  0  0  0
   10.6297  -16.7811   22.5887 C   0  0  0  0  0  0  0  0  0  0  0  0
   10.7868  -17.8655   21.9520 O   0  0  0  0  0  0  0  0  0  0  0  0
   16.9233  -14.0465   19.1593 N   0  0  0  0  0  0  0  0  0  0  0  0
   15.5395  -14.0620   18.7986 C   0  0  0  0  0  0  0  0  0  0  0  0
   15.2308  -13.6621   17.6149 N   0  0  0  0  0  0  0  0  0  0  0  0
   14.5315  -14.4985   19.6973 N   0  0  0  0  0  0  0  0  0  0  0  0
   14.8945  -15.0749   20.9712 C   0  0  0  0  0  0  0  0  0  0  0  0
   13.6488  -15.6001   21.6922 C   0  0  0  0  0  0  0  0  0  0  0  0
   14.0050  -16.1597   23.0362 C   0  0  0  0  0  0  0  0  0  0  0  0
   12.9554  -17.0766   23.5382 C   0  0  2  0  0  0  0  0  0  0  0  0
   11.6334  -16.4360   23.5194 N   0  0  0  0  0  0  0  0  0  0  0  0
   13.2134  -17.4326   24.9513 C   0  0  0  0  0  0  0  0  0  0  0  0
   14.2409  -18.2391   25.4073 O   0  0  0  0  0  0  0  0  0  0  0  0
   12.4433  -16.9822   25.8788 O   0  0  0  0  0  0  0  0  0  0  0  0
  1  2  1  0
  3  2  1  0
  4  5  1  0
  4  3  1  0
  5  1  1  0
  5  6  1  1
  6  7  2  0
  9  8  1  6
  9 10  1  0
 10  6  1  0
 11  9  1  0
 12 11  2  0
 14 13  1  0
 14 15  2  0
 16 14  1  0
 17 16  1  0
 18 17  1  0
 19 18  1  0
 20 21  1  0
 20 19  1  1
 21 11  1  0
 22 20  1  0
 23 22  1  0
 24 22  2  0
M  END
$$$$
