PAR.pdb
     RDKit          3D

 24 24  0  0  1  0  0  0  0  0999 V2000
    7.0506  -22.3968   22.1017 N   0  0  0  0  0  0  0  0  0  0  0  0
    6.7390  -23.5171   21.2005 C   0  0  0  0  0  0  0  0  0  0  0  0
    5.5024  -23.1056   20.4368 C   0  0  0  0  0  0  0  0  0  0  0  0
    5.0254  -21.8485   21.1810 C   0  0  0  0  0  0  0  0  0  0  0  0
    6.3524  -21.2505   21.5582 C   0  0  1  0  0  0  0  0  0  0  0  0
    6.2954  -20.1507   22.5176 C   0  0  0  0  0  0  0  0  0  0  0  0
    5.8283  -19.0090   22.2574 O   0  0  0  0  0  0  0  0  0  0  0  0
    7.1182  -19.8707   26.1988 C   0  0  0  0  0  0  0  0  0  0  0  0
    6.8194  -19.2964   24.8312 C   0  0  2  0  0  0  0  0  0  0  0  0
    6.7849  -20.3373   23.8282 N   0  0  0  0  0  0  0  0  0  0  0  0
    7.8460  -18.2758   24.5421 C   0  0  0  0  0  0  0  0  0  0  0  0
    8.9729  -18.6888   24.1354 O   0  0  0  0  0  0  0  0  0  0  0  0
    7.5773  -11.8277   20.3740 N   0  0  0  0  0  0  0  0  0  0  0  0
    7.9865  -12.9473   19.5839 C   0  0  0  0  0  0  0  0  0  0  0  0
    8.2607  -12.7305   18.3453 N   0  0  0  0  0  0  0  0  0  0  0  0
    8.0926  -14.2542   20.1270 N   0  0  0  0  0  0  0  0  0  0  0  0
    7.5927  -14.5320   21.4537 C   0  0  0  0  0  0  0  0  0  0  0  0
    8.6950  -14.3116   22.4948 C   0  0  0  0  0  0  0  0  0  0  0  0
    8.2025  -14.6382   23.8722 C   0  0  0  0  0  0  0  0  0  0  0  0
    8.7571  -15.9235   24.3567 C   0  0  2  0  0  0  0  0  0  0  0  0
    7.6883  -16.8795   24.6764 N   0  0  0  0  0  0  0  0  0  0  0  0
    9.5088  -15.7199   25.6150 C   0  0  0  0  0  0  0  0  0  0  0  0
   10.8086  -15.2566   25.7145 O   0  0  0  0  0  0  0  0  0  0  0  0
    8.9537  -15.9842   26.7456 O   0  0  0  0  0  0  0  0  0  0  0  0
  1  2  1  0
  3  2  1  0
  4  5  1  0
  4  3  1  0
  5  1  1  0
  5  6  1  1
  6  7  2  0
  9  8  1  1
  9 10  1  0
 10  6  1  0
 11  9  1  0
 12 11  2  0
 14 13  1  0
 14 15  2  0
 16 14  1  0
 17 16  1  0
 18 17  1  0
 19 18  1  0
 20 21  1  0
 20 19  1  1
 21 11  1  0
 22 20  1  0
 23 22  1  0
 24 22  2  0
M  END
$$$$
