PAR.pdb
     RDKit          3D

 24 24  0  0  1  0  0  0  0  0999 V2000
    9.6982  -14.2039   19.0269 N   0  0  0  0  0  0  0  0  0  0  0  0
    9.1991  -13.2524   18.0220 C   0  0  0  0  0  0  0  0  0  0  0  0
    7.6950  -13.2516   18.1602 C   0  0  0  0  0  0  0  0  0  0  0  0
    7.4208  -14.4495   19.0831 C   0  0  0  0  0  0  0  0  0  0  0  0
    8.6224  -14.3647   19.9829 C   0  0  1  0  0  0  0  0  0  0  0  0
    8.8408  -15.5202   20.8492 C   0  0  0  0  0  0  0  0  0  0  0  0
    7.9718  -15.9917   21.6314 O   0  0  0  0  0  0  0  0  0  0  0  0
   11.8532  -17.7284   21.4986 C   0  0  0  0  0  0  0  0  0  0  0  0
   10.4107  -17.3094   21.6806 C   0  0  2  0  0  0  0  0  0  0  0  0
   10.0898  -16.1774   20.8401 N   0  0  0  0  0  0  0  0  0  0  0  0
   10.2088  -17.0166   23.1132 C   0  0  0  0  0  0  0  0  0  0  0  0
   10.6209  -15.8959   23.5376 O   0  0  0  0  0  0  0  0  0  0  0  0
    4.9258  -18.7071   21.7496 N   0  0  0  0  0  0  0  0  0  0  0  0
    4.7004  -17.3779   22.2269 C   0  0  0  0  0  0  0  0  0  0  0  0
    3.7745  -16.6913   21.6545 N   0  0  0  0  0  0  0  0  0  0  0  0
    5.4579  -16.8206   23.2898 N   0  0  0  0  0  0  0  0  0  0  0  0
    6.4417  -17.6230   23.9791 C   0  0  0  0  0  0  0  0  0  0  0  0
    7.0977  -16.8128   25.1019 C   0  0  0  0  0  0  0  0  0  0  0  0
    8.0265  -17.6700   25.9074 C   0  0  0  0  0  0  0  0  0  0  0  0
    9.4325  -17.5070   25.4701 C   0  0  2  0  0  0  0  0  0  0  0  0
    9.5973  -17.8707   24.0562 N   0  0  0  0  0  0  0  0  0  0  0  0
   10.3182  -18.4177   26.2290 C   0  0  0  0  0  0  0  0  0  0  0  0
   10.5416  -18.3771   27.5938 O   0  0  0  0  0  0  0  0  0  0  0  0
   10.9643  -19.3460   25.6150 O   0  0  0  0  0  0  0  0  0  0  0  0
  1  2  1  0
  3  2  1  0
  4  5  1  0
  4  3  1  0
  5  1  1  0
  5  6  1  6
  6  7  2  0
  9  8  1  1
  9 10  1  0
 10  6  1  0
 11  9  1  0
 12 11  2  0
 14 13  1  0
 14 15  2  0
 16 14  1  0
 17 16  1  0
 18 17  1  0
 19 18  1  0
 20 21  1  0
 20 19  1  1
 21 11  1  0
 22 20  1  0
 23 22  1  0
 24 22  2  0
M  END
$$$$
