PAR.pdb
     RDKit          3D

 24 24  0  0  1  0  0  0  0  0999 V2000
    8.0074  -15.3005   16.4215 N   0  0  0  0  0  0  0  0  0  0  0  0
    7.2662  -14.9663   15.1954 C   0  0  0  0  0  0  0  0  0  0  0  0
    6.9095  -13.5030   15.3105 C   0  0  0  0  0  0  0  0  0  0  0  0
    7.2501  -13.1664   16.7708 C   0  0  0  0  0  0  0  0  0  0  0  0
    8.4615  -14.0362   16.9621 C   0  0  1  0  0  0  0  0  0  0  0  0
    8.9230  -14.1754   18.3409 C   0  0  0  0  0  0  0  0  0  0  0  0
   10.1079  -14.4591   18.6646 O   0  0  0  0  0  0  0  0  0  0  0  0
    7.2259  -13.6359   21.6864 C   0  0  0  0  0  0  0  0  0  0  0  0
    8.3988  -13.9952   20.8006 C   0  0  2  0  0  0  0  0  0  0  0  0
    8.0160  -13.9895   19.4062 N   0  0  0  0  0  0  0  0  0  0  0  0
    8.8997  -15.3134   21.2370 C   0  0  0  0  0  0  0  0  0  0  0  0
    8.3384  -16.3370   20.7439 O   0  0  0  0  0  0  0  0  0  0  0  0
   15.4527  -21.0880   22.7232 N   0  0  0  0  0  0  0  0  0  0  0  0
   15.5462  -19.9500   21.8621 C   0  0  0  0  0  0  0  0  0  0  0  0
   16.6508  -19.7781   21.2243 N   0  0  0  0  0  0  0  0  0  0  0  0
   14.4730  -19.0349   21.7037 N   0  0  0  0  0  0  0  0  0  0  0  0
   14.0088  -18.2582   22.8298 C   0  0  0  0  0  0  0  0  0  0  0  0
   12.4772  -18.2419   22.8701 C   0  0  0  0  0  0  0  0  0  0  0  0
   11.9465  -16.8939   22.4860 C   0  0  0  0  0  0  0  0  0  0  0  0
   10.4655  -16.8816   22.4563 C   0  0  2  0  0  0  0  0  0  0  0  0
    9.9487  -15.5400   22.1539 N   0  0  0  0  0  0  0  0  0  0  0  0
    9.9195  -17.2365   23.7852 C   0  0  0  0  0  0  0  0  0  0  0  0
    9.9453  -18.4945   24.3603 O   0  0  0  0  0  0  0  0  0  0  0  0
    9.3573  -16.3347   24.5112 O   0  0  0  0  0  0  0  0  0  0  0  0
  1  2  1  0
  3  2  1  0
  4  5  1  0
  4  3  1  0
  5  1  1  0
  5  6  1  1
  6  7  2  0
  9  8  1  1
  9 10  1  0
 10  6  1  0
 11  9  1  0
 12 11  2  0
 14 13  1  0
 14 15  2  0
 16 14  1  0
 17 16  1  0
 18 17  1  0
 19 18  1  0
 20 21  1  0
 20 19  1  1
 21 11  1  0
 22 20  1  0
 23 22  1  0
 24 22  2  0
M  END
$$$$
