PAR.pdb
     RDKit          3D

 24 24  0  0  1  0  0  0  0  0999 V2000
    7.8692  -14.7788   18.7092 N   0  0  0  0  0  0  0  0  0  0  0  0
    7.8373  -13.6129   17.8125 C   0  0  0  0  0  0  0  0  0  0  0  0
    8.2207  -12.4240   18.6617 C   0  0  0  0  0  0  0  0  0  0  0  0
    8.1766  -12.9794   20.0939 C   0  0  0  0  0  0  0  0  0  0  0  0
    8.6714  -14.3773   19.8460 C   0  0  1  0  0  0  0  0  0  0  0  0
    8.5211  -15.3042   20.9647 C   0  0  0  0  0  0  0  0  0  0  0  0
    7.5786  -15.2565   21.8006 O   0  0  0  0  0  0  0  0  0  0  0  0
   10.2833  -18.4776   21.9815 C   0  0  0  0  0  0  0  0  0  0  0  0
    9.4472  -17.2506   22.2728 C   0  0  2  0  0  0  0  0  0  0  0  0
    9.4701  -16.3311   21.1571 N   0  0  0  0  0  0  0  0  0  0  0  0
    9.9686  -16.6395   23.5112 C   0  0  0  0  0  0  0  0  0  0  0  0
   10.9773  -15.8803   23.4006 O   0  0  0  0  0  0  0  0  0  0  0  0
    4.4794  -12.9398   26.3286 N   0  0  0  0  0  0  0  0  0  0  0  0
    5.8024  -12.4016   26.4031 C   0  0  0  0  0  0  0  0  0  0  0  0
    5.9583  -11.1648   26.0834 N   0  0  0  0  0  0  0  0  0  0  0  0
    6.9126  -13.1855   26.8119 N   0  0  0  0  0  0  0  0  0  0  0  0
    8.2491  -12.8215   26.4015 C   0  0  0  0  0  0  0  0  0  0  0  0
    8.9145  -13.9863   25.6612 C   0  0  0  0  0  0  0  0  0  0  0  0
    9.0719  -15.1728   26.5632 C   0  0  0  0  0  0  0  0  0  0  0  0
   10.0137  -16.1654   25.9954 C   0  0  2  0  0  0  0  0  0  0  0  0
    9.4464  -16.8221   24.8099 N   0  0  0  0  0  0  0  0  0  0  0  0
   10.2752  -17.2465   26.9715 C   0  0  0  0  0  0  0  0  0  0  0  0
   11.0588  -17.1388   28.1066 O   0  0  0  0  0  0  0  0  0  0  0  0
    9.7552  -18.4106   26.7966 O   0  0  0  0  0  0  0  0  0  0  0  0
  1  2  1  0
  3  2  1  0
  4  5  1  0
  4  3  1  0
  5  1  1  0
  5  6  1  1
  6  7  2  0
  9  8  1  6
  9 10  1  0
 10  6  1  0
 11  9  1  0
 12 11  2  0
 14 13  1  0
 14 15  2  0
 16 14  1  0
 17 16  1  0
 18 17  1  0
 19 18  1  0
 20 21  1  0
 20 19  1  1
 21 11  1  0
 22 20  1  0
 23 22  1  0
 24 22  2  0
M  END
$$$$
