PAR.pdb
     RDKit          3D

 24 24  0  0  1  0  0  0  0  0999 V2000
    9.2427  -14.4737   18.0910 N   0  0  0  0  0  0  0  0  0  0  0  0
    8.9189  -13.4850   17.0508 C   0  0  0  0  0  0  0  0  0  0  0  0
    7.7263  -12.7143   17.5658 C   0  0  0  0  0  0  0  0  0  0  0  0
    7.2733  -13.5314   18.7861 C   0  0  0  0  0  0  0  0  0  0  0  0
    8.6088  -13.9921   19.3006 C   0  0  1  0  0  0  0  0  0  0  0  0
    8.5618  -15.0257   20.3315 C   0  0  0  0  0  0  0  0  0  0  0  0
    7.9560  -14.9015   21.4301 O   0  0  0  0  0  0  0  0  0  0  0  0
   10.2084  -18.4172   20.6738 C   0  0  0  0  0  0  0  0  0  0  0  0
    9.2220  -17.3425   21.0757 C   0  0  2  0  0  0  0  0  0  0  0  0
    9.2244  -16.2544   20.1234 N   0  0  0  0  0  0  0  0  0  0  0  0
    9.5799  -16.8951   22.4361 C   0  0  0  0  0  0  0  0  0  0  0  0
   10.6819  -16.2843   22.5723 O   0  0  0  0  0  0  0  0  0  0  0  0
    4.8240  -12.0903   26.4935 N   0  0  0  0  0  0  0  0  0  0  0  0
    6.1380  -11.8281   26.9937 C   0  0  0  0  0  0  0  0  0  0  0  0
    6.3830  -10.6399   27.4230 N   0  0  0  0  0  0  0  0  0  0  0  0
    7.1457  -12.8271   27.0241 N   0  0  0  0  0  0  0  0  0  0  0  0
    6.9224  -14.1035   26.3854 C   0  0  0  0  0  0  0  0  0  0  0  0
    8.1584  -14.9966   26.5339 C   0  0  0  0  0  0  0  0  0  0  0  0
    8.0000  -16.2635   25.7490 C   0  0  0  0  0  0  0  0  0  0  0  0
    9.1899  -16.5343   24.9091 C   0  0  2  0  0  0  0  0  0  0  0  0
    8.8066  -17.0843   23.6018 N   0  0  0  0  0  0  0  0  0  0  0  0
   10.0479  -17.5591   25.5443 C   0  0  0  0  0  0  0  0  0  0  0  0
    9.9716  -18.9238   25.3295 O   0  0  0  0  0  0  0  0  0  0  0  0
   10.9599  -17.2057   26.3807 O   0  0  0  0  0  0  0  0  0  0  0  0
  1  2  1  0
  3  2  1  0
  4  5  1  0
  4  3  1  0
  5  1  1  0
  5  6  1  1
  6  7  2  0
  9  8  1  6
  9 10  1  0
 10  6  1  0
 11  9  1  0
 12 11  2  0
 14 13  1  0
 14 15  2  0
 16 14  1  0
 17 16  1  0
 18 17  1  0
 19 18  1  0
 20 21  1  0
 20 19  1  1
 21 11  1  0
 22 20  1  0
 23 22  1  0
 24 22  2  0
M  END
$$$$
