PAR.pdb
     RDKit          3D

 24 24  0  0  1  0  0  0  0  0999 V2000
    9.0560  -14.5454   18.2774 N   0  0  0  0  0  0  0  0  0  0  0  0
    8.6119  -13.4802   17.3650 C   0  0  0  0  0  0  0  0  0  0  0  0
    7.5919  -12.6728   18.1326 C   0  0  0  0  0  0  0  0  0  0  0  0
    7.3200  -13.5323   19.3773 C   0  0  0  0  0  0  0  0  0  0  0  0
    8.6934  -14.0995   19.6066 C   0  0  1  0  0  0  0  0  0  0  0  0
    8.7693  -15.1873   20.5783 C   0  0  0  0  0  0  0  0  0  0  0  0
    8.3742  -15.0978   21.7721 O   0  0  0  0  0  0  0  0  0  0  0  0
    9.9230  -18.7898   20.3355 C   0  0  0  0  0  0  0  0  0  0  0  0
    9.3997  -17.5776   21.0746 C   0  0  2  0  0  0  0  0  0  0  0  0
    9.3135  -16.4322   20.1962 N   0  0  0  0  0  0  0  0  0  0  0  0
   10.2948  -17.3348   22.2230 C   0  0  0  0  0  0  0  0  0  0  0  0
   11.3430  -16.6567   22.0053 O   0  0  0  0  0  0  0  0  0  0  0  0
   10.4978  -15.0225   29.2521 N   0  0  0  0  0  0  0  0  0  0  0  0
    9.9712  -14.2119   28.1980 C   0  0  0  0  0  0  0  0  0  0  0  0
   10.5557  -13.0892   27.9649 N   0  0  0  0  0  0  0  0  0  0  0  0
    8.8490  -14.6135   27.4277 N   0  0  0  0  0  0  0  0  0  0  0  0
    8.8914  -15.8416   26.6681 C   0  0  0  0  0  0  0  0  0  0  0  0
   10.2495  -16.5290   26.8430 C   0  0  0  0  0  0  0  0  0  0  0  0
   10.3528  -17.7397   25.9655 C   0  0  0  0  0  0  0  0  0  0  0  0
   10.9702  -17.4125   24.6593 C   0  0  2  0  0  0  0  0  0  0  0  0
   10.0907  -17.7884   23.5441 N   0  0  0  0  0  0  0  0  0  0  0  0
   12.2180  -18.1853   24.4699 C   0  0  0  0  0  0  0  0  0  0  0  0
   13.4810  -17.7942   24.8773 O   0  0  0  0  0  0  0  0  0  0  0  0
   12.1835  -19.3273   23.8775 O   0  0  0  0  0  0  0  0  0  0  0  0
  1  2  1  0
  3  2  1  0
  4  5  1  0
  4  3  1  0
  5  1  1  0
  5  6  1  1
  6  7  2  0
  9  8  1  6
  9 10  1  0
 10  6  1  0
 11  9  1  0
 12 11  2  0
 14 13  1  0
 14 15  2  0
 16 14  1  0
 17 16  1  0
 18 17  1  0
 19 18  1  0
 20 21  1  0
 20 19  1  1
 21 11  1  0
 22 20  1  0
 23 22  1  0
 24 22  2  0
M  END
$$$$
