PAR.pdb
     RDKit          3D

 24 24  0  0  1  0  0  0  0  0999 V2000
   11.6799  -18.2512   16.6236 N   0  0  0  0  0  0  0  0  0  0  0  0
   11.5764  -18.3759   15.1614 C   0  0  0  0  0  0  0  0  0  0  0  0
   10.1570  -18.8092   14.8799 C   0  0  0  0  0  0  0  0  0  0  0  0
    9.6137  -19.1761   16.2699 C   0  0  0  0  0  0  0  0  0  0  0  0
   10.3185  -18.1437   17.1053 C   0  0  1  0  0  0  0  0  0  0  0  0
   10.2415  -18.3456   18.5498 C   0  0  0  0  0  0  0  0  0  0  0  0
    9.2953  -17.9306   19.2722 O   0  0  0  0  0  0  0  0  0  0  0  0
   12.3729  -20.3004   20.9926 C   0  0  0  0  0  0  0  0  0  0  0  0
   11.2544  -19.3482   20.6296 C   0  0  2  0  0  0  0  0  0  0  0  0
   11.2716  -19.0431   19.2163 N   0  0  0  0  0  0  0  0  0  0  0  0
   11.4090  -18.1402   21.4638 C   0  0  0  0  0  0  0  0  0  0  0  0
   12.3453  -17.3428   21.1581 O   0  0  0  0  0  0  0  0  0  0  0  0
    7.8074  -11.7873   20.9579 N   0  0  0  0  0  0  0  0  0  0  0  0
    7.6361  -12.9425   20.1323 C   0  0  0  0  0  0  0  0  0  0  0  0
    7.7132  -12.7775   18.8583 N   0  0  0  0  0  0  0  0  0  0  0  0
    7.3904  -14.2291   20.6785 N   0  0  0  0  0  0  0  0  0  0  0  0
    7.8283  -14.5449   22.0185 C   0  0  0  0  0  0  0  0  0  0  0  0
    9.1175  -15.3718   21.9763 C   0  0  0  0  0  0  0  0  0  0  0  0
    9.5661  -15.7337   23.3598 C   0  0  0  0  0  0  0  0  0  0  0  0
   10.8030  -16.5485   23.3339 C   0  0  2  0  0  0  0  0  0  0  0  0
   10.6085  -17.7899   22.5725 N   0  0  0  0  0  0  0  0  0  0  0  0
   11.1745  -16.9670   24.7038 C   0  0  0  0  0  0  0  0  0  0  0  0
   11.8280  -16.1845   25.6391 O   0  0  0  0  0  0  0  0  0  0  0  0
   10.8915  -18.1540   25.1126 O   0  0  0  0  0  0  0  0  0  0  0  0
  1  2  1  0
  3  2  1  0
  4  5  1  0
  4  3  1  0
  5  1  1  0
  5  6  1  1
  6  7  2  0
  9  8  1  6
  9 10  1  0
 10  6  1  0
 11  9  1  0
 12 11  2  0
 14 13  1  0
 14 15  2  0
 16 14  1  0
 17 16  1  0
 18 17  1  0
 19 18  1  0
 20 21  1  0
 20 19  1  1
 21 11  1  0
 22 20  1  0
 23 22  1  0
 24 22  2  0
M  END
$$$$
