PAR.pdb
     RDKit          3D

 24 24  0  0  1  0  0  0  0  0999 V2000
    8.4927  -13.0638   19.7411 N   0  0  0  0  0  0  0  0  0  0  0  0
    7.7890  -13.1758   18.4540 C   0  0  0  0  0  0  0  0  0  0  0  0
    6.5538  -14.0018   18.7253 C   0  0  0  0  0  0  0  0  0  0  0  0
    6.7942  -14.5486   20.1413 C   0  0  0  0  0  0  0  0  0  0  0  0
    7.5073  -13.3759   20.7552 C   0  0  1  0  0  0  0  0  0  0  0  0
    8.1309  -13.6288   22.0515 C   0  0  0  0  0  0  0  0  0  0  0  0
    9.3233  -14.0104   22.2000 O   0  0  0  0  0  0  0  0  0  0  0  0
    6.9341  -13.2126   25.6213 C   0  0  0  0  0  0  0  0  0  0  0  0
    7.9137  -13.6708   24.5631 C   0  0  2  0  0  0  0  0  0  0  0  0
    7.3852  -13.4471   23.2359 N   0  0  0  0  0  0  0  0  0  0  0  0
    8.2078  -15.0953   24.8146 C   0  0  0  0  0  0  0  0  0  0  0  0
    7.3739  -15.9434   24.3774 O   0  0  0  0  0  0  0  0  0  0  0  0
   13.2049  -21.7950   24.8354 N   0  0  0  0  0  0  0  0  0  0  0  0
   12.7810  -21.3675   23.5381 C   0  0  0  0  0  0  0  0  0  0  0  0
   12.6319  -22.2723   22.6350 N   0  0  0  0  0  0  0  0  0  0  0  0
   12.5291  -20.0032   23.2394 N   0  0  0  0  0  0  0  0  0  0  0  0
   12.6861  -18.9949   24.2621 C   0  0  0  0  0  0  0  0  0  0  0  0
   11.3499  -18.7389   24.9668 C   0  0  0  0  0  0  0  0  0  0  0  0
   10.9215  -17.3125   24.7989 C   0  0  0  0  0  0  0  0  0  0  0  0
    9.6666  -17.0322   25.5344 C   0  0  2  0  0  0  0  0  0  0  0  0
    9.3346  -15.6015   25.4978 N   0  0  0  0  0  0  0  0  0  0  0  0
    9.8189  -17.3767   26.9655 C   0  0  0  0  0  0  0  0  0  0  0  0
    9.9060  -18.6563   27.4844 O   0  0  0  0  0  0  0  0  0  0  0  0
    9.8780  -16.4428   27.8490 O   0  0  0  0  0  0  0  0  0  0  0  0
  1  2  1  0
  3  2  1  0
  4  5  1  0
  4  3  1  0
  5  1  1  0
  5  6  1  1
  6  7  2  0
  9  8  1  1
  9 10  1  0
 10  6  1  0
 11  9  1  0
 12 11  2  0
 14 13  1  0
 14 15  2  0
 16 14  1  0
 17 16  1  0
 18 17  1  0
 19 18  1  0
 20 21  1  0
 20 19  1  6
 21 11  1  0
 22 20  1  0
 23 22  1  0
 24 22  2  0
M  END
$$$$
