PAR.pdb
     RDKit          3D

 24 24  0  0  1  0  0  0  0  0999 V2000
    5.0436  -20.9520   21.0817 N   0  0  0  0  0  0  0  0  0  0  0  0
    4.1545  -21.5184   20.0555 C   0  0  0  0  0  0  0  0  0  0  0  0
    2.9042  -20.6710   20.0742 C   0  0  0  0  0  0  0  0  0  0  0  0
    3.0684  -19.8208   21.3439 C   0  0  0  0  0  0  0  0  0  0  0  0
    4.5570  -19.6100   21.3247 C   0  0  1  0  0  0  0  0  0  0  0  0
    5.1266  -19.0439   22.5447 C   0  0  0  0  0  0  0  0  0  0  0  0
    4.8966  -17.8745   22.9559 O   0  0  0  0  0  0  0  0  0  0  0  0
    6.8472  -20.4710   25.5314 C   0  0  0  0  0  0  0  0  0  0  0  0
    6.6284  -19.3421   24.5479 C   0  0  2  0  0  0  0  0  0  0  0  0
    5.9944  -19.8223   23.3403 N   0  0  0  0  0  0  0  0  0  0  0  0
    7.9413  -18.7223   24.2812 C   0  0  0  0  0  0  0  0  0  0  0  0
    8.7763  -19.4025   23.6135 O   0  0  0  0  0  0  0  0  0  0  0  0
    7.0578  -12.2701   20.6690 N   0  0  0  0  0  0  0  0  0  0  0  0
    7.7556  -13.2085   19.8457 C   0  0  0  0  0  0  0  0  0  0  0  0
    7.5268  -13.1717   18.5797 N   0  0  0  0  0  0  0  0  0  0  0  0
    8.6690  -14.1510   20.3855 N   0  0  0  0  0  0  0  0  0  0  0  0
    9.0119  -14.1088   21.7883 C   0  0  0  0  0  0  0  0  0  0  0  0
    9.1351  -15.5293   22.3492 C   0  0  0  0  0  0  0  0  0  0  0  0
    9.5195  -15.5007   23.7976 C   0  0  0  0  0  0  0  0  0  0  0  0
    9.6606  -16.8683   24.3491 C   0  0  2  0  0  0  0  0  0  0  0  0
    8.3535  -17.4393   24.7014 N   0  0  0  0  0  0  0  0  0  0  0  0
   10.4428  -16.8405   25.6050 C   0  0  0  0  0  0  0  0  0  0  0  0
   11.8208  -16.7601   25.6976 O   0  0  0  0  0  0  0  0  0  0  0  0
    9.8389  -16.8965   26.7400 O   0  0  0  0  0  0  0  0  0  0  0  0
  1  2  1  0
  3  2  1  0
  4  5  1  0
  4  3  1  0
  5  1  1  0
  5  6  1  1
  6  7  2  0
  9  8  1  1
  9 10  1  0
 10  6  1  0
 11  9  1  0
 12 11  2  0
 14 13  1  0
 14 15  2  0
 16 14  1  0
 17 16  1  0
 18 17  1  0
 19 18  1  0
 20 21  1  0
 20 19  1  1
 21 11  1  0
 22 20  1  0
 23 22  1  0
 24 22  2  0
M  END
$$$$
