PAR.pdb
     RDKit          3D

 24 24  0  0  1  0  0  0  0  0999 V2000
    7.1586  -14.8651   21.1978 N   0  0  0  0  0  0  0  0  0  0  0  0
    6.8324  -14.8306   19.7636 C   0  0  0  0  0  0  0  0  0  0  0  0
    7.4980  -13.5906   19.2150 C   0  0  0  0  0  0  0  0  0  0  0  0
    7.9440  -12.8367   20.4777 C   0  0  0  0  0  0  0  0  0  0  0  0
    8.3078  -13.9990   21.3594 C   0  0  1  0  0  0  0  0  0  0  0  0
    8.5420  -13.6725   22.7637 C   0  0  0  0  0  0  0  0  0  0  0  0
    9.6484  -13.2800   23.2232 O   0  0  0  0  0  0  0  0  0  0  0  0
    6.2160  -13.2079   25.6928 C   0  0  0  0  0  0  0  0  0  0  0  0
    7.5883  -13.3816   25.0794 C   0  0  2  0  0  0  0  0  0  0  0  0
    7.4896  -13.7921   23.6965 N   0  0  0  0  0  0  0  0  0  0  0  0
    8.3236  -14.3620   25.9022 C   0  0  0  0  0  0  0  0  0  0  0  0
    7.9724  -15.5758   25.8062 O   0  0  0  0  0  0  0  0  0  0  0  0
   14.1712  -16.5213   22.9160 N   0  0  0  0  0  0  0  0  0  0  0  0
   14.1590  -17.5246   23.9352 C   0  0  0  0  0  0  0  0  0  0  0  0
   14.7372  -18.6440   23.6723 N   0  0  0  0  0  0  0  0  0  0  0  0
   13.5387  -17.3123   25.1939 N   0  0  0  0  0  0  0  0  0  0  0  0
   12.9536  -16.0293   25.5080 C   0  0  0  0  0  0  0  0  0  0  0  0
   12.4993  -15.9951   26.9708 C   0  0  0  0  0  0  0  0  0  0  0  0
   11.6711  -14.7764   27.2451 C   0  0  0  0  0  0  0  0  0  0  0  0
   10.2350  -15.1145   27.3781 C   0  0  2  0  0  0  0  0  0  0  0  0
    9.3844  -14.0724   26.7874 N   0  0  0  0  0  0  0  0  0  0  0  0
    9.8522  -15.1895   28.8056 C   0  0  0  0  0  0  0  0  0  0  0  0
   10.0834  -16.2612   29.6495 O   0  0  0  0  0  0  0  0  0  0  0  0
    9.2456  -14.2000   29.3616 O   0  0  0  0  0  0  0  0  0  0  0  0
  1  2  1  0
  3  2  1  0
  4  5  1  0
  4  3  1  0
  5  1  1  0
  5  6  1  1
  6  7  2  0
  9  8  1  1
  9 10  1  0
 10  6  1  0
 11  9  1  0
 12 11  2  0
 14 13  1  0
 14 15  2  0
 16 14  1  0
 17 16  1  0
 18 17  1  0
 19 18  1  0
 20 21  1  0
 20 19  1  1
 21 11  1  0
 22 20  1  0
 23 22  1  0
 24 22  2  0
M  END
$$$$
