PAR.pdb
     RDKit          3D

 24 24  0  0  1  0  0  0  0  0999 V2000
    9.2685  -13.9896   19.0115 N   0  0  0  0  0  0  0  0  0  0  0  0
    8.9079  -12.8675   18.1311 C   0  0  0  0  0  0  0  0  0  0  0  0
    7.4596  -12.5557   18.4260 C   0  0  0  0  0  0  0  0  0  0  0  0
    7.0075  -13.7440   19.2893 C   0  0  0  0  0  0  0  0  0  0  0  0
    8.2717  -13.9999   20.0619 C   0  0  1  0  0  0  0  0  0  0  0  0
    8.3023  -15.2479   20.8203 C   0  0  0  0  0  0  0  0  0  0  0  0
    7.4802  -15.5430   21.7294 O   0  0  0  0  0  0  0  0  0  0  0  0
   10.6702  -18.2043   20.8471 C   0  0  0  0  0  0  0  0  0  0  0  0
    9.3931  -17.4850   21.2228 C   0  0  2  0  0  0  0  0  0  0  0  0
    9.2997  -16.2090   20.5492 N   0  0  0  0  0  0  0  0  0  0  0  0
    9.3766  -17.3438   22.6921 C   0  0  0  0  0  0  0  0  0  0  0  0
   10.0281  -16.3759   23.1868 O   0  0  0  0  0  0  0  0  0  0  0  0
    7.1835  -21.9565   26.7989 N   0  0  0  0  0  0  0  0  0  0  0  0
    7.4319  -21.6207   28.1667 C   0  0  0  0  0  0  0  0  0  0  0  0
    7.9308  -22.5364   28.9209 N   0  0  0  0  0  0  0  0  0  0  0  0
    7.1462  -20.3328   28.6901 N   0  0  0  0  0  0  0  0  0  0  0  0
    6.5035  -19.3386   27.8621 C   0  0  0  0  0  0  0  0  0  0  0  0
    7.5528  -18.4548   27.1800 C   0  0  0  0  0  0  0  0  0  0  0  0
    7.6016  -18.7233   25.7062 C   0  0  0  0  0  0  0  0  0  0  0  0
    8.6735  -17.9416   25.0471 C   0  0  2  0  0  0  0  0  0  0  0  0
    8.7006  -18.1882   23.5990 N   0  0  0  0  0  0  0  0  0  0  0  0
   10.0008  -18.3559   25.5538 C   0  0  0  0  0  0  0  0  0  0  0  0
   10.6890  -17.7629   26.5973 O   0  0  0  0  0  0  0  0  0  0  0  0
   10.6157  -19.3474   25.0107 O   0  0  0  0  0  0  0  0  0  0  0  0
  1  2  1  0
  3  2  1  0
  4  5  1  0
  4  3  1  0
  5  1  1  0
  5  6  1  6
  6  7  2  0
  9  8  1  1
  9 10  1  0
 10  6  1  0
 11  9  1  0
 12 11  2  0
 14 13  1  0
 14 15  2  0
 16 14  1  0
 17 16  1  0
 18 17  1  0
 19 18  1  0
 20 21  1  0
 20 19  1  1
 21 11  1  0
 22 20  1  0
 23 22  1  0
 24 22  2  0
M  END
$$$$
