PAR.pdb
     RDKit          3D

 24 24  0  0  1  0  0  0  0  0999 V2000
    7.9919  -16.4952   17.8062 N   0  0  0  0  0  0  0  0  0  0  0  0
    7.7414  -17.0870   16.4828 C   0  0  0  0  0  0  0  0  0  0  0  0
    8.3134  -16.1156   15.4773 C   0  0  0  0  0  0  0  0  0  0  0  0
    8.6165  -14.8668   16.3203 C   0  0  0  0  0  0  0  0  0  0  0  0
    9.0423  -15.5186   17.6065 C   0  0  1  0  0  0  0  0  0  0  0  0
    9.1684  -14.6223   18.7529 C   0  0  0  0  0  0  0  0  0  0  0  0
   10.2693  -14.2484   19.2402 O   0  0  0  0  0  0  0  0  0  0  0  0
    6.6794  -12.5692   20.7133 C   0  0  0  0  0  0  0  0  0  0  0  0
    8.0310  -13.2190   20.5119 C   0  0  2  0  0  0  0  0  0  0  0  0
    8.0087  -14.1225   19.3832 N   0  0  0  0  0  0  0  0  0  0  0  0
    8.3879  -13.9046   21.7695 C   0  0  0  0  0  0  0  0  0  0  0  0
    8.4296  -13.1985   22.8209 O   0  0  0  0  0  0  0  0  0  0  0  0
    7.5960  -21.2415   26.4543 N   0  0  0  0  0  0  0  0  0  0  0  0
    7.0848  -20.0410   27.0398 C   0  0  0  0  0  0  0  0  0  0  0  0
    6.9870  -20.0018   28.3225 N   0  0  0  0  0  0  0  0  0  0  0  0
    6.6956  -18.9256   26.2533 N   0  0  0  0  0  0  0  0  0  0  0  0
    7.0603  -18.8590   24.8570 C   0  0  0  0  0  0  0  0  0  0  0  0
    8.1439  -17.7978   24.6398 C   0  0  0  0  0  0  0  0  0  0  0  0
    7.7957  -16.9064   23.4862 C   0  0  0  0  0  0  0  0  0  0  0  0
    8.8696  -15.9220   23.2172 C   0  0  2  0  0  0  0  0  0  0  0  0
    8.6871  -15.2770   21.9099 N   0  0  0  0  0  0  0  0  0  0  0  0
   10.1852  -16.5968   23.1564 C   0  0  0  0  0  0  0  0  0  0  0  0
   10.9447  -16.9873   24.2449 O   0  0  0  0  0  0  0  0  0  0  0  0
   10.7181  -16.8654   22.0162 O   0  0  0  0  0  0  0  0  0  0  0  0
  1  2  1  0
  3  2  1  0
  4  5  1  0
  4  3  1  0
  5  1  1  0
  5  6  1  1
  6  7  2  0
  9  8  1  1
  9 10  1  0
 10  6  1  0
 11  9  1  0
 12 11  2  0
 14 13  1  0
 14 15  2  0
 16 14  1  0
 17 16  1  0
 18 17  1  0
 19 18  1  0
 20 21  1  0
 20 19  1  6
 21 11  1  0
 22 20  1  0
 23 22  1  0
 24 22  2  0
M  END
$$$$
