PAR.pdb
     RDKit          3D

 24 24  0  0  1  0  0  0  0  0999 V2000
    9.2422  -14.1091   18.4800 N   0  0  0  0  0  0  0  0  0  0  0  0
    8.6025  -13.1997   17.5167 C   0  0  0  0  0  0  0  0  0  0  0  0
    7.2036  -12.9618   18.0344 C   0  0  0  0  0  0  0  0  0  0  0  0
    7.0538  -14.0072   19.1509 C   0  0  0  0  0  0  0  0  0  0  0  0
    8.4564  -14.0119   19.6924 C   0  0  1  0  0  0  0  0  0  0  0  0
    8.7666  -15.0944   20.6227 C   0  0  0  0  0  0  0  0  0  0  0  0
    8.1063  -15.3388   21.6685 O   0  0  0  0  0  0  0  0  0  0  0  0
   11.6562  -17.5152   20.8920 C   0  0  0  0  0  0  0  0  0  0  0  0
   10.2721  -17.0179   21.2477 C   0  0  2  0  0  0  0  0  0  0  0  0
    9.8671  -15.9414   20.3713 N   0  0  0  0  0  0  0  0  0  0  0  0
   10.2970  -16.6053   22.6647 C   0  0  0  0  0  0  0  0  0  0  0  0
   10.9878  -15.5838   22.9570 O   0  0  0  0  0  0  0  0  0  0  0  0
    5.1866  -20.0790   23.8194 N   0  0  0  0  0  0  0  0  0  0  0  0
    6.0258  -20.1808   24.9730 C   0  0  0  0  0  0  0  0  0  0  0  0
    6.3339  -21.3623   25.3797 N   0  0  0  0  0  0  0  0  0  0  0  0
    6.5101  -19.0348   25.6558 N   0  0  0  0  0  0  0  0  0  0  0  0
    6.0347  -17.7193   25.2945 C   0  0  0  0  0  0  0  0  0  0  0  0
    7.2051  -16.8308   24.8608 C   0  0  0  0  0  0  0  0  0  0  0  0
    8.3655  -16.9801   25.7976 C   0  0  0  0  0  0  0  0  0  0  0  0
    9.6546  -16.7430   25.1073 C   0  0  2  0  0  0  0  0  0  0  0  0
    9.6209  -17.2439   23.7266 N   0  0  0  0  0  0  0  0  0  0  0  0
   10.7448  -17.4832   25.7807 C   0  0  0  0  0  0  0  0  0  0  0  0
   11.2612  -17.2002   27.0327 O   0  0  0  0  0  0  0  0  0  0  0  0
   11.2994  -18.4855   25.1943 O   0  0  0  0  0  0  0  0  0  0  0  0
  1  2  1  0
  3  2  1  0
  4  5  1  0
  4  3  1  0
  5  1  1  0
  5  6  1  1
  6  7  2  0
  9  8  1  6
  9 10  1  0
 10  6  1  0
 11  9  1  0
 12 11  2  0
 14 13  1  0
 14 15  2  0
 16 14  1  0
 17 16  1  0
 18 17  1  0
 19 18  1  0
 20 21  1  0
 20 19  1  1
 21 11  1  0
 22 20  1  0
 23 22  1  0
 24 22  2  0
M  END
$$$$
