PAR.pdb
     RDKit          3D

 24 24  0  0  1  0  0  0  0  0999 V2000
    8.7656  -14.7962   16.9991 N   0  0  0  0  0  0  0  0  0  0  0  0
    8.4312  -13.8563   15.9178 C   0  0  0  0  0  0  0  0  0  0  0  0
    7.6588  -12.7323   16.5672 C   0  0  0  0  0  0  0  0  0  0  0  0
    7.3643  -13.2695   17.9766 C   0  0  0  0  0  0  0  0  0  0  0  0
    8.6280  -14.0440   18.2289 C   0  0  1  0  0  0  0  0  0  0  0  0
    8.6042  -14.9214   19.3963 C   0  0  0  0  0  0  0  0  0  0  0  0
    8.4583  -14.5173   20.5816 O   0  0  0  0  0  0  0  0  0  0  0  0
    9.2154  -18.6210   19.8746 C   0  0  0  0  0  0  0  0  0  0  0  0
    8.7080  -17.2660   20.3177 C   0  0  2  0  0  0  0  0  0  0  0  0
    8.7515  -16.3151   19.2293 N   0  0  0  0  0  0  0  0  0  0  0  0
    9.5283  -16.8370   21.4675 C   0  0  0  0  0  0  0  0  0  0  0  0
   10.7118  -16.4560   21.2228 O   0  0  0  0  0  0  0  0  0  0  0  0
   12.4858  -15.3644   28.3912 N   0  0  0  0  0  0  0  0  0  0  0  0
   11.1810  -15.6387   28.9084 C   0  0  0  0  0  0  0  0  0  0  0  0
   11.0547  -16.6514   29.6925 N   0  0  0  0  0  0  0  0  0  0  0  0
   10.0570  -14.8363   28.5813 N   0  0  0  0  0  0  0  0  0  0  0  0
    9.2017  -15.2006   27.4756 C   0  0  0  0  0  0  0  0  0  0  0  0
   10.0442  -15.5802   26.2534 C   0  0  0  0  0  0  0  0  0  0  0  0
    9.1688  -15.9368   25.0904 C   0  0  0  0  0  0  0  0  0  0  0  0
    9.9703  -16.3088   23.9013 C   0  0  2  0  0  0  0  0  0  0  0  0
    9.1155  -16.8111   22.8172 N   0  0  0  0  0  0  0  0  0  0  0  0
   10.8995  -17.4127   24.2297 C   0  0  0  0  0  0  0  0  0  0  0  0
   10.6484  -18.7613   24.0502 O   0  0  0  0  0  0  0  0  0  0  0  0
   12.0555  -17.1524   24.7317 O   0  0  0  0  0  0  0  0  0  0  0  0
  1  2  1  0
  3  2  1  0
  4  5  1  0
  4  3  1  0
  5  1  1  0
  5  6  1  1
  6  7  2  0
  9  8  1  6
  9 10  1  0
 10  6  1  0
 11  9  1  0
 12 11  2  0
 14 13  1  0
 14 15  2  0
 16 14  1  0
 17 16  1  0
 18 17  1  0
 19 18  1  0
 20 21  1  0
 20 19  1  1
 21 11  1  0
 22 20  1  0
 23 22  1  0
 24 22  2  0
M  END
$$$$
