PAR.pdb
     RDKit          3D

 24 24  0  0  1  0  0  0  0  0999 V2000
    8.9343  -14.6819   17.7756 N   0  0  0  0  0  0  0  0  0  0  0  0
    8.5567  -13.6270   16.8221 C   0  0  0  0  0  0  0  0  0  0  0  0
    7.6688  -12.6735   17.5863 C   0  0  0  0  0  0  0  0  0  0  0  0
    7.3744  -13.4288   18.8919 C   0  0  0  0  0  0  0  0  0  0  0  0
    8.6911  -14.1269   19.0909 C   0  0  1  0  0  0  0  0  0  0  0  0
    8.7037  -15.1613   20.1220 C   0  0  0  0  0  0  0  0  0  0  0  0
    8.4646  -14.9473   21.3411 O   0  0  0  0  0  0  0  0  0  0  0  0
    9.5621  -18.8518   20.0622 C   0  0  0  0  0  0  0  0  0  0  0  0
    9.0836  -17.5794   20.7267 C   0  0  2  0  0  0  0  0  0  0  0  0
    8.9987  -16.4965   19.7723 N   0  0  0  0  0  0  0  0  0  0  0  0
   10.0129  -17.2775   21.8331 C   0  0  0  0  0  0  0  0  0  0  0  0
   11.0998  -16.6991   21.5331 O   0  0  0  0  0  0  0  0  0  0  0  0
    9.0314  -13.8796   29.4114 N   0  0  0  0  0  0  0  0  0  0  0  0
   10.3281  -14.4444   29.6235 C   0  0  0  0  0  0  0  0  0  0  0  0
   10.7606  -14.4981   30.8345 N   0  0  0  0  0  0  0  0  0  0  0  0
   11.1217  -14.9322   28.5528 N   0  0  0  0  0  0  0  0  0  0  0  0
   10.5683  -15.0230   27.2214 C   0  0  0  0  0  0  0  0  0  0  0  0
   10.9296  -16.3692   26.5854 C   0  0  0  0  0  0  0  0  0  0  0  0
    9.9926  -16.6988   25.4630 C   0  0  0  0  0  0  0  0  0  0  0  0
   10.7266  -17.1452   24.2561 C   0  0  2  0  0  0  0  0  0  0  0  0
    9.8025  -17.5733   23.1972 N   0  0  0  0  0  0  0  0  0  0  0  0
   11.5621  -18.3263   24.5672 C   0  0  0  0  0  0  0  0  0  0  0  0
   11.1995  -19.6472   24.3723 O   0  0  0  0  0  0  0  0  0  0  0  0
   12.7371  -18.1690   25.0678 O   0  0  0  0  0  0  0  0  0  0  0  0
  1  2  1  0
  3  2  1  0
  4  5  1  0
  4  3  1  0
  5  1  1  0
  5  6  1  1
  6  7  2  0
  9  8  1  6
  9 10  1  0
 10  6  1  0
 11  9  1  0
 12 11  2  0
 14 13  1  0
 14 15  2  0
 16 14  1  0
 17 16  1  0
 18 17  1  0
 19 18  1  0
 20 21  1  0
 20 19  1  1
 21 11  1  0
 22 20  1  0
 23 22  1  0
 24 22  2  0
M  END
$$$$
