YQH.pdb
     RDKit          3D

 32 33  0  0  1  0  0  0  0  0999 V2000
    7.4383  -12.4060   15.9710 O   0  0  0  0  0  0  0  0  0  0  0  0
    7.6461  -13.0712   17.1930 C   0  0  0  0  0  0  0  0  0  0  0  0
    8.8576  -13.0184   17.8413 C   0  0  0  0  0  0  0  0  0  0  0  0
    9.0575  -13.6704   19.0366 C   0  0  0  0  0  0  0  0  0  0  0  0
    8.0436  -14.4129   19.6446 C   0  0  0  0  0  0  0  0  0  0  0  0
    8.2594  -15.1177   20.9365 C   0  0  0  0  0  0  0  0  0  0  0  0
    8.9815  -16.3929   20.6503 C   0  0  2  0  0  0  0  0  0  0  0  0
    8.0387  -17.2611   19.9265 N   0  0  0  0  0  0  0  0  0  0  0  0
    9.4119  -17.1321   21.8434 C   0  0  0  0  0  0  0  0  0  0  0  0
    8.4925  -17.7251   22.5060 O   0  0  0  0  0  0  0  0  0  0  0  0
    6.8351  -14.4556   18.9816 C   0  0  0  0  0  0  0  0  0  0  0  0
    6.6356  -13.8022   17.7840 C   0  0  0  0  0  0  0  0  0  0  0  0
   15.4071  -19.0899   22.7025 N   0  0  0  0  0  0  0  0  0  0  0  0
   14.7976  -18.3950   23.7746 C   0  0  0  0  0  0  0  0  0  0  0  0
   15.2750  -18.3909   24.9150 O   0  0  0  0  0  0  0  0  0  0  0  0
   13.5392  -17.6492   23.5021 C   0  0  0  0  0  0  0  0  0  0  0  0
   12.3030  -18.4098   23.7340 C   0  0  0  0  0  0  0  0  0  0  0  0
   10.9963  -17.7018   23.7093 C   0  0  2  0  0  0  0  0  0  0  0  0
   10.7223  -17.2455   22.3163 N   0  0  0  0  0  0  0  0  0  0  0  0
   10.8893  -16.5302   24.6069 C   0  0  0  0  0  0  0  0  0  0  0  0
   11.0201  -15.3363   24.1382 O   0  0  0  0  0  0  0  0  0  0  0  0
   10.6432  -16.5607   25.9976 N   0  0  0  0  0  0  0  0  0  0  0  0
   10.0161  -15.4449   26.7018 C   0  0  1  0  0  0  0  0  0  0  0  0
    8.6681  -15.1088   26.1041 C   0  0  0  0  0  0  0  0  0  0  0  0
    7.9638  -14.0374   26.8179 C   0  0  0  0  0  0  0  0  0  0  0  0
    8.4448  -13.2438   27.8512 C   0  0  0  0  0  0  0  0  0  0  0  0
    7.4747  -12.3745   28.2303 N   0  0  0  0  0  0  0  0  0  0  0  0
    6.3961  -12.6171   27.4460 C   0  0  0  0  0  0  0  0  0  0  0  0
    6.7080  -13.6209   26.6018 N   0  0  0  0  0  0  0  0  0  0  0  0
    9.9224  -15.8014   28.1222 C   0  0  0  0  0  0  0  0  0  0  0  0
    9.5384  -14.9507   28.9504 O   0  0  0  0  0  0  0  0  0  0  0  0
   10.2520  -17.0621   28.5566 O   0  0  0  0  0  0  0  0  0  0  0  0
  2  1  1  0
  3  2  2  0
  4  3  1  0
  5  4  2  0
  5 11  1  0
  6  5  1  0
  7  9  1  0
  7  6  1  0
  7  8  1  1
  9 10  2  0
 11 12  2  0
 12  2  1  0
 14 13  1  0
 15 14  2  0
 16 14  1  0
 17 16  1  0
 18 17  1  6
 19 18  1  0
 19  9  1  0
 20 18  1  0
 21 20  2  0
 22 20  1  0
 23 30  1  0
 23 22  1  0
 24 25  1  0
 23 24  1  6
 25 29  1  0
 26 27  1  0
 26 25  2  0
 27 28  1  0
 28 29  2  0
 30 32  1  0
 31 30  2  0
M  END
$$$$
