YQH.pdb
     RDKit          3D

 32 33  0  0  1  0  0  0  0  0999 V2000
    7.9512  -12.1478   16.2459 O   0  0  0  0  0  0  0  0  0  0  0  0
    7.8546  -12.9190   17.4184 C   0  0  0  0  0  0  0  0  0  0  0  0
    8.2342  -12.4164   18.6407 C   0  0  0  0  0  0  0  0  0  0  0  0
    8.1383  -13.1736   19.7857 C   0  0  0  0  0  0  0  0  0  0  0  0
    7.6531  -14.4824   19.7601 C   0  0  0  0  0  0  0  0  0  0  0  0
    7.5496  -15.3011   20.9976 C   0  0  0  0  0  0  0  0  0  0  0  0
    8.9343  -15.5928   21.4740 C   0  0  2  0  0  0  0  0  0  0  0  0
    9.6466  -16.2204   20.3490 N   0  0  0  0  0  0  0  0  0  0  0  0
    9.0076  -16.5303   22.6012 C   0  0  0  0  0  0  0  0  0  0  0  0
    8.3435  -16.2131   23.6473 O   0  0  0  0  0  0  0  0  0  0  0  0
    7.2769  -14.9711   18.5266 C   0  0  0  0  0  0  0  0  0  0  0  0
    7.3732  -14.2119   17.3798 C   0  0  0  0  0  0  0  0  0  0  0  0
   10.8859  -22.3375   22.9936 N   0  0  0  0  0  0  0  0  0  0  0  0
   10.4546  -21.6194   21.8525 C   0  0  0  0  0  0  0  0  0  0  0  0
   10.7271  -21.9820   20.7024 O   0  0  0  0  0  0  0  0  0  0  0  0
    9.6466  -20.3879   22.0626 C   0  0  0  0  0  0  0  0  0  0  0  0
    9.4783  -19.9866   23.4666 C   0  0  0  0  0  0  0  0  0  0  0  0
    9.7443  -18.5777   23.8588 C   0  0  2  0  0  0  0  0  0  0  0  0
    9.7300  -17.7264   22.6346 N   0  0  0  0  0  0  0  0  0  0  0  0
   11.0224  -18.3440   24.5672 C   0  0  0  0  0  0  0  0  0  0  0  0
   11.7289  -19.3394   24.9819 O   0  0  0  0  0  0  0  0  0  0  0  0
   11.5999  -17.0884   24.8596 N   0  0  0  0  0  0  0  0  0  0  0  0
   11.5181  -16.4842   26.1872 C   0  0  1  0  0  0  0  0  0  0  0  0
   10.1951  -15.7790   26.3869 C   0  0  0  0  0  0  0  0  0  0  0  0
   10.0360  -15.2056   27.7283 C   0  0  0  0  0  0  0  0  0  0  0  0
   10.6205  -14.0526   28.2360 C   0  0  0  0  0  0  0  0  0  0  0  0
   10.2126  -13.8769   29.5179 N   0  0  0  0  0  0  0  0  0  0  0  0
    9.3815  -14.9060   29.8144 C   0  0  0  0  0  0  0  0  0  0  0  0
    9.2867  -15.6959   28.7259 N   0  0  0  0  0  0  0  0  0  0  0  0
   11.7412  -17.5414   27.1803 C   0  0  0  0  0  0  0  0  0  0  0  0
   11.2109  -18.6601   27.0239 O   0  0  0  0  0  0  0  0  0  0  0  0
   12.5278  -17.3182   28.2839 O   0  0  0  0  0  0  0  0  0  0  0  0
  2  1  1  0
  3  2  2  0
  4  3  1  0
  5  4  2  0
  5 11  1  0
  6  5  1  0
  7  9  1  0
  7  6  1  0
  7  8  1  6
  9 10  2  0
 11 12  2  0
 12  2  1  0
 14 13  1  0
 15 14  2  0
 16 14  1  0
 17 16  1  0
 18 17  1  6
 19 18  1  0
 19  9  1  0
 20 18  1  0
 21 20  2  0
 22 20  1  0
 23 30  1  0
 23 22  1  0
 24 25  1  0
 23 24  1  1
 25 29  1  0
 26 27  1  0
 26 25  2  0
 27 28  1  0
 28 29  2  0
 30 32  1  0
 31 30  2  0
M  END
$$$$
