YQH.pdb
     RDKit          3D

 32 33  0  0  1  0  0  0  0  0999 V2000
    7.6333  -11.6921   16.9886 O   0  0  0  0  0  0  0  0  0  0  0  0
    8.1308  -12.4484   18.0654 C   0  0  0  0  0  0  0  0  0  0  0  0
    9.4543  -12.3875   18.4335 C   0  0  0  0  0  0  0  0  0  0  0  0
    9.9376  -13.1287   19.4874 C   0  0  0  0  0  0  0  0  0  0  0  0
    9.1103  -13.9738   20.2292 C   0  0  0  0  0  0  0  0  0  0  0  0
    9.6326  -14.7751   21.3682 C   0  0  0  0  0  0  0  0  0  0  0  0
   10.5111  -15.8470   20.8126 C   0  0  2  0  0  0  0  0  0  0  0  0
    9.6348  -16.7787   20.0842 N   0  0  0  0  0  0  0  0  0  0  0  0
   11.2257  -16.6360   21.8235 C   0  0  0  0  0  0  0  0  0  0  0  0
   10.5824  -17.6138   22.3394 O   0  0  0  0  0  0  0  0  0  0  0  0
    7.7862  -14.0233   19.8469 C   0  0  0  0  0  0  0  0  0  0  0  0
    7.3025  -13.2804   18.7909 C   0  0  0  0  0  0  0  0  0  0  0  0
   17.4041  -15.9381   21.8795 N   0  0  0  0  0  0  0  0  0  0  0  0
   16.5990  -15.5737   22.9852 C   0  0  0  0  0  0  0  0  0  0  0  0
   17.0791  -15.1205   24.0305 O   0  0  0  0  0  0  0  0  0  0  0  0
   15.1260  -15.7489   22.8687 C   0  0  0  0  0  0  0  0  0  0  0  0
   14.6159  -17.0479   23.3303 C   0  0  0  0  0  0  0  0  0  0  0  0
   13.1543  -17.3146   23.2851 C   0  0  2  0  0  0  0  0  0  0  0  0
   12.5325  -16.4178   22.2689 N   0  0  0  0  0  0  0  0  0  0  0  0
   12.4332  -17.1307   24.5642 C   0  0  0  0  0  0  0  0  0  0  0  0
   12.6338  -16.0770   25.2795 O   0  0  0  0  0  0  0  0  0  0  0  0
   11.4928  -18.0198   25.1304 N   0  0  0  0  0  0  0  0  0  0  0  0
   10.9180  -17.8044   26.4560 C   0  0  1  0  0  0  0  0  0  0  0  0
    9.4442  -18.1436   26.4752 C   0  0  0  0  0  0  0  0  0  0  0  0
    8.6270  -17.2417   25.6554 C   0  0  0  0  0  0  0  0  0  0  0  0
    8.9913  -16.0131   25.1201 C   0  0  0  0  0  0  0  0  0  0  0  0
    7.9425  -15.5036   24.4266 N   0  0  0  0  0  0  0  0  0  0  0  0
    6.9300  -16.3997   24.5235 C   0  0  0  0  0  0  0  0  0  0  0  0
    7.3593  -17.4396   25.2665 N   0  0  0  0  0  0  0  0  0  0  0  0
   11.6861  -18.6034   27.4178 C   0  0  0  0  0  0  0  0  0  0  0  0
   12.6163  -19.3313   27.0154 O   0  0  0  0  0  0  0  0  0  0  0  0
   11.3962  -18.5627   28.7598 O   0  0  0  0  0  0  0  0  0  0  0  0
  2  1  1  0
  3  2  2  0
  4  3  1  0
  5  4  2  0
  5 11  1  0
  6  5  1  0
  7  9  1  0
  7  6  1  0
  7  8  1  1
  9 10  2  0
 11 12  2  0
 12  2  1  0
 14 13  1  0
 15 14  2  0
 16 14  1  0
 17 16  1  0
 18 17  1  1
 19 18  1  0
 19  9  1  0
 20 18  1  0
 21 20  2  0
 22 20  1  0
 23 30  1  0
 23 22  1  0
 24 25  1  0
 23 24  1  6
 25 29  1  0
 26 27  1  0
 26 25  2  0
 27 28  1  0
 28 29  2  0
 30 32  1  0
 31 30  2  0
M  END
$$$$
