YQH.pdb
     RDKit          3D

 32 33  0  0  1  0  0  0  0  0999 V2000
    8.9510  -10.7047   19.0762 O   0  0  0  0  0  0  0  0  0  0  0  0
    8.3565  -11.9502   19.3485 C   0  0  0  0  0  0  0  0  0  0  0  0
    8.3053  -12.4565   20.6260 C   0  0  0  0  0  0  0  0  0  0  0  0
    7.7230  -13.6753   20.8888 C   0  0  0  0  0  0  0  0  0  0  0  0
    7.1592  -14.4518   19.8748 C   0  0  0  0  0  0  0  0  0  0  0  0
    6.5299  -15.7693   20.1586 C   0  0  0  0  0  0  0  0  0  0  0  0
    7.5523  -16.8299   19.9154 C   0  0  2  0  0  0  0  0  0  0  0  0
    6.8818  -18.1227   20.1300 N   0  0  0  0  0  0  0  0  0  0  0  0
    8.7026  -16.7898   20.8265 C   0  0  0  0  0  0  0  0  0  0  0  0
    8.6762  -17.6067   21.8103 O   0  0  0  0  0  0  0  0  0  0  0  0
    7.2189  -13.9297   18.5997 C   0  0  0  0  0  0  0  0  0  0  0  0
    7.8025  -12.7085   18.3371 C   0  0  0  0  0  0  0  0  0  0  0  0
   15.5514  -14.4681   19.7707 N   0  0  0  0  0  0  0  0  0  0  0  0
   14.3792  -15.0162   19.1967 C   0  0  0  0  0  0  0  0  0  0  0  0
   14.0277  -14.7579   18.0400 O   0  0  0  0  0  0  0  0  0  0  0  0
   13.5532  -15.9325   20.0285 C   0  0  0  0  0  0  0  0  0  0  0  0
   12.1072  -15.6706   19.9933 C   0  0  0  0  0  0  0  0  0  0  0  0
   11.1977  -16.4887   20.8376 C   0  0  2  0  0  0  0  0  0  0  0  0
    9.8132  -15.9481   20.7175 N   0  0  0  0  0  0  0  0  0  0  0  0
   11.5451  -16.5494   22.2748 C   0  0  0  0  0  0  0  0  0  0  0  0
   11.8308  -17.6779   22.8289 O   0  0  0  0  0  0  0  0  0  0  0  0
   11.6093  -15.4564   23.1674 N   0  0  0  0  0  0  0  0  0  0  0  0
   10.6275  -15.2619   24.2316 C   0  0  1  0  0  0  0  0  0  0  0  0
    9.2576  -14.9634   23.6645 C   0  0  0  0  0  0  0  0  0  0  0  0
    8.2266  -14.7834   24.6932 C   0  0  0  0  0  0  0  0  0  0  0  0
    8.3733  -14.8773   26.0710 C   0  0  0  0  0  0  0  0  0  0  0  0
    7.1748  -14.6412   26.6612 N   0  0  0  0  0  0  0  0  0  0  0  0
    6.2840  -14.4016   25.6679 C   0  0  0  0  0  0  0  0  0  0  0  0
    6.9341  -14.4912   24.4902 N   0  0  0  0  0  0  0  0  0  0  0  0
   10.6315  -16.4620   25.0761 C   0  0  0  0  0  0  0  0  0  0  0  0
    9.9219  -16.5001   26.1018 O   0  0  0  0  0  0  0  0  0  0  0  0
   11.4071  -17.5489   24.7540 O   0  0  0  0  0  0  0  0  0  0  0  0
  2  1  1  0
  3  2  2  0
  4  3  1  0
  5  4  2  0
  5 11  1  0
  6  5  1  0
  7  9  1  0
  7  6  1  0
  7  8  1  1
  9 10  2  0
 11 12  2  0
 12  2  1  0
 14 13  1  0
 15 14  2  0
 16 14  1  0
 17 16  1  0
 18 17  1  6
 19 18  1  0
 19  9  1  0
 20 18  1  0
 21 20  2  0
 22 20  1  0
 23 30  1  0
 23 22  1  0
 24 25  1  0
 23 24  1  6
 25 29  1  0
 26 27  1  0
 26 25  2  0
 27 28  1  0
 28 29  2  0
 30 32  1  0
 31 30  2  0
M  END
$$$$
