YQH.pdb
     RDKit          3D

 32 33  0  0  1  0  0  0  0  0999 V2000
   -0.4728  -20.0204   20.8658 O   0  0  0  0  0  0  0  0  0  0  0  0
    0.8232  -19.5355   21.1191 C   0  0  0  0  0  0  0  0  0  0  0  0
    1.3058  -19.4147   22.4010 C   0  0  0  0  0  0  0  0  0  0  0  0
    2.5741  -18.9400   22.6452 C   0  0  0  0  0  0  0  0  0  0  0  0
    3.4269  -18.5604   21.6071 C   0  0  0  0  0  0  0  0  0  0  0  0
    4.7978  -18.0472   21.8709 C   0  0  0  0  0  0  0  0  0  0  0  0
    5.7419  -18.7707   20.9684 C   0  0  2  0  0  0  0  0  0  0  0  0
    5.8859  -20.1324   21.5087 N   0  0  0  0  0  0  0  0  0  0  0  0
    7.0898  -18.1926   20.9046 C   0  0  0  0  0  0  0  0  0  0  0  0
    8.0498  -18.9477   21.2844 O   0  0  0  0  0  0  0  0  0  0  0  0
    2.9275  -18.6878   20.3279 C   0  0  0  0  0  0  0  0  0  0  0  0
    1.6567  -19.1635   20.0839 C   0  0  0  0  0  0  0  0  0  0  0  0
    9.0962  -12.5993   18.6242 N   0  0  0  0  0  0  0  0  0  0  0  0
    8.5122  -13.6266   17.8450 C   0  0  0  0  0  0  0  0  0  0  0  0
    8.0546  -13.4193   16.7154 O   0  0  0  0  0  0  0  0  0  0  0  0
    8.4548  -14.9974   18.4208 C   0  0  0  0  0  0  0  0  0  0  0  0
    8.8977  -15.1038   19.8183 C   0  0  0  0  0  0  0  0  0  0  0  0
    8.8253  -16.4188   20.5076 C   0  0  2  0  0  0  0  0  0  0  0  0
    7.4160  -16.9046   20.4707 N   0  0  0  0  0  0  0  0  0  0  0  0
    9.2778  -16.4254   21.9165 C   0  0  0  0  0  0  0  0  0  0  0  0
   10.5049  -16.1577   22.2079 O   0  0  0  0  0  0  0  0  0  0  0  0
    8.4819  -16.7025   23.0501 N   0  0  0  0  0  0  0  0  0  0  0  0
    8.9977  -16.5822   24.4116 C   0  0  1  0  0  0  0  0  0  0  0  0
    8.0399  -15.8129   25.2937 C   0  0  0  0  0  0  0  0  0  0  0  0
    7.7677  -14.4533   24.8130 C   0  0  0  0  0  0  0  0  0  0  0  0
    8.3516  -13.7982   23.7367 C   0  0  0  0  0  0  0  0  0  0  0  0
    7.8188  -12.5548   23.6330 N   0  0  0  0  0  0  0  0  0  0  0  0
    6.9105  -12.4280   24.6313 C   0  0  0  0  0  0  0  0  0  0  0  0
    6.8928  -13.5799   25.3316 N   0  0  0  0  0  0  0  0  0  0  0  0
    9.2576  -17.9347   24.9184 C   0  0  0  0  0  0  0  0  0  0  0  0
    9.6484  -18.0916   26.0930 O   0  0  0  0  0  0  0  0  0  0  0  0
    9.0767  -19.0354   24.1170 O   0  0  0  0  0  0  0  0  0  0  0  0
  2  1  1  0
  3  2  2  0
  4  3  1  0
  5  4  2  0
  5 11  1  0
  6  5  1  0
  7  9  1  0
  7  6  1  0
  7  8  1  1
  9 10  2  0
 11 12  2  0
 12  2  1  0
 14 13  1  0
 15 14  2  0
 16 14  1  0
 17 16  1  0
 18 17  1  1
 19 18  1  0
 19  9  1  0
 20 18  1  0
 21 20  2  0
 22 20  1  0
 23 30  1  0
 23 22  1  0
 24 25  1  0
 23 24  1  1
 25 29  1  0
 26 27  1  0
 26 25  2  0
 27 28  1  0
 28 29  2  0
 30 32  1  0
 31 30  2  0
M  END
$$$$
