YQH.pdb
     RDKit          3D

 32 33  0  0  1  0  0  0  0  0999 V2000
    8.8446  -12.4872   16.4892 O   0  0  0  0  0  0  0  0  0  0  0  0
    8.4015  -13.0804   17.6853 C   0  0  0  0  0  0  0  0  0  0  0  0
    9.2626  -13.3148   18.7315 C   0  0  0  0  0  0  0  0  0  0  0  0
    8.8257  -13.8953   19.9002 C   0  0  0  0  0  0  0  0  0  0  0  0
    7.4932  -14.2720   20.0777 C   0  0  0  0  0  0  0  0  0  0  0  0
    7.0209  -14.8996   21.3408 C   0  0  0  0  0  0  0  0  0  0  0  0
    7.4069  -16.3416   21.3108 C   0  0  2  0  0  0  0  0  0  0  0  0
    6.3457  -17.0498   20.5767 N   0  0  0  0  0  0  0  0  0  0  0  0
    7.5070  -16.9746   22.6316 C   0  0  0  0  0  0  0  0  0  0  0  0
    6.6054  -17.8354   22.9182 O   0  0  0  0  0  0  0  0  0  0  0  0
    6.6431  -14.0300   19.0191 C   0  0  0  0  0  0  0  0  0  0  0  0
    7.0814  -13.4484   17.8485 C   0  0  0  0  0  0  0  0  0  0  0  0
    8.8822  -21.6241   23.5785 N   0  0  0  0  0  0  0  0  0  0  0  0
    9.0288  -21.4012   24.9687 C   0  0  0  0  0  0  0  0  0  0  0  0
    9.2334  -22.3227   25.7671 O   0  0  0  0  0  0  0  0  0  0  0  0
    8.9300  -20.0036   25.4694 C   0  0  0  0  0  0  0  0  0  0  0  0
    8.7051  -18.9861   24.4326 C   0  0  0  0  0  0  0  0  0  0  0  0
    8.5811  -17.5585   24.8274 C   0  0  2  0  0  0  0  0  0  0  0  0
    8.4885  -16.7244   23.5948 N   0  0  0  0  0  0  0  0  0  0  0  0
    9.6846  -17.0293   25.6594 C   0  0  0  0  0  0  0  0  0  0  0  0
   10.6810  -17.7836   25.9763 O   0  0  0  0  0  0  0  0  0  0  0  0
    9.7884  -15.7193   26.1776 N   0  0  0  0  0  0  0  0  0  0  0  0
   10.1439  -15.4591   27.5704 C   0  0  1  0  0  0  0  0  0  0  0  0
    9.0830  -14.6309   28.2605 C   0  0  0  0  0  0  0  0  0  0  0  0
    8.4569  -13.6355   27.3826 C   0  0  0  0  0  0  0  0  0  0  0  0
    8.8152  -13.3013   26.0831 C   0  0  0  0  0  0  0  0  0  0  0  0
    7.9806  -12.3331   25.6287 N   0  0  0  0  0  0  0  0  0  0  0  0
    7.1074  -12.0605   26.6291 C   0  0  0  0  0  0  0  0  0  0  0  0
    7.4086  -12.8535   27.6770 N   0  0  0  0  0  0  0  0  0  0  0  0
   10.3593  -16.7513   28.2317 C   0  0  0  0  0  0  0  0  0  0  0  0
    9.7303  -17.7573   27.8453 O   0  0  0  0  0  0  0  0  0  0  0  0
   11.2461  -16.8716   29.2737 O   0  0  0  0  0  0  0  0  0  0  0  0
  2  1  1  0
  3  2  2  0
  4  3  1  0
  5  4  2  0
  5 11  1  0
  6  5  1  0
  7  9  1  0
  7  6  1  0
  7  8  1  6
  9 10  2  0
 11 12  2  0
 12  2  1  0
 14 13  1  0
 15 14  2  0
 16 14  1  0
 17 16  1  0
 18 17  1  6
 19 18  1  0
 19  9  1  0
 20 18  1  0
 21 20  2  0
 22 20  1  0
 23 30  1  0
 23 22  1  0
 24 25  1  0
 23 24  1  1
 25 29  1  0
 26 27  1  0
 26 25  2  0
 27 28  1  0
 28 29  2  0
 30 32  1  0
 31 30  2  0
M  END
$$$$
