YQH.pdb
     RDKit          3D

 32 33  0  0  1  0  0  0  0  0999 V2000
    6.1075  -12.0473   18.7756 O   0  0  0  0  0  0  0  0  0  0  0  0
    7.0856  -12.6898   19.5562 C   0  0  0  0  0  0  0  0  0  0  0  0
    8.4262  -12.5481   19.2853 C   0  0  0  0  0  0  0  0  0  0  0  0
    9.3804  -13.1781   20.0510 C   0  0  0  0  0  0  0  0  0  0  0  0
    9.0334  -13.9873   21.1345 C   0  0  0  0  0  0  0  0  0  0  0  0
   10.0645  -14.6684   21.9621 C   0  0  0  0  0  0  0  0  0  0  0  0
   10.6163  -15.8052   21.1667 C   0  0  2  0  0  0  0  0  0  0  0  0
    9.5440  -16.8079   21.0595 N   0  0  0  0  0  0  0  0  0  0  0  0
   11.7686  -16.4771   21.7799 C   0  0  0  0  0  0  0  0  0  0  0  0
   11.5039  -17.4104   22.6134 O   0  0  0  0  0  0  0  0  0  0  0  0
    7.6850  -14.1187   21.3924 C   0  0  0  0  0  0  0  0  0  0  0  0
    6.7295  -13.4873   20.6249 C   0  0  0  0  0  0  0  0  0  0  0  0
   15.1384  -19.8337   18.9911 N   0  0  0  0  0  0  0  0  0  0  0  0
   16.0317  -19.8403   20.0892 C   0  0  0  0  0  0  0  0  0  0  0  0
   16.9948  -20.6128   20.1520 O   0  0  0  0  0  0  0  0  0  0  0  0
   15.7881  -18.8779   21.1975 C   0  0  0  0  0  0  0  0  0  0  0  0
   14.7520  -17.8702   20.9295 C   0  0  0  0  0  0  0  0  0  0  0  0
   14.1916  -17.0830   22.0590 C   0  0  2  0  0  0  0  0  0  0  0  0
   13.1154  -16.1922   21.5378 N   0  0  0  0  0  0  0  0  0  0  0  0
   15.1641  -16.2468   22.7972 C   0  0  0  0  0  0  0  0  0  0  0  0
   15.8643  -15.3601   22.1762 O   0  0  0  0  0  0  0  0  0  0  0  0
   15.4333  -16.3016   24.1828 N   0  0  0  0  0  0  0  0  0  0  0  0
   16.5426  -17.0789   24.7301 C   0  0  1  0  0  0  0  0  0  0  0  0
   16.3913  -18.5492   24.4094 C   0  0  0  0  0  0  0  0  0  0  0  0
   15.3899  -19.2277   25.2403 C   0  0  0  0  0  0  0  0  0  0  0  0
   14.6114  -18.6808   26.2520 C   0  0  0  0  0  0  0  0  0  0  0  0
   13.8136  -19.6486   26.7692 N   0  0  0  0  0  0  0  0  0  0  0  0
   14.0859  -20.7909   26.0920 C   0  0  0  0  0  0  0  0  0  0  0  0
   15.0368  -20.5193   25.1757 N   0  0  0  0  0  0  0  0  0  0  0  0
   17.7919  -16.5192   24.2013 C   0  0  0  0  0  0  0  0  0  0  0  0
   18.5544  -15.8830   24.9569 O   0  0  0  0  0  0  0  0  0  0  0  0
   18.1367  -16.6851   22.8821 O   0  0  0  0  0  0  0  0  0  0  0  0
  2  1  1  0
  3  2  2  0
  4  3  1  0
  5  4  2  0
  5 11  1  0
  6  5  1  0
  7  9  1  0
  7  6  1  0
  7  8  1  1
  9 10  2  0
 11 12  2  0
 12  2  1  0
 14 13  1  0
 15 14  2  0
 16 14  1  0
 17 16  1  0
 18 17  1  6
 19 18  1  0
 19  9  1  0
 20 18  1  0
 21 20  2  0
 22 20  1  0
 23 30  1  0
 23 22  1  0
 24 25  1  0
 23 24  1  6
 25 29  1  0
 26 27  1  0
 26 25  2  0
 27 28  1  0
 28 29  2  0
 30 32  1  0
 31 30  2  0
M  END
$$$$
