YQH.pdb
     RDKit          3D

 32 33  0  0  1  0  0  0  0  0999 V2000
    7.0756  -12.9885   13.8150 O   0  0  0  0  0  0  0  0  0  0  0  0
    7.4804  -13.5117   15.0565 C   0  0  0  0  0  0  0  0  0  0  0  0
    8.3452  -14.5778   15.1379 C   0  0  0  0  0  0  0  0  0  0  0  0
    8.7391  -15.0871   16.3540 C   0  0  0  0  0  0  0  0  0  0  0  0
    8.2811  -14.5475   17.5574 C   0  0  0  0  0  0  0  0  0  0  0  0
    8.7067  -15.0980   18.8720 C   0  0  0  0  0  0  0  0  0  0  0  0
    8.6047  -16.5861   18.8029 C   0  0  2  0  0  0  0  0  0  0  0  0
    7.1695  -16.9124   18.7804 N   0  0  0  0  0  0  0  0  0  0  0  0
    9.1844  -17.2919   19.9521 C   0  0  0  0  0  0  0  0  0  0  0  0
    8.3956  -17.5258   20.9314 O   0  0  0  0  0  0  0  0  0  0  0  0
    7.4148  -13.4792   17.4581 C   0  0  0  0  0  0  0  0  0  0  0  0
    7.0205  -12.9693   16.2393 C   0  0  0  0  0  0  0  0  0  0  0  0
    7.6599  -20.7869   21.5447 N   0  0  0  0  0  0  0  0  0  0  0  0
    8.4628  -21.0575   20.4107 C   0  0  0  0  0  0  0  0  0  0  0  0
    8.0681  -21.7632   19.4755 O   0  0  0  0  0  0  0  0  0  0  0  0
    9.8265  -20.4645   20.3590 C   0  0  0  0  0  0  0  0  0  0  0  0
   10.1912  -19.6417   21.5211 C   0  0  0  0  0  0  0  0  0  0  0  0
   10.9817  -18.3998   21.3155 C   0  0  2  0  0  0  0  0  0  0  0  0
   10.5072  -17.7274   20.0720 N   0  0  0  0  0  0  0  0  0  0  0  0
   12.4457  -18.5868   21.2077 C   0  0  0  0  0  0  0  0  0  0  0  0
   12.9591  -19.7670   21.2845 O   0  0  0  0  0  0  0  0  0  0  0  0
   13.4077  -17.5703   21.0160 N   0  0  0  0  0  0  0  0  0  0  0  0
   13.7391  -16.6052   22.0614 C   0  0  1  0  0  0  0  0  0  0  0  0
   12.5351  -15.7708   22.4376 C   0  0  0  0  0  0  0  0  0  0  0  0
   12.0919  -14.8697   21.3674 C   0  0  0  0  0  0  0  0  0  0  0  0
   12.6940  -14.6508   20.1352 C   0  0  0  0  0  0  0  0  0  0  0  0
   11.9649  -13.7410   19.4415 N   0  0  0  0  0  0  0  0  0  0  0  0
   10.9167  -13.3910   20.2265 C   0  0  0  0  0  0  0  0  0  0  0  0
   11.0089  -14.0798   21.3818 N   0  0  0  0  0  0  0  0  0  0  0  0
   14.2829  -17.3459   23.2055 C   0  0  0  0  0  0  0  0  0  0  0  0
   15.3487  -16.9718   23.7357 O   0  0  0  0  0  0  0  0  0  0  0  0
   13.6346  -18.4494   23.7042 O   0  0  0  0  0  0  0  0  0  0  0  0
  2  1  1  0
  3  2  2  0
  4  3  1  0
  5  4  2  0
  5 11  1  0
  6  5  1  0
  7  9  1  0
  7  6  1  0
  7  8  1  1
  9 10  2  0
 11 12  2  0
 12  2  1  0
 14 13  1  0
 15 14  2  0
 16 14  1  0
 17 16  1  0
 18 17  1  6
 19 18  1  0
 19  9  1  0
 20 18  1  0
 21 20  2  0
 22 20  1  0
 23 30  1  0
 23 22  1  0
 24 25  1  0
 23 24  1  1
 25 29  1  0
 26 27  1  0
 26 25  2  0
 27 28  1  0
 28 29  2  0
 30 32  1  0
 31 30  2  0
M  END
$$$$
