YQH.pdb
     RDKit          3D

 32 33  0  0  1  0  0  0  0  0999 V2000
    7.5905  -11.6206   17.3755 O   0  0  0  0  0  0  0  0  0  0  0  0
    7.7065  -12.5494   18.4257 C   0  0  0  0  0  0  0  0  0  0  0  0
    8.6756  -12.4212   19.3927 C   0  0  0  0  0  0  0  0  0  0  0  0
    8.7862  -13.3316   20.4186 C   0  0  0  0  0  0  0  0  0  0  0  0
    7.9230  -14.4237   20.5253 C   0  0  0  0  0  0  0  0  0  0  0  0
    8.0425  -15.4079   21.6340 C   0  0  0  0  0  0  0  0  0  0  0  0
    9.1828  -16.3192   21.3200 C   0  0  2  0  0  0  0  0  0  0  0  0
    8.8252  -17.0363   20.0852 N   0  0  0  0  0  0  0  0  0  0  0  0
    9.4499  -17.3381   22.3426 C   0  0  0  0  0  0  0  0  0  0  0  0
    9.0711  -18.5289   22.0698 O   0  0  0  0  0  0  0  0  0  0  0  0
    6.9571  -14.5375   19.5477 C   0  0  0  0  0  0  0  0  0  0  0  0
    6.8468  -13.6250   18.5200 C   0  0  0  0  0  0  0  0  0  0  0  0
   12.9274  -20.9696   22.2481 N   0  0  0  0  0  0  0  0  0  0  0  0
   13.4083  -19.6418   22.3453 C   0  0  0  0  0  0  0  0  0  0  0  0
   14.4875  -19.2930   21.8534 O   0  0  0  0  0  0  0  0  0  0  0  0
   12.5737  -18.6445   23.0681 C   0  0  0  0  0  0  0  0  0  0  0  0
   11.3494  -19.1832   23.6777 C   0  0  0  0  0  0  0  0  0  0  0  0
   10.4573  -18.2754   24.4456 C   0  0  2  0  0  0  0  0  0  0  0  0
   10.0745  -17.1269   23.5750 N   0  0  0  0  0  0  0  0  0  0  0  0
   11.0266  -17.7331   25.6992 C   0  0  0  0  0  0  0  0  0  0  0  0
   11.8480  -18.4377   26.4000 O   0  0  0  0  0  0  0  0  0  0  0  0
   10.7678  -16.4602   26.2543 N   0  0  0  0  0  0  0  0  0  0  0  0
   10.0727  -16.2933   27.5283 C   0  0  1  0  0  0  0  0  0  0  0  0
    8.5723  -16.3417   27.3437 C   0  0  0  0  0  0  0  0  0  0  0  0
    8.0473  -15.2328   26.5386 C   0  0  0  0  0  0  0  0  0  0  0  0
    8.7593  -14.1937   25.9539 C   0  0  0  0  0  0  0  0  0  0  0  0
    7.8956  -13.3799   25.2963 N   0  0  0  0  0  0  0  0  0  0  0  0
    6.6550  -13.8996   25.4645 C   0  0  0  0  0  0  0  0  0  0  0  0
    6.7649  -15.0144   26.2146 N   0  0  0  0  0  0  0  0  0  0  0  0
   10.5547  -17.3317   28.4464 C   0  0  0  0  0  0  0  0  0  0  0  0
   10.7547  -18.4884   28.0233 O   0  0  0  0  0  0  0  0  0  0  0  0
   10.7902  -17.0494   29.7699 O   0  0  0  0  0  0  0  0  0  0  0  0
  2  1  1  0
  3  2  2  0
  4  3  1  0
  5  4  2  0
  5 11  1  0
  6  5  1  0
  7  9  1  0
  7  6  1  0
  7  8  1  6
  9 10  2  0
 11 12  2  0
 12  2  1  0
 14 13  1  0
 15 14  2  0
 16 14  1  0
 17 16  1  0
 18 17  1  6
 19 18  1  0
 19  9  1  0
 20 18  1  0
 21 20  2  0
 22 20  1  0
 23 30  1  0
 23 22  1  0
 24 25  1  0
 23 24  1  6
 25 29  1  0
 26 27  1  0
 26 25  2  0
 27 28  1  0
 28 29  2  0
 30 32  1  0
 31 30  2  0
M  END
$$$$
