YQH.pdb
     RDKit          3D

 32 33  0  0  1  0  0  0  0  0999 V2000
    6.5163  -12.0073   19.1086 O   0  0  0  0  0  0  0  0  0  0  0  0
    7.6534  -12.7255   19.5211 C   0  0  0  0  0  0  0  0  0  0  0  0
    7.5458  -13.8504   20.3046 C   0  0  0  0  0  0  0  0  0  0  0  0
    8.6602  -14.5507   20.7063 C   0  0  0  0  0  0  0  0  0  0  0  0
    9.9471  -14.1534   20.3386 C   0  0  0  0  0  0  0  0  0  0  0  0
   11.1517  -14.9101   20.7729 C   0  0  0  0  0  0  0  0  0  0  0  0
   11.7273  -15.5875   19.5731 C   0  0  2  0  0  0  0  0  0  0  0  0
   10.6664  -16.4452   19.0204 N   0  0  0  0  0  0  0  0  0  0  0  0
   12.8755  -16.4577   19.8551 C   0  0  0  0  0  0  0  0  0  0  0  0
   12.6060  -17.6283   20.2942 O   0  0  0  0  0  0  0  0  0  0  0  0
   10.0373  -13.0236   19.5530 C   0  0  0  0  0  0  0  0  0  0  0  0
    8.9204  -12.3225   19.1509 C   0  0  0  0  0  0  0  0  0  0  0  0
   17.5928  -18.0777   16.2422 N   0  0  0  0  0  0  0  0  0  0  0  0
   16.6580  -17.0158   16.2880 C   0  0  0  0  0  0  0  0  0  0  0  0
   16.6534  -16.1038   15.4533 O   0  0  0  0  0  0  0  0  0  0  0  0
   15.6534  -17.0123   17.3856 C   0  0  0  0  0  0  0  0  0  0  0  0
   16.2119  -17.1304   18.7401 C   0  0  0  0  0  0  0  0  0  0  0  0
   15.2934  -17.1408   19.9088 C   0  0  2  0  0  0  0  0  0  0  0  0
   14.2231  -16.1261   19.6889 N   0  0  0  0  0  0  0  0  0  0  0  0
   15.9255  -16.8668   21.2184 C   0  0  0  0  0  0  0  0  0  0  0  0
   16.8657  -17.6301   21.6605 O   0  0  0  0  0  0  0  0  0  0  0  0
   15.6085  -15.8056   22.0952 N   0  0  0  0  0  0  0  0  0  0  0  0
   16.1227  -15.7446   23.4613 C   0  0  1  0  0  0  0  0  0  0  0  0
   16.1665  -17.1189   24.0914 C   0  0  0  0  0  0  0  0  0  0  0  0
   14.8385  -17.6640   24.3958 C   0  0  0  0  0  0  0  0  0  0  0  0
   13.6073  -17.0389   24.2476 C   0  0  0  0  0  0  0  0  0  0  0  0
   12.6279  -17.8901   24.6435 N   0  0  0  0  0  0  0  0  0  0  0  0
   13.2342  -19.0372   25.0362 C   0  0  0  0  0  0  0  0  0  0  0  0
   14.5645  -18.8836   24.8804 N   0  0  0  0  0  0  0  0  0  0  0  0
   17.4445  -15.1085   23.4196 C   0  0  0  0  0  0  0  0  0  0  0  0
   18.0603  -14.8894   24.4825 O   0  0  0  0  0  0  0  0  0  0  0  0
   18.0171  -14.7489   22.2240 O   0  0  0  0  0  0  0  0  0  0  0  0
  2  1  1  0
  3  2  2  0
  4  3  1  0
  5  4  2  0
  5 11  1  0
  6  5  1  0
  7  9  1  0
  7  6  1  0
  7  8  1  1
  9 10  2  0
 11 12  2  0
 12  2  1  0
 14 13  1  0
 15 14  2  0
 16 14  1  0
 17 16  1  0
 18 17  1  6
 19 18  1  0
 19  9  1  0
 20 18  1  0
 21 20  2  0
 22 20  1  0
 23 30  1  0
 23 22  1  0
 24 25  1  0
 23 24  1  6
 25 29  1  0
 26 27  1  0
 26 25  2  0
 27 28  1  0
 28 29  2  0
 30 32  1  0
 31 30  2  0
M  END
$$$$
