YQH.pdb
     RDKit          3D

 32 33  0  0  1  0  0  0  0  0999 V2000
    6.2345  -11.5784   18.7505 O   0  0  0  0  0  0  0  0  0  0  0  0
    7.0929  -12.5746   19.2503 C   0  0  0  0  0  0  0  0  0  0  0  0
    6.6036  -13.7605   19.7453 C   0  0  0  0  0  0  0  0  0  0  0  0
    7.4462  -14.7328   20.2334 C   0  0  0  0  0  0  0  0  0  0  0  0
    8.8316  -14.5616   20.2489 C   0  0  0  0  0  0  0  0  0  0  0  0
    9.7424  -15.6124   20.7765 C   0  0  0  0  0  0  0  0  0  0  0  0
   10.3438  -16.3277   19.6120 C   0  0  2  0  0  0  0  0  0  0  0  0
    9.2885  -17.1868   19.0508 N   0  0  0  0  0  0  0  0  0  0  0  0
   11.4721  -17.2040   19.9499 C   0  0  0  0  0  0  0  0  0  0  0  0
   11.4481  -18.3797   19.4468 O   0  0  0  0  0  0  0  0  0  0  0  0
    9.3057  -13.3669   19.7490 C   0  0  0  0  0  0  0  0  0  0  0  0
    8.4610  -12.3931   19.2600 C   0  0  0  0  0  0  0  0  0  0  0  0
   15.0214  -18.1848   16.6516 N   0  0  0  0  0  0  0  0  0  0  0  0
   16.0034  -18.4210   17.6434 C   0  0  0  0  0  0  0  0  0  0  0  0
   17.1953  -18.5938   17.3642 O   0  0  0  0  0  0  0  0  0  0  0  0
   15.5689  -18.4598   19.0659 C   0  0  0  0  0  0  0  0  0  0  0  0
   14.2761  -17.8158   19.3389 C   0  0  0  0  0  0  0  0  0  0  0  0
   13.8065  -17.6907   20.7436 C   0  0  2  0  0  0  0  0  0  0  0  0
   12.5595  -16.8732   20.7634 N   0  0  0  0  0  0  0  0  0  0  0  0
   14.7712  -17.0817   21.6861 C   0  0  0  0  0  0  0  0  0  0  0  0
   15.1181  -15.8468   21.5559 O   0  0  0  0  0  0  0  0  0  0  0  0
   15.3937  -17.7248   22.7789 N   0  0  0  0  0  0  0  0  0  0  0  0
   16.1887  -16.9936   23.7626 C   0  0  1  0  0  0  0  0  0  0  0  0
   16.1557  -17.6782   25.1108 C   0  0  0  0  0  0  0  0  0  0  0  0
   14.8252  -17.6845   25.7298 C   0  0  0  0  0  0  0  0  0  0  0  0
   13.6904  -16.9996   25.3155 C   0  0  0  0  0  0  0  0  0  0  0  0
   12.6700  -17.2785   26.1650 N   0  0  0  0  0  0  0  0  0  0  0  0
   13.1556  -18.1283   27.1028 C   0  0  0  0  0  0  0  0  0  0  0  0
   14.4542  -18.3619   26.8256 N   0  0  0  0  0  0  0  0  0  0  0  0
   17.5526  -16.8644   23.2366 C   0  0  0  0  0  0  0  0  0  0  0  0
   18.4244  -16.2812   23.9125 O   0  0  0  0  0  0  0  0  0  0  0  0
   17.8862  -17.3775   22.0070 O   0  0  0  0  0  0  0  0  0  0  0  0
  2  1  1  0
  3  2  2  0
  4  3  1  0
  5  4  2  0
  5 11  1  0
  6  5  1  0
  7  9  1  0
  7  6  1  0
  7  8  1  1
  9 10  2  0
 11 12  2  0
 12  2  1  0
 14 13  1  0
 15 14  2  0
 16 14  1  0
 17 16  1  0
 18 17  1  6
 19 18  1  0
 19  9  1  0
 20 18  1  0
 21 20  2  0
 22 20  1  0
 23 30  1  0
 23 22  1  0
 24 25  1  0
 23 24  1  1
 25 29  1  0
 26 27  1  0
 26 25  2  0
 27 28  1  0
 28 29  2  0
 30 32  1  0
 31 30  2  0
M  END
$$$$
