YQH.pdb
     RDKit          3D

 32 33  0  0  1  0  0  0  0  0999 V2000
   19.0201  -13.1442   15.9437 O   0  0  0  0  0  0  0  0  0  0  0  0
   17.8633  -13.5478   16.6350 C   0  0  0  0  0  0  0  0  0  0  0  0
   17.1218  -12.6562   17.3739 C   0  0  0  0  0  0  0  0  0  0  0  0
   15.9907  -13.0544   18.0489 C   0  0  0  0  0  0  0  0  0  0  0  0
   15.5448  -14.3769   18.0153 C   0  0  0  0  0  0  0  0  0  0  0  0
   14.3223  -14.8075   18.7449 C   0  0  0  0  0  0  0  0  0  0  0  0
   13.3826  -15.4104   17.7535 C   0  0  2  0  0  0  0  0  0  0  0  0
   12.7923  -14.2950   16.9958 N   0  0  0  0  0  0  0  0  0  0  0  0
   12.2683  -16.1604   18.3459 C   0  0  0  0  0  0  0  0  0  0  0  0
   11.3081  -15.4653   18.8262 O   0  0  0  0  0  0  0  0  0  0  0  0
   16.2997  -15.2580   17.2699 C   0  0  0  0  0  0  0  0  0  0  0  0
   17.4328  -14.8584   16.5938 C   0  0  0  0  0  0  0  0  0  0  0  0
    9.8518  -21.7036   17.1920 N   0  0  0  0  0  0  0  0  0  0  0  0
    9.2229  -21.4746   18.4393 C   0  0  0  0  0  0  0  0  0  0  0  0
    8.3555  -22.2314   18.8900 O   0  0  0  0  0  0  0  0  0  0  0  0
    9.6316  -20.2768   19.2216 C   0  0  0  0  0  0  0  0  0  0  0  0
   10.5964  -19.3947   18.5496 C   0  0  0  0  0  0  0  0  0  0  0  0
   11.0977  -18.1884   19.2587 C   0  0  2  0  0  0  0  0  0  0  0  0
   12.1626  -17.5515   18.4317 N   0  0  0  0  0  0  0  0  0  0  0  0
   11.6468  -18.4270   20.6120 C   0  0  0  0  0  0  0  0  0  0  0  0
   10.8879  -18.8737   21.5536 O   0  0  0  0  0  0  0  0  0  0  0  0
   12.9818  -18.2160   21.0229 N   0  0  0  0  0  0  0  0  0  0  0  0
   13.4597  -18.6070   22.3469 C   0  0  1  0  0  0  0  0  0  0  0  0
   14.6200  -19.5720   22.2469 C   0  0  0  0  0  0  0  0  0  0  0  0
   14.2393  -20.8909   21.7282 C   0  0  0  0  0  0  0  0  0  0  0  0
   12.9737  -21.3273   21.3586 C   0  0  0  0  0  0  0  0  0  0  0  0
   13.0555  -22.6126   20.9322 N   0  0  0  0  0  0  0  0  0  0  0  0
   14.3561  -22.9816   21.0318 C   0  0  0  0  0  0  0  0  0  0  0  0
   15.0543  -21.9332   21.5126 N   0  0  0  0  0  0  0  0  0  0  0  0
   13.8126  -17.3856   23.0798 C   0  0  0  0  0  0  0  0  0  0  0  0
   14.2787  -17.4688   24.2343 O   0  0  0  0  0  0  0  0  0  0  0  0
   13.6373  -16.1469   22.5127 O   0  0  0  0  0  0  0  0  0  0  0  0
  2  1  1  0
  3  2  2  0
  4  3  1  0
  5  4  2  0
  5 11  1  0
  6  5  1  0
  7  9  1  0
  7  6  1  0
  7  8  1  1
  9 10  2  0
 11 12  2  0
 12  2  1  0
 14 13  1  0
 15 14  2  0
 16 14  1  0
 17 16  1  0
 18 17  1  6
 19 18  1  0
 19  9  1  0
 20 18  1  0
 21 20  2  0
 22 20  1  0
 23 30  1  0
 23 22  1  0
 24 25  1  0
 23 24  1  6
 25 29  1  0
 26 27  1  0
 26 25  2  0
 27 28  1  0
 28 29  2  0
 30 32  1  0
 31 30  2  0
M  END
$$$$
