RQV.pdb
     RDKit          3D

 28 27  0  0  1  0  0  0  0  0999 V2000
   31.6327  -22.6078  -12.9667 N   0  0  0  0  0  0  0  0  0  0  0  0
   31.8304  -21.8391  -11.7905 C   0  0  0  0  0  0  0  0  0  0  0  0
   32.9897  -21.7338  -11.2695 N   0  0  0  0  0  0  0  0  0  0  0  0
   30.7126  -21.1763  -11.1858 N   0  0  0  0  0  0  0  0  0  0  0  0
   29.8783  -20.2832  -11.9189 C   0  0  0  0  0  0  0  0  0  0  0  0
   29.7688  -20.3699  -13.3697 C   0  0  0  0  0  0  0  0  0  0  0  0
   28.5044  -20.4545  -14.1061 C   0  0  0  0  0  0  0  0  0  0  0  0
   27.7698  -21.7184  -14.0141 C   0  0  2  0  0  0  0  0  0  0  0  0
   28.0997  -22.6497  -15.0168 N   0  0  0  0  0  0  0  0  0  0  0  0
   26.2755  -21.5248  -13.9957 C   0  0  0  0  0  0  0  0  0  0  0  0
   25.6023  -22.0014  -14.9463 O   0  0  0  0  0  0  0  0  0  0  0  0
   33.1049  -21.2184  -10.3734 N   0  0  0  0  0  0  0  0  0  0  0  0
   22.8803  -19.8333   -8.9935 C   0  0  0  0  0  0  0  0  0  0  0  0
   23.6285  -21.0035   -9.2179 O   0  0  0  0  0  0  0  0  0  0  0  0
   23.8488  -21.7813   -8.2637 C   0  0  0  0  0  0  0  0  0  0  0  0
   24.1449  -21.3123  -10.5479 C   0  0  0  0  0  0  0  0  0  0  0  0
   23.7135  -20.2468  -11.5394 C   0  0  2  0  0  0  0  0  0  0  0  0
   24.1588  -20.7129  -12.9061 N   0  0  0  0  0  0  0  0  0  0  0  0
   25.5859  -20.8440  -12.9814 C   0  0  0  0  0  0  0  0  0  0  0  0
   23.5921  -19.7982  -13.9074 O   0  0  0  0  0  0  0  0  0  0  0  0
   24.0595  -18.6673  -14.1980 C   0  0  0  0  0  0  0  0  0  0  0  0
   22.9932  -20.3502  -17.4572 C   0  0  2  0  0  0  0  0  0  0  0  0
   21.6454  -20.0277  -16.8882 C   0  0  0  0  0  0  0  0  0  0  0  0
   20.8983  -21.3310  -16.7010 C   0  0  2  0  0  0  0  0  0  0  0  0
   21.7871  -19.2893  -15.5548 N   0  0  0  0  0  0  0  0  0  0  0  0
   22.4251  -20.2142  -14.6077 C   0  0  0  0  0  0  0  0  0  0  0  0
   20.4437  -18.9025  -15.1015 O   0  0  0  0  0  0  0  0  0  0  0  0
   19.9117  -19.5160  -14.1569 O   0  0  0  0  0  0  0  0  0  0  0  0
  2  1  1  0
  3  2  2  0
  4  2  1  0
  5  4  1  0
  6  5  1  0
  7  6  1  0
  8  7  1  0
  8  9  1  6
 10  8  1  0
 10 18  1  0
 11 10  2  0
 13 12  1  0
 14 13  2  0
 15 13  1  0
 16 15  1  0
 17 16  1  1
 17 18  1  0
 19 17  1  0
 20 19  2  0
 22 21  1  6
 22 23  1  0
 22 24  1  0
 24 26  1  0
 24 25  1  6
 25 19  1  0
 26 28  1  0
 27 26  2  0
M  END
$$$$
