RQV.pdb
     RDKit          3D

 28 27  0  0  1  0  0  0  0  0999 V2000
   31.6967  -28.9587  -20.5019 N   0  0  0  0  0  0  0  0  0  0  0  0
   32.2894  -29.0550  -19.2163 C   0  0  0  0  0  0  0  0  0  0  0  0
   32.9535  -30.0914  -18.8823 N   0  0  0  0  0  0  0  0  0  0  0  0
   32.1374  -27.9740  -18.2876 N   0  0  0  0  0  0  0  0  0  0  0  0
   31.1424  -26.9679  -18.4575 C   0  0  0  0  0  0  0  0  0  0  0  0
   29.7378  -27.3155  -18.6326 C   0  0  0  0  0  0  0  0  0  0  0  0
   28.6435  -26.3442  -18.7171 C   0  0  0  0  0  0  0  0  0  0  0  0
   27.8909  -26.0883  -17.4867 C   0  0  2  0  0  0  0  0  0  0  0  0
   28.6978  -25.8607  -16.3560 N   0  0  0  0  0  0  0  0  0  0  0  0
   26.8996  -27.1786  -17.1716 C   0  0  0  0  0  0  0  0  0  0  0  0
   27.2970  -28.1692  -16.5048 O   0  0  0  0  0  0  0  0  0  0  0  0
   33.4069  -30.1310  -17.9469 N   0  0  0  0  0  0  0  0  0  0  0  0
   20.5967  -26.6528  -16.9143 C   0  0  0  0  0  0  0  0  0  0  0  0
   20.9325  -27.8353  -16.2299 O   0  0  0  0  0  0  0  0  0  0  0  0
   20.0578  -28.4204  -15.5540 C   0  0  0  0  0  0  0  0  0  0  0  0
   22.2854  -28.3786  -16.3036 C   0  0  0  0  0  0  0  0  0  0  0  0
   23.1853  -27.4425  -17.0900 C   0  0  2  0  0  0  0  0  0  0  0  0
   24.5530  -28.0834  -17.1350 N   0  0  0  0  0  0  0  0  0  0  0  0
   25.5568  -27.1579  -17.5768 C   0  0  0  0  0  0  0  0  0  0  0  0
   24.4609  -29.2980  -17.9576 O   0  0  0  0  0  0  0  0  0  0  0  0
   24.4467  -29.3186  -19.2152 C   0  0  0  0  0  0  0  0  0  0  0  0
   26.4483  -32.6052  -17.0162 C   0  0  2  0  0  0  0  0  0  0  0  0
   24.9941  -32.8903  -17.2369 C   0  0  0  0  0  0  0  0  0  0  0  0
   24.3285  -32.9773  -15.8800 C   0  0  2  0  0  0  0  0  0  0  0  0
   24.3526  -31.7887  -18.0843 N   0  0  0  0  0  0  0  0  0  0  0  0
   24.3815  -30.5525  -17.2902 C   0  0  0  0  0  0  0  0  0  0  0  0
   22.9741  -32.1937  -18.3928 O   0  0  0  0  0  0  0  0  0  0  0  0
   22.0351  -31.7648  -17.6956 O   0  0  0  0  0  0  0  0  0  0  0  0
  2  1  1  0
  3  2  2  0
  4  2  1  0
  5  4  1  0
  6  5  1  0
  7  6  1  0
  8  7  1  0
  8  9  1  1
 10  8  1  0
 10 18  1  0
 11 10  2  0
 13 12  1  0
 14 13  2  0
 15 13  1  0
 16 15  1  0
 17 16  1  1
 17 18  1  0
 19 17  1  0
 20 19  2  0
 22 21  1  1
 22 23  1  0
 22 24  1  0
 24 26  1  0
 24 25  1  6
 25 19  1  0
 26 28  1  0
 27 26  2  0
M  END
$$$$
