RQV.pdb
     RDKit          3D

 28 27  0  0  1  0  0  0  0  0999 V2000
   26.3712  -17.5148  -19.9715 N   0  0  0  0  0  0  0  0  0  0  0  0
   27.2062  -16.6182  -19.2557 C   0  0  0  0  0  0  0  0  0  0  0  0
   27.8384  -15.6923  -19.8637 N   0  0  0  0  0  0  0  0  0  0  0  0
   27.3372  -16.7589  -17.8355 N   0  0  0  0  0  0  0  0  0  0  0  0
   26.7071  -17.8191  -17.1212 C   0  0  0  0  0  0  0  0  0  0  0  0
   26.7295  -19.1872  -17.6234 C   0  0  0  0  0  0  0  0  0  0  0  0
   26.0736  -20.3246  -16.9721 C   0  0  0  0  0  0  0  0  0  0  0  0
   26.5864  -20.7188  -15.6578 C   0  0  2  0  0  0  0  0  0  0  0  0
   27.5920  -21.7026  -15.7042 N   0  0  0  0  0  0  0  0  0  0  0  0
   25.4984  -21.1721  -14.7189 C   0  0  0  0  0  0  0  0  0  0  0  0
   24.7888  -22.1537  -15.0607 O   0  0  0  0  0  0  0  0  0  0  0  0
   28.4313  -15.0329  -19.3199 N   0  0  0  0  0  0  0  0  0  0  0  0
   25.2659  -20.6049   -8.5219 C   0  0  0  0  0  0  0  0  0  0  0  0
   26.2270  -21.0477   -9.4490 O   0  0  0  0  0  0  0  0  0  0  0  0
   27.3997  -21.2509   -9.0647 C   0  0  0  0  0  0  0  0  0  0  0  0
   25.8659  -21.2695  -10.8459 C   0  0  0  0  0  0  0  0  0  0  0  0
   24.5243  -20.6275  -11.1500 C   0  0  2  0  0  0  0  0  0  0  0  0
   24.1869  -20.9730  -12.5819 N   0  0  0  0  0  0  0  0  0  0  0  0
   25.2265  -20.5659  -13.4834 C   0  0  0  0  0  0  0  0  0  0  0  0
   22.8710  -20.3967  -12.8925 O   0  0  0  0  0  0  0  0  0  0  0  0
   22.6441  -19.1730  -13.0751 C   0  0  0  0  0  0  0  0  0  0  0  0
   20.9805  -20.9316  -15.7644 C   0  0  2  0  0  0  0  0  0  0  0  0
   20.0315  -21.3521  -14.6841 C   0  0  0  0  0  0  0  0  0  0  0  0
   20.0536  -22.8640  -14.6116 C   0  0  2  0  0  0  0  0  0  0  0  0
   20.4397  -20.7403  -13.3416 N   0  0  0  0  0  0  0  0  0  0  0  0
   21.7616  -21.2819  -12.9973 C   0  0  0  0  0  0  0  0  0  0  0  0
   19.4306  -21.1173  -12.3418 O   0  0  0  0  0  0  0  0  0  0  0  0
   19.6891  -22.0091  -11.5115 O   0  0  0  0  0  0  0  0  0  0  0  0
  2  1  1  0
  3  2  2  0
  4  2  1  0
  5  4  1  0
  6  5  1  0
  7  6  1  0
  8  7  1  0
  8  9  1  6
 10  8  1  0
 10 18  1  0
 11 10  2  0
 13 12  1  0
 14 13  2  0
 15 13  1  0
 16 15  1  0
 17 16  1  1
 17 18  1  0
 19 17  1  0
 20 19  2  0
 22 21  1  6
 22 23  1  0
 22 24  1  0
 24 26  1  0
 24 25  1  1
 25 19  1  0
 26 28  1  0
 27 26  2  0
M  END
$$$$
