RQV.pdb
     RDKit          3D

 28 27  0  0  1  0  0  0  0  0999 V2000
   23.7010  -21.1024   -8.5557 N   0  0  0  0  0  0  0  0  0  0  0  0
   23.1651  -21.2579   -9.8603 C   0  0  0  0  0  0  0  0  0  0  0  0
   22.0990  -20.6471  -10.2026 N   0  0  0  0  0  0  0  0  0  0  0  0
   23.8322  -22.1112  -10.7990 N   0  0  0  0  0  0  0  0  0  0  0  0
   25.1467  -21.8298  -11.2723 C   0  0  0  0  0  0  0  0  0  0  0  0
   25.7305  -20.5011  -11.1376 C   0  0  0  0  0  0  0  0  0  0  0  0
   26.9979  -20.0827  -11.7433 C   0  0  0  0  0  0  0  0  0  0  0  0
   27.3480  -20.6909  -13.0291 C   0  0  2  0  0  0  0  0  0  0  0  0
   28.5708  -21.3881  -13.0214 N   0  0  0  0  0  0  0  0  0  0  0  0
   27.3560  -19.6972  -14.1618 C   0  0  0  0  0  0  0  0  0  0  0  0
   28.3045  -18.8722  -14.2225 O   0  0  0  0  0  0  0  0  0  0  0  0
   21.6971  -20.8070  -11.1485 N   0  0  0  0  0  0  0  0  0  0  0  0
   25.7196  -20.9307  -19.7963 C   0  0  0  0  0  0  0  0  0  0  0  0
   26.9219  -21.1213  -19.0909 O   0  0  0  0  0  0  0  0  0  0  0  0
   27.7557  -21.9509  -19.5159 C   0  0  0  0  0  0  0  0  0  0  0  0
   27.1992  -20.3621  -17.8753 C   0  0  0  0  0  0  0  0  0  0  0  0
   26.0428  -19.4294  -17.5632 C   0  0  2  0  0  0  0  0  0  0  0  0
   26.3821  -18.7278  -16.2685 N   0  0  0  0  0  0  0  0  0  0  0  0
   26.3685  -19.6343  -15.1561 C   0  0  0  0  0  0  0  0  0  0  0  0
   25.4697  -17.5856  -16.1158 O   0  0  0  0  0  0  0  0  0  0  0  0
   24.3219  -17.6422  -15.6045 C   0  0  0  0  0  0  0  0  0  0  0  0
   24.9664  -12.6805  -16.5040 C   0  0  2  0  0  0  0  0  0  0  0  0
   25.8387  -13.8985  -16.4928 C   0  0  0  0  0  0  0  0  0  0  0  0
   26.6857  -13.8495  -15.2391 C   0  0  1  0  0  0  0  0  0  0  0  0
   24.9871  -15.1702  -16.5208 N   0  0  0  0  0  0  0  0  0  0  0  0
   25.9087  -16.3133  -16.5784 C   0  0  0  0  0  0  0  0  0  0  0  0
   24.1259  -15.1174  -17.7105 O   0  0  0  0  0  0  0  0  0  0  0  0
   24.5865  -15.4479  -18.8197 O   0  0  0  0  0  0  0  0  0  0  0  0
  2  1  1  0
  3  2  2  0
  4  2  1  0
  5  4  1  0
  6  5  1  0
  7  6  1  0
  8  7  1  0
  8  9  1  1
 10  8  1  0
 10 18  1  0
 11 10  2  0
 13 12  1  0
 14 13  2  0
 15 13  1  0
 16 15  1  0
 17 16  1  6
 17 18  1  0
 19 17  1  0
 20 19  2  0
 22 21  1  6
 22 23  1  0
 22 24  1  0
 24 26  1  0
 24 25  1  6
 25 19  1  0
 26 28  1  0
 27 26  2  0
M  END
$$$$
