RQV.pdb
     RDKit          3D

 28 27  0  0  1  0  0  0  0  0999 V2000
   26.6101  -24.0577  -16.9546 N   0  0  0  0  0  0  0  0  0  0  0  0
   26.5726  -25.4378  -17.2818 C   0  0  0  0  0  0  0  0  0  0  0  0
   27.5667  -25.9986  -17.8510 N   0  0  0  0  0  0  0  0  0  0  0  0
   25.4034  -26.2050  -16.9675 N   0  0  0  0  0  0  0  0  0  0  0  0
   24.3557  -25.6840  -16.1538 C   0  0  0  0  0  0  0  0  0  0  0  0
   24.5820  -25.3463  -14.7542 C   0  0  0  0  0  0  0  0  0  0  0  0
   23.5467  -24.8640  -13.8356 C   0  0  0  0  0  0  0  0  0  0  0  0
   22.6749  -23.7939  -14.3262 C   0  0  2  0  0  0  0  0  0  0  0  0
   23.3213  -22.5538  -14.4870 N   0  0  0  0  0  0  0  0  0  0  0  0
   21.4491  -23.6019  -13.4712 C   0  0  0  0  0  0  0  0  0  0  0  0
   21.5488  -22.8862  -12.4409 O   0  0  0  0  0  0  0  0  0  0  0  0
   27.5537  -27.0263  -18.0113 N   0  0  0  0  0  0  0  0  0  0  0  0
   15.3721  -23.5588  -14.9712 C   0  0  0  0  0  0  0  0  0  0  0  0
   15.4304  -23.2725  -13.5949 O   0  0  0  0  0  0  0  0  0  0  0  0
   14.4188  -22.8104  -13.0227 C   0  0  0  0  0  0  0  0  0  0  0  0
   16.6553  -23.5099  -12.8372 C   0  0  0  0  0  0  0  0  0  0  0  0
   17.7725  -23.9461  -13.7679 C   0  0  2  0  0  0  0  0  0  0  0  0
   19.0298  -24.0322  -12.9341 N   0  0  0  0  0  0  0  0  0  0  0  0
   20.1994  -24.1734  -13.7533 C   0  0  0  0  0  0  0  0  0  0  0  0
   18.8550  -25.1149  -11.9554 O   0  0  0  0  0  0  0  0  0  0  0  0
   18.9789  -26.3412  -12.2063 C   0  0  0  0  0  0  0  0  0  0  0  0
   19.1620  -24.1983   -7.9162 C   0  0  2  0  0  0  0  0  0  0  0  0
   18.0517  -25.1371   -8.2774 C   0  0  0  0  0  0  0  0  0  0  0  0
   16.7712  -24.3329   -8.3505 C   0  0  2  0  0  0  0  0  0  0  0  0
   18.3389  -25.8197   -9.6171 N   0  0  0  0  0  0  0  0  0  0  0  0
   18.5202  -24.7597  -10.6186 C   0  0  0  0  0  0  0  0  0  0  0  0
   17.1924  -26.6774   -9.9481 O   0  0  0  0  0  0  0  0  0  0  0  0
   16.2251  -26.1999  -10.5711 O   0  0  0  0  0  0  0  0  0  0  0  0
  2  1  1  0
  3  2  2  0
  4  2  1  0
  5  4  1  0
  6  5  1  0
  7  6  1  0
  8  7  1  0
  8  9  1  1
 10  8  1  0
 10 18  1  0
 11 10  2  0
 13 12  1  0
 14 13  2  0
 15 13  1  0
 16 15  1  0
 17 16  1  6
 17 18  1  0
 19 17  1  0
 20 19  2  0
 22 21  1  1
 22 23  1  0
 22 24  1  0
 24 26  1  0
 24 25  1  1
 25 19  1  0
 26 28  1  0
 27 26  2  0
M  END
$$$$
