RQV.pdb
     RDKit          3D

 28 27  0  0  1  0  0  0  0  0999 V2000
   29.5433  -19.5753  -17.5588 N   0  0  0  0  0  0  0  0  0  0  0  0
   29.7435  -18.3502  -18.2461 C   0  0  0  0  0  0  0  0  0  0  0  0
   30.6938  -18.2242  -19.0874 N   0  0  0  0  0  0  0  0  0  0  0  0
   28.8664  -17.2463  -17.9887 N   0  0  0  0  0  0  0  0  0  0  0  0
   27.5893  -17.4234  -17.3814 C   0  0  0  0  0  0  0  0  0  0  0  0
   26.7742  -18.5983  -17.6637 C   0  0  0  0  0  0  0  0  0  0  0  0
   25.3850  -18.7722  -17.2299 C   0  0  0  0  0  0  0  0  0  0  0  0
   25.0631  -18.3567  -15.8626 C   0  0  2  0  0  0  0  0  0  0  0  0
   26.1757  -17.9262  -15.1154 N   0  0  0  0  0  0  0  0  0  0  0  0
   24.3317  -19.4210  -15.0862 C   0  0  0  0  0  0  0  0  0  0  0  0
   23.4607  -20.1026  -15.6868 O   0  0  0  0  0  0  0  0  0  0  0  0
   30.8718  -17.2978  -19.5257 N   0  0  0  0  0  0  0  0  0  0  0  0
   25.6225  -20.7737   -9.1452 C   0  0  0  0  0  0  0  0  0  0  0  0
   26.4310  -21.0015  -10.2738 O   0  0  0  0  0  0  0  0  0  0  0  0
   27.6556  -21.2027  -10.1186 C   0  0  0  0  0  0  0  0  0  0  0  0
   25.8531  -21.0042  -11.6143 C   0  0  0  0  0  0  0  0  0  0  0  0
   24.3576  -20.7534  -11.5421 C   0  0  2  0  0  0  0  0  0  0  0  0
   23.8546  -20.6866  -12.9655 N   0  0  0  0  0  0  0  0  0  0  0  0
   24.5621  -19.7003  -13.7309 C   0  0  0  0  0  0  0  0  0  0  0  0
   22.4002  -20.4779  -12.9262 O   0  0  0  0  0  0  0  0  0  0  0  0
   21.8298  -19.4585  -12.4596 C   0  0  0  0  0  0  0  0  0  0  0  0
   18.0820  -21.7523  -14.8347 C   0  0  2  0  0  0  0  0  0  0  0  0
   19.5756  -21.8571  -14.7821 C   0  0  0  0  0  0  0  0  0  0  0  0
   20.1359  -21.0705  -15.9478 C   0  0  1  0  0  0  0  0  0  0  0  0
   20.1069  -21.3097  -13.4550 N   0  0  0  0  0  0  0  0  0  0  0  0
   21.5638  -21.5012  -13.4541 C   0  0  0  0  0  0  0  0  0  0  0  0
   19.4687  -22.0587  -12.3634 O   0  0  0  0  0  0  0  0  0  0  0  0
   19.8988  -23.1867  -12.0562 O   0  0  0  0  0  0  0  0  0  0  0  0
  2  1  1  0
  3  2  2  0
  4  2  1  0
  5  4  1  0
  6  5  1  0
  7  6  1  0
  8  7  1  0
  8  9  1  1
 10  8  1  0
 10 18  1  0
 11 10  2  0
 13 12  1  0
 14 13  2  0
 15 13  1  0
 16 15  1  0
 17 16  1  6
 17 18  1  0
 19 17  1  0
 20 19  2  0
 22 21  1  6
 22 23  1  0
 22 24  1  0
 24 26  1  0
 24 25  1  6
 25 19  1  0
 26 28  1  0
 27 26  2  0
M  END
$$$$
