RQV.pdb
     RDKit          3D

 28 27  0  0  1  0  0  0  0  0999 V2000
   24.3929  -21.3536  -17.8827 N   0  0  0  0  0  0  0  0  0  0  0  0
   25.0130  -20.7342  -18.9985 C   0  0  0  0  0  0  0  0  0  0  0  0
   24.6269  -19.5883  -19.4041 N   0  0  0  0  0  0  0  0  0  0  0  0
   26.0835  -21.4073  -19.6732 N   0  0  0  0  0  0  0  0  0  0  0  0
   26.4243  -22.7607  -19.3846 C   0  0  0  0  0  0  0  0  0  0  0  0
   27.6419  -23.0950  -18.6564 C   0  0  0  0  0  0  0  0  0  0  0  0
   27.9630  -22.6198  -17.3076 C   0  0  0  0  0  0  0  0  0  0  0  0
   27.7168  -23.5502  -16.2034 C   0  0  2  0  0  0  0  0  0  0  0  0
   27.7563  -24.9073  -16.5753 N   0  0  0  0  0  0  0  0  0  0  0  0
   26.4206  -23.2748  -15.4862 C   0  0  0  0  0  0  0  0  0  0  0  0
   25.4662  -24.0781  -15.6529 O   0  0  0  0  0  0  0  0  0  0  0  0
   24.9655  -18.7318  -18.9206 N   0  0  0  0  0  0  0  0  0  0  0  0
   25.7770  -20.6236   -9.8931 C   0  0  0  0  0  0  0  0  0  0  0  0
   24.4989  -21.1129  -10.2193 O   0  0  0  0  0  0  0  0  0  0  0  0
   23.6215  -21.1729   -9.3300 C   0  0  0  0  0  0  0  0  0  0  0  0
   24.1937  -21.5473  -11.5790 C   0  0  0  0  0  0  0  0  0  0  0  0
   25.4259  -21.4285  -12.4576 C   0  0  2  0  0  0  0  0  0  0  0  0
   25.0550  -21.9871  -13.8118 N   0  0  0  0  0  0  0  0  0  0  0  0
   26.2107  -22.1747  -14.6414 C   0  0  0  0  0  0  0  0  0  0  0  0
   24.0345  -21.1100  -14.4033 O   0  0  0  0  0  0  0  0  0  0  0  0
   24.2121  -19.9046  -14.7154 C   0  0  0  0  0  0  0  0  0  0  0  0
   22.2013  -21.8421  -17.5281 C   0  0  2  0  0  0  0  0  0  0  0  0
   21.1584  -21.6420  -16.4712 C   0  0  0  0  0  0  0  0  0  0  0  0
   20.7083  -23.0086  -16.0009 C   0  0  2  0  0  0  0  0  0  0  0  0
   21.7240  -20.8278  -15.3049 N   0  0  0  0  0  0  0  0  0  0  0  0
   22.7430  -21.6565  -14.6458 C   0  0  0  0  0  0  0  0  0  0  0  0
   20.6184  -20.5116  -14.3897 O   0  0  0  0  0  0  0  0  0  0  0  0
   20.4981  -21.1479  -13.3256 O   0  0  0  0  0  0  0  0  0  0  0  0
  2  1  1  0
  3  2  2  0
  4  2  1  0
  5  4  1  0
  6  5  1  0
  7  6  1  0
  8  7  1  0
  8  9  1  6
 10  8  1  0
 10 18  1  0
 11 10  2  0
 13 12  1  0
 14 13  2  0
 15 13  1  0
 16 15  1  0
 17 16  1  1
 17 18  1  0
 19 17  1  0
 20 19  2  0
 22 21  1  6
 22 23  1  0
 22 24  1  0
 24 26  1  0
 24 25  1  1
 25 19  1  0
 26 28  1  0
 27 26  2  0
M  END
$$$$
