RQV.pdb
     RDKit          3D

 28 27  0  0  1  0  0  0  0  0999 V2000
   16.6197  -29.8109  -17.2359 N   0  0  0  0  0  0  0  0  0  0  0  0
   16.8191  -28.8574  -16.2042 C   0  0  0  0  0  0  0  0  0  0  0  0
   16.3563  -29.0599  -15.0331 N   0  0  0  0  0  0  0  0  0  0  0  0
   17.5484  -27.6563  -16.4862 N   0  0  0  0  0  0  0  0  0  0  0  0
   17.9815  -27.3285  -17.8039 C   0  0  0  0  0  0  0  0  0  0  0  0
   19.3984  -27.2505  -18.1366 C   0  0  0  0  0  0  0  0  0  0  0  0
   20.1059  -26.0147  -18.4833 C   0  0  0  0  0  0  0  0  0  0  0  0
   20.9544  -25.4257  -17.4446 C   0  0  2  0  0  0  0  0  0  0  0  0
   21.6126  -26.3709  -16.6354 N   0  0  0  0  0  0  0  0  0  0  0  0
   20.2097  -24.4573  -16.5625 C   0  0  0  0  0  0  0  0  0  0  0  0
   19.4640  -24.9248  -15.6629 O   0  0  0  0  0  0  0  0  0  0  0  0
   16.5257  -28.3567  -14.2856 N   0  0  0  0  0  0  0  0  0  0  0  0
   21.4516  -18.3516  -15.3599 C   0  0  0  0  0  0  0  0  0  0  0  0
   20.4263  -18.7216  -14.4704 O   0  0  0  0  0  0  0  0  0  0  0  0
   20.0811  -17.9256  -13.5696 C   0  0  0  0  0  0  0  0  0  0  0  0
   19.7685  -20.0191  -14.5921 C   0  0  0  0  0  0  0  0  0  0  0  0
   20.4887  -20.8793  -15.6147 C   0  0  2  0  0  0  0  0  0  0  0  0
   19.6528  -22.1232  -15.8085 N   0  0  0  0  0  0  0  0  0  0  0  0
   20.2962  -23.0623  -16.6822 C   0  0  0  0  0  0  0  0  0  0  0  0
   18.3169  -21.7093  -16.2606 O   0  0  0  0  0  0  0  0  0  0  0  0
   18.0403  -21.3045  -17.4189 C   0  0  0  0  0  0  0  0  0  0  0  0
   13.5424  -22.2620  -15.6818 C   0  0  2  0  0  0  0  0  0  0  0  0
   14.9598  -22.5496  -15.2908 C   0  0  0  0  0  0  0  0  0  0  0  0
   15.3541  -23.8696  -15.9181 C   0  0  1  0  0  0  0  0  0  0  0  0
   15.8867  -21.4273  -15.7645 N   0  0  0  0  0  0  0  0  0  0  0  0
   17.2468  -21.7674  -15.3241 C   0  0  0  0  0  0  0  0  0  0  0  0
   15.4277  -20.1693  -15.1593 O   0  0  0  0  0  0  0  0  0  0  0  0
   15.9049  -19.7996  -14.0696 O   0  0  0  0  0  0  0  0  0  0  0  0
  2  1  1  0
  3  2  2  0
  4  2  1  0
  5  4  1  0
  6  5  1  0
  7  6  1  0
  8  7  1  0
  8  9  1  1
 10  8  1  0
 10 18  1  0
 11 10  2  0
 13 12  1  0
 14 13  2  0
 15 13  1  0
 16 15  1  0
 17 16  1  1
 17 18  1  0
 19 17  1  0
 20 19  2  0
 22 21  1  1
 22 23  1  0
 22 24  1  0
 24 26  1  0
 24 25  1  1
 25 19  1  0
 26 28  1  0
 27 26  2  0
M  END
$$$$
