RQV.pdb
     RDKit          3D

 28 27  0  0  1  0  0  0  0  0999 V2000
   27.3610  -20.0764  -18.3076 N   0  0  0  0  0  0  0  0  0  0  0  0
   28.6505  -20.6081  -18.0471 C   0  0  0  0  0  0  0  0  0  0  0  0
   29.6127  -20.4087  -18.8601 N   0  0  0  0  0  0  0  0  0  0  0  0
   28.8686  -21.3764  -16.8569 N   0  0  0  0  0  0  0  0  0  0  0  0
   27.9063  -21.4303  -15.8070 C   0  0  0  0  0  0  0  0  0  0  0  0
   27.1249  -20.2570  -15.4366 C   0  0  0  0  0  0  0  0  0  0  0  0
   26.9785  -19.7516  -14.0686 C   0  0  0  0  0  0  0  0  0  0  0  0
   26.9874  -20.7455  -12.9927 C   0  0  2  0  0  0  0  0  0  0  0  0
   26.1697  -21.8649  -13.2372 N   0  0  0  0  0  0  0  0  0  0  0  0
   26.6282  -20.1579  -11.6525 C   0  0  0  0  0  0  0  0  0  0  0  0
   27.0611  -19.0102  -11.3710 O   0  0  0  0  0  0  0  0  0  0  0  0
   30.5555  -20.7909  -18.6433 N   0  0  0  0  0  0  0  0  0  0  0  0
   21.3456  -20.6823   -8.9122 C   0  0  0  0  0  0  0  0  0  0  0  0
   21.8380  -20.0852  -10.0871 O   0  0  0  0  0  0  0  0  0  0  0  0
   21.0310  -19.6855  -10.9549 C   0  0  0  0  0  0  0  0  0  0  0  0
   23.2743  -19.9308  -10.2971 C   0  0  0  0  0  0  0  0  0  0  0  0
   24.0399  -20.4464   -9.0919 C   0  0  2  0  0  0  0  0  0  0  0  0
   25.5096  -20.2837   -9.4031 N   0  0  0  0  0  0  0  0  0  0  0  0
   25.8386  -20.8129  -10.6957 C   0  0  0  0  0  0  0  0  0  0  0  0
   26.2782  -20.8823   -8.3024 O   0  0  0  0  0  0  0  0  0  0  0  0
   26.3986  -22.1169   -8.0943 C   0  0  0  0  0  0  0  0  0  0  0  0
   29.8123  -19.7294   -7.1312 C   0  0  2  0  0  0  0  0  0  0  0  0
   28.8660  -19.6860   -5.9705 C   0  0  0  0  0  0  0  0  0  0  0  0
   28.4473  -18.2454   -5.7684 C   0  0  2  0  0  0  0  0  0  0  0  0
   27.6462  -20.5714   -6.2377 N   0  0  0  0  0  0  0  0  0  0  0  0
   26.9410  -20.0070   -7.3969 C   0  0  0  0  0  0  0  0  0  0  0  0
   26.7987  -20.5563   -5.0372 O   0  0  0  0  0  0  0  0  0  0  0  0
   25.7028  -19.9647   -5.0639 O   0  0  0  0  0  0  0  0  0  0  0  0
  2  1  1  0
  3  2  2  0
  4  2  1  0
  5  4  1  0
  6  5  1  0
  7  6  1  0
  8  7  1  0
  8  9  1  6
 10  8  1  0
 10 18  1  0
 11 10  2  0
 13 12  1  0
 14 13  2  0
 15 13  1  0
 16 15  1  0
 17 16  1  6
 17 18  1  0
 19 17  1  0
 20 19  2  0
 22 21  1  1
 22 23  1  0
 22 24  1  0
 24 26  1  0
 24 25  1  1
 25 19  1  0
 26 28  1  0
 27 26  2  0
M  END
$$$$
