RQV.pdb
     RDKit          3D

 28 27  0  0  1  0  0  0  0  0999 V2000
   18.4434  -18.1027  -16.7462 N   0  0  0  0  0  0  0  0  0  0  0  0
   18.1602  -19.2908  -16.0239 C   0  0  0  0  0  0  0  0  0  0  0  0
   17.0270  -19.4562  -15.4625 N   0  0  0  0  0  0  0  0  0  0  0  0
   19.1610  -20.3122  -15.9273 N   0  0  0  0  0  0  0  0  0  0  0  0
   20.5382  -20.0025  -15.7299 C   0  0  0  0  0  0  0  0  0  0  0  0
   21.0982  -18.7316  -16.1719 C   0  0  0  0  0  0  0  0  0  0  0  0
   22.5081  -18.3525  -16.0425 C   0  0  0  0  0  0  0  0  0  0  0  0
   23.4811  -19.1685  -16.7726 C   0  0  2  0  0  0  0  0  0  0  0  0
   22.9037  -20.1629  -17.5845 N   0  0  0  0  0  0  0  0  0  0  0  0
   24.5041  -19.8055  -15.8681 C   0  0  0  0  0  0  0  0  0  0  0  0
   24.2685  -20.9589  -15.4231 O   0  0  0  0  0  0  0  0  0  0  0  0
   16.8430  -20.3271  -14.9243 N   0  0  0  0  0  0  0  0  0  0  0  0
   28.9259  -21.8209  -14.9033 C   0  0  0  0  0  0  0  0  0  0  0  0
   28.8378  -21.1442  -16.1336 O   0  0  0  0  0  0  0  0  0  0  0  0
   29.1349  -21.7490  -17.1873 C   0  0  0  0  0  0  0  0  0  0  0  0
   28.4050  -19.7511  -16.1867 C   0  0  0  0  0  0  0  0  0  0  0  0
   28.0428  -19.2601  -14.7966 C   0  0  2  0  0  0  0  0  0  0  0  0
   26.6286  -19.7175  -14.5243 N   0  0  0  0  0  0  0  0  0  0  0  0
   25.7069  -19.1906  -15.4898 C   0  0  0  0  0  0  0  0  0  0  0  0
   26.2966  -19.3714  -13.1349 O   0  0  0  0  0  0  0  0  0  0  0  0
   26.2131  -18.2005  -12.6831 C   0  0  0  0  0  0  0  0  0  0  0  0
   23.3887  -20.6941  -11.1973 C   0  0  2  0  0  0  0  0  0  0  0  0
   24.6007  -20.9916  -10.3684 C   0  0  0  0  0  0  0  0  0  0  0  0
   24.9251  -22.4610  -10.5338 C   0  0  2  0  0  0  0  0  0  0  0  0
   25.7814  -20.1239  -10.8112 N   0  0  0  0  0  0  0  0  0  0  0  0
   26.0485  -20.4349  -12.2224 C   0  0  0  0  0  0  0  0  0  0  0  0
   26.9352  -20.4548   -9.9633 O   0  0  0  0  0  0  0  0  0  0  0  0
   27.8587  -21.1523  -10.4241 O   0  0  0  0  0  0  0  0  0  0  0  0
  2  1  1  0
  3  2  2  0
  4  2  1  0
  5  4  1  0
  6  5  1  0
  7  6  1  0
  8  7  1  0
  8  9  1  1
 10  8  1  0
 10 18  1  0
 11 10  2  0
 13 12  1  0
 14 13  2  0
 15 13  1  0
 16 15  1  0
 17 16  1  6
 17 18  1  0
 19 17  1  0
 20 19  2  0
 22 21  1  1
 22 23  1  0
 22 24  1  0
 24 26  1  0
 24 25  1  1
 25 19  1  0
 26 28  1  0
 27 26  2  0
M  END
$$$$
