RQV.pdb
     RDKit          3D

 28 27  0  0  1  0  0  0  0  0999 V2000
   19.1131  -29.6029   -9.6094 N   0  0  0  0  0  0  0  0  0  0  0  0
   17.9643  -29.0100   -9.0244 C   0  0  0  0  0  0  0  0  0  0  0  0
   17.1522  -29.7092   -8.3327 N   0  0  0  0  0  0  0  0  0  0  0  0
   17.7186  -27.6110   -9.2158 N   0  0  0  0  0  0  0  0  0  0  0  0
   18.3586  -26.8672  -10.2495 C   0  0  0  0  0  0  0  0  0  0  0  0
   19.8108  -26.8344  -10.3692 C   0  0  0  0  0  0  0  0  0  0  0  0
   20.5474  -26.0428  -11.3586 C   0  0  0  0  0  0  0  0  0  0  0  0
   20.2910  -26.3441  -12.7690 C   0  0  2  0  0  0  0  0  0  0  0  0
   21.2495  -27.1887  -13.3601 N   0  0  0  0  0  0  0  0  0  0  0  0
   20.1413  -25.1045  -13.6126 C   0  0  0  0  0  0  0  0  0  0  0  0
   21.1796  -24.4580  -13.9092 O   0  0  0  0  0  0  0  0  0  0  0  0
   16.3432  -29.2477   -7.8696 N   0  0  0  0  0  0  0  0  0  0  0  0
   15.3074  -23.5977  -17.4268 C   0  0  0  0  0  0  0  0  0  0  0  0
   16.3751  -22.7542  -17.7845 O   0  0  0  0  0  0  0  0  0  0  0  0
   16.2969  -22.0802  -18.8351 C   0  0  0  0  0  0  0  0  0  0  0  0
   17.5642  -22.6621  -16.9428 C   0  0  0  0  0  0  0  0  0  0  0  0
   17.4647  -23.6381  -15.7843 C   0  0  2  0  0  0  0  0  0  0  0  0
   18.7598  -23.5365  -15.0124 N   0  0  0  0  0  0  0  0  0  0  0  0
   18.9124  -24.6247  -14.0894 C   0  0  0  0  0  0  0  0  0  0  0  0
   18.8122  -22.2100  -14.3815 O   0  0  0  0  0  0  0  0  0  0  0  0
   18.1987  -21.8851  -13.3326 C   0  0  0  0  0  0  0  0  0  0  0  0
   22.1899  -20.3845  -13.8900 C   0  0  2  0  0  0  0  0  0  0  0  0
   21.2269  -19.4586  -14.5681 C   0  0  0  0  0  0  0  0  0  0  0  0
   21.5476  -19.4598  -16.0475 C   0  0  2  0  0  0  0  0  0  0  0  0
   19.7847  -19.9117  -14.3270 N   0  0  0  0  0  0  0  0  0  0  0  0
   19.6156  -21.2090  -14.9962 C   0  0  0  0  0  0  0  0  0  0  0  0
   18.8859  -18.8966  -14.8939 O   0  0  0  0  0  0  0  0  0  0  0  0
   18.7229  -17.8154  -14.2971 O   0  0  0  0  0  0  0  0  0  0  0  0
  2  1  1  0
  3  2  2  0
  4  2  1  0
  5  4  1  0
  6  5  1  0
  7  6  1  0
  8  7  1  0
  8  9  1  6
 10  8  1  0
 10 18  1  0
 11 10  2  0
 13 12  1  0
 14 13  2  0
 15 13  1  0
 16 15  1  0
 17 16  1  6
 17 18  1  0
 19 17  1  0
 20 19  2  0
 22 21  1  1
 22 23  1  0
 22 24  1  0
 24 26  1  0
 24 25  1  1
 25 19  1  0
 26 28  1  0
 27 26  2  0
M  END
$$$$
