RQV.pdb
     RDKit          3D

 28 27  0  0  1  0  0  0  0  0999 V2000
   25.9930  -18.8424  -21.5808 N   0  0  0  0  0  0  0  0  0  0  0  0
   24.6883  -19.0756  -21.0742 C   0  0  0  0  0  0  0  0  0  0  0  0
   23.6840  -19.1196  -21.8592 N   0  0  0  0  0  0  0  0  0  0  0  0
   24.5024  -19.2629  -19.6655 N   0  0  0  0  0  0  0  0  0  0  0  0
   25.5068  -18.9084  -18.7184 C   0  0  0  0  0  0  0  0  0  0  0  0
   26.6607  -19.7672  -18.4830 C   0  0  0  0  0  0  0  0  0  0  0  0
   26.9106  -20.5049  -17.2414 C   0  0  0  0  0  0  0  0  0  0  0  0
   27.4448  -19.7380  -16.1135 C   0  0  2  0  0  0  0  0  0  0  0  0
   28.7802  -19.3251  -16.2799 N   0  0  0  0  0  0  0  0  0  0  0  0
   27.3152  -20.4650  -14.8000 C   0  0  0  0  0  0  0  0  0  0  0  0
   26.2563  -21.1079  -14.5780 O   0  0  0  0  0  0  0  0  0  0  0  0
   22.7363  -19.3006  -21.4706 N   0  0  0  0  0  0  0  0  0  0  0  0
   31.8914  -21.3573  -10.5868 C   0  0  0  0  0  0  0  0  0  0  0  0
   31.6082  -22.2074  -11.6715 O   0  0  0  0  0  0  0  0  0  0  0  0
   32.4665  -23.0408  -12.0359 C   0  0  0  0  0  0  0  0  0  0  0  0
   30.3283  -22.1227  -12.3683 C   0  0  0  0  0  0  0  0  0  0  0  0
   29.4568  -21.0514  -11.7379 C   0  0  2  0  0  0  0  0  0  0  0  0
   28.1516  -21.0431  -12.4994 N   0  0  0  0  0  0  0  0  0  0  0  0
   28.3049  -20.4697  -13.8059 C   0  0  0  0  0  0  0  0  0  0  0  0
   27.1431  -20.3695  -11.6691 O   0  0  0  0  0  0  0  0  0  0  0  0
   27.0486  -19.1245  -11.5165 C   0  0  0  0  0  0  0  0  0  0  0  0
   22.7710  -20.4843   -9.6095 C   0  0  2  0  0  0  0  0  0  0  0  0
   23.8281  -21.0417  -10.5131 C   0  0  0  0  0  0  0  0  0  0  0  0
   23.5046  -20.6072  -11.9267 C   0  0  1  0  0  0  0  0  0  0  0  0
   25.2123  -20.5384  -10.0960 N   0  0  0  0  0  0  0  0  0  0  0  0
   26.1958  -21.1783  -10.9806 C   0  0  0  0  0  0  0  0  0  0  0  0
   25.4315  -20.9144   -8.6923 O   0  0  0  0  0  0  0  0  0  0  0  0
   25.9950  -21.9925   -8.4240 O   0  0  0  0  0  0  0  0  0  0  0  0
  2  1  1  0
  3  2  2  0
  4  2  1  0
  5  4  1  0
  6  5  1  0
  7  6  1  0
  8  7  1  0
  8  9  1  6
 10  8  1  0
 10 18  1  0
 11 10  2  0
 13 12  1  0
 14 13  2  0
 15 13  1  0
 16 15  1  0
 17 16  1  6
 17 18  1  0
 19 17  1  0
 20 19  2  0
 22 21  1  6
 22 23  1  0
 22 24  1  0
 24 26  1  0
 24 25  1  6
 25 19  1  0
 26 28  1  0
 27 26  2  0
M  END
$$$$
