RQV.pdb
     RDKit          3D

 28 27  0  0  1  0  0  0  0  0999 V2000
   15.0476  -24.6921   -9.2136 N   0  0  0  0  0  0  0  0  0  0  0  0
   15.9420  -25.7529   -9.5106 C   0  0  0  0  0  0  0  0  0  0  0  0
   15.5591  -26.7510  -10.2062 N   0  0  0  0  0  0  0  0  0  0  0  0
   17.2882  -25.6973   -9.0217 N   0  0  0  0  0  0  0  0  0  0  0  0
   18.3004  -24.9430   -9.6832 C   0  0  0  0  0  0  0  0  0  0  0  0
   18.0344  -23.6029  -10.1911 C   0  0  0  0  0  0  0  0  0  0  0  0
   19.0143  -22.7678  -10.8914 C   0  0  0  0  0  0  0  0  0  0  0  0
   19.1192  -22.9475  -12.3414 C   0  0  2  0  0  0  0  0  0  0  0  0
   19.2969  -24.2847  -12.7437 N   0  0  0  0  0  0  0  0  0  0  0  0
   20.2028  -22.1009  -12.9575 C   0  0  0  0  0  0  0  0  0  0  0  0
   20.1887  -20.8623  -12.7346 O   0  0  0  0  0  0  0  0  0  0  0  0
   16.2488  -27.4792  -10.4820 N   0  0  0  0  0  0  0  0  0  0  0  0
   25.8382  -23.8487  -15.3462 C   0  0  0  0  0  0  0  0  0  0  0  0
   25.8268  -22.4420  -15.3708 O   0  0  0  0  0  0  0  0  0  0  0  0
   26.8630  -21.8275  -15.7064 C   0  0  0  0  0  0  0  0  0  0  0  0
   24.6216  -21.7017  -15.0095 C   0  0  0  0  0  0  0  0  0  0  0  0
   23.5110  -22.6621  -14.6238 C   0  0  2  0  0  0  0  0  0  0  0  0
   22.2854  -21.8247  -14.3406 N   0  0  0  0  0  0  0  0  0  0  0  0
   21.2296  -22.6091  -13.7668 C   0  0  0  0  0  0  0  0  0  0  0  0
   21.9066  -21.1356  -15.5824 O   0  0  0  0  0  0  0  0  0  0  0  0
   21.4321  -21.6967  -16.6032 C   0  0  0  0  0  0  0  0  0  0  0  0
   19.5935  -18.1997  -15.8933 C   0  0  2  0  0  0  0  0  0  0  0  0
   20.9099  -17.7831  -16.4749 C   0  0  0  0  0  0  0  0  0  0  0  0
   21.6416  -16.9703  -15.4282 C   0  0  2  0  0  0  0  0  0  0  0  0
   21.7316  -19.0097  -16.8790 N   0  0  0  0  0  0  0  0  0  0  0  0
   22.0862  -19.7252  -15.6454 C   0  0  0  0  0  0  0  0  0  0  0  0
   22.9303  -18.5429  -17.5896 O   0  0  0  0  0  0  0  0  0  0  0  0
   22.8285  -18.1158  -18.7553 O   0  0  0  0  0  0  0  0  0  0  0  0
  2  1  1  0
  3  2  2  0
  4  2  1  0
  5  4  1  0
  6  5  1  0
  7  6  1  0
  8  7  1  0
  8  9  1  1
 10  8  1  0
 10 18  1  0
 11 10  2  0
 13 12  1  0
 14 13  2  0
 15 13  1  0
 16 15  1  0
 17 16  1  1
 17 18  1  0
 19 17  1  0
 20 19  2  0
 22 21  1  6
 22 23  1  0
 22 24  1  0
 24 26  1  0
 24 25  1  6
 25 19  1  0
 26 28  1  0
 27 26  2  0
M  END
$$$$
