RQV.pdb
     RDKit          3D

 28 27  0  0  1  0  0  0  0  0999 V2000
   29.3291  -26.4549  -15.9661 N   0  0  0  0  0  0  0  0  0  0  0  0
   29.7565  -26.3865  -17.3174 C   0  0  0  0  0  0  0  0  0  0  0  0
   29.6886  -27.4113  -18.0737 N   0  0  0  0  0  0  0  0  0  0  0  0
   30.2689  -25.1511  -17.8327 N   0  0  0  0  0  0  0  0  0  0  0  0
   30.2888  -23.9588  -17.0522 C   0  0  0  0  0  0  0  0  0  0  0  0
   29.7812  -22.6995  -17.5824 C   0  0  0  0  0  0  0  0  0  0  0  0
   28.7520  -21.8788  -16.9379 C   0  0  0  0  0  0  0  0  0  0  0  0
   27.5104  -22.5559  -16.5562 C   0  0  2  0  0  0  0  0  0  0  0  0
   26.7520  -23.0234  -17.6460 N   0  0  0  0  0  0  0  0  0  0  0  0
   26.6314  -21.7086  -15.6732 C   0  0  0  0  0  0  0  0  0  0  0  0
   27.1362  -21.2111  -14.6332 O   0  0  0  0  0  0  0  0  0  0  0  0
   29.9595  -27.3293  -19.0746 N   0  0  0  0  0  0  0  0  0  0  0  0
   20.7927  -19.3325  -16.7755 C   0  0  0  0  0  0  0  0  0  0  0  0
   21.2001  -18.8092  -15.5347 O   0  0  0  0  0  0  0  0  0  0  0  0
   20.4861  -17.9532  -14.9675 C   0  0  0  0  0  0  0  0  0  0  0  0
   22.4418  -19.2561  -14.9107 C   0  0  0  0  0  0  0  0  0  0  0  0
   23.1698  -20.2253  -15.8246 C   0  0  2  0  0  0  0  0  0  0  0  0
   24.4177  -20.6642  -15.0940 N   0  0  0  0  0  0  0  0  0  0  0  0
   25.2807  -21.4389  -15.9391 C   0  0  0  0  0  0  0  0  0  0  0  0
   24.0068  -21.3599  -13.8662 O   0  0  0  0  0  0  0  0  0  0  0  0
   23.3655  -22.4414  -13.8298 C   0  0  0  0  0  0  0  0  0  0  0  0
   26.3078  -21.4450  -10.6752 C   0  0  2  0  0  0  0  0  0  0  0  0
   24.9211  -21.0365  -10.2817 C   0  0  0  0  0  0  0  0  0  0  0  0
   24.9250  -19.5389  -10.0608 C   0  0  2  0  0  0  0  0  0  0  0  0
   23.9177  -21.4197  -11.3723 N   0  0  0  0  0  0  0  0  0  0  0  0
   24.3561  -20.7738  -12.6173 C   0  0  0  0  0  0  0  0  0  0  0  0
   22.5904  -20.9415  -10.9607 O   0  0  0  0  0  0  0  0  0  0  0  0
   22.1349  -19.8906  -11.4504 O   0  0  0  0  0  0  0  0  0  0  0  0
  2  1  1  0
  3  2  2  0
  4  2  1  0
  5  4  1  0
  6  5  1  0
  7  6  1  0
  8  7  1  0
  8  9  1  6
 10  8  1  0
 10 18  1  0
 11 10  2  0
 13 12  1  0
 14 13  2  0
 15 13  1  0
 16 15  1  0
 17 16  1  6
 17 18  1  0
 19 17  1  0
 20 19  2  0
 22 21  1  1
 22 23  1  0
 22 24  1  0
 24 26  1  0
 24 25  1  1
 25 19  1  0
 26 28  1  0
 27 26  2  0
M  END
$$$$
