RQV.pdb
     RDKit          3D

 28 27  0  0  1  0  0  0  0  0999 V2000
   25.6606  -21.4088  -16.4594 N   0  0  0  0  0  0  0  0  0  0  0  0
   26.1316  -22.6940  -16.0855 C   0  0  0  0  0  0  0  0  0  0  0  0
   27.2446  -23.1327  -16.5275 N   0  0  0  0  0  0  0  0  0  0  0  0
   25.3448  -23.5033  -15.2022 N   0  0  0  0  0  0  0  0  0  0  0  0
   24.1085  -23.0459  -14.6604 C   0  0  0  0  0  0  0  0  0  0  0  0
   24.0717  -22.0572  -13.5901 C   0  0  0  0  0  0  0  0  0  0  0  0
   22.8481  -21.5754  -12.9429 C   0  0  0  0  0  0  0  0  0  0  0  0
   21.6259  -21.5855  -13.7502 C   0  0  2  0  0  0  0  0  0  0  0  0
   21.4288  -20.4168  -14.5097 N   0  0  0  0  0  0  0  0  0  0  0  0
   20.3889  -21.8549  -12.9329 C   0  0  0  0  0  0  0  0  0  0  0  0
   20.1803  -21.1417  -11.9171 O   0  0  0  0  0  0  0  0  0  0  0  0
   27.5866  -24.0660  -16.2208 N   0  0  0  0  0  0  0  0  0  0  0  0
   17.9370  -22.3484  -15.5498 C   0  0  0  0  0  0  0  0  0  0  0  0
   16.8577  -21.7483  -14.8757 O   0  0  0  0  0  0  0  0  0  0  0  0
   16.3023  -20.7472  -15.3791 C   0  0  0  0  0  0  0  0  0  0  0  0
   16.3863  -22.2836  -13.6020 C   0  0  0  0  0  0  0  0  0  0  0  0
   17.1219  -23.5687  -13.2677 C   0  0  2  0  0  0  0  0  0  0  0  0
   18.3153  -23.1844  -12.4240 N   0  0  0  0  0  0  0  0  0  0  0  0
   19.4523  -22.8546  -13.2349 C   0  0  0  0  0  0  0  0  0  0  0  0
   18.5641  -24.2696  -11.4643 O   0  0  0  0  0  0  0  0  0  0  0  0
   19.3239  -25.2514  -11.6663 C   0  0  0  0  0  0  0  0  0  0  0  0
   17.7830  -25.8329   -6.8230 C   0  0  2  0  0  0  0  0  0  0  0  0
   17.6926  -24.7553   -7.8600 C   0  0  0  0  0  0  0  0  0  0  0  0
   18.5896  -23.6167   -7.4235 C   0  0  1  0  0  0  0  0  0  0  0  0
   18.1228  -25.2887   -9.2288 N   0  0  0  0  0  0  0  0  0  0  0  0
   17.8997  -24.2150  -10.2070 C   0  0  0  0  0  0  0  0  0  0  0  0
   17.3053  -26.4705   -9.5364 O   0  0  0  0  0  0  0  0  0  0  0  0
   16.1627  -26.3230  -10.0105 O   0  0  0  0  0  0  0  0  0  0  0  0
  2  1  1  0
  3  2  2  0
  4  2  1  0
  5  4  1  0
  6  5  1  0
  7  6  1  0
  8  7  1  0
  8  9  1  1
 10  8  1  0
 10 18  1  0
 11 10  2  0
 13 12  1  0
 14 13  2  0
 15 13  1  0
 16 15  1  0
 17 16  1  6
 17 18  1  0
 19 17  1  0
 20 19  2  0
 22 21  1  1
 22 23  1  0
 22 24  1  0
 24 26  1  0
 24 25  1  1
 25 19  1  0
 26 28  1  0
 27 26  2  0
M  END
$$$$
