INR.pdb
     RDKit          3D

 28 27  0  0  1  0  0  0  0  0999 V2000
    7.4058  -12.2008   18.4635 C   0  0  0  0  0  0  0  0  0  0  0  0
    8.2470  -13.3482   18.9425 C   0  0  0  0  0  0  0  0  0  0  0  0
    7.7317  -13.8336   20.2793 C   0  0  2  0  0  0  0  0  0  0  0  0
    7.7650  -12.6993   21.2535 C   0  0  0  0  0  0  0  0  0  0  0  0
    8.4938  -15.0525   20.7536 C   0  0  2  0  0  0  0  0  0  0  0  0
    8.3648  -16.1010   19.7783 N   0  0  0  0  0  0  0  0  0  0  0  0
    8.0477  -15.4811   22.1041 C   0  0  0  0  0  0  0  0  0  0  0  0
    8.2821  -14.7538   23.1022 O   0  0  0  0  0  0  0  0  0  0  0  0
    5.5939  -17.7695   21.1874 N   0  0  0  0  0  0  0  0  0  0  0  0
    5.1047  -18.1521   22.4513 C   0  0  0  0  0  0  0  0  0  0  0  0
    3.9843  -18.7722   22.4362 O   0  0  0  0  0  0  0  0  0  0  0  0
    5.7523  -17.9064   23.7403 C   0  0  0  0  0  0  0  0  0  0  0  0
    6.9982  -17.1006   23.6339 C   0  0  2  0  0  0  0  0  0  0  0  0
    7.3529  -16.7050   22.3147 N   0  0  0  0  0  0  0  0  0  0  0  0
    8.1090  -17.8144   24.3406 C   0  0  0  0  0  0  0  0  0  0  0  0
    7.9735  -18.2702   25.5216 O   0  0  0  0  0  0  0  0  0  0  0  0
   12.2023  -16.4332   18.9335 N   0  0  0  0  0  0  0  0  0  0  0  0
   12.9157  -15.7226   19.9340 C   0  0  0  0  0  0  0  0  0  0  0  0
   13.4391  -14.5835   19.6319 N   0  0  0  0  0  0  0  0  0  0  0  0
   13.0534  -16.2524   21.2454 N   0  0  0  0  0  0  0  0  0  0  0  0
   12.4676  -17.5561   21.5719 C   0  0  0  0  0  0  0  0  0  0  0  0
   12.2821  -17.6629   23.0642 C   0  0  0  0  0  0  0  0  0  0  0  0
   11.5716  -18.9640   23.3988 C   0  0  0  0  0  0  0  0  0  0  0  0
   10.4558  -18.7363   24.3959 C   0  0  2  0  0  0  0  0  0  0  0  0
    9.3766  -18.0264   23.7398 N   0  0  0  0  0  0  0  0  0  0  0  0
   11.0166  -17.9539   25.5270 C   0  0  0  0  0  0  0  0  0  0  0  0
   10.7299  -16.7396   25.6742 O   0  0  0  0  0  0  0  0  0  0  0  0
   11.8649  -18.5850   26.4223 O   0  0  0  0  0  0  0  0  0  0  0  0
  2  1  1  0
  3  2  1  0
  3  4  1  1
  5  3  1  0
  5  6  1  6
  7  8  2  0
  7  5  1  0
  9 10  1  0
 10 11  2  0
 10 12  1  0
 13 12  1  6
 13 14  1  0
 14  7  1  0
 15 16  2  0
 15 13  1  0
 17 18  1  0
 18 19  2  0
 20 18  1  0
 20 21  1  0
 22 21  1  0
 23 22  1  0
 24 23  1  6
 24 25  1  0
 25 15  1  0
 26 24  1  0
 27 26  2  0
 28 26  1  0
M  END
$$$$
