INR.pdb
     RDKit          3D

 28 27  0  0  1  0  0  0  0  0999 V2000
    7.4942  -11.8901   20.2983 C   0  0  0  0  0  0  0  0  0  0  0  0
    7.1745  -12.9921   19.3302 C   0  0  0  0  0  0  0  0  0  0  0  0
    8.1764  -14.1143   19.4879 C   0  0  2  0  0  0  0  0  0  0  0  0
    7.7322  -15.0092   20.6009 C   0  0  0  0  0  0  0  0  0  0  0  0
    9.5794  -13.5777   19.6751 C   0  0  2  0  0  0  0  0  0  0  0  0
    9.9667  -12.8442   18.5007 N   0  0  0  0  0  0  0  0  0  0  0  0
   10.5379  -14.6643   20.0025 C   0  0  0  0  0  0  0  0  0  0  0  0
   10.2606  -15.4945   20.9046 O   0  0  0  0  0  0  0  0  0  0  0  0
   12.9389  -16.5096   16.8668 N   0  0  0  0  0  0  0  0  0  0  0  0
   13.9465  -15.8541   17.6005 C   0  0  0  0  0  0  0  0  0  0  0  0
   14.8618  -15.3024   16.8949 O   0  0  0  0  0  0  0  0  0  0  0  0
   14.0299  -15.7550   19.0580 C   0  0  0  0  0  0  0  0  0  0  0  0
   12.7048  -15.8028   19.7324 C   0  0  2  0  0  0  0  0  0  0  0  0
   11.7798  -14.8036   19.3218 N   0  0  0  0  0  0  0  0  0  0  0  0
   12.9072  -15.8269   21.2161 C   0  0  0  0  0  0  0  0  0  0  0  0
   13.5639  -14.9197   21.8216 O   0  0  0  0  0  0  0  0  0  0  0  0
    8.3013  -16.8345   26.2801 N   0  0  0  0  0  0  0  0  0  0  0  0
    7.6055  -17.3749   25.1671 C   0  0  0  0  0  0  0  0  0  0  0  0
    6.5194  -16.8004   24.7758 N   0  0  0  0  0  0  0  0  0  0  0  0
    8.0928  -18.5273   24.4932 N   0  0  0  0  0  0  0  0  0  0  0  0
    9.5187  -18.8619   24.5560 C   0  0  0  0  0  0  0  0  0  0  0  0
   10.3279  -17.7132   24.0097 C   0  0  0  0  0  0  0  0  0  0  0  0
   11.8051  -18.0690   24.0399 C   0  0  0  0  0  0  0  0  0  0  0  0
   12.6474  -16.9547   23.4569 C   0  0  2  0  0  0  0  0  0  0  0  0
   12.3813  -16.8584   22.0359 N   0  0  0  0  0  0  0  0  0  0  0  0
   14.0714  -17.2800   23.7256 C   0  0  0  0  0  0  0  0  0  0  0  0
   14.5239  -17.2694   24.8975 O   0  0  0  0  0  0  0  0  0  0  0  0
   14.8984  -17.5970   22.6602 O   0  0  0  0  0  0  0  0  0  0  0  0
  2  1  1  0
  3  2  1  0
  3  4  1  1
  5  3  1  0
  5  6  1  6
  7  8  2  0
  7  5  1  0
  9 10  1  0
 10 11  2  0
 10 12  1  0
 13 12  1  6
 13 14  1  0
 14  7  1  0
 15 16  2  0
 15 13  1  0
 17 18  1  0
 18 19  2  0
 20 18  1  0
 20 21  1  0
 22 21  1  0
 23 22  1  0
 24 23  1  6
 24 25  1  0
 25 15  1  0
 26 24  1  0
 27 26  2  0
 28 26  1  0
M  END
$$$$
