INR.pdb
     RDKit          3D

 28 27  0  0  1  0  0  0  0  0999 V2000
    8.2277  -12.1443   20.0035 C   0  0  0  0  0  0  0  0  0  0  0  0
    7.1484  -12.9506   20.6660 C   0  0  0  0  0  0  0  0  0  0  0  0
    7.7596  -14.1521   21.3522 C   0  0  2  0  0  0  0  0  0  0  0  0
    8.5501  -13.6868   22.5335 C   0  0  0  0  0  0  0  0  0  0  0  0
    8.5677  -14.9879   20.3828 C   0  0  2  0  0  0  0  0  0  0  0  0
    7.7278  -15.3855   19.2857 N   0  0  0  0  0  0  0  0  0  0  0  0
    9.1971  -16.1502   21.0607 C   0  0  0  0  0  0  0  0  0  0  0  0
    8.5647  -16.7765   21.9482 O   0  0  0  0  0  0  0  0  0  0  0  0
   12.1919  -20.9565   21.3509 N   0  0  0  0  0  0  0  0  0  0  0  0
   12.6319  -19.6188   21.3692 C   0  0  0  0  0  0  0  0  0  0  0  0
   13.6432  -19.3890   22.1207 O   0  0  0  0  0  0  0  0  0  0  0  0
   12.0462  -18.5050   20.6228 C   0  0  0  0  0  0  0  0  0  0  0  0
   11.0712  -17.7080   21.4148 C   0  0  2  0  0  0  0  0  0  0  0  0
   10.5116  -16.5894   20.7379 N   0  0  0  0  0  0  0  0  0  0  0  0
   11.6883  -17.3381   22.7283 C   0  0  0  0  0  0  0  0  0  0  0  0
   12.3613  -16.2681   22.8793 O   0  0  0  0  0  0  0  0  0  0  0  0
   11.8878  -21.2719   29.8085 N   0  0  0  0  0  0  0  0  0  0  0  0
   12.4450  -20.1346   30.4497 C   0  0  0  0  0  0  0  0  0  0  0  0
   13.1427  -20.3058   31.5205 N   0  0  0  0  0  0  0  0  0  0  0  0
   12.2406  -18.8298   29.9251 N   0  0  0  0  0  0  0  0  0  0  0  0
   11.4103  -18.6442   28.7313 C   0  0  0  0  0  0  0  0  0  0  0  0
   12.2828  -18.6838   27.5025 C   0  0  0  0  0  0  0  0  0  0  0  0
   11.4222  -18.5286   26.2595 C   0  0  0  0  0  0  0  0  0  0  0  0
   12.1844  -17.8359   25.1504 C   0  0  2  0  0  0  0  0  0  0  0  0
   11.5612  -18.1543   23.8818 N   0  0  0  0  0  0  0  0  0  0  0  0
   13.5896  -18.3138   25.2043 C   0  0  0  0  0  0  0  0  0  0  0  0
   13.9290  -19.3803   24.6337 O   0  0  0  0  0  0  0  0  0  0  0  0
   14.5261  -17.5631   25.8964 O   0  0  0  0  0  0  0  0  0  0  0  0
  2  1  1  0
  3  2  1  0
  3  4  1  1
  5  3  1  0
  5  6  1  6
  7  8  2  0
  7  5  1  0
  9 10  1  0
 10 11  2  0
 10 12  1  0
 13 12  1  6
 13 14  1  0
 14  7  1  0
 15 16  2  0
 15 13  1  0
 17 18  1  0
 18 19  2  0
 20 18  1  0
 20 21  1  0
 22 21  1  0
 23 22  1  0
 24 23  1  1
 24 25  1  0
 25 15  1  0
 26 24  1  0
 27 26  2  0
 28 26  1  0
M  END
$$$$
