INR.pdb
     RDKit          3D

 28 27  0  0  1  0  0  0  0  0999 V2000
    7.8486  -12.3307   18.9325 C   0  0  0  0  0  0  0  0  0  0  0  0
    7.3184  -13.2383   20.0043 C   0  0  0  0  0  0  0  0  0  0  0  0
    8.4709  -13.8430   20.7750 C   0  0  2  0  0  0  0  0  0  0  0  0
    9.3848  -14.5377   19.8164 C   0  0  0  0  0  0  0  0  0  0  0  0
    7.9774  -14.7411   21.8891 C   0  0  2  0  0  0  0  0  0  0  0  0
    6.9963  -14.0349   22.6675 N   0  0  0  0  0  0  0  0  0  0  0  0
    9.1011  -15.2436   22.7206 C   0  0  0  0  0  0  0  0  0  0  0  0
    9.6299  -14.4936   23.5795 O   0  0  0  0  0  0  0  0  0  0  0  0
   10.4705  -20.4876   24.1432 N   0  0  0  0  0  0  0  0  0  0  0  0
   10.0822  -19.1703   23.8317 C   0  0  0  0  0  0  0  0  0  0  0  0
    9.0310  -19.0699   23.1072 O   0  0  0  0  0  0  0  0  0  0  0  0
   10.7608  -17.9451   24.2554 C   0  0  0  0  0  0  0  0  0  0  0  0
   10.8485  -16.9154   23.1854 C   0  0  2  0  0  0  0  0  0  0  0  0
    9.6106  -16.5648   22.5794 N   0  0  0  0  0  0  0  0  0  0  0  0
   11.8834  -17.3302   22.1854 C   0  0  0  0  0  0  0  0  0  0  0  0
   11.7595  -18.3867   21.4859 O   0  0  0  0  0  0  0  0  0  0  0  0
   16.1063  -12.6298   17.5703 N   0  0  0  0  0  0  0  0  0  0  0  0
   17.1535  -13.5650   17.3609 C   0  0  0  0  0  0  0  0  0  0  0  0
   18.2679  -13.1476   16.8641 N   0  0  0  0  0  0  0  0  0  0  0  0
   16.9818  -14.9365   17.6908 N   0  0  0  0  0  0  0  0  0  0  0  0
   15.7018  -15.4030   18.2323 C   0  0  0  0  0  0  0  0  0  0  0  0
   15.9302  -16.0441   19.5775 C   0  0  0  0  0  0  0  0  0  0  0  0
   14.7806  -15.6989   20.5097 C   0  0  0  0  0  0  0  0  0  0  0  0
   14.0657  -16.9471   20.9807 C   0  0  2  0  0  0  0  0  0  0  0  0
   13.0617  -16.5740   21.9564 N   0  0  0  0  0  0  0  0  0  0  0  0
   15.0851  -17.8554   21.5653 C   0  0  0  0  0  0  0  0  0  0  0  0
   15.3543  -17.8162   22.7918 O   0  0  0  0  0  0  0  0  0  0  0  0
   15.7386  -18.7514   20.7348 O   0  0  0  0  0  0  0  0  0  0  0  0
  2  1  1  0
  3  2  1  0
  3  4  1  6
  5  3  1  0
  5  6  1  1
  7  8  2  0
  7  5  1  0
  9 10  1  0
 10 11  2  0
 10 12  1  0
 13 12  1  1
 13 14  1  0
 14  7  1  0
 15 16  2  0
 15 13  1  0
 17 18  1  0
 18 19  2  0
 20 18  1  0
 20 21  1  0
 22 21  1  0
 23 22  1  0
 24 23  1  1
 24 25  1  0
 25 15  1  0
 26 24  1  0
 27 26  2  0
 28 26  1  0
M  END
$$$$
