INR.pdb
     RDKit          3D

 28 27  0  0  1  0  0  0  0  0999 V2000
    8.0816  -12.1947   19.5057 C   0  0  0  0  0  0  0  0  0  0  0  0
    7.1311  -13.3492   19.3730 C   0  0  0  0  0  0  0  0  0  0  0  0
    7.6358  -14.5198   20.1872 C   0  0  2  0  0  0  0  0  0  0  0  0
    7.9318  -14.0532   21.5770 C   0  0  0  0  0  0  0  0  0  0  0  0
    8.8163  -15.1890   19.5163 C   0  0  2  0  0  0  0  0  0  0  0  0
    8.4604  -15.5360   18.1672 N   0  0  0  0  0  0  0  0  0  0  0  0
    9.2900  -16.3627   20.2938 C   0  0  0  0  0  0  0  0  0  0  0  0
    9.4606  -17.4678   19.7197 O   0  0  0  0  0  0  0  0  0  0  0  0
   13.8982  -18.6419   22.3226 N   0  0  0  0  0  0  0  0  0  0  0  0
   12.4940  -18.5345   22.3278 C   0  0  0  0  0  0  0  0  0  0  0  0
   11.8803  -19.4562   22.9711 O   0  0  0  0  0  0  0  0  0  0  0  0
   11.7039  -17.4881   21.6785 C   0  0  0  0  0  0  0  0  0  0  0  0
   10.3743  -17.2712   22.3095 C   0  0  2  0  0  0  0  0  0  0  0  0
    9.5629  -16.2824   21.6881 N   0  0  0  0  0  0  0  0  0  0  0  0
   10.5582  -17.0287   23.7760 C   0  0  0  0  0  0  0  0  0  0  0  0
   11.3785  -16.1612   24.2180 O   0  0  0  0  0  0  0  0  0  0  0  0
    6.6685  -19.7612   21.8647 N   0  0  0  0  0  0  0  0  0  0  0  0
    5.7210  -19.1405   22.7201 C   0  0  0  0  0  0  0  0  0  0  0  0
    4.5023  -19.5617   22.7055 N   0  0  0  0  0  0  0  0  0  0  0  0
    6.1033  -18.0744   23.5785 N   0  0  0  0  0  0  0  0  0  0  0  0
    6.9336  -18.3462   24.7558 C   0  0  0  0  0  0  0  0  0  0  0  0
    7.3763  -17.0421   25.3691 C   0  0  0  0  0  0  0  0  0  0  0  0
    8.2832  -17.3181   26.5570 C   0  0  0  0  0  0  0  0  0  0  0  0
    9.7389  -17.3255   26.1426 C   0  0  2  0  0  0  0  0  0  0  0  0
    9.8320  -17.7479   24.7599 N   0  0  0  0  0  0  0  0  0  0  0  0
   10.4593  -18.2566   27.0483 C   0  0  0  0  0  0  0  0  0  0  0  0
    9.8498  -19.1880   27.6308 O   0  0  0  0  0  0  0  0  0  0  0  0
   11.8200  -18.0829   27.2427 O   0  0  0  0  0  0  0  0  0  0  0  0
  2  1  1  0
  3  2  1  0
  3  4  1  1
  5  3  1  0
  5  6  1  6
  7  8  2  0
  7  5  1  0
  9 10  1  0
 10 11  2  0
 10 12  1  0
 13 12  1  6
 13 14  1  0
 14  7  1  0
 15 16  2  0
 15 13  1  0
 17 18  1  0
 18 19  2  0
 20 18  1  0
 20 21  1  0
 22 21  1  0
 23 22  1  0
 24 23  1  1
 24 25  1  0
 25 15  1  0
 26 24  1  0
 27 26  2  0
 28 26  1  0
M  END
$$$$
