INR.pdb
     RDKit          3D

 28 27  0  0  1  0  0  0  0  0999 V2000
    7.6308  -13.2230   20.7053 C   0  0  0  0  0  0  0  0  0  0  0  0
    7.5642  -13.9422   22.0214 C   0  0  0  0  0  0  0  0  0  0  0  0
    7.3898  -15.4256   21.7823 C   0  0  2  0  0  0  0  0  0  0  0  0
    6.1677  -15.6427   20.9478 C   0  0  0  0  0  0  0  0  0  0  0  0
    7.3687  -16.1948   23.0859 C   0  0  2  0  0  0  0  0  0  0  0  0
    6.2883  -15.7127   23.9029 N   0  0  0  0  0  0  0  0  0  0  0  0
    8.6786  -16.1202   23.7824 C   0  0  0  0  0  0  0  0  0  0  0  0
    8.8226  -15.3516   24.7665 O   0  0  0  0  0  0  0  0  0  0  0  0
   13.6700  -16.8524   25.2596 N   0  0  0  0  0  0  0  0  0  0  0  0
   12.5962  -17.6184   25.7529 C   0  0  0  0  0  0  0  0  0  0  0  0
   12.8718  -18.3534   26.7648 O   0  0  0  0  0  0  0  0  0  0  0  0
   11.2337  -17.6421   25.2201 C   0  0  0  0  0  0  0  0  0  0  0  0
   11.0433  -16.7576   24.0392 C   0  0  2  0  0  0  0  0  0  0  0  0
    9.7960  -16.8994   23.3710 N   0  0  0  0  0  0  0  0  0  0  0  0
   12.2129  -16.9090   23.1161 C   0  0  0  0  0  0  0  0  0  0  0  0
   12.5596  -18.0408   22.6474 O   0  0  0  0  0  0  0  0  0  0  0  0
    8.6103  -14.0668   17.0208 N   0  0  0  0  0  0  0  0  0  0  0  0
    9.6310  -13.5088   17.8343 C   0  0  0  0  0  0  0  0  0  0  0  0
    9.4881  -12.3033   18.2693 N   0  0  0  0  0  0  0  0  0  0  0  0
   10.7904  -14.2606   18.1660 N   0  0  0  0  0  0  0  0  0  0  0  0
   11.6683  -13.8094   19.2499 C   0  0  0  0  0  0  0  0  0  0  0  0
   12.0987  -14.9965   20.0736 C   0  0  0  0  0  0  0  0  0  0  0  0
   13.5122  -14.7766   20.5869 C   0  0  0  0  0  0  0  0  0  0  0  0
   13.9075  -15.8517   21.5762 C   0  0  2  0  0  0  0  0  0  0  0  0
   13.0041  -15.8044   22.7079 N   0  0  0  0  0  0  0  0  0  0  0  0
   15.3111  -15.5913   21.9860 C   0  0  0  0  0  0  0  0  0  0  0  0
   15.5885  -15.2816   23.1715 O   0  0  0  0  0  0  0  0  0  0  0  0
   16.3158  -15.6952   21.0376 O   0  0  0  0  0  0  0  0  0  0  0  0
  2  1  1  0
  3  2  1  0
  3  4  1  1
  5  3  1  0
  5  6  1  1
  7  8  2  0
  7  5  1  0
  9 10  1  0
 10 11  2  0
 10 12  1  0
 13 12  1  1
 13 14  1  0
 14  7  1  0
 15 16  2  0
 15 13  1  0
 17 18  1  0
 18 19  2  0
 20 18  1  0
 20 21  1  0
 22 21  1  0
 23 22  1  0
 24 23  1  6
 24 25  1  0
 25 15  1  0
 26 24  1  0
 27 26  2  0
 28 26  1  0
M  END
$$$$
