INR.pdb
     RDKit          3D

 28 27  0  0  1  0  0  0  0  0999 V2000
    7.0484  -11.9051   19.4904 C   0  0  0  0  0  0  0  0  0  0  0  0
    7.5807  -13.0907   18.7390 C   0  0  0  0  0  0  0  0  0  0  0  0
    8.1166  -14.1136   19.7160 C   0  0  2  0  0  0  0  0  0  0  0  0
    9.1842  -13.4776   20.5482 C   0  0  0  0  0  0  0  0  0  0  0  0
    8.5800  -15.3661   19.0033 C   0  0  2  0  0  0  0  0  0  0  0  0
    7.4994  -15.8875   18.2110 N   0  0  0  0  0  0  0  0  0  0  0  0
    9.1132  -16.3701   19.9594 C   0  0  0  0  0  0  0  0  0  0  0  0
    8.3412  -17.2186   20.4732 O   0  0  0  0  0  0  0  0  0  0  0  0
   13.3824  -20.2262   21.4853 N   0  0  0  0  0  0  0  0  0  0  0  0
   12.1420  -19.5597   21.5099 C   0  0  0  0  0  0  0  0  0  0  0  0
   11.3587  -19.9031   22.4631 O   0  0  0  0  0  0  0  0  0  0  0  0
   11.6897  -18.5385   20.5646 C   0  0  0  0  0  0  0  0  0  0  0  0
   10.9594  -17.4147   21.2102 C   0  0  2  0  0  0  0  0  0  0  0  0
   10.4887  -16.4087   20.3221 N   0  0  0  0  0  0  0  0  0  0  0  0
   11.7942  -16.8583   22.3222 C   0  0  0  0  0  0  0  0  0  0  0  0
   13.0170  -16.5455   22.1554 O   0  0  0  0  0  0  0  0  0  0  0  0
    9.9968  -13.7427   29.9546 N   0  0  0  0  0  0  0  0  0  0  0  0
   10.0172  -14.7910   28.9977 C   0  0  0  0  0  0  0  0  0  0  0  0
   10.5539  -15.9175   29.3227 N   0  0  0  0  0  0  0  0  0  0  0  0
    9.4577  -14.6073   27.7043 N   0  0  0  0  0  0  0  0  0  0  0  0
   10.2446  -14.9425   26.5137 C   0  0  0  0  0  0  0  0  0  0  0  0
   10.0005  -16.3826   26.1404 C   0  0  0  0  0  0  0  0  0  0  0  0
   11.3298  -17.1042   25.9920 C   0  0  0  0  0  0  0  0  0  0  0  0
   12.1098  -16.5741   24.8081 C   0  0  2  0  0  0  0  0  0  0  0  0
   11.2759  -16.6457   23.6255 N   0  0  0  0  0  0  0  0  0  0  0  0
   13.3320  -17.4060   24.6663 C   0  0  0  0  0  0  0  0  0  0  0  0
   13.2519  -18.6177   24.3444 O   0  0  0  0  0  0  0  0  0  0  0  0
   14.5684  -16.8241   24.8950 O   0  0  0  0  0  0  0  0  0  0  0  0
  2  1  1  0
  3  2  1  0
  3  4  1  6
  5  3  1  0
  5  6  1  1
  7  8  2  0
  7  5  1  0
  9 10  1  0
 10 11  2  0
 10 12  1  0
 13 12  1  6
 13 14  1  0
 14  7  1  0
 15 16  2  0
 15 13  1  0
 17 18  1  0
 18 19  2  0
 20 18  1  0
 20 21  1  0
 22 21  1  0
 23 22  1  0
 24 23  1  1
 24 25  1  0
 25 15  1  0
 26 24  1  0
 27 26  2  0
 28 26  1  0
M  END
$$$$
