INR.pdb
     RDKit          3D

 28 27  0  0  1  0  0  0  0  0999 V2000
    7.1564  -12.5044   18.9385 C   0  0  0  0  0  0  0  0  0  0  0  0
    8.5567  -13.0408   19.0112 C   0  0  0  0  0  0  0  0  0  0  0  0
    8.6072  -14.2015   19.9798 C   0  0  2  0  0  0  0  0  0  0  0  0
    8.0435  -13.7627   21.2937 C   0  0  0  0  0  0  0  0  0  0  0  0
   10.0069  -14.7677   20.0881 C   0  0  2  0  0  0  0  0  0  0  0  0
   10.5241  -15.0082   18.7683 N   0  0  0  0  0  0  0  0  0  0  0  0
   10.0360  -15.9874   20.9356 C   0  0  0  0  0  0  0  0  0  0  0  0
    9.5720  -15.9509   22.1033 O   0  0  0  0  0  0  0  0  0  0  0  0
   10.1454  -20.0353   18.2030 N   0  0  0  0  0  0  0  0  0  0  0  0
    9.8195  -19.8449   19.5598 C   0  0  0  0  0  0  0  0  0  0  0  0
    8.5661  -19.8390   19.8226 O   0  0  0  0  0  0  0  0  0  0  0  0
   10.7669  -19.6594   20.6593 C   0  0  0  0  0  0  0  0  0  0  0  0
   10.6383  -18.3412   21.3368 C   0  0  2  0  0  0  0  0  0  0  0  0
   10.5784  -17.2170   20.4679 N   0  0  0  0  0  0  0  0  0  0  0  0
   11.7115  -18.2128   22.3734 C   0  0  0  0  0  0  0  0  0  0  0  0
   12.7643  -17.5257   22.1722 O   0  0  0  0  0  0  0  0  0  0  0  0
   11.7247  -21.3228   30.6047 N   0  0  0  0  0  0  0  0  0  0  0  0
   12.1626  -19.9816   30.4491 C   0  0  0  0  0  0  0  0  0  0  0  0
   12.2389  -19.2287   31.4932 N   0  0  0  0  0  0  0  0  0  0  0  0
   12.5114  -19.4733   29.1686 N   0  0  0  0  0  0  0  0  0  0  0  0
   12.8682  -20.3977   28.0881 C   0  0  0  0  0  0  0  0  0  0  0  0
   13.3505  -19.6122   26.8951 C   0  0  0  0  0  0  0  0  0  0  0  0
   12.2162  -19.4525   25.8963 C   0  0  0  0  0  0  0  0  0  0  0  0
   12.7183  -18.8857   24.5857 C   0  0  2  0  0  0  0  0  0  0  0  0
   11.6217  -18.8464   23.6396 N   0  0  0  0  0  0  0  0  0  0  0  0
   13.8196  -19.7613   24.1099 C   0  0  0  0  0  0  0  0  0  0  0  0
   13.6272  -20.5949   23.1899 O   0  0  0  0  0  0  0  0  0  0  0  0
   15.0688  -19.6454   24.6978 O   0  0  0  0  0  0  0  0  0  0  0  0
  2  1  1  0
  3  2  1  0
  3  4  1  1
  5  3  1  0
  5  6  1  6
  7  8  2  0
  7  5  1  0
  9 10  1  0
 10 11  2  0
 10 12  1  0
 13 12  1  6
 13 14  1  0
 14  7  1  0
 15 16  2  0
 15 13  1  0
 17 18  1  0
 18 19  2  0
 20 18  1  0
 20 21  1  0
 22 21  1  0
 23 22  1  0
 24 23  1  1
 24 25  1  0
 25 15  1  0
 26 24  1  0
 27 26  2  0
 28 26  1  0
M  END
$$$$
