INR.pdb
     RDKit          3D

 28 27  0  0  1  0  0  0  0  0999 V2000
    7.1884  -11.6266   19.5372 C   0  0  0  0  0  0  0  0  0  0  0  0
    7.7030  -12.6901   18.6110 C   0  0  0  0  0  0  0  0  0  0  0  0
    8.2604  -13.8416   19.4183 C   0  0  2  0  0  0  0  0  0  0  0  0
    9.3262  -13.3240   20.3308 C   0  0  0  0  0  0  0  0  0  0  0  0
    8.7344  -14.9647   18.5208 C   0  0  2  0  0  0  0  0  0  0  0  0
    7.6241  -15.4567   17.7511 N   0  0  0  0  0  0  0  0  0  0  0  0
    9.3999  -16.0397   19.3005 C   0  0  0  0  0  0  0  0  0  0  0  0
    8.8007  -17.1245   19.5110 O   0  0  0  0  0  0  0  0  0  0  0  0
   13.4980  -19.4012   19.5742 N   0  0  0  0  0  0  0  0  0  0  0  0
   13.7277  -18.1045   20.0734 C   0  0  0  0  0  0  0  0  0  0  0  0
   14.7224  -17.9976   20.8728 O   0  0  0  0  0  0  0  0  0  0  0  0
   12.9467  -16.9068   19.7625 C   0  0  0  0  0  0  0  0  0  0  0  0
   11.5045  -17.0342   20.1042 C   0  0  2  0  0  0  0  0  0  0  0  0
   10.7127  -15.8857   19.8275 N   0  0  0  0  0  0  0  0  0  0  0  0
   11.3728  -17.4978   21.5222 C   0  0  0  0  0  0  0  0  0  0  0  0
   11.9456  -18.5546   21.9418 O   0  0  0  0  0  0  0  0  0  0  0  0
    5.9129  -20.8739   28.0063 N   0  0  0  0  0  0  0  0  0  0  0  0
    6.9482  -21.2272   27.1018 C   0  0  0  0  0  0  0  0  0  0  0  0
    6.9319  -22.4009   26.5679 N   0  0  0  0  0  0  0  0  0  0  0  0
    7.9854  -20.3082   26.7872 N   0  0  0  0  0  0  0  0  0  0  0  0
    8.1323  -19.8140   25.4148 C   0  0  0  0  0  0  0  0  0  0  0  0
    9.2283  -18.7798   25.3687 C   0  0  0  0  0  0  0  0  0  0  0  0
    9.4359  -18.3190   23.9355 C   0  0  0  0  0  0  0  0  0  0  0  0
   10.4708  -17.2170   23.8606 C   0  0  2  0  0  0  0  0  0  0  0  0
   10.6044  -16.7905   22.4824 N   0  0  0  0  0  0  0  0  0  0  0  0
   11.7469  -17.7620   24.3903 C   0  0  0  0  0  0  0  0  0  0  0  0
   12.4504  -18.5403   23.6992 O   0  0  0  0  0  0  0  0  0  0  0  0
   12.1528  -17.3983   25.6641 O   0  0  0  0  0  0  0  0  0  0  0  0
  2  1  1  0
  3  2  1  0
  3  4  1  6
  5  3  1  0
  5  6  1  1
  7  8  2  0
  7  5  1  0
  9 10  1  0
 10 11  2  0
 10 12  1  0
 13 12  1  1
 13 14  1  0
 14  7  1  0
 15 16  2  0
 15 13  1  0
 17 18  1  0
 18 19  2  0
 20 18  1  0
 20 21  1  0
 22 21  1  0
 23 22  1  0
 24 23  1  6
 24 25  1  0
 25 15  1  0
 26 24  1  0
 27 26  2  0
 28 26  1  0
M  END
$$$$
