INR.pdb
     RDKit          3D

 28 27  0  0  1  0  0  0  0  0999 V2000
    7.9108  -16.5367   17.8841 C   0  0  0  0  0  0  0  0  0  0  0  0
    7.6911  -15.1276   18.3531 C   0  0  0  0  0  0  0  0  0  0  0  0
    8.0573  -15.0156   19.8165 C   0  0  2  0  0  0  0  0  0  0  0  0
    7.3544  -16.0946   20.5771 C   0  0  0  0  0  0  0  0  0  0  0  0
    7.7762  -13.6270   20.3497 C   0  0  2  0  0  0  0  0  0  0  0  0
    8.4611  -12.6595   19.5361 N   0  0  0  0  0  0  0  0  0  0  0  0
    8.1378  -13.5126   21.7859 C   0  0  0  0  0  0  0  0  0  0  0  0
    9.3467  -13.5157   22.1304 O   0  0  0  0  0  0  0  0  0  0  0  0
    7.8232  -12.0664   27.1954 N   0  0  0  0  0  0  0  0  0  0  0  0
    6.9516  -12.9445   26.5227 C   0  0  0  0  0  0  0  0  0  0  0  0
    6.4919  -13.9055   27.2335 O   0  0  0  0  0  0  0  0  0  0  0  0
    6.5413  -12.8511   25.1213 C   0  0  0  0  0  0  0  0  0  0  0  0
    7.5387  -13.4151   24.1725 C   0  0  2  0  0  0  0  0  0  0  0  0
    7.1507  -13.3975   22.8045 N   0  0  0  0  0  0  0  0  0  0  0  0
    7.9469  -14.7785   24.6390 C   0  0  0  0  0  0  0  0  0  0  0  0
    7.3302  -15.8296   24.2706 O   0  0  0  0  0  0  0  0  0  0  0  0
   13.4046  -18.2455   20.9907 N   0  0  0  0  0  0  0  0  0  0  0  0
   12.0314  -18.1895   20.6358 C   0  0  0  0  0  0  0  0  0  0  0  0
   11.6889  -18.4955   19.4309 N   0  0  0  0  0  0  0  0  0  0  0  0
   11.0485  -17.8042   21.5872 N   0  0  0  0  0  0  0  0  0  0  0  0
   11.4449  -17.5034   22.9661 C   0  0  0  0  0  0  0  0  0  0  0  0
   10.2216  -17.1523   23.7743 C   0  0  0  0  0  0  0  0  0  0  0  0
   10.6352  -16.7615   25.1835 C   0  0  0  0  0  0  0  0  0  0  0  0
    9.4449  -16.2909   25.9914 C   0  0  2  0  0  0  0  0  0  0  0  0
    9.0424  -14.9824   25.5171 N   0  0  0  0  0  0  0  0  0  0  0  0
    9.8569  -16.2523   27.4179 C   0  0  0  0  0  0  0  0  0  0  0  0
   10.0312  -15.1570   28.0079 O   0  0  0  0  0  0  0  0  0  0  0  0
   10.0472  -17.4474   28.0925 O   0  0  0  0  0  0  0  0  0  0  0  0
  2  1  1  0
  3  2  1  0
  3  4  1  1
  5  3  1  0
  5  6  1  6
  7  8  2  0
  7  5  1  0
  9 10  1  0
 10 11  2  0
 10 12  1  0
 13 12  1  1
 13 14  1  0
 14  7  1  0
 15 16  2  0
 15 13  1  0
 17 18  1  0
 18 19  2  0
 20 18  1  0
 20 21  1  0
 22 21  1  0
 23 22  1  0
 24 23  1  6
 24 25  1  0
 25 15  1  0
 26 24  1  0
 27 26  2  0
 28 26  1  0
M  END
$$$$
