INR.pdb
     RDKit          3D

 28 27  0  0  1  0  0  0  0  0999 V2000
    6.8022  -13.1299   19.8632 C   0  0  0  0  0  0  0  0  0  0  0  0
    7.8034  -12.5415   18.9117 C   0  0  0  0  0  0  0  0  0  0  0  0
    8.4373  -13.6448   18.0938 C   0  0  2  0  0  0  0  0  0  0  0  0
    7.4069  -14.2231   17.1769 C   0  0  0  0  0  0  0  0  0  0  0  0
    9.0966  -14.6788   18.9812 C   0  0  2  0  0  0  0  0  0  0  0  0
    8.9534  -14.2836   20.3562 N   0  0  0  0  0  0  0  0  0  0  0  0
   10.5165  -14.8948   18.6021 C   0  0  0  0  0  0  0  0  0  0  0  0
   10.7965  -15.4484   17.5088 O   0  0  0  0  0  0  0  0  0  0  0  0
   16.4451  -13.8699   19.3780 N   0  0  0  0  0  0  0  0  0  0  0  0
   15.2615  -14.2417   18.7115 C   0  0  0  0  0  0  0  0  0  0  0  0
   15.4194  -15.0567   17.7364 O   0  0  0  0  0  0  0  0  0  0  0  0
   13.9084  -13.7869   19.0326 C   0  0  0  0  0  0  0  0  0  0  0  0
   12.9201  -14.8938   19.1379 C   0  0  2  0  0  0  0  0  0  0  0  0
   11.5908  -14.4919   19.4439 N   0  0  0  0  0  0  0  0  0  0  0  0
   13.4412  -15.9318   20.0835 C   0  0  0  0  0  0  0  0  0  0  0  0
   14.6230  -16.3961   19.9901 O   0  0  0  0  0  0  0  0  0  0  0  0
    8.0896  -16.8768   25.6966 N   0  0  0  0  0  0  0  0  0  0  0  0
    8.1663  -15.6825   24.9333 C   0  0  0  0  0  0  0  0  0  0  0  0
    7.0770  -15.0472   24.6641 N   0  0  0  0  0  0  0  0  0  0  0  0
    9.4179  -15.1921   24.4722 N   0  0  0  0  0  0  0  0  0  0  0  0
   10.6281  -16.0011   24.6451 C   0  0  0  0  0  0  0  0  0  0  0  0
   11.2417  -16.2802   23.2966 C   0  0  0  0  0  0  0  0  0  0  0  0
   12.5454  -17.0403   23.4760 C   0  0  0  0  0  0  0  0  0  0  0  0
   13.1747  -17.3684   22.1391 C   0  0  2  0  0  0  0  0  0  0  0  0
   12.6531  -16.4599   21.1382 N   0  0  0  0  0  0  0  0  0  0  0  0
   12.8433  -18.7809   21.8209 C   0  0  0  0  0  0  0  0  0  0  0  0
   12.0378  -19.0608   20.8984 O   0  0  0  0  0  0  0  0  0  0  0  0
   13.4381  -19.7909   22.5596 O   0  0  0  0  0  0  0  0  0  0  0  0
  2  1  1  0
  3  2  1  0
  3  4  1  1
  5  3  1  0
  5  6  1  1
  7  8  2  0
  7  5  1  0
  9 10  1  0
 10 11  2  0
 10 12  1  0
 13 12  1  1
 13 14  1  0
 14  7  1  0
 15 16  2  0
 15 13  1  0
 17 18  1  0
 18 19  2  0
 20 18  1  0
 20 21  1  0
 22 21  1  0
 23 22  1  0
 24 23  1  1
 24 25  1  0
 25 15  1  0
 26 24  1  0
 27 26  2  0
 28 26  1  0
M  END
$$$$
