INR.pdb
     RDKit          3D

 28 27  0  0  1  0  0  0  0  0999 V2000
    6.7280  -12.0275   18.7255 C   0  0  0  0  0  0  0  0  0  0  0  0
    7.3932  -13.3685   18.8390 C   0  0  0  0  0  0  0  0  0  0  0  0
    7.3618  -13.8318   20.2786 C   0  0  2  0  0  0  0  0  0  0  0  0
    7.9411  -12.7602   21.1464 C   0  0  0  0  0  0  0  0  0  0  0  0
    8.0492  -15.1706   20.4414 C   0  0  2  0  0  0  0  0  0  0  0  0
    7.4513  -16.1222   19.5448 N   0  0  0  0  0  0  0  0  0  0  0  0
    8.0174  -15.6300   21.8537 C   0  0  0  0  0  0  0  0  0  0  0  0
    8.6029  -14.9626   22.7436 O   0  0  0  0  0  0  0  0  0  0  0  0
    6.7143  -19.5420   21.9684 N   0  0  0  0  0  0  0  0  0  0  0  0
    5.9666  -19.2084   23.1142 C   0  0  0  0  0  0  0  0  0  0  0  0
    4.9648  -19.9703   23.3509 O   0  0  0  0  0  0  0  0  0  0  0  0
    6.2328  -18.0969   24.0278 C   0  0  0  0  0  0  0  0  0  0  0  0
    7.3714  -17.2393   23.6022 C   0  0  2  0  0  0  0  0  0  0  0  0
    7.3375  -16.8174   22.2445 N   0  0  0  0  0  0  0  0  0  0  0  0
    8.6588  -17.9130   23.9651 C   0  0  0  0  0  0  0  0  0  0  0  0
    8.8888  -19.1302   23.6712 O   0  0  0  0  0  0  0  0  0  0  0  0
   14.9470  -14.7137   20.8322 N   0  0  0  0  0  0  0  0  0  0  0  0
   13.7239  -15.1805   20.2834 C   0  0  0  0  0  0  0  0  0  0  0  0
   13.3806  -14.7831   19.1057 N   0  0  0  0  0  0  0  0  0  0  0  0
   12.8900  -16.0693   21.0143 N   0  0  0  0  0  0  0  0  0  0  0  0
   12.9074  -16.0483   22.4800 C   0  0  0  0  0  0  0  0  0  0  0  0
   12.0469  -17.1681   23.0078 C   0  0  0  0  0  0  0  0  0  0  0  0
   12.1053  -17.1850   24.5264 C   0  0  0  0  0  0  0  0  0  0  0  0
   10.9053  -17.8985   25.1111 C   0  0  2  0  0  0  0  0  0  0  0  0
    9.6983  -17.2388   24.6562 N   0  0  0  0  0  0  0  0  0  0  0  0
   11.0304  -17.8500   26.5903 C   0  0  0  0  0  0  0  0  0  0  0  0
   10.1996  -17.2142   27.2859 O   0  0  0  0  0  0  0  0  0  0  0  0
   12.0817  -18.5192   27.1957 O   0  0  0  0  0  0  0  0  0  0  0  0
  2  1  1  0
  3  2  1  0
  3  4  1  1
  5  3  1  0
  5  6  1  6
  7  8  2  0
  7  5  1  0
  9 10  1  0
 10 11  2  0
 10 12  1  0
 13 12  1  6
 13 14  1  0
 14  7  1  0
 15 16  2  0
 15 13  1  0
 17 18  1  0
 18 19  2  0
 20 18  1  0
 20 21  1  0
 22 21  1  0
 23 22  1  0
 24 23  1  6
 24 25  1  0
 25 15  1  0
 26 24  1  0
 27 26  2  0
 28 26  1  0
M  END
$$$$
