INR.pdb
     RDKit          3D

 28 27  0  0  1  0  0  0  0  0999 V2000
    8.9433  -12.0891   19.1514 C   0  0  0  0  0  0  0  0  0  0  0  0
    9.1578  -13.4185   19.8150 C   0  0  0  0  0  0  0  0  0  0  0  0
    7.8439  -13.9331   20.3598 C   0  0  2  0  0  0  0  0  0  0  0  0
    7.3140  -12.9523   21.3568 C   0  0  0  0  0  0  0  0  0  0  0  0
    7.9892  -15.3332   20.9166 C   0  0  2  0  0  0  0  0  0  0  0  0
    6.6848  -15.8703   21.1945 N   0  0  0  0  0  0  0  0  0  0  0  0
    8.8733  -15.3547   22.1102 C   0  0  0  0  0  0  0  0  0  0  0  0
    9.4949  -14.3160   22.4489 O   0  0  0  0  0  0  0  0  0  0  0  0
   10.8293  -15.9111   27.1849 N   0  0  0  0  0  0  0  0  0  0  0  0
   10.3878  -16.9729   26.3719 C   0  0  0  0  0  0  0  0  0  0  0  0
   10.9302  -18.1070   26.6161 O   0  0  0  0  0  0  0  0  0  0  0  0
    9.3907  -16.8884   25.3043 C   0  0  0  0  0  0  0  0  0  0  0  0
    9.9668  -16.5220   23.9826 C   0  0  2  0  0  0  0  0  0  0  0  0
    9.0464  -16.5267   22.8985 N   0  0  0  0  0  0  0  0  0  0  0  0
   11.1735  -17.3688   23.7188 C   0  0  0  0  0  0  0  0  0  0  0  0
   11.0858  -18.6227   23.5166 O   0  0  0  0  0  0  0  0  0  0  0  0
   14.4315  -15.9654   18.7234 N   0  0  0  0  0  0  0  0  0  0  0  0
   14.3976  -14.5693   18.9778 C   0  0  0  0  0  0  0  0  0  0  0  0
   13.9926  -13.7780   18.0436 N   0  0  0  0  0  0  0  0  0  0  0  0
   14.8014  -14.0485   20.2368 N   0  0  0  0  0  0  0  0  0  0  0  0
   15.3311  -14.9500   21.2644 C   0  0  0  0  0  0  0  0  0  0  0  0
   14.2158  -15.8130   21.7976 C   0  0  0  0  0  0  0  0  0  0  0  0
   14.7563  -16.7381   22.8754 C   0  0  0  0  0  0  0  0  0  0  0  0
   13.6650  -17.6298   23.4275 C   0  0  2  0  0  0  0  0  0  0  0  0
   12.4844  -16.8281   23.6778 N   0  0  0  0  0  0  0  0  0  0  0  0
   14.1794  -18.2497   24.6754 C   0  0  0  0  0  0  0  0  0  0  0  0
   13.6833  -17.9562   25.7916 O   0  0  0  0  0  0  0  0  0  0  0  0
   15.2196  -19.1609   24.5909 O   0  0  0  0  0  0  0  0  0  0  0  0
  2  1  1  0
  3  2  1  0
  3  4  1  1
  5  3  1  0
  5  6  1  1
  7  8  2  0
  7  5  1  0
  9 10  1  0
 10 11  2  0
 10 12  1  0
 13 12  1  1
 13 14  1  0
 14  7  1  0
 15 16  2  0
 15 13  1  0
 17 18  1  0
 18 19  2  0
 20 18  1  0
 20 21  1  0
 22 21  1  0
 23 22  1  0
 24 23  1  1
 24 25  1  0
 25 15  1  0
 26 24  1  0
 27 26  2  0
 28 26  1  0
M  END
$$$$
