INR.pdb
     RDKit          3D

 28 27  0  0  1  0  0  0  0  0999 V2000
    7.6485  -12.1765   19.2073 C   0  0  0  0  0  0  0  0  0  0  0  0
    6.8153  -13.1307   20.0130 C   0  0  0  0  0  0  0  0  0  0  0  0
    7.6829  -14.2620   20.5184 C   0  0  2  0  0  0  0  0  0  0  0  0
    8.8862  -13.6865   21.1948 C   0  0  0  0  0  0  0  0  0  0  0  0
    8.0270  -15.2307   19.4072 C   0  0  2  0  0  0  0  0  0  0  0  0
    6.8141  -15.7834   18.8680 N   0  0  0  0  0  0  0  0  0  0  0  0
    8.9665  -16.2822   19.8741 C   0  0  0  0  0  0  0  0  0  0  0  0
    8.5418  -17.2380   20.5714 O   0  0  0  0  0  0  0  0  0  0  0  0
   14.5315  -18.9454   19.4911 N   0  0  0  0  0  0  0  0  0  0  0  0
   13.1635  -18.7246   19.7421 C   0  0  0  0  0  0  0  0  0  0  0  0
   12.6095  -19.5748   20.5233 O   0  0  0  0  0  0  0  0  0  0  0  0
   12.3490  -17.6366   19.1999 C   0  0  0  0  0  0  0  0  0  0  0  0
   11.2268  -17.2356   20.0903 C   0  0  2  0  0  0  0  0  0  0  0  0
   10.3533  -16.2484   19.5567 N   0  0  0  0  0  0  0  0  0  0  0  0
   11.7731  -16.8579   21.4326 C   0  0  0  0  0  0  0  0  0  0  0  0
   12.3439  -15.7385   21.6373 O   0  0  0  0  0  0  0  0  0  0  0  0
    9.1751  -13.5217   28.2361 N   0  0  0  0  0  0  0  0  0  0  0  0
   10.1532  -14.3902   28.7874 C   0  0  0  0  0  0  0  0  0  0  0  0
   10.2406  -14.4916   30.0700 N   0  0  0  0  0  0  0  0  0  0  0  0
   11.0221  -15.1361   27.9460 N   0  0  0  0  0  0  0  0  0  0  0  0
   10.4652  -16.0975   26.9895 C   0  0  0  0  0  0  0  0  0  0  0  0
   11.5831  -16.7044   26.1802 C   0  0  0  0  0  0  0  0  0  0  0  0
   11.0775  -17.0496   24.7891 C   0  0  0  0  0  0  0  0  0  0  0  0
   12.2239  -17.3814   23.8581 C   0  0  2  0  0  0  0  0  0  0  0  0
   11.6884  -17.7209   22.5554 N   0  0  0  0  0  0  0  0  0  0  0  0
   12.9726  -18.5173   24.4543 C   0  0  0  0  0  0  0  0  0  0  0  0
   12.5515  -19.6955   24.3415 O   0  0  0  0  0  0  0  0  0  0  0  0
   14.1481  -18.2580   25.1401 O   0  0  0  0  0  0  0  0  0  0  0  0
  2  1  1  0
  3  2  1  0
  3  4  1  6
  5  3  1  0
  5  6  1  1
  7  8  2  0
  7  5  1  0
  9 10  1  0
 10 11  2  0
 10 12  1  0
 13 12  1  6
 13 14  1  0
 14  7  1  0
 15 16  2  0
 15 13  1  0
 17 18  1  0
 18 19  2  0
 20 18  1  0
 20 21  1  0
 22 21  1  0
 23 22  1  0
 24 23  1  1
 24 25  1  0
 25 15  1  0
 26 24  1  0
 27 26  2  0
 28 26  1  0
M  END
$$$$
