INR.pdb
     RDKit          3D

 28 27  0  0  1  0  0  0  0  0999 V2000
    8.5828  -12.2367   18.6171 C   0  0  0  0  0  0  0  0  0  0  0  0
    7.7792  -13.3495   19.2251 C   0  0  0  0  0  0  0  0  0  0  0  0
    8.6491  -14.1475   20.1708 C   0  0  2  0  0  0  0  0  0  0  0  0
    9.8204  -14.6881   19.4141 C   0  0  0  0  0  0  0  0  0  0  0  0
    7.8505  -15.2184   20.8826 C   0  0  2  0  0  0  0  0  0  0  0  0
    6.6355  -14.6430   21.3926 N   0  0  0  0  0  0  0  0  0  0  0  0
    8.6514  -15.8777   21.9458 C   0  0  0  0  0  0  0  0  0  0  0  0
    8.7620  -15.3358   23.0746 O   0  0  0  0  0  0  0  0  0  0  0  0
   10.2281  -20.5776   25.1805 N   0  0  0  0  0  0  0  0  0  0  0  0
   10.5915  -19.5660   24.2706 C   0  0  0  0  0  0  0  0  0  0  0  0
   11.7546  -19.0621   24.4532 O   0  0  0  0  0  0  0  0  0  0  0  0
    9.7737  -19.0597   23.1679 C   0  0  0  0  0  0  0  0  0  0  0  0
   10.1276  -17.6753   22.7543 C   0  0  2  0  0  0  0  0  0  0  0  0
    9.3097  -17.1209   21.7315 N   0  0  0  0  0  0  0  0  0  0  0  0
   11.5866  -17.6179   22.4210 C   0  0  0  0  0  0  0  0  0  0  0  0
   12.1513  -18.5110   21.7108 O   0  0  0  0  0  0  0  0  0  0  0  0
   15.9548  -14.5105   17.8530 N   0  0  0  0  0  0  0  0  0  0  0  0
   14.5787  -14.3251   17.5580 C   0  0  0  0  0  0  0  0  0  0  0  0
   14.1385  -14.6841   16.4004 N   0  0  0  0  0  0  0  0  0  0  0  0
   13.6987  -13.7550   18.5172 N   0  0  0  0  0  0  0  0  0  0  0  0
   14.0566  -13.7733   19.9388 C   0  0  0  0  0  0  0  0  0  0  0  0
   13.7430  -15.1297   20.5174 C   0  0  0  0  0  0  0  0  0  0  0  0
   14.1774  -15.1770   21.9730 C   0  0  0  0  0  0  0  0  0  0  0  0
   13.8480  -16.5156   22.5980 C   0  0  2  0  0  0  0  0  0  0  0  0
   12.4267  -16.5685   22.8743 N   0  0  0  0  0  0  0  0  0  0  0  0
   14.6515  -16.6412   23.8409 C   0  0  0  0  0  0  0  0  0  0  0  0
   14.1024  -16.5926   24.9697 O   0  0  0  0  0  0  0  0  0  0  0  0
   16.0223  -16.8136   23.7374 O   0  0  0  0  0  0  0  0  0  0  0  0
  2  1  1  0
  3  2  1  0
  3  4  1  6
  5  3  1  0
  5  6  1  1
  7  8  2  0
  7  5  1  0
  9 10  1  0
 10 11  2  0
 10 12  1  0
 13 12  1  6
 13 14  1  0
 14  7  1  0
 15 16  2  0
 15 13  1  0
 17 18  1  0
 18 19  2  0
 20 18  1  0
 20 21  1  0
 22 21  1  0
 23 22  1  0
 24 23  1  1
 24 25  1  0
 25 15  1  0
 26 24  1  0
 27 26  2  0
 28 26  1  0
M  END
$$$$
