INR.pdb
     RDKit          3D

 28 27  0  0  1  0  0  0  0  0999 V2000
   -4.2684  -29.0636   24.0930 C   0  0  0  0  0  0  0  0  0  0  0  0
   -5.5083  -28.4704   23.4893 C   0  0  0  0  0  0  0  0  0  0  0  0
   -5.7347  -27.0843   24.0510 C   0  0  2  0  0  0  0  0  0  0  0  0
   -5.8431  -27.1753   25.5399 C   0  0  0  0  0  0  0  0  0  0  0  0
   -6.9288  -26.4160   23.4038 C   0  0  2  0  0  0  0  0  0  0  0  0
   -6.7200  -26.3459   21.9830 N   0  0  0  0  0  0  0  0  0  0  0  0
   -7.1951  -25.0821   24.0007 C   0  0  0  0  0  0  0  0  0  0  0  0
   -6.3607  -24.1531   23.8574 O   0  0  0  0  0  0  0  0  0  0  0  0
   -9.0832  -20.8528   26.3191 N   0  0  0  0  0  0  0  0  0  0  0  0
   -9.9469  -21.4656   25.3907 C   0  0  0  0  0  0  0  0  0  0  0  0
  -10.9437  -20.7515   25.0213 O   0  0  0  0  0  0  0  0  0  0  0  0
   -9.8024  -22.8099   24.8312 C   0  0  0  0  0  0  0  0  0  0  0  0
   -8.5842  -23.5210   25.3037 C   0  0  2  0  0  0  0  0  0  0  0  0
   -8.3796  -24.8111   24.7414 N   0  0  0  0  0  0  0  0  0  0  0  0
   -8.5713  -23.5356   26.8012 C   0  0  0  0  0  0  0  0  0  0  0  0
   -8.7227  -22.4736   27.4869 O   0  0  0  0  0  0  0  0  0  0  0  0
   -3.6615  -29.5531   29.6561 N   0  0  0  0  0  0  0  0  0  0  0  0
   -4.8529  -29.9903   29.0202 C   0  0  0  0  0  0  0  0  0  0  0  0
   -4.9546  -31.2293   28.6777 N   0  0  0  0  0  0  0  0  0  0  0  0
   -5.9164  -29.0834   28.7636 N   0  0  0  0  0  0  0  0  0  0  0  0
   -5.8081  -27.6881   29.2001 C   0  0  0  0  0  0  0  0  0  0  0  0
   -7.0464  -26.9352   28.7846 C   0  0  0  0  0  0  0  0  0  0  0  0
   -6.9993  -25.5243   29.3475 C   0  0  0  0  0  0  0  0  0  0  0  0
   -8.2495  -24.7506   28.9876 C   0  0  2  0  0  0  0  0  0  0  0  0
   -8.3906  -24.7295   27.5458 N   0  0  0  0  0  0  0  0  0  0  0  0
   -8.1056  -23.3806   29.5429 C   0  0  0  0  0  0  0  0  0  0  0  0
   -8.0873  -22.3781   28.7859 O   0  0  0  0  0  0  0  0  0  0  0  0
   -7.9913  -23.2226   30.9146 O   0  0  0  0  0  0  0  0  0  0  0  0
  2  1  1  0
  3  2  1  0
  3  4  1  1
  5  3  1  0
  5  6  1  6
  7  8  2  0
  7  5  1  0
  9 10  1  0
 10 11  2  0
 10 12  1  0
 13 12  1  1
 13 14  1  0
 14  7  1  0
 15 16  2  0
 15 13  1  0
 17 18  1  0
 18 19  2  0
 20 18  1  0
 20 21  1  0
 22 21  1  0
 23 22  1  0
 24 23  1  6
 24 25  1  0
 25 15  1  0
 26 24  1  0
 27 26  2  0
 28 26  1  0
M  END
$$$$
