INR.pdb
     RDKit          3D

 28 27  0  0  1  0  0  0  0  0999 V2000
    6.7032  -12.8941   20.2550 C   0  0  0  0  0  0  0  0  0  0  0  0
    7.2567  -13.6481   19.0807 C   0  0  0  0  0  0  0  0  0  0  0  0
    8.7050  -14.0000   19.3388 C   0  0  2  0  0  0  0  0  0  0  0  0
    9.4706  -12.7429   19.6037 C   0  0  0  0  0  0  0  0  0  0  0  0
    9.2813  -14.8247   18.2077 C   0  0  2  0  0  0  0  0  0  0  0  0
    8.3657  -15.8834   17.8791 N   0  0  0  0  0  0  0  0  0  0  0  0
   10.6358  -15.3346   18.5420 C   0  0  0  0  0  0  0  0  0  0  0  0
   10.7809  -16.5211   18.9307 O   0  0  0  0  0  0  0  0  0  0  0  0
   16.0238  -16.5493   17.8639 N   0  0  0  0  0  0  0  0  0  0  0  0
   15.4489  -15.2857   18.1008 C   0  0  0  0  0  0  0  0  0  0  0  0
   16.1926  -14.4604   18.7378 O   0  0  0  0  0  0  0  0  0  0  0  0
   14.1126  -14.8526   17.6910 C   0  0  0  0  0  0  0  0  0  0  0  0
   13.0753  -15.0602   18.7369 C   0  0  2  0  0  0  0  0  0  0  0  0
   11.7957  -14.5169   18.4371 N   0  0  0  0  0  0  0  0  0  0  0  0
   13.6057  -14.5929   20.0572 C   0  0  0  0  0  0  0  0  0  0  0  0
   14.7571  -14.0617   20.1711 O   0  0  0  0  0  0  0  0  0  0  0  0
   10.2944  -20.4946   25.1183 N   0  0  0  0  0  0  0  0  0  0  0  0
   11.6954  -20.5624   25.3359 C   0  0  0  0  0  0  0  0  0  0  0  0
   12.1314  -21.1695   26.3867 N   0  0  0  0  0  0  0  0  0  0  0  0
   12.6046  -19.9738   24.4160 N   0  0  0  0  0  0  0  0  0  0  0  0
   12.1129  -19.0384   23.4000 C   0  0  0  0  0  0  0  0  0  0  0  0
   12.8984  -17.7540   23.4788 C   0  0  0  0  0  0  0  0  0  0  0  0
   12.4704  -16.8237   22.3558 C   0  0  0  0  0  0  0  0  0  0  0  0
   13.2771  -15.5430   22.3701 C   0  0  2  0  0  0  0  0  0  0  0  0
   12.8605  -14.7125   21.2584 N   0  0  0  0  0  0  0  0  0  0  0  0
   14.7116  -15.9143   22.2676 C   0  0  0  0  0  0  0  0  0  0  0  0
   15.0790  -16.8666   21.5353 O   0  0  0  0  0  0  0  0  0  0  0  0
   15.6438  -15.1919   22.9947 O   0  0  0  0  0  0  0  0  0  0  0  0
  2  1  1  0
  3  2  1  0
  3  4  1  6
  5  3  1  0
  5  6  1  1
  7  8  2  0
  7  5  1  0
  9 10  1  0
 10 11  2  0
 10 12  1  0
 13 12  1  6
 13 14  1  0
 14  7  1  0
 15 16  2  0
 15 13  1  0
 17 18  1  0
 18 19  2  0
 20 18  1  0
 20 21  1  0
 22 21  1  0
 23 22  1  0
 24 23  1  6
 24 25  1  0
 25 15  1  0
 26 24  1  0
 27 26  2  0
 28 26  1  0
M  END
$$$$
