NRD.pdb
     RDKit          3D

 28 27  0  0  1  0  0  0  0  0999 V2000
   15.4479  -13.5157  -12.4537 N   0  0  0  0  0  0  0  0  0  0  0  0
   16.2292  -13.0573  -13.5418 C   0  0  0  0  0  0  0  0  0  0  0  0
   16.7149  -13.9010  -14.3334 O   0  0  0  0  0  0  0  0  0  0  0  0
   16.4764  -11.6266  -13.7553 C   0  0  0  0  0  0  0  0  0  0  0  0
   15.8887  -10.8412  -12.6013 C   0  0  2  0  0  0  0  0  0  0  0  0
   14.4373  -10.8361  -12.6907 N   0  0  0  0  0  0  0  0  0  0  0  0
   16.3557   -9.4462  -12.5870 C   0  0  0  0  0  0  0  0  0  0  0  0
   16.2138   -8.6957  -13.5807 O   0  0  0  0  0  0  0  0  0  0  0  0
   13.7256   -4.7695   -6.0265 N   0  0  0  0  0  0  0  0  0  0  0  0
   13.2697   -5.4678   -7.1748 C   0  0  0  0  0  0  0  0  0  0  0  0
   12.1537   -6.0929   -7.1027 N   0  0  0  0  0  0  0  0  0  0  0  0
   14.0007   -5.4938   -8.3761 N   0  0  0  0  0  0  0  0  0  0  0  0
   15.2304   -6.2687   -8.4955 C   0  0  0  0  0  0  0  0  0  0  0  0
   15.8535   -6.0840   -9.8574 C   0  0  0  0  0  0  0  0  0  0  0  0
   17.0957   -6.9745   -9.8901 C   0  0  0  0  0  0  0  0  0  0  0  0
   17.3444   -7.5441  -11.2439 C   0  0  2  0  0  0  0  0  0  0  0  0
   16.9863   -8.8884  -11.4499 N   0  0  0  0  0  0  0  0  0  0  0  0
   18.7898   -7.3826  -11.5432 C   0  0  0  0  0  0  0  0  0  0  0  0
   19.6303   -7.9062  -10.7679 O   0  0  0  0  0  0  0  0  0  0  0  0
   11.6891   -6.5904   -7.8895 N   0  0  0  0  0  0  0  0  0  0  0  0
   19.2550   -6.6545  -12.6784 C   0  0  1  0  0  0  0  0  0  0  0  0
   20.6449   -6.4095  -12.9545 C   0  0  0  0  0  0  0  0  0  0  0  0
   20.9997   -6.8261  -14.3471 C   0  0  0  0  0  0  0  0  0  0  0  0
   20.8260   -8.2521  -14.6218 O   0  0  0  0  0  0  0  0  0  0  0  0
   21.0116   -9.0628  -13.6783 C   0  0  0  0  0  0  0  0  0  0  0  0
   21.0580   -5.0255  -12.6406 O   0  0  0  0  0  0  0  0  0  0  0  0
   20.0519   -4.1246  -12.3152 O   0  0  0  0  0  0  0  0  0  0  0  0
   20.4702   -8.8026  -15.8446 O   0  0  0  0  0  0  0  0  0  0  0  0
  2  3  2  0
  2  1  1  0
  4  2  1  0
  5  6  1  6
  5  4  1  0
  7  5  1  0
  8  7  2  0
 10  9  1  0
 10 12  1  0
 11 10  2  0
 12 13  1  0
 13 14  1  0
 16 15  1  1
 15 14  1  0
 16 17  1  0
 17  7  1  0
 18 20  1  0
 18 16  1  0
 19 18  2  0
 21 25  1  0
 21 20  1  0
 21 22  1  1
 23 22  1  0
 24 23  2  0
 25 26  1  0
 27 23  1  0
 28 25  2  0
M  END
$$$$
