NRD.pdb
     RDKit          3D

 28 27  0  0  1  0  0  0  0  0999 V2000
   26.4368  -13.7565  -15.3900 N   0  0  0  0  0  0  0  0  0  0  0  0
   26.0334  -13.3564  -16.6868 C   0  0  0  0  0  0  0  0  0  0  0  0
   26.3627  -14.0672  -17.6671 O   0  0  0  0  0  0  0  0  0  0  0  0
   25.2450  -12.1371  -16.8993 C   0  0  0  0  0  0  0  0  0  0  0  0
   23.8117  -12.5173  -17.2076 C   0  0  2  0  0  0  0  0  0  0  0  0
   23.7719  -13.4376  -18.3327 N   0  0  0  0  0  0  0  0  0  0  0  0
   22.9878  -11.3447  -17.5402 C   0  0  0  0  0  0  0  0  0  0  0  0
   23.1143  -10.7412  -18.6314 O   0  0  0  0  0  0  0  0  0  0  0  0
   15.0498  -12.2825  -15.4728 N   0  0  0  0  0  0  0  0  0  0  0  0
   16.1324  -12.9482  -14.8412 C   0  0  0  0  0  0  0  0  0  0  0  0
   15.8973  -14.0534  -14.2373 N   0  0  0  0  0  0  0  0  0  0  0  0
   17.4415  -12.4344  -14.8584 N   0  0  0  0  0  0  0  0  0  0  0  0
   17.8623  -11.4725  -15.8708 C   0  0  0  0  0  0  0  0  0  0  0  0
   19.3340  -11.1642  -15.7424 C   0  0  0  0  0  0  0  0  0  0  0  0
   19.6558  -10.1301  -16.8212 C   0  0  0  0  0  0  0  0  0  0  0  0
   21.1065   -9.7945  -16.8643 C   0  0  2  0  0  0  0  0  0  0  0  0
   22.0147  -10.8452  -16.6428 N   0  0  0  0  0  0  0  0  0  0  0  0
   21.3535   -8.7287  -15.8604 C   0  0  0  0  0  0  0  0  0  0  0  0
   21.6941   -9.0613  -14.6964 O   0  0  0  0  0  0  0  0  0  0  0  0
   16.6068  -14.6367  -13.7488 N   0  0  0  0  0  0  0  0  0  0  0  0
   21.2174   -7.3433  -16.1723 C   0  0  1  0  0  0  0  0  0  0  0  0
   21.4909   -6.2845  -15.2385 C   0  0  0  0  0  0  0  0  0  0  0  0
   21.7993   -5.0045  -15.9495 C   0  0  0  0  0  0  0  0  0  0  0  0
   22.1035   -3.8751  -15.0714 O   0  0  0  0  0  0  0  0  0  0  0  0
   22.4071   -4.1209  -13.8759 C   0  0  0  0  0  0  0  0  0  0  0  0
   20.4381   -6.1377  -14.2114 O   0  0  0  0  0  0  0  0  0  0  0  0
   20.8463   -6.1419  -12.8836 O   0  0  0  0  0  0  0  0  0  0  0  0
   22.0880   -2.5376  -15.4396 O   0  0  0  0  0  0  0  0  0  0  0  0
  2  3  2  0
  2  1  1  0
  4  2  1  0
  5  6  1  6
  5  4  1  0
  7  5  1  0
  8  7  2  0
 10  9  1  0
 10 12  1  0
 11 10  2  0
 12 13  1  0
 13 14  1  0
 16 15  1  1
 15 14  1  0
 16 17  1  0
 17  7  1  0
 18 20  1  0
 18 16  1  0
 19 18  2  0
 21 25  1  0
 21 20  1  0
 21 22  1  6
 23 22  1  0
 24 23  2  0
 25 26  1  0
 27 23  1  0
 28 25  2  0
M  END
$$$$
