NRD.pdb
     RDKit          3D

 28 27  0  0  1  0  0  0  0  0999 V2000
   16.4042  -14.4429  -12.2064 N   0  0  0  0  0  0  0  0  0  0  0  0
   17.2142  -13.6398  -13.0451 C   0  0  0  0  0  0  0  0  0  0  0  0
   18.1061  -14.1937  -13.7324 O   0  0  0  0  0  0  0  0  0  0  0  0
   17.0286  -12.1862  -13.1219 C   0  0  0  0  0  0  0  0  0  0  0  0
   15.8886  -11.7801  -12.2111 C   0  0  2  0  0  0  0  0  0  0  0  0
   14.6251  -12.2523  -12.7543 N   0  0  0  0  0  0  0  0  0  0  0  0
   15.8046  -10.3205  -12.0473 C   0  0  0  0  0  0  0  0  0  0  0  0
   15.3667   -9.5812  -12.9597 O   0  0  0  0  0  0  0  0  0  0  0  0
   13.3304   -5.1928   -5.4388 N   0  0  0  0  0  0  0  0  0  0  0  0
   12.9223   -6.1103   -6.4417 C   0  0  0  0  0  0  0  0  0  0  0  0
   11.8000   -6.7107   -6.2958 N   0  0  0  0  0  0  0  0  0  0  0  0
   13.7067   -6.3770   -7.5783 N   0  0  0  0  0  0  0  0  0  0  0  0
   15.1574   -6.2300   -7.5464 C   0  0  0  0  0  0  0  0  0  0  0  0
   15.7510   -6.4459   -8.9169 C   0  0  0  0  0  0  0  0  0  0  0  0
   15.8113   -7.9585   -9.1297 C   0  0  0  0  0  0  0  0  0  0  0  0
   16.1337   -8.3161  -10.5394 C   0  0  2  0  0  0  0  0  0  0  0  0
   16.2144   -9.6851  -10.8514 N   0  0  0  0  0  0  0  0  0  0  0  0
   17.4247   -7.6695  -10.8854 C   0  0  0  0  0  0  0  0  0  0  0  0
   18.4593   -8.0091  -10.2560 O   0  0  0  0  0  0  0  0  0  0  0  0
   11.3780   -7.3745   -6.9766 N   0  0  0  0  0  0  0  0  0  0  0  0
   17.5297   -6.6779  -11.9057 C   0  0  1  0  0  0  0  0  0  0  0  0
   18.7816   -6.1787  -12.4075 C   0  0  0  0  0  0  0  0  0  0  0  0
   19.6634   -7.2973  -12.8659 C   0  0  0  0  0  0  0  0  0  0  0  0
   20.9205   -6.8723  -13.4808 O   0  0  0  0  0  0  0  0  0  0  0  0
   21.2389   -5.6585  -13.3969 C   0  0  0  0  0  0  0  0  0  0  0  0
   18.6119   -5.1203  -13.4251 O   0  0  0  0  0  0  0  0  0  0  0  0
   19.7323   -4.3620  -13.7404 O   0  0  0  0  0  0  0  0  0  0  0  0
   21.8082   -7.6956  -14.1583 O   0  0  0  0  0  0  0  0  0  0  0  0
  2  3  2  0
  2  1  1  0
  4  2  1  0
  5  6  1  6
  5  4  1  0
  7  5  1  0
  8  7  2  0
 10  9  1  0
 10 12  1  0
 11 10  2  0
 12 13  1  0
 13 14  1  0
 16 15  1  1
 15 14  1  0
 16 17  1  0
 17  7  1  0
 18 20  1  0
 18 16  1  0
 19 18  2  0
 21 25  1  0
 21 20  1  0
 21 22  1  6
 23 22  1  0
 24 23  2  0
 25 26  1  0
 27 23  1  0
 28 25  2  0
M  END
$$$$
