NRD.pdb
     RDKit          3D

 28 27  0  0  1  0  0  0  0  0999 V2000
   22.3811   -9.8853  -17.2668 N   0  0  0  0  0  0  0  0  0  0  0  0
   21.0072   -9.9426  -16.9298 C   0  0  0  0  0  0  0  0  0  0  0  0
   20.1598   -9.9703  -17.8547 O   0  0  0  0  0  0  0  0  0  0  0  0
   20.5644   -9.9699  -15.5309 C   0  0  0  0  0  0  0  0  0  0  0  0
   21.4648   -9.0747  -14.7052 C   0  0  2  0  0  0  0  0  0  0  0  0
   22.7440   -9.7282  -14.4787 N   0  0  0  0  0  0  0  0  0  0  0  0
   20.8736   -8.7504  -13.3977 C   0  0  0  0  0  0  0  0  0  0  0  0
   20.8339   -9.5903  -12.4682 O   0  0  0  0  0  0  0  0  0  0  0  0
   16.0550   -3.8798   -9.4680 N   0  0  0  0  0  0  0  0  0  0  0  0
   17.1922   -3.2799   -8.8672 C   0  0  0  0  0  0  0  0  0  0  0  0
   17.1613   -2.0213   -8.6297 N   0  0  0  0  0  0  0  0  0  0  0  0
   18.3400   -4.0193   -8.5296 N   0  0  0  0  0  0  0  0  0  0  0  0
   19.2829   -4.4591   -9.5516 C   0  0  0  0  0  0  0  0  0  0  0  0
   18.5759   -5.2241  -10.6435 C   0  0  0  0  0  0  0  0  0  0  0  0
   19.6439   -5.5994  -11.6710 C   0  0  0  0  0  0  0  0  0  0  0  0
   19.6535   -7.0596  -11.9652 C   0  0  2  0  0  0  0  0  0  0  0  0
   20.3231   -7.4748  -13.1302 N   0  0  0  0  0  0  0  0  0  0  0  0
   18.2421   -7.5153  -12.0362 C   0  0  0  0  0  0  0  0  0  0  0  0
   17.5420   -7.1646  -13.0204 O   0  0  0  0  0  0  0  0  0  0  0  0
   17.9310   -1.4696   -8.1991 N   0  0  0  0  0  0  0  0  0  0  0  0
   17.6557   -8.3357  -11.0271 C   0  0  2  0  0  0  0  0  0  0  0  0
   16.2805   -8.7561  -11.0400 C   0  0  0  0  0  0  0  0  0  0  0  0
   16.1609  -10.2186  -10.7470 C   0  0  0  0  0  0  0  0  0  0  0  0
   14.7980  -10.7455  -10.8100 O   0  0  0  0  0  0  0  0  0  0  0  0
   13.8798   -9.9674  -11.1749 C   0  0  0  0  0  0  0  0  0  0  0  0
   15.4159   -7.9203  -10.1806 O   0  0  0  0  0  0  0  0  0  0  0  0
   14.1598   -7.5938  -10.6759 O   0  0  0  0  0  0  0  0  0  0  0  0
   14.4176  -12.0432  -10.5003 O   0  0  0  0  0  0  0  0  0  0  0  0
  2  3  2  0
  2  1  1  0
  4  2  1  0
  5  6  1  1
  5  4  1  0
  7  5  1  0
  8  7  2  0
 10  9  1  0
 10 12  1  0
 11 10  2  0
 12 13  1  0
 13 14  1  0
 16 15  1  6
 15 14  1  0
 16 17  1  0
 17  7  1  0
 18 20  1  0
 18 16  1  0
 19 18  2  0
 21 25  1  0
 21 20  1  0
 21 22  1  1
 23 22  1  0
 24 23  2  0
 25 26  1  0
 27 23  1  0
 28 25  2  0
M  END
$$$$
