NRD.pdb
     RDKit          3D

 28 27  0  0  1  0  0  0  0  0999 V2000
   17.5221  -11.7248  -18.5299 N   0  0  0  0  0  0  0  0  0  0  0  0
   16.9856  -10.6765  -17.7438 C   0  0  0  0  0  0  0  0  0  0  0  0
   15.8780  -10.1846  -18.0692 O   0  0  0  0  0  0  0  0  0  0  0  0
   17.6971  -10.1628  -16.5677 C   0  0  0  0  0  0  0  0  0  0  0  0
   18.9993  -10.9185  -16.4030 C   0  0  2  0  0  0  0  0  0  0  0  0
   18.7516  -12.2055  -15.7731 N   0  0  0  0  0  0  0  0  0  0  0  0
   19.9674  -10.1790  -15.5782 C   0  0  0  0  0  0  0  0  0  0  0  0
   19.6779   -9.7776  -14.4266 O   0  0  0  0  0  0  0  0  0  0  0  0
   28.0737  -12.1037  -16.9005 N   0  0  0  0  0  0  0  0  0  0  0  0
   27.1727  -12.9612  -16.2171 C   0  0  0  0  0  0  0  0  0  0  0  0
   27.5015  -14.1898  -16.0629 N   0  0  0  0  0  0  0  0  0  0  0  0
   25.9420  -12.5059  -15.7109 N   0  0  0  0  0  0  0  0  0  0  0  0
   25.4816  -11.1439  -15.9564 C   0  0  0  0  0  0  0  0  0  0  0  0
   24.0934  -10.9363  -15.4021 C   0  0  0  0  0  0  0  0  0  0  0  0
   23.6941   -9.5044  -15.7586 C   0  0  0  0  0  0  0  0  0  0  0  0
   22.2896   -9.1980  -15.3680 C   0  0  2  0  0  0  0  0  0  0  0  0
   21.2698   -9.8877  -16.0479 N   0  0  0  0  0  0  0  0  0  0  0  0
   22.0801   -7.7386  -15.5440 C   0  0  0  0  0  0  0  0  0  0  0  0
   21.7650   -7.3056  -16.6820 O   0  0  0  0  0  0  0  0  0  0  0  0
   26.8918  -14.9318  -15.6630 N   0  0  0  0  0  0  0  0  0  0  0  0
   22.2244   -6.8138  -14.4674 C   0  0  1  0  0  0  0  0  0  0  0  0
   21.9238   -5.4116  -14.5742 C   0  0  0  0  0  0  0  0  0  0  0  0
   20.5405   -5.1952  -15.1018 C   0  0  0  0  0  0  0  0  0  0  0  0
   20.1258   -3.7945  -15.1746 O   0  0  0  0  0  0  0  0  0  0  0  0
   19.2543   -3.3930  -14.3617 C   0  0  0  0  0  0  0  0  0  0  0  0
   22.1897   -4.6699  -13.3237 O   0  0  0  0  0  0  0  0  0  0  0  0
   22.4200   -5.4231  -12.1795 O   0  0  0  0  0  0  0  0  0  0  0  0
   20.6116   -2.8530  -16.0703 O   0  0  0  0  0  0  0  0  0  0  0  0
  2  3  2  0
  2  1  1  0
  4  2  1  0
  5  6  1  1
  5  4  1  0
  7  5  1  0
  8  7  2  0
 10  9  1  0
 10 12  1  0
 11 10  2  0
 12 13  1  0
 13 14  1  0
 16 15  1  6
 15 14  1  0
 16 17  1  0
 17  7  1  0
 18 20  1  0
 18 16  1  0
 19 18  2  0
 21 25  1  0
 21 20  1  0
 21 22  1  6
 23 22  1  0
 24 23  2  0
 25 26  1  0
 27 23  1  0
 28 25  2  0
M  END
$$$$
