NRD.pdb
     RDKit          3D

 28 27  0  0  1  0  0  0  0  0999 V2000
   45.2661  -17.7315   -8.8044 N   0  0  0  0  0  0  0  0  0  0  0  0
   43.8798  -17.7259   -9.0922 C   0  0  0  0  0  0  0  0  0  0  0  0
   43.2937  -18.8229   -9.2577 O   0  0  0  0  0  0  0  0  0  0  0  0
   43.1269  -16.4708   -9.1984 C   0  0  0  0  0  0  0  0  0  0  0  0
   44.0539  -15.3074   -8.9139 C   0  0  2  0  0  0  0  0  0  0  0  0
   44.2791  -15.1891   -7.4821 N   0  0  0  0  0  0  0  0  0  0  0  0
   43.5071  -14.0321   -9.4026 C   0  0  0  0  0  0  0  0  0  0  0  0
   43.3059  -13.8281  -10.6228 O   0  0  0  0  0  0  0  0  0  0  0  0
   42.4881   -9.5326   -2.8174 N   0  0  0  0  0  0  0  0  0  0  0  0
   43.7354   -9.1783   -3.3944 C   0  0  0  0  0  0  0  0  0  0  0  0
   44.6954   -8.8496   -2.6123 N   0  0  0  0  0  0  0  0  0  0  0  0
   43.9450   -9.1769   -4.7852 N   0  0  0  0  0  0  0  0  0  0  0  0
   42.8952   -9.5941   -5.7077 C   0  0  0  0  0  0  0  0  0  0  0  0
   43.4489  -10.5005   -6.7797 C   0  0  0  0  0  0  0  0  0  0  0  0
   42.2882  -10.8148   -7.7235 C   0  0  0  0  0  0  0  0  0  0  0  0
   42.7014  -11.6988   -8.8490 C   0  0  2  0  0  0  0  0  0  0  0  0
   43.1831  -12.9776   -8.5166 N   0  0  0  0  0  0  0  0  0  0  0  0
   43.7435  -10.9822   -9.6270 C   0  0  0  0  0  0  0  0  0  0  0  0
   44.9500  -11.1359   -9.3071 O   0  0  0  0  0  0  0  0  0  0  0  0
   45.6546   -8.5825   -2.9138 N   0  0  0  0  0  0  0  0  0  0  0  0
   43.4216  -10.1271  -10.7227 C   0  0  1  0  0  0  0  0  0  0  0  0
   44.4011   -9.3878  -11.4724 C   0  0  0  0  0  0  0  0  0  0  0  0
   43.9179   -9.1061  -12.8602 C   0  0  0  0  0  0  0  0  0  0  0  0
   43.5273  -10.2906  -13.6240 O   0  0  0  0  0  0  0  0  0  0  0  0
   44.2297  -11.3274  -13.5073 C   0  0  0  0  0  0  0  0  0  0  0  0
   44.8725   -8.1780  -10.7661 O   0  0  0  0  0  0  0  0  0  0  0  0
   45.9578   -7.5080  -11.3166 O   0  0  0  0  0  0  0  0  0  0  0  0
   42.4379  -10.3789  -14.4784 O   0  0  0  0  0  0  0  0  0  0  0  0
  2  3  2  0
  2  1  1  0
  4  2  1  0
  5  6  1  1
  5  4  1  0
  7  5  1  0
  8  7  2  0
 10  9  1  0
 10 12  1  0
 11 10  2  0
 12 13  1  0
 13 14  1  0
 16 15  1  1
 15 14  1  0
 16 17  1  0
 17  7  1  0
 18 20  1  0
 18 16  1  0
 19 18  2  0
 21 25  1  0
 21 20  1  0
 21 22  1  6
 23 22  1  0
 24 23  2  0
 25 26  1  0
 27 23  1  0
 28 25  2  0
M  END
$$$$
