NRD.pdb
     RDKit          3D

 28 27  0  0  1  0  0  0  0  0999 V2000
   28.9394  -23.9423  -17.7880 N   0  0  0  0  0  0  0  0  0  0  0  0
   27.6350  -23.7458  -18.3022 C   0  0  0  0  0  0  0  0  0  0  0  0
   27.3258  -24.2934  -19.3880 O   0  0  0  0  0  0  0  0  0  0  0  0
   26.6505  -22.9210  -17.5924 C   0  0  0  0  0  0  0  0  0  0  0  0
   27.2604  -22.4169  -16.3009 C   0  0  2  0  0  0  0  0  0  0  0  0
   27.4887  -23.5283  -15.3913 N   0  0  0  0  0  0  0  0  0  0  0  0
   26.3949  -21.4375  -15.6258 C   0  0  0  0  0  0  0  0  0  0  0  0
   25.6044  -21.7775  -14.7145 O   0  0  0  0  0  0  0  0  0  0  0  0
   23.0789  -14.7538  -16.8941 N   0  0  0  0  0  0  0  0  0  0  0  0
   23.5004  -13.9550  -15.7994 C   0  0  0  0  0  0  0  0  0  0  0  0
   22.7426  -12.9937  -15.4210 N   0  0  0  0  0  0  0  0  0  0  0  0
   24.7135  -14.1854  -15.1260 N   0  0  0  0  0  0  0  0  0  0  0  0
   25.6210  -15.2469  -15.5464 C   0  0  0  0  0  0  0  0  0  0  0  0
   25.0594  -16.6043  -15.2008 C   0  0  0  0  0  0  0  0  0  0  0  0
   26.0616  -17.6337  -15.7232 C   0  0  0  0  0  0  0  0  0  0  0  0
   25.6436  -19.0308  -15.4193 C   0  0  2  0  0  0  0  0  0  0  0  0
   26.4159  -20.0666  -15.9748 N   0  0  0  0  0  0  0  0  0  0  0  0
   24.2370  -19.1890  -15.8678 C   0  0  0  0  0  0  0  0  0  0  0  0
   24.0172  -19.5878  -17.0402 O   0  0  0  0  0  0  0  0  0  0  0  0
   22.9600  -12.3175  -14.6610 N   0  0  0  0  0  0  0  0  0  0  0  0
   23.1296  -18.9041  -15.0148 C   0  0  1  0  0  0  0  0  0  0  0  0
   21.8259  -19.4888  -15.1774 C   0  0  0  0  0  0  0  0  0  0  0  0
   21.8747  -20.9736  -14.9989 C   0  0  0  0  0  0  0  0  0  0  0  0
   20.5874  -21.6506  -15.1525 O   0  0  0  0  0  0  0  0  0  0  0  0
   20.0653  -21.6752  -16.2964 C   0  0  0  0  0  0  0  0  0  0  0  0
   20.7957  -18.8380  -14.3408 O   0  0  0  0  0  0  0  0  0  0  0  0
   21.2166  -17.8104  -13.5062 O   0  0  0  0  0  0  0  0  0  0  0  0
   19.8776  -22.2778  -14.1388 O   0  0  0  0  0  0  0  0  0  0  0  0
  2  3  2  0
  2  1  1  0
  4  2  1  0
  5  6  1  1
  5  4  1  0
  7  5  1  0
  8  7  2  0
 10  9  1  0
 10 12  1  0
 11 10  2  0
 12 13  1  0
 13 14  1  0
 16 15  1  6
 15 14  1  0
 16 17  1  0
 17  7  1  0
 18 20  1  0
 18 16  1  0
 19 18  2  0
 21 25  1  0
 21 20  1  0
 21 22  1  1
 23 22  1  0
 24 23  2  0
 25 26  1  0
 27 23  1  0
 28 25  2  0
M  END
$$$$
