NRD.pdb
     RDKit          3D

 28 27  0  0  1  0  0  0  0  0999 V2000
   29.0596  -23.9454  -20.8937 N   0  0  0  0  0  0  0  0  0  0  0  0
   29.3102  -23.5645  -19.5533 C   0  0  0  0  0  0  0  0  0  0  0  0
   30.4271  -23.0706  -19.2653 O   0  0  0  0  0  0  0  0  0  0  0  0
   28.2948  -23.7365  -18.5079 C   0  0  0  0  0  0  0  0  0  0  0  0
   27.9172  -22.3795  -17.9512 C   0  0  2  0  0  0  0  0  0  0  0  0
   29.0872  -21.7337  -17.3778 N   0  0  0  0  0  0  0  0  0  0  0  0
   26.8853  -22.4776  -16.9072 C   0  0  0  0  0  0  0  0  0  0  0  0
   26.0029  -23.3672  -16.9372 O   0  0  0  0  0  0  0  0  0  0  0  0
   23.3171  -20.3672   -9.7096 N   0  0  0  0  0  0  0  0  0  0  0  0
   24.5672  -20.8597   -9.2526 C   0  0  0  0  0  0  0  0  0  0  0  0
   24.6265  -21.3728   -8.0802 N   0  0  0  0  0  0  0  0  0  0  0  0
   25.7302  -20.8003  -10.0413 N   0  0  0  0  0  0  0  0  0  0  0  0
   25.7597  -20.0444  -11.2881 C   0  0  0  0  0  0  0  0  0  0  0  0
   25.2540  -20.8811  -12.4376 C   0  0  0  0  0  0  0  0  0  0  0  0
   26.3236  -20.8116  -13.5277 C   0  0  0  0  0  0  0  0  0  0  0  0
   25.9270  -21.5589  -14.7538 C   0  0  2  0  0  0  0  0  0  0  0  0
   26.8425  -21.5716  -15.8214 N   0  0  0  0  0  0  0  0  0  0  0  0
   24.6413  -20.9913  -15.2326 C   0  0  0  0  0  0  0  0  0  0  0  0
   24.6218  -19.8050  -15.6499 O   0  0  0  0  0  0  0  0  0  0  0  0
   25.4909  -21.7195   -7.6165 N   0  0  0  0  0  0  0  0  0  0  0  0
   23.4303  -21.7454  -15.2345 C   0  0  2  0  0  0  0  0  0  0  0  0
   22.1675  -21.2261  -15.6858 C   0  0  0  0  0  0  0  0  0  0  0  0
   21.4578  -22.2149  -16.5561 C   0  0  0  0  0  0  0  0  0  0  0  0
   20.1701  -21.7573  -17.0773 O   0  0  0  0  0  0  0  0  0  0  0  0
   19.7842  -20.6011  -16.7676 C   0  0  0  0  0  0  0  0  0  0  0  0
   21.3271  -20.7182  -14.5811 O   0  0  0  0  0  0  0  0  0  0  0  0
   21.5801  -21.2226  -13.3118 O   0  0  0  0  0  0  0  0  0  0  0  0
   19.3215  -22.4908  -17.8938 O   0  0  0  0  0  0  0  0  0  0  0  0
  2  3  2  0
  2  1  1  0
  4  2  1  0
  5  6  1  1
  5  4  1  0
  7  5  1  0
  8  7  2  0
 10  9  1  0
 10 12  1  0
 11 10  2  0
 12 13  1  0
 13 14  1  0
 16 15  1  1
 15 14  1  0
 16 17  1  0
 17  7  1  0
 18 20  1  0
 18 16  1  0
 19 18  2  0
 21 25  1  0
 21 20  1  0
 21 22  1  1
 23 22  1  0
 24 23  2  0
 25 26  1  0
 27 23  1  0
 28 25  2  0
M  END
$$$$
