NRD.pdb
     RDKit          3D

 28 27  0  0  1  0  0  0  0  0999 V2000
   21.6697   -9.8144  -13.2142 N   0  0  0  0  0  0  0  0  0  0  0  0
   21.6861   -8.4215  -12.9611 C   0  0  0  0  0  0  0  0  0  0  0  0
   22.7932   -7.8413  -12.8518 O   0  0  0  0  0  0  0  0  0  0  0  0
   20.4419   -7.6550  -12.8264 C   0  0  0  0  0  0  0  0  0  0  0  0
   19.2673   -8.6108  -12.8034 C   0  0  2  0  0  0  0  0  0  0  0  0
   19.0853   -9.2075  -14.1170 N   0  0  0  0  0  0  0  0  0  0  0  0
   18.0148   -7.9389  -12.4236 C   0  0  0  0  0  0  0  0  0  0  0  0
   17.3137   -7.3311  -13.2663 O   0  0  0  0  0  0  0  0  0  0  0  0
   11.9417   -9.6713   -6.2389 N   0  0  0  0  0  0  0  0  0  0  0  0
   11.7333   -8.3048   -6.5602 C   0  0  0  0  0  0  0  0  0  0  0  0
   10.7545   -7.6923   -6.0051 N   0  0  0  0  0  0  0  0  0  0  0  0
   12.5612   -7.6116   -7.4615 N   0  0  0  0  0  0  0  0  0  0  0  0
   13.7985   -8.2026   -7.9584 C   0  0  0  0  0  0  0  0  0  0  0  0
   14.4710   -7.2882   -8.9528 C   0  0  0  0  0  0  0  0  0  0  0  0
   15.7654   -7.9836   -9.3745 C   0  0  0  0  0  0  0  0  0  0  0  0
   16.3610   -7.3720  -10.5952 C   0  0  2  0  0  0  0  0  0  0  0  0
   17.5449   -7.9486  -11.0892 N   0  0  0  0  0  0  0  0  0  0  0  0
   16.6120   -5.9376  -10.3053 C   0  0  0  0  0  0  0  0  0  0  0  0
   17.4346   -5.6378   -9.4024 O   0  0  0  0  0  0  0  0  0  0  0  0
   10.4994   -6.6960   -6.1620 N   0  0  0  0  0  0  0  0  0  0  0  0
   15.9521   -4.8909  -11.0153 C   0  0  1  0  0  0  0  0  0  0  0  0
   16.2079   -3.4929  -10.7957 C   0  0  0  0  0  0  0  0  0  0  0  0
   17.2699   -2.9872  -11.7205 C   0  0  0  0  0  0  0  0  0  0  0  0
   17.5005   -1.5444  -11.6561 O   0  0  0  0  0  0  0  0  0  0  0  0
   17.6834   -1.0248  -10.5255 C   0  0  0  0  0  0  0  0  0  0  0  0
   14.9786   -2.6727  -10.8211 O   0  0  0  0  0  0  0  0  0  0  0  0
   13.7884   -3.3276  -11.1109 O   0  0  0  0  0  0  0  0  0  0  0  0
   17.5369   -0.6821  -12.7424 O   0  0  0  0  0  0  0  0  0  0  0  0
  2  3  2  0
  2  1  1  0
  4  2  1  0
  5  6  1  6
  5  4  1  0
  7  5  1  0
  8  7  2  0
 10  9  1  0
 10 12  1  0
 11 10  2  0
 12 13  1  0
 13 14  1  0
 16 15  1  1
 15 14  1  0
 16 17  1  0
 17  7  1  0
 18 20  1  0
 18 16  1  0
 19 18  2  0
 21 25  1  0
 21 20  1  0
 21 22  1  6
 23 22  1  0
 24 23  2  0
 25 26  1  0
 27 23  1  0
 28 25  2  0
M  END
$$$$
