NRD.pdb
     RDKit          3D

 28 27  0  0  1  0  0  0  0  0999 V2000
   25.7382  -13.9542  -16.1966 N   0  0  0  0  0  0  0  0  0  0  0  0
   25.0502  -13.8604  -17.4305 C   0  0  0  0  0  0  0  0  0  0  0  0
   25.3080  -14.6965  -18.3299 O   0  0  0  0  0  0  0  0  0  0  0  0
   24.0516  -12.8123  -17.6704 C   0  0  0  0  0  0  0  0  0  0  0  0
   23.9608  -11.9209  -16.4493 C   0  0  2  0  0  0  0  0  0  0  0  0
   23.5118  -12.6931  -15.3017 N   0  0  0  0  0  0  0  0  0  0  0  0
   23.0254  -10.8031  -16.6487 C   0  0  0  0  0  0  0  0  0  0  0  0
   23.1678   -9.9873  -17.5895 O   0  0  0  0  0  0  0  0  0  0  0  0
   14.9332  -11.9038  -14.2485 N   0  0  0  0  0  0  0  0  0  0  0  0
   15.4270  -12.4217  -15.4741 C   0  0  0  0  0  0  0  0  0  0  0  0
   14.7044  -13.2651  -16.1127 N   0  0  0  0  0  0  0  0  0  0  0  0
   16.6739  -12.0403  -16.0012 N   0  0  0  0  0  0  0  0  0  0  0  0
   17.5455  -11.1153  -15.2860 C   0  0  0  0  0  0  0  0  0  0  0  0
   18.7828  -10.8074  -16.0932 C   0  0  0  0  0  0  0  0  0  0  0  0
   19.6277   -9.8564  -15.2454 C   0  0  0  0  0  0  0  0  0  0  0  0
   20.9549   -9.5802  -15.8630 C   0  0  2  0  0  0  0  0  0  0  0  0
   21.9220  -10.5986  -15.7871 N   0  0  0  0  0  0  0  0  0  0  0  0
   21.5012   -8.3532  -15.2300 C   0  0  0  0  0  0  0  0  0  0  0  0
   22.1697   -8.4653  -14.1707 O   0  0  0  0  0  0  0  0  0  0  0  0
   14.9467  -13.6960  -17.0281 N   0  0  0  0  0  0  0  0  0  0  0  0
   21.2928   -7.0546  -15.7826 C   0  0  2  0  0  0  0  0  0  0  0  0
   21.9219   -5.8632  -15.2800 C   0  0  0  0  0  0  0  0  0  0  0  0
   21.7983   -4.7354  -16.2556 C   0  0  0  0  0  0  0  0  0  0  0  0
   22.4000   -3.4772  -15.8153 O   0  0  0  0  0  0  0  0  0  0  0  0
   23.2308   -3.5175  -14.8719 C   0  0  0  0  0  0  0  0  0  0  0  0
   21.4695   -5.5046  -13.9193 O   0  0  0  0  0  0  0  0  0  0  0  0
   20.1669   -5.8445  -13.5769 O   0  0  0  0  0  0  0  0  0  0  0  0
   22.1360   -2.2241  -16.3491 O   0  0  0  0  0  0  0  0  0  0  0  0
  2  3  2  0
  2  1  1  0
  4  2  1  0
  5  6  1  1
  5  4  1  0
  7  5  1  0
  8  7  2  0
 10  9  1  0
 10 12  1  0
 11 10  2  0
 12 13  1  0
 13 14  1  0
 16 15  1  1
 15 14  1  0
 16 17  1  0
 17  7  1  0
 18 20  1  0
 18 16  1  0
 19 18  2  0
 21 25  1  0
 21 20  1  0
 21 22  1  6
 23 22  1  0
 24 23  2  0
 25 26  1  0
 27 23  1  0
 28 25  2  0
M  END
$$$$
