NRD.pdb
     RDKit          3D

 28 27  0  0  1  0  0  0  0  0999 V2000
   11.2769   -8.3939  -14.6898 N   0  0  0  0  0  0  0  0  0  0  0  0
   11.8557   -7.7654  -13.5609 C   0  0  0  0  0  0  0  0  0  0  0  0
   11.1976   -6.8836  -12.9578 O   0  0  0  0  0  0  0  0  0  0  0  0
   13.1984   -8.1258  -13.0908 C   0  0  0  0  0  0  0  0  0  0  0  0
   13.7788   -9.1854  -14.0042 C   0  0  2  0  0  0  0  0  0  0  0  0
   13.2594  -10.4943  -13.6411 N   0  0  0  0  0  0  0  0  0  0  0  0
   15.2474   -9.2345  -13.9310 C   0  0  0  0  0  0  0  0  0  0  0  0
   15.8413   -9.6045  -12.8912 O   0  0  0  0  0  0  0  0  0  0  0  0
   17.0313  -14.6686  -17.1051 N   0  0  0  0  0  0  0  0  0  0  0  0
   17.9805  -13.9564  -17.8835 C   0  0  0  0  0  0  0  0  0  0  0  0
   18.5103  -14.5492  -18.8881 N   0  0  0  0  0  0  0  0  0  0  0  0
   18.3529  -12.6332  -17.5860 N   0  0  0  0  0  0  0  0  0  0  0  0
   17.6890  -11.8814  -16.5271 C   0  0  0  0  0  0  0  0  0  0  0  0
   17.1308  -10.5833  -17.0566 C   0  0  0  0  0  0  0  0  0  0  0  0
   17.9849   -9.4670  -16.4556 C   0  0  0  0  0  0  0  0  0  0  0  0
   17.4519   -8.9924  -15.1480 C   0  0  2  0  0  0  0  0  0  0  0  0
   16.0560   -8.8663  -15.0321 N   0  0  0  0  0  0  0  0  0  0  0  0
   18.0772   -7.6778  -14.8557 C   0  0  0  0  0  0  0  0  0  0  0  0
   17.3999   -6.6330  -15.0329 O   0  0  0  0  0  0  0  0  0  0  0  0
   19.2390  -14.1456  -19.5112 N   0  0  0  0  0  0  0  0  0  0  0  0
   19.4178   -7.5614  -14.3819 C   0  0  2  0  0  0  0  0  0  0  0  0
   20.0514   -6.3061  -14.0804 C   0  0  0  0  0  0  0  0  0  0  0  0
   21.3506   -6.5151  -13.3681 C   0  0  0  0  0  0  0  0  0  0  0  0
   22.0909   -5.2885  -13.0739 O   0  0  0  0  0  0  0  0  0  0  0  0
   21.7908   -4.6526  -12.0312 C   0  0  0  0  0  0  0  0  0  0  0  0
   20.1731   -5.4255  -15.2613 O   0  0  0  0  0  0  0  0  0  0  0  0
   19.9930   -4.0637  -15.0547 O   0  0  0  0  0  0  0  0  0  0  0  0
   23.1089   -4.7528  -13.8495 O   0  0  0  0  0  0  0  0  0  0  0  0
  2  3  2  0
  2  1  1  0
  4  2  1  0
  5  6  1  1
  5  4  1  0
  7  5  1  0
  8  7  2  0
 10  9  1  0
 10 12  1  0
 11 10  2  0
 12 13  1  0
 13 14  1  0
 16 15  1  6
 15 14  1  0
 16 17  1  0
 17  7  1  0
 18 20  1  0
 18 16  1  0
 19 18  2  0
 21 25  1  0
 21 20  1  0
 21 22  1  1
 23 22  1  0
 24 23  2  0
 25 26  1  0
 27 23  1  0
 28 25  2  0
M  END
$$$$
