NRD.pdb
     RDKit          3D

 28 27  0  0  1  0  0  0  0  0999 V2000
   20.4053  -21.1172   -8.7193 N   0  0  0  0  0  0  0  0  0  0  0  0
   19.7990  -21.6579   -9.8788 C   0  0  0  0  0  0  0  0  0  0  0  0
   18.9708  -22.5913   -9.7470 O   0  0  0  0  0  0  0  0  0  0  0  0
   20.1207  -21.1488  -11.2171 C   0  0  0  0  0  0  0  0  0  0  0  0
   21.1841  -20.0767  -11.1005 C   0  0  2  0  0  0  0  0  0  0  0  0
   20.6497  -18.9196  -10.4003 N   0  0  0  0  0  0  0  0  0  0  0  0
   21.6716  -19.6358  -12.4167 C   0  0  0  0  0  0  0  0  0  0  0  0
   21.0590  -18.7736  -13.0891 O   0  0  0  0  0  0  0  0  0  0  0  0
   28.9292  -22.4715  -16.1407 N   0  0  0  0  0  0  0  0  0  0  0  0
   27.6344  -22.9872  -15.8731 C   0  0  0  0  0  0  0  0  0  0  0  0
   27.5061  -24.2508  -15.7055 N   0  0  0  0  0  0  0  0  0  0  0  0
   26.5003  -22.1597  -15.7885 N   0  0  0  0  0  0  0  0  0  0  0  0
   26.5710  -20.7438  -16.1308 C   0  0  0  0  0  0  0  0  0  0  0  0
   25.2286  -20.0782  -15.9509 C   0  0  0  0  0  0  0  0  0  0  0  0
   24.7174  -20.4992  -14.5731 C   0  0  0  0  0  0  0  0  0  0  0  0
   23.4181  -19.8544  -14.2338 C   0  0  2  0  0  0  0  0  0  0  0  0
   22.8550  -20.1656  -12.9831 N   0  0  0  0  0  0  0  0  0  0  0  0
   22.4458  -20.2099  -15.2982 C   0  0  0  0  0  0  0  0  0  0  0  0
   21.6814  -21.1918  -15.1159 O   0  0  0  0  0  0  0  0  0  0  0  0
   26.6042  -24.7548  -15.5840 N   0  0  0  0  0  0  0  0  0  0  0  0
   22.3508  -19.4760  -16.5179 C   0  0  1  0  0  0  0  0  0  0  0  0
   21.2061  -19.5180  -17.3873 C   0  0  0  0  0  0  0  0  0  0  0  0
   19.9874  -18.9871  -16.7003 C   0  0  0  0  0  0  0  0  0  0  0  0
   18.7983  -19.8292  -16.8269 O   0  0  0  0  0  0  0  0  0  0  0  0
   18.8990  -20.9001  -17.4786 C   0  0  0  0  0  0  0  0  0  0  0  0
   21.4560  -18.8819  -18.6978 O   0  0  0  0  0  0  0  0  0  0  0  0
   20.4140  -18.8974  -19.6163 O   0  0  0  0  0  0  0  0  0  0  0  0
   17.5506  -19.5529  -16.2870 O   0  0  0  0  0  0  0  0  0  0  0  0
  2  3  2  0
  2  1  1  0
  4  2  1  0
  5  6  1  6
  5  4  1  0
  7  5  1  0
  8  7  2  0
 10  9  1  0
 10 12  1  0
 11 10  2  0
 12 13  1  0
 13 14  1  0
 16 15  1  6
 15 14  1  0
 16 17  1  0
 17  7  1  0
 18 20  1  0
 18 16  1  0
 19 18  2  0
 21 25  1  0
 21 20  1  0
 21 22  1  6
 23 22  1  0
 24 23  2  0
 25 26  1  0
 27 23  1  0
 28 25  2  0
M  END
$$$$
