NRD.pdb
     RDKit          3D

 28 27  0  0  1  0  0  0  0  0999 V2000
   29.0668  -21.2244  -19.2703 N   0  0  0  0  0  0  0  0  0  0  0  0
   27.7070  -20.9088  -19.5067 C   0  0  0  0  0  0  0  0  0  0  0  0
   27.4176  -20.1880  -20.4922 O   0  0  0  0  0  0  0  0  0  0  0  0
   26.6433  -21.4063  -18.6267 C   0  0  0  0  0  0  0  0  0  0  0  0
   27.2633  -22.1902  -17.4887 C   0  0  2  0  0  0  0  0  0  0  0  0
   27.6270  -23.5231  -17.9426 N   0  0  0  0  0  0  0  0  0  0  0  0
   26.3465  -22.3253  -16.3461 C   0  0  0  0  0  0  0  0  0  0  0  0
   25.3088  -23.0248  -16.4156 O   0  0  0  0  0  0  0  0  0  0  0  0
   23.5035  -19.9784   -9.7432 N   0  0  0  0  0  0  0  0  0  0  0  0
   24.2588  -20.7141   -8.7932 C   0  0  0  0  0  0  0  0  0  0  0  0
   23.7279  -20.9599   -7.6534 N   0  0  0  0  0  0  0  0  0  0  0  0
   25.5598  -21.1749   -9.0640 N   0  0  0  0  0  0  0  0  0  0  0  0
   26.2397  -20.8303  -10.3074 C   0  0  0  0  0  0  0  0  0  0  0  0
   25.4879  -21.3690  -11.4998 C   0  0  0  0  0  0  0  0  0  0  0  0
   26.3658  -21.1018  -12.7224 C   0  0  0  0  0  0  0  0  0  0  0  0
   25.7801  -21.6667  -13.9702 C   0  0  2  0  0  0  0  0  0  0  0  0
   26.5951  -21.6713  -15.1164 N   0  0  0  0  0  0  0  0  0  0  0  0
   24.5381  -20.9099  -14.2690 C   0  0  0  0  0  0  0  0  0  0  0  0
   24.6339  -19.7837  -14.8207 O   0  0  0  0  0  0  0  0  0  0  0  0
   24.1934  -21.4539   -6.8651 N   0  0  0  0  0  0  0  0  0  0  0  0
   23.2430  -21.4169  -13.9514 C   0  0  1  0  0  0  0  0  0  0  0  0
   22.0170  -20.7914  -14.3679 C   0  0  0  0  0  0  0  0  0  0  0  0
   22.0000  -20.5701  -15.8476 C   0  0  0  0  0  0  0  0  0  0  0  0
   20.7765  -19.9537  -16.3598 O   0  0  0  0  0  0  0  0  0  0  0  0
   20.2629  -19.0179  -15.6948 C   0  0  0  0  0  0  0  0  0  0  0  0
   20.8154  -21.4958  -13.8734 O   0  0  0  0  0  0  0  0  0  0  0  0
   19.5994  -20.8366  -14.0015 O   0  0  0  0  0  0  0  0  0  0  0  0
   20.1194  -20.3105  -17.5284 O   0  0  0  0  0  0  0  0  0  0  0  0
  2  3  2  0
  2  1  1  0
  4  2  1  0
  5  6  1  6
  5  4  1  0
  7  5  1  0
  8  7  2  0
 10  9  1  0
 10 12  1  0
 11 10  2  0
 12 13  1  0
 13 14  1  0
 16 15  1  1
 15 14  1  0
 16 17  1  0
 17  7  1  0
 18 20  1  0
 18 16  1  0
 19 18  2  0
 21 25  1  0
 21 20  1  0
 21 22  1  1
 23 22  1  0
 24 23  2  0
 25 26  1  0
 27 23  1  0
 28 25  2  0
M  END
$$$$
