NRD.pdb
     RDKit          3D

 28 27  0  0  1  0  0  0  0  0999 V2000
   29.8800  -19.3210  -17.9322 N   0  0  0  0  0  0  0  0  0  0  0  0
   28.5954  -18.7663  -18.1484 C   0  0  0  0  0  0  0  0  0  0  0  0
   28.4869  -17.7745  -18.9094 O   0  0  0  0  0  0  0  0  0  0  0  0
   27.4027  -19.3274  -17.5033 C   0  0  0  0  0  0  0  0  0  0  0  0
   27.8045  -20.5248  -16.6674 C   0  0  2  0  0  0  0  0  0  0  0  0
   28.1294  -21.6485  -17.5314 N   0  0  0  0  0  0  0  0  0  0  0  0
   26.7338  -20.9425  -15.7490 C   0  0  0  0  0  0  0  0  0  0  0  0
   25.8697  -21.7851  -16.0872 O   0  0  0  0  0  0  0  0  0  0  0  0
   24.9859  -20.7343   -7.2266 N   0  0  0  0  0  0  0  0  0  0  0  0
   23.7954  -21.1474   -7.8795 C   0  0  0  0  0  0  0  0  0  0  0  0
   22.7210  -21.2337   -7.1871 N   0  0  0  0  0  0  0  0  0  0  0  0
   23.7622  -21.4623   -9.2499 N   0  0  0  0  0  0  0  0  0  0  0  0
   24.9295  -21.2590  -10.1003 C   0  0  0  0  0  0  0  0  0  0  0  0
   24.6153  -20.3068  -11.2280 C   0  0  0  0  0  0  0  0  0  0  0  0
   25.8712  -20.2342  -12.0966 C   0  0  0  0  0  0  0  0  0  0  0  0
   25.6041  -20.6333  -13.5067 C   0  0  2  0  0  0  0  0  0  0  0  0
   26.6312  -20.4117  -14.4415 N   0  0  0  0  0  0  0  0  0  0  0  0
   24.3848  -19.9150  -13.9562 C   0  0  0  0  0  0  0  0  0  0  0  0
   24.3644  -18.6591  -13.8922 O   0  0  0  0  0  0  0  0  0  0  0  0
   21.7868  -21.5065   -7.5546 N   0  0  0  0  0  0  0  0  0  0  0  0
   23.2385  -20.6011  -14.4567 C   0  0  2  0  0  0  0  0  0  0  0  0
   22.0179  -19.9430  -14.8377 C   0  0  0  0  0  0  0  0  0  0  0  0
   21.5969  -20.3438  -16.2165 C   0  0  0  0  0  0  0  0  0  0  0  0
   20.3964  -19.6694  -16.7096 O   0  0  0  0  0  0  0  0  0  0  0  0
   19.8663  -18.7953  -15.9770 C   0  0  0  0  0  0  0  0  0  0  0  0
   20.9432  -20.0997  -13.8351 O   0  0  0  0  0  0  0  0  0  0  0  0
   20.1861  -18.9732  -13.5396 O   0  0  0  0  0  0  0  0  0  0  0  0
   19.7782  -19.9076  -17.9286 O   0  0  0  0  0  0  0  0  0  0  0  0
  2  3  2  0
  2  1  1  0
  4  2  1  0
  5  6  1  6
  5  4  1  0
  7  5  1  0
  8  7  2  0
 10  9  1  0
 10 12  1  0
 11 10  2  0
 12 13  1  0
 13 14  1  0
 16 15  1  1
 15 14  1  0
 16 17  1  0
 17  7  1  0
 18 20  1  0
 18 16  1  0
 19 18  2  0
 21 25  1  0
 21 20  1  0
 21 22  1  6
 23 22  1  0
 24 23  2  0
 25 26  1  0
 27 23  1  0
 28 25  2  0
M  END
$$$$
