NRD.pdb
     RDKit          3D

 28 27  0  0  1  0  0  0  0  0999 V2000
   27.4121  -24.6448  -17.3934 N   0  0  0  0  0  0  0  0  0  0  0  0
   26.7649  -25.7776  -17.9431 C   0  0  0  0  0  0  0  0  0  0  0  0
   27.3790  -26.4721  -18.7887 O   0  0  0  0  0  0  0  0  0  0  0  0
   25.4023  -26.1477  -17.5433 C   0  0  0  0  0  0  0  0  0  0  0  0
   24.9719  -25.2816  -16.3777 C   0  0  2  0  0  0  0  0  0  0  0  0
   25.7447  -25.6211  -15.1935 N   0  0  0  0  0  0  0  0  0  0  0  0
   23.5449  -25.4486  -16.0618 C   0  0  0  0  0  0  0  0  0  0  0  0
   22.6639  -25.3906  -16.9514 O   0  0  0  0  0  0  0  0  0  0  0  0
   19.3238  -28.7917   -8.8755 N   0  0  0  0  0  0  0  0  0  0  0  0
   18.3350  -28.1183   -9.6390 C   0  0  0  0  0  0  0  0  0  0  0  0
   17.1137  -28.2022   -9.2611 N   0  0  0  0  0  0  0  0  0  0  0  0
   18.6539  -27.3706  -10.7867 N   0  0  0  0  0  0  0  0  0  0  0  0
   20.0325  -27.2409  -11.2448 C   0  0  0  0  0  0  0  0  0  0  0  0
   20.0910  -26.5654  -12.5930 C   0  0  0  0  0  0  0  0  0  0  0  0
   21.5706  -26.4656  -12.9639 C   0  0  0  0  0  0  0  0  0  0  0  0
   21.7758  -25.8253  -14.2931 C   0  0  2  0  0  0  0  0  0  0  0  0
   23.1022  -25.6826  -14.7385 N   0  0  0  0  0  0  0  0  0  0  0  0
   21.1380  -24.4851  -14.2521 C   0  0  0  0  0  0  0  0  0  0  0  0
   21.7191  -23.5573  -13.6330 O   0  0  0  0  0  0  0  0  0  0  0  0
   16.3043  -27.7480   -9.7309 N   0  0  0  0  0  0  0  0  0  0  0  0
   19.8906  -24.2161  -14.8900 C   0  0  2  0  0  0  0  0  0  0  0  0
   19.2290  -22.9402  -14.8430 C   0  0  0  0  0  0  0  0  0  0  0  0
   19.0306  -22.3846  -16.2181 C   0  0  0  0  0  0  0  0  0  0  0  0
   18.2833  -21.1283  -16.2681 O   0  0  0  0  0  0  0  0  0  0  0  0
   18.4422  -20.3081  -15.3280 C   0  0  0  0  0  0  0  0  0  0  0  0
   17.9861  -22.9663  -14.0435 O   0  0  0  0  0  0  0  0  0  0  0  0
   17.5755  -24.2000  -13.5546 O   0  0  0  0  0  0  0  0  0  0  0  0
   17.4020  -20.7511  -17.2710 O   0  0  0  0  0  0  0  0  0  0  0  0
  2  3  2  0
  2  1  1  0
  4  2  1  0
  5  6  1  1
  5  4  1  0
  7  5  1  0
  8  7  2  0
 10  9  1  0
 10 12  1  0
 11 10  2  0
 12 13  1  0
 13 14  1  0
 16 15  1  1
 15 14  1  0
 16 17  1  0
 17  7  1  0
 18 20  1  0
 18 16  1  0
 19 18  2  0
 21 25  1  0
 21 20  1  0
 21 22  1  6
 23 22  1  0
 24 23  2  0
 25 26  1  0
 27 23  1  0
 28 25  2  0
M  END
$$$$
