VYH.pdb
     RDKit          3D

 30 31  0  0  1  0  0  0  0  0999 V2000
    6.7196  -14.2907   18.3872 C   0  0  0  0  0  0  0  0  0  0  0  0
    7.6217  -14.5986   19.5931 C   0  0  2  0  0  0  0  0  0  0  0  0
    7.1285  -15.9020   20.1565 C   0  0  0  0  0  0  0  0  0  0  0  0
    7.4191  -13.4343   20.5406 C   0  0  2  0  0  0  0  0  0  0  0  0
    8.0327  -12.2828   19.8487 N   0  0  0  0  0  0  0  0  0  0  0  0
    8.1253  -13.5877   21.8247 C   0  0  0  0  0  0  0  0  0  0  0  0
    9.3649  -13.4403   21.8537 O   0  0  0  0  0  0  0  0  0  0  0  0
   10.1640  -15.1584   30.3338 O   0  0  0  0  0  0  0  0  0  0  0  0
    9.5027  -14.8031   29.1705 C   0  0  0  0  0  0  0  0  0  0  0  0
    8.6326  -15.6623   28.5368 C   0  0  0  0  0  0  0  0  0  0  0  0
    7.9754  -15.3139   27.3838 C   0  0  0  0  0  0  0  0  0  0  0  0
    8.1582  -14.0570   26.7892 C   0  0  0  0  0  0  0  0  0  0  0  0
    7.4085  -13.7248   25.5397 C   0  0  0  0  0  0  0  0  0  0  0  0
    8.1197  -14.2198   24.2901 C   0  0  2  0  0  0  0  0  0  0  0  0
    7.4855  -13.8969   23.0595 N   0  0  0  0  0  0  0  0  0  0  0  0
    8.6228  -15.5966   24.4086 C   0  0  0  0  0  0  0  0  0  0  0  0
    7.8292  -16.5708   24.4763 O   0  0  0  0  0  0  0  0  0  0  0  0
    9.0262  -13.2104   27.4291 C   0  0  0  0  0  0  0  0  0  0  0  0
    9.6942  -13.5683   28.6034 C   0  0  0  0  0  0  0  0  0  0  0  0
   10.0091  -15.9224   24.4543 N   0  0  0  0  0  0  0  0  0  0  0  0
   10.4990  -17.2566   24.6995 C   0  0  1  0  0  0  0  0  0  0  0  0
   11.5892  -17.5643   23.6868 C   0  0  0  0  0  0  0  0  0  0  0  0
   11.0192  -17.5942   22.3114 C   0  0  0  0  0  0  0  0  0  0  0  0
   10.9170  -16.5355   21.4307 C   0  0  0  0  0  0  0  0  0  0  0  0
   10.3432  -17.0076   20.3096 N   0  0  0  0  0  0  0  0  0  0  0  0
   10.0841  -18.3308   20.4649 C   0  0  0  0  0  0  0  0  0  0  0  0
   10.5003  -18.6729   21.6861 N   0  0  0  0  0  0  0  0  0  0  0  0
   11.0274  -17.4163   26.0619 C   0  0  0  0  0  0  0  0  0  0  0  0
   10.9873  -16.4515   26.8660 O   0  0  0  0  0  0  0  0  0  0  0  0
   11.5767  -18.6006   26.5078 O   0  0  0  0  0  0  0  0  0  0  0  0
  2  4  1  0
  2  3  1  1
  2  1  1  0
  4  5  1  6
  6  4  1  0
  6  7  2  0
  8  9  1  0
  9 19  2  0
  9 10  1  0
 10 11  2  0
 11 12  1  0
 12 13  1  0
 14 13  1  1
 14 15  1  0
 15  6  1  0
 16 14  1  0
 16 20  1  0
 17 16  2  0
 18 12  2  0
 19 18  1  0
 21 20  1  0
 21 28  1  0
 22 23  1  0
 21 22  1  6
 23 27  1  0
 24 25  1  0
 24 23  2  0
 25 26  1  0
 26 27  2  0
 28 29  2  0
 28 30  1  0
M  END
$$$$
