VYH.pdb
     RDKit          3D

 30 31  0  0  1  0  0  0  0  0999 V2000
    6.8329  -14.4528   18.2005 C   0  0  0  0  0  0  0  0  0  0  0  0
    7.5689  -14.8601   19.4870 C   0  0  2  0  0  0  0  0  0  0  0  0
    6.8034  -16.0245   20.0506 C   0  0  0  0  0  0  0  0  0  0  0  0
    7.5124  -13.6341   20.3749 C   0  0  2  0  0  0  0  0  0  0  0  0
    8.2719  -12.6059   19.6351 N   0  0  0  0  0  0  0  0  0  0  0  0
    8.1868  -13.8129   21.6728 C   0  0  0  0  0  0  0  0  0  0  0  0
    9.4341  -13.8605   21.7039 O   0  0  0  0  0  0  0  0  0  0  0  0
    9.8750  -14.8541   30.3524 O   0  0  0  0  0  0  0  0  0  0  0  0
    9.2659  -14.5526   29.1462 C   0  0  0  0  0  0  0  0  0  0  0  0
    8.3827  -15.4185   28.5406 C   0  0  0  0  0  0  0  0  0  0  0  0
    7.7772  -15.1234   27.3452 C   0  0  0  0  0  0  0  0  0  0  0  0
    8.0293  -13.9169   26.6761 C   0  0  0  0  0  0  0  0  0  0  0  0
    7.3338  -13.6408   25.3823 C   0  0  0  0  0  0  0  0  0  0  0  0
    8.0948  -14.1936   24.1876 C   0  0  2  0  0  0  0  0  0  0  0  0
    7.5073  -13.9370   22.9188 N   0  0  0  0  0  0  0  0  0  0  0  0
    8.5989  -15.5595   24.3947 C   0  0  0  0  0  0  0  0  0  0  0  0
    7.8071  -16.5328   24.4903 O   0  0  0  0  0  0  0  0  0  0  0  0
    8.9097  -13.0630   27.2886 C   0  0  0  0  0  0  0  0  0  0  0  0
    9.5249  -13.3666   28.5062 C   0  0  0  0  0  0  0  0  0  0  0  0
    9.9843  -15.8753   24.4999 N   0  0  0  0  0  0  0  0  0  0  0  0
   10.4761  -17.2183   24.6859 C   0  0  1  0  0  0  0  0  0  0  0  0
   11.7280  -17.3950   23.8430 C   0  0  0  0  0  0  0  0  0  0  0  0
   11.3716  -17.4467   22.3981 C   0  0  0  0  0  0  0  0  0  0  0  0
   10.1526  -17.8012   21.8548 C   0  0  0  0  0  0  0  0  0  0  0  0
   10.2736  -17.7098   20.5184 N   0  0  0  0  0  0  0  0  0  0  0  0
   11.5334  -17.3085   20.2115 C   0  0  0  0  0  0  0  0  0  0  0  0
   12.1887  -17.1527   21.3638 N   0  0  0  0  0  0  0  0  0  0  0  0
   10.7797  -17.5124   26.0937 C   0  0  0  0  0  0  0  0  0  0  0  0
   10.5925  -16.6328   26.9714 O   0  0  0  0  0  0  0  0  0  0  0  0
   11.2708  -18.7343   26.5046 O   0  0  0  0  0  0  0  0  0  0  0  0
  2  4  1  0
  2  3  1  1
  2  1  1  0
  4  5  1  6
  6  4  1  0
  6  7  2  0
  8  9  1  0
  9 19  2  0
  9 10  1  0
 10 11  2  0
 11 12  1  0
 12 13  1  0
 14 13  1  1
 14 15  1  0
 15  6  1  0
 16 14  1  0
 16 20  1  0
 17 16  2  0
 18 12  2  0
 19 18  1  0
 21 20  1  0
 21 28  1  0
 22 23  1  0
 21 22  1  6
 23 27  1  0
 24 25  1  0
 24 23  2  0
 25 26  1  0
 26 27  2  0
 28 29  2  0
 28 30  1  0
M  END
$$$$
