VYH.pdb
     RDKit          3D

 30 31  0  0  1  0  0  0  0  0999 V2000
    8.3533  -19.1209   17.8181 C   0  0  0  0  0  0  0  0  0  0  0  0
    8.5910  -18.6083   19.2476 C   0  0  2  0  0  0  0  0  0  0  0  0
    7.3447  -18.9417   20.0191 C   0  0  0  0  0  0  0  0  0  0  0  0
    8.8081  -17.1168   19.0973 C   0  0  2  0  0  0  0  0  0  0  0  0
   10.0577  -17.0012   18.3187 N   0  0  0  0  0  0  0  0  0  0  0  0
    9.0351  -16.4209   20.3762 C   0  0  0  0  0  0  0  0  0  0  0  0
   10.1485  -16.5257   20.9316 O   0  0  0  0  0  0  0  0  0  0  0  0
    7.3811  -12.3294   28.1396 O   0  0  0  0  0  0  0  0  0  0  0  0
    7.3284  -12.7315   26.8158 C   0  0  0  0  0  0  0  0  0  0  0  0
    6.4681  -13.7186   26.3889 C   0  0  0  0  0  0  0  0  0  0  0  0
    6.4130  -14.1200   25.0779 C   0  0  0  0  0  0  0  0  0  0  0  0
    7.2357  -13.5410   24.1009 C   0  0  0  0  0  0  0  0  0  0  0  0
    7.1268  -14.0076   22.6852 C   0  0  0  0  0  0  0  0  0  0  0  0
    8.1446  -15.0872   22.3526 C   0  0  2  0  0  0  0  0  0  0  0  0
    8.0592  -15.6213   21.0379 N   0  0  0  0  0  0  0  0  0  0  0  0
    8.3311  -16.0693   23.4312 C   0  0  0  0  0  0  0  0  0  0  0  0
    7.4630  -16.9513   23.6590 O   0  0  0  0  0  0  0  0  0  0  0  0
    8.0875  -12.5595   24.5375 C   0  0  0  0  0  0  0  0  0  0  0  0
    8.1412  -12.1531   25.8736 C   0  0  0  0  0  0  0  0  0  0  0  0
    9.4777  -16.0955   24.2766 N   0  0  0  0  0  0  0  0  0  0  0  0
    9.7497  -17.1649   25.2053 C   0  0  1  0  0  0  0  0  0  0  0  0
   10.8889  -18.0055   24.6534 C   0  0  0  0  0  0  0  0  0  0  0  0
   11.2555  -19.0742   25.6233 C   0  0  0  0  0  0  0  0  0  0  0  0
   11.7060  -18.9035   26.9174 C   0  0  0  0  0  0  0  0  0  0  0  0
   11.9153  -20.1300   27.4285 N   0  0  0  0  0  0  0  0  0  0  0  0
   11.6083  -21.0618   26.4905 C   0  0  0  0  0  0  0  0  0  0  0  0
   11.2090  -20.4052   25.3991 N   0  0  0  0  0  0  0  0  0  0  0  0
   10.1023  -16.6675   26.5428 C   0  0  0  0  0  0  0  0  0  0  0  0
   10.5306  -15.4944   26.6816 O   0  0  0  0  0  0  0  0  0  0  0  0
    9.9825  -17.4449   27.6762 O   0  0  0  0  0  0  0  0  0  0  0  0
  2  4  1  0
  2  3  1  1
  2  1  1  0
  4  5  1  6
  6  4  1  0
  6  7  2  0
  8  9  1  0
  9 19  2  0
  9 10  1  0
 10 11  2  0
 11 12  1  0
 12 13  1  0
 14 13  1  1
 14 15  1  0
 15  6  1  0
 16 14  1  0
 16 20  1  0
 17 16  2  0
 18 12  2  0
 19 18  1  0
 21 20  1  0
 21 28  1  0
 22 23  1  0
 21 22  1  6
 23 27  1  0
 24 25  1  0
 24 23  2  0
 25 26  1  0
 26 27  2  0
 28 29  2  0
 28 30  1  0
M  END
$$$$
