VYH.pdb
     RDKit          3D

 30 31  0  0  1  0  0  0  0  0999 V2000
    9.3713  -19.2685   20.9021 C   0  0  0  0  0  0  0  0  0  0  0  0
    7.8976  -18.9296   20.6263 C   0  0  2  0  0  0  0  0  0  0  0  0
    7.4783  -19.8085   19.4812 C   0  0  0  0  0  0  0  0  0  0  0  0
    7.8949  -17.4575   20.2693 C   0  0  2  0  0  0  0  0  0  0  0  0
    8.9097  -17.3333   19.2035 N   0  0  0  0  0  0  0  0  0  0  0  0
    8.3244  -16.5810   21.3731 C   0  0  0  0  0  0  0  0  0  0  0  0
    9.4874  -16.1265   21.3661 O   0  0  0  0  0  0  0  0  0  0  0  0
    8.5117  -11.9301   28.9839 O   0  0  0  0  0  0  0  0  0  0  0  0
    8.0831  -12.6693   27.8946 C   0  0  0  0  0  0  0  0  0  0  0  0
    7.9325  -14.0369   27.9572 C   0  0  0  0  0  0  0  0  0  0  0  0
    7.5082  -14.7730   26.8798 C   0  0  0  0  0  0  0  0  0  0  0  0
    7.2048  -14.1653   25.6529 C   0  0  0  0  0  0  0  0  0  0  0  0
    6.7355  -15.0130   24.5149 C   0  0  0  0  0  0  0  0  0  0  0  0
    7.8751  -15.4375   23.6021 C   0  0  2  0  0  0  0  0  0  0  0  0
    7.4942  -16.2060   22.4685 N   0  0  0  0  0  0  0  0  0  0  0  0
    9.0617  -15.9139   24.3286 C   0  0  0  0  0  0  0  0  0  0  0  0
    9.8185  -15.1076   24.9291 O   0  0  0  0  0  0  0  0  0  0  0  0
    7.3582  -12.8039   25.6027 C   0  0  0  0  0  0  0  0  0  0  0  0
    7.7907  -12.0569   26.7019 C   0  0  0  0  0  0  0  0  0  0  0  0
    9.4338  -17.2871   24.4053 N   0  0  0  0  0  0  0  0  0  0  0  0
   10.5801  -17.7544   25.1453 C   0  0  1  0  0  0  0  0  0  0  0  0
   11.6960  -16.7331   25.0024 C   0  0  0  0  0  0  0  0  0  0  0  0
   12.2785  -16.7966   23.6334 C   0  0  0  0  0  0  0  0  0  0  0  0
   11.8511  -17.5858   22.5840 C   0  0  0  0  0  0  0  0  0  0  0  0
   12.6583  -17.3267   21.5398 N   0  0  0  0  0  0  0  0  0  0  0  0
   13.5777  -16.3982   21.9072 C   0  0  0  0  0  0  0  0  0  0  0  0
   13.3342  -16.0858   23.1818 N   0  0  0  0  0  0  0  0  0  0  0  0
   10.2787  -17.9647   26.5686 C   0  0  0  0  0  0  0  0  0  0  0  0
    9.1066  -17.8017   26.9910 O   0  0  0  0  0  0  0  0  0  0  0  0
   11.2429  -18.3405   27.4809 O   0  0  0  0  0  0  0  0  0  0  0  0
  2  4  1  0
  2  3  1  6
  2  1  1  0
  4  5  1  6
  6  4  1  0
  6  7  2  0
  8  9  1  0
  9 19  2  0
  9 10  1  0
 10 11  2  0
 11 12  1  0
 12 13  1  0
 14 13  1  1
 14 15  1  0
 15  6  1  0
 16 14  1  0
 16 20  1  0
 17 16  2  0
 18 12  2  0
 19 18  1  0
 21 20  1  0
 21 28  1  0
 22 23  1  0
 21 22  1  1
 23 27  1  0
 24 25  1  0
 24 23  2  0
 25 26  1  0
 26 27  2  0
 28 29  2  0
 28 30  1  0
M  END
$$$$
