VYH.pdb
     RDKit          3D

 30 31  0  0  1  0  0  0  0  0999 V2000
    9.0834  -15.9568   19.9039 C   0  0  0  0  0  0  0  0  0  0  0  0
    7.5716  -16.0748   20.1553 C   0  0  2  0  0  0  0  0  0  0  0  0
    6.9181  -15.9651   18.8061 C   0  0  0  0  0  0  0  0  0  0  0  0
    7.2350  -14.9136   21.0678 C   0  0  2  0  0  0  0  0  0  0  0  0
    7.7598  -13.7258   20.3643 N   0  0  0  0  0  0  0  0  0  0  0  0
    7.9147  -14.9721   22.3739 C   0  0  0  0  0  0  0  0  0  0  0  0
    9.0144  -14.3961   22.5090 O   0  0  0  0  0  0  0  0  0  0  0  0
    6.8364   -9.8480   26.7667 O   0  0  0  0  0  0  0  0  0  0  0  0
    6.9229  -11.2164   26.5749 C   0  0  0  0  0  0  0  0  0  0  0  0
    8.1218  -11.8888   26.6610 C   0  0  0  0  0  0  0  0  0  0  0  0
    8.2117  -13.2448   26.4715 C   0  0  0  0  0  0  0  0  0  0  0  0
    7.0795  -14.0188   26.1786 C   0  0  0  0  0  0  0  0  0  0  0  0
    7.2320  -15.4939   25.9929 C   0  0  0  0  0  0  0  0  0  0  0  0
    8.0561  -15.8394   24.7626 C   0  0  2  0  0  0  0  0  0  0  0  0
    7.3993  -15.6499   23.5161 N   0  0  0  0  0  0  0  0  0  0  0  0
    8.8192  -17.0890   24.9001 C   0  0  0  0  0  0  0  0  0  0  0  0
    8.2450  -18.2069   24.8374 O   0  0  0  0  0  0  0  0  0  0  0  0
    5.8921  -13.3387   26.0957 C   0  0  0  0  0  0  0  0  0  0  0  0
    5.8038  -11.9574   26.2892 C   0  0  0  0  0  0  0  0  0  0  0  0
   10.2281  -17.1270   25.1091 N   0  0  0  0  0  0  0  0  0  0  0  0
   10.9604  -18.3492   25.3330 C   0  0  1  0  0  0  0  0  0  0  0  0
   12.4068  -18.1273   24.9234 C   0  0  0  0  0  0  0  0  0  0  0  0
   12.4807  -17.7442   23.4863 C   0  0  0  0  0  0  0  0  0  0  0  0
   11.7555  -18.2854   22.4433 C   0  0  0  0  0  0  0  0  0  0  0  0
   12.1367  -17.6463   21.3229 N   0  0  0  0  0  0  0  0  0  0  0  0
   13.0794  -16.7214   21.6363 C   0  0  0  0  0  0  0  0  0  0  0  0
   13.2779  -16.7926   22.9543 N   0  0  0  0  0  0  0  0  0  0  0  0
   10.9030  -18.7862   26.7353 C   0  0  0  0  0  0  0  0  0  0  0  0
   10.2793  -18.0969   27.5808 O   0  0  0  0  0  0  0  0  0  0  0  0
   11.5147  -19.9418   27.1754 O   0  0  0  0  0  0  0  0  0  0  0  0
  2  4  1  0
  2  3  1  6
  2  1  1  0
  4  5  1  6
  6  4  1  0
  6  7  2  0
  8  9  1  0
  9 19  2  0
  9 10  1  0
 10 11  2  0
 11 12  1  0
 12 13  1  0
 14 13  1  1
 14 15  1  0
 15  6  1  0
 16 14  1  0
 16 20  1  0
 17 16  2  0
 18 12  2  0
 19 18  1  0
 21 20  1  0
 21 28  1  0
 22 23  1  0
 21 22  1  1
 23 27  1  0
 24 25  1  0
 24 23  2  0
 25 26  1  0
 26 27  2  0
 28 29  2  0
 28 30  1  0
M  END
$$$$
