VYH.pdb
     RDKit          3D

 30 31  0  0  1  0  0  0  0  0999 V2000
    7.9385  -17.2158   19.3506 C   0  0  0  0  0  0  0  0  0  0  0  0
    8.3932  -17.4013   20.8071 C   0  0  2  0  0  0  0  0  0  0  0  0
    7.6093  -18.5681   21.3397 C   0  0  0  0  0  0  0  0  0  0  0  0
    8.0462  -16.0969   21.4945 C   0  0  2  0  0  0  0  0  0  0  0  0
    8.8601  -15.0821   20.7953 N   0  0  0  0  0  0  0  0  0  0  0  0
    8.4375  -16.0549   22.9144 C   0  0  0  0  0  0  0  0  0  0  0  0
    9.6346  -15.8512   23.2054 O   0  0  0  0  0  0  0  0  0  0  0  0
    7.0493   -9.9424   26.2548 O   0  0  0  0  0  0  0  0  0  0  0  0
    7.0123  -11.3262   26.2759 C   0  0  0  0  0  0  0  0  0  0  0  0
    5.8421  -12.0257   26.0807 C   0  0  0  0  0  0  0  0  0  0  0  0
    5.8013  -13.3971   26.1010 C   0  0  0  0  0  0  0  0  0  0  0  0
    6.9570  -14.1598   26.3229 C   0  0  0  0  0  0  0  0  0  0  0  0
    6.8583  -15.6512   26.3233 C   0  0  0  0  0  0  0  0  0  0  0  0
    7.8628  -16.2970   25.3821 C   0  0  2  0  0  0  0  0  0  0  0  0
    7.5330  -16.2322   24.0008 N   0  0  0  0  0  0  0  0  0  0  0  0
    8.3638  -17.5945   25.8600 C   0  0  0  0  0  0  0  0  0  0  0  0
    7.5947  -18.5848   25.9655 O   0  0  0  0  0  0  0  0  0  0  0  0
    8.1156  -13.4526   26.5155 C   0  0  0  0  0  0  0  0  0  0  0  0
    8.1538  -12.0557   26.4945 C   0  0  0  0  0  0  0  0  0  0  0  0
    9.7209  -17.8219   26.2295 N   0  0  0  0  0  0  0  0  0  0  0  0
   10.1753  -19.0388   26.8561 C   0  0  1  0  0  0  0  0  0  0  0  0
   11.5433  -19.3891   26.2949 C   0  0  0  0  0  0  0  0  0  0  0  0
   11.4226  -19.8082   24.8711 C   0  0  0  0  0  0  0  0  0  0  0  0
   10.2614  -19.9140   24.1313 C   0  0  0  0  0  0  0  0  0  0  0  0
   10.6133  -20.3231   22.8992 N   0  0  0  0  0  0  0  0  0  0  0  0
   11.9610  -20.4758   22.8485 C   0  0  0  0  0  0  0  0  0  0  0  0
   12.4388  -20.1593   24.0539 N   0  0  0  0  0  0  0  0  0  0  0  0
   10.2548  -18.9184   28.3190 C   0  0  0  0  0  0  0  0  0  0  0  0
   10.0743  -17.8015   28.8658 O   0  0  0  0  0  0  0  0  0  0  0  0
   10.5238  -19.9968   29.1362 O   0  0  0  0  0  0  0  0  0  0  0  0
  2  4  1  0
  2  3  1  1
  2  1  1  0
  4  5  1  6
  6  4  1  0
  6  7  2  0
  8  9  1  0
  9 19  2  0
  9 10  1  0
 10 11  2  0
 11 12  1  0
 12 13  1  0
 14 13  1  1
 14 15  1  0
 15  6  1  0
 16 14  1  0
 16 20  1  0
 17 16  2  0
 18 12  2  0
 19 18  1  0
 21 20  1  0
 21 28  1  0
 22 23  1  0
 21 22  1  6
 23 27  1  0
 24 25  1  0
 24 23  2  0
 25 26  1  0
 26 27  2  0
 28 29  2  0
 28 30  1  0
M  END
$$$$
