VYH.pdb
     RDKit          3D

 30 31  0  0  1  0  0  0  0  0999 V2000
    8.1925  -15.7189   19.4122 C   0  0  0  0  0  0  0  0  0  0  0  0
    7.0339  -14.7936   19.8172 C   0  0  2  0  0  0  0  0  0  0  0  0
    6.3483  -14.4047   18.5372 C   0  0  0  0  0  0  0  0  0  0  0  0
    7.6945  -13.6200   20.5104 C   0  0  2  0  0  0  0  0  0  0  0  0
    8.7316  -13.1658   19.5621 N   0  0  0  0  0  0  0  0  0  0  0  0
    8.3869  -13.9846   21.7590 C   0  0  0  0  0  0  0  0  0  0  0  0
    9.5826  -14.3403   21.7050 O   0  0  0  0  0  0  0  0  0  0  0  0
   10.6340  -14.9582   30.2833 O   0  0  0  0  0  0  0  0  0  0  0  0
    9.9104  -14.6921   29.1334 C   0  0  0  0  0  0  0  0  0  0  0  0
   10.0467  -13.5065   28.4460 C   0  0  0  0  0  0  0  0  0  0  0  0
    9.3312  -13.2390   27.3061 C   0  0  0  0  0  0  0  0  0  0  0  0
    8.4193  -14.1659   26.7808 C   0  0  0  0  0  0  0  0  0  0  0  0
    7.6746  -13.8284   25.5298 C   0  0  0  0  0  0  0  0  0  0  0  0
    8.3870  -14.3245   24.2814 C   0  0  2  0  0  0  0  0  0  0  0  0
    7.7810  -13.9599   23.0482 N   0  0  0  0  0  0  0  0  0  0  0  0
    8.8439  -15.7187   24.3822 C   0  0  0  0  0  0  0  0  0  0  0  0
    8.0208  -16.6704   24.3738 O   0  0  0  0  0  0  0  0  0  0  0  0
    8.2925  -15.3423   27.4733 C   0  0  0  0  0  0  0  0  0  0  0  0
    9.0226  -15.6117   28.6342 C   0  0  0  0  0  0  0  0  0  0  0  0
   10.2158  -16.0869   24.4938 N   0  0  0  0  0  0  0  0  0  0  0  0
   10.6549  -17.4469   24.6884 C   0  0  1  0  0  0  0  0  0  0  0  0
   11.8756  -17.6894   23.8167 C   0  0  0  0  0  0  0  0  0  0  0  0
   11.4963  -17.6444   22.3774 C   0  0  0  0  0  0  0  0  0  0  0  0
   10.3165  -18.0893   21.8144 C   0  0  0  0  0  0  0  0  0  0  0  0
   10.3965  -17.8559   20.4922 N   0  0  0  0  0  0  0  0  0  0  0  0
   11.5925  -17.2779   20.2134 C   0  0  0  0  0  0  0  0  0  0  0  0
   12.2497  -17.1559   21.3687 N   0  0  0  0  0  0  0  0  0  0  0  0
   10.9827  -17.7328   26.0925 C   0  0  0  0  0  0  0  0  0  0  0  0
   10.8625  -16.8312   26.9596 O   0  0  0  0  0  0  0  0  0  0  0  0
   11.4253  -18.9705   26.5113 O   0  0  0  0  0  0  0  0  0  0  0  0
  2  4  1  0
  2  3  1  6
  2  1  1  0
  4  5  1  6
  6  4  1  0
  6  7  2  0
  8  9  1  0
  9 19  2  0
  9 10  1  0
 10 11  2  0
 11 12  1  0
 12 13  1  0
 14 13  1  1
 14 15  1  0
 15  6  1  0
 16 14  1  0
 16 20  1  0
 17 16  2  0
 18 12  2  0
 19 18  1  0
 21 20  1  0
 21 28  1  0
 22 23  1  0
 21 22  1  6
 23 27  1  0
 24 25  1  0
 24 23  2  0
 25 26  1  0
 26 27  2  0
 28 29  2  0
 28 30  1  0
M  END
$$$$
