VYH.pdb
     RDKit          3D

 30 31  0  0  1  0  0  0  0  0999 V2000
    8.0670  -20.2457   19.2766 C   0  0  0  0  0  0  0  0  0  0  0  0
    8.4254  -19.4321   20.5305 C   0  0  2  0  0  0  0  0  0  0  0  0
    7.4302  -19.8341   21.5829 C   0  0  0  0  0  0  0  0  0  0  0  0
    8.2845  -17.9836   20.1106 C   0  0  2  0  0  0  0  0  0  0  0  0
    9.3472  -17.7848   19.1044 N   0  0  0  0  0  0  0  0  0  0  0  0
    8.5419  -17.0250   21.1996 C   0  0  0  0  0  0  0  0  0  0  0  0
    9.7216  -16.8060   21.5454 O   0  0  0  0  0  0  0  0  0  0  0  0
    7.2212  -11.5735   28.1516 O   0  0  0  0  0  0  0  0  0  0  0  0
    7.0925  -12.2512   26.9512 C   0  0  0  0  0  0  0  0  0  0  0  0
    6.3042  -13.3740   26.8305 C   0  0  0  0  0  0  0  0  0  0  0  0
    6.1743  -14.0485   25.6426 C   0  0  0  0  0  0  0  0  0  0  0  0
    6.8424  -13.6251   24.4845 C   0  0  0  0  0  0  0  0  0  0  0  0
    6.6565  -14.3899   23.2140 C   0  0  0  0  0  0  0  0  0  0  0  0
    7.6958  -15.4865   23.0422 C   0  0  2  0  0  0  0  0  0  0  0  0
    7.5243  -16.3153   21.9000 N   0  0  0  0  0  0  0  0  0  0  0  0
    8.0252  -16.1833   24.2946 C   0  0  0  0  0  0  0  0  0  0  0  0
    7.1953  -16.9545   24.8424 O   0  0  0  0  0  0  0  0  0  0  0  0
    7.6237  -12.5064   24.6169 C   0  0  0  0  0  0  0  0  0  0  0  0
    7.7541  -11.8217   25.8283 C   0  0  0  0  0  0  0  0  0  0  0  0
    9.2749  -16.0417   24.9641 N   0  0  0  0  0  0  0  0  0  0  0  0
    9.7250  -16.9441   25.9953 C   0  0  1  0  0  0  0  0  0  0  0  0
    9.9047  -18.3238   25.3846 C   0  0  0  0  0  0  0  0  0  0  0  0
    8.7687  -19.2072   25.7676 C   0  0  0  0  0  0  0  0  0  0  0  0
    7.7362  -18.9053   26.6334 C   0  0  0  0  0  0  0  0  0  0  0  0
    6.9370  -19.9857   26.6878 N   0  0  0  0  0  0  0  0  0  0  0  0
    7.4408  -20.9537   25.8808 C   0  0  0  0  0  0  0  0  0  0  0  0
    8.5538  -20.4660   25.3285 N   0  0  0  0  0  0  0  0  0  0  0  0
   10.9857  -16.5054   26.6107 C   0  0  0  0  0  0  0  0  0  0  0  0
   11.6037  -15.5191   26.1369 O   0  0  0  0  0  0  0  0  0  0  0  0
   11.5334  -17.1392   27.7068 O   0  0  0  0  0  0  0  0  0  0  0  0
  2  4  1  0
  2  3  1  1
  2  1  1  0
  4  5  1  6
  6  4  1  0
  6  7  2  0
  8  9  1  0
  9 19  2  0
  9 10  1  0
 10 11  2  0
 11 12  1  0
 12 13  1  0
 14 13  1  1
 14 15  1  0
 15  6  1  0
 16 14  1  0
 16 20  1  0
 17 16  2  0
 18 12  2  0
 19 18  1  0
 21 20  1  0
 21 28  1  0
 22 23  1  0
 21 22  1  6
 23 27  1  0
 24 25  1  0
 24 23  2  0
 25 26  1  0
 26 27  2  0
 28 29  2  0
 28 30  1  0
M  END
$$$$
