VYH.pdb
     RDKit          3D

 30 31  0  0  1  0  0  0  0  0999 V2000
    9.3890  -19.0425   20.0745 C   0  0  0  0  0  0  0  0  0  0  0  0
    8.3358  -18.1420   19.4094 C   0  0  2  0  0  0  0  0  0  0  0  0
    8.0954  -18.7249   18.0448 C   0  0  0  0  0  0  0  0  0  0  0  0
    8.9717  -16.7682   19.3583 C   0  0  2  0  0  0  0  0  0  0  0  0
   10.3358  -17.0105   18.8465 N   0  0  0  0  0  0  0  0  0  0  0  0
    9.1174  -16.1349   20.6808 C   0  0  0  0  0  0  0  0  0  0  0  0
   10.2230  -16.1902   21.2586 O   0  0  0  0  0  0  0  0  0  0  0  0
    7.1142  -12.2487   28.4739 O   0  0  0  0  0  0  0  0  0  0  0  0
    7.0929  -12.6544   27.1504 C   0  0  0  0  0  0  0  0  0  0  0  0
    6.2818  -13.6794   26.7165 C   0  0  0  0  0  0  0  0  0  0  0  0
    6.2581  -14.0844   25.4057 C   0  0  0  0  0  0  0  0  0  0  0  0
    7.0640  -13.4705   24.4360 C   0  0  0  0  0  0  0  0  0  0  0  0
    6.9904  -13.9433   23.0201 C   0  0  0  0  0  0  0  0  0  0  0  0
    8.1242  -14.8935   22.6684 C   0  0  2  0  0  0  0  0  0  0  0  0
    8.0697  -15.4503   21.3615 N   0  0  0  0  0  0  0  0  0  0  0  0
    8.4595  -15.8318   23.7500 C   0  0  0  0  0  0  0  0  0  0  0  0
    7.6395  -16.7123   24.1187 O   0  0  0  0  0  0  0  0  0  0  0  0
    7.8667  -12.4515   24.8796 C   0  0  0  0  0  0  0  0  0  0  0  0
    7.8888  -12.0414   26.2155 C   0  0  0  0  0  0  0  0  0  0  0  0
    9.7042  -15.8152   24.4432 N   0  0  0  0  0  0  0  0  0  0  0  0
   10.0199  -16.7202   25.5209 C   0  0  1  0  0  0  0  0  0  0  0  0
   11.4742  -17.1403   25.3881 C   0  0  0  0  0  0  0  0  0  0  0  0
   11.6135  -18.1838   24.3351 C   0  0  0  0  0  0  0  0  0  0  0  0
   10.5954  -18.7925   23.6281 C   0  0  0  0  0  0  0  0  0  0  0  0
   11.1689  -19.6679   22.7832 N   0  0  0  0  0  0  0  0  0  0  0  0
   12.5161  -19.6233   22.9423 C   0  0  0  0  0  0  0  0  0  0  0  0
   12.7711  -18.7171   23.8885 N   0  0  0  0  0  0  0  0  0  0  0  0
    9.7963  -16.1157   26.8420 C   0  0  0  0  0  0  0  0  0  0  0  0
   10.0397  -14.8961   27.0217 O   0  0  0  0  0  0  0  0  0  0  0  0
    9.3217  -16.8401   27.9159 O   0  0  0  0  0  0  0  0  0  0  0  0
  2  4  1  0
  2  3  1  6
  2  1  1  0
  4  5  1  1
  6  4  1  0
  6  7  2  0
  8  9  1  0
  9 19  2  0
  9 10  1  0
 10 11  2  0
 11 12  1  0
 12 13  1  0
 14 13  1  1
 14 15  1  0
 15  6  1  0
 16 14  1  0
 16 20  1  0
 17 16  2  0
 18 12  2  0
 19 18  1  0
 21 20  1  0
 21 28  1  0
 22 23  1  0
 21 22  1  1
 23 27  1  0
 24 25  1  0
 24 23  2  0
 25 26  1  0
 26 27  2  0
 28 29  2  0
 28 30  1  0
M  END
$$$$
