VYH.pdb
     RDKit          3D

 30 31  0  0  1  0  0  0  0  0999 V2000
    9.4883  -20.5602   19.2050 C   0  0  0  0  0  0  0  0  0  0  0  0
    8.0505  -20.0174   19.2301 C   0  0  2  0  0  0  0  0  0  0  0  0
    7.3019  -20.7803   18.1731 C   0  0  0  0  0  0  0  0  0  0  0  0
    8.1831  -18.5432   18.9084 C   0  0  2  0  0  0  0  0  0  0  0  0
    8.9572  -18.5069   17.6511 N   0  0  0  0  0  0  0  0  0  0  0  0
    8.9569  -17.7873   19.9089 C   0  0  0  0  0  0  0  0  0  0  0  0
   10.1926  -17.6823   19.7636 O   0  0  0  0  0  0  0  0  0  0  0  0
    7.7707  -11.5135   18.1614 O   0  0  0  0  0  0  0  0  0  0  0  0
    7.9305  -12.3985   19.2141 C   0  0  0  0  0  0  0  0  0  0  0  0
    9.1322  -12.5364   19.8727 C   0  0  0  0  0  0  0  0  0  0  0  0
    9.2945  -13.4125   20.9162 C   0  0  0  0  0  0  0  0  0  0  0  0
    8.2376  -14.2164   21.3672 C   0  0  0  0  0  0  0  0  0  0  0  0
    8.4657  -15.1453   22.5156 C   0  0  0  0  0  0  0  0  0  0  0  0
    9.0861  -16.4630   22.0786 C   0  0  2  0  0  0  0  0  0  0  0  0
    8.3878  -17.1546   21.0515 N   0  0  0  0  0  0  0  0  0  0  0  0
    9.5576  -17.2894   23.2000 C   0  0  0  0  0  0  0  0  0  0  0  0
    8.7420  -17.8739   23.9593 O   0  0  0  0  0  0  0  0  0  0  0  0
    7.0465  -14.0701   20.7043 C   0  0  0  0  0  0  0  0  0  0  0  0
    6.8844  -13.1770   19.6416 C   0  0  0  0  0  0  0  0  0  0  0  0
   10.9359  -17.4851   23.5030 N   0  0  0  0  0  0  0  0  0  0  0  0
   11.3946  -18.2802   24.6155 C   0  0  1  0  0  0  0  0  0  0  0  0
   12.8806  -18.5445   24.4398 C   0  0  0  0  0  0  0  0  0  0  0  0
   13.3663  -19.4715   25.4991 C   0  0  0  0  0  0  0  0  0  0  0  0
   12.5953  -20.2333   26.3547 C   0  0  0  0  0  0  0  0  0  0  0  0
   13.4408  -20.9190   27.1446 N   0  0  0  0  0  0  0  0  0  0  0  0
   14.7179  -20.6073   26.8068 C   0  0  0  0  0  0  0  0  0  0  0  0
   14.6566  -19.7267   25.8056 N   0  0  0  0  0  0  0  0  0  0  0  0
   11.1567  -17.6224   25.9083 C   0  0  0  0  0  0  0  0  0  0  0  0
   10.7232  -18.2905   26.8803 O   0  0  0  0  0  0  0  0  0  0  0  0
   11.3921  -16.2779   26.1083 O   0  0  0  0  0  0  0  0  0  0  0  0
  2  4  1  0
  2  3  1  6
  2  1  1  0
  4  5  1  6
  6  4  1  0
  6  7  2  0
  8  9  1  0
  9 19  2  0
  9 10  1  0
 10 11  2  0
 11 12  1  0
 12 13  1  0
 14 13  1  1
 14 15  1  0
 15  6  1  0
 16 14  1  0
 16 20  1  0
 17 16  2  0
 18 12  2  0
 19 18  1  0
 21 20  1  0
 21 28  1  0
 22 23  1  0
 21 22  1  6
 23 27  1  0
 24 25  1  0
 24 23  2  0
 25 26  1  0
 26 27  2  0
 28 29  2  0
 28 30  1  0
M  END
$$$$
