VYH.pdb
     RDKit          3D

 30 31  0  0  1  0  0  0  0  0999 V2000
    6.8516  -14.5418   18.0217 C   0  0  0  0  0  0  0  0  0  0  0  0
    7.6850  -14.8153   19.2839 C   0  0  2  0  0  0  0  0  0  0  0  0
    7.1695  -16.1101   19.8475 C   0  0  0  0  0  0  0  0  0  0  0  0
    7.4200  -13.6320   20.1917 C   0  0  2  0  0  0  0  0  0  0  0  0
    8.0175  -12.4816   19.4841 N   0  0  0  0  0  0  0  0  0  0  0  0
    8.0939  -13.7273   21.4986 C   0  0  0  0  0  0  0  0  0  0  0  0
    9.3381  -13.6321   21.5451 O   0  0  0  0  0  0  0  0  0  0  0  0
    9.9342  -14.6346   30.1350 O   0  0  0  0  0  0  0  0  0  0  0  0
    9.2586  -14.4394   28.9424 C   0  0  0  0  0  0  0  0  0  0  0  0
    9.2408  -13.2172   28.3078 C   0  0  0  0  0  0  0  0  0  0  0  0
    8.5723  -13.0198   27.1258 C   0  0  0  0  0  0  0  0  0  0  0  0
    7.8692  -14.0600   26.5010 C   0  0  0  0  0  0  0  0  0  0  0  0
    7.1679  -13.7933   25.2084 C   0  0  0  0  0  0  0  0  0  0  0  0
    8.0133  -14.1736   24.0030 C   0  0  2  0  0  0  0  0  0  0  0  0
    7.4173  -13.9230   22.7370 N   0  0  0  0  0  0  0  0  0  0  0  0
    8.6882  -15.4722   24.1466 C   0  0  0  0  0  0  0  0  0  0  0  0
    8.0348  -16.5471   24.1135 O   0  0  0  0  0  0  0  0  0  0  0  0
    7.8943  -15.2717   27.1417 C   0  0  0  0  0  0  0  0  0  0  0  0
    8.5761  -15.4695   28.3456 C   0  0  0  0  0  0  0  0  0  0  0  0
   10.0948  -15.6076   24.3290 N   0  0  0  0  0  0  0  0  0  0  0  0
   10.7521  -16.8823   24.4819 C   0  0  1  0  0  0  0  0  0  0  0  0
   12.0960  -16.8202   23.7756 C   0  0  0  0  0  0  0  0  0  0  0  0
   11.9024  -16.8477   22.2994 C   0  0  0  0  0  0  0  0  0  0  0  0
   10.7308  -17.1155   21.6195 C   0  0  0  0  0  0  0  0  0  0  0  0
   11.0082  -17.0340   20.3059 N   0  0  0  0  0  0  0  0  0  0  0  0
   12.3196  -16.7229   20.1460 C   0  0  0  0  0  0  0  0  0  0  0  0
   12.8498  -16.6129   21.3660 N   0  0  0  0  0  0  0  0  0  0  0  0
   10.9489  -17.2440   25.8930 C   0  0  0  0  0  0  0  0  0  0  0  0
   10.5406  -16.4751   26.7991 O   0  0  0  0  0  0  0  0  0  0  0  0
   11.5740  -18.4124   26.2766 O   0  0  0  0  0  0  0  0  0  0  0  0
  2  4  1  0
  2  3  1  1
  2  1  1  0
  4  5  1  6
  6  4  1  0
  6  7  2  0
  8  9  1  0
  9 19  2  0
  9 10  1  0
 10 11  2  0
 11 12  1  0
 12 13  1  0
 14 13  1  1
 14 15  1  0
 15  6  1  0
 16 14  1  0
 16 20  1  0
 17 16  2  0
 18 12  2  0
 19 18  1  0
 21 20  1  0
 21 28  1  0
 22 23  1  0
 21 22  1  6
 23 27  1  0
 24 25  1  0
 24 23  2  0
 25 26  1  0
 26 27  2  0
 28 29  2  0
 28 30  1  0
M  END
$$$$
