VYH.pdb
     RDKit          3D

 30 31  0  0  1  0  0  0  0  0999 V2000
    8.8289  -19.1411   17.7273 C   0  0  0  0  0  0  0  0  0  0  0  0
    9.0213  -18.5913   19.1497 C   0  0  2  0  0  0  0  0  0  0  0  0
    8.0443  -19.3354   20.0165 C   0  0  0  0  0  0  0  0  0  0  0  0
    8.7065  -17.1135   19.0439 C   0  0  2  0  0  0  0  0  0  0  0  0
    9.6922  -16.5935   18.0747 N   0  0  0  0  0  0  0  0  0  0  0  0
    8.9123  -16.3740   20.3017 C   0  0  0  0  0  0  0  0  0  0  0  0
   10.0775  -16.1935   20.7127 O   0  0  0  0  0  0  0  0  0  0  0  0
    7.3105  -12.4254   28.1528 O   0  0  0  0  0  0  0  0  0  0  0  0
    7.1913  -12.8957   26.8561 C   0  0  0  0  0  0  0  0  0  0  0  0
    6.5365  -14.0721   26.5662 C   0  0  0  0  0  0  0  0  0  0  0  0
    6.4163  -14.5417   25.2825 C   0  0  0  0  0  0  0  0  0  0  0  0
    6.9580  -13.8421   24.1944 C   0  0  0  0  0  0  0  0  0  0  0  0
    6.7882  -14.3926   22.8153 C   0  0  0  0  0  0  0  0  0  0  0  0
    7.9850  -15.2189   22.3715 C   0  0  2  0  0  0  0  0  0  0  0  0
    7.8594  -15.8387   21.0982 N   0  0  0  0  0  0  0  0  0  0  0  0
    8.5455  -16.0598   23.4398 C   0  0  0  0  0  0  0  0  0  0  0  0
    7.9098  -17.0518   23.8817 O   0  0  0  0  0  0  0  0  0  0  0  0
    7.6071  -12.6726   24.4953 C   0  0  0  0  0  0  0  0  0  0  0  0
    7.7279  -12.1972   25.8039 C   0  0  0  0  0  0  0  0  0  0  0  0
    9.8160  -15.8213   24.0388 N   0  0  0  0  0  0  0  0  0  0  0  0
   10.3621  -16.6473   25.0875 C   0  0  1  0  0  0  0  0  0  0  0  0
   11.8195  -16.9337   24.7669 C   0  0  0  0  0  0  0  0  0  0  0  0
   11.9197  -18.0410   23.7763 C   0  0  0  0  0  0  0  0  0  0  0  0
   10.9199  -18.9190   23.4070 C   0  0  0  0  0  0  0  0  0  0  0  0
   11.4435  -19.7514   22.4894 N   0  0  0  0  0  0  0  0  0  0  0  0
   12.7417  -19.4183   22.2750 C   0  0  0  0  0  0  0  0  0  0  0  0
   13.0166  -18.3774   23.0639 N   0  0  0  0  0  0  0  0  0  0  0  0
   10.2600  -16.0124   26.4094 C   0  0  0  0  0  0  0  0  0  0  0  0
   10.7048  -16.6048   27.4244 O   0  0  0  0  0  0  0  0  0  0  0  0
    9.6866  -14.7709   26.5911 O   0  0  0  0  0  0  0  0  0  0  0  0
  2  4  1  0
  2  3  1  1
  2  1  1  0
  4  5  1  6
  6  4  1  0
  6  7  2  0
  8  9  1  0
  9 19  2  0
  9 10  1  0
 10 11  2  0
 11 12  1  0
 12 13  1  0
 14 13  1  1
 14 15  1  0
 15  6  1  0
 16 14  1  0
 16 20  1  0
 17 16  2  0
 18 12  2  0
 19 18  1  0
 21 20  1  0
 21 28  1  0
 22 23  1  0
 21 22  1  6
 23 27  1  0
 24 25  1  0
 24 23  2  0
 25 26  1  0
 26 27  2  0
 28 29  2  0
 28 30  1  0
M  END
$$$$
