VYH.pdb
     RDKit          3D

 30 31  0  0  1  0  0  0  0  0999 V2000
    9.1738  -20.3600   27.1831 C   0  0  0  0  0  0  0  0  0  0  0  0
    9.4150  -19.6914   25.8203 C   0  0  2  0  0  0  0  0  0  0  0  0
   10.5873  -18.7704   26.0130 C   0  0  0  0  0  0  0  0  0  0  0  0
    8.1294  -18.9508   25.5149 C   0  0  2  0  0  0  0  0  0  0  0  0
    7.1090  -20.0123   25.4002 N   0  0  0  0  0  0  0  0  0  0  0  0
    8.1506  -18.2369   24.2260 C   0  0  0  0  0  0  0  0  0  0  0  0
    8.0379  -18.8935   23.1699 O   0  0  0  0  0  0  0  0  0  0  0  0
    8.2695  -12.1490   17.8079 O   0  0  0  0  0  0  0  0  0  0  0  0
    8.2173  -12.7455   19.0561 C   0  0  0  0  0  0  0  0  0  0  0  0
    7.1539  -13.5303   19.4436 C   0  0  0  0  0  0  0  0  0  0  0  0
    7.0985  -14.1232   20.6798 C   0  0  0  0  0  0  0  0  0  0  0  0
    8.1289  -13.9583   21.6167 C   0  0  0  0  0  0  0  0  0  0  0  0
    8.0233  -14.6360   22.9446 C   0  0  0  0  0  0  0  0  0  0  0  0
    8.4484  -16.0947   22.8844 C   0  0  2  0  0  0  0  0  0  0  0  0
    8.2922  -16.8255   24.0937 N   0  0  0  0  0  0  0  0  0  0  0  0
    9.7147  -16.3071   22.1674 C   0  0  0  0  0  0  0  0  0  0  0  0
    9.8110  -16.0566   20.9381 O   0  0  0  0  0  0  0  0  0  0  0  0
    9.1820  -13.1754   21.2197 C   0  0  0  0  0  0  0  0  0  0  0  0
    9.2355  -12.5729   19.9598 C   0  0  0  0  0  0  0  0  0  0  0  0
   10.8960  -16.7993   22.7938 N   0  0  0  0  0  0  0  0  0  0  0  0
   12.2245  -16.5036   22.3166 C   0  0  1  0  0  0  0  0  0  0  0  0
   12.2540  -15.0638   21.8318 C   0  0  0  0  0  0  0  0  0  0  0  0
   12.6589  -15.0120   20.3998 C   0  0  0  0  0  0  0  0  0  0  0  0
   12.2571  -15.8650   19.3909 C   0  0  0  0  0  0  0  0  0  0  0  0
   12.8618  -15.4546   18.2617 N   0  0  0  0  0  0  0  0  0  0  0  0
   13.6298  -14.3698   18.5366 C   0  0  0  0  0  0  0  0  0  0  0  0
   13.4963  -14.1128   19.8395 N   0  0  0  0  0  0  0  0  0  0  0  0
   13.2475  -16.6993   23.3540 C   0  0  0  0  0  0  0  0  0  0  0  0
   14.4644  -16.5838   23.0628 O   0  0  0  0  0  0  0  0  0  0  0  0
   12.9269  -17.0103   24.6592 O   0  0  0  0  0  0  0  0  0  0  0  0
  2  4  1  0
  2  3  1  1
  2  1  1  0
  4  5  1  6
  6  4  1  0
  6  7  2  0
  8  9  1  0
  9 19  2  0
  9 10  1  0
 10 11  2  0
 11 12  1  0
 12 13  1  0
 14 13  1  1
 14 15  1  0
 15  6  1  0
 16 14  1  0
 16 20  1  0
 17 16  2  0
 18 12  2  0
 19 18  1  0
 21 20  1  0
 21 28  1  0
 22 23  1  0
 21 22  1  1
 23 27  1  0
 24 25  1  0
 24 23  2  0
 25 26  1  0
 26 27  2  0
 28 29  2  0
 28 30  1  0
M  END
$$$$
