VPR.pdb
     RDKit          3D

 26 26  0  0  1  0  0  0  0  0999 V2000
    6.5933  -17.2585   18.3433 C   0  0  0  0  0  0  0  0  0  0  0  0
    7.3172  -17.2634   17.0379 C   0  0  1  0  0  0  0  0  0  0  0  0
    6.4480  -17.7205   15.8867 C   0  0  0  0  0  0  0  0  0  0  0  0
    7.9583  -15.9140   16.7333 C   0  0  2  0  0  0  0  0  0  0  0  0
    8.5292  -16.0102   15.4475 N   0  0  0  0  0  0  0  0  0  0  0  0
    8.7960  -15.4803   17.8394 C   0  0  0  0  0  0  0  0  0  0  0  0
    9.9997  -15.9609   17.9017 O   0  0  0  0  0  0  0  0  0  0  0  0
    8.4241  -14.5859   18.8535 N   0  0  0  0  0  0  0  0  0  0  0  0
    7.1535  -13.9834   19.0789 C   0  0  0  0  0  0  0  0  0  0  0  0
    7.5459  -12.5446   19.4716 C   0  0  0  0  0  0  0  0  0  0  0  0
    8.6674  -12.8495   20.4420 C   0  0  0  0  0  0  0  0  0  0  0  0
    9.3002  -14.0989   19.9246 C   0  0  1  0  0  0  0  0  0  0  0  0
    9.4762  -15.1162   20.9782 C   0  0  0  0  0  0  0  0  0  0  0  0
    8.5014  -15.8584   21.2571 O   0  0  0  0  0  0  0  0  0  0  0  0
   11.3852  -21.7306   21.2053 N   0  0  0  0  0  0  0  0  0  0  0  0
   12.6877  -21.8260   21.8070 C   0  0  0  0  0  0  0  0  0  0  0  0
   13.0223  -22.9427   22.3286 N   0  0  0  0  0  0  0  0  0  0  0  0
   13.5497  -20.7068   21.8037 N   0  0  0  0  0  0  0  0  0  0  0  0
   13.1709  -19.4550   21.2298 C   0  0  0  0  0  0  0  0  0  0  0  0
   12.3158  -18.5892   22.0837 C   0  0  0  0  0  0  0  0  0  0  0  0
   11.8380  -17.3131   21.5057 C   0  0  0  0  0  0  0  0  0  0  0  0
   11.0163  -16.4439   22.3964 C   0  0  2  0  0  0  0  0  0  0  0  0
   10.7298  -15.2204   21.6345 N   0  0  0  0  0  0  0  0  0  0  0  0
   11.8423  -16.0787   23.5943 C   0  0  0  0  0  0  0  0  0  0  0  0
   11.8175  -16.8724   24.7258 O   0  0  0  0  0  0  0  0  0  0  0  0
   12.5696  -15.0621   23.6118 O   0  0  0  0  0  0  0  0  0  0  0  0
  2  3  1  6
  2  1  1  0
  4  5  1  6
  4  2  1  0
  6  4  1  0
  7  6  2  0
  8  9  1  0
  8  6  1  0
 10  9  1  0
 11 12  1  0
 11 10  1  0
 12  8  1  0
 13 14  2  0
 12 13  1  1
 16 17  2  0
 16 15  1  0
 18 16  1  0
 19 18  1  0
 20 19  1  0
 20 21  1  0
 22 21  1  6
 22 23  1  0
 23 13  1  0
 24 22  1  0
 25 24  1  0
 26 24  2  0
M  END
$$$$
