VPR.pdb
     RDKit          3D

 26 26  0  0  1  0  0  0  0  0999 V2000
    7.6620  -16.7141   15.0506 C   0  0  0  0  0  0  0  0  0  0  0  0
    8.1889  -16.4888   16.4289 C   0  0  1  0  0  0  0  0  0  0  0  0
    8.9435  -17.6832   16.9710 C   0  0  0  0  0  0  0  0  0  0  0  0
    9.0353  -15.2239   16.5190 C   0  0  2  0  0  0  0  0  0  0  0  0
    9.9956  -15.2966   15.4889 N   0  0  0  0  0  0  0  0  0  0  0  0
    9.4884  -15.0033   17.8826 C   0  0  0  0  0  0  0  0  0  0  0  0
   10.7047  -15.3506   18.1718 O   0  0  0  0  0  0  0  0  0  0  0  0
    8.7301  -14.4475   18.9232 N   0  0  0  0  0  0  0  0  0  0  0  0
    7.3760  -14.0074   18.8931 C   0  0  0  0  0  0  0  0  0  0  0  0
    7.4410  -12.7123   19.7280 C   0  0  0  0  0  0  0  0  0  0  0  0
    8.2812  -13.2062   20.8866 C   0  0  0  0  0  0  0  0  0  0  0  0
    9.1993  -14.2241   20.2950 C   0  0  1  0  0  0  0  0  0  0  0  0
    9.2162  -15.4806   21.0678 C   0  0  0  0  0  0  0  0  0  0  0  0
    8.7439  -16.5145   20.5322 O   0  0  0  0  0  0  0  0  0  0  0  0
   13.9332  -20.3248   19.3738 N   0  0  0  0  0  0  0  0  0  0  0  0
   14.0236  -20.8874   20.6939 C   0  0  0  0  0  0  0  0  0  0  0  0
   14.3133  -22.1272   20.7943 N   0  0  0  0  0  0  0  0  0  0  0  0
   13.7982  -20.0716   21.8251 N   0  0  0  0  0  0  0  0  0  0  0  0
   13.3932  -18.7067   21.7116 C   0  0  0  0  0  0  0  0  0  0  0  0
   12.2035  -18.3206   22.5149 C   0  0  0  0  0  0  0  0  0  0  0  0
   11.4757  -17.0947   22.1172 C   0  0  0  0  0  0  0  0  0  0  0  0
   10.2701  -16.7442   22.9221 C   0  0  2  0  0  0  0  0  0  0  0  0
    9.7605  -15.4778   22.3780 N   0  0  0  0  0  0  0  0  0  0  0  0
   10.6986  -16.5166   24.3417 C   0  0  0  0  0  0  0  0  0  0  0  0
   10.5908  -17.5323   25.2732 O   0  0  0  0  0  0  0  0  0  0  0  0
   11.1604  -15.4204   24.7260 O   0  0  0  0  0  0  0  0  0  0  0  0
  2  3  1  6
  2  1  1  0
  4  5  1  6
  4  2  1  0
  6  4  1  0
  7  6  2  0
  8  9  1  0
  8  6  1  0
 10  9  1  0
 11 12  1  0
 11 10  1  0
 12  8  1  0
 13 14  2  0
 12 13  1  1
 16 17  2  0
 16 15  1  0
 18 16  1  0
 19 18  1  0
 20 19  1  0
 20 21  1  0
 22 21  1  6
 22 23  1  0
 23 13  1  0
 24 22  1  0
 25 24  1  0
 26 24  2  0
M  END
$$$$
