VPR.pdb
     RDKit          3D

 26 26  0  0  1  0  0  0  0  0999 V2000
    6.6546  -18.6182   17.3728 C   0  0  0  0  0  0  0  0  0  0  0  0
    7.3287  -17.8430   18.4556 C   0  0  1  0  0  0  0  0  0  0  0  0
    8.0420  -18.7284   19.4541 C   0  0  0  0  0  0  0  0  0  0  0  0
    8.2712  -16.7818   17.8988 C   0  0  2  0  0  0  0  0  0  0  0  0
    9.1465  -17.4353   17.0070 N   0  0  0  0  0  0  0  0  0  0  0  0
    8.8368  -15.9809   18.9722 C   0  0  0  0  0  0  0  0  0  0  0  0
   10.0411  -16.2678   19.3611 O   0  0  0  0  0  0  0  0  0  0  0  0
    8.1998  -14.9204   19.6328 N   0  0  0  0  0  0  0  0  0  0  0  0
    6.9295  -14.3403   19.3537 C   0  0  0  0  0  0  0  0  0  0  0  0
    7.2144  -12.8368   19.5451 C   0  0  0  0  0  0  0  0  0  0  0  0
    7.9974  -12.8956   20.8396 C   0  0  0  0  0  0  0  0  0  0  0  0
    8.7323  -14.1943   20.7909 C   0  0  1  0  0  0  0  0  0  0  0  0
    8.5746  -14.9748   22.0327 C   0  0  0  0  0  0  0  0  0  0  0  0
    7.5491  -15.6898   22.1596 O   0  0  0  0  0  0  0  0  0  0  0  0
   13.9789  -20.4401   25.8551 N   0  0  0  0  0  0  0  0  0  0  0  0
   12.6431  -20.6532   26.3427 C   0  0  0  0  0  0  0  0  0  0  0  0
   12.3436  -21.8193   26.7687 N   0  0  0  0  0  0  0  0  0  0  0  0
   11.7141  -19.5888   26.3424 N   0  0  0  0  0  0  0  0  0  0  0  0
   11.8872  -18.4267   25.5304 C   0  0  0  0  0  0  0  0  0  0  0  0
   10.7196  -17.5088   25.4649 C   0  0  0  0  0  0  0  0  0  0  0  0
   10.6247  -16.6017   24.2992 C   0  0  0  0  0  0  0  0  0  0  0  0
    9.4267  -15.7154   24.2398 C   0  0  2  0  0  0  0  0  0  0  0  0
    9.5781  -14.8918   23.0322 N   0  0  0  0  0  0  0  0  0  0  0  0
    9.4451  -14.8139   25.4388 C   0  0  0  0  0  0  0  0  0  0  0  0
    8.8857  -15.2305   26.6323 O   0  0  0  0  0  0  0  0  0  0  0  0
    9.9579  -13.6744   25.4022 O   0  0  0  0  0  0  0  0  0  0  0  0
  2  3  1  1
  2  1  1  0
  4  5  1  1
  4  2  1  0
  6  4  1  0
  7  6  2  0
  8  9  1  0
  8  6  1  0
 10  9  1  0
 11 12  1  0
 11 10  1  0
 12  8  1  0
 13 14  2  0
 12 13  1  1
 16 17  2  0
 16 15  1  0
 18 16  1  0
 19 18  1  0
 20 19  1  0
 20 21  1  0
 22 21  1  1
 22 23  1  0
 23 13  1  0
 24 22  1  0
 25 24  1  0
 26 24  2  0
M  END
$$$$
