VPR.pdb
     RDKit          3D

 26 26  0  0  1  0  0  0  0  0999 V2000
    6.3109  -11.0643   26.0634 C   0  0  0  0  0  0  0  0  0  0  0  0
    7.0292  -12.2431   25.4954 C   0  0  1  0  0  0  0  0  0  0  0  0
    8.1031  -12.7764   26.4186 C   0  0  0  0  0  0  0  0  0  0  0  0
    6.0698  -13.3524   25.0787 C   0  0  2  0  0  0  0  0  0  0  0  0
    5.3346  -13.7138   26.2266 N   0  0  0  0  0  0  0  0  0  0  0  0
    6.7718  -14.3910   24.3426 C   0  0  0  0  0  0  0  0  0  0  0  0
    6.9626  -15.5249   24.9440 O   0  0  0  0  0  0  0  0  0  0  0  0
    7.2669  -14.2830   23.0349 N   0  0  0  0  0  0  0  0  0  0  0  0
    7.1815  -13.1738   22.1459 C   0  0  0  0  0  0  0  0  0  0  0  0
    6.8842  -13.8641   20.7992 C   0  0  0  0  0  0  0  0  0  0  0  0
    7.8994  -14.9855   20.8661 C   0  0  0  0  0  0  0  0  0  0  0  0
    8.0106  -15.3233   22.3162 C   0  0  1  0  0  0  0  0  0  0  0  0
    9.4126  -15.3916   22.7701 C   0  0  0  0  0  0  0  0  0  0  0  0
   10.0841  -14.3296   22.7884 O   0  0  0  0  0  0  0  0  0  0  0  0
   10.9872  -14.6175   29.7594 N   0  0  0  0  0  0  0  0  0  0  0  0
   11.0246  -16.0336   29.5130 C   0  0  0  0  0  0  0  0  0  0  0  0
   10.6641  -16.8123   30.4589 N   0  0  0  0  0  0  0  0  0  0  0  0
   11.4471  -16.5198   28.2556 N   0  0  0  0  0  0  0  0  0  0  0  0
   10.5464  -17.1394   27.3366 C   0  0  0  0  0  0  0  0  0  0  0  0
   10.5516  -16.5832   25.9580 C   0  0  0  0  0  0  0  0  0  0  0  0
   11.3889  -17.2655   24.9460 C   0  0  0  0  0  0  0  0  0  0  0  0
   11.3624  -16.6990   23.5667 C   0  0  2  0  0  0  0  0  0  0  0  0
    9.9493  -16.6434   23.1670 N   0  0  0  0  0  0  0  0  0  0  0  0
   12.0810  -17.6464   22.6522 C   0  0  0  0  0  0  0  0  0  0  0  0
   13.4615  -17.7169   22.6672 O   0  0  0  0  0  0  0  0  0  0  0  0
   11.4683  -18.3928   21.8583 O   0  0  0  0  0  0  0  0  0  0  0  0
  2  3  1  1
  2  1  1  0
  4  5  1  1
  4  2  1  0
  6  4  1  0
  7  6  2  0
  8  9  1  0
  8  6  1  0
 10  9  1  0
 11 12  1  0
 11 10  1  0
 12  8  1  0
 13 14  2  0
 12 13  1  1
 16 17  2  0
 16 15  1  0
 18 16  1  0
 19 18  1  0
 20 19  1  0
 20 21  1  0
 22 21  1  1
 22 23  1  0
 23 13  1  0
 24 22  1  0
 25 24  1  0
 26 24  2  0
M  END
$$$$
