VPR.pdb
     RDKit          3D

 26 26  0  0  1  0  0  0  0  0999 V2000
    9.0072  -15.0558   15.4644 C   0  0  0  0  0  0  0  0  0  0  0  0
    9.0097  -15.1005   16.9564 C   0  0  1  0  0  0  0  0  0  0  0  0
   10.3888  -14.9024   17.5469 C   0  0  0  0  0  0  0  0  0  0  0  0
    8.0128  -14.1179   17.5607 C   0  0  2  0  0  0  0  0  0  0  0  0
    8.2820  -12.8559   16.9920 N   0  0  0  0  0  0  0  0  0  0  0  0
    7.9828  -14.2398   19.0090 C   0  0  0  0  0  0  0  0  0  0  0  0
    8.6690  -13.3787   19.6956 O   0  0  0  0  0  0  0  0  0  0  0  0
    7.2783  -15.2072   19.7402 N   0  0  0  0  0  0  0  0  0  0  0  0
    6.5092  -16.3004   19.2487 C   0  0  0  0  0  0  0  0  0  0  0  0
    5.2932  -16.2891   20.1972 C   0  0  0  0  0  0  0  0  0  0  0  0
    6.0113  -16.1171   21.5190 C   0  0  0  0  0  0  0  0  0  0  0  0
    7.2140  -15.2906   21.2034 C   0  0  1  0  0  0  0  0  0  0  0  0
    8.4519  -15.8653   21.7632 C   0  0  0  0  0  0  0  0  0  0  0  0
    9.2553  -16.4271   20.9771 O   0  0  0  0  0  0  0  0  0  0  0  0
    9.3203  -14.8760   28.3762 N   0  0  0  0  0  0  0  0  0  0  0  0
   10.6497  -15.1240   28.8647 C   0  0  0  0  0  0  0  0  0  0  0  0
   11.0765  -14.3976   29.8245 N   0  0  0  0  0  0  0  0  0  0  0  0
   11.4344  -16.1463   28.2859 N   0  0  0  0  0  0  0  0  0  0  0  0
   11.0068  -16.8758   27.1349 C   0  0  0  0  0  0  0  0  0  0  0  0
   11.2857  -16.2305   25.8250 C   0  0  0  0  0  0  0  0  0  0  0  0
   10.1295  -15.7381   25.0429 C   0  0  0  0  0  0  0  0  0  0  0  0
    9.9283  -16.3457   23.6959 C   0  0  2  0  0  0  0  0  0  0  0  0
    8.6904  -15.7643   23.1581 N   0  0  0  0  0  0  0  0  0  0  0  0
    9.7275  -17.8224   23.8681 C   0  0  0  0  0  0  0  0  0  0  0  0
    8.4526  -18.3569   23.8669 O   0  0  0  0  0  0  0  0  0  0  0  0
   10.6884  -18.6082   24.0159 O   0  0  0  0  0  0  0  0  0  0  0  0
  2  3  1  1
  2  1  1  0
  4  5  1  1
  4  2  1  0
  6  4  1  0
  7  6  2  0
  8  9  1  0
  8  6  1  0
 10  9  1  0
 11 12  1  0
 11 10  1  0
 12  8  1  0
 13 14  2  0
 12 13  1  6
 16 17  2  0
 16 15  1  0
 18 16  1  0
 19 18  1  0
 20 19  1  0
 20 21  1  0
 22 21  1  1
 22 23  1  0
 23 13  1  0
 24 22  1  0
 25 24  1  0
 26 24  2  0
M  END
$$$$
