VPR.pdb
     RDKit          3D

 26 26  0  0  1  0  0  0  0  0999 V2000
    9.5053  -12.6238   17.5352 C   0  0  0  0  0  0  0  0  0  0  0  0
    9.4254  -13.5679   18.6886 C   0  0  1  0  0  0  0  0  0  0  0  0
   10.2616  -13.1241   19.8691 C   0  0  0  0  0  0  0  0  0  0  0  0
    7.9852  -13.8350   19.1116 C   0  0  2  0  0  0  0  0  0  0  0  0
    7.3843  -12.5803   19.3425 N   0  0  0  0  0  0  0  0  0  0  0  0
    7.9346  -14.8381   20.1626 C   0  0  0  0  0  0  0  0  0  0  0  0
    7.6756  -14.4296   21.3667 O   0  0  0  0  0  0  0  0  0  0  0  0
    8.1415  -16.2154   19.9980 N   0  0  0  0  0  0  0  0  0  0  0  0
    8.3865  -16.9349   18.7937 C   0  0  0  0  0  0  0  0  0  0  0  0
    7.5363  -18.2050   19.0002 C   0  0  0  0  0  0  0  0  0  0  0  0
    7.9210  -18.5314   20.4277 C   0  0  0  0  0  0  0  0  0  0  0  0
    8.1648  -17.2091   21.0768 C   0  0  1  0  0  0  0  0  0  0  0  0
    9.4429  -17.1727   21.8125 C   0  0  0  0  0  0  0  0  0  0  0  0
   10.4353  -16.6408   21.2546 O   0  0  0  0  0  0  0  0  0  0  0  0
    9.6244  -13.4436   29.0831 N   0  0  0  0  0  0  0  0  0  0  0  0
   10.1282  -14.7321   29.4750 C   0  0  0  0  0  0  0  0  0  0  0  0
   10.3842  -14.9203   30.7120 N   0  0  0  0  0  0  0  0  0  0  0  0
   10.3206  -15.7394   28.5033 N   0  0  0  0  0  0  0  0  0  0  0  0
   10.3274  -15.4562   27.1034 C   0  0  0  0  0  0  0  0  0  0  0  0
   10.5391  -16.6270   26.2121 C   0  0  0  0  0  0  0  0  0  0  0  0
   10.5604  -16.3829   24.7524 C   0  0  0  0  0  0  0  0  0  0  0  0
   10.7509  -17.5769   23.8794 C   0  0  2  0  0  0  0  0  0  0  0  0
    9.5066  -17.7349   23.1136 N   0  0  0  0  0  0  0  0  0  0  0  0
   10.9287  -18.7809   24.7564 C   0  0  0  0  0  0  0  0  0  0  0  0
   12.1884  -19.1432   25.1954 O   0  0  0  0  0  0  0  0  0  0  0  0
    9.9614  -19.4868   25.1155 O   0  0  0  0  0  0  0  0  0  0  0  0
  2  3  1  1
  2  1  1  0
  4  5  1  1
  4  2  1  0
  6  4  1  0
  7  6  2  0
  8  9  1  0
  8  6  1  0
 10  9  1  0
 11 12  1  0
 11 10  1  0
 12  8  1  0
 13 14  2  0
 12 13  1  6
 16 17  2  0
 16 15  1  0
 18 16  1  0
 19 18  1  0
 20 19  1  0
 20 21  1  0
 22 21  1  1
 22 23  1  0
 23 13  1  0
 24 22  1  0
 25 24  1  0
 26 24  2  0
M  END
$$$$
