VPR.pdb
     RDKit          3D

 26 26  0  0  1  0  0  0  0  0999 V2000
    5.6671  -18.4929   17.9047 C   0  0  0  0  0  0  0  0  0  0  0  0
    6.6553  -17.7399   18.7320 C   0  0  1  0  0  0  0  0  0  0  0  0
    7.5029  -18.6436   19.6007 C   0  0  0  0  0  0  0  0  0  0  0  0
    7.5303  -16.8224   17.8851 C   0  0  2  0  0  0  0  0  0  0  0  0
    8.0345  -17.5998   16.8221 N   0  0  0  0  0  0  0  0  0  0  0  0
    8.4673  -16.0890   18.7203 C   0  0  0  0  0  0  0  0  0  0  0  0
    9.6740  -16.5561   18.8171 O   0  0  0  0  0  0  0  0  0  0  0  0
    8.1888  -14.9164   19.4375 N   0  0  0  0  0  0  0  0  0  0  0  0
    6.9902  -14.1473   19.4437 C   0  0  0  0  0  0  0  0  0  0  0  0
    7.5349  -12.7045   19.4426 C   0  0  0  0  0  0  0  0  0  0  0  0
    8.6102  -12.8445   20.4992 C   0  0  0  0  0  0  0  0  0  0  0  0
    9.1060  -14.2465   20.3659 C   0  0  1  0  0  0  0  0  0  0  0  0
    9.1631  -14.9469   21.6630 C   0  0  0  0  0  0  0  0  0  0  0  0
    8.1319  -15.5434   22.0626 O   0  0  0  0  0  0  0  0  0  0  0  0
   12.7822  -21.9843   21.0621 N   0  0  0  0  0  0  0  0  0  0  0  0
   12.5246  -21.9880   22.4767 C   0  0  0  0  0  0  0  0  0  0  0  0
   12.7234  -23.0760   23.1153 N   0  0  0  0  0  0  0  0  0  0  0  0
   12.0706  -20.8118   23.1140 N   0  0  0  0  0  0  0  0  0  0  0  0
   11.6968  -19.6441   22.3814 C   0  0  0  0  0  0  0  0  0  0  0  0
   11.3683  -18.4487   23.2017 C   0  0  0  0  0  0  0  0  0  0  0  0
   10.9519  -17.2205   22.4883 C   0  0  0  0  0  0  0  0  0  0  0  0
   10.6389  -16.0322   23.3334 C   0  0  2  0  0  0  0  0  0  0  0  0
   10.3704  -14.9227   22.4078 N   0  0  0  0  0  0  0  0  0  0  0  0
   11.8550  -15.6946   24.1443 C   0  0  0  0  0  0  0  0  0  0  0  0
   11.9464  -16.0972   25.4636 O   0  0  0  0  0  0  0  0  0  0  0  0
   12.8121  -15.0491   23.6647 O   0  0  0  0  0  0  0  0  0  0  0  0
  2  3  1  6
  2  1  1  0
  4  5  1  6
  4  2  1  0
  6  4  1  0
  7  6  2  0
  8  9  1  0
  8  6  1  0
 10  9  1  0
 11 12  1  0
 11 10  1  0
 12  8  1  0
 13 14  2  0
 12 13  1  1
 16 17  2  0
 16 15  1  0
 18 16  1  0
 19 18  1  0
 20 19  1  0
 20 21  1  0
 22 21  1  6
 22 23  1  0
 23 13  1  0
 24 22  1  0
 25 24  1  0
 26 24  2  0
M  END
$$$$
