VPR.pdb
     RDKit          3D

 26 26  0  0  1  0  0  0  0  0999 V2000
    7.3158  -12.5271   18.6693 C   0  0  0  0  0  0  0  0  0  0  0  0
    8.1264  -13.4048   19.5642 C   0  0  1  0  0  0  0  0  0  0  0  0
    7.3037  -14.0429   20.6622 C   0  0  0  0  0  0  0  0  0  0  0  0
    8.9022  -14.4593   18.7827 C   0  0  2  0  0  0  0  0  0  0  0  0
    7.9881  -15.0755   17.9032 N   0  0  0  0  0  0  0  0  0  0  0  0
    9.6809  -15.2965   19.6806 C   0  0  0  0  0  0  0  0  0  0  0  0
    9.1739  -16.4416   20.0204 O   0  0  0  0  0  0  0  0  0  0  0  0
   10.9370  -14.9815   20.2191 N   0  0  0  0  0  0  0  0  0  0  0  0
   11.7686  -13.8628   19.9277 C   0  0  0  0  0  0  0  0  0  0  0  0
   13.1702  -14.5053   19.8929 C   0  0  0  0  0  0  0  0  0  0  0  0
   13.0831  -15.3580   21.1410 C   0  0  0  0  0  0  0  0  0  0  0  0
   11.6492  -15.7632   21.2357 C   0  0  1  0  0  0  0  0  0  0  0  0
   11.0888  -15.5320   22.5806 C   0  0  0  0  0  0  0  0  0  0  0  0
   10.1993  -14.6540   22.7113 O   0  0  0  0  0  0  0  0  0  0  0  0
    5.4625  -21.2249   24.1505 N   0  0  0  0  0  0  0  0  0  0  0  0
    6.1789  -20.2163   24.8831 C   0  0  0  0  0  0  0  0  0  0  0  0
    6.5078  -20.4772   26.0893 N   0  0  0  0  0  0  0  0  0  0  0  0
    6.4985  -18.9877   24.2633 N   0  0  0  0  0  0  0  0  0  0  0  0
    7.2158  -17.9558   24.9419 C   0  0  0  0  0  0  0  0  0  0  0  0
    8.6748  -18.1887   25.1062 C   0  0  0  0  0  0  0  0  0  0  0  0
    9.5886  -17.5114   24.1591 C   0  0  0  0  0  0  0  0  0  0  0  0
   10.6347  -16.6316   24.7556 C   0  0  2  0  0  0  0  0  0  0  0  0
   11.5695  -16.3025   23.6705 N   0  0  0  0  0  0  0  0  0  0  0  0
   11.3722  -17.4151   25.8009 C   0  0  0  0  0  0  0  0  0  0  0  0
   12.5482  -18.0678   25.4818 O   0  0  0  0  0  0  0  0  0  0  0  0
   10.9574  -17.5038   26.9769 O   0  0  0  0  0  0  0  0  0  0  0  0
  2  3  1  1
  2  1  1  0
  4  5  1  1
  4  2  1  0
  6  4  1  0
  7  6  2  0
  8  9  1  0
  8  6  1  0
 10  9  1  0
 11 12  1  0
 11 10  1  0
 12  8  1  0
 13 14  2  0
 12 13  1  1
 16 17  2  0
 16 15  1  0
 18 16  1  0
 19 18  1  0
 20 19  1  0
 20 21  1  0
 22 21  1  6
 22 23  1  0
 23 13  1  0
 24 22  1  0
 25 24  1  0
 26 24  2  0
M  END
$$$$
