VPR.pdb
     RDKit          3D

 26 26  0  0  1  0  0  0  0  0999 V2000
    7.0971  -16.4522   14.5297 C   0  0  0  0  0  0  0  0  0  0  0  0
    7.8269  -16.2291   15.8125 C   0  0  1  0  0  0  0  0  0  0  0  0
    8.7477  -17.3752   16.1706 C   0  0  0  0  0  0  0  0  0  0  0  0
    8.5799  -14.9034   15.8201 C   0  0  2  0  0  0  0  0  0  0  0  0
    9.3591  -14.8655   14.6453 N   0  0  0  0  0  0  0  0  0  0  0  0
    9.2349  -14.6904   17.1003 C   0  0  0  0  0  0  0  0  0  0  0  0
   10.5065  -14.9393   17.1699 O   0  0  0  0  0  0  0  0  0  0  0  0
    8.6185  -14.2389   18.2764 N   0  0  0  0  0  0  0  0  0  0  0  0
    7.2759  -13.8003   18.4587 C   0  0  0  0  0  0  0  0  0  0  0  0
    7.4583  -12.5917   19.3992 C   0  0  0  0  0  0  0  0  0  0  0  0
    8.4316  -13.1936   20.3906 C   0  0  0  0  0  0  0  0  0  0  0  0
    9.2579  -14.1481   19.5935 C   0  0  1  0  0  0  0  0  0  0  0  0
    9.3582  -15.4732   20.2340 C   0  0  0  0  0  0  0  0  0  0  0  0
    8.8270  -16.4546   19.6564 O   0  0  0  0  0  0  0  0  0  0  0  0
   13.4572  -21.2424   20.5899 N   0  0  0  0  0  0  0  0  0  0  0  0
   14.4942  -20.5212   19.9029 C   0  0  0  0  0  0  0  0  0  0  0  0
   15.0218  -21.0696   18.8773 N   0  0  0  0  0  0  0  0  0  0  0  0
   14.8939  -19.2480   20.3669 N   0  0  0  0  0  0  0  0  0  0  0  0
   14.0757  -18.0881   20.2090 C   0  0  0  0  0  0  0  0  0  0  0  0
   12.8387  -18.0574   21.0330 C   0  0  0  0  0  0  0  0  0  0  0  0
   11.9499  -16.8822   20.8925 C   0  0  0  0  0  0  0  0  0  0  0  0
   10.7379  -16.8552   21.7611 C   0  0  2  0  0  0  0  0  0  0  0  0
   10.0453  -15.5924   21.4695 N   0  0  0  0  0  0  0  0  0  0  0  0
   11.1828  -16.8368   23.1937 C   0  0  0  0  0  0  0  0  0  0  0  0
   11.6506  -15.6671   23.7629 O   0  0  0  0  0  0  0  0  0  0  0  0
   11.1467  -17.8599   23.9112 O   0  0  0  0  0  0  0  0  0  0  0  0
  2  3  1  6
  2  1  1  0
  4  5  1  6
  4  2  1  0
  6  4  1  0
  7  6  2  0
  8  9  1  0
  8  6  1  0
 10  9  1  0
 11 12  1  0
 11 10  1  0
 12  8  1  0
 13 14  2  0
 12 13  1  1
 16 17  2  0
 16 15  1  0
 18 16  1  0
 19 18  1  0
 20 19  1  0
 20 21  1  0
 22 21  1  6
 22 23  1  0
 23 13  1  0
 24 22  1  0
 25 24  1  0
 26 24  2  0
M  END
$$$$
