VPR.pdb
     RDKit          3D

 26 26  0  0  1  0  0  0  0  0999 V2000
    7.1857  -17.3023   17.4157 C   0  0  0  0  0  0  0  0  0  0  0  0
    8.2573  -17.1145   16.3938 C   0  0  1  0  0  0  0  0  0  0  0  0
    7.8118  -17.4973   14.9993 C   0  0  0  0  0  0  0  0  0  0  0  0
    8.8267  -15.7003   16.4141 C   0  0  2  0  0  0  0  0  0  0  0  0
    9.7302  -15.6045   15.3356 N   0  0  0  0  0  0  0  0  0  0  0  0
    9.2899  -15.3506   17.7470 C   0  0  0  0  0  0  0  0  0  0  0  0
   10.4403  -15.8193   18.1221 O   0  0  0  0  0  0  0  0  0  0  0  0
    8.6063  -14.5496   18.6732 N   0  0  0  0  0  0  0  0  0  0  0  0
    7.2853  -14.0252   18.5836 C   0  0  0  0  0  0  0  0  0  0  0  0
    7.4664  -12.6013   19.1478 C   0  0  0  0  0  0  0  0  0  0  0  0
    8.3088  -12.9220   20.3644 C   0  0  0  0  0  0  0  0  0  0  0  0
    9.1350  -14.1000   19.9657 C   0  0  1  0  0  0  0  0  0  0  0  0
    9.0913  -15.1808   20.9687 C   0  0  0  0  0  0  0  0  0  0  0  0
    8.3858  -16.1914   20.7237 O   0  0  0  0  0  0  0  0  0  0  0  0
   12.6669  -21.3902   24.1998 N   0  0  0  0  0  0  0  0  0  0  0  0
   13.1042  -21.2243   22.8402 C   0  0  0  0  0  0  0  0  0  0  0  0
   14.1381  -21.8727   22.4639 N   0  0  0  0  0  0  0  0  0  0  0  0
   12.3925  -20.3687   21.9699 N   0  0  0  0  0  0  0  0  0  0  0  0
   11.2714  -19.5991   22.4065 C   0  0  0  0  0  0  0  0  0  0  0  0
   11.5901  -18.2584   22.9639 C   0  0  0  0  0  0  0  0  0  0  0  0
   11.0610  -17.0749   22.2496 C   0  0  0  0  0  0  0  0  0  0  0  0
   10.0681  -16.2406   22.9858 C   0  0  2  0  0  0  0  0  0  0  0  0
    9.8413  -15.0429   22.1651 N   0  0  0  0  0  0  0  0  0  0  0  0
   10.6787  -15.8183   24.2894 C   0  0  0  0  0  0  0  0  0  0  0  0
   10.4942  -16.5838   25.4256 O   0  0  0  0  0  0  0  0  0  0  0  0
   11.3642  -14.7780   24.3930 O   0  0  0  0  0  0  0  0  0  0  0  0
  2  3  1  6
  2  1  1  0
  4  5  1  6
  4  2  1  0
  6  4  1  0
  7  6  2  0
  8  9  1  0
  8  6  1  0
 10  9  1  0
 11 12  1  0
 11 10  1  0
 12  8  1  0
 13 14  2  0
 12 13  1  1
 16 17  2  0
 16 15  1  0
 18 16  1  0
 19 18  1  0
 20 19  1  0
 20 21  1  0
 22 21  1  6
 22 23  1  0
 23 13  1  0
 24 22  1  0
 25 24  1  0
 26 24  2  0
M  END
$$$$
