VPR.pdb
     RDKit          3D

 26 26  0  0  1  0  0  0  0  0999 V2000
    6.3762  -11.0773   26.6552 C   0  0  0  0  0  0  0  0  0  0  0  0
    7.0402  -12.2118   25.9482 C   0  0  1  0  0  0  0  0  0  0  0  0
    7.9247  -13.0342   26.8599 C   0  0  0  0  0  0  0  0  0  0  0  0
    6.0368  -13.0984   25.2190 C   0  0  2  0  0  0  0  0  0  0  0  0
    5.1532  -13.6078   26.1928 N   0  0  0  0  0  0  0  0  0  0  0  0
    6.7192  -14.0318   24.3379 C   0  0  0  0  0  0  0  0  0  0  0  0
    6.6571  -15.2925   24.6390 O   0  0  0  0  0  0  0  0  0  0  0  0
    7.4445  -13.6970   23.1852 N   0  0  0  0  0  0  0  0  0  0  0  0
    7.7788  -12.4020   22.6959 C   0  0  0  0  0  0  0  0  0  0  0  0
    7.5646  -12.5675   21.1776 C   0  0  0  0  0  0  0  0  0  0  0  0
    8.2587  -13.8974   20.9729 C   0  0  0  0  0  0  0  0  0  0  0  0
    8.0343  -14.6525   22.2412 C   0  0  1  0  0  0  0  0  0  0  0  0
    9.2800  -15.2350   22.7750 C   0  0  0  0  0  0  0  0  0  0  0  0
   10.0142  -14.5119   23.4941 O   0  0  0  0  0  0  0  0  0  0  0  0
    9.2677  -20.0781   28.3490 N   0  0  0  0  0  0  0  0  0  0  0  0
    8.0472  -19.8540   27.6225 C   0  0  0  0  0  0  0  0  0  0  0  0
    6.9452  -20.0978   28.2201 N   0  0  0  0  0  0  0  0  0  0  0  0
    8.0950  -19.3762   26.2939 N   0  0  0  0  0  0  0  0  0  0  0  0
    9.3081  -19.3382   25.5410 C   0  0  0  0  0  0  0  0  0  0  0  0
    9.1868  -18.8209   24.1526 C   0  0  0  0  0  0  0  0  0  0  0  0
   10.4368  -18.5951   23.3930 C   0  0  0  0  0  0  0  0  0  0  0  0
   10.7878  -17.1771   23.0928 C   0  0  2  0  0  0  0  0  0  0  0  0
    9.6031  -16.5803   22.4606 N   0  0  0  0  0  0  0  0  0  0  0  0
   11.9142  -17.1679   22.1021 C   0  0  0  0  0  0  0  0  0  0  0  0
   11.6633  -16.9270   20.7642 O   0  0  0  0  0  0  0  0  0  0  0  0
   13.0987  -17.3737   22.4447 O   0  0  0  0  0  0  0  0  0  0  0  0
  2  3  1  1
  2  1  1  0
  4  5  1  1
  4  2  1  0
  6  4  1  0
  7  6  2  0
  8  9  1  0
  8  6  1  0
 10  9  1  0
 11 12  1  0
 11 10  1  0
 12  8  1  0
 13 14  2  0
 12 13  1  1
 16 17  2  0
 16 15  1  0
 18 16  1  0
 19 18  1  0
 20 19  1  0
 20 21  1  0
 22 21  1  6
 22 23  1  0
 23 13  1  0
 24 22  1  0
 25 24  1  0
 26 24  2  0
M  END
$$$$
