VPR.pdb
     RDKit          3D

 26 26  0  0  1  0  0  0  0  0999 V2000
    3.9205  -17.6418   19.3238 C   0  0  0  0  0  0  0  0  0  0  0  0
    5.2688  -17.2405   19.8228 C   0  0  1  0  0  0  0  0  0  0  0  0
    5.9152  -18.3025   20.6854 C   0  0  0  0  0  0  0  0  0  0  0  0
    6.1977  -16.8210   18.6888 C   0  0  2  0  0  0  0  0  0  0  0  0
    6.2008  -17.8720   17.7487 N   0  0  0  0  0  0  0  0  0  0  0  0
    7.4687  -16.3479   19.2125 C   0  0  0  0  0  0  0  0  0  0  0  0
    8.4800  -17.1585   19.1494 O   0  0  0  0  0  0  0  0  0  0  0  0
    7.7074  -15.0898   19.7843 N   0  0  0  0  0  0  0  0  0  0  0  0
    6.7646  -14.0735   20.1106 C   0  0  0  0  0  0  0  0  0  0  0  0
    7.5090  -12.7943   19.6771 C   0  0  0  0  0  0  0  0  0  0  0  0
    8.8715  -13.0878   20.2685 C   0  0  0  0  0  0  0  0  0  0  0  0
    9.0192  -14.5713   20.1872 C   0  0  1  0  0  0  0  0  0  0  0  0
    9.4604  -15.1618   21.4650 C   0  0  0  0  0  0  0  0  0  0  0  0
    8.5829  -15.4955   22.3003 O   0  0  0  0  0  0  0  0  0  0  0  0
   13.6352  -21.8740   24.7658 N   0  0  0  0  0  0  0  0  0  0  0  0
   12.5760  -21.5955   23.8341 C   0  0  0  0  0  0  0  0  0  0  0  0
   12.6462  -22.1288   22.6758 N   0  0  0  0  0  0  0  0  0  0  0  0
   11.5034  -20.7588   24.2153 N   0  0  0  0  0  0  0  0  0  0  0  0
   10.9662  -19.7636   23.3431 C   0  0  0  0  0  0  0  0  0  0  0  0
   11.9242  -18.7208   22.8908 C   0  0  0  0  0  0  0  0  0  0  0  0
   11.3923  -17.6104   22.0693 C   0  0  0  0  0  0  0  0  0  0  0  0
   11.2641  -16.2854   22.7417 C   0  0  2  0  0  0  0  0  0  0  0  0
   10.8485  -15.3311   21.7044 N   0  0  0  0  0  0  0  0  0  0  0  0
   12.6160  -15.8801   23.2503 C   0  0  0  0  0  0  0  0  0  0  0  0
   12.9820  -16.1581   24.5540 O   0  0  0  0  0  0  0  0  0  0  0  0
   13.4452  -15.2875   22.5263 O   0  0  0  0  0  0  0  0  0  0  0  0
  2  3  1  6
  2  1  1  0
  4  5  1  6
  4  2  1  0
  6  4  1  0
  7  6  2  0
  8  9  1  0
  8  6  1  0
 10  9  1  0
 11 12  1  0
 11 10  1  0
 12  8  1  0
 13 14  2  0
 12 13  1  1
 16 17  2  0
 16 15  1  0
 18 16  1  0
 19 18  1  0
 20 19  1  0
 20 21  1  0
 22 21  1  6
 22 23  1  0
 23 13  1  0
 24 22  1  0
 25 24  1  0
 26 24  2  0
M  END
$$$$
