DVF.pdb
     RDKit          3D

 27 27  0  0  1  0  0  0  0  0999 V2000
   44.8545   -9.2384   -4.2490 N   0  0  0  0  0  0  0  0  0  0  0  0
   43.5840   -9.5329   -4.8704 C   0  0  1  0  0  0  0  0  0  0  0  0
   42.6822   -8.3439   -4.6475 C   0  0  0  0  0  0  0  0  0  0  0  0
   42.4139   -8.2479   -3.1932 C   0  0  0  0  0  0  0  0  0  0  0  0
   42.0351   -9.2282   -2.5055 O   0  0  0  0  0  0  0  0  0  0  0  0
   43.7877   -9.8424   -6.2855 C   0  0  0  0  0  0  0  0  0  0  0  0
   44.6878   -9.2325   -6.9175 O   0  0  0  0  0  0  0  0  0  0  0  0
   42.5833   -7.0320   -2.5503 O   0  0  0  0  0  0  0  0  0  0  0  0
   44.8990  -12.8090   -7.9194 C   0  0  0  0  0  0  0  0  0  0  0  0
   43.6654  -12.4433   -8.6953 C   0  0  2  0  0  0  0  0  0  0  0  0
   43.8782  -12.5321  -10.1878 C   0  0  0  0  0  0  0  0  0  0  0  0
   43.2318  -11.0038   -8.3815 C   0  0  2  0  0  0  0  0  0  0  0  0
   43.0020  -10.8169   -6.9903 N   0  0  0  0  0  0  0  0  0  0  0  0
   42.0074  -10.7793   -9.2052 C   0  0  0  0  0  0  0  0  0  0  0  0
   41.2843  -11.7740   -9.4466 O   0  0  0  0  0  0  0  0  0  0  0  0
   41.6612   -9.4952   -9.7039 N   0  0  0  0  0  0  0  0  0  0  0  0
   40.4672   -9.2665  -10.5046 C   0  0  1  0  0  0  0  0  0  0  0  0
   39.5018   -8.4668   -9.6463 C   0  0  0  0  0  0  0  0  0  0  0  0
   38.9785   -9.2592   -8.5074 C   0  0  0  0  0  0  0  0  0  0  0  0
   38.6779  -10.5854   -8.6987 C   0  0  0  0  0  0  0  0  0  0  0  0
   38.1853  -11.3327   -7.6249 C   0  0  0  0  0  0  0  0  0  0  0  0
   38.0027  -10.7439   -6.3853 C   0  0  0  0  0  0  0  0  0  0  0  0
   38.3098   -9.3942   -6.1955 C   0  0  0  0  0  0  0  0  0  0  0  0
   38.7931   -8.6891   -7.2758 C   0  0  0  0  0  0  0  0  0  0  0  0
   40.7674   -8.4300  -11.6971 C   0  0  0  0  0  0  0  0  0  0  0  0
   39.8429   -8.1732  -12.6672 O   0  0  0  0  0  0  0  0  0  0  0  0
   41.9292   -7.9544  -11.7867 O   0  0  0  0  0  0  0  0  0  0  0  0
  2  3  1  0
  2  1  1  6
  4  3  1  0
  4  8  1  0
  5  4  2  0
  6  2  1  0
  7  6  2  0
 10  9  1  1
 10 12  1  0
 11 10  1  0
 12 13  1  1
 13  6  1  0
 14 12  1  0
 14 16  1  0
 15 14  2  0
 17 16  1  0
 17 25  1  0
 17 18  1  1
 19 18  1  0
 19 20  2  0
 21 20  1  0
 22 21  2  0
 23 24  2  0
 23 22  1  0
 24 19  1  0
 25 26  1  0
 27 25  2  0
M  END
$$$$
