DVF.pdb
     RDKit          3D

 27 27  0  0  1  0  0  0  0  0999 V2000
   18.7529  -12.8060  -18.2701 N   0  0  0  0  0  0  0  0  0  0  0  0
   18.2847  -11.9444  -17.2092 C   0  0  1  0  0  0  0  0  0  0  0  0
   18.5489  -12.6487  -15.9012 C   0  0  0  0  0  0  0  0  0  0  0  0
   17.5738  -13.7582  -15.7816 C   0  0  0  0  0  0  0  0  0  0  0  0
   17.8727  -14.9547  -16.0195 O   0  0  0  0  0  0  0  0  0  0  0  0
   18.9447  -10.6424  -17.3044 C   0  0  0  0  0  0  0  0  0  0  0  0
   20.1605  -10.5993  -17.6228 O   0  0  0  0  0  0  0  0  0  0  0  0
   16.2733  -13.4803  -15.3922 O   0  0  0  0  0  0  0  0  0  0  0  0
   16.9644   -6.6922  -17.4985 C   0  0  0  0  0  0  0  0  0  0  0  0
   18.1737   -7.2442  -18.1988 C   0  0  2  0  0  0  0  0  0  0  0  0
   17.8115   -8.0346  -19.4336 C   0  0  0  0  0  0  0  0  0  0  0  0
   18.9589   -8.1827  -17.2709 C   0  0  2  0  0  0  0  0  0  0  0  0
   18.2635   -9.4036  -17.0494 N   0  0  0  0  0  0  0  0  0  0  0  0
   19.1694   -7.4013  -16.0167 C   0  0  0  0  0  0  0  0  0  0  0  0
   18.3219   -7.5371  -15.1034 O   0  0  0  0  0  0  0  0  0  0  0  0
   20.2810   -6.5332  -15.8488 N   0  0  0  0  0  0  0  0  0  0  0  0
   20.4973   -5.7721  -14.6268 C   0  0  1  0  0  0  0  0  0  0  0  0
   21.7958   -6.2708  -14.0156 C   0  0  0  0  0  0  0  0  0  0  0  0
   22.9273   -6.1986  -14.9714 C   0  0  0  0  0  0  0  0  0  0  0  0
   23.6371   -5.0280  -15.0786 C   0  0  0  0  0  0  0  0  0  0  0  0
   24.7043   -4.9600  -15.9790 C   0  0  0  0  0  0  0  0  0  0  0  0
   25.0411   -6.0578  -16.7523 C   0  0  0  0  0  0  0  0  0  0  0  0
   24.3158   -7.2467  -16.6398 C   0  0  0  0  0  0  0  0  0  0  0  0
   23.2710   -7.2772  -15.7424 C   0  0  0  0  0  0  0  0  0  0  0  0
   20.6928   -4.3266  -14.9170 C   0  0  0  0  0  0  0  0  0  0  0  0
   20.7518   -3.3807  -13.9354 O   0  0  0  0  0  0  0  0  0  0  0  0
   20.8048   -3.9940  -16.1257 O   0  0  0  0  0  0  0  0  0  0  0  0
  2  3  1  0
  2  1  1  6
  4  3  1  0
  4  8  1  0
  5  4  2  0
  6  2  1  0
  7  6  2  0
 10  9  1  1
 10 12  1  0
 11 10  1  0
 12 13  1  1
 13  6  1  0
 14 12  1  0
 14 16  1  0
 15 14  2  0
 17 16  1  0
 17 25  1  0
 17 18  1  6
 19 18  1  0
 19 20  2  0
 21 20  1  0
 22 21  2  0
 23 24  2  0
 23 22  1  0
 24 19  1  0
 25 26  1  0
 27 25  2  0
M  END
$$$$
