DVF.pdb
     RDKit          3D

 27 27  0  0  1  0  0  0  0  0999 V2000
   18.6001  -12.2222  -18.3175 N   0  0  0  0  0  0  0  0  0  0  0  0
   19.0145  -11.5716  -17.0960 C   0  0  1  0  0  0  0  0  0  0  0  0
   20.3707  -12.1200  -16.7262 C   0  0  0  0  0  0  0  0  0  0  0  0
   20.1728  -13.4861  -16.1870 C   0  0  0  0  0  0  0  0  0  0  0  0
   19.9017  -13.7085  -14.9809 O   0  0  0  0  0  0  0  0  0  0  0  0
   19.0132  -10.1212  -17.2854 C   0  0  0  0  0  0  0  0  0  0  0  0
   19.5756   -9.6407  -18.3024 O   0  0  0  0  0  0  0  0  0  0  0  0
   20.2887  -14.5748  -17.0365 O   0  0  0  0  0  0  0  0  0  0  0  0
   16.3597   -7.6400  -17.9738 C   0  0  0  0  0  0  0  0  0  0  0  0
   17.0533   -7.1997  -16.7158 C   0  0  2  0  0  0  0  0  0  0  0  0
   17.2200   -5.7003  -16.6465 C   0  0  0  0  0  0  0  0  0  0  0  0
   18.4555   -7.8190  -16.6219 C   0  0  2  0  0  0  0  0  0  0  0  0
   18.3953   -9.2153  -16.3574 N   0  0  0  0  0  0  0  0  0  0  0  0
   19.1454   -7.0549  -15.5413 C   0  0  0  0  0  0  0  0  0  0  0  0
   18.7175   -7.1957  -14.3718 O   0  0  0  0  0  0  0  0  0  0  0  0
   20.2451   -6.1972  -15.8108 N   0  0  0  0  0  0  0  0  0  0  0  0
   20.9446   -5.4735  -14.7589 C   0  0  1  0  0  0  0  0  0  0  0  0
   22.3915   -5.9361  -14.7866 C   0  0  0  0  0  0  0  0  0  0  0  0
   22.5242   -7.3762  -14.4591 C   0  0  0  0  0  0  0  0  0  0  0  0
   22.9320   -8.2488  -15.4379 C   0  0  0  0  0  0  0  0  0  0  0  0
   23.0579   -9.6063  -15.1290 C   0  0  0  0  0  0  0  0  0  0  0  0
   22.7752  -10.0651  -13.8538 C   0  0  0  0  0  0  0  0  0  0  0  0
   22.3604   -9.1736  -12.8613 C   0  0  0  0  0  0  0  0  0  0  0  0
   22.2476   -7.8434  -13.2016 C   0  0  0  0  0  0  0  0  0  0  0  0
   20.9616   -4.0109  -15.0277 C   0  0  0  0  0  0  0  0  0  0  0  0
   21.3671   -3.0970  -14.0992 O   0  0  0  0  0  0  0  0  0  0  0  0
   20.5811   -3.6321  -16.1660 O   0  0  0  0  0  0  0  0  0  0  0  0
  2  3  1  0
  2  1  1  6
  4  3  1  0
  4  8  1  0
  5  4  2  0
  6  2  1  0
  7  6  2  0
 10  9  1  6
 10 12  1  0
 11 10  1  0
 12 13  1  1
 13  6  1  0
 14 12  1  0
 14 16  1  0
 15 14  2  0
 17 16  1  0
 17 25  1  0
 17 18  1  6
 19 18  1  0
 19 20  2  0
 21 20  1  0
 22 21  2  0
 23 24  2  0
 23 22  1  0
 24 19  1  0
 25 26  1  0
 27 25  2  0
M  END
$$$$
