DVF.pdb
     RDKit          3D

 27 27  0  0  1  0  0  0  0  0999 V2000
   13.8385  -10.3934    8.1320 N   0  0  0  0  0  0  0  0  0  0  0  0
   15.0812  -10.8215    8.7315 C   0  0  1  0  0  0  0  0  0  0  0  0
   14.7595  -11.3795   10.0961 C   0  0  0  0  0  0  0  0  0  0  0  0
   14.6401  -10.2378   11.0333 C   0  0  0  0  0  0  0  0  0  0  0  0
   14.8171   -9.0459   10.6791 O   0  0  0  0  0  0  0  0  0  0  0  0
   15.7428  -11.7891    7.8563 C   0  0  0  0  0  0  0  0  0  0  0  0
   15.0375  -12.5137    7.1087 O   0  0  0  0  0  0  0  0  0  0  0  0
   14.3206  -10.4789   12.3600 O   0  0  0  0  0  0  0  0  0  0  0  0
   18.7857  -10.9621    5.6022 C   0  0  0  0  0  0  0  0  0  0  0  0
   19.0259  -12.2946    6.2536 C   0  0  2  0  0  0  0  0  0  0  0  0
   19.5403  -13.3264    5.2782 C   0  0  0  0  0  0  0  0  0  0  0  0
   17.7268  -12.8469    6.8584 C   0  0  2  0  0  0  0  0  0  0  0  0
   17.1696  -11.9502    7.8117 N   0  0  0  0  0  0  0  0  0  0  0  0
   18.1048  -14.1623    7.4539 C   0  0  0  0  0  0  0  0  0  0  0  0
   18.7659  -14.1450    8.5185 O   0  0  0  0  0  0  0  0  0  0  0  0
   17.7379  -15.3946    6.8502 N   0  0  0  0  0  0  0  0  0  0  0  0
   17.9210  -16.6746    7.5191 C   0  0  1  0  0  0  0  0  0  0  0  0
   16.9851  -16.6894    8.7159 C   0  0  0  0  0  0  0  0  0  0  0  0
   17.1189  -17.9316    9.5146 C   0  0  0  0  0  0  0  0  0  0  0  0
   18.1948  -18.0718   10.3563 C   0  0  0  0  0  0  0  0  0  0  0  0
   18.3205  -19.2424   11.1099 C   0  0  0  0  0  0  0  0  0  0  0  0
   17.3734  -20.2471   11.0091 C   0  0  0  0  0  0  0  0  0  0  0  0
   16.2805  -20.1000   10.1512 C   0  0  0  0  0  0  0  0  0  0  0  0
   16.1891  -18.9333    9.4243 C   0  0  0  0  0  0  0  0  0  0  0  0
   17.5098  -17.8055    6.6452 C   0  0  0  0  0  0  0  0  0  0  0  0
   18.0394  -19.0574    6.7641 O   0  0  0  0  0  0  0  0  0  0  0  0
   16.6367  -17.5669    5.7705 O   0  0  0  0  0  0  0  0  0  0  0  0
  2  3  1  0
  2  1  1  6
  4  3  1  0
  4  8  1  0
  5  4  2  0
  6  2  1  0
  7  6  2  0
 10  9  1  6
 10 12  1  0
 11 10  1  0
 12 13  1  1
 13  6  1  0
 14 12  1  0
 14 16  1  0
 15 14  2  0
 17 16  1  0
 17 25  1  0
 17 18  1  1
 19 18  1  0
 19 20  2  0
 21 20  1  0
 22 21  2  0
 23 24  2  0
 23 22  1  0
 24 19  1  0
 25 26  1  0
 27 25  2  0
M  END
$$$$
