DVF.pdb
     RDKit          3D

 27 27  0  0  1  0  0  0  0  0999 V2000
   16.8356  -11.0248  -16.6487 N   0  0  0  0  0  0  0  0  0  0  0  0
   17.9425  -10.3501  -17.2863 C   0  0  1  0  0  0  0  0  0  0  0  0
   17.3864   -9.1494  -18.0114 C   0  0  0  0  0  0  0  0  0  0  0  0
   16.5851   -9.6447  -19.1553 C   0  0  0  0  0  0  0  0  0  0  0  0
   17.0931  -10.2581  -20.1265 O   0  0  0  0  0  0  0  0  0  0  0  0
   18.9497  -10.0009  -16.2846 C   0  0  0  0  0  0  0  0  0  0  0  0
   18.5717   -9.6819  -15.1284 O   0  0  0  0  0  0  0  0  0  0  0  0
   15.2161   -9.4299  -19.1691 O   0  0  0  0  0  0  0  0  0  0  0  0
   22.0039  -12.0135  -15.1163 C   0  0  0  0  0  0  0  0  0  0  0  0
   22.4573  -10.6238  -15.4638 C   0  0  2  0  0  0  0  0  0  0  0  0
   23.4336  -10.0688  -14.4542 C   0  0  0  0  0  0  0  0  0  0  0  0
   21.2630   -9.6599  -15.5206 C   0  0  2  0  0  0  0  0  0  0  0  0
   20.3591  -10.0059  -16.5629 N   0  0  0  0  0  0  0  0  0  0  0  0
   21.8653   -8.3065  -15.7030 C   0  0  0  0  0  0  0  0  0  0  0  0
   22.5138   -8.1008  -16.7556 O   0  0  0  0  0  0  0  0  0  0  0  0
   21.7191   -7.2808  -14.7314 N   0  0  0  0  0  0  0  0  0  0  0  0
   22.3649   -5.9830  -14.8656 C   0  0  1  0  0  0  0  0  0  0  0  0
   21.7550   -5.3057  -16.0811 C   0  0  0  0  0  0  0  0  0  0  0  0
   20.3892   -4.7956  -15.8101 C   0  0  0  0  0  0  0  0  0  0  0  0
   20.2359   -3.5148  -15.3393 C   0  0  0  0  0  0  0  0  0  0  0  0
   18.9484   -3.0337  -15.0846 C   0  0  0  0  0  0  0  0  0  0  0  0
   17.8427   -3.8373  -15.3039 C   0  0  0  0  0  0  0  0  0  0  0  0
   18.0037   -5.1399  -15.7828 C   0  0  0  0  0  0  0  0  0  0  0  0
   19.2868   -5.5803  -16.0227 C   0  0  0  0  0  0  0  0  0  0  0  0
   22.0691   -5.1083  -13.6996 C   0  0  0  0  0  0  0  0  0  0  0  0
   22.6741   -3.8995  -13.5147 O   0  0  0  0  0  0  0  0  0  0  0  0
   21.2226   -5.5275  -12.8678 O   0  0  0  0  0  0  0  0  0  0  0  0
  2  3  1  0
  2  1  1  1
  4  3  1  0
  4  8  1  0
  5  4  2  0
  6  2  1  0
  7  6  2  0
 10  9  1  1
 10 12  1  0
 11 10  1  0
 12 13  1  6
 13  6  1  0
 14 12  1  0
 14 16  1  0
 15 14  2  0
 17 16  1  0
 17 25  1  0
 17 18  1  6
 19 18  1  0
 19 20  2  0
 21 20  1  0
 22 21  2  0
 23 24  2  0
 23 22  1  0
 24 19  1  0
 25 26  1  0
 27 25  2  0
M  END
$$$$
