DVF.pdb
     RDKit          3D

 27 27  0  0  1  0  0  0  0  0999 V2000
   21.9190  -21.7253  -14.0917 N   0  0  0  0  0  0  0  0  0  0  0  0
   22.2632  -20.7227  -13.1103 C   0  0  1  0  0  0  0  0  0  0  0  0
   21.0476  -20.4968  -12.2453 C   0  0  0  0  0  0  0  0  0  0  0  0
   20.2999  -19.3485  -12.8096 C   0  0  0  0  0  0  0  0  0  0  0  0
   20.3949  -19.0002  -14.0125 O   0  0  0  0  0  0  0  0  0  0  0  0
   23.4356  -21.1580  -12.3516 C   0  0  0  0  0  0  0  0  0  0  0  0
   23.3909  -22.2566  -11.7413 O   0  0  0  0  0  0  0  0  0  0  0  0
   19.4561  -18.6180  -11.9881 O   0  0  0  0  0  0  0  0  0  0  0  0
   26.9180  -21.4369  -13.7299 C   0  0  0  0  0  0  0  0  0  0  0  0
   27.0552  -20.7827  -12.3842 C   0  0  2  0  0  0  0  0  0  0  0  0
   28.1664  -21.3897  -11.5612 C   0  0  0  0  0  0  0  0  0  0  0  0
   25.7580  -20.9256  -11.5747 C   0  0  2  0  0  0  0  0  0  0  0  0
   24.6428  -20.3834  -12.2714 N   0  0  0  0  0  0  0  0  0  0  0  0
   26.0280  -20.2278  -10.2832 C   0  0  0  0  0  0  0  0  0  0  0  0
   25.9281  -18.9786  -10.2706 O   0  0  0  0  0  0  0  0  0  0  0  0
   26.3857  -20.9367   -9.1055 N   0  0  0  0  0  0  0  0  0  0  0  0
   26.7208  -20.2603   -7.8606 C   0  0  1  0  0  0  0  0  0  0  0  0
   27.1103  -21.3356   -6.8605 C   0  0  0  0  0  0  0  0  0  0  0  0
   27.7494  -20.7671   -5.6492 C   0  0  0  0  0  0  0  0  0  0  0  0
   27.4838  -21.3323   -4.4262 C   0  0  0  0  0  0  0  0  0  0  0  0
   28.0870  -20.7969   -3.2844 C   0  0  0  0  0  0  0  0  0  0  0  0
   28.9404  -19.7115   -3.3849 C   0  0  0  0  0  0  0  0  0  0  0  0
   29.2075  -19.1397   -4.6314 C   0  0  0  0  0  0  0  0  0  0  0  0
   28.5957  -19.6934   -5.7346 C   0  0  0  0  0  0  0  0  0  0  0  0
   27.9103  -19.3829   -8.0248 C   0  0  0  0  0  0  0  0  0  0  0  0
   27.9679  -18.1186   -7.5150 O   0  0  0  0  0  0  0  0  0  0  0  0
   28.8868  -19.8536   -8.6644 O   0  0  0  0  0  0  0  0  0  0  0  0
  2  3  1  0
  2  1  1  6
  4  3  1  0
  4  8  1  0
  5  4  2  0
  6  2  1  0
  7  6  2  0
 10  9  1  6
 10 12  1  0
 11 10  1  0
 12 13  1  6
 13  6  1  0
 14 12  1  0
 14 16  1  0
 15 14  2  0
 17 16  1  0
 17 25  1  0
 17 18  1  1
 19 18  1  0
 19 20  2  0
 21 20  1  0
 22 21  2  0
 23 24  2  0
 23 22  1  0
 24 19  1  0
 25 26  1  0
 27 25  2  0
M  END
$$$$
