DVF.pdb
     RDKit          3D

 27 27  0  0  1  0  0  0  0  0999 V2000
   20.4900  -11.5025  -19.7664 N   0  0  0  0  0  0  0  0  0  0  0  0
   21.5633  -10.5808  -19.4739 C   0  0  1  0  0  0  0  0  0  0  0  0
   21.4999   -9.4705  -20.4937 C   0  0  0  0  0  0  0  0  0  0  0  0
   22.0353   -9.9997  -21.7702 C   0  0  0  0  0  0  0  0  0  0  0  0
   22.8120  -10.9851  -21.8253 O   0  0  0  0  0  0  0  0  0  0  0  0
   21.4414  -10.1037  -18.0965 C   0  0  0  0  0  0  0  0  0  0  0  0
   20.2945   -9.8920  -17.6260 O   0  0  0  0  0  0  0  0  0  0  0  0
   21.6732   -9.3925  -22.9621 O   0  0  0  0  0  0  0  0  0  0  0  0
   22.5295  -11.7618  -15.0173 C   0  0  0  0  0  0  0  0  0  0  0  0
   23.0506  -10.3574  -14.9009 C   0  0  2  0  0  0  0  0  0  0  0  0
   22.8192   -9.7707  -13.5287 C   0  0  0  0  0  0  0  0  0  0  0  0
   22.3580   -9.4341  -15.9141 C   0  0  2  0  0  0  0  0  0  0  0  0
   22.5785   -9.8645  -17.2518 N   0  0  0  0  0  0  0  0  0  0  0  0
   22.9145   -8.0757  -15.6445 C   0  0  0  0  0  0  0  0  0  0  0  0
   24.0764   -7.8375  -16.0492 O   0  0  0  0  0  0  0  0  0  0  0  0
   22.1697   -7.0804  -14.9572 N   0  0  0  0  0  0  0  0  0  0  0  0
   22.6688   -5.7259  -14.7681 C   0  0  1  0  0  0  0  0  0  0  0  0
   22.7912   -5.1000  -16.1470 C   0  0  0  0  0  0  0  0  0  0  0  0
   21.4675   -4.8482  -16.7661 C   0  0  0  0  0  0  0  0  0  0  0  0
   20.7755   -3.7125  -16.4241 C   0  0  0  0  0  0  0  0  0  0  0  0
   19.5280   -3.4747  -17.0082 C   0  0  0  0  0  0  0  0  0  0  0  0
   18.9970   -4.3719  -17.9190 C   0  0  0  0  0  0  0  0  0  0  0  0
   19.7046   -5.5262  -18.2637 C   0  0  0  0  0  0  0  0  0  0  0  0
   20.9306   -5.7278  -17.6685 C   0  0  0  0  0  0  0  0  0  0  0  0
   21.6985   -4.8929  -14.0088 C   0  0  0  0  0  0  0  0  0  0  0  0
   21.9948   -3.6360  -13.5682 O   0  0  0  0  0  0  0  0  0  0  0  0
   20.5675   -5.3951  -13.7791 O   0  0  0  0  0  0  0  0  0  0  0  0
  2  3  1  0
  2  1  1  6
  4  3  1  0
  4  8  1  0
  5  4  2  0
  6  2  1  0
  7  6  2  0
 10  9  1  1
 10 12  1  0
 11 10  1  0
 12 13  1  6
 13  6  1  0
 14 12  1  0
 14 16  1  0
 15 14  2  0
 17 16  1  0
 17 25  1  0
 17 18  1  6
 19 18  1  0
 19 20  2  0
 21 20  1  0
 22 21  2  0
 23 24  2  0
 23 22  1  0
 24 19  1  0
 25 26  1  0
 27 25  2  0
M  END
$$$$
