DVF.pdb
     RDKit          3D

 27 27  0  0  1  0  0  0  0  0999 V2000
   24.3828  -23.4399  -21.3962 N   0  0  0  0  0  0  0  0  0  0  0  0
   23.5641  -22.2821  -21.1202 C   0  0  1  0  0  0  0  0  0  0  0  0
   22.1237  -22.6863  -21.3168 C   0  0  0  0  0  0  0  0  0  0  0  0
   21.6718  -22.1287  -22.6133 C   0  0  0  0  0  0  0  0  0  0  0  0
   22.4641  -21.6400  -23.4564 O   0  0  0  0  0  0  0  0  0  0  0  0
   23.8442  -21.7909  -19.7711 C   0  0  0  0  0  0  0  0  0  0  0  0
   24.4990  -22.5197  -18.9829 O   0  0  0  0  0  0  0  0  0  0  0  0
   20.3212  -22.1394  -22.9234 O   0  0  0  0  0  0  0  0  0  0  0  0
   25.7568  -18.7748  -18.8584 C   0  0  0  0  0  0  0  0  0  0  0  0
   24.4919  -18.7073  -18.0503 C   0  0  2  0  0  0  0  0  0  0  0  0
   24.7445  -18.2865  -16.6221 C   0  0  0  0  0  0  0  0  0  0  0  0
   23.8003  -20.0778  -18.0062 C   0  0  2  0  0  0  0  0  0  0  0  0
   23.4027  -20.5065  -19.3029 N   0  0  0  0  0  0  0  0  0  0  0  0
   22.6461  -19.9001  -17.0767 C   0  0  0  0  0  0  0  0  0  0  0  0
   21.8090  -19.0115  -17.3598 O   0  0  0  0  0  0  0  0  0  0  0  0
   22.4881  -20.6981  -15.9123 N   0  0  0  0  0  0  0  0  0  0  0  0
   21.4157  -20.4735  -14.9537 C   0  0  1  0  0  0  0  0  0  0  0  0
   20.8864  -21.8390  -14.5496 C   0  0  0  0  0  0  0  0  0  0  0  0
   19.7078  -21.7393  -13.6552 C   0  0  0  0  0  0  0  0  0  0  0  0
   19.8524  -22.0422  -12.3237 C   0  0  0  0  0  0  0  0  0  0  0  0
   18.7416  -21.9475  -11.4803 C   0  0  0  0  0  0  0  0  0  0  0  0
   17.5122  -21.5538  -11.9805 C   0  0  0  0  0  0  0  0  0  0  0  0
   17.3699  -21.2468  -13.3361 C   0  0  0  0  0  0  0  0  0  0  0  0
   18.4858  -21.3512  -14.1372 C   0  0  0  0  0  0  0  0  0  0  0  0
   21.9251  -19.8317  -13.7125 C   0  0  0  0  0  0  0  0  0  0  0  0
   21.1761  -18.9642  -12.9722 O   0  0  0  0  0  0  0  0  0  0  0  0
   23.0975  -20.1202  -13.3568 O   0  0  0  0  0  0  0  0  0  0  0  0
  2  3  1  0
  2  1  1  1
  4  3  1  0
  4  8  1  0
  5  4  2  0
  6  2  1  0
  7  6  2  0
 10  9  1  6
 10 12  1  0
 11 10  1  0
 12 13  1  6
 13  6  1  0
 14 12  1  0
 14 16  1  0
 15 14  2  0
 17 16  1  0
 17 25  1  0
 17 18  1  1
 19 18  1  0
 19 20  2  0
 21 20  1  0
 22 21  2  0
 23 24  2  0
 23 22  1  0
 24 19  1  0
 25 26  1  0
 27 25  2  0
M  END
$$$$
