DVF.pdb
     RDKit          3D

 27 27  0  0  1  0  0  0  0  0999 V2000
   21.1945  -20.6601  -13.5487 N   0  0  0  0  0  0  0  0  0  0  0  0
   21.5166  -20.1233  -12.2467 C   0  0  1  0  0  0  0  0  0  0  0  0
   20.3425  -20.3962  -11.3391 C   0  0  0  0  0  0  0  0  0  0  0  0
   19.1901  -19.6138  -11.8451 C   0  0  0  0  0  0  0  0  0  0  0  0
   17.9975  -19.9512  -11.6421 O   0  0  0  0  0  0  0  0  0  0  0  0
   22.7649  -20.7146  -11.7651 C   0  0  0  0  0  0  0  0  0  0  0  0
   22.7148  -21.5876  -10.8614 O   0  0  0  0  0  0  0  0  0  0  0  0
   19.4215  -18.4589  -12.5751 O   0  0  0  0  0  0  0  0  0  0  0  0
   25.9067  -21.7983  -14.0149 C   0  0  0  0  0  0  0  0  0  0  0  0
   26.3422  -21.0401  -12.7930 C   0  0  2  0  0  0  0  0  0  0  0  0
   27.5351  -21.6744  -12.1182 C   0  0  0  0  0  0  0  0  0  0  0  0
   25.2103  -20.9812  -11.7568 C   0  0  2  0  0  0  0  0  0  0  0  0
   24.0529  -20.3414  -12.2804 N   0  0  0  0  0  0  0  0  0  0  0  0
   25.7919  -20.2580  -10.5878 C   0  0  0  0  0  0  0  0  0  0  0  0
   25.7009  -19.0081  -10.5792 O   0  0  0  0  0  0  0  0  0  0  0  0
   26.4274  -20.9443   -9.5188 N   0  0  0  0  0  0  0  0  0  0  0  0
   27.2863  -20.2660   -8.5589 C   0  0  1  0  0  0  0  0  0  0  0  0
   26.6872  -20.4996   -7.1824 C   0  0  0  0  0  0  0  0  0  0  0  0
   27.5102  -19.8984   -6.1053 C   0  0  0  0  0  0  0  0  0  0  0  0
   28.2604  -20.7201   -5.3005 C   0  0  0  0  0  0  0  0  0  0  0  0
   29.0369  -20.1534   -4.2856 C   0  0  0  0  0  0  0  0  0  0  0  0
   29.0494  -18.7823   -4.0942 C   0  0  0  0  0  0  0  0  0  0  0  0
   28.2843  -17.9503   -4.9154 C   0  0  0  0  0  0  0  0  0  0  0  0
   27.5316  -18.5436   -5.9050 C   0  0  0  0  0  0  0  0  0  0  0  0
   28.6484  -20.8626   -8.5355 C   0  0  0  0  0  0  0  0  0  0  0  0
   29.7681  -20.1295   -8.2699 O   0  0  0  0  0  0  0  0  0  0  0  0
   28.7393  -22.0950   -8.7742 O   0  0  0  0  0  0  0  0  0  0  0  0
  2  3  1  0
  2  1  1  6
  4  3  1  0
  4  8  1  0
  5  4  2  0
  6  2  1  0
  7  6  2  0
 10  9  1  6
 10 12  1  0
 11 10  1  0
 12 13  1  6
 13  6  1  0
 14 12  1  0
 14 16  1  0
 15 14  2  0
 17 16  1  0
 17 25  1  0
 17 18  1  1
 19 18  1  0
 19 20  2  0
 21 20  1  0
 22 21  2  0
 23 24  2  0
 23 22  1  0
 24 19  1  0
 25 26  1  0
 27 25  2  0
M  END
$$$$
