DVF.pdb
     RDKit          3D

 27 27  0  0  1  0  0  0  0  0999 V2000
   27.0870  -35.7866   -1.6297 N   0  0  0  0  0  0  0  0  0  0  0  0
   27.1607  -34.4093   -1.2000 C   0  0  1  0  0  0  0  0  0  0  0  0
   26.2912  -33.5964   -2.1273 C   0  0  0  0  0  0  0  0  0  0  0  0
   27.0186  -33.4442   -3.4094 C   0  0  0  0  0  0  0  0  0  0  0  0
   28.1185  -34.0056   -3.6380 O   0  0  0  0  0  0  0  0  0  0  0  0
   26.7568  -34.3085    0.2023 C   0  0  0  0  0  0  0  0  0  0  0  0
   25.8973  -35.1118    0.6464 O   0  0  0  0  0  0  0  0  0  0  0  0
   26.4754  -32.6520   -4.4084 O   0  0  0  0  0  0  0  0  0  0  0  0
   29.0506  -33.2580    3.4237 C   0  0  0  0  0  0  0  0  0  0  0  0
   27.7364  -32.5314    3.3738 C   0  0  2  0  0  0  0  0  0  0  0  0
   27.0645  -32.4662    4.7248 C   0  0  0  0  0  0  0  0  0  0  0  0
   26.7633  -33.2318    2.4141 C   0  0  2  0  0  0  0  0  0  0  0  0
   27.3004  -33.3279    1.1006 N   0  0  0  0  0  0  0  0  0  0  0  0
   25.5122  -32.4196    2.4693 C   0  0  0  0  0  0  0  0  0  0  0  0
   24.8694  -32.4228    3.5451 O   0  0  0  0  0  0  0  0  0  0  0  0
   25.0540  -31.6671    1.3551 N   0  0  0  0  0  0  0  0  0  0  0  0
   23.8096  -30.9121    1.3838 C   0  0  1  0  0  0  0  0  0  0  0  0
   24.0509  -29.6267    0.6108 C   0  0  0  0  0  0  0  0  0  0  0  0
   22.8207  -28.8074    0.4908 C   0  0  0  0  0  0  0  0  0  0  0  0
   22.2958  -28.2220    1.6166 C   0  0  0  0  0  0  0  0  0  0  0  0
   21.1365  -27.4490    1.5035 C   0  0  0  0  0  0  0  0  0  0  0  0
   20.5256  -27.2760    0.2733 C   0  0  0  0  0  0  0  0  0  0  0  0
   21.0633  -27.8738   -0.8694 C   0  0  0  0  0  0  0  0  0  0  0  0
   22.2063  -28.6283   -0.7202 C   0  0  0  0  0  0  0  0  0  0  0  0
   22.7212  -31.6358    0.6743 C   0  0  0  0  0  0  0  0  0  0  0  0
   21.4037  -31.4771    0.9916 O   0  0  0  0  0  0  0  0  0  0  0  0
   23.0607  -32.4189   -0.2508 O   0  0  0  0  0  0  0  0  0  0  0  0
  2  3  1  0
  2  1  1  6
  4  3  1  0
  4  8  1  0
  5  4  2  0
  6  2  1  0
  7  6  2  0
 10  9  1  1
 10 12  1  0
 11 10  1  0
 12 13  1  6
 13  6  1  0
 14 12  1  0
 14 16  1  0
 15 14  2  0
 17 16  1  0
 17 25  1  0
 17 18  1  6
 19 18  1  0
 19 20  2  0
 21 20  1  0
 22 21  2  0
 23 24  2  0
 23 22  1  0
 24 19  1  0
 25 26  1  0
 27 25  2  0
M  END
$$$$
