DVF.pdb
     RDKit          3D

 27 27  0  0  1  0  0  0  0  0999 V2000
   26.0799  -35.6429  -13.7264 N   0  0  0  0  0  0  0  0  0  0  0  0
   24.8470  -35.3526  -13.0316 C   0  0  1  0  0  0  0  0  0  0  0  0
   25.1114  -35.5037  -11.5538 C   0  0  0  0  0  0  0  0  0  0  0  0
   25.2358  -36.9517  -11.2638 C   0  0  0  0  0  0  0  0  0  0  0  0
   25.1741  -37.8319  -12.1576 O   0  0  0  0  0  0  0  0  0  0  0  0
   24.3780  -34.0163  -13.3979 C   0  0  0  0  0  0  0  0  0  0  0  0
   24.9345  -33.4178  -14.3536 O   0  0  0  0  0  0  0  0  0  0  0  0
   25.4285  -37.3683   -9.9562 O   0  0  0  0  0  0  0  0  0  0  0  0
   23.1909  -32.8884  -15.6473 C   0  0  0  0  0  0  0  0  0  0  0  0
   22.1300  -32.4693  -14.6693 C   0  0  2  0  0  0  0  0  0  0  0  0
   21.4061  -31.2187  -15.1080 C   0  0  0  0  0  0  0  0  0  0  0  0
   22.7434  -32.1811  -13.2911 C   0  0  2  0  0  0  0  0  0  0  0  0
   23.3045  -33.3527  -12.7116 N   0  0  0  0  0  0  0  0  0  0  0  0
   21.6263  -31.6130  -12.4805 C   0  0  0  0  0  0  0  0  0  0  0  0
   20.6367  -32.3512  -12.2648 O   0  0  0  0  0  0  0  0  0  0  0  0
   21.6671  -30.2895  -11.9665 N   0  0  0  0  0  0  0  0  0  0  0  0
   20.6877  -29.7950  -11.0097 C   0  0  1  0  0  0  0  0  0  0  0  0
   21.4606  -29.1108   -9.8948 C   0  0  0  0  0  0  0  0  0  0  0  0
   22.2727  -30.0699   -9.1077 C   0  0  0  0  0  0  0  0  0  0  0  0
   21.6404  -30.9254   -8.2395 C   0  0  0  0  0  0  0  0  0  0  0  0
   22.4059  -31.8300   -7.4980 C   0  0  0  0  0  0  0  0  0  0  0  0
   23.7829  -31.8631   -7.6369 C   0  0  0  0  0  0  0  0  0  0  0  0
   24.4219  -30.9905   -8.5214 C   0  0  0  0  0  0  0  0  0  0  0  0
   23.6358  -30.1130   -9.2355 C   0  0  0  0  0  0  0  0  0  0  0  0
   19.8130  -28.7574  -11.6180 C   0  0  0  0  0  0  0  0  0  0  0  0
   18.7020  -28.2724  -10.9918 O   0  0  0  0  0  0  0  0  0  0  0  0
   20.1366  -28.3295  -12.7566 O   0  0  0  0  0  0  0  0  0  0  0  0
  2  3  1  0
  2  1  1  6
  4  3  1  0
  4  8  1  0
  5  4  2  0
  6  2  1  0
  7  6  2  0
 10  9  1  6
 10 12  1  0
 11 10  1  0
 12 13  1  1
 13  6  1  0
 14 12  1  0
 14 16  1  0
 15 14  2  0
 17 16  1  0
 17 25  1  0
 17 18  1  1
 19 18  1  0
 19 20  2  0
 21 20  1  0
 22 21  2  0
 23 24  2  0
 23 22  1  0
 24 19  1  0
 25 26  1  0
 27 25  2  0
M  END
$$$$
