NPV.pdb
     RDKit          3D

 23 23  0  0  1  0  0  0  0  0999 V2000
   29.6359  -10.5911  -20.7253 N   0  0  0  0  0  0  0  0  0  0  0  0
   30.3679   -9.3831  -20.8383 C   0  0  0  0  0  0  0  0  0  0  0  0
   30.5774   -8.9357  -22.0067 O   0  0  0  0  0  0  0  0  0  0  0  0
   30.8677   -8.6715  -19.6499 C   0  0  0  0  0  0  0  0  0  0  0  0
   30.4411   -9.4414  -18.3892 C   0  0  2  0  0  0  0  0  0  0  0  0
   29.0538   -9.0543  -18.1726 N   0  0  0  0  0  0  0  0  0  0  0  0
   31.2892   -8.9484  -17.2856 C   0  0  0  0  0  0  0  0  0  0  0  0
   30.6864   -8.2537  -16.3862 O   0  0  0  0  0  0  0  0  0  0  0  0
   32.6658   -9.1891  -17.1702 N   0  0  0  0  0  0  0  0  0  0  0  0
   33.4988   -9.8193  -18.1536 C   0  0  0  0  0  0  0  0  0  0  0  0
   34.5268  -10.5501  -17.3105 C   0  0  0  0  0  0  0  0  0  0  0  0
   34.2125  -10.1983  -15.8515 C   0  0  0  0  0  0  0  0  0  0  0  0
   33.5149   -8.8472  -16.0749 C   0  0  1  0  0  0  0  0  0  0  0  0
   34.5205   -7.8069  -16.4301 C   0  0  0  0  0  0  0  0  0  0  0  0
   34.9875   -7.7593  -17.5811 O   0  0  0  0  0  0  0  0  0  0  0  0
   35.4924   -4.7285  -13.5520 C   0  0  0  0  0  0  0  0  0  0  0  0
   35.3591   -4.4871  -15.0222 C   0  0  2  0  0  0  0  0  0  0  0  0
   33.9244   -4.1120  -15.3162 C   0  0  0  0  0  0  0  0  0  0  0  0
   35.7813   -5.6975  -15.8422 C   0  0  2  0  0  0  0  0  0  0  0  0
   34.9780   -6.8462  -15.4882 N   0  0  0  0  0  0  0  0  0  0  0  0
   37.1878   -5.9843  -15.4929 C   0  0  0  0  0  0  0  0  0  0  0  0
   38.2590   -5.2660  -16.0068 O   0  0  0  0  0  0  0  0  0  0  0  0
   37.4375   -6.9180  -14.6961 O   0  0  0  0  0  0  0  0  0  0  0  0
  2  3  2  0
  2  1  1  0
  4  2  1  0
  5  4  1  0
  5  6  1  1
  7  5  1  0
  7  8  2  0
  9  7  1  0
 10  9  1  0
 11 12  1  0
 11 10  1  0
 12 13  1  0
 13 14  1  6
 13  9  1  0
 14 20  1  0
 15 14  2  0
 17 19  1  0
 17 16  1  1
 18 17  1  0
 19 21  1  0
 19 20  1  1
 21 23  2  0
 21 22  1  0
M  END
$$$$
