NPV.pdb
     RDKit          3D

 23 23  0  0  1  0  0  0  0  0999 V2000
   18.3019  -13.6863  -17.2904 N   0  0  0  0  0  0  0  0  0  0  0  0
   17.9783  -12.4858  -17.9701 C   0  0  0  0  0  0  0  0  0  0  0  0
   17.6727  -12.5755  -19.1980 O   0  0  0  0  0  0  0  0  0  0  0  0
   17.9946  -11.1834  -17.2830 C   0  0  0  0  0  0  0  0  0  0  0  0
   18.4042  -11.3962  -15.8164 C   0  0  2  0  0  0  0  0  0  0  0  0
   17.2993  -12.1419  -15.2295 N   0  0  0  0  0  0  0  0  0  0  0  0
   18.4997  -10.0554  -15.2053 C   0  0  0  0  0  0  0  0  0  0  0  0
   17.4998   -9.7015  -14.4775 O   0  0  0  0  0  0  0  0  0  0  0  0
   19.5830   -9.1804  -15.3699 N   0  0  0  0  0  0  0  0  0  0  0  0
   20.7138   -9.3876  -16.2280 C   0  0  0  0  0  0  0  0  0  0  0  0
   21.8429   -8.7135  -15.4714 C   0  0  0  0  0  0  0  0  0  0  0  0
   21.2095   -8.0930  -14.2203 C   0  0  0  0  0  0  0  0  0  0  0  0
   19.7748   -7.9134  -14.7410 C   0  0  1  0  0  0  0  0  0  0  0  0
   19.7207   -6.7790  -15.7053 C   0  0  0  0  0  0  0  0  0  0  0  0
   20.3901   -6.8188  -16.7521 O   0  0  0  0  0  0  0  0  0  0  0  0
   16.5096   -4.1705  -15.1051 C   0  0  0  0  0  0  0  0  0  0  0  0
   16.9925   -4.5269  -16.4753 C   0  0  2  0  0  0  0  0  0  0  0  0
   16.2760   -5.7805  -16.9229 C   0  0  0  0  0  0  0  0  0  0  0  0
   18.5013   -4.7207  -16.5185 C   0  0  2  0  0  0  0  0  0  0  0  0
   18.9190   -5.6288  -15.4739 N   0  0  0  0  0  0  0  0  0  0  0  0
   19.1122   -3.4002  -16.2627 C   0  0  0  0  0  0  0  0  0  0  0  0
   19.3514   -2.4680  -17.2633 O   0  0  0  0  0  0  0  0  0  0  0  0
   19.4337   -3.0965  -15.0907 O   0  0  0  0  0  0  0  0  0  0  0  0
  2  3  2  0
  2  1  1  0
  4  2  1  0
  5  4  1  0
  5  6  1  1
  7  5  1  0
  7  8  2  0
  9  7  1  0
 10  9  1  0
 11 12  1  0
 11 10  1  0
 12 13  1  0
 13 14  1  6
 13  9  1  0
 14 20  1  0
 15 14  2  0
 17 19  1  0
 17 16  1  1
 18 17  1  0
 19 21  1  0
 19 20  1  1
 21 23  2  0
 21 22  1  0
M  END
$$$$
