NPV.pdb
     RDKit          3D

 23 23  0  0  1  0  0  0  0  0999 V2000
   23.1517  -19.3791  -14.2500 N   0  0  0  0  0  0  0  0  0  0  0  0
   22.5243  -19.4434  -12.9811 C   0  0  0  0  0  0  0  0  0  0  0  0
   21.4548  -18.7793  -12.8254 O   0  0  0  0  0  0  0  0  0  0  0  0
   23.0873  -20.2477  -11.8835 C   0  0  0  0  0  0  0  0  0  0  0  0
   24.2452  -21.0992  -12.4298 C   0  0  2  0  0  0  0  0  0  0  0  0
   23.6058  -22.2984  -12.9537 N   0  0  0  0  0  0  0  0  0  0  0  0
   25.1021  -21.4376  -11.2758 C   0  0  0  0  0  0  0  0  0  0  0  0
   24.6434  -22.3446  -10.4873 O   0  0  0  0  0  0  0  0  0  0  0  0
   26.3436  -20.8449  -11.0048 N   0  0  0  0  0  0  0  0  0  0  0  0
   26.9275  -19.7438  -11.7152 C   0  0  0  0  0  0  0  0  0  0  0  0
   28.4134  -20.0412  -11.6417 C   0  0  0  0  0  0  0  0  0  0  0  0
   28.5543  -21.3125  -10.7957 C   0  0  0  0  0  0  0  0  0  0  0  0
   27.2628  -21.1967   -9.9709 C   0  0  1  0  0  0  0  0  0  0  0  0
   27.4084  -20.1282   -8.9431 C   0  0  0  0  0  0  0  0  0  0  0  0
   27.2077  -18.9397   -9.2473 O   0  0  0  0  0  0  0  0  0  0  0  0
   27.9956  -21.1357   -4.6453 C   0  0  0  0  0  0  0  0  0  0  0  0
   26.9740  -20.2656   -5.3064 C   0  0  2  0  0  0  0  0  0  0  0  0
   25.8103  -21.1328   -5.7296 C   0  0  0  0  0  0  0  0  0  0  0  0
   27.5481  -19.5110   -6.4967 C   0  0  2  0  0  0  0  0  0  0  0  0
   27.7749  -20.4165   -7.6007 N   0  0  0  0  0  0  0  0  0  0  0  0
   28.8500  -18.9590   -6.0689 C   0  0  0  0  0  0  0  0  0  0  0  0
   30.0676  -19.4513   -6.5187 O   0  0  0  0  0  0  0  0  0  0  0  0
   28.8678  -18.0011   -5.2621 O   0  0  0  0  0  0  0  0  0  0  0  0
  2  3  2  0
  2  1  1  0
  4  2  1  0
  5  4  1  0
  5  6  1  1
  7  5  1  0
  7  8  2  0
  9  7  1  0
 10  9  1  0
 11 12  1  0
 11 10  1  0
 12 13  1  0
 13 14  1  1
 13  9  1  0
 14 20  1  0
 15 14  2  0
 17 19  1  0
 17 16  1  6
 18 17  1  0
 19 21  1  0
 19 20  1  6
 21 23  2  0
 21 22  1  0
M  END
$$$$
