NPV.pdb
     RDKit          3D

 23 23  0  0  1  0  0  0  0  0999 V2000
   23.7259  -19.9567  -14.3907 N   0  0  0  0  0  0  0  0  0  0  0  0
   23.2612  -19.7030  -13.0764 C   0  0  0  0  0  0  0  0  0  0  0  0
   22.2357  -18.9666  -12.9527 O   0  0  0  0  0  0  0  0  0  0  0  0
   23.9381  -20.2692  -11.8974 C   0  0  0  0  0  0  0  0  0  0  0  0
   25.0474  -21.2243  -12.3678 C   0  0  2  0  0  0  0  0  0  0  0  0
   24.3396  -22.4011  -12.8530 N   0  0  0  0  0  0  0  0  0  0  0  0
   25.8477  -21.5633  -11.1741 C   0  0  0  0  0  0  0  0  0  0  0  0
   25.3941  -22.5278  -10.4539 O   0  0  0  0  0  0  0  0  0  0  0  0
   27.0323  -20.9138  -10.7986 N   0  0  0  0  0  0  0  0  0  0  0  0
   27.6079  -19.7677  -11.4413 C   0  0  0  0  0  0  0  0  0  0  0  0
   29.0979  -19.9896  -11.2617 C   0  0  0  0  0  0  0  0  0  0  0  0
   29.2431  -21.2714  -10.4325 C   0  0  0  0  0  0  0  0  0  0  0  0
   27.8896  -21.2419   -9.7054 C   0  0  1  0  0  0  0  0  0  0  0  0
   27.9013  -20.1917   -8.6488 C   0  0  0  0  0  0  0  0  0  0  0  0
   27.6183  -19.0159   -8.9361 O   0  0  0  0  0  0  0  0  0  0  0  0
   29.2659  -21.0226   -4.6587 C   0  0  0  0  0  0  0  0  0  0  0  0
   27.8897  -20.4824   -4.8864 C   0  0  2  0  0  0  0  0  0  0  0  0
   26.9185  -21.6408   -4.9004 C   0  0  0  0  0  0  0  0  0  0  0  0
   27.7951  -19.6807   -6.1764 C   0  0  2  0  0  0  0  0  0  0  0  0
   28.2293  -20.4839   -7.2973 N   0  0  0  0  0  0  0  0  0  0  0  0
   28.7154  -18.5333   -6.0384 C   0  0  0  0  0  0  0  0  0  0  0  0
   28.4665  -17.4580   -5.1962 O   0  0  0  0  0  0  0  0  0  0  0  0
   29.7736  -18.5194   -6.7084 O   0  0  0  0  0  0  0  0  0  0  0  0
  2  3  2  0
  2  1  1  0
  4  2  1  0
  5  4  1  0
  5  6  1  1
  7  5  1  0
  7  8  2  0
  9  7  1  0
 10  9  1  0
 11 12  1  0
 11 10  1  0
 12 13  1  0
 13 14  1  1
 13  9  1  0
 14 20  1  0
 15 14  2  0
 17 19  1  0
 17 16  1  6
 18 17  1  0
 19 21  1  0
 19 20  1  6
 21 23  2  0
 21 22  1  0
M  END
$$$$
