NPV.pdb
     RDKit          3D

 23 23  0  0  1  0  0  0  0  0999 V2000
   20.4686  -18.4696  -17.8334 N   0  0  0  0  0  0  0  0  0  0  0  0
   20.5185  -17.6465  -16.6810 C   0  0  0  0  0  0  0  0  0  0  0  0
   20.0674  -18.1308  -15.5988 O   0  0  0  0  0  0  0  0  0  0  0  0
   21.0710  -16.2824  -16.7323 C   0  0  0  0  0  0  0  0  0  0  0  0
   21.4593  -15.9539  -18.1832 C   0  0  2  0  0  0  0  0  0  0  0  0
   22.5100  -16.9086  -18.5090 N   0  0  0  0  0  0  0  0  0  0  0  0
   21.9998  -14.5797  -18.1754 C   0  0  0  0  0  0  0  0  0  0  0  0
   23.2588  -14.4740  -18.4168 O   0  0  0  0  0  0  0  0  0  0  0  0
   21.2408  -13.4268  -17.9285 N   0  0  0  0  0  0  0  0  0  0  0  0
   19.8721  -13.3917  -17.5003 C   0  0  0  0  0  0  0  0  0  0  0  0
   19.3403  -12.1353  -18.1638 C   0  0  0  0  0  0  0  0  0  0  0  0
   20.5304  -11.4988  -18.8918 C   0  0  0  0  0  0  0  0  0  0  0  0
   21.6704  -12.0695  -18.0336 C   0  0  1  0  0  0  0  0  0  0  0  0
   21.7123  -11.3764  -16.7155 C   0  0  0  0  0  0  0  0  0  0  0  0
   20.8718  -11.6491  -15.8412 O   0  0  0  0  0  0  0  0  0  0  0  0
   25.2372   -9.1626  -15.8301 C   0  0  0  0  0  0  0  0  0  0  0  0
   24.4874   -9.9701  -14.8185 C   0  0  2  0  0  0  0  0  0  0  0  0
   25.0167  -11.3859  -14.8506 C   0  0  0  0  0  0  0  0  0  0  0  0
   22.9861   -9.9475  -15.0660 C   0  0  2  0  0  0  0  0  0  0  0  0
   22.6938  -10.3955  -16.4091 N   0  0  0  0  0  0  0  0  0  0  0  0
   22.5497   -8.5421  -14.9358 C   0  0  0  0  0  0  0  0  0  0  0  0
   22.3004   -7.9351  -13.7124 O   0  0  0  0  0  0  0  0  0  0  0  0
   22.3940   -7.8561  -15.9722 O   0  0  0  0  0  0  0  0  0  0  0  0
  2  3  2  0
  2  1  1  0
  4  2  1  0
  5  4  1  0
  5  6  1  1
  7  5  1  0
  7  8  2  0
  9  7  1  0
 10  9  1  0
 11 12  1  0
 11 10  1  0
 12 13  1  0
 13 14  1  1
 13  9  1  0
 14 20  1  0
 15 14  2  0
 17 19  1  0
 17 16  1  6
 18 17  1  0
 19 21  1  0
 19 20  1  6
 21 23  2  0
 21 22  1  0
M  END
$$$$
