NPV.pdb
     RDKit          3D

 23 23  0  0  1  0  0  0  0  0999 V2000
   15.6897  -28.0555   -5.9025 N   0  0  0  0  0  0  0  0  0  0  0  0
   15.4743  -28.0495   -4.5020 C   0  0  0  0  0  0  0  0  0  0  0  0
   15.2689  -29.1676   -3.9391 O   0  0  0  0  0  0  0  0  0  0  0  0
   15.4873  -26.7979   -3.7263 C   0  0  0  0  0  0  0  0  0  0  0  0
   15.7691  -25.6227   -4.6768 C   0  0  2  0  0  0  0  0  0  0  0  0
   17.1364  -25.8359   -5.1313 N   0  0  0  0  0  0  0  0  0  0  0  0
   15.6849  -24.3924   -3.8646 C   0  0  0  0  0  0  0  0  0  0  0  0
   16.8018  -23.7955   -3.6386 O   0  0  0  0  0  0  0  0  0  0  0  0
   14.4957  -23.8599   -3.3464 N   0  0  0  0  0  0  0  0  0  0  0  0
   13.2104  -24.4970   -3.3550 C   0  0  0  0  0  0  0  0  0  0  0  0
   12.2527  -23.3286   -3.4950 C   0  0  0  0  0  0  0  0  0  0  0  0
   13.1176  -22.0624   -3.4851 C   0  0  0  0  0  0  0  0  0  0  0  0
   14.3225  -22.6004   -2.6974 C   0  0  1  0  0  0  0  0  0  0  0  0
   13.9688  -22.7399   -1.2570 C   0  0  0  0  0  0  0  0  0  0  0  0
   13.2398  -23.6745   -0.8822 O   0  0  0  0  0  0  0  0  0  0  0  0
   16.6323  -21.0575    1.3679 C   0  0  0  0  0  0  0  0  0  0  0  0
   15.7500  -22.2049    1.7454 C   0  0  2  0  0  0  0  0  0  0  0  0
   16.4120  -23.4858    1.2909 C   0  0  0  0  0  0  0  0  0  0  0  0
   14.3555  -22.0753    1.1500 C   0  0  2  0  0  0  0  0  0  0  0  0
   14.4397  -21.8300   -0.2722 N   0  0  0  0  0  0  0  0  0  0  0  0
   13.7215  -20.9045    1.7903 C   0  0  0  0  0  0  0  0  0  0  0  0
   13.0995  -20.9618    3.0302 O   0  0  0  0  0  0  0  0  0  0  0  0
   13.7400  -19.8026    1.1950 O   0  0  0  0  0  0  0  0  0  0  0  0
  2  3  2  0
  2  1  1  0
  4  2  1  0
  5  4  1  0
  5  6  1  1
  7  5  1  0
  7  8  2  0
  9  7  1  0
 10  9  1  0
 11 12  1  0
 11 10  1  0
 12 13  1  0
 13 14  1  1
 13  9  1  0
 14 20  1  0
 15 14  2  0
 17 19  1  0
 17 16  1  6
 18 17  1  0
 19 21  1  0
 19 20  1  6
 21 23  2  0
 21 22  1  0
M  END
$$$$
