NPV.pdb
     RDKit          3D

 23 23  0  0  1  0  0  0  0  0999 V2000
   19.6801  -12.6148  -19.3045 N   0  0  0  0  0  0  0  0  0  0  0  0
   19.6938  -11.2011  -19.4004 C   0  0  0  0  0  0  0  0  0  0  0  0
   19.6847  -10.6957  -20.5640 O   0  0  0  0  0  0  0  0  0  0  0  0
   19.7176  -10.3480  -18.2004 C   0  0  0  0  0  0  0  0  0  0  0  0
   19.7325  -11.2429  -16.9502 C   0  0  2  0  0  0  0  0  0  0  0  0
   18.3808  -11.7784  -16.8639 N   0  0  0  0  0  0  0  0  0  0  0  0
   20.0079  -10.3583  -15.8004 C   0  0  0  0  0  0  0  0  0  0  0  0
   18.9792   -9.9880  -15.1224 O   0  0  0  0  0  0  0  0  0  0  0  0
   21.2842   -9.9177  -15.4222 N   0  0  0  0  0  0  0  0  0  0  0  0
   22.5040  -10.1432  -16.1428 C   0  0  0  0  0  0  0  0  0  0  0  0
   23.5370  -10.2526  -15.0370 C   0  0  0  0  0  0  0  0  0  0  0  0
   22.7869   -9.9996  -13.7237 C   0  0  0  0  0  0  0  0  0  0  0  0
   21.6278   -9.1503  -14.2685 C   0  0  1  0  0  0  0  0  0  0  0  0
   22.1137   -7.7842  -14.6108 C   0  0  0  0  0  0  0  0  0  0  0  0
   22.9694   -7.6319  -15.4995 O   0  0  0  0  0  0  0  0  0  0  0  0
   19.6461   -4.5761  -13.5095 C   0  0  0  0  0  0  0  0  0  0  0  0
   20.5526   -4.5723  -14.6995 C   0  0  2  0  0  0  0  0  0  0  0  0
   19.8287   -5.2285  -15.8531 C   0  0  0  0  0  0  0  0  0  0  0  0
   21.8717   -5.2765  -14.4170 C   0  0  2  0  0  0  0  0  0  0  0  0
   21.6297   -6.6231  -13.9498 N   0  0  0  0  0  0  0  0  0  0  0  0
   22.5409   -4.5200  -13.3388 C   0  0  0  0  0  0  0  0  0  0  0  0
   22.6183   -4.9735  -12.0289 O   0  0  0  0  0  0  0  0  0  0  0  0
   23.0670   -3.4156  -13.6080 O   0  0  0  0  0  0  0  0  0  0  0  0
  2  3  2  0
  2  1  1  0
  4  2  1  0
  5  4  1  0
  5  6  1  1
  7  5  1  0
  7  8  2  0
  9  7  1  0
 10  9  1  0
 11 12  1  0
 11 10  1  0
 12 13  1  0
 13 14  1  6
 13  9  1  0
 14 20  1  0
 15 14  2  0
 17 19  1  0
 17 16  1  1
 18 17  1  0
 19 21  1  0
 19 20  1  1
 21 23  2  0
 21 22  1  0
M  END
$$$$
