NPV.pdb
     RDKit          3D

 23 23  0  0  1  0  0  0  0  0999 V2000
   23.5541  -19.7112  -14.1326 N   0  0  0  0  0  0  0  0  0  0  0  0
   23.1113  -19.5173  -12.8007 C   0  0  0  0  0  0  0  0  0  0  0  0
   22.0717  -18.8108  -12.6291 O   0  0  0  0  0  0  0  0  0  0  0  0
   23.8257  -20.1100  -11.6575 C   0  0  0  0  0  0  0  0  0  0  0  0
   24.8420  -21.1382  -12.1810 C   0  0  2  0  0  0  0  0  0  0  0  0
   24.0314  -22.2606  -12.6332 N   0  0  0  0  0  0  0  0  0  0  0  0
   25.6721  -21.5374  -11.0269 C   0  0  0  0  0  0  0  0  0  0  0  0
   25.1519  -22.4138  -10.2421 O   0  0  0  0  0  0  0  0  0  0  0  0
   26.9504  -21.0308  -10.7520 N   0  0  0  0  0  0  0  0  0  0  0  0
   27.6266  -20.0001  -11.4857 C   0  0  0  0  0  0  0  0  0  0  0  0
   29.0845  -20.4053  -11.3762 C   0  0  0  0  0  0  0  0  0  0  0  0
   29.1160  -21.6556  -10.4889 C   0  0  0  0  0  0  0  0  0  0  0  0
   27.8242  -21.4170   -9.6914 C   0  0  1  0  0  0  0  0  0  0  0  0
   28.0339  -20.3298   -8.6947 C   0  0  0  0  0  0  0  0  0  0  0  0
   27.9224  -19.1402   -9.0378 O   0  0  0  0  0  0  0  0  0  0  0  0
   26.9913  -19.5931   -3.9771 C   0  0  0  0  0  0  0  0  0  0  0  0
   27.3042  -20.4661   -5.1508 C   0  0  2  0  0  0  0  0  0  0  0  0
   28.1162  -21.6453   -4.6655 C   0  0  0  0  0  0  0  0  0  0  0  0
   28.0456  -19.7115   -6.2447 C   0  0  2  0  0  0  0  0  0  0  0  0
   28.3629  -20.6012   -7.3392 N   0  0  0  0  0  0  0  0  0  0  0  0
   29.3099  -19.2281   -5.6527 C   0  0  0  0  0  0  0  0  0  0  0  0
   29.4035  -18.0544   -4.9172 O   0  0  0  0  0  0  0  0  0  0  0  0
   30.3534  -19.9014   -5.8161 O   0  0  0  0  0  0  0  0  0  0  0  0
  2  3  2  0
  2  1  1  0
  4  2  1  0
  5  4  1  0
  5  6  1  1
  7  5  1  0
  7  8  2  0
  9  7  1  0
 10  9  1  0
 11 12  1  0
 11 10  1  0
 12 13  1  0
 13 14  1  1
 13  9  1  0
 14 20  1  0
 15 14  2  0
 17 19  1  0
 17 16  1  1
 18 17  1  0
 19 21  1  0
 19 20  1  6
 21 23  2  0
 21 22  1  0
M  END
$$$$
