NPV.pdb
     RDKit          3D

 23 23  0  0  1  0  0  0  0  0999 V2000
   14.2293  -11.6704  -15.7224 N   0  0  0  0  0  0  0  0  0  0  0  0
   13.4104  -11.7667  -14.5701 C   0  0  0  0  0  0  0  0  0  0  0  0
   12.3545  -12.4639  -14.6619 O   0  0  0  0  0  0  0  0  0  0  0  0
   13.7663  -11.0866  -13.3134 C   0  0  0  0  0  0  0  0  0  0  0  0
   14.9461  -11.8257  -12.6609 C   0  0  2  0  0  0  0  0  0  0  0  0
   14.3827  -13.0887  -12.2039 N   0  0  0  0  0  0  0  0  0  0  0  0
   15.3720  -11.0074  -11.5079 C   0  0  0  0  0  0  0  0  0  0  0  0
   14.9977  -11.4329  -10.3531 O   0  0  0  0  0  0  0  0  0  0  0  0
   16.1352   -9.8348  -11.6020 N   0  0  0  0  0  0  0  0  0  0  0  0
   16.5773   -9.2094  -12.8150 C   0  0  0  0  0  0  0  0  0  0  0  0
   17.9123   -8.6066  -12.4198 C   0  0  0  0  0  0  0  0  0  0  0  0
   18.0885   -8.8992  -10.9248 C   0  0  0  0  0  0  0  0  0  0  0  0
   16.6090   -9.0226  -10.5280 C   0  0  1  0  0  0  0  0  0  0  0  0
   15.9738   -7.6753  -10.5027 C   0  0  0  0  0  0  0  0  0  0  0  0
   15.6567   -7.1161  -11.5667 O   0  0  0  0  0  0  0  0  0  0  0  0
   14.9870   -6.0381   -6.6872 C   0  0  0  0  0  0  0  0  0  0  0  0
   14.0468   -5.9445   -7.8470 C   0  0  2  0  0  0  0  0  0  0  0  0
   13.1138   -7.1331   -7.8022 C   0  0  0  0  0  0  0  0  0  0  0  0
   14.7828   -5.8836   -9.1776 C   0  0  2  0  0  0  0  0  0  0  0  0
   15.7095   -6.9877   -9.2875 N   0  0  0  0  0  0  0  0  0  0  0  0
   15.5532   -4.6231   -9.1857 C   0  0  0  0  0  0  0  0  0  0  0  0
   14.9822   -3.3864   -9.4539 O   0  0  0  0  0  0  0  0  0  0  0  0
   16.7810   -4.6602   -8.9404 O   0  0  0  0  0  0  0  0  0  0  0  0
  2  3  2  0
  2  1  1  0
  4  2  1  0
  5  4  1  0
  5  6  1  1
  7  5  1  0
  7  8  2  0
  9  7  1  0
 10  9  1  0
 11 12  1  0
 11 10  1  0
 12 13  1  0
 13 14  1  6
 13  9  1  0
 14 20  1  0
 15 14  2  0
 17 19  1  0
 17 16  1  1
 18 17  1  0
 19 21  1  0
 19 20  1  1
 21 23  2  0
 21 22  1  0
M  END
$$$$
