NPV.pdb
     RDKit          3D

 23 23  0  0  1  0  0  0  0  0999 V2000
   21.0204  -18.3708  -14.2214 N   0  0  0  0  0  0  0  0  0  0  0  0
   19.7870  -18.9685  -13.8619 C   0  0  0  0  0  0  0  0  0  0  0  0
   18.7259  -18.4090  -14.2747 O   0  0  0  0  0  0  0  0  0  0  0  0
   19.7335  -20.1904  -13.0418 C   0  0  0  0  0  0  0  0  0  0  0  0
   21.1671  -20.6798  -12.7785 C   0  0  2  0  0  0  0  0  0  0  0  0
   21.5620  -21.3451  -14.0126 N   0  0  0  0  0  0  0  0  0  0  0  0
   21.0844  -21.6560  -11.6737 C   0  0  0  0  0  0  0  0  0  0  0  0
   20.8353  -22.8698  -12.0192 O   0  0  0  0  0  0  0  0  0  0  0  0
   21.2574  -21.3413  -10.3182 N   0  0  0  0  0  0  0  0  0  0  0  0
   21.3739  -20.0229   -9.7650 C   0  0  0  0  0  0  0  0  0  0  0  0
   22.3133  -20.2282   -8.5916 C   0  0  0  0  0  0  0  0  0  0  0  0
   22.6091  -21.7319   -8.5379 C   0  0  0  0  0  0  0  0  0  0  0  0
   21.3351  -22.2521   -9.2219 C   0  0  1  0  0  0  0  0  0  0  0  0
   20.1748  -22.1358   -8.2947 C   0  0  0  0  0  0  0  0  0  0  0  0
   19.5707  -21.0548   -8.1854 O   0  0  0  0  0  0  0  0  0  0  0  0
   16.5219  -25.1244   -8.1380 C   0  0  0  0  0  0  0  0  0  0  0  0
   17.9427  -24.6909   -8.3141 C   0  0  2  0  0  0  0  0  0  0  0  0
   18.8364  -25.8953   -8.1242 C   0  0  0  0  0  0  0  0  0  0  0  0
   18.3249  -23.5758   -7.3517 C   0  0  2  0  0  0  0  0  0  0  0  0
   19.7199  -23.2320   -7.5132 N   0  0  0  0  0  0  0  0  0  0  0  0
   18.1273  -24.1006   -5.9849 C   0  0  0  0  0  0  0  0  0  0  0  0
   16.9365  -23.9643   -5.2845 O   0  0  0  0  0  0  0  0  0  0  0  0
   19.0727  -24.6988   -5.4215 O   0  0  0  0  0  0  0  0  0  0  0  0
  2  3  2  0
  2  1  1  0
  4  2  1  0
  5  4  1  0
  5  6  1  6
  7  5  1  0
  7  8  2  0
  9  7  1  0
 10  9  1  0
 11 12  1  0
 11 10  1  0
 12 13  1  0
 13 14  1  1
 13  9  1  0
 14 20  1  0
 15 14  2  0
 17 19  1  0
 17 16  1  1
 18 17  1  0
 19 21  1  0
 19 20  1  1
 21 23  2  0
 21 22  1  0
M  END
$$$$
