NPV.pdb
     RDKit          3D

 23 23  0  0  1  0  0  0  0  0999 V2000
   29.3936  -18.6598  -15.3336 N   0  0  0  0  0  0  0  0  0  0  0  0
   28.0317  -18.3674  -15.5938 C   0  0  0  0  0  0  0  0  0  0  0  0
   27.7772  -17.3117  -16.2495 O   0  0  0  0  0  0  0  0  0  0  0  0
   26.9510  -19.2505  -15.1240 C   0  0  0  0  0  0  0  0  0  0  0  0
   27.5703  -20.4612  -14.4064 C   0  0  2  0  0  0  0  0  0  0  0  0
   28.2349  -21.2146  -15.4609 N   0  0  0  0  0  0  0  0  0  0  0  0
   26.4477  -21.2415  -13.8484 C   0  0  0  0  0  0  0  0  0  0  0  0
   26.1724  -22.3389  -14.4605 O   0  0  0  0  0  0  0  0  0  0  0  0
   25.6944  -20.8636  -12.7276 N   0  0  0  0  0  0  0  0  0  0  0  0
   25.8861  -19.6796  -11.9408 C   0  0  0  0  0  0  0  0  0  0  0  0
   25.4928  -20.1304  -10.5466 C   0  0  0  0  0  0  0  0  0  0  0  0
   25.0244  -21.5842  -10.6828 C   0  0  0  0  0  0  0  0  0  0  0  0
   24.5866  -21.5587  -12.1557 C   0  0  1  0  0  0  0  0  0  0  0  0
   23.3055  -20.8108  -12.2938 C   0  0  0  0  0  0  0  0  0  0  0  0
   23.2606  -19.5976  -12.0268 O   0  0  0  0  0  0  0  0  0  0  0  0
   20.6454  -22.8677  -14.7335 C   0  0  0  0  0  0  0  0  0  0  0  0
   20.8722  -21.3919  -14.8251 C   0  0  2  0  0  0  0  0  0  0  0  0
   22.0777  -21.1478  -15.7040 C   0  0  0  0  0  0  0  0  0  0  0  0
   21.0624  -20.7555  -13.4559 C   0  0  2  0  0  0  0  0  0  0  0  0
   22.1071  -21.4395  -12.7273 N   0  0  0  0  0  0  0  0  0  0  0  0
   19.7915  -20.9254  -12.7222 C   0  0  0  0  0  0  0  0  0  0  0  0
   18.6698  -20.1413  -12.9556 O   0  0  0  0  0  0  0  0  0  0  0  0
   19.7108  -21.8164  -11.8454 O   0  0  0  0  0  0  0  0  0  0  0  0
  2  3  2  0
  2  1  1  0
  4  2  1  0
  5  4  1  0
  5  6  1  6
  7  5  1  0
  7  8  2  0
  9  7  1  0
 10  9  1  0
 11 12  1  0
 11 10  1  0
 12 13  1  0
 13 14  1  1
 13  9  1  0
 14 20  1  0
 15 14  2  0
 17 19  1  0
 17 16  1  1
 18 17  1  0
 19 21  1  0
 19 20  1  1
 21 23  2  0
 21 22  1  0
M  END
$$$$
