NPV.pdb
     RDKit          3D

 23 23  0  0  1  0  0  0  0  0999 V2000
   15.0681  -11.7857  -15.2698 N   0  0  0  0  0  0  0  0  0  0  0  0
   14.4301  -11.7006  -14.0075 C   0  0  0  0  0  0  0  0  0  0  0  0
   13.2874  -12.2397  -13.8944 O   0  0  0  0  0  0  0  0  0  0  0  0
   15.0640  -11.0148  -12.8689 C   0  0  0  0  0  0  0  0  0  0  0  0
   16.4143  -10.4356  -13.3221 C   0  0  2  0  0  0  0  0  0  0  0  0
   17.3486  -11.5473  -13.2101 N   0  0  0  0  0  0  0  0  0  0  0  0
   16.7636   -9.3733  -12.3579 C   0  0  0  0  0  0  0  0  0  0  0  0
   17.3130   -9.7706  -11.2647 O   0  0  0  0  0  0  0  0  0  0  0  0
   16.5370   -8.0049  -12.5638 N   0  0  0  0  0  0  0  0  0  0  0  0
   15.8185   -7.4230  -13.6606 C   0  0  0  0  0  0  0  0  0  0  0  0
   16.5346   -6.1026  -13.8740 C   0  0  0  0  0  0  0  0  0  0  0  0
   17.6073   -6.0158  -12.7816 C   0  0  0  0  0  0  0  0  0  0  0  0
   16.9526   -6.9241  -11.7290 C   0  0  1  0  0  0  0  0  0  0  0  0
   15.8070   -6.2189  -11.0888 C   0  0  0  0  0  0  0  0  0  0  0  0
   14.8234   -5.8821  -11.7703 O   0  0  0  0  0  0  0  0  0  0  0  0
   15.5522   -6.3726   -6.8863 C   0  0  0  0  0  0  0  0  0  0  0  0
   14.3511   -6.2633   -7.7712 C   0  0  2  0  0  0  0  0  0  0  0  0
   13.9172   -7.6579   -8.1614 C   0  0  0  0  0  0  0  0  0  0  0  0
   14.6240   -5.4159   -9.0054 C   0  0  2  0  0  0  0  0  0  0  0  0
   15.7910   -5.9085   -9.7022 N   0  0  0  0  0  0  0  0  0  0  0  0
   14.9051   -4.0449   -8.5323 C   0  0  0  0  0  0  0  0  0  0  0  0
   13.9084   -3.1235   -8.2406 O   0  0  0  0  0  0  0  0  0  0  0  0
   16.0959   -3.6859   -8.3839 O   0  0  0  0  0  0  0  0  0  0  0  0
  2  3  2  0
  2  1  1  0
  4  2  1  0
  5  4  1  0
  5  6  1  1
  7  5  1  0
  7  8  2  0
  9  7  1  0
 10  9  1  0
 11 12  1  0
 11 10  1  0
 12 13  1  0
 13 14  1  6
 13  9  1  0
 14 20  1  0
 15 14  2  0
 17 19  1  0
 17 16  1  1
 18 17  1  0
 19 21  1  0
 19 20  1  1
 21 23  2  0
 21 22  1  0
M  END
$$$$
