NPV.pdb
     RDKit          3D

 23 23  0  0  1  0  0  0  0  0999 V2000
   14.8430  -11.0226  -18.3739 N   0  0  0  0  0  0  0  0  0  0  0  0
   16.0014  -10.2079  -18.3256 C   0  0  0  0  0  0  0  0  0  0  0  0
   16.0991   -9.2820  -19.1872 O   0  0  0  0  0  0  0  0  0  0  0  0
   17.0529  -10.4233  -17.3175 C   0  0  0  0  0  0  0  0  0  0  0  0
   18.3179  -10.9464  -18.0175 C   0  0  2  0  0  0  0  0  0  0  0  0
   18.2496  -12.3938  -17.8693 N   0  0  0  0  0  0  0  0  0  0  0  0
   19.4698  -10.4081  -17.2668 C   0  0  0  0  0  0  0  0  0  0  0  0
   19.8798  -11.1277  -16.2825 O   0  0  0  0  0  0  0  0  0  0  0  0
   20.1167   -9.1990  -17.5599 N   0  0  0  0  0  0  0  0  0  0  0  0
   19.7198   -8.2486  -18.5585 C   0  0  0  0  0  0  0  0  0  0  0  0
   21.0436   -7.6738  -19.0262 C   0  0  0  0  0  0  0  0  0  0  0  0
   22.1256   -8.3320  -18.1616 C   0  0  0  0  0  0  0  0  0  0  0  0
   21.2766   -8.6622  -16.9240 C   0  0  1  0  0  0  0  0  0  0  0  0
   20.9877   -7.4181  -16.1571 C   0  0  0  0  0  0  0  0  0  0  0  0
   20.1620   -6.5964  -16.5911 O   0  0  0  0  0  0  0  0  0  0  0  0
   22.1687   -7.6308  -12.2376 C   0  0  0  0  0  0  0  0  0  0  0  0
   20.9861   -6.7896  -12.6001 C   0  0  2  0  0  0  0  0  0  0  0  0
   19.7481   -7.6550  -12.5394 C   0  0  0  0  0  0  0  0  0  0  0  0
   21.1353   -6.1535  -13.9745 C   0  0  2  0  0  0  0  0  0  0  0  0
   21.6303   -7.1248  -14.9241 N   0  0  0  0  0  0  0  0  0  0  0  0
   22.1364   -5.0750  -13.8430 C   0  0  0  0  0  0  0  0  0  0  0  0
   23.4039   -5.1435  -14.4052 O   0  0  0  0  0  0  0  0  0  0  0  0
   21.8380   -4.0451  -13.1955 O   0  0  0  0  0  0  0  0  0  0  0  0
  2  3  2  0
  2  1  1  0
  4  2  1  0
  5  4  1  0
  5  6  1  1
  7  5  1  0
  7  8  2  0
  9  7  1  0
 10  9  1  0
 11 12  1  0
 11 10  1  0
 12 13  1  0
 13 14  1  6
 13  9  1  0
 14 20  1  0
 15 14  2  0
 17 19  1  0
 17 16  1  6
 18 17  1  0
 19 21  1  0
 19 20  1  6
 21 23  2  0
 21 22  1  0
M  END
$$$$
