NPV.pdb
     RDKit          3D

 23 23  0  0  1  0  0  0  0  0999 V2000
   20.7557  -18.5313  -14.0222 N   0  0  0  0  0  0  0  0  0  0  0  0
   19.5766  -19.2639  -13.7378 C   0  0  0  0  0  0  0  0  0  0  0  0
   18.4783  -18.7860  -14.1558 O   0  0  0  0  0  0  0  0  0  0  0  0
   19.6190  -20.5303  -12.9874 C   0  0  0  0  0  0  0  0  0  0  0  0
   21.0837  -20.8789  -12.6760 C   0  0  2  0  0  0  0  0  0  0  0  0
   21.5927  -21.4668  -13.9075 N   0  0  0  0  0  0  0  0  0  0  0  0
   21.0582  -21.8881  -11.5984 C   0  0  0  0  0  0  0  0  0  0  0  0
   21.1037  -23.1151  -11.9820 O   0  0  0  0  0  0  0  0  0  0  0  0
   20.9903  -21.5904  -10.2298 N   0  0  0  0  0  0  0  0  0  0  0  0
   20.8108  -20.2879   -9.6562 C   0  0  0  0  0  0  0  0  0  0  0  0
   21.6023  -20.3729   -8.3647 C   0  0  0  0  0  0  0  0  0  0  0  0
   22.1324  -21.8095   -8.2811 C   0  0  0  0  0  0  0  0  0  0  0  0
   21.0672  -22.5091   -9.1400 C   0  0  1  0  0  0  0  0  0  0  0  0
   19.7882  -22.6110   -8.3829 C   0  0  0  0  0  0  0  0  0  0  0  0
   19.0551  -21.6144   -8.2613 O   0  0  0  0  0  0  0  0  0  0  0  0
   16.1698  -25.8153   -7.5572 C   0  0  0  0  0  0  0  0  0  0  0  0
   17.5617  -25.4542   -7.9693 C   0  0  2  0  0  0  0  0  0  0  0  0
   18.4967  -26.5456   -7.5000 C   0  0  0  0  0  0  0  0  0  0  0  0
   17.9893  -24.1012   -7.4194 C   0  0  2  0  0  0  0  0  0  0  0  0
   19.3617  -23.8255   -7.7809 N   0  0  0  0  0  0  0  0  0  0  0  0
   17.9013  -24.1880   -5.9472 C   0  0  0  0  0  0  0  0  0  0  0  0
   16.7448  -23.8943   -5.2375 O   0  0  0  0  0  0  0  0  0  0  0  0
   18.9124  -24.5423   -5.2982 O   0  0  0  0  0  0  0  0  0  0  0  0
  2  3  2  0
  2  1  1  0
  4  2  1  0
  5  4  1  0
  5  6  1  6
  7  5  1  0
  7  8  2  0
  9  7  1  0
 10  9  1  0
 11 12  1  0
 11 10  1  0
 12 13  1  0
 13 14  1  1
 13  9  1  0
 14 20  1  0
 15 14  2  0
 17 19  1  0
 17 16  1  1
 18 17  1  0
 19 21  1  0
 19 20  1  1
 21 23  2  0
 21 22  1  0
M  END
$$$$
