NPV.pdb
     RDKit          3D

 23 23  0  0  1  0  0  0  0  0999 V2000
   16.6833  -10.6316  -19.3292 N   0  0  0  0  0  0  0  0  0  0  0  0
   16.2168   -9.9363  -18.1861 C   0  0  0  0  0  0  0  0  0  0  0  0
   15.1980   -9.1944  -18.3307 O   0  0  0  0  0  0  0  0  0  0  0  0
   16.8844  -10.0662  -16.8800 C   0  0  0  0  0  0  0  0  0  0  0  0
   18.0853  -11.0155  -17.0239 C   0  0  2  0  0  0  0  0  0  0  0  0
   17.5967  -12.3028  -16.5488 N   0  0  0  0  0  0  0  0  0  0  0  0
   19.1389  -10.5036  -16.1248 C   0  0  0  0  0  0  0  0  0  0  0  0
   19.1827  -11.0380  -14.9555 O   0  0  0  0  0  0  0  0  0  0  0  0
   20.0605   -9.5033  -16.4662 N   0  0  0  0  0  0  0  0  0  0  0  0
   20.1343   -8.8157  -17.7230 C   0  0  0  0  0  0  0  0  0  0  0  0
   21.6198   -8.5492  -17.8780 C   0  0  0  0  0  0  0  0  0  0  0  0
   22.2849   -9.0749  -16.6002 C   0  0  0  0  0  0  0  0  0  0  0  0
   21.0897   -8.9575  -15.6413 C   0  0  1  0  0  0  0  0  0  0  0  0
   20.8517   -7.5279  -15.2959 C   0  0  0  0  0  0  0  0  0  0  0  0
   20.3243   -6.7662  -16.1247 O   0  0  0  0  0  0  0  0  0  0  0  0
   19.4203   -4.9548  -11.4128 C   0  0  0  0  0  0  0  0  0  0  0  0
   19.9841   -6.1593  -12.0977 C   0  0  2  0  0  0  0  0  0  0  0  0
   21.0220   -6.7814  -11.1915 C   0  0  0  0  0  0  0  0  0  0  0  0
   20.5838   -5.8187  -13.4542 C   0  0  2  0  0  0  0  0  0  0  0  0
   21.2100   -6.9869  -14.0317 N   0  0  0  0  0  0  0  0  0  0  0  0
   21.6249   -4.7970  -13.2201 C   0  0  0  0  0  0  0  0  0  0  0  0
   21.4290   -3.4443  -13.4636 O   0  0  0  0  0  0  0  0  0  0  0  0
   22.7414   -5.1571  -12.7811 O   0  0  0  0  0  0  0  0  0  0  0  0
  2  3  2  0
  2  1  1  0
  4  2  1  0
  5  4  1  0
  5  6  1  1
  7  5  1  0
  7  8  2  0
  9  7  1  0
 10  9  1  0
 11 12  1  0
 11 10  1  0
 12 13  1  0
 13 14  1  6
 13  9  1  0
 14 20  1  0
 15 14  2  0
 17 19  1  0
 17 16  1  1
 18 17  1  0
 19 21  1  0
 19 20  1  1
 21 23  2  0
 21 22  1  0
M  END
$$$$
