NPV.pdb
     RDKit          3D

 23 23  0  0  1  0  0  0  0  0999 V2000
   25.8514  -20.3599  -14.4366 N   0  0  0  0  0  0  0  0  0  0  0  0
   26.1140  -19.3858  -13.4417 C   0  0  0  0  0  0  0  0  0  0  0  0
   26.0330  -18.1668  -13.7836 O   0  0  0  0  0  0  0  0  0  0  0  0
   26.4673  -19.7678  -12.0641 C   0  0  0  0  0  0  0  0  0  0  0  0
   26.4796  -21.3016  -11.9575 C   0  0  2  0  0  0  0  0  0  0  0  0
   25.0805  -21.6903  -12.0711 N   0  0  0  0  0  0  0  0  0  0  0  0
   26.9947  -21.6278  -10.6126 C   0  0  0  0  0  0  0  0  0  0  0  0
   26.1720  -22.2354   -9.8323 O   0  0  0  0  0  0  0  0  0  0  0  0
   28.2857  -21.3222  -10.1585 N   0  0  0  0  0  0  0  0  0  0  0  0
   29.2671  -20.5469  -10.8610 C   0  0  0  0  0  0  0  0  0  0  0  0
   30.5751  -21.1848  -10.4320 C   0  0  0  0  0  0  0  0  0  0  0  0
   30.2074  -22.2771   -9.4205 C   0  0  0  0  0  0  0  0  0  0  0  0
   28.8767  -21.6983   -8.9147 C   0  0  1  0  0  0  0  0  0  0  0  0
   29.1337  -20.5318   -8.0244 C   0  0  0  0  0  0  0  0  0  0  0  0
   29.4772  -19.4406   -8.5109 O   0  0  0  0  0  0  0  0  0  0  0  0
   28.1118  -20.9757   -3.8543 C   0  0  0  0  0  0  0  0  0  0  0  0
   27.6727  -19.8405   -4.7240 C   0  0  2  0  0  0  0  0  0  0  0  0
   26.3679  -20.2226   -5.3850 C   0  0  0  0  0  0  0  0  0  0  0  0
   28.7214  -19.4776   -5.7653 C   0  0  2  0  0  0  0  0  0  0  0  0
   28.9999  -20.6158   -6.6122 N   0  0  0  0  0  0  0  0  0  0  0  0
   29.9543  -19.1280   -5.0304 C   0  0  0  0  0  0  0  0  0  0  0  0
   30.1237  -17.9227   -4.3625 O   0  0  0  0  0  0  0  0  0  0  0  0
   30.8984  -19.9507   -5.0021 O   0  0  0  0  0  0  0  0  0  0  0  0
  2  3  2  0
  2  1  1  0
  4  2  1  0
  5  4  1  0
  5  6  1  1
  7  5  1  0
  7  8  2  0
  9  7  1  0
 10  9  1  0
 11 12  1  0
 11 10  1  0
 12 13  1  0
 13 14  1  1
 13  9  1  0
 14 20  1  0
 15 14  2  0
 17 19  1  0
 17 16  1  6
 18 17  1  0
 19 21  1  0
 19 20  1  6
 21 23  2  0
 21 22  1  0
M  END
$$$$
