DKR.pdb
     RDKit          3D

 29 28  0  0  1  0  0  0  0  0999 V2000
   22.9433  -19.9503  -18.8061 N   0  0  0  0  0  0  0  0  0  0  0  0
   22.4466  -19.9048  -17.4343 C   0  0  1  0  0  0  0  0  0  0  0  0
   21.2971  -20.8786  -17.3475 C   0  0  0  0  0  0  0  0  0  0  0  0
   20.1660  -20.4058  -18.1493 C   0  0  0  0  0  0  0  0  0  0  0  0
   20.3109  -19.8019  -19.2564 O   0  0  0  0  0  0  0  0  0  0  0  0
   23.5062  -20.3157  -16.4845 C   0  0  0  0  0  0  0  0  0  0  0  0
   23.1983  -21.1681  -15.5936 O   0  0  0  0  0  0  0  0  0  0  0  0
   18.8734  -20.6177  -17.6956 O   0  0  0  0  0  0  0  0  0  0  0  0
   24.8119  -19.7868  -16.5577 N   0  0  0  0  0  0  0  0  0  0  0  0
   25.8954  -20.2548  -15.6662 C   0  0  1  0  0  0  0  0  0  0  0  0
   27.1955  -19.7337  -16.1947 C   0  0  0  0  0  0  0  0  0  0  0  0
   27.7036  -20.2829  -17.4612 C   0  0  0  0  0  0  0  0  0  0  0  0
   29.0083  -19.5060  -17.7591 C   0  0  0  0  0  0  0  0  0  0  0  0
   29.5243  -20.0792  -19.0623 C   0  0  0  0  0  0  0  0  0  0  0  0
   30.7360  -19.3638  -19.4046 N   0  0  0  0  0  0  0  0  0  0  0  0
   25.5394  -19.8915  -14.3084 C   0  0  0  0  0  0  0  0  0  0  0  0
   25.1654  -18.7274  -14.0321 O   0  0  0  0  0  0  0  0  0  0  0  0
   18.8626  -21.4596   -9.2075 N   0  0  0  0  0  0  0  0  0  0  0  0
   19.8515  -20.7104   -8.5128 C   0  0  0  0  0  0  0  0  0  0  0  0
   19.5601  -20.1942   -7.3582 N   0  0  0  0  0  0  0  0  0  0  0  0
   21.1495  -20.4950   -9.0219 N   0  0  0  0  0  0  0  0  0  0  0  0
   21.6121  -20.9160  -10.3221 C   0  0  0  0  0  0  0  0  0  0  0  0
   23.0589  -20.5078  -10.4790 C   0  0  0  0  0  0  0  0  0  0  0  0
   23.6074  -20.9011  -11.8280 C   0  0  0  0  0  0  0  0  0  0  0  0
   25.0579  -20.5039  -11.9073 C   0  0  2  0  0  0  0  0  0  0  0  0
   25.5931  -20.8247  -13.2420 N   0  0  0  0  0  0  0  0  0  0  0  0
   25.8281  -21.1736  -10.8595 C   0  0  0  0  0  0  0  0  0  0  0  0
   25.8768  -20.7140   -9.5543 O   0  0  0  0  0  0  0  0  0  0  0  0
   26.4714  -22.2087  -11.1589 O   0  0  0  0  0  0  0  0  0  0  0  0
  2  1  1  6
  2  3  1  0
  3  4  1  0
  4  8  1  0
  4  5  2  0
  6  7  2  0
  6  2  1  0
  9  6  1  0
 10 16  1  0
 10  9  1  0
 10 11  1  6
 12 11  1  0
 12 13  1  0
 13 14  1  0
 14 15  1  0
 16 17  2  0
 18 19  1  0
 19 21  1  0
 20 19  2  0
 22 21  1  0
 23 24  1  0
 23 22  1  0
 25 24  1  6
 25 27  1  0
 26 25  1  0
 26 16  1  0
 27 29  2  0
 27 28  1  0
M  END
$$$$
