DKR.pdb
     RDKit          3D

 29 28  0  0  1  0  0  0  0  0999 V2000
   24.9145  -21.5783  -16.9045 N   0  0  0  0  0  0  0  0  0  0  0  0
   25.0140  -22.1293  -15.5565 C   0  0  1  0  0  0  0  0  0  0  0  0
   26.3503  -21.7012  -15.0012 C   0  0  0  0  0  0  0  0  0  0  0  0
   27.4394  -22.2457  -15.8155 C   0  0  0  0  0  0  0  0  0  0  0  0
   27.8171  -21.7145  -16.9049 O   0  0  0  0  0  0  0  0  0  0  0  0
   23.9343  -21.5936  -14.6956 C   0  0  0  0  0  0  0  0  0  0  0  0
   23.9681  -21.8873  -13.4596 O   0  0  0  0  0  0  0  0  0  0  0  0
   28.0983  -23.3904  -15.3948 O   0  0  0  0  0  0  0  0  0  0  0  0
   22.9024  -20.7863  -15.2184 N   0  0  0  0  0  0  0  0  0  0  0  0
   21.8342  -20.2306  -14.3593 C   0  0  1  0  0  0  0  0  0  0  0  0
   21.4163  -18.9094  -14.9261 C   0  0  0  0  0  0  0  0  0  0  0  0
   20.2761  -18.2150  -14.3083 C   0  0  0  0  0  0  0  0  0  0  0  0
   20.1456  -16.8720  -15.0658 C   0  0  0  0  0  0  0  0  0  0  0  0
   18.9388  -16.1880  -14.4584 C   0  0  0  0  0  0  0  0  0  0  0  0
   18.8130  -14.8878  -15.0836 N   0  0  0  0  0  0  0  0  0  0  0  0
   20.8077  -21.2447  -14.2175 C   0  0  0  0  0  0  0  0  0  0  0  0
   20.2990  -21.7890  -15.2255 O   0  0  0  0  0  0  0  0  0  0  0  0
   17.2253  -26.0675   -8.1663 N   0  0  0  0  0  0  0  0  0  0  0  0
   18.4327  -25.3168   -8.1501 C   0  0  0  0  0  0  0  0  0  0  0  0
   18.7970  -24.7267   -7.0531 N   0  0  0  0  0  0  0  0  0  0  0  0
   19.2649  -25.1771   -9.2808 N   0  0  0  0  0  0  0  0  0  0  0  0
   19.0272  -25.7857  -10.5671 C   0  0  0  0  0  0  0  0  0  0  0  0
   18.6223  -24.7087  -11.5472 C   0  0  0  0  0  0  0  0  0  0  0  0
   19.6886  -23.6510  -11.6873 C   0  0  0  0  0  0  0  0  0  0  0  0
   19.3182  -22.7211  -12.8125 C   0  0  2  0  0  0  0  0  0  0  0  0
   20.3384  -21.6667  -12.9476 N   0  0  0  0  0  0  0  0  0  0  0  0
   17.9948  -22.1427  -12.5815 C   0  0  0  0  0  0  0  0  0  0  0  0
   16.8205  -22.8327  -12.8307 O   0  0  0  0  0  0  0  0  0  0  0  0
   17.9232  -20.9706  -12.1387 O   0  0  0  0  0  0  0  0  0  0  0  0
  2  1  1  6
  2  3  1  0
  3  4  1  0
  4  8  1  0
  4  5  2  0
  6  7  2  0
  6  2  1  0
  9  6  1  0
 10 16  1  0
 10  9  1  0
 10 11  1  6
 12 11  1  0
 12 13  1  0
 13 14  1  0
 14 15  1  0
 16 17  2  0
 18 19  1  0
 19 21  1  0
 20 19  2  0
 22 21  1  0
 23 24  1  0
 23 22  1  0
 25 24  1  1
 25 27  1  0
 26 25  1  0
 26 16  1  0
 27 29  2  0
 27 28  1  0
M  END
$$$$
