DKR.pdb
     RDKit          3D

 29 28  0  0  1  0  0  0  0  0999 V2000
   27.0371  -21.6150  -15.2232 N   0  0  0  0  0  0  0  0  0  0  0  0
   25.8934  -21.4366  -16.1123 C   0  0  1  0  0  0  0  0  0  0  0  0
   25.6189  -22.7746  -16.7540 C   0  0  0  0  0  0  0  0  0  0  0  0
   25.9823  -22.7444  -18.1727 C   0  0  0  0  0  0  0  0  0  0  0  0
   26.3588  -21.6867  -18.7651 O   0  0  0  0  0  0  0  0  0  0  0  0
   24.7005  -21.0103  -15.3448 C   0  0  0  0  0  0  0  0  0  0  0  0
   24.5863  -21.4353  -14.1525 O   0  0  0  0  0  0  0  0  0  0  0  0
   25.9185  -23.9118  -18.9175 O   0  0  0  0  0  0  0  0  0  0  0  0
   23.7219  -20.1641  -15.9070 N   0  0  0  0  0  0  0  0  0  0  0  0
   22.5755  -19.6635  -15.1178 C   0  0  1  0  0  0  0  0  0  0  0  0
   22.1969  -18.3143  -15.6446 C   0  0  0  0  0  0  0  0  0  0  0  0
   20.9845  -17.6732  -15.1128 C   0  0  0  0  0  0  0  0  0  0  0  0
   20.9159  -16.2838  -15.7905 C   0  0  0  0  0  0  0  0  0  0  0  0
   19.5975  -15.6876  -15.3438 C   0  0  0  0  0  0  0  0  0  0  0  0
   19.4376  -14.4203  -16.0263 N   0  0  0  0  0  0  0  0  0  0  0  0
   21.5506  -20.6890  -15.1263 C   0  0  0  0  0  0  0  0  0  0  0  0
   21.2149  -21.2527  -16.1944 O   0  0  0  0  0  0  0  0  0  0  0  0
   19.6574  -27.6273  -10.3234 N   0  0  0  0  0  0  0  0  0  0  0  0
   20.2945  -27.2652  -11.5418 C   0  0  0  0  0  0  0  0  0  0  0  0
   21.2453  -28.0162  -12.0072 N   0  0  0  0  0  0  0  0  0  0  0  0
   19.9429  -26.1151  -12.2796 N   0  0  0  0  0  0  0  0  0  0  0  0
   18.9464  -25.1487  -11.8862 C   0  0  0  0  0  0  0  0  0  0  0  0
   18.8340  -24.0986  -12.9675 C   0  0  0  0  0  0  0  0  0  0  0  0
   19.9658  -23.1037  -12.9003 C   0  0  0  0  0  0  0  0  0  0  0  0
   19.7754  -22.0645  -13.9735 C   0  0  2  0  0  0  0  0  0  0  0  0
   20.8896  -21.1010  -13.9413 N   0  0  0  0  0  0  0  0  0  0  0  0
   18.4910  -21.3856  -13.8038 C   0  0  0  0  0  0  0  0  0  0  0  0
   17.2797  -21.9865  -14.1015 O   0  0  0  0  0  0  0  0  0  0  0  0
   18.4895  -20.2080  -13.3698 O   0  0  0  0  0  0  0  0  0  0  0  0
  2  1  1  1
  2  3  1  0
  3  4  1  0
  4  8  1  0
  4  5  2  0
  6  7  2  0
  6  2  1  0
  9  6  1  0
 10 16  1  0
 10  9  1  0
 10 11  1  6
 12 11  1  0
 12 13  1  0
 13 14  1  0
 14 15  1  0
 16 17  2  0
 18 19  1  0
 19 21  1  0
 20 19  2  0
 22 21  1  0
 23 24  1  0
 23 22  1  0
 25 24  1  1
 25 27  1  0
 26 25  1  0
 26 16  1  0
 27 29  2  0
 27 28  1  0
M  END
$$$$
