DKR.pdb
     RDKit          3D

 29 28  0  0  1  0  0  0  0  0999 V2000
   29.1109  -21.0941  -16.6810 N   0  0  0  0  0  0  0  0  0  0  0  0
   27.7418  -20.5942  -16.6034 C   0  0  1  0  0  0  0  0  0  0  0  0
   26.9755  -21.2247  -17.7403 C   0  0  0  0  0  0  0  0  0  0  0  0
   27.6582  -20.9806  -19.0131 C   0  0  0  0  0  0  0  0  0  0  0  0
   28.6071  -20.1466  -19.1372 O   0  0  0  0  0  0  0  0  0  0  0  0
   27.1179  -20.9863  -15.3186 C   0  0  0  0  0  0  0  0  0  0  0  0
   26.1606  -21.8211  -15.3609 O   0  0  0  0  0  0  0  0  0  0  0  0
   27.2649  -21.6814  -20.1427 O   0  0  0  0  0  0  0  0  0  0  0  0
   27.5625  -20.4588  -14.0882 N   0  0  0  0  0  0  0  0  0  0  0  0
   26.9540  -20.8596  -12.8010 C   0  0  1  0  0  0  0  0  0  0  0  0
   28.0055  -20.7750  -11.7387 C   0  0  0  0  0  0  0  0  0  0  0  0
   29.1074  -21.7491  -11.7692 C   0  0  0  0  0  0  0  0  0  0  0  0
   29.9868  -21.4226  -10.5385 C   0  0  0  0  0  0  0  0  0  0  0  0
   31.1388  -22.4035  -10.6010 C   0  0  0  0  0  0  0  0  0  0  0  0
   32.0325  -22.0981   -9.5031 N   0  0  0  0  0  0  0  0  0  0  0  0
   25.7559  -20.0654  -12.6113 C   0  0  0  0  0  0  0  0  0  0  0  0
   25.7945  -18.8151  -12.6930 O   0  0  0  0  0  0  0  0  0  0  0  0
   23.3969  -19.3130  -18.8116 N   0  0  0  0  0  0  0  0  0  0  0  0
   23.3043  -20.6163  -18.2509 C   0  0  0  0  0  0  0  0  0  0  0  0
   23.7452  -21.6308  -18.9297 N   0  0  0  0  0  0  0  0  0  0  0  0
   22.7484  -20.8668  -16.9785 N   0  0  0  0  0  0  0  0  0  0  0  0
   22.2884  -19.8543  -16.0594 C   0  0  0  0  0  0  0  0  0  0  0  0
   22.4731  -20.3598  -14.6470 C   0  0  0  0  0  0  0  0  0  0  0  0
   23.0480  -19.2972  -13.7438 C   0  0  0  0  0  0  0  0  0  0  0  0
   23.2507  -19.8743  -12.3676 C   0  0  2  0  0  0  0  0  0  0  0  0
   24.4981  -20.6574  -12.3313 N   0  0  0  0  0  0  0  0  0  0  0  0
   22.1039  -20.6984  -11.9862 C   0  0  0  0  0  0  0  0  0  0  0  0
   20.8966  -20.1595  -11.5749 O   0  0  0  0  0  0  0  0  0  0  0  0
   22.2220  -21.9468  -12.0345 O   0  0  0  0  0  0  0  0  0  0  0  0
  2  1  1  1
  2  3  1  0
  3  4  1  0
  4  8  1  0
  4  5  2  0
  6  7  2  0
  6  2  1  0
  9  6  1  0
 10 16  1  0
 10  9  1  0
 10 11  1  1
 12 11  1  0
 12 13  1  0
 13 14  1  0
 14 15  1  0
 16 17  2  0
 18 19  1  0
 19 21  1  0
 20 19  2  0
 22 21  1  0
 23 24  1  0
 23 22  1  0
 25 24  1  6
 25 27  1  0
 26 25  1  0
 26 16  1  0
 27 29  2  0
 27 28  1  0
M  END
$$$$
