DKR.pdb
     RDKit          3D

 29 28  0  0  1  0  0  0  0  0999 V2000
   14.3974  -26.9364   -1.5307 N   0  0  0  0  0  0  0  0  0  0  0  0
   15.4759  -26.3087   -0.7733 C   0  0  1  0  0  0  0  0  0  0  0  0
   16.3538  -25.5890   -1.7674 C   0  0  0  0  0  0  0  0  0  0  0  0
   17.0512  -26.5517   -2.6233 C   0  0  0  0  0  0  0  0  0  0  0  0
   17.2756  -27.7505   -2.2712 O   0  0  0  0  0  0  0  0  0  0  0  0
   14.9293  -25.3287    0.1933 C   0  0  0  0  0  0  0  0  0  0  0  0
   13.8039  -24.8030   -0.0756 O   0  0  0  0  0  0  0  0  0  0  0  0
   17.4931  -26.1550   -3.8759 O   0  0  0  0  0  0  0  0  0  0  0  0
   15.6241  -24.9847    1.3719 N   0  0  0  0  0  0  0  0  0  0  0  0
   14.9662  -24.2667    2.4851 C   0  0  1  0  0  0  0  0  0  0  0  0
   15.4821  -24.8265    3.7742 C   0  0  0  0  0  0  0  0  0  0  0  0
   14.7628  -25.9572    4.3808 C   0  0  0  0  0  0  0  0  0  0  0  0
   15.5714  -26.3361    5.6445 C   0  0  0  0  0  0  0  0  0  0  0  0
   14.8231  -27.4988    6.2621 C   0  0  0  0  0  0  0  0  0  0  0  0
   15.5781  -27.9404    7.4164 N   0  0  0  0  0  0  0  0  0  0  0  0
   15.1448  -22.8452    2.2620 C   0  0  0  0  0  0  0  0  0  0  0  0
   16.1166  -22.4167    1.5962 O   0  0  0  0  0  0  0  0  0  0  0  0
   10.2586  -15.1437    3.6594 N   0  0  0  0  0  0  0  0  0  0  0  0
   11.3126  -15.0448    2.7102 C   0  0  0  0  0  0  0  0  0  0  0  0
   11.4683  -13.9386    2.0494 N   0  0  0  0  0  0  0  0  0  0  0  0
   12.2085  -16.1020    2.4451 N   0  0  0  0  0  0  0  0  0  0  0  0
   12.0267  -17.4699    2.8662 C   0  0  0  0  0  0  0  0  0  0  0  0
   13.2387  -18.2717    2.4508 C   0  0  0  0  0  0  0  0  0  0  0  0
   13.1156  -19.7201    2.8536 C   0  0  0  0  0  0  0  0  0  0  0  0
   14.3749  -20.4499    2.4669 C   0  0  2  0  0  0  0  0  0  0  0  0
   14.2383  -21.8838    2.7768 N   0  0  0  0  0  0  0  0  0  0  0  0
   15.5301  -19.8734    3.1545 C   0  0  0  0  0  0  0  0  0  0  0  0
   16.1819  -20.5154    4.1937 O   0  0  0  0  0  0  0  0  0  0  0  0
   15.9461  -18.7485    2.7849 O   0  0  0  0  0  0  0  0  0  0  0  0
  2  1  1  6
  2  3  1  0
  3  4  1  0
  4  8  1  0
  4  5  2  0
  6  7  2  0
  6  2  1  0
  9  6  1  0
 10 16  1  0
 10  9  1  0
 10 11  1  1
 12 11  1  0
 12 13  1  0
 13 14  1  0
 14 15  1  0
 16 17  2  0
 18 19  1  0
 19 21  1  0
 20 19  2  0
 22 21  1  0
 23 24  1  0
 23 22  1  0
 25 24  1  1
 25 27  1  0
 26 25  1  0
 26 16  1  0
 27 29  2  0
 27 28  1  0
M  END
$$$$
