DKR.pdb
     RDKit          3D

 29 28  0  0  1  0  0  0  0  0999 V2000
   22.1828  -22.7919  -18.2845 N   0  0  0  0  0  0  0  0  0  0  0  0
   22.3303  -23.6412  -17.1066 C   0  0  1  0  0  0  0  0  0  0  0  0
   23.7176  -24.2328  -17.1587 C   0  0  0  0  0  0  0  0  0  0  0  0
   23.8136  -25.2140  -18.2420 C   0  0  0  0  0  0  0  0  0  0  0  0
   24.3186  -26.3678  -18.0838 O   0  0  0  0  0  0  0  0  0  0  0  0
   22.1879  -22.8410  -15.8684 C   0  0  0  0  0  0  0  0  0  0  0  0
   22.5803  -23.3674  -14.7803 O   0  0  0  0  0  0  0  0  0  0  0  0
   23.3377  -24.8866  -19.5022 O   0  0  0  0  0  0  0  0  0  0  0  0
   21.6387  -21.5417  -15.8856 N   0  0  0  0  0  0  0  0  0  0  0  0
   21.4876  -20.7412  -14.6510 C   0  0  1  0  0  0  0  0  0  0  0  0
   21.3641  -19.3005  -15.0385 C   0  0  0  0  0  0  0  0  0  0  0  0
   22.5268  -18.6416  -15.6531 C   0  0  0  0  0  0  0  0  0  0  0  0
   22.1103  -17.1653  -15.8566 C   0  0  0  0  0  0  0  0  0  0  0  0
   23.2893  -16.5103  -16.5452 C   0  0  0  0  0  0  0  0  0  0  0  0
   22.9788  -15.1042  -16.6998 N   0  0  0  0  0  0  0  0  0  0  0  0
   20.4012  -21.3153  -13.8814 C   0  0  0  0  0  0  0  0  0  0  0  0
   19.2975  -21.5692  -14.4188 O   0  0  0  0  0  0  0  0  0  0  0  0
   17.7017  -24.5606   -5.9010 N   0  0  0  0  0  0  0  0  0  0  0  0
   17.4332  -25.3338   -7.0636 C   0  0  0  0  0  0  0  0  0  0  0  0
   16.4469  -26.1774   -7.0495 N   0  0  0  0  0  0  0  0  0  0  0  0
   18.1951  -25.2310   -8.2465 N   0  0  0  0  0  0  0  0  0  0  0  0
   19.1643  -24.1986   -8.5231 C   0  0  0  0  0  0  0  0  0  0  0  0
   18.7242  -23.4349   -9.7509 C   0  0  0  0  0  0  0  0  0  0  0  0
   19.8990  -22.8616  -10.5034 C   0  0  0  0  0  0  0  0  0  0  0  0
   19.3959  -22.1059  -11.7050 C   0  0  2  0  0  0  0  0  0  0  0  0
   20.5343  -21.6166  -12.5021 N   0  0  0  0  0  0  0  0  0  0  0  0
   18.5348  -20.9995  -11.2878 C   0  0  0  0  0  0  0  0  0  0  0  0
   17.1629  -21.1269  -11.1512 O   0  0  0  0  0  0  0  0  0  0  0  0
   19.0647  -19.8883  -11.0439 O   0  0  0  0  0  0  0  0  0  0  0  0
  2  1  1  6
  2  3  1  0
  3  4  1  0
  4  8  1  0
  4  5  2  0
  6  7  2  0
  6  2  1  0
  9  6  1  0
 10 16  1  0
 10  9  1  0
 10 11  1  6
 12 11  1  0
 12 13  1  0
 13 14  1  0
 14 15  1  0
 16 17  2  0
 18 19  1  0
 19 21  1  0
 20 19  2  0
 22 21  1  0
 23 24  1  0
 23 22  1  0
 25 24  1  1
 25 27  1  0
 26 25  1  0
 26 16  1  0
 27 29  2  0
 27 28  1  0
M  END
$$$$
