DKR.pdb
     RDKit          3D

 29 28  0  0  1  0  0  0  0  0999 V2000
   26.8994  -22.5195  -18.7757 N   0  0  0  0  0  0  0  0  0  0  0  0
   25.9657  -23.1871  -17.8740 C   0  0  1  0  0  0  0  0  0  0  0  0
   24.5824  -22.7003  -18.2300 C   0  0  0  0  0  0  0  0  0  0  0  0
   24.4089  -21.3067  -17.8135 C   0  0  0  0  0  0  0  0  0  0  0  0
   24.1410  -20.3720  -18.6296 O   0  0  0  0  0  0  0  0  0  0  0  0
   26.0276  -24.6556  -18.0567 C   0  0  0  0  0  0  0  0  0  0  0  0
   25.5752  -25.1319  -19.1447 O   0  0  0  0  0  0  0  0  0  0  0  0
   24.5392  -20.9745  -16.4740 O   0  0  0  0  0  0  0  0  0  0  0  0
   26.5669  -25.5029  -17.0662 N   0  0  0  0  0  0  0  0  0  0  0  0
   26.6289  -26.9701  -17.2425 C   0  0  1  0  0  0  0  0  0  0  0  0
   27.7543  -27.4959  -16.4069 C   0  0  0  0  0  0  0  0  0  0  0  0
   27.9215  -28.9534  -16.3001 C   0  0  0  0  0  0  0  0  0  0  0  0
   29.2450  -29.2763  -17.0341 C   0  0  0  0  0  0  0  0  0  0  0  0
   29.2982  -30.7876  -17.1127 C   0  0  0  0  0  0  0  0  0  0  0  0
   30.6017  -31.1526  -17.6275 N   0  0  0  0  0  0  0  0  0  0  0  0
   25.3060  -27.5035  -16.9825 C   0  0  0  0  0  0  0  0  0  0  0  0
   24.6036  -27.0516  -16.0478 O   0  0  0  0  0  0  0  0  0  0  0  0
   18.1086  -32.2445  -19.6008 N   0  0  0  0  0  0  0  0  0  0  0  0
   18.3949  -30.9183  -20.0260 C   0  0  0  0  0  0  0  0  0  0  0  0
   17.4390  -30.1898  -20.5159 N   0  0  0  0  0  0  0  0  0  0  0  0
   19.6822  -30.3469  -19.9433 N   0  0  0  0  0  0  0  0  0  0  0  0
   20.8757  -31.0449  -19.5310 C   0  0  0  0  0  0  0  0  0  0  0  0
   21.4812  -30.3181  -18.3521 C   0  0  0  0  0  0  0  0  0  0  0  0
   22.8208  -29.7156  -18.6950 C   0  0  0  0  0  0  0  0  0  0  0  0
   23.4335  -29.1307  -17.4498 C   0  0  2  0  0  0  0  0  0  0  0  0
   24.7487  -28.5464  -17.7653 N   0  0  0  0  0  0  0  0  0  0  0  0
   23.5507  -30.1532  -16.4104 C   0  0  0  0  0  0  0  0  0  0  0  0
   22.5754  -30.3619  -15.4500 O   0  0  0  0  0  0  0  0  0  0  0  0
   24.5802  -30.8706  -16.3903 O   0  0  0  0  0  0  0  0  0  0  0  0
  2  1  1  6
  2  3  1  0
  3  4  1  0
  4  8  1  0
  4  5  2  0
  6  7  2  0
  6  2  1  0
  9  6  1  0
 10 16  1  0
 10  9  1  0
 10 11  1  1
 12 11  1  0
 12 13  1  0
 13 14  1  0
 14 15  1  0
 16 17  2  0
 18 19  1  0
 19 21  1  0
 20 19  2  0
 22 21  1  0
 23 24  1  0
 23 22  1  0
 25 24  1  6
 25 27  1  0
 26 25  1  0
 26 16  1  0
 27 29  2  0
 27 28  1  0
M  END
$$$$
