DKR.pdb
     RDKit          3D

 29 28  0  0  1  0  0  0  0  0999 V2000
   19.7810  -20.6817  -19.8510 N   0  0  0  0  0  0  0  0  0  0  0  0
   19.7037  -20.9386  -18.4162 C   0  0  1  0  0  0  0  0  0  0  0  0
   18.2841  -21.3538  -18.1170 C   0  0  0  0  0  0  0  0  0  0  0  0
   17.4117  -20.1788  -18.0517 C   0  0  0  0  0  0  0  0  0  0  0  0
   16.3074  -20.1052  -18.6734 O   0  0  0  0  0  0  0  0  0  0  0  0
   20.6229  -22.0356  -18.0348 C   0  0  0  0  0  0  0  0  0  0  0  0
   20.8085  -22.9670  -18.8793 O   0  0  0  0  0  0  0  0  0  0  0  0
   17.7917  -19.0899  -17.2826 O   0  0  0  0  0  0  0  0  0  0  0  0
   21.2734  -22.0551  -16.7832 N   0  0  0  0  0  0  0  0  0  0  0  0
   22.2266  -23.1244  -16.4149 C   0  0  1  0  0  0  0  0  0  0  0  0
   23.4122  -22.4896  -15.7571 C   0  0  0  0  0  0  0  0  0  0  0  0
   24.5028  -23.3617  -15.2945 C   0  0  0  0  0  0  0  0  0  0  0  0
   25.4220  -23.5668  -16.5223 C   0  0  0  0  0  0  0  0  0  0  0  0
   26.5619  -24.4316  -16.0262 C   0  0  0  0  0  0  0  0  0  0  0  0
   27.4171  -24.7190  -17.1590 N   0  0  0  0  0  0  0  0  0  0  0  0
   21.5007  -24.1209  -15.6519 C   0  0  0  0  0  0  0  0  0  0  0  0
   20.8351  -23.7962  -14.6405 O   0  0  0  0  0  0  0  0  0  0  0  0
   22.1005  -33.0682  -14.9340 N   0  0  0  0  0  0  0  0  0  0  0  0
   22.7090  -31.9779  -15.6142 C   0  0  0  0  0  0  0  0  0  0  0  0
   23.5640  -32.2191  -16.5603 N   0  0  0  0  0  0  0  0  0  0  0  0
   22.4288  -30.6295  -15.3078 N   0  0  0  0  0  0  0  0  0  0  0  0
   23.0423  -29.4887  -15.9433 C   0  0  0  0  0  0  0  0  0  0  0  0
   22.5438  -28.2306  -15.2700 C   0  0  0  0  0  0  0  0  0  0  0  0
   21.1405  -27.8843  -15.7013 C   0  0  0  0  0  0  0  0  0  0  0  0
   20.7972  -26.5040  -15.2066 C   0  0  2  0  0  0  0  0  0  0  0  0
   21.5060  -25.4929  -16.0104 N   0  0  0  0  0  0  0  0  0  0  0  0
   21.1304  -26.3730  -13.7884 C   0  0  0  0  0  0  0  0  0  0  0  0
   22.2429  -25.6815  -13.3398 O   0  0  0  0  0  0  0  0  0  0  0  0
   20.3740  -26.9115  -12.9440 O   0  0  0  0  0  0  0  0  0  0  0  0
  2  1  1  6
  2  3  1  0
  3  4  1  0
  4  8  1  0
  4  5  2  0
  6  7  2  0
  6  2  1  0
  9  6  1  0
 10 16  1  0
 10  9  1  0
 10 11  1  1
 12 11  1  0
 12 13  1  0
 13 14  1  0
 14 15  1  0
 16 17  2  0
 18 19  1  0
 19 21  1  0
 20 19  2  0
 22 21  1  0
 23 24  1  0
 23 22  1  0
 25 24  1  6
 25 27  1  0
 26 25  1  0
 26 16  1  0
 27 29  2  0
 27 28  1  0
M  END
$$$$
