DKR.pdb
     RDKit          3D

 29 28  0  0  1  0  0  0  0  0999 V2000
   20.6650  -19.4947  -18.7144 N   0  0  0  0  0  0  0  0  0  0  0  0
   21.8117  -18.5977  -18.6098 C   0  0  1  0  0  0  0  0  0  0  0  0
   21.5331  -17.6553  -17.4646 C   0  0  0  0  0  0  0  0  0  0  0  0
   20.5595  -16.6373  -17.8667 C   0  0  0  0  0  0  0  0  0  0  0  0
   20.6572  -15.9795  -18.9480 O   0  0  0  0  0  0  0  0  0  0  0  0
   23.0458  -19.3641  -18.3209 C   0  0  0  0  0  0  0  0  0  0  0  0
   22.9221  -20.4621  -17.6929 O   0  0  0  0  0  0  0  0  0  0  0  0
   19.4775  -16.3664  -17.0435 O   0  0  0  0  0  0  0  0  0  0  0  0
   24.3161  -18.9015  -18.7239 N   0  0  0  0  0  0  0  0  0  0  0  0
   25.5475  -19.6808  -18.4711 C   0  0  1  0  0  0  0  0  0  0  0  0
   26.5560  -19.3162  -19.5157 C   0  0  0  0  0  0  0  0  0  0  0  0
   26.2709  -19.6719  -20.9143 C   0  0  0  0  0  0  0  0  0  0  0  0
   27.4753  -19.1472  -21.7319 C   0  0  0  0  0  0  0  0  0  0  0  0
   27.1529  -19.4797  -23.1737 C   0  0  0  0  0  0  0  0  0  0  0  0
   28.2115  -18.9310  -23.9956 N   0  0  0  0  0  0  0  0  0  0  0  0
   25.9249  -19.4754  -17.0863 C   0  0  0  0  0  0  0  0  0  0  0  0
   25.8738  -18.3347  -16.5691 O   0  0  0  0  0  0  0  0  0  0  0  0
   25.6316  -21.5920   -8.5955 N   0  0  0  0  0  0  0  0  0  0  0  0
   24.5910  -21.0572   -9.4033 C   0  0  0  0  0  0  0  0  0  0  0  0
   23.5955  -20.4496   -8.8338 N   0  0  0  0  0  0  0  0  0  0  0  0
   24.5839  -21.1563  -10.8107 N   0  0  0  0  0  0  0  0  0  0  0  0
   25.5221  -21.9231  -11.5939 C   0  0  0  0  0  0  0  0  0  0  0  0
   26.2574  -20.9870  -12.5253 C   0  0  0  0  0  0  0  0  0  0  0  0
   25.9287  -21.2646  -13.9710 C   0  0  0  0  0  0  0  0  0  0  0  0
   26.7185  -20.3279  -14.8467 C   0  0  2  0  0  0  0  0  0  0  0  0
   26.3611  -20.5421  -16.2599 N   0  0  0  0  0  0  0  0  0  0  0  0
   28.1530  -20.5193  -14.6346 C   0  0  0  0  0  0  0  0  0  0  0  0
   28.8738  -19.8058  -13.6920 O   0  0  0  0  0  0  0  0  0  0  0  0
   28.7539  -21.3668  -15.3385 O   0  0  0  0  0  0  0  0  0  0  0  0
  2  1  1  1
  2  3  1  0
  3  4  1  0
  4  8  1  0
  4  5  2  0
  6  7  2  0
  6  2  1  0
  9  6  1  0
 10 16  1  0
 10  9  1  0
 10 11  1  6
 12 11  1  0
 12 13  1  0
 13 14  1  0
 14 15  1  0
 16 17  2  0
 18 19  1  0
 19 21  1  0
 20 19  2  0
 22 21  1  0
 23 24  1  0
 23 22  1  0
 25 24  1  1
 25 27  1  0
 26 25  1  0
 26 16  1  0
 27 29  2  0
 27 28  1  0
M  END
$$$$
