DKR.pdb
     RDKit          3D

 29 28  0  0  1  0  0  0  0  0999 V2000
   15.0619   -4.3628   -7.3548 N   0  0  0  0  0  0  0  0  0  0  0  0
   15.8388   -4.0836   -8.5585 C   0  0  1  0  0  0  0  0  0  0  0  0
   16.9094   -3.0921   -8.1739 C   0  0  0  0  0  0  0  0  0  0  0  0
   16.3396   -1.7483   -8.0497 C   0  0  0  0  0  0  0  0  0  0  0  0
   15.4347   -1.4587   -7.2079 O   0  0  0  0  0  0  0  0  0  0  0  0
   16.4787   -5.3208   -9.0621 C   0  0  0  0  0  0  0  0  0  0  0  0
   17.0240   -6.0893   -8.2094 O   0  0  0  0  0  0  0  0  0  0  0  0
   16.7956   -0.7355   -8.8792 O   0  0  0  0  0  0  0  0  0  0  0  0
   16.4877   -5.6435  -10.4354 N   0  0  0  0  0  0  0  0  0  0  0  0
   16.9018   -6.9776  -10.9215 C   0  0  1  0  0  0  0  0  0  0  0  0
   15.6958   -7.6699  -11.4759 C   0  0  0  0  0  0  0  0  0  0  0  0
   14.6474   -8.1018  -10.5387 C   0  0  0  0  0  0  0  0  0  0  0  0
   14.8784   -9.6167  -10.3239 C   0  0  0  0  0  0  0  0  0  0  0  0
   13.7156  -10.0798   -9.4715 C   0  0  0  0  0  0  0  0  0  0  0  0
   13.8454  -11.5115   -9.2962 N   0  0  0  0  0  0  0  0  0  0  0  0
   18.0284   -6.7929  -11.8153 C   0  0  0  0  0  0  0  0  0  0  0  0
   18.0995   -5.7869  -12.5598 O   0  0  0  0  0  0  0  0  0  0  0  0
   22.6494  -12.4172  -15.4078 N   0  0  0  0  0  0  0  0  0  0  0  0
   23.2112  -11.2502  -15.9943 C   0  0  0  0  0  0  0  0  0  0  0  0
   23.5395  -11.2673  -17.2498 N   0  0  0  0  0  0  0  0  0  0  0  0
   23.4348  -10.0594  -15.2713 N   0  0  0  0  0  0  0  0  0  0  0  0
   23.0753   -9.8464  -13.8904 C   0  0  0  0  0  0  0  0  0  0  0  0
   22.2116   -8.6095  -13.7980 C   0  0  0  0  0  0  0  0  0  0  0  0
   21.0891   -8.7845  -12.8056 C   0  0  0  0  0  0  0  0  0  0  0  0
   20.1834   -7.5829  -12.8662 C   0  0  2  0  0  0  0  0  0  0  0  0
   19.0923   -7.7279  -11.8868 N   0  0  0  0  0  0  0  0  0  0  0  0
   19.6535   -7.4113  -14.2188 C   0  0  0  0  0  0  0  0  0  0  0  0
   18.6110   -8.1733  -14.7183 O   0  0  0  0  0  0  0  0  0  0  0  0
   20.1677   -6.5355  -14.9560 O   0  0  0  0  0  0  0  0  0  0  0  0
  2  1  1  1
  2  3  1  0
  3  4  1  0
  4  8  1  0
  4  5  2  0
  6  7  2  0
  6  2  1  0
  9  6  1  0
 10 16  1  0
 10  9  1  0
 10 11  1  6
 12 11  1  0
 12 13  1  0
 13 14  1  0
 14 15  1  0
 16 17  2  0
 18 19  1  0
 19 21  1  0
 20 19  2  0
 22 21  1  0
 23 24  1  0
 23 22  1  0
 25 24  1  6
 25 27  1  0
 26 25  1  0
 26 16  1  0
 27 29  2  0
 27 28  1  0
M  END
$$$$
