DKR.pdb
     RDKit          3D

 29 28  0  0  1  0  0  0  0  0999 V2000
   21.2556  -19.0588  -19.6293 N   0  0  0  0  0  0  0  0  0  0  0  0
   21.8059  -18.6327  -18.3463 C   0  0  1  0  0  0  0  0  0  0  0  0
   20.8923  -17.5591  -17.8078 C   0  0  0  0  0  0  0  0  0  0  0  0
   21.2292  -16.2603  -18.3955 C   0  0  0  0  0  0  0  0  0  0  0  0
   22.1378  -16.1146  -19.2700 O   0  0  0  0  0  0  0  0  0  0  0  0
   21.8401  -19.7663  -17.3937 C   0  0  0  0  0  0  0  0  0  0  0  0
   20.8984  -20.6173  -17.4591 O   0  0  0  0  0  0  0  0  0  0  0  0
   20.5367  -15.1293  -17.9916 O   0  0  0  0  0  0  0  0  0  0  0  0
   22.8752  -19.9057  -16.4455 N   0  0  0  0  0  0  0  0  0  0  0  0
   22.9800  -21.0952  -15.5727 C   0  0  1  0  0  0  0  0  0  0  0  0
   24.4308  -21.3668  -15.3224 C   0  0  0  0  0  0  0  0  0  0  0  0
   25.1612  -22.2003  -16.2897 C   0  0  0  0  0  0  0  0  0  0  0  0
   26.5810  -22.3763  -15.7002 C   0  0  0  0  0  0  0  0  0  0  0  0
   27.3519  -23.1559  -16.7447 C   0  0  0  0  0  0  0  0  0  0  0  0
   28.7048  -23.3220  -16.2554 N   0  0  0  0  0  0  0  0  0  0  0  0
   22.1391  -20.8691  -14.4134 C   0  0  0  0  0  0  0  0  0  0  0  0
   21.9373  -19.7094  -13.9827 O   0  0  0  0  0  0  0  0  0  0  0  0
   17.7302  -26.0370   -8.1356 N   0  0  0  0  0  0  0  0  0  0  0  0
   17.3051  -24.6845   -8.2433 C   0  0  0  0  0  0  0  0  0  0  0  0
   16.2669  -24.2912   -7.5711 N   0  0  0  0  0  0  0  0  0  0  0  0
   17.9617  -23.7360   -9.0557 N   0  0  0  0  0  0  0  0  0  0  0  0
   18.7768  -24.0488  -10.2043 C   0  0  0  0  0  0  0  0  0  0  0  0
   19.3459  -22.7640  -10.7609 C   0  0  0  0  0  0  0  0  0  0  0  0
   20.2791  -23.0210  -11.9178 C   0  0  0  0  0  0  0  0  0  0  0  0
   20.7206  -21.7039  -12.4995 C   0  0  2  0  0  0  0  0  0  0  0  0
   21.5097  -21.9353  -13.7220 N   0  0  0  0  0  0  0  0  0  0  0  0
   21.4909  -20.9443  -11.5150 C   0  0  0  0  0  0  0  0  0  0  0  0
   22.8624  -21.0721  -11.3748 O   0  0  0  0  0  0  0  0  0  0  0  0
   20.8801  -20.1432  -10.7666 O   0  0  0  0  0  0  0  0  0  0  0  0
  2  1  1  6
  2  3  1  0
  3  4  1  0
  4  8  1  0
  4  5  2  0
  6  7  2  0
  6  2  1  0
  9  6  1  0
 10 16  1  0
 10  9  1  0
 10 11  1  1
 12 11  1  0
 12 13  1  0
 13 14  1  0
 14 15  1  0
 16 17  2  0
 18 19  1  0
 19 21  1  0
 20 19  2  0
 22 21  1  0
 23 24  1  0
 23 22  1  0
 25 24  1  1
 25 27  1  0
 26 25  1  0
 26 16  1  0
 27 29  2  0
 27 28  1  0
M  END
$$$$
