DKR.pdb
     RDKit          3D

 29 28  0  0  1  0  0  0  0  0999 V2000
   25.3922  -16.1322  -19.7965 N   0  0  0  0  0  0  0  0  0  0  0  0
   24.2460  -16.7799  -20.4269 C   0  0  1  0  0  0  0  0  0  0  0  0
   24.5958  -16.9803  -21.8811 C   0  0  0  0  0  0  0  0  0  0  0  0
   23.5613  -16.3987  -22.7397 C   0  0  0  0  0  0  0  0  0  0  0  0
   23.1103  -15.2234  -22.5757 O   0  0  0  0  0  0  0  0  0  0  0  0
   23.9857  -18.0973  -19.8022 C   0  0  0  0  0  0  0  0  0  0  0  0
   23.3124  -18.9422  -20.4715 O   0  0  0  0  0  0  0  0  0  0  0  0
   23.0396  -17.1490  -23.7821 O   0  0  0  0  0  0  0  0  0  0  0  0
   24.4632  -18.4126  -18.5128 N   0  0  0  0  0  0  0  0  0  0  0  0
   24.1513  -19.7017  -17.8580 C   0  0  1  0  0  0  0  0  0  0  0  0
   25.4154  -20.2467  -17.2695 C   0  0  0  0  0  0  0  0  0  0  0  0
   25.9133  -21.5399  -17.7628 C   0  0  0  0  0  0  0  0  0  0  0  0
   27.2657  -21.7671  -17.0459 C   0  0  0  0  0  0  0  0  0  0  0  0
   27.8241  -23.0415  -17.6437 C   0  0  0  0  0  0  0  0  0  0  0  0
   29.1564  -23.2281  -17.1078 N   0  0  0  0  0  0  0  0  0  0  0  0
   23.0407  -19.4810  -16.9525 C   0  0  0  0  0  0  0  0  0  0  0  0
   23.1259  -18.6433  -16.0238 O   0  0  0  0  0  0  0  0  0  0  0  0
   14.2027  -22.0250  -16.2040 N   0  0  0  0  0  0  0  0  0  0  0  0
   14.6054  -20.8936  -15.4428 C   0  0  0  0  0  0  0  0  0  0  0  0
   13.7114  -20.2234  -14.7825 N   0  0  0  0  0  0  0  0  0  0  0  0
   15.9445  -20.4553  -15.3693 N   0  0  0  0  0  0  0  0  0  0  0  0
   17.0237  -20.9405  -16.1948 C   0  0  0  0  0  0  0  0  0  0  0  0
   18.3170  -20.3203  -15.7184 C   0  0  0  0  0  0  0  0  0  0  0  0
   19.4736  -20.6791  -16.6177 C   0  0  0  0  0  0  0  0  0  0  0  0
   20.7242  -20.0158  -16.1039 C   0  0  2  0  0  0  0  0  0  0  0  0
   21.8190  -20.1907  -17.0742 N   0  0  0  0  0  0  0  0  0  0  0  0
   21.0907  -20.5612  -14.7971 C   0  0  0  0  0  0  0  0  0  0  0  0
   20.7237  -19.9616  -13.6043 O   0  0  0  0  0  0  0  0  0  0  0  0
   21.7669  -21.6177  -14.7581 O   0  0  0  0  0  0  0  0  0  0  0  0
  2  1  1  1
  2  3  1  0
  3  4  1  0
  4  8  1  0
  4  5  2  0
  6  7  2  0
  6  2  1  0
  9  6  1  0
 10 16  1  0
 10  9  1  0
 10 11  1  1
 12 11  1  0
 12 13  1  0
 13 14  1  0
 14 15  1  0
 16 17  2  0
 18 19  1  0
 19 21  1  0
 20 19  2  0
 22 21  1  0
 23 24  1  0
 23 22  1  0
 25 24  1  6
 25 27  1  0
 26 25  1  0
 26 16  1  0
 27 29  2  0
 27 28  1  0
M  END
$$$$
