DKR.pdb
     RDKit          3D

 29 28  0  0  1  0  0  0  0  0999 V2000
   28.1242  -21.5773  -15.8107 N   0  0  0  0  0  0  0  0  0  0  0  0
   27.8971  -20.5091  -14.8422 C   0  0  1  0  0  0  0  0  0  0  0  0
   27.3140  -19.3416  -15.6000 C   0  0  0  0  0  0  0  0  0  0  0  0
   28.2924  -18.8116  -16.5526 C   0  0  0  0  0  0  0  0  0  0  0  0
   27.9642  -18.3234  -17.6775 O   0  0  0  0  0  0  0  0  0  0  0  0
   26.9353  -20.9455  -13.8039 C   0  0  0  0  0  0  0  0  0  0  0  0
   26.1616  -21.9126  -14.0889 O   0  0  0  0  0  0  0  0  0  0  0  0
   29.6403  -18.8357  -16.2296 O   0  0  0  0  0  0  0  0  0  0  0  0
   26.8724  -20.3177  -12.5422 N   0  0  0  0  0  0  0  0  0  0  0  0
   25.9302  -20.7649  -11.4934 C   0  0  1  0  0  0  0  0  0  0  0  0
   26.4464  -20.2964  -10.1685 C   0  0  0  0  0  0  0  0  0  0  0  0
   27.5737  -21.0222   -9.5632 C   0  0  0  0  0  0  0  0  0  0  0  0
   27.8334  -20.3302   -8.2037 C   0  0  0  0  0  0  0  0  0  0  0  0
   29.0442  -21.0317   -7.6249 C   0  0  0  0  0  0  0  0  0  0  0  0
   29.3427  -20.4089   -6.3519 N   0  0  0  0  0  0  0  0  0  0  0  0
   24.6015  -20.3301  -11.8775 C   0  0  0  0  0  0  0  0  0  0  0  0
   24.4170  -19.1975  -12.3819 O   0  0  0  0  0  0  0  0  0  0  0  0
   18.8006  -23.3288  -17.3908 N   0  0  0  0  0  0  0  0  0  0  0  0
   18.8343  -21.9400  -17.0878 C   0  0  0  0  0  0  0  0  0  0  0  0
   18.4164  -21.0881  -17.9733 N   0  0  0  0  0  0  0  0  0  0  0  0
   19.3067  -21.4339  -15.8585 N   0  0  0  0  0  0  0  0  0  0  0  0
   19.7123  -22.2369  -14.7306 C   0  0  0  0  0  0  0  0  0  0  0  0
   20.2462  -21.3241  -13.6508 C   0  0  0  0  0  0  0  0  0  0  0  0
   21.6545  -21.6913  -13.2543 C   0  0  0  0  0  0  0  0  0  0  0  0
   22.1303  -20.7440  -12.1846 C   0  0  2  0  0  0  0  0  0  0  0  0
   23.4615  -21.1561  -11.7063 N   0  0  0  0  0  0  0  0  0  0  0  0
   21.1699  -20.6954  -11.0825 C   0  0  0  0  0  0  0  0  0  0  0  0
   19.9659  -20.0169  -11.1659 O   0  0  0  0  0  0  0  0  0  0  0  0
   21.4517  -21.2950  -10.0166 O   0  0  0  0  0  0  0  0  0  0  0  0
  2  1  1  6
  2  3  1  0
  3  4  1  0
  4  8  1  0
  4  5  2  0
  6  7  2  0
  6  2  1  0
  9  6  1  0
 10 16  1  0
 10  9  1  0
 10 11  1  1
 12 11  1  0
 12 13  1  0
 13 14  1  0
 14 15  1  0
 16 17  2  0
 18 19  1  0
 19 21  1  0
 20 19  2  0
 22 21  1  0
 23 24  1  0
 23 22  1  0
 25 24  1  6
 25 27  1  0
 26 25  1  0
 26 16  1  0
 27 29  2  0
 27 28  1  0
M  END
$$$$
