DKR.pdb
     RDKit          3D

 29 28  0  0  1  0  0  0  0  0999 V2000
   27.3725  -21.0731  -14.6391 N   0  0  0  0  0  0  0  0  0  0  0  0
   26.4836  -20.4740  -15.6297 C   0  0  1  0  0  0  0  0  0  0  0  0
   26.3967  -21.4387  -16.7869 C   0  0  0  0  0  0  0  0  0  0  0  0
   27.6953  -21.5528  -17.4549 C   0  0  0  0  0  0  0  0  0  0  0  0
   28.3650  -20.5440  -17.8362 O   0  0  0  0  0  0  0  0  0  0  0  0
   25.1312  -20.2733  -15.0600 C   0  0  0  0  0  0  0  0  0  0  0  0
   24.8461  -20.8967  -13.9898 O   0  0  0  0  0  0  0  0  0  0  0  0
   28.2329  -22.8088  -17.6897 O   0  0  0  0  0  0  0  0  0  0  0  0
   24.1875  -19.4237  -15.6744 N   0  0  0  0  0  0  0  0  0  0  0  0
   22.8595  -19.1686  -15.0752 C   0  0  1  0  0  0  0  0  0  0  0  0
   22.3692  -17.8430  -15.5687 C   0  0  0  0  0  0  0  0  0  0  0  0
   20.9957  -17.4381  -15.2318 C   0  0  0  0  0  0  0  0  0  0  0  0
   20.8368  -16.0017  -15.7849 C   0  0  0  0  0  0  0  0  0  0  0  0
   19.3917  -15.6321  -15.5234 C   0  0  0  0  0  0  0  0  0  0  0  0
   19.1953  -14.2770  -15.9952 N   0  0  0  0  0  0  0  0  0  0  0  0
   22.0247  -20.3239  -15.3407 C   0  0  0  0  0  0  0  0  0  0  0  0
   22.0158  -20.8635  -16.4721 O   0  0  0  0  0  0  0  0  0  0  0  0
   18.8078  -25.9041   -9.6576 N   0  0  0  0  0  0  0  0  0  0  0  0
   18.7197  -24.5339  -10.0267 C   0  0  0  0  0  0  0  0  0  0  0  0
   18.3800  -23.6573   -9.1319 N   0  0  0  0  0  0  0  0  0  0  0  0
   18.9841  -24.0725  -11.3335 N   0  0  0  0  0  0  0  0  0  0  0  0
   18.9222  -24.8798  -12.5276 C   0  0  0  0  0  0  0  0  0  0  0  0
   19.1442  -23.9894  -13.7286 C   0  0  0  0  0  0  0  0  0  0  0  0
   20.0002  -22.7950  -13.3882 C   0  0  0  0  0  0  0  0  0  0  0  0
   20.2858  -22.0166  -14.6454 C   0  0  2  0  0  0  0  0  0  0  0  0
   21.1914  -20.8939  -14.3449 N   0  0  0  0  0  0  0  0  0  0  0  0
   19.0395  -21.5383  -15.2434 C   0  0  0  0  0  0  0  0  0  0  0  0
   18.3658  -22.2355  -16.2318 O   0  0  0  0  0  0  0  0  0  0  0  0
   18.5627  -20.4492  -14.8417 O   0  0  0  0  0  0  0  0  0  0  0  0
  2  1  1  1
  2  3  1  0
  3  4  1  0
  4  8  1  0
  4  5  2  0
  6  7  2  0
  6  2  1  0
  9  6  1  0
 10 16  1  0
 10  9  1  0
 10 11  1  6
 12 11  1  0
 12 13  1  0
 13 14  1  0
 14 15  1  0
 16 17  2  0
 18 19  1  0
 19 21  1  0
 20 19  2  0
 22 21  1  0
 23 24  1  0
 23 22  1  0
 25 24  1  1
 25 27  1  0
 26 25  1  0
 26 16  1  0
 27 29  2  0
 27 28  1  0
M  END
$$$$
