DKR.pdb
     RDKit          3D

 29 28  0  0  1  0  0  0  0  0999 V2000
   17.1128  -14.4705  -15.5760 N   0  0  0  0  0  0  0  0  0  0  0  0
   16.3682  -13.2199  -15.4653 C   0  0  1  0  0  0  0  0  0  0  0  0
   15.0869  -13.5315  -14.7315 C   0  0  0  0  0  0  0  0  0  0  0  0
   14.1844  -14.3062  -15.5867 C   0  0  0  0  0  0  0  0  0  0  0  0
   14.1286  -14.1541  -16.8457 O   0  0  0  0  0  0  0  0  0  0  0  0
   17.1421  -12.2215  -14.6921 C   0  0  0  0  0  0  0  0  0  0  0  0
   17.4977  -12.5381  -13.5138 O   0  0  0  0  0  0  0  0  0  0  0  0
   13.3472  -15.2512  -15.0144 O   0  0  0  0  0  0  0  0  0  0  0  0
   17.4775  -10.9632  -15.2344 N   0  0  0  0  0  0  0  0  0  0  0  0
   18.4078  -10.0400  -14.5488 C   0  0  1  0  0  0  0  0  0  0  0  0
   19.3936   -9.5343  -15.5556 C   0  0  0  0  0  0  0  0  0  0  0  0
   20.3583   -8.5077  -15.1321 C   0  0  0  0  0  0  0  0  0  0  0  0
   21.2513   -8.2399  -16.3671 C   0  0  0  0  0  0  0  0  0  0  0  0
   22.2550   -7.2000  -15.9147 C   0  0  0  0  0  0  0  0  0  0  0  0
   21.5905   -5.9134  -15.9361 N   0  0  0  0  0  0  0  0  0  0  0  0
   17.6130   -9.0518  -13.8461 C   0  0  0  0  0  0  0  0  0  0  0  0
   16.5979   -8.5461  -14.3801 O   0  0  0  0  0  0  0  0  0  0  0  0
   12.8787   -8.2505   -6.5346 N   0  0  0  0  0  0  0  0  0  0  0  0
   13.1115   -6.9816   -7.1322 C   0  0  0  0  0  0  0  0  0  0  0  0
   12.4463   -5.9505   -6.7093 N   0  0  0  0  0  0  0  0  0  0  0  0
   14.0394   -6.7836   -8.1764 N   0  0  0  0  0  0  0  0  0  0  0  0
   14.8583   -7.8146   -8.7662 C   0  0  0  0  0  0  0  0  0  0  0  0
   15.6800   -7.2057   -9.8791 C   0  0  0  0  0  0  0  0  0  0  0  0
   16.4892   -8.2475  -10.6107 C   0  0  0  0  0  0  0  0  0  0  0  0
   17.1199   -7.6204  -11.8261 C   0  0  2  0  0  0  0  0  0  0  0  0
   17.9396   -8.6177  -12.5362 N   0  0  0  0  0  0  0  0  0  0  0  0
   17.9231   -6.4598  -11.4423 C   0  0  0  0  0  0  0  0  0  0  0  0
   17.3904   -5.1884  -11.3131 O   0  0  0  0  0  0  0  0  0  0  0  0
   19.1473   -6.6262  -11.2215 O   0  0  0  0  0  0  0  0  0  0  0  0
  2  1  1  1
  2  3  1  0
  3  4  1  0
  4  8  1  0
  4  5  2  0
  6  7  2  0
  6  2  1  0
  9  6  1  0
 10 16  1  0
 10  9  1  0
 10 11  1  6
 12 11  1  0
 12 13  1  0
 13 14  1  0
 14 15  1  0
 16 17  2  0
 18 19  1  0
 19 21  1  0
 20 19  2  0
 22 21  1  0
 23 24  1  0
 23 22  1  0
 25 24  1  1
 25 27  1  0
 26 25  1  0
 26 16  1  0
 27 29  2  0
 27 28  1  0
M  END
$$$$
