TQW.pdb
     RDKit          3D

 31 32  0  0  1  0  0  0  0  0999 V2000
    9.2259  -12.4972   20.2954 C   0  0  0  0  0  0  0  0  0  0  0  0
    8.2274  -13.0386   19.3341 C   0  0  1  0  0  0  0  0  0  0  0  0
    8.2206  -12.2219   18.1967 O   0  0  0  0  0  0  0  0  0  0  0  0
    8.5714  -14.4352   18.8473 C   0  0  2  0  0  0  0  0  0  0  0  0
    7.6102  -14.7837   17.8204 N   0  0  0  0  0  0  0  0  0  0  0  0
    8.4100  -15.4133   19.9744 C   0  0  0  0  0  0  0  0  0  0  0  0
    7.2765  -15.8556   20.2928 O   0  0  0  0  0  0  0  0  0  0  0  0
   11.6361  -19.6146   19.6183 N   0  0  0  0  0  0  0  0  0  0  0  0
   12.3447  -18.9285   20.6749 C   0  0  0  0  0  0  0  0  0  0  0  0
   13.5676  -19.0705   20.6687 O   0  0  0  0  0  0  0  0  0  0  0  0
   11.6012  -18.1496   21.6344 C   0  0  0  0  0  0  0  0  0  0  0  0
   10.1281  -18.1114   21.5817 C   0  0  0  0  0  0  0  0  0  0  0  0
    9.4262  -16.8445   21.8015 C   0  0  2  0  0  0  0  0  0  0  0  0
    9.4985  -15.8885   20.7319 N   0  0  0  0  0  0  0  0  0  0  0  0
    9.5698  -16.2149   23.1124 C   0  0  0  0  0  0  0  0  0  0  0  0
    8.7851  -15.2749   23.3998 O   0  0  0  0  0  0  0  0  0  0  0  0
   10.5320  -16.5977   24.0849 N   0  0  0  0  0  0  0  0  0  0  0  0
   10.6338  -16.0903   25.4199 C   0  0  1  0  0  0  0  0  0  0  0  0
   10.0534  -14.7331   25.6043 C   0  0  0  0  0  0  0  0  0  0  0  0
    8.5962  -14.7529   25.8708 C   0  0  0  0  0  0  0  0  0  0  0  0
    7.6869  -15.7914   25.8460 C   0  0  0  0  0  0  0  0  0  0  0  0
    6.4710  -15.3122   26.1561 N   0  0  0  0  0  0  0  0  0  0  0  0
    6.5228  -13.9880   26.3900 C   0  0  0  0  0  0  0  0  0  0  0  0
    5.5900  -13.0209   26.7376 C   0  0  0  0  0  0  0  0  0  0  0  0
    5.9400  -11.7003   26.9158 C   0  0  0  0  0  0  0  0  0  0  0  0
    7.2582  -11.3362   26.7419 C   0  0  0  0  0  0  0  0  0  0  0  0
    8.1955  -12.3064   26.3929 C   0  0  0  0  0  0  0  0  0  0  0  0
    7.8460  -13.6225   26.2154 C   0  0  0  0  0  0  0  0  0  0  0  0
   10.0680  -17.0298   26.4271 C   0  0  0  0  0  0  0  0  0  0  0  0
    9.4981  -18.0650   26.0289 O   0  0  0  0  0  0  0  0  0  0  0  0
   10.1576  -16.7875   27.7798 O   0  0  0  0  0  0  0  0  0  0  0  0
  2  1  1  1
  3  2  1  0
  4  2  1  0
  4  5  1  6
  6  4  1  0
  6 14  1  0
  7  6  2  0
  8  9  1  0
  9 10  2  0
 11  9  1  0
 11 12  1  0
 13 12  1  6
 13 14  1  0
 15 13  1  0
 16 15  2  0
 17 15  1  0
 18 17  1  0
 18 29  1  0
 18 19  1  6
 20 28  1  0
 20 19  1  0
 21 20  2  0
 22 21  1  0
 22 23  1  0
 23 28  2  0
 24 23  1  0
 24 25  2  0
 25 26  1  0
 26 27  2  0
 28 27  1  0
 29 31  1  0
 30 29  2  0
M  END
$$$$
