TQW.pdb
     RDKit          3D

 31 32  0  0  1  0  0  0  0  0999 V2000
    8.1249  -13.4404   21.2397 C   0  0  0  0  0  0  0  0  0  0  0  0
    7.0511  -14.4623   21.1100 C   0  0  1  0  0  0  0  0  0  0  0  0
    6.1786  -14.0600   20.0913 O   0  0  0  0  0  0  0  0  0  0  0  0
    7.5782  -15.8256   20.6986 C   0  0  2  0  0  0  0  0  0  0  0  0
    6.4337  -16.6986   20.5307 N   0  0  0  0  0  0  0  0  0  0  0  0
    8.4247  -16.3902   21.8021 C   0  0  0  0  0  0  0  0  0  0  0  0
    7.9040  -16.9850   22.7802 O   0  0  0  0  0  0  0  0  0  0  0  0
   14.9358  -17.2491   21.9180 N   0  0  0  0  0  0  0  0  0  0  0  0
   14.3030  -15.9667   21.7075 C   0  0  0  0  0  0  0  0  0  0  0  0
   15.0273  -15.0929   21.2306 O   0  0  0  0  0  0  0  0  0  0  0  0
   12.9138  -15.7983   22.0568 C   0  0  0  0  0  0  0  0  0  0  0  0
   12.1046  -16.9584   22.4738 C   0  0  0  0  0  0  0  0  0  0  0  0
   10.7013  -16.7680   22.8480 C   0  0  2  0  0  0  0  0  0  0  0  0
    9.8299  -16.2908   21.8106 N   0  0  0  0  0  0  0  0  0  0  0  0
   10.4290  -16.1269   24.1328 C   0  0  0  0  0  0  0  0  0  0  0  0
   10.6273  -14.8882   24.2230 O   0  0  0  0  0  0  0  0  0  0  0  0
    9.9498  -16.8084   25.2835 N   0  0  0  0  0  0  0  0  0  0  0  0
   10.0669  -16.3645   26.6397 C   0  0  1  0  0  0  0  0  0  0  0  0
    8.7765  -16.3062   27.3776 C   0  0  0  0  0  0  0  0  0  0  0  0
    7.6999  -15.6290   26.6179 C   0  0  0  0  0  0  0  0  0  0  0  0
    6.7063  -16.1407   25.8074 C   0  0  0  0  0  0  0  0  0  0  0  0
    5.9665  -15.1251   25.3327 N   0  0  0  0  0  0  0  0  0  0  0  0
    6.4218  -13.9447   25.7913 C   0  0  0  0  0  0  0  0  0  0  0  0
    6.0434  -12.6202   25.6222 C   0  0  0  0  0  0  0  0  0  0  0  0
    6.7164  -11.5854   26.2340 C   0  0  0  0  0  0  0  0  0  0  0  0
    7.7971  -11.8823   27.0367 C   0  0  0  0  0  0  0  0  0  0  0  0
    8.1778  -13.2118   27.2072 C   0  0  0  0  0  0  0  0  0  0  0  0
    7.5066  -14.2428   26.5971 C   0  0  0  0  0  0  0  0  0  0  0  0
   11.0619  -17.1592   27.4113 C   0  0  0  0  0  0  0  0  0  0  0  0
   11.3063  -16.8337   28.5901 O   0  0  0  0  0  0  0  0  0  0  0  0
   11.7157  -18.2391   26.8610 O   0  0  0  0  0  0  0  0  0  0  0  0
  2  1  1  6
  3  2  1  0
  4  2  1  0
  4  5  1  1
  6  4  1  0
  6 14  1  0
  7  6  2  0
  8  9  1  0
  9 10  2  0
 11  9  1  0
 11 12  1  0
 13 12  1  6
 13 14  1  0
 15 13  1  0
 16 15  2  0
 17 15  1  0
 18 17  1  0
 18 29  1  0
 18 19  1  1
 20 28  1  0
 20 19  1  0
 21 20  2  0
 22 21  1  0
 22 23  1  0
 23 28  2  0
 24 23  1  0
 24 25  2  0
 25 26  1  0
 26 27  2  0
 28 27  1  0
 29 31  1  0
 30 29  2  0
M  END
$$$$
