TQW.pdb
     RDKit          3D

 31 32  0  0  1  0  0  0  0  0999 V2000
    9.9424  -12.7444   19.9646 C   0  0  0  0  0  0  0  0  0  0  0  0
    8.5384  -12.9299   19.5078 C   0  0  1  0  0  0  0  0  0  0  0  0
    8.3368  -12.1428   18.3673 O   0  0  0  0  0  0  0  0  0  0  0  0
    8.2352  -14.3585   19.0921 C   0  0  2  0  0  0  0  0  0  0  0  0
    6.8515  -14.3994   18.6637 N   0  0  0  0  0  0  0  0  0  0  0  0
    8.3722  -15.2663   20.2797 C   0  0  0  0  0  0  0  0  0  0  0  0
    7.6018  -15.1627   21.2683 O   0  0  0  0  0  0  0  0  0  0  0  0
   10.4567  -21.3412   20.5349 N   0  0  0  0  0  0  0  0  0  0  0  0
   10.6928  -20.8390   21.8696 C   0  0  0  0  0  0  0  0  0  0  0  0
   11.2135  -21.6370   22.6492 O   0  0  0  0  0  0  0  0  0  0  0  0
   10.3171  -19.4843   22.1916 C   0  0  0  0  0  0  0  0  0  0  0  0
   10.0138  -18.5201   21.1180 C   0  0  0  0  0  0  0  0  0  0  0  0
    9.5494  -17.1738   21.4609 C   0  0  2  0  0  0  0  0  0  0  0  0
    9.3545  -16.2729   20.3592 N   0  0  0  0  0  0  0  0  0  0  0  0
   10.1790  -16.5162   22.6040 C   0  0  0  0  0  0  0  0  0  0  0  0
   11.2759  -15.9314   22.4123 O   0  0  0  0  0  0  0  0  0  0  0  0
    9.6317  -16.4884   23.9147 N   0  0  0  0  0  0  0  0  0  0  0  0
   10.3366  -16.1694   25.1194 C   0  0  1  0  0  0  0  0  0  0  0  0
    9.9315  -14.8805   25.7420 C   0  0  0  0  0  0  0  0  0  0  0  0
    8.4624  -14.7158   25.8395 C   0  0  0  0  0  0  0  0  0  0  0  0
    7.4378  -15.6260   25.6723 C   0  0  0  0  0  0  0  0  0  0  0  0
    6.2647  -14.9992   25.8593 N   0  0  0  0  0  0  0  0  0  0  0  0
    6.4563  -13.6985   26.1469 C   0  0  0  0  0  0  0  0  0  0  0  0
    5.6195  -12.6260   26.4216 C   0  0  0  0  0  0  0  0  0  0  0  0
    6.1110  -11.3667   26.6879 C   0  0  0  0  0  0  0  0  0  0  0  0
    7.4759  -11.1740   26.6792 C   0  0  0  0  0  0  0  0  0  0  0  0
    8.3170  -12.2502   26.4036 C   0  0  0  0  0  0  0  0  0  0  0  0
    7.8265  -13.5051   26.1383 C   0  0  0  0  0  0  0  0  0  0  0  0
   10.2667  -17.2667   26.1235 C   0  0  0  0  0  0  0  0  0  0  0  0
   10.9026  -17.1467   27.1894 O   0  0  0  0  0  0  0  0  0  0  0  0
    9.5217  -18.4046   25.9076 O   0  0  0  0  0  0  0  0  0  0  0  0
  2  1  1  6
  3  2  1  0
  4  2  1  0
  4  5  1  1
  6  4  1  0
  6 14  1  0
  7  6  2  0
  8  9  1  0
  9 10  2  0
 11  9  1  0
 11 12  1  0
 13 12  1  6
 13 14  1  0
 15 13  1  0
 16 15  2  0
 17 15  1  0
 18 17  1  0
 18 29  1  0
 18 19  1  1
 20 28  1  0
 20 19  1  0
 21 20  2  0
 22 21  1  0
 22 23  1  0
 23 28  2  0
 24 23  1  0
 24 25  2  0
 25 26  1  0
 26 27  2  0
 28 27  1  0
 29 31  1  0
 30 29  2  0
M  END
$$$$
