TQW.pdb
     RDKit          3D

 31 32  0  0  1  0  0  0  0  0999 V2000
    9.4558  -12.6749   19.2808 C   0  0  0  0  0  0  0  0  0  0  0  0
    8.3876  -13.3934   18.5345 C   0  0  1  0  0  0  0  0  0  0  0  0
    8.1392  -12.7019   17.3425 O   0  0  0  0  0  0  0  0  0  0  0  0
    8.7925  -14.7995   18.1288 C   0  0  2  0  0  0  0  0  0  0  0  0
    7.6907  -15.3665   17.3775 N   0  0  0  0  0  0  0  0  0  0  0  0
    8.9871  -15.6397   19.3574 C   0  0  0  0  0  0  0  0  0  0  0  0
    8.0105  -16.1848   19.9325 O   0  0  0  0  0  0  0  0  0  0  0  0
   10.7268  -20.5463   19.2143 N   0  0  0  0  0  0  0  0  0  0  0  0
   11.7300  -19.5848   18.8161 C   0  0  0  0  0  0  0  0  0  0  0  0
   12.5741  -20.0011   18.0224 O   0  0  0  0  0  0  0  0  0  0  0  0
   11.6803  -18.2476   19.3542 C   0  0  0  0  0  0  0  0  0  0  0  0
   11.1696  -18.0117   20.7173 C   0  0  0  0  0  0  0  0  0  0  0  0
   10.5305  -16.7343   21.0424 C   0  0  2  0  0  0  0  0  0  0  0  0
   10.2531  -15.8661   19.9322 N   0  0  0  0  0  0  0  0  0  0  0  0
   11.0417  -16.0017   22.1989 C   0  0  0  0  0  0  0  0  0  0  0  0
   12.1034  -16.4152   22.7317 O   0  0  0  0  0  0  0  0  0  0  0  0
   10.4230  -14.8511   22.7569 N   0  0  0  0  0  0  0  0  0  0  0  0
    9.6274  -14.8111   23.9466 C   0  0  1  0  0  0  0  0  0  0  0  0
    8.1637  -14.9264   23.7076 C   0  0  0  0  0  0  0  0  0  0  0  0
    7.3527  -14.6768   24.9221 C   0  0  0  0  0  0  0  0  0  0  0  0
    6.5996  -15.5350   25.6981 C   0  0  0  0  0  0  0  0  0  0  0  0
    6.0390  -14.8370   26.6994 N   0  0  0  0  0  0  0  0  0  0  0  0
    6.3842  -13.5380   26.6306 C   0  0  0  0  0  0  0  0  0  0  0  0
    6.0971  -12.4104   27.3868 C   0  0  0  0  0  0  0  0  0  0  0  0
    6.6067  -11.1702   27.0698 C   0  0  0  0  0  0  0  0  0  0  0  0
    7.4256  -11.0538   25.9669 C   0  0  0  0  0  0  0  0  0  0  0  0
    7.7145  -12.1855   25.2071 C   0  0  0  0  0  0  0  0  0  0  0  0
    7.2063  -13.4213   25.5236 C   0  0  0  0  0  0  0  0  0  0  0  0
   10.0625  -15.8191   24.9524 C   0  0  0  0  0  0  0  0  0  0  0  0
   10.1492  -15.4756   26.1480 O   0  0  0  0  0  0  0  0  0  0  0  0
   10.3693  -17.1144   24.5994 O   0  0  0  0  0  0  0  0  0  0  0  0
  2  1  1  6
  3  2  1  0
  4  2  1  0
  4  5  1  6
  6  4  1  0
  6 14  1  0
  7  6  2  0
  8  9  1  0
  9 10  2  0
 11  9  1  0
 11 12  1  0
 13 12  1  6
 13 14  1  0
 15 13  1  0
 16 15  2  0
 17 15  1  0
 18 17  1  0
 18 29  1  0
 18 19  1  6
 20 28  1  0
 20 19  1  0
 21 20  2  0
 22 21  1  0
 22 23  1  0
 23 28  2  0
 24 23  1  0
 24 25  2  0
 25 26  1  0
 26 27  2  0
 28 27  1  0
 29 31  1  0
 30 29  2  0
M  END
$$$$
