TQW.pdb
     RDKit          3D

 31 32  0  0  1  0  0  0  0  0999 V2000
    9.3608  -12.7969   17.1577 C   0  0  0  0  0  0  0  0  0  0  0  0
    9.3120  -13.6425   18.3811 C   0  0  1  0  0  0  0  0  0  0  0  0
    9.4607  -12.8122   19.4989 O   0  0  0  0  0  0  0  0  0  0  0  0
    7.9808  -14.3514   18.5577 C   0  0  2  0  0  0  0  0  0  0  0  0
    6.9555  -13.3308   18.6411 N   0  0  0  0  0  0  0  0  0  0  0  0
    7.9817  -15.1044   19.8562 C   0  0  0  0  0  0  0  0  0  0  0  0
    7.4932  -14.5999   20.8996 O   0  0  0  0  0  0  0  0  0  0  0  0
    8.3273  -21.5305   20.5846 N   0  0  0  0  0  0  0  0  0  0  0  0
    9.5670  -20.8271   20.3442 C   0  0  0  0  0  0  0  0  0  0  0  0
   10.5110  -21.5298   19.9829 O   0  0  0  0  0  0  0  0  0  0  0  0
    9.6174  -19.3984   20.5361 C   0  0  0  0  0  0  0  0  0  0  0  0
    8.4116  -18.6599   20.9544 C   0  0  0  0  0  0  0  0  0  0  0  0
    8.4843  -17.2127   21.1685 C   0  0  2  0  0  0  0  0  0  0  0  0
    8.5200  -16.3999   19.9847 N   0  0  0  0  0  0  0  0  0  0  0  0
    9.4062  -16.7302   22.1947 C   0  0  0  0  0  0  0  0  0  0  0  0
   10.5371  -16.3249   21.8223 O   0  0  0  0  0  0  0  0  0  0  0  0
    9.1076  -16.6829   23.5827 N   0  0  0  0  0  0  0  0  0  0  0  0
    9.9895  -16.2482   24.6236 C   0  0  1  0  0  0  0  0  0  0  0  0
    9.6962  -14.8861   25.1445 C   0  0  0  0  0  0  0  0  0  0  0  0
    8.2698  -14.6892   25.4930 C   0  0  0  0  0  0  0  0  0  0  0  0
    7.2186  -15.5830   25.5374 C   0  0  0  0  0  0  0  0  0  0  0  0
    6.1060  -14.9276   25.9071 N   0  0  0  0  0  0  0  0  0  0  0  0
    6.3643  -13.6233   26.1148 C   0  0  0  0  0  0  0  0  0  0  0  0
    5.6048  -12.5267   26.4975 C   0  0  0  0  0  0  0  0  0  0  0  0
    6.1538  -11.2703   26.6329 C   0  0  0  0  0  0  0  0  0  0  0  0
    7.4986  -11.1054   26.3787 C   0  0  0  0  0  0  0  0  0  0  0  0
    8.2622  -12.2058   25.9944 C   0  0  0  0  0  0  0  0  0  0  0  0
    7.7143  -13.4578   25.8597 C   0  0  0  0  0  0  0  0  0  0  0  0
   10.0608  -17.2216   25.7482 C   0  0  0  0  0  0  0  0  0  0  0  0
    9.2425  -18.1620   25.7810 O   0  0  0  0  0  0  0  0  0  0  0  0
   11.0020  -17.1119   26.7474 O   0  0  0  0  0  0  0  0  0  0  0  0
  2  1  1  6
  3  2  1  0
  4  2  1  0
  4  5  1  1
  6  4  1  0
  6 14  1  0
  7  6  2  0
  8  9  1  0
  9 10  2  0
 11  9  1  0
 11 12  1  0
 13 12  1  6
 13 14  1  0
 15 13  1  0
 16 15  2  0
 17 15  1  0
 18 17  1  0
 18 29  1  0
 18 19  1  1
 20 28  1  0
 20 19  1  0
 21 20  2  0
 22 21  1  0
 22 23  1  0
 23 28  2  0
 24 23  1  0
 24 25  2  0
 25 26  1  0
 26 27  2  0
 28 27  1  0
 29 31  1  0
 30 29  2  0
M  END
$$$$
