TQW.pdb
     RDKit          3D

 31 32  0  0  1  0  0  0  0  0999 V2000
    9.1147  -12.5315   20.2684 C   0  0  0  0  0  0  0  0  0  0  0  0
    8.0403  -13.1663   19.4580 C   0  0  1  0  0  0  0  0  0  0  0  0
    7.8233  -12.3813   18.3189 O   0  0  0  0  0  0  0  0  0  0  0  0
    8.4182  -14.5471   18.9518 C   0  0  2  0  0  0  0  0  0  0  0  0
    7.3414  -15.0033   18.0962 N   0  0  0  0  0  0  0  0  0  0  0  0
    8.5145  -15.4970   20.1100 C   0  0  0  0  0  0  0  0  0  0  0  0
    7.4848  -16.0205   20.6076 O   0  0  0  0  0  0  0  0  0  0  0  0
   12.1540  -20.3744   20.7382 N   0  0  0  0  0  0  0  0  0  0  0  0
   11.3140  -19.7480   19.7426 C   0  0  0  0  0  0  0  0  0  0  0  0
   11.3184  -20.2852   18.6348 O   0  0  0  0  0  0  0  0  0  0  0  0
   10.5517  -18.5760   20.0971 C   0  0  0  0  0  0  0  0  0  0  0  0
   10.6283  -18.0222   21.4616 C   0  0  0  0  0  0  0  0  0  0  0  0
    9.9162  -16.7832   21.7835 C   0  0  2  0  0  0  0  0  0  0  0  0
    9.7420  -15.8552   20.7011 N   0  0  0  0  0  0  0  0  0  0  0  0
   10.2670  -16.1111   23.0328 C   0  0  0  0  0  0  0  0  0  0  0  0
   11.1313  -15.1986   22.9844 O   0  0  0  0  0  0  0  0  0  0  0  0
    9.6926  -16.4156   24.2959 N   0  0  0  0  0  0  0  0  0  0  0  0
   10.3151  -16.2390   25.5732 C   0  0  1  0  0  0  0  0  0  0  0  0
    9.7518  -15.1226   26.3790 C   0  0  0  0  0  0  0  0  0  0  0  0
    8.2830  -14.9868   26.2413 C   0  0  0  0  0  0  0  0  0  0  0  0
    7.3129  -15.9224   25.9421 C   0  0  0  0  0  0  0  0  0  0  0  0
    6.1144  -15.3161   25.9258 N   0  0  0  0  0  0  0  0  0  0  0  0
    6.2365  -14.0048   26.2028 C   0  0  0  0  0  0  0  0  0  0  0  0
    5.3489  -12.9437   26.3131 C   0  0  0  0  0  0  0  0  0  0  0  0
    5.7711  -11.6679   26.6170 C   0  0  0  0  0  0  0  0  0  0  0  0
    7.1171  -11.4466   26.8160 C   0  0  0  0  0  0  0  0  0  0  0  0
    8.0091  -12.5113   26.7056 C   0  0  0  0  0  0  0  0  0  0  0  0
    7.5877  -13.7826   26.4027 C   0  0  0  0  0  0  0  0  0  0  0  0
   10.3269  -17.4935   26.3753 C   0  0  0  0  0  0  0  0  0  0  0  0
   10.9361  -17.5049   27.4632 O   0  0  0  0  0  0  0  0  0  0  0  0
    9.6855  -18.6356   25.9500 O   0  0  0  0  0  0  0  0  0  0  0  0
  2  1  1  6
  3  2  1  0
  4  2  1  0
  4  5  1  6
  6  4  1  0
  6 14  1  0
  7  6  2  0
  8  9  1  0
  9 10  2  0
 11  9  1  0
 11 12  1  0
 13 12  1  6
 13 14  1  0
 15 13  1  0
 16 15  2  0
 17 15  1  0
 18 17  1  0
 18 29  1  0
 18 19  1  1
 20 28  1  0
 20 19  1  0
 21 20  2  0
 22 21  1  0
 22 23  1  0
 23 28  2  0
 24 23  1  0
 24 25  2  0
 25 26  1  0
 26 27  2  0
 28 27  1  0
 29 31  1  0
 30 29  2  0
M  END
$$$$
