TQW.pdb
     RDKit          3D

 31 32  0  0  1  0  0  0  0  0999 V2000
    9.3049  -12.9410   21.0491 C   0  0  0  0  0  0  0  0  0  0  0  0
    7.9008  -13.1668   20.6111 C   0  0  1  0  0  0  0  0  0  0  0  0
    7.6469  -12.3505   19.5020 O   0  0  0  0  0  0  0  0  0  0  0  0
    7.6460  -14.5916   20.1521 C   0  0  2  0  0  0  0  0  0  0  0  0
    6.2259  -14.7138   19.8908 N   0  0  0  0  0  0  0  0  0  0  0  0
    7.9897  -15.5446   21.2597 C   0  0  0  0  0  0  0  0  0  0  0  0
    7.2025  -15.7323   22.2224 O   0  0  0  0  0  0  0  0  0  0  0  0
   11.9101  -20.6729   21.1018 N   0  0  0  0  0  0  0  0  0  0  0  0
   11.7860  -20.3636   22.5083 C   0  0  0  0  0  0  0  0  0  0  0  0
   12.3752  -21.1296   23.2711 O   0  0  0  0  0  0  0  0  0  0  0  0
   11.0082  -19.2188   22.9141 C   0  0  0  0  0  0  0  0  0  0  0  0
   10.4779  -18.2830   21.9053 C   0  0  0  0  0  0  0  0  0  0  0  0
    9.6003  -17.1867   22.3222 C   0  0  2  0  0  0  0  0  0  0  0  0
    9.1939  -16.2750   21.2893 N   0  0  0  0  0  0  0  0  0  0  0  0
    9.9324  -16.4955   23.5662 C   0  0  0  0  0  0  0  0  0  0  0  0
   10.6513  -15.4662   23.4905 O   0  0  0  0  0  0  0  0  0  0  0  0
    9.4924  -16.9050   24.8534 N   0  0  0  0  0  0  0  0  0  0  0  0
   10.0815  -16.5376   26.1056 C   0  0  1  0  0  0  0  0  0  0  0  0
    9.1550  -15.8375   27.0353 C   0  0  0  0  0  0  0  0  0  0  0  0
    7.9501  -15.2987   26.3625 C   0  0  0  0  0  0  0  0  0  0  0  0
    6.9627  -15.9314   25.6340 C   0  0  0  0  0  0  0  0  0  0  0  0
    6.0739  -15.0143   25.2182 N   0  0  0  0  0  0  0  0  0  0  0  0
    6.4223  -13.7840   25.6377 C   0  0  0  0  0  0  0  0  0  0  0  0
    5.8792  -12.5146   25.4975 C   0  0  0  0  0  0  0  0  0  0  0  0
    6.4722  -11.4018   26.0527 C   0  0  0  0  0  0  0  0  0  0  0  0
    7.6400  -11.5621   26.7675 C   0  0  0  0  0  0  0  0  0  0  0  0
    8.1862  -12.8361   26.9090 C   0  0  0  0  0  0  0  0  0  0  0  0
    7.5945  -13.9448   26.3553 C   0  0  0  0  0  0  0  0  0  0  0  0
   10.7179  -17.6951   26.7929 C   0  0  0  0  0  0  0  0  0  0  0  0
   10.6304  -18.8247   26.2721 O   0  0  0  0  0  0  0  0  0  0  0  0
   11.3976  -17.5518   27.9820 O   0  0  0  0  0  0  0  0  0  0  0  0
  2  1  1  6
  3  2  1  0
  4  2  1  0
  4  5  1  1
  6  4  1  0
  6 14  1  0
  7  6  2  0
  8  9  1  0
  9 10  2  0
 11  9  1  0
 11 12  1  0
 13 12  1  6
 13 14  1  0
 15 13  1  0
 16 15  2  0
 17 15  1  0
 18 17  1  0
 18 29  1  0
 18 19  1  1
 20 28  1  0
 20 19  1  0
 21 20  2  0
 22 21  1  0
 22 23  1  0
 23 28  2  0
 24 23  1  0
 24 25  2  0
 25 26  1  0
 26 27  2  0
 28 27  1  0
 29 31  1  0
 30 29  2  0
M  END
$$$$
