TQW.pdb
     RDKit          3D

 31 32  0  0  1  0  0  0  0  0999 V2000
    6.7716  -12.6698   19.1411 C   0  0  0  0  0  0  0  0  0  0  0  0
    7.9597  -13.5638   19.1999 C   0  0  1  0  0  0  0  0  0  0  0  0
    8.9621  -12.9193   19.9353 O   0  0  0  0  0  0  0  0  0  0  0  0
    7.6819  -14.8702   19.9223 C   0  0  2  0  0  0  0  0  0  0  0  0
    7.1705  -14.5370   21.2365 N   0  0  0  0  0  0  0  0  0  0  0  0
    8.9670  -15.6227   20.1101 C   0  0  0  0  0  0  0  0  0  0  0  0
    9.5622  -16.1452   19.1331 O   0  0  0  0  0  0  0  0  0  0  0  0
   13.0761  -13.9300   18.3064 N   0  0  0  0  0  0  0  0  0  0  0  0
   13.3445  -14.0208   19.7238 C   0  0  0  0  0  0  0  0  0  0  0  0
   14.4831  -13.7020   20.0668 O   0  0  0  0  0  0  0  0  0  0  0  0
   12.2995  -14.4632   20.6140 C   0  0  0  0  0  0  0  0  0  0  0  0
   11.9389  -15.8911   20.6881 C   0  0  0  0  0  0  0  0  0  0  0  0
   10.8854  -16.3272   21.6078 C   0  0  2  0  0  0  0  0  0  0  0  0
    9.5757  -15.7875   21.3698 N   0  0  0  0  0  0  0  0  0  0  0  0
   11.2116  -16.3710   23.0316 C   0  0  0  0  0  0  0  0  0  0  0  0
   12.3818  -16.6999   23.3547 O   0  0  0  0  0  0  0  0  0  0  0  0
   10.2972  -16.0611   24.0738 N   0  0  0  0  0  0  0  0  0  0  0  0
   10.5421  -16.1851   25.4790 C   0  0  1  0  0  0  0  0  0  0  0  0
    9.8945  -15.1332   26.3078 C   0  0  0  0  0  0  0  0  0  0  0  0
    8.4492  -14.9741   26.0242 C   0  0  0  0  0  0  0  0  0  0  0  0
    7.5138  -15.8786   25.5627 C   0  0  0  0  0  0  0  0  0  0  0  0
    6.3257  -15.2608   25.4592 N   0  0  0  0  0  0  0  0  0  0  0  0
    6.4213  -13.9716   25.8333 C   0  0  0  0  0  0  0  0  0  0  0  0
    5.5300  -12.9113   25.9183 C   0  0  0  0  0  0  0  0  0  0  0  0
    5.9210  -11.6622   26.3486 C   0  0  0  0  0  0  0  0  0  0  0  0
    7.2388  -11.4675   26.7037 C   0  0  0  0  0  0  0  0  0  0  0  0
    8.1345  -12.5316   26.6188 C   0  0  0  0  0  0  0  0  0  0  0  0
    7.7441  -13.7763   26.1897 C   0  0  0  0  0  0  0  0  0  0  0  0
   10.1883  -17.5352   25.9981 C   0  0  0  0  0  0  0  0  0  0  0  0
   10.4351  -17.8035   27.1906 O   0  0  0  0  0  0  0  0  0  0  0  0
    9.5982  -18.4902   25.2005 O   0  0  0  0  0  0  0  0  0  0  0  0
  2  1  1  1
  3  2  1  0
  4  2  1  0
  4  5  1  1
  6  4  1  0
  6 14  1  0
  7  6  2  0
  8  9  1  0
  9 10  2  0
 11  9  1  0
 11 12  1  0
 13 12  1  6
 13 14  1  0
 15 13  1  0
 16 15  2  0
 17 15  1  0
 18 17  1  0
 18 29  1  0
 18 19  1  1
 20 28  1  0
 20 19  1  0
 21 20  2  0
 22 21  1  0
 22 23  1  0
 23 28  2  0
 24 23  1  0
 24 25  2  0
 25 26  1  0
 26 27  2  0
 28 27  1  0
 29 31  1  0
 30 29  2  0
M  END
$$$$
