TQW.pdb
     RDKit          3D

 31 32  0  0  1  0  0  0  0  0999 V2000
    7.9142  -12.3644   19.4439 C   0  0  0  0  0  0  0  0  0  0  0  0
    8.3501  -13.3653   20.4551 C   0  0  1  0  0  0  0  0  0  0  0  0
    7.8130  -13.0025   21.6964 O   0  0  0  0  0  0  0  0  0  0  0  0
    7.8331  -14.7632   20.1652 C   0  0  2  0  0  0  0  0  0  0  0  0
    6.3951  -14.6690   20.0127 N   0  0  0  0  0  0  0  0  0  0  0  0
    8.1099  -15.6544   21.3409 C   0  0  0  0  0  0  0  0  0  0  0  0
    7.2525  -15.8199   22.2461 O   0  0  0  0  0  0  0  0  0  0  0  0
   10.9663  -20.3525   20.0193 N   0  0  0  0  0  0  0  0  0  0  0  0
   11.8785  -19.2569   20.2583 C   0  0  0  0  0  0  0  0  0  0  0  0
   12.8525  -19.2078   19.5069 O   0  0  0  0  0  0  0  0  0  0  0  0
   11.5998  -18.3248   21.3230 C   0  0  0  0  0  0  0  0  0  0  0  0
   10.3851  -18.4747   22.1455 C   0  0  0  0  0  0  0  0  0  0  0  0
    9.6279  -17.2864   22.5457 C   0  0  2  0  0  0  0  0  0  0  0  0
    9.3252  -16.3485   21.5007 N   0  0  0  0  0  0  0  0  0  0  0  0
   10.0270  -16.6202   23.7837 C   0  0  0  0  0  0  0  0  0  0  0  0
   10.8510  -15.6736   23.7002 O   0  0  0  0  0  0  0  0  0  0  0  0
    9.5417  -16.9664   25.0732 N   0  0  0  0  0  0  0  0  0  0  0  0
   10.1407  -16.6149   26.3253 C   0  0  1  0  0  0  0  0  0  0  0  0
    9.3384  -15.6647   27.1416 C   0  0  0  0  0  0  0  0  0  0  0  0
    8.1131  -15.1949   26.4541 C   0  0  0  0  0  0  0  0  0  0  0  0
    7.1254  -15.8939   25.7893 C   0  0  0  0  0  0  0  0  0  0  0  0
    6.2135  -15.0233   25.3259 N   0  0  0  0  0  0  0  0  0  0  0  0
    6.5466  -13.7609   25.6520 C   0  0  0  0  0  0  0  0  0  0  0  0
    5.9784  -12.5138   25.4328 C   0  0  0  0  0  0  0  0  0  0  0  0
    6.5604  -11.3549   25.8980 C   0  0  0  0  0  0  0  0  0  0  0  0
    7.7425  -11.4448   26.6016 C   0  0  0  0  0  0  0  0  0  0  0  0
    8.3138  -12.6964   26.8223 C   0  0  0  0  0  0  0  0  0  0  0  0
    7.7331  -13.8511   26.3583 C   0  0  0  0  0  0  0  0  0  0  0  0
   10.4986  -17.8108   27.1369 C   0  0  0  0  0  0  0  0  0  0  0  0
   10.1042  -18.9322   26.7601 O   0  0  0  0  0  0  0  0  0  0  0  0
   11.2506  -17.7120   28.2864 O   0  0  0  0  0  0  0  0  0  0  0  0
  2  1  1  6
  3  2  1  0
  4  2  1  0
  4  5  1  1
  6  4  1  0
  6 14  1  0
  7  6  2  0
  8  9  1  0
  9 10  2  0
 11  9  1  0
 11 12  1  0
 13 12  1  6
 13 14  1  0
 15 13  1  0
 16 15  2  0
 17 15  1  0
 18 17  1  0
 18 29  1  0
 18 19  1  1
 20 28  1  0
 20 19  1  0
 21 20  2  0
 22 21  1  0
 22 23  1  0
 23 28  2  0
 24 23  1  0
 24 25  2  0
 25 26  1  0
 26 27  2  0
 28 27  1  0
 29 31  1  0
 30 29  2  0
M  END
$$$$
