TQW.pdb
     RDKit          3D

 31 32  0  0  1  0  0  0  0  0999 V2000
    8.0405  -12.3981   18.9664 C   0  0  0  0  0  0  0  0  0  0  0  0
    8.5607  -13.4679   19.8603 C   0  0  1  0  0  0  0  0  0  0  0  0
    8.3455  -13.0782   21.1880 O   0  0  0  0  0  0  0  0  0  0  0  0
    7.8338  -14.7897   19.6866 C   0  0  2  0  0  0  0  0  0  0  0  0
    6.4169  -14.5268   19.8389 N   0  0  0  0  0  0  0  0  0  0  0  0
    8.2426  -15.7344   20.7791 C   0  0  0  0  0  0  0  0  0  0  0  0
    7.5679  -15.8361   21.8356 O   0  0  0  0  0  0  0  0  0  0  0  0
   10.4504  -21.4169   20.8635 N   0  0  0  0  0  0  0  0  0  0  0  0
   11.0899  -20.9266   22.0634 C   0  0  0  0  0  0  0  0  0  0  0  0
   11.4659  -21.7933   22.8529 O   0  0  0  0  0  0  0  0  0  0  0  0
   11.2415  -19.5048   22.2529 C   0  0  0  0  0  0  0  0  0  0  0  0
   10.6910  -18.5587   21.2649 C   0  0  0  0  0  0  0  0  0  0  0  0
    9.8765  -17.4284   21.7173 C   0  0  2  0  0  0  0  0  0  0  0  0
    9.3867  -16.5515   20.6905 N   0  0  0  0  0  0  0  0  0  0  0  0
   10.3395  -16.6939   22.8928 C   0  0  0  0  0  0  0  0  0  0  0  0
   11.0759  -15.6917   22.7047 O   0  0  0  0  0  0  0  0  0  0  0  0
   10.0081  -17.0327   24.2320 N   0  0  0  0  0  0  0  0  0  0  0  0
   10.4036  -16.3183   25.4082 C   0  0  1  0  0  0  0  0  0  0  0  0
    9.8861  -14.9255   25.4807 C   0  0  0  0  0  0  0  0  0  0  0  0
    8.4116  -14.8567   25.6080 C   0  0  0  0  0  0  0  0  0  0  0  0
    7.4426  -15.8226   25.4239 C   0  0  0  0  0  0  0  0  0  0  0  0
    6.2365  -15.2776   25.6528 N   0  0  0  0  0  0  0  0  0  0  0  0
    6.3524  -13.9787   25.9851 C   0  0  0  0  0  0  0  0  0  0  0  0
    5.4559  -12.9712   26.3127 C   0  0  0  0  0  0  0  0  0  0  0  0
    5.8732  -11.6940   26.6173 C   0  0  0  0  0  0  0  0  0  0  0  0
    7.2232  -11.4160   26.5937 C   0  0  0  0  0  0  0  0  0  0  0  0
    8.1241  -12.4268   26.2649 C   0  0  0  0  0  0  0  0  0  0  0  0
    7.7076  -13.6997   25.9615 C   0  0  0  0  0  0  0  0  0  0  0  0
   10.0669  -17.0548   26.6577 C   0  0  0  0  0  0  0  0  0  0  0  0
   10.3537  -16.5374   27.7555 O   0  0  0  0  0  0  0  0  0  0  0  0
    9.4497  -18.2856   26.6334 O   0  0  0  0  0  0  0  0  0  0  0  0
  2  1  1  6
  3  2  1  0
  4  2  1  0
  4  5  1  1
  6  4  1  0
  6 14  1  0
  7  6  2  0
  8  9  1  0
  9 10  2  0
 11  9  1  0
 11 12  1  0
 13 12  1  6
 13 14  1  0
 15 13  1  0
 16 15  2  0
 17 15  1  0
 18 17  1  0
 18 29  1  0
 18 19  1  1
 20 28  1  0
 20 19  1  0
 21 20  2  0
 22 21  1  0
 22 23  1  0
 23 28  2  0
 24 23  1  0
 24 25  2  0
 25 26  1  0
 26 27  2  0
 28 27  1  0
 29 31  1  0
 30 29  2  0
M  END
$$$$
