TQW.pdb
     RDKit          3D

 31 32  0  0  1  0  0  0  0  0999 V2000
    9.2908  -12.7246   20.5054 C   0  0  0  0  0  0  0  0  0  0  0  0
    7.9378  -13.1390   20.0450 C   0  0  1  0  0  0  0  0  0  0  0  0
    7.6253  -12.4183   18.8857 O   0  0  0  0  0  0  0  0  0  0  0  0
    7.8673  -14.6062   19.6602 C   0  0  2  0  0  0  0  0  0  0  0  0
    6.5159  -14.8699   19.2086 N   0  0  0  0  0  0  0  0  0  0  0  0
    8.1172  -15.4553   20.8725 C   0  0  0  0  0  0  0  0  0  0  0  0
    7.2490  -15.5696   21.7752 O   0  0  0  0  0  0  0  0  0  0  0  0
   11.8388  -20.6363   20.9500 N   0  0  0  0  0  0  0  0  0  0  0  0
   12.1154  -19.3711   20.3079 C   0  0  0  0  0  0  0  0  0  0  0  0
   12.9901  -19.3989   19.4420 O   0  0  0  0  0  0  0  0  0  0  0  0
   11.3761  -18.1991   20.7079 C   0  0  0  0  0  0  0  0  0  0  0  0
   10.3496  -18.2899   21.7627 C   0  0  0  0  0  0  0  0  0  0  0  0
    9.5782  -17.0999   22.1295 C   0  0  2  0  0  0  0  0  0  0  0  0
    9.3181  -16.1645   21.0710 N   0  0  0  0  0  0  0  0  0  0  0  0
    9.9284  -16.4308   23.3807 C   0  0  0  0  0  0  0  0  0  0  0  0
   10.6699  -15.4170   23.3151 O   0  0  0  0  0  0  0  0  0  0  0  0
    9.4823  -16.8455   24.6641 N   0  0  0  0  0  0  0  0  0  0  0  0
    9.9294  -16.3298   25.9227 C   0  0  1  0  0  0  0  0  0  0  0  0
    8.8347  -16.0301   26.8845 C   0  0  0  0  0  0  0  0  0  0  0  0
    7.7081  -15.2872   26.2732 C   0  0  0  0  0  0  0  0  0  0  0  0
    6.5961  -15.7348   25.5882 C   0  0  0  0  0  0  0  0  0  0  0  0
    5.8561  -14.6757   25.2212 N   0  0  0  0  0  0  0  0  0  0  0  0
    6.4252  -13.5274   25.6320 C   0  0  0  0  0  0  0  0  0  0  0  0
    6.0973  -12.1831   25.5263 C   0  0  0  0  0  0  0  0  0  0  0  0
    6.8937  -11.1937   26.0602 C   0  0  0  0  0  0  0  0  0  0  0  0
    8.0494  -11.5578   26.7177 C   0  0  0  0  0  0  0  0  0  0  0  0
    8.3795  -12.9073   26.8245 C   0  0  0  0  0  0  0  0  0  0  0  0
    7.5852  -13.8929   26.2921 C   0  0  0  0  0  0  0  0  0  0  0  0
   10.9478  -17.2065   26.5639 C   0  0  0  0  0  0  0  0  0  0  0  0
   11.1940  -18.3159   26.0503 O   0  0  0  0  0  0  0  0  0  0  0  0
   11.6223  -16.8266   27.7029 O   0  0  0  0  0  0  0  0  0  0  0  0
  2  1  1  6
  3  2  1  0
  4  2  1  0
  4  5  1  1
  6  4  1  0
  6 14  1  0
  7  6  2  0
  8  9  1  0
  9 10  2  0
 11  9  1  0
 11 12  1  0
 13 12  1  6
 13 14  1  0
 15 13  1  0
 16 15  2  0
 17 15  1  0
 18 17  1  0
 18 29  1  0
 18 19  1  1
 20 28  1  0
 20 19  1  0
 21 20  2  0
 22 21  1  0
 22 23  1  0
 23 28  2  0
 24 23  1  0
 24 25  2  0
 25 26  1  0
 26 27  2  0
 28 27  1  0
 29 31  1  0
 30 29  2  0
M  END
$$$$
