GKA.pdb
     RDKit          3D

 19 18  0  0  1  0  0  0  0  0999 V2000
   -0.7395  -26.9118   31.9582 N   0  0  0  0  0  0  0  0  0  0  0  0
   -2.1599  -27.0690   32.1100 C   0  0  0  0  0  0  0  0  0  0  0  0
   -2.9248  -26.2581   31.1217 C   0  0  0  0  0  0  0  0  0  0  0  0
   -2.4371  -25.2307   30.5701 O   0  0  0  0  0  0  0  0  0  0  0  0
   -4.2346  -26.6370   30.7818 N   0  0  0  0  0  0  0  0  0  0  0  0
   -5.0355  -25.9777   29.7716 C   0  0  1  0  0  0  0  0  0  0  0  0
   -5.9628  -26.9636   29.1219 C   0  0  0  0  0  0  0  0  0  0  0  0
   -6.0076  -26.8912   27.6438 C   0  0  0  0  0  0  0  0  0  0  0  0
   -6.9451  -27.9334   27.0856 C   0  0  0  0  0  0  0  0  0  0  0  0
   -7.0305  -27.9533   25.5913 C   0  0  0  0  0  0  0  0  0  0  0  0
   -7.9637  -29.0214   25.2423 N   0  0  0  0  0  0  0  0  0  0  0  0
   -5.7046  -24.8216   30.3683 C   0  0  0  0  0  0  0  0  0  0  0  0
   -6.2464  -24.9218   31.4944 O   0  0  0  0  0  0  0  0  0  0  0  0
   -5.9696  -21.1719   29.6049 C   0  0  0  0  0  0  0  0  0  0  0  0
   -6.4757  -22.4228   30.3303 C   0  0  2  0  0  0  0  0  0  0  0  0
   -5.7882  -23.5474   29.7423 N   0  0  0  0  0  0  0  0  0  0  0  0
   -7.9444  -22.5181   30.1567 C   0  0  0  0  0  0  0  0  0  0  0  0
   -8.8547  -21.7613   30.8719 O   0  0  0  0  0  0  0  0  0  0  0  0
   -8.3853  -23.3338   29.3107 O   0  0  0  0  0  0  0  0  0  0  0  0
  1  2  1  0
  3  2  1  0
  3  5  1  0
  4  3  2  0
  6  5  1  0
  6 12  1  0
  6  7  1  1
  8  7  1  0
  9  8  1  0
 10  9  1  0
 11 10  1  0
 12 16  1  0
 13 12  2  0
 15 17  1  0
 15 14  1  6
 16 15  1  0
 17 18  1  0
 19 17  2  0
M  END
$$$$
