GKA.pdb
     RDKit          3D

 19 18  0  0  1  0  0  0  0  0999 V2000
    7.8040  -12.6777   19.6514 N   0  0  0  0  0  0  0  0  0  0  0  0
    8.3743  -13.8393   20.2764 C   0  0  0  0  0  0  0  0  0  0  0  0
    7.8197  -14.0749   21.6389 C   0  0  0  0  0  0  0  0  0  0  0  0
    7.0540  -13.2459   22.2083 O   0  0  0  0  0  0  0  0  0  0  0  0
    8.1507  -15.2551   22.3260 N   0  0  0  0  0  0  0  0  0  0  0  0
    7.6123  -15.6212   23.6193 C   0  0  1  0  0  0  0  0  0  0  0  0
    7.4119  -17.1073   23.6943 C   0  0  0  0  0  0  0  0  0  0  0  0
    6.2685  -17.6192   22.9053 C   0  0  0  0  0  0  0  0  0  0  0  0
    6.1755  -19.1214   23.0114 C   0  0  0  0  0  0  0  0  0  0  0  0
    5.0283  -19.7256   22.2634 C   0  0  0  0  0  0  0  0  0  0  0  0
    5.0842  -21.1645   22.5078 N   0  0  0  0  0  0  0  0  0  0  0  0
    8.4711  -15.0737   24.6695 C   0  0  0  0  0  0  0  0  0  0  0  0
    9.7047  -15.2959   24.6512 O   0  0  0  0  0  0  0  0  0  0  0  0
    8.0528  -12.6803   27.5177 C   0  0  0  0  0  0  0  0  0  0  0  0
    8.8454  -13.7751   26.7964 C   0  0  2  0  0  0  0  0  0  0  0  0
    7.9919  -14.2797   25.7476 N   0  0  0  0  0  0  0  0  0  0  0  0
    9.2067  -14.8296   27.7729 C   0  0  0  0  0  0  0  0  0  0  0  0
    8.7206  -16.1235   27.7237 O   0  0  0  0  0  0  0  0  0  0  0  0
   10.0004  -14.5285   28.6976 O   0  0  0  0  0  0  0  0  0  0  0  0
  1  2  1  0
  3  2  1  0
  3  5  1  0
  4  3  2  0
  6  5  1  0
  6 12  1  0
  6  7  1  6
  8  7  1  0
  9  8  1  0
 10  9  1  0
 11 10  1  0
 12 16  1  0
 13 12  2  0
 15 17  1  0
 15 14  1  1
 16 15  1  0
 17 18  1  0
 19 17  2  0
M  END
$$$$
