GKA.pdb
     RDKit          3D

 19 18  0  0  1  0  0  0  0  0999 V2000
    3.1722  -19.7908   20.9594 N   0  0  0  0  0  0  0  0  0  0  0  0
    3.3572  -18.5163   21.5970 C   0  0  0  0  0  0  0  0  0  0  0  0
    4.7799  -18.2726   21.9660 C   0  0  0  0  0  0  0  0  0  0  0  0
    5.6132  -19.2137   22.0985 O   0  0  0  0  0  0  0  0  0  0  0  0
    5.2243  -16.9563   22.1767 N   0  0  0  0  0  0  0  0  0  0  0  0
    6.5714  -16.6070   22.5762 C   0  0  1  0  0  0  0  0  0  0  0  0
    6.9001  -15.2134   22.1247 C   0  0  0  0  0  0  0  0  0  0  0  0
    7.2641  -15.0949   20.6946 C   0  0  0  0  0  0  0  0  0  0  0  0
    7.9098  -13.7599   20.4160 C   0  0  0  0  0  0  0  0  0  0  0  0
    8.3430  -13.5652   18.9965 C   0  0  0  0  0  0  0  0  0  0  0  0
    8.8125  -12.1862   18.8904 N   0  0  0  0  0  0  0  0  0  0  0  0
    6.7176  -16.8261   24.0153 C   0  0  0  0  0  0  0  0  0  0  0  0
    5.8213  -16.4418   24.8031 O   0  0  0  0  0  0  0  0  0  0  0  0
    7.0101  -18.8074   26.3964 C   0  0  0  0  0  0  0  0  0  0  0  0
    7.9732  -17.6742   26.0288 C   0  0  2  0  0  0  0  0  0  0  0  0
    7.8417  -17.4657   24.6067 N   0  0  0  0  0  0  0  0  0  0  0  0
    9.3500  -18.0720   26.4061 C   0  0  0  0  0  0  0  0  0  0  0  0
    9.7510  -18.3182   27.7066 O   0  0  0  0  0  0  0  0  0  0  0  0
   10.1998  -18.1918   25.4900 O   0  0  0  0  0  0  0  0  0  0  0  0
  1  2  1  0
  3  2  1  0
  3  5  1  0
  4  3  2  0
  6  5  1  0
  6 12  1  0
  6  7  1  1
  8  7  1  0
  9  8  1  0
 10  9  1  0
 11 10  1  0
 12 16  1  0
 13 12  2  0
 15 17  1  0
 15 14  1  6
 16 15  1  0
 17 18  1  0
 19 17  2  0
M  END
$$$$
