GKA.pdb
     RDKit          3D

 19 18  0  0  1  0  0  0  0  0999 V2000
    4.5090  -27.2322   26.0327 N   0  0  0  0  0  0  0  0  0  0  0  0
    4.1250  -25.8564   26.1909 C   0  0  0  0  0  0  0  0  0  0  0  0
    5.2211  -24.9193   25.8170 C   0  0  0  0  0  0  0  0  0  0  0  0
    6.4307  -25.2824   25.7652 O   0  0  0  0  0  0  0  0  0  0  0  0
    4.9140  -23.5831   25.5090 N   0  0  0  0  0  0  0  0  0  0  0  0
    5.8806  -22.6154   25.0341 C   0  0  1  0  0  0  0  0  0  0  0  0
    5.1791  -21.4698   24.3635 C   0  0  0  0  0  0  0  0  0  0  0  0
    6.0779  -20.4707   23.7424 C   0  0  0  0  0  0  0  0  0  0  0  0
    5.7991  -20.3461   22.2647 C   0  0  0  0  0  0  0  0  0  0  0  0
    6.7297  -19.4297   21.5336 C   0  0  0  0  0  0  0  0  0  0  0  0
    6.3350  -19.4710   20.1280 N   0  0  0  0  0  0  0  0  0  0  0  0
    6.7529  -22.2247   26.1416 C   0  0  0  0  0  0  0  0  0  0  0  0
    6.2691  -21.6694   27.1561 O   0  0  0  0  0  0  0  0  0  0  0  0
   10.0691  -23.0666   27.4363 C   0  0  0  0  0  0  0  0  0  0  0  0
    9.0191  -21.9732   27.2146 C   0  0  2  0  0  0  0  0  0  0  0  0
    8.1592  -22.4362   26.1519 N   0  0  0  0  0  0  0  0  0  0  0  0
    9.7080  -20.7099   26.8602 C   0  0  0  0  0  0  0  0  0  0  0  0
    9.6013  -20.0951   25.6259 O   0  0  0  0  0  0  0  0  0  0  0  0
   10.4297  -20.1683   27.7328 O   0  0  0  0  0  0  0  0  0  0  0  0
  1  2  1  0
  3  2  1  0
  3  5  1  0
  4  3  2  0
  6  5  1  0
  6 12  1  0
  6  7  1  1
  8  7  1  0
  9  8  1  0
 10  9  1  0
 11 10  1  0
 12 16  1  0
 13 12  2  0
 15 17  1  0
 15 14  1  6
 16 15  1  0
 17 18  1  0
 19 17  2  0
M  END
$$$$
