GKA.pdb
     RDKit          3D

 19 18  0  0  1  0  0  0  0  0999 V2000
    5.1770  -19.9915   23.2685 N   0  0  0  0  0  0  0  0  0  0  0  0
    5.1907  -18.6111   23.6679 C   0  0  0  0  0  0  0  0  0  0  0  0
    6.3579  -17.8744   23.1072 C   0  0  0  0  0  0  0  0  0  0  0  0
    7.3733  -18.4695   22.6463 O   0  0  0  0  0  0  0  0  0  0  0  0
    6.3428  -16.4694   23.0836 N   0  0  0  0  0  0  0  0  0  0  0  0
    7.4013  -15.6542   22.5256 C   0  0  1  0  0  0  0  0  0  0  0  0
    6.8649  -14.3081   22.1324 C   0  0  0  0  0  0  0  0  0  0  0  0
    7.8350  -13.4340   21.4347 C   0  0  0  0  0  0  0  0  0  0  0  0
    7.7299  -13.6054   19.9393 C   0  0  0  0  0  0  0  0  0  0  0  0
    8.6981  -12.7794   19.1514 C   0  0  0  0  0  0  0  0  0  0  0  0
    8.4007  -13.0216   17.7420 N   0  0  0  0  0  0  0  0  0  0  0  0
    8.5190  -15.6072   23.4683 C   0  0  0  0  0  0  0  0  0  0  0  0
    8.3093  -15.3583   24.6790 O   0  0  0  0  0  0  0  0  0  0  0  0
   10.7701  -17.1202   24.8960 C   0  0  0  0  0  0  0  0  0  0  0  0
   10.9579  -15.8560   24.0513 C   0  0  2  0  0  0  0  0  0  0  0  0
    9.8739  -15.8312   23.0988 N   0  0  0  0  0  0  0  0  0  0  0  0
   12.2804  -15.9150   23.3852 C   0  0  0  0  0  0  0  0  0  0  0  0
   12.4488  -16.0172   22.0162 O   0  0  0  0  0  0  0  0  0  0  0  0
   13.3058  -15.8693   24.1077 O   0  0  0  0  0  0  0  0  0  0  0  0
  1  2  1  0
  3  2  1  0
  3  5  1  0
  4  3  2  0
  6  5  1  0
  6 12  1  0
  6  7  1  1
  8  7  1  0
  9  8  1  0
 10  9  1  0
 11 10  1  0
 12 16  1  0
 13 12  2  0
 15 17  1  0
 15 14  1  1
 16 15  1  0
 17 18  1  0
 19 17  2  0
M  END
$$$$
