GKA.pdb
     RDKit          3D

 19 18  0  0  1  0  0  0  0  0999 V2000
   12.8586  -27.0334   16.3444 N   0  0  0  0  0  0  0  0  0  0  0  0
   11.7587  -26.6804   17.1992 C   0  0  0  0  0  0  0  0  0  0  0  0
   12.0017  -25.4064   17.9323 C   0  0  0  0  0  0  0  0  0  0  0  0
   13.1644  -25.0134   18.2349 O   0  0  0  0  0  0  0  0  0  0  0  0
   10.9102  -24.6044   18.3064 N   0  0  0  0  0  0  0  0  0  0  0  0
   11.0324  -23.3206   18.9647 C   0  0  1  0  0  0  0  0  0  0  0  0
    9.9548  -22.3901   18.4882 C   0  0  0  0  0  0  0  0  0  0  0  0
    9.9881  -22.0943   17.0379 C   0  0  0  0  0  0  0  0  0  0  0  0
    8.8386  -21.1978   16.6486 C   0  0  0  0  0  0  0  0  0  0  0  0
    8.7437  -20.9133   15.1821 C   0  0  0  0  0  0  0  0  0  0  0  0
    7.5055  -20.1647   14.9829 N   0  0  0  0  0  0  0  0  0  0  0  0
   11.0578  -23.5242   20.4133 C   0  0  0  0  0  0  0  0  0  0  0  0
   10.2969  -24.3687   20.9420 O   0  0  0  0  0  0  0  0  0  0  0  0
   13.3167  -22.5804   23.2125 C   0  0  0  0  0  0  0  0  0  0  0  0
   11.9363  -23.0295   22.7227 C   0  0  2  0  0  0  0  0  0  0  0  0
   11.9125  -22.8089   21.2965 N   0  0  0  0  0  0  0  0  0  0  0  0
   10.8970  -22.2392   23.4236 C   0  0  0  0  0  0  0  0  0  0  0  0
   10.4939  -22.4797   24.7246 O   0  0  0  0  0  0  0  0  0  0  0  0
   10.3523  -21.2971   22.7979 O   0  0  0  0  0  0  0  0  0  0  0  0
  1  2  1  0
  3  2  1  0
  3  5  1  0
  4  3  2  0
  6  5  1  0
  6 12  1  0
  6  7  1  1
  8  7  1  0
  9  8  1  0
 10  9  1  0
 11 10  1  0
 12 16  1  0
 13 12  2  0
 15 17  1  0
 15 14  1  1
 16 15  1  0
 17 18  1  0
 19 17  2  0
M  END
$$$$
