GKA.pdb
     RDKit          3D

 19 18  0  0  1  0  0  0  0  0999 V2000
    4.1220  -20.1780   21.2181 N   0  0  0  0  0  0  0  0  0  0  0  0
    4.0898  -18.8643   21.7997 C   0  0  0  0  0  0  0  0  0  0  0  0
    5.4289  -18.4321   22.2890 C   0  0  0  0  0  0  0  0  0  0  0  0
    6.3258  -19.2594   22.6190 O   0  0  0  0  0  0  0  0  0  0  0  0
    5.7185  -17.0610   22.3922 N   0  0  0  0  0  0  0  0  0  0  0  0
    6.9750  -16.5295   22.8770 C   0  0  1  0  0  0  0  0  0  0  0  0
    7.1740  -15.1297   22.3718 C   0  0  0  0  0  0  0  0  0  0  0  0
    7.5389  -15.0335   20.9402 C   0  0  0  0  0  0  0  0  0  0  0  0
    7.8513  -13.6064   20.5628 C   0  0  0  0  0  0  0  0  0  0  0  0
    8.0178  -13.3763   19.0931 C   0  0  0  0  0  0  0  0  0  0  0  0
    8.2738  -11.9485   18.9221 N   0  0  0  0  0  0  0  0  0  0  0  0
    7.0208  -16.6583   24.3336 C   0  0  0  0  0  0  0  0  0  0  0  0
    6.0472  -16.2823   25.0280 O   0  0  0  0  0  0  0  0  0  0  0  0
    7.0157  -18.4034   26.7775 C   0  0  0  0  0  0  0  0  0  0  0  0
    8.1280  -17.3946   26.4741 C   0  0  2  0  0  0  0  0  0  0  0  0
    8.1281  -17.1978   25.0443 N   0  0  0  0  0  0  0  0  0  0  0  0
    9.4176  -17.9406   26.9590 C   0  0  0  0  0  0  0  0  0  0  0  0
   10.5346  -18.1016   26.1595 O   0  0  0  0  0  0  0  0  0  0  0  0
    9.4982  -18.2757   28.1660 O   0  0  0  0  0  0  0  0  0  0  0  0
  1  2  1  0
  3  2  1  0
  3  5  1  0
  4  3  2  0
  6  5  1  0
  6 12  1  0
  6  7  1  1
  8  7  1  0
  9  8  1  0
 10  9  1  0
 11 10  1  0
 12 16  1  0
 13 12  2  0
 15 17  1  0
 15 14  1  6
 16 15  1  0
 17 18  1  0
 19 17  2  0
M  END
$$$$
