GKA.pdb
     RDKit          3D

 19 18  0  0  1  0  0  0  0  0999 V2000
    5.8525  -18.3839   15.4321 N   0  0  0  0  0  0  0  0  0  0  0  0
    5.8589  -19.4071   16.4411 C   0  0  0  0  0  0  0  0  0  0  0  0
    5.3377  -18.9137   17.7466 C   0  0  0  0  0  0  0  0  0  0  0  0
    5.4283  -17.7019   18.0946 O   0  0  0  0  0  0  0  0  0  0  0  0
    4.7220  -19.8153   18.6312 N   0  0  0  0  0  0  0  0  0  0  0  0
    4.2232  -19.4559   19.9420 C   0  0  1  0  0  0  0  0  0  0  0  0
    3.0485  -20.3184   20.3030 C   0  0  0  0  0  0  0  0  0  0  0  0
    2.5241  -20.1103   21.6718 C   0  0  0  0  0  0  0  0  0  0  0  0
    1.3465  -21.0157   21.9366 C   0  0  0  0  0  0  0  0  0  0  0  0
    0.7080  -20.8258   23.2770 C   0  0  0  0  0  0  0  0  0  0  0  0
   -0.2291  -21.9324   23.4518 N   0  0  0  0  0  0  0  0  0  0  0  0
    5.3245  -19.5017   20.9040 C   0  0  0  0  0  0  0  0  0  0  0  0
    6.0687  -20.5090   20.9590 O   0  0  0  0  0  0  0  0  0  0  0  0
    6.8890  -17.0641   23.2871 C   0  0  0  0  0  0  0  0  0  0  0  0
    6.7596  -18.4744   22.7027 C   0  0  2  0  0  0  0  0  0  0  0  0
    5.6230  -18.4500   21.8135 N   0  0  0  0  0  0  0  0  0  0  0  0
    6.5753  -19.4395   23.8121 C   0  0  0  0  0  0  0  0  0  0  0  0
    7.6168  -19.9717   24.5503 O   0  0  0  0  0  0  0  0  0  0  0  0
    5.4049  -19.7929   24.0963 O   0  0  0  0  0  0  0  0  0  0  0  0
  1  2  1  0
  3  2  1  0
  3  5  1  0
  4  3  2  0
  6  5  1  0
  6 12  1  0
  6  7  1  1
  8  7  1  0
  9  8  1  0
 10  9  1  0
 11 10  1  0
 12 16  1  0
 13 12  2  0
 15 17  1  0
 15 14  1  1
 16 15  1  0
 17 18  1  0
 19 17  2  0
M  END
$$$$
