GKA.pdb
     RDKit          3D

 19 18  0  0  1  0  0  0  0  0999 V2000
   -2.9416  -26.9559   26.0897 N   0  0  0  0  0  0  0  0  0  0  0  0
   -3.2450  -27.0595   27.4905 C   0  0  0  0  0  0  0  0  0  0  0  0
   -4.5665  -26.4591   27.8262 C   0  0  0  0  0  0  0  0  0  0  0  0
   -5.1576  -25.6534   27.0523 O   0  0  0  0  0  0  0  0  0  0  0  0
   -5.1886  -26.7912   29.0417 N   0  0  0  0  0  0  0  0  0  0  0  0
   -6.5199  -26.3634   29.4172 C   0  0  1  0  0  0  0  0  0  0  0  0
   -7.1056  -27.3153   30.4198 C   0  0  0  0  0  0  0  0  0  0  0  0
   -8.4824  -26.9878   30.8546 C   0  0  0  0  0  0  0  0  0  0  0  0
   -8.9734  -27.9869   31.8730 C   0  0  0  0  0  0  0  0  0  0  0  0
  -10.3736  -27.7516   32.3470 C   0  0  0  0  0  0  0  0  0  0  0  0
  -10.6476  -28.7706   33.3568 N   0  0  0  0  0  0  0  0  0  0  0  0
   -6.4688  -24.9713   29.8641 C   0  0  0  0  0  0  0  0  0  0  0  0
   -5.7201  -24.6441   30.8149 O   0  0  0  0  0  0  0  0  0  0  0  0
   -7.2202  -21.6851   28.4555 C   0  0  0  0  0  0  0  0  0  0  0  0
   -7.1591  -22.5522   29.7170 C   0  0  2  0  0  0  0  0  0  0  0  0
   -7.2334  -23.9252   29.2781 N   0  0  0  0  0  0  0  0  0  0  0  0
   -8.2903  -22.1914   30.6037 C   0  0  0  0  0  0  0  0  0  0  0  0
   -8.3642  -21.0068   31.3139 O   0  0  0  0  0  0  0  0  0  0  0  0
   -9.2353  -23.0101   30.7150 O   0  0  0  0  0  0  0  0  0  0  0  0
  1  2  1  0
  3  2  1  0
  3  5  1  0
  4  3  2  0
  6  5  1  0
  6 12  1  0
  6  7  1  1
  8  7  1  0
  9  8  1  0
 10  9  1  0
 11 10  1  0
 12 16  1  0
 13 12  2  0
 15 17  1  0
 15 14  1  6
 16 15  1  0
 17 18  1  0
 19 17  2  0
M  END
$$$$
