GKA.pdb
     RDKit          3D

 19 18  0  0  1  0  0  0  0  0999 V2000
   -1.3548  -27.3129   32.5519 N   0  0  0  0  0  0  0  0  0  0  0  0
   -2.7521  -27.0848   32.7986 C   0  0  0  0  0  0  0  0  0  0  0  0
   -3.4008  -26.3200   31.6969 C   0  0  0  0  0  0  0  0  0  0  0  0
   -2.7328  -25.7383   30.7951 O   0  0  0  0  0  0  0  0  0  0  0  0
   -4.8024  -26.2342   31.6462 N   0  0  0  0  0  0  0  0  0  0  0  0
   -5.5434  -25.6813   30.5320 C   0  0  1  0  0  0  0  0  0  0  0  0
   -6.7737  -26.5013   30.2709 C   0  0  0  0  0  0  0  0  0  0  0  0
   -7.6452  -25.9849   29.1912 C   0  0  0  0  0  0  0  0  0  0  0  0
   -7.6305  -26.9135   28.0021 C   0  0  0  0  0  0  0  0  0  0  0  0
   -8.4683  -26.4568   26.8488 C   0  0  0  0  0  0  0  0  0  0  0  0
   -8.4385  -27.5327   25.8613 N   0  0  0  0  0  0  0  0  0  0  0  0
   -5.8044  -24.2641   30.7847 C   0  0  0  0  0  0  0  0  0  0  0  0
   -6.2481  -23.8962   31.8980 O   0  0  0  0  0  0  0  0  0  0  0  0
   -5.1772  -21.0650   28.9252 C   0  0  0  0  0  0  0  0  0  0  0  0
   -5.7490  -21.8339   30.1206 C   0  0  2  0  0  0  0  0  0  0  0  0
   -5.5836  -23.2371   29.8261 N   0  0  0  0  0  0  0  0  0  0  0  0
   -7.1747  -21.4671   30.2906 C   0  0  0  0  0  0  0  0  0  0  0  0
   -7.6027  -20.3131   30.9214 O   0  0  0  0  0  0  0  0  0  0  0  0
   -8.0425  -22.2512   29.8347 O   0  0  0  0  0  0  0  0  0  0  0  0
  1  2  1  0
  3  2  1  0
  3  5  1  0
  4  3  2  0
  6  5  1  0
  6 12  1  0
  6  7  1  1
  8  7  1  0
  9  8  1  0
 10  9  1  0
 11 10  1  0
 12 16  1  0
 13 12  2  0
 15 17  1  0
 15 14  1  6
 16 15  1  0
 17 18  1  0
 19 17  2  0
M  END
$$$$
