GKA.pdb
     RDKit          3D

 19 18  0  0  1  0  0  0  0  0999 V2000
    4.7443  -19.7042   22.9210 N   0  0  0  0  0  0  0  0  0  0  0  0
    4.9440  -18.3429   23.3360 C   0  0  0  0  0  0  0  0  0  0  0  0
    6.1698  -17.7455   22.7360 C   0  0  0  0  0  0  0  0  0  0  0  0
    6.9629  -18.4150   22.0145 O   0  0  0  0  0  0  0  0  0  0  0  0
    6.4668  -16.3925   22.9721 N   0  0  0  0  0  0  0  0  0  0  0  0
    7.6812  -15.7379   22.5325 C   0  0  1  0  0  0  0  0  0  0  0  0
    7.3854  -14.3272   22.1121 C   0  0  0  0  0  0  0  0  0  0  0  0
    6.9391  -14.1795   20.7082 C   0  0  0  0  0  0  0  0  0  0  0  0
    7.8789  -13.2835   19.9398 C   0  0  0  0  0  0  0  0  0  0  0  0
    7.4786  -13.0390   18.5184 C   0  0  0  0  0  0  0  0  0  0  0  0
    8.5195  -12.1989   17.9318 N   0  0  0  0  0  0  0  0  0  0  0  0
    8.6964  -15.8561   23.5792 C   0  0  0  0  0  0  0  0  0  0  0  0
    8.4899  -15.3623   24.7128 O   0  0  0  0  0  0  0  0  0  0  0  0
   11.0185  -17.9603   24.9629 C   0  0  0  0  0  0  0  0  0  0  0  0
   10.9787  -16.5341   24.4048 C   0  0  2  0  0  0  0  0  0  0  0  0
    9.9444  -16.5134   23.3983 N   0  0  0  0  0  0  0  0  0  0  0  0
   12.3081  -16.2012   23.8410 C   0  0  0  0  0  0  0  0  0  0  0  0
   13.4252  -15.9320   24.6107 O   0  0  0  0  0  0  0  0  0  0  0  0
   12.4245  -16.1618   22.5918 O   0  0  0  0  0  0  0  0  0  0  0  0
  1  2  1  0
  3  2  1  0
  3  5  1  0
  4  3  2  0
  6  5  1  0
  6 12  1  0
  6  7  1  1
  8  7  1  0
  9  8  1  0
 10  9  1  0
 11 10  1  0
 12 16  1  0
 13 12  2  0
 15 17  1  0
 15 14  1  6
 16 15  1  0
 17 18  1  0
 19 17  2  0
M  END
$$$$
