GKA.pdb
     RDKit          3D

 19 18  0  0  1  0  0  0  0  0999 V2000
   -0.8930  -26.1425   29.9405 N   0  0  0  0  0  0  0  0  0  0  0  0
   -2.1578  -26.6351   29.4683 C   0  0  0  0  0  0  0  0  0  0  0  0
   -3.0724  -25.5338   29.0560 C   0  0  0  0  0  0  0  0  0  0  0  0
   -2.9901  -24.3704   29.5433 O   0  0  0  0  0  0  0  0  0  0  0  0
   -4.0653  -25.7829   28.0934 N   0  0  0  0  0  0  0  0  0  0  0  0
   -4.9908  -24.7835   27.6024 C   0  0  1  0  0  0  0  0  0  0  0  0
   -5.4855  -25.1631   26.2366 C   0  0  0  0  0  0  0  0  0  0  0  0
   -6.2337  -24.0985   25.5304 C   0  0  0  0  0  0  0  0  0  0  0  0
   -6.5641  -24.5223   24.1205 C   0  0  0  0  0  0  0  0  0  0  0  0
   -7.2465  -23.4717   23.3014 C   0  0  0  0  0  0  0  0  0  0  0  0
   -7.3958  -24.0239   21.9575 N   0  0  0  0  0  0  0  0  0  0  0  0
   -6.0480  -24.5802   28.5930 C   0  0  0  0  0  0  0  0  0  0  0  0
   -6.7302  -25.5534   28.9919 O   0  0  0  0  0  0  0  0  0  0  0  0
   -7.0483  -23.5863   31.4280 C   0  0  0  0  0  0  0  0  0  0  0  0
   -7.4905  -23.1069   30.0417 C   0  0  2  0  0  0  0  0  0  0  0  0
   -6.3697  -23.3147   29.1563 N   0  0  0  0  0  0  0  0  0  0  0  0
   -7.8728  -21.6777   30.1266 C   0  0  0  0  0  0  0  0  0  0  0  0
   -7.1163  -20.6460   29.6010 O   0  0  0  0  0  0  0  0  0  0  0  0
   -8.9461  -21.3892   30.7100 O   0  0  0  0  0  0  0  0  0  0  0  0
  1  2  1  0
  3  2  1  0
  3  5  1  0
  4  3  2  0
  6  5  1  0
  6 12  1  0
  6  7  1  6
  8  7  1  0
  9  8  1  0
 10  9  1  0
 11 10  1  0
 12 16  1  0
 13 12  2  0
 15 17  1  0
 15 14  1  1
 16 15  1  0
 17 18  1  0
 19 17  2  0
M  END
$$$$
