FDP.pdb
     RDKit          3D

 27 28  0  0  1  0  0  0  0  0999 V2000
   29.2303  -22.3645   -9.9604 N   0  0  0  0  0  0  0  0  0  0  0  0
   28.1162  -21.4694   -9.8892 C   0  0  1  0  0  0  0  0  0  0  0  0
   28.6283  -20.0813   -9.6207 C   0  0  0  0  0  0  0  0  0  0  0  0
   28.4550  -19.8193   -8.1683 C   0  0  0  0  0  0  0  0  0  0  0  0
   29.4917  -19.9303   -7.2569 C   0  0  0  0  0  0  0  0  0  0  0  0
   29.3095  -19.6812   -5.9044 C   0  0  0  0  0  0  0  0  0  0  0  0
   28.0763  -19.3115   -5.4218 C   0  0  0  0  0  0  0  0  0  0  0  0
   27.0284  -19.1982   -6.3353 C   0  0  0  0  0  0  0  0  0  0  0  0
   27.2197  -19.4455   -7.6618 C   0  0  0  0  0  0  0  0  0  0  0  0
   27.2746  -21.5151  -11.1321 C   0  0  0  0  0  0  0  0  0  0  0  0
   27.7953  -21.9955  -12.1662 O   0  0  0  0  0  0  0  0  0  0  0  0
   25.9551  -21.0421  -11.1498 N   0  0  0  0  0  0  0  0  0  0  0  0
   24.9912  -21.1230  -12.2484 C   0  0  1  0  0  0  0  0  0  0  0  0
   23.7358  -21.6936  -11.7717 C   0  0  0  0  0  0  0  0  0  0  0  0
   22.6427  -21.8346  -12.7574 C   0  0  0  0  0  0  0  0  0  0  0  0
   22.6937  -22.6130  -13.7401 O   0  0  0  0  0  0  0  0  0  0  0  0
   25.0974  -20.0863  -13.2381 C   0  0  0  0  0  0  0  0  0  0  0  0
   24.3462  -19.0608  -12.9815 O   0  0  0  0  0  0  0  0  0  0  0  0
   21.4837  -21.0855  -12.6250 O   0  0  0  0  0  0  0  0  0  0  0  0
   25.8516  -20.0018  -14.3915 N   0  0  0  0  0  0  0  0  0  0  0  0
   27.2744  -20.3756  -14.5747 C   0  0  0  0  0  0  0  0  0  0  0  0
   27.1144  -21.3508  -15.7722 C   0  0  0  0  0  0  0  0  0  0  0  0
   25.8178  -20.8917  -16.4580 C   0  0  0  0  0  0  0  0  0  0  0  0
   25.5970  -19.5387  -15.7463 C   0  0  1  0  0  0  0  0  0  0  0  0
   24.3552  -18.9019  -16.0216 C   0  0  0  0  0  0  0  0  0  0  0  0
   23.2906  -19.6629  -16.0401 O   0  0  0  0  0  0  0  0  0  0  0  0
   24.0799  -17.5969  -16.2815 O   0  0  0  0  0  0  0  0  0  0  0  0
  2  1  1  6
  3  2  1  0
  4  3  1  0
  5  4  2  0
  6  5  1  0
  7  6  2  0
  7  8  1  0
  8  9  2  0
  9  4  1  0
 10 11  2  0
 10  2  1  0
 12 10  1  0
 13 12  1  0
 13 14  1  1
 15 16  2  0
 15 14  1  0
 17 13  1  0
 18 17  2  0
 19 15  1  0
 20 21  1  0
 20 17  1  0
 22 21  1  0
 23 24  1  0
 23 22  1  0
 24 20  1  0
 25 27  1  0
 24 25  1  1
 26 25  2  0
M  END
$$$$
