FDP.pdb
     RDKit          3D

 27 28  0  0  1  0  0  0  0  0999 V2000
   44.7679   -8.4910   -6.4740 N   0  0  0  0  0  0  0  0  0  0  0  0
   43.3700   -8.2038   -6.5792 C   0  0  1  0  0  0  0  0  0  0  0  0
   43.1409   -6.7697   -6.1894 C   0  0  0  0  0  0  0  0  0  0  0  0
   43.9321   -5.9261   -7.1223 C   0  0  0  0  0  0  0  0  0  0  0  0
   43.4379   -5.4866   -8.3390 C   0  0  0  0  0  0  0  0  0  0  0  0
   44.1927   -4.6992   -9.1963 C   0  0  0  0  0  0  0  0  0  0  0  0
   45.4723   -4.3266   -8.8584 C   0  0  0  0  0  0  0  0  0  0  0  0
   45.9751   -4.7665   -7.6340 C   0  0  0  0  0  0  0  0  0  0  0  0
   45.2240   -5.5396   -6.8002 C   0  0  0  0  0  0  0  0  0  0  0  0
   42.8356   -8.4934   -7.9524 C   0  0  0  0  0  0  0  0  0  0  0  0
   43.6665   -8.7594   -8.8525 O   0  0  0  0  0  0  0  0  0  0  0  0
   41.4621   -8.4709   -8.2316 N   0  0  0  0  0  0  0  0  0  0  0  0
   40.8067   -8.7240   -9.5157 C   0  0  1  0  0  0  0  0  0  0  0  0
   40.2859  -10.0865   -9.5517 C   0  0  0  0  0  0  0  0  0  0  0  0
   39.9035  -10.6267  -10.8740 C   0  0  0  0  0  0  0  0  0  0  0  0
   40.6658  -11.3285  -11.5813 O   0  0  0  0  0  0  0  0  0  0  0  0
   40.1669   -7.5853  -10.1153 C   0  0  0  0  0  0  0  0  0  0  0  0
   39.1303   -7.1775   -9.4512 O   0  0  0  0  0  0  0  0  0  0  0  0
   38.6455  -10.3670  -11.3958 O   0  0  0  0  0  0  0  0  0  0  0  0
   40.4669   -6.8675  -11.2559 N   0  0  0  0  0  0  0  0  0  0  0  0
   41.7937   -6.6885  -11.8924 C   0  0  0  0  0  0  0  0  0  0  0  0
   41.4410   -7.1748  -13.3242 C   0  0  0  0  0  0  0  0  0  0  0  0
   39.9277   -6.9319  -13.4396 C   0  0  0  0  0  0  0  0  0  0  0  0
   39.6949   -6.0595  -12.1864 C   0  0  1  0  0  0  0  0  0  0  0  0
   38.3330   -5.7880  -11.8785 C   0  0  0  0  0  0  0  0  0  0  0  0
   37.9911   -4.5299  -11.7637 O   0  0  0  0  0  0  0  0  0  0  0  0
   37.2958   -6.6414  -11.6722 O   0  0  0  0  0  0  0  0  0  0  0  0
  2  1  1  6
  3  2  1  0
  4  3  1  0
  5  4  2  0
  6  5  1  0
  7  6  2  0
  7  8  1  0
  8  9  2  0
  9  4  1  0
 10 11  2  0
 10  2  1  0
 12 10  1  0
 13 12  1  0
 13 14  1  1
 15 16  2  0
 15 14  1  0
 17 13  1  0
 18 17  2  0
 19 15  1  0
 20 21  1  0
 20 17  1  0
 22 21  1  0
 23 24  1  0
 23 22  1  0
 24 20  1  0
 25 27  1  0
 24 25  1  1
 26 25  2  0
M  END
$$$$
