FDP.pdb
     RDKit          3D

 27 28  0  0  1  0  0  0  0  0999 V2000
   23.9379  -22.3911  -11.8331 N   0  0  0  0  0  0  0  0  0  0  0  0
   23.7269  -21.1451  -12.5045 C   0  0  1  0  0  0  0  0  0  0  0  0
   23.6492  -20.0499  -11.4770 C   0  0  0  0  0  0  0  0  0  0  0  0
   24.7249  -20.2993  -10.4827 C   0  0  0  0  0  0  0  0  0  0  0  0
   24.4714  -20.4883   -9.1345 C   0  0  0  0  0  0  0  0  0  0  0  0
   25.4900  -20.7200   -8.2217 C   0  0  0  0  0  0  0  0  0  0  0  0
   26.8006  -20.7694   -8.6347 C   0  0  0  0  0  0  0  0  0  0  0  0
   27.0618  -20.5797   -9.9915 C   0  0  0  0  0  0  0  0  0  0  0  0
   26.0525  -20.3528  -10.8788 C   0  0  0  0  0  0  0  0  0  0  0  0
   24.7913  -20.8668  -13.5266 C   0  0  0  0  0  0  0  0  0  0  0  0
   25.9526  -21.2673  -13.2764 O   0  0  0  0  0  0  0  0  0  0  0  0
   24.5114  -20.1863  -14.7196 N   0  0  0  0  0  0  0  0  0  0  0  0
   25.4442  -19.8482  -15.7959 C   0  0  1  0  0  0  0  0  0  0  0  0
   25.6608  -21.0087  -16.6533 C   0  0  0  0  0  0  0  0  0  0  0  0
   26.6275  -20.8561  -17.7617 C   0  0  0  0  0  0  0  0  0  0  0  0
   26.2919  -20.7974  -18.9692 O   0  0  0  0  0  0  0  0  0  0  0  0
   25.3862  -18.4879  -16.2560 C   0  0  0  0  0  0  0  0  0  0  0  0
   24.3023  -18.2212  -16.9162 O   0  0  0  0  0  0  0  0  0  0  0  0
   27.9854  -20.7698  -17.4954 O   0  0  0  0  0  0  0  0  0  0  0  0
   26.2732  -17.4395  -16.1138 N   0  0  0  0  0  0  0  0  0  0  0  0
   27.1538  -17.1466  -14.9577 C   0  0  0  0  0  0  0  0  0  0  0  0
   28.5133  -17.0717  -15.7040 C   0  0  0  0  0  0  0  0  0  0  0  0
   28.1296  -16.6930  -17.1434 C   0  0  0  0  0  0  0  0  0  0  0  0
   26.6497  -16.3016  -16.9373 C   0  0  1  0  0  0  0  0  0  0  0  0
   25.9136  -16.0560  -18.1294 C   0  0  0  0  0  0  0  0  0  0  0  0
   25.1909  -14.9654  -18.1652 O   0  0  0  0  0  0  0  0  0  0  0  0
   25.8279  -16.7879  -19.2711 O   0  0  0  0  0  0  0  0  0  0  0  0
  2  1  1  1
  3  2  1  0
  4  3  1  0
  5  4  2  0
  6  5  1  0
  7  6  2  0
  7  8  1  0
  8  9  2  0
  9  4  1  0
 10 11  2  0
 10  2  1  0
 12 10  1  0
 13 12  1  0
 13 14  1  6
 15 16  2  0
 15 14  1  0
 17 13  1  0
 18 17  2  0
 19 15  1  0
 20 21  1  0
 20 17  1  0
 22 21  1  0
 23 24  1  0
 23 22  1  0
 24 20  1  0
 25 27  1  0
 24 25  1  6
 26 25  2  0
M  END
$$$$
