FDP.pdb
     RDKit          3D

 27 28  0  0  1  0  0  0  0  0999 V2000
   27.0364  -18.1608   -8.0072 N   0  0  0  0  0  0  0  0  0  0  0  0
   27.0810  -19.5221   -8.4461 C   0  0  1  0  0  0  0  0  0  0  0  0
   26.6792  -20.4117   -7.3023 C   0  0  0  0  0  0  0  0  0  0  0  0
   27.6909  -20.2353   -6.2283 C   0  0  0  0  0  0  0  0  0  0  0  0
   28.9941  -20.6893   -6.3433 C   0  0  0  0  0  0  0  0  0  0  0  0
   29.9242  -20.5147   -5.3288 C   0  0  0  0  0  0  0  0  0  0  0  0
   29.5743  -19.8764   -4.1623 C   0  0  0  0  0  0  0  0  0  0  0  0
   28.2630  -19.4171   -4.0411 C   0  0  0  0  0  0  0  0  0  0  0  0
   27.3582  -19.5945   -5.0448 C   0  0  0  0  0  0  0  0  0  0  0  0
   26.2194  -19.7547   -9.6538 C   0  0  0  0  0  0  0  0  0  0  0  0
   25.2564  -18.9733   -9.8368 O   0  0  0  0  0  0  0  0  0  0  0  0
   26.4706  -20.8019  -10.5511 N   0  0  0  0  0  0  0  0  0  0  0  0
   25.9092  -20.9856  -11.8904 C   0  0  1  0  0  0  0  0  0  0  0  0
   26.8661  -21.6833  -12.7428 C   0  0  0  0  0  0  0  0  0  0  0  0
   26.5774  -21.7165  -14.1926 C   0  0  0  0  0  0  0  0  0  0  0  0
   25.8544  -22.5871  -14.7342 O   0  0  0  0  0  0  0  0  0  0  0  0
   24.4839  -21.1629  -11.9414 C   0  0  0  0  0  0  0  0  0  0  0  0
   24.0905  -22.2715  -11.3954 O   0  0  0  0  0  0  0  0  0  0  0  0
   27.1146  -20.7531  -15.0325 O   0  0  0  0  0  0  0  0  0  0  0  0
   23.4848  -20.3652  -12.4626 N   0  0  0  0  0  0  0  0  0  0  0  0
   23.5450  -18.9143  -12.7608 C   0  0  0  0  0  0  0  0  0  0  0  0
   23.1089  -18.9568  -14.2504 C   0  0  0  0  0  0  0  0  0  0  0  0
   22.2839  -20.2488  -14.3621 C   0  0  0  0  0  0  0  0  0  0  0  0
   22.1056  -20.5889  -12.8659 C   0  0  1  0  0  0  0  0  0  0  0  0
   21.5186  -21.8561  -12.5958 C   0  0  0  0  0  0  0  0  0  0  0  0
   20.5984  -21.8964  -11.6660 O   0  0  0  0  0  0  0  0  0  0  0  0
   21.7630  -23.0705  -13.1543 O   0  0  0  0  0  0  0  0  0  0  0  0
  2  1  1  1
  3  2  1  0
  4  3  1  0
  5  4  2  0
  6  5  1  0
  7  6  2  0
  7  8  1  0
  8  9  2  0
  9  4  1  0
 10 11  2  0
 10  2  1  0
 12 10  1  0
 13 12  1  0
 13 14  1  1
 15 16  2  0
 15 14  1  0
 17 13  1  0
 18 17  2  0
 19 15  1  0
 20 21  1  0
 20 17  1  0
 22 21  1  0
 23 24  1  0
 23 22  1  0
 24 20  1  0
 25 27  1  0
 24 25  1  6
 26 25  2  0
M  END
$$$$
