FDP.pdb
     RDKit          3D

 27 28  0  0  1  0  0  0  0  0999 V2000
   17.2510  -10.6300  -13.9114 N   0  0  0  0  0  0  0  0  0  0  0  0
   17.8746   -9.3833  -13.5880 C   0  0  1  0  0  0  0  0  0  0  0  0
   19.0313   -9.6473  -12.6641 C   0  0  0  0  0  0  0  0  0  0  0  0
   19.6345   -8.3326  -12.3239 C   0  0  0  0  0  0  0  0  0  0  0  0
   19.1887   -7.5528  -11.2699 C   0  0  0  0  0  0  0  0  0  0  0  0
   19.7654   -6.3276  -10.9683 C   0  0  0  0  0  0  0  0  0  0  0  0
   20.8119   -5.8444  -11.7179 C   0  0  0  0  0  0  0  0  0  0  0  0
   21.2649   -6.6257  -12.7807 C   0  0  0  0  0  0  0  0  0  0  0  0
   20.6903   -7.8278  -13.0673 C   0  0  0  0  0  0  0  0  0  0  0  0
   18.3094   -8.6343  -14.8147 C   0  0  0  0  0  0  0  0  0  0  0  0
   18.4982   -9.2978  -15.8614 O   0  0  0  0  0  0  0  0  0  0  0  0
   18.5009   -7.2457  -14.8045 N   0  0  0  0  0  0  0  0  0  0  0  0
   18.6958   -6.3617  -15.9548 C   0  0  1  0  0  0  0  0  0  0  0  0
   17.5939   -6.5180  -16.8984 C   0  0  0  0  0  0  0  0  0  0  0  0
   17.7893   -5.9717  -18.2585 C   0  0  0  0  0  0  0  0  0  0  0  0
   18.5837   -6.4655  -19.0947 O   0  0  0  0  0  0  0  0  0  0  0  0
   19.3630   -5.1207  -15.6713 C   0  0  0  0  0  0  0  0  0  0  0  0
   18.5850   -4.2398  -15.1231 O   0  0  0  0  0  0  0  0  0  0  0  0
   17.0765   -4.8564  -18.6707 O   0  0  0  0  0  0  0  0  0  0  0  0
   20.6675   -4.7195  -15.8799 N   0  0  0  0  0  0  0  0  0  0  0  0
   21.8399   -5.5714  -16.1918 C   0  0  0  0  0  0  0  0  0  0  0  0
   22.3171   -4.8591  -17.4863 C   0  0  0  0  0  0  0  0  0  0  0  0
   21.7854   -3.4242  -17.3415 C   0  0  0  0  0  0  0  0  0  0  0  0
   21.3583   -3.4400  -15.8572 C   0  0  1  0  0  0  0  0  0  0  0  0
   20.6423   -2.2921  -15.4179 C   0  0  0  0  0  0  0  0  0  0  0  0
   19.5539   -1.9849  -16.0766 O   0  0  0  0  0  0  0  0  0  0  0  0
   20.9086   -1.4311  -14.4009 O   0  0  0  0  0  0  0  0  0  0  0  0
  2  1  1  6
  3  2  1  0
  4  3  1  0
  5  4  2  0
  6  5  1  0
  7  6  2  0
  7  8  1  0
  8  9  2  0
  9  4  1  0
 10 11  2  0
 10  2  1  0
 12 10  1  0
 13 12  1  0
 13 14  1  1
 15 16  2  0
 15 14  1  0
 17 13  1  0
 18 17  2  0
 19 15  1  0
 20 21  1  0
 20 17  1  0
 22 21  1  0
 23 24  1  0
 23 22  1  0
 24 20  1  0
 25 27  1  0
 24 25  1  6
 26 25  2  0
M  END
$$$$
