FDP.pdb
     RDKit          3D

 27 28  0  0  1  0  0  0  0  0999 V2000
   23.7634  -18.2206  -17.0013 N   0  0  0  0  0  0  0  0  0  0  0  0
   22.8215  -18.1216  -15.9286 C   0  0  1  0  0  0  0  0  0  0  0  0
   21.4732  -17.7799  -16.4997 C   0  0  0  0  0  0  0  0  0  0  0  0
   21.5206  -16.3566  -16.9243 C   0  0  0  0  0  0  0  0  0  0  0  0
   21.3445  -15.3041  -16.0417 C   0  0  0  0  0  0  0  0  0  0  0  0
   21.3925  -13.9816  -16.4580 C   0  0  0  0  0  0  0  0  0  0  0  0
   21.6195  -13.6724  -17.7784 C   0  0  0  0  0  0  0  0  0  0  0  0
   21.7975  -14.7286  -18.6717 C   0  0  0  0  0  0  0  0  0  0  0  0
   21.7482  -16.0239  -18.2508 C   0  0  0  0  0  0  0  0  0  0  0  0
   22.7691  -19.3765  -15.1054 C   0  0  0  0  0  0  0  0  0  0  0  0
   23.6047  -20.2742  -15.3649 O   0  0  0  0  0  0  0  0  0  0  0  0
   21.8268  -19.5512  -14.0824 N   0  0  0  0  0  0  0  0  0  0  0  0
   21.7472  -20.6500  -13.1186 C   0  0  1  0  0  0  0  0  0  0  0  0
   22.9424  -20.6695  -12.2820 C   0  0  0  0  0  0  0  0  0  0  0  0
   24.1154  -21.4057  -12.8001 C   0  0  0  0  0  0  0  0  0  0  0  0
   24.1293  -21.9924  -13.9090 O   0  0  0  0  0  0  0  0  0  0  0  0
   20.4231  -20.9760  -12.6648 C   0  0  0  0  0  0  0  0  0  0  0  0
   20.1561  -20.4944  -11.4906 O   0  0  0  0  0  0  0  0  0  0  0  0
   25.2807  -21.4753  -12.0523 O   0  0  0  0  0  0  0  0  0  0  0  0
   19.4088  -21.7001  -13.2591 N   0  0  0  0  0  0  0  0  0  0  0  0
   19.3115  -22.1324  -14.6738 C   0  0  0  0  0  0  0  0  0  0  0  0
   19.1028  -23.6541  -14.4463 C   0  0  0  0  0  0  0  0  0  0  0  0
   18.4872  -23.7413  -13.0406 C   0  0  0  0  0  0  0  0  0  0  0  0
   18.1453  -22.2544  -12.7997 C   0  0  1  0  0  0  0  0  0  0  0  0
   17.7051  -21.9365  -11.4850 C   0  0  0  0  0  0  0  0  0  0  0  0
   16.4565  -22.2036  -11.1977 O   0  0  0  0  0  0  0  0  0  0  0  0
   18.3820  -21.3807  -10.4461 O   0  0  0  0  0  0  0  0  0  0  0  0
  2  1  1  6
  3  2  1  0
  4  3  1  0
  5  4  2  0
  6  5  1  0
  7  6  2  0
  7  8  1  0
  8  9  2  0
  9  4  1  0
 10 11  2  0
 10  2  1  0
 12 10  1  0
 13 12  1  0
 13 14  1  1
 15 16  2  0
 15 14  1  0
 17 13  1  0
 18 17  2  0
 19 15  1  0
 20 21  1  0
 20 17  1  0
 22 21  1  0
 23 24  1  0
 23 22  1  0
 24 20  1  0
 25 27  1  0
 24 25  1  1
 26 25  2  0
M  END
$$$$
