FDP.pdb
     RDKit          3D

 27 28  0  0  1  0  0  0  0  0999 V2000
   24.8382  -19.3772   -9.5958 N   0  0  0  0  0  0  0  0  0  0  0  0
   25.6382  -20.1233  -10.5184 C   0  0  1  0  0  0  0  0  0  0  0  0
   26.1454  -21.3592   -9.8281 C   0  0  0  0  0  0  0  0  0  0  0  0
   27.0919  -20.9183   -8.7708 C   0  0  0  0  0  0  0  0  0  0  0  0
   26.6755  -20.3233   -7.5917 C   0  0  0  0  0  0  0  0  0  0  0  0
   27.5753  -19.9185   -6.6164 C   0  0  0  0  0  0  0  0  0  0  0  0
   28.9267  -20.0988   -6.7944 C   0  0  0  0  0  0  0  0  0  0  0  0
   29.3517  -20.6976   -7.9802 C   0  0  0  0  0  0  0  0  0  0  0  0
   28.4581  -21.0911   -8.9310 C   0  0  0  0  0  0  0  0  0  0  0  0
   24.8855  -20.4626  -11.7727 C   0  0  0  0  0  0  0  0  0  0  0  0
   23.6707  -20.7500  -11.6588 O   0  0  0  0  0  0  0  0  0  0  0  0
   25.5051  -20.4620  -13.0302 N   0  0  0  0  0  0  0  0  0  0  0  0
   24.8649  -20.3526  -14.3420 C   0  0  1  0  0  0  0  0  0  0  0  0
   25.8143  -19.8325  -15.3203 C   0  0  0  0  0  0  0  0  0  0  0  0
   26.4477  -18.5310  -15.0184 C   0  0  0  0  0  0  0  0  0  0  0  0
   27.6893  -18.3662  -14.9455 O   0  0  0  0  0  0  0  0  0  0  0  0
   23.8589  -21.3405  -14.6203 C   0  0  0  0  0  0  0  0  0  0  0  0
   24.3448  -22.5349  -14.7583 O   0  0  0  0  0  0  0  0  0  0  0  0
   25.6639  -17.4089  -14.7977 O   0  0  0  0  0  0  0  0  0  0  0  0
   22.4897  -21.2318  -14.7607 N   0  0  0  0  0  0  0  0  0  0  0  0
   21.5692  -20.3395  -14.0162 C   0  0  0  0  0  0  0  0  0  0  0  0
   20.8881  -19.6369  -15.2217 C   0  0  0  0  0  0  0  0  0  0  0  0
   21.0344  -20.6442  -16.3734 C   0  0  0  0  0  0  0  0  0  0  0  0
   21.4924  -21.8926  -15.5875 C   0  0  1  0  0  0  0  0  0  0  0  0
   21.8992  -22.9981  -16.3849 C   0  0  0  0  0  0  0  0  0  0  0  0
   23.1869  -23.1898  -16.5189 O   0  0  0  0  0  0  0  0  0  0  0  0
   21.1530  -23.9145  -17.0556 O   0  0  0  0  0  0  0  0  0  0  0  0
  2  1  1  1
  3  2  1  0
  4  3  1  0
  5  4  2  0
  6  5  1  0
  7  6  2  0
  7  8  1  0
  8  9  2  0
  9  4  1  0
 10 11  2  0
 10  2  1  0
 12 10  1  0
 13 12  1  0
 13 14  1  6
 15 16  2  0
 15 14  1  0
 17 13  1  0
 18 17  2  0
 19 15  1  0
 20 21  1  0
 20 17  1  0
 22 21  1  0
 23 24  1  0
 23 22  1  0
 24 20  1  0
 25 27  1  0
 24 25  1  6
 26 25  2  0
M  END
$$$$
