FDP.pdb
     RDKit          3D

 27 28  0  0  1  0  0  0  0  0999 V2000
   28.0161  -21.6888  -11.6180 N   0  0  0  0  0  0  0  0  0  0  0  0
   26.7026  -21.1902  -11.3460 C   0  0  1  0  0  0  0  0  0  0  0  0
   26.8235  -19.8367  -10.7022 C   0  0  0  0  0  0  0  0  0  0  0  0
   27.2891  -20.0505   -9.3073 C   0  0  0  0  0  0  0  0  0  0  0  0
   28.6291  -20.0714   -8.9585 C   0  0  0  0  0  0  0  0  0  0  0  0
   29.0436  -20.2726   -7.6499 C   0  0  0  0  0  0  0  0  0  0  0  0
   28.1228  -20.4599   -6.6461 C   0  0  0  0  0  0  0  0  0  0  0  0
   26.7717  -20.4398   -6.9918 C   0  0  0  0  0  0  0  0  0  0  0  0
   26.3767  -20.2412   -8.2810 C   0  0  0  0  0  0  0  0  0  0  0  0
   25.8511  -21.1381  -12.5819 C   0  0  0  0  0  0  0  0  0  0  0  0
   26.2747  -20.4615  -13.5484 O   0  0  0  0  0  0  0  0  0  0  0  0
   24.6268  -21.8156  -12.6657 N   0  0  0  0  0  0  0  0  0  0  0  0
   23.7307  -21.9030  -13.8198 C   0  0  1  0  0  0  0  0  0  0  0  0
   23.8019  -23.2359  -14.4089 C   0  0  0  0  0  0  0  0  0  0  0  0
   25.1417  -23.7351  -14.7859 C   0  0  0  0  0  0  0  0  0  0  0  0
   25.7072  -24.6982  -14.2143 O   0  0  0  0  0  0  0  0  0  0  0  0
   22.5372  -21.1069  -13.7341 C   0  0  0  0  0  0  0  0  0  0  0  0
   21.7491  -21.4757  -12.7725 O   0  0  0  0  0  0  0  0  0  0  0  0
   25.8435  -23.1351  -15.8201 O   0  0  0  0  0  0  0  0  0  0  0  0
   22.1002  -20.0363  -14.4885 N   0  0  0  0  0  0  0  0  0  0  0  0
   22.9195  -18.9636  -15.1014 C   0  0  0  0  0  0  0  0  0  0  0  0
   22.4308  -19.0968  -16.5692 C   0  0  0  0  0  0  0  0  0  0  0  0
   21.0304  -19.7174  -16.4423 C   0  0  0  0  0  0  0  0  0  0  0  0
   20.7977  -19.5579  -14.9237 C   0  0  1  0  0  0  0  0  0  0  0  0
   19.6357  -20.2018  -14.4153 C   0  0  0  0  0  0  0  0  0  0  0  0
   18.7268  -19.4366  -13.8664 O   0  0  0  0  0  0  0  0  0  0  0  0
   19.3019  -21.5189  -14.3986 O   0  0  0  0  0  0  0  0  0  0  0  0
  2  1  1  6
  3  2  1  0
  4  3  1  0
  5  4  2  0
  6  5  1  0
  7  6  2  0
  7  8  1  0
  8  9  2  0
  9  4  1  0
 10 11  2  0
 10  2  1  0
 12 10  1  0
 13 12  1  0
 13 14  1  1
 15 16  2  0
 15 14  1  0
 17 13  1  0
 18 17  2  0
 19 15  1  0
 20 21  1  0
 20 17  1  0
 22 21  1  0
 23 24  1  0
 23 22  1  0
 24 20  1  0
 25 27  1  0
 24 25  1  1
 26 25  2  0
M  END
$$$$
