FDP.pdb
     RDKit          3D

 27 28  0  0  1  0  0  0  0  0999 V2000
   25.4880  -21.2683   -6.6970 N   0  0  0  0  0  0  0  0  0  0  0  0
   26.0694  -20.5018   -7.7563 C   0  0  1  0  0  0  0  0  0  0  0  0
   27.5660  -20.6252   -7.6765 C   0  0  0  0  0  0  0  0  0  0  0  0
   27.9872  -20.0604   -6.3683 C   0  0  0  0  0  0  0  0  0  0  0  0
   28.2993  -20.8512   -5.2752 C   0  0  0  0  0  0  0  0  0  0  0  0
   28.6907  -20.3044   -4.0617 C   0  0  0  0  0  0  0  0  0  0  0  0
   28.7817  -18.9413   -3.9064 C   0  0  0  0  0  0  0  0  0  0  0  0
   28.4685  -18.1400   -5.0041 C   0  0  0  0  0  0  0  0  0  0  0  0
   28.0851  -18.6888   -6.1912 C   0  0  0  0  0  0  0  0  0  0  0  0
   25.5534  -20.9179   -9.1037 C   0  0  0  0  0  0  0  0  0  0  0  0
   24.7399  -21.8708   -9.1428 O   0  0  0  0  0  0  0  0  0  0  0  0
   25.9575  -20.2743  -10.2816 N   0  0  0  0  0  0  0  0  0  0  0  0
   25.4063  -20.4436  -11.6270 C   0  0  1  0  0  0  0  0  0  0  0  0
   23.9585  -20.6109  -11.5573 C   0  0  0  0  0  0  0  0  0  0  0  0
   23.2377  -20.7812  -12.8370 C   0  0  0  0  0  0  0  0  0  0  0  0
   22.7360  -19.8282  -13.4805 O   0  0  0  0  0  0  0  0  0  0  0  0
   26.1013  -19.7402  -12.6700 C   0  0  0  0  0  0  0  0  0  0  0  0
   25.6538  -18.5374  -12.8563 O   0  0  0  0  0  0  0  0  0  0  0  0
   23.0862  -22.0439  -13.3890 O   0  0  0  0  0  0  0  0  0  0  0  0
   27.1452  -20.1236  -13.4882 N   0  0  0  0  0  0  0  0  0  0  0  0
   28.2602  -21.0454  -13.1647 C   0  0  0  0  0  0  0  0  0  0  0  0
   28.0982  -22.0419  -14.3443 C   0  0  0  0  0  0  0  0  0  0  0  0
   27.4020  -21.2167  -15.4383 C   0  0  0  0  0  0  0  0  0  0  0  0
   27.5508  -19.7978  -14.8462 C   0  0  1  0  0  0  0  0  0  0  0  0
   26.8450  -18.7735  -15.5360 C   0  0  0  0  0  0  0  0  0  0  0  0
   25.6199  -19.0455  -15.9077 O   0  0  0  0  0  0  0  0  0  0  0  0
   27.2422  -17.5230  -15.8894 O   0  0  0  0  0  0  0  0  0  0  0  0
  2  1  1  1
  3  2  1  0
  4  3  1  0
  5  4  2  0
  6  5  1  0
  7  6  2  0
  7  8  1  0
  8  9  2  0
  9  4  1  0
 10 11  2  0
 10  2  1  0
 12 10  1  0
 13 12  1  0
 13 14  1  1
 15 16  2  0
 15 14  1  0
 17 13  1  0
 18 17  2  0
 19 15  1  0
 20 21  1  0
 20 17  1  0
 22 21  1  0
 23 24  1  0
 23 22  1  0
 24 20  1  0
 25 27  1  0
 24 25  1  6
 26 25  2  0
M  END
$$$$
