FDP.pdb
     RDKit          3D

 27 28  0  0  1  0  0  0  0  0999 V2000
   27.2813  -32.3325   -9.6183 N   0  0  0  0  0  0  0  0  0  0  0  0
   26.5773  -33.2663   -8.7936 C   0  0  1  0  0  0  0  0  0  0  0  0
   26.0698  -34.3872   -9.6581 C   0  0  0  0  0  0  0  0  0  0  0  0
   25.1660  -33.7878  -10.6739 C   0  0  0  0  0  0  0  0  0  0  0  0
   25.5487  -33.5779  -11.9881 C   0  0  0  0  0  0  0  0  0  0  0  0
   24.6897  -33.0168  -12.9218 C   0  0  0  0  0  0  0  0  0  0  0  0
   23.4144  -32.6471  -12.5647 C   0  0  0  0  0  0  0  0  0  0  0  0
   23.0236  -32.8562  -11.2423 C   0  0  0  0  0  0  0  0  0  0  0  0
   23.8765  -33.4084  -10.3340 C   0  0  0  0  0  0  0  0  0  0  0  0
   27.4288  -33.7805   -7.6687 C   0  0  0  0  0  0  0  0  0  0  0  0
   28.5166  -33.1960   -7.4525 O   0  0  0  0  0  0  0  0  0  0  0  0
   27.0350  -34.8717   -6.8819 N   0  0  0  0  0  0  0  0  0  0  0  0
   27.1064  -34.9953   -5.4251 C   0  0  1  0  0  0  0  0  0  0  0  0
   26.8965  -33.6931   -4.8014 C   0  0  0  0  0  0  0  0  0  0  0  0
   27.2677  -33.5611   -3.3763 C   0  0  0  0  0  0  0  0  0  0  0  0
   28.4492  -33.4162   -2.9797 O   0  0  0  0  0  0  0  0  0  0  0  0
   26.6415  -36.2455   -4.8899 C   0  0  0  0  0  0  0  0  0  0  0  0
   25.4405  -36.1749   -4.4057 O   0  0  0  0  0  0  0  0  0  0  0  0
   26.2888  -33.5941   -2.3950 O   0  0  0  0  0  0  0  0  0  0  0  0
   27.2475  -37.4834   -4.8087 N   0  0  0  0  0  0  0  0  0  0  0  0
   28.4148  -37.9744   -5.5794 C   0  0  0  0  0  0  0  0  0  0  0  0
   29.3214  -38.4046   -4.3946 C   0  0  0  0  0  0  0  0  0  0  0  0
   28.3333  -38.6939   -3.2533 C   0  0  0  0  0  0  0  0  0  0  0  0
   27.0025  -38.6916   -4.0373 C   0  0  1  0  0  0  0  0  0  0  0  0
   25.8265  -38.7585   -3.2399 C   0  0  0  0  0  0  0  0  0  0  0  0
   25.0846  -37.6816   -3.1871 O   0  0  0  0  0  0  0  0  0  0  0  0
   25.3304  -39.7824   -2.4969 O   0  0  0  0  0  0  0  0  0  0  0  0
  2  1  1  6
  3  2  1  0
  4  3  1  0
  5  4  2  0
  6  5  1  0
  7  6  2  0
  7  8  1  0
  8  9  2  0
  9  4  1  0
 10 11  2  0
 10  2  1  0
 12 10  1  0
 13 12  1  0
 13 14  1  1
 15 16  2  0
 15 14  1  0
 17 13  1  0
 18 17  2  0
 19 15  1  0
 20 21  1  0
 20 17  1  0
 22 21  1  0
 23 24  1  0
 23 22  1  0
 24 20  1  0
 25 27  1  0
 24 25  1  1
 26 25  2  0
M  END
$$$$
