FDP.pdb
     RDKit          3D

 27 28  0  0  1  0  0  0  0  0999 V2000
   28.1238  -20.0318  -17.6138 N   0  0  0  0  0  0  0  0  0  0  0  0
   27.3542  -20.7419  -16.6384 C   0  0  1  0  0  0  0  0  0  0  0  0
   28.2445  -21.0823  -15.4753 C   0  0  0  0  0  0  0  0  0  0  0  0
   27.3707  -21.5752  -14.3791 C   0  0  0  0  0  0  0  0  0  0  0  0
   26.7552  -22.8153  -14.4103 C   0  0  0  0  0  0  0  0  0  0  0  0
   25.9428  -23.2574  -13.3763 C   0  0  0  0  0  0  0  0  0  0  0  0
   25.7215  -22.4659  -12.2741 C   0  0  0  0  0  0  0  0  0  0  0  0
   26.3390  -21.2158  -12.2374 C   0  0  0  0  0  0  0  0  0  0  0  0
   27.1350  -20.7924  -13.2594 C   0  0  0  0  0  0  0  0  0  0  0  0
   26.1458  -19.9664  -16.1987 C   0  0  0  0  0  0  0  0  0  0  0  0
   26.3127  -18.7649  -15.8826 O   0  0  0  0  0  0  0  0  0  0  0  0
   24.8732  -20.5510  -16.1391 N   0  0  0  0  0  0  0  0  0  0  0  0
   23.6147  -19.9146  -15.7470 C   0  0  1  0  0  0  0  0  0  0  0  0
   23.2673  -18.8643  -16.6983 C   0  0  0  0  0  0  0  0  0  0  0  0
   22.0739  -18.0465  -16.3927 C   0  0  0  0  0  0  0  0  0  0  0  0
   22.0437  -17.1779  -15.4879 O   0  0  0  0  0  0  0  0  0  0  0  0
   22.6672  -20.7753  -15.0934 C   0  0  0  0  0  0  0  0  0  0  0  0
   22.0618  -21.5782  -15.9123 O   0  0  0  0  0  0  0  0  0  0  0  0
   20.9066  -18.2175  -17.1209 O   0  0  0  0  0  0  0  0  0  0  0  0
   22.3031  -20.8880  -13.7664 N   0  0  0  0  0  0  0  0  0  0  0  0
   23.1329  -20.6055  -12.5708 C   0  0  0  0  0  0  0  0  0  0  0  0
   22.1902  -19.5998  -11.8561 C   0  0  0  0  0  0  0  0  0  0  0  0
   20.7915  -19.9596  -12.3819 C   0  0  0  0  0  0  0  0  0  0  0  0
   21.0973  -21.3080  -13.0705 C   0  0  1  0  0  0  0  0  0  0  0  0
   20.0307  -21.8562  -13.8355 C   0  0  0  0  0  0  0  0  0  0  0  0
   19.9713  -21.5160  -15.0979 O   0  0  0  0  0  0  0  0  0  0  0  0
   19.0291  -22.6960  -13.4639 O   0  0  0  0  0  0  0  0  0  0  0  0
  2  1  1  6
  3  2  1  0
  4  3  1  0
  5  4  2  0
  6  5  1  0
  7  6  2  0
  7  8  1  0
  8  9  2  0
  9  4  1  0
 10 11  2  0
 10  2  1  0
 12 10  1  0
 13 12  1  0
 13 14  1  6
 15 16  2  0
 15 14  1  0
 17 13  1  0
 18 17  2  0
 19 15  1  0
 20 21  1  0
 20 17  1  0
 22 21  1  0
 23 24  1  0
 23 22  1  0
 24 20  1  0
 25 27  1  0
 24 25  1  6
 26 25  2  0
M  END
$$$$
