FDP.pdb
     RDKit          3D

 27 28  0  0  1  0  0  0  0  0999 V2000
   25.8037  -11.2253  -18.4703 N   0  0  0  0  0  0  0  0  0  0  0  0
   25.1375  -11.0516  -17.2158 C   0  0  1  0  0  0  0  0  0  0  0  0
   26.1696  -10.7990  -16.1518 C   0  0  0  0  0  0  0  0  0  0  0  0
   26.9954  -12.0290  -16.0358 C   0  0  0  0  0  0  0  0  0  0  0  0
   26.5664  -13.1598  -15.3613 C   0  0  0  0  0  0  0  0  0  0  0  0
   27.3525  -14.2987  -15.2643 C   0  0  0  0  0  0  0  0  0  0  0  0
   28.5990  -14.3390  -15.8433 C   0  0  0  0  0  0  0  0  0  0  0  0
   29.0361  -13.2027  -16.5239 C   0  0  0  0  0  0  0  0  0  0  0  0
   28.2547  -12.0897  -16.6125 C   0  0  0  0  0  0  0  0  0  0  0  0
   24.1171   -9.9510  -17.2658 C   0  0  0  0  0  0  0  0  0  0  0  0
   24.1704   -9.1560  -18.2335 O   0  0  0  0  0  0  0  0  0  0  0  0
   23.1364   -9.8061  -16.2748 N   0  0  0  0  0  0  0  0  0  0  0  0
   22.0462   -8.8303  -16.2321 C   0  0  1  0  0  0  0  0  0  0  0  0
   20.7589   -9.5159  -16.2757 C   0  0  0  0  0  0  0  0  0  0  0  0
   19.5475   -8.6707  -16.3405 C   0  0  0  0  0  0  0  0  0  0  0  0
   19.0487   -8.2579  -17.4152 O   0  0  0  0  0  0  0  0  0  0  0  0
   22.3156   -7.6390  -15.4747 C   0  0  0  0  0  0  0  0  0  0  0  0
   22.1297   -7.7946  -14.2007 O   0  0  0  0  0  0  0  0  0  0  0  0
   18.8985   -8.2921  -15.1754 O   0  0  0  0  0  0  0  0  0  0  0  0
   22.7321   -6.3832  -15.8695 N   0  0  0  0  0  0  0  0  0  0  0  0
   23.4892   -6.0210  -17.0914 C   0  0  0  0  0  0  0  0  0  0  0  0
   22.5276   -4.9422  -17.6591 C   0  0  0  0  0  0  0  0  0  0  0  0
   21.7768   -4.4224  -16.4228 C   0  0  0  0  0  0  0  0  0  0  0  0
   22.6331   -5.0487  -15.3001 C   0  0  1  0  0  0  0  0  0  0  0  0
   22.1077   -4.9112  -13.9855 C   0  0  0  0  0  0  0  0  0  0  0  0
   21.0196   -5.5839  -13.7091 O   0  0  0  0  0  0  0  0  0  0  0  0
   22.5563   -4.1724  -12.9369 O   0  0  0  0  0  0  0  0  0  0  0  0
  2  1  1  6
  3  2  1  0
  4  3  1  0
  5  4  2  0
  6  5  1  0
  7  6  2  0
  7  8  1  0
  8  9  2  0
  9  4  1  0
 10 11  2  0
 10  2  1  0
 12 10  1  0
 13 12  1  0
 13 14  1  1
 15 16  2  0
 15 14  1  0
 17 13  1  0
 18 17  2  0
 19 15  1  0
 20 21  1  0
 20 17  1  0
 22 21  1  0
 23 24  1  0
 23 22  1  0
 24 20  1  0
 25 27  1  0
 24 25  1  1
 26 25  2  0
M  END
$$$$
