FDP.pdb
     RDKit          3D

 27 28  0  0  1  0  0  0  0  0999 V2000
   15.9888  -15.3545    5.8185 N   0  0  0  0  0  0  0  0  0  0  0  0
   16.9439  -16.2206    5.1978 C   0  0  1  0  0  0  0  0  0  0  0  0
   18.3215  -15.8264    5.6539 C   0  0  0  0  0  0  0  0  0  0  0  0
   18.6454  -14.5268    5.0103 C   0  0  0  0  0  0  0  0  0  0  0  0
   18.8552  -13.3637    5.7321 C   0  0  0  0  0  0  0  0  0  0  0  0
   19.1568  -12.1598    5.1123 C   0  0  0  0  0  0  0  0  0  0  0  0
   19.2576  -12.0847    3.7431 C   0  0  0  0  0  0  0  0  0  0  0  0
   19.0472  -13.2531    3.0110 C   0  0  0  0  0  0  0  0  0  0  0  0
   18.7516  -14.4300    3.6313 C   0  0  0  0  0  0  0  0  0  0  0  0
   16.6627  -17.6680    5.4824 C   0  0  0  0  0  0  0  0  0  0  0  0
   16.0267  -17.9392    6.5280 O   0  0  0  0  0  0  0  0  0  0  0  0
   17.0891  -18.6878    4.6204 N   0  0  0  0  0  0  0  0  0  0  0  0
   16.8753  -20.1286    4.7656 C   0  0  1  0  0  0  0  0  0  0  0  0
   16.7188  -20.7461    3.4530 C   0  0  0  0  0  0  0  0  0  0  0  0
   16.1603  -19.9031    2.3742 C   0  0  0  0  0  0  0  0  0  0  0  0
   14.9887  -19.4543    2.3833 O   0  0  0  0  0  0  0  0  0  0  0  0
   17.5373  -20.7393    5.8856 C   0  0  0  0  0  0  0  0  0  0  0  0
   18.8281  -20.6242    5.8366 O   0  0  0  0  0  0  0  0  0  0  0  0
   16.9393  -19.5678    1.2775 O   0  0  0  0  0  0  0  0  0  0  0  0
   17.0380  -21.4127    6.9826 N   0  0  0  0  0  0  0  0  0  0  0  0
   15.8230  -21.0911    7.7688 C   0  0  0  0  0  0  0  0  0  0  0  0
   15.1042  -22.4640    7.6729 C   0  0  0  0  0  0  0  0  0  0  0  0
   16.2446  -23.4680    7.4408 C   0  0  0  0  0  0  0  0  0  0  0  0
   17.4642  -22.5720    7.7501 C   0  0  1  0  0  0  0  0  0  0  0  0
   18.7318  -23.1478    7.4586 C   0  0  0  0  0  0  0  0  0  0  0  0
   18.9760  -23.4394    6.2063 O   0  0  0  0  0  0  0  0  0  0  0  0
   19.7622  -23.4603    8.2875 O   0  0  0  0  0  0  0  0  0  0  0  0
  2  1  1  1
  3  2  1  0
  4  3  1  0
  5  4  2  0
  6  5  1  0
  7  6  2  0
  7  8  1  0
  8  9  2  0
  9  4  1  0
 10 11  2  0
 10  2  1  0
 12 10  1  0
 13 12  1  0
 13 14  1  6
 15 16  2  0
 15 14  1  0
 17 13  1  0
 18 17  2  0
 19 15  1  0
 20 21  1  0
 20 17  1  0
 22 21  1  0
 23 24  1  0
 23 22  1  0
 24 20  1  0
 25 27  1  0
 24 25  1  6
 26 25  2  0
M  END
$$$$
