MPQ.pdb
     RDKit          3D

 25 25  0  0  1  0  0  0  0  0999 V2000
    6.3399  -12.2100   26.6861 C   0  0  0  0  0  0  0  0  0  0  0  0
    7.7196  -13.2379   27.1938 S   0  0  0  0  0  0  0  0  0  0  0  0
    7.6368  -14.9074   26.5043 C   0  0  0  0  0  0  0  0  0  0  0  0
    6.4558  -15.0594   25.5690 C   0  0  0  0  0  0  0  0  0  0  0  0
    6.4408  -16.4477   24.9439 C   0  0  2  0  0  0  0  0  0  0  0  0
    6.6100  -17.4094   25.9637 N   0  0  0  0  0  0  0  0  0  0  0  0
    7.3112  -16.5360   23.7708 C   0  0  0  0  0  0  0  0  0  0  0  0
    7.6569  -17.7485   23.5137 O   0  0  0  0  0  0  0  0  0  0  0  0
    7.7713  -15.4738   22.9541 N   0  0  0  0  0  0  0  0  0  0  0  0
    7.6061  -14.0515   23.0056 C   0  0  0  0  0  0  0  0  0  0  0  0
    7.0753  -13.7781   21.6100 C   0  0  0  0  0  0  0  0  0  0  0  0
    7.9587  -14.7061   20.8022 C   0  0  0  0  0  0  0  0  0  0  0  0
    8.5939  -15.6723   21.7799 C   0  0  1  0  0  0  0  0  0  0  0  0
   10.0226  -15.3662   22.0485 C   0  0  0  0  0  0  0  0  0  0  0  0
   10.4439  -14.1928   21.9282 O   0  0  0  0  0  0  0  0  0  0  0  0
    9.7771  -18.5887   27.0656 N   0  0  0  0  0  0  0  0  0  0  0  0
   10.8709  -17.8028   26.5501 C   0  0  0  0  0  0  0  0  0  0  0  0
   11.5691  -17.2211   27.3934 O   0  0  0  0  0  0  0  0  0  0  0  0
   11.1455  -17.6960   25.0951 C   0  0  0  0  0  0  0  0  0  0  0  0
   11.6112  -16.3056   24.8035 C   0  0  0  0  0  0  0  0  0  0  0  0
   12.0455  -16.1233   23.3670 C   0  0  2  0  0  0  0  0  0  0  0  0
   10.9536  -16.3601   22.4437 N   0  0  0  0  0  0  0  0  0  0  0  0
   13.2230  -16.9158   22.9985 C   0  0  0  0  0  0  0  0  0  0  0  0
   14.4381  -16.6513   23.5942 O   0  0  0  0  0  0  0  0  0  0  0  0
   13.1587  -17.8340   22.1515 O   0  0  0  0  0  0  0  0  0  0  0  0
  2  1  1  0
  3  2  1  0
  4  3  1  0
  4  5  1  0
  5  7  1  0
  5  6  1  1
  7  8  2  0
  9 13  1  0
  9  7  1  0
 10  9  1  0
 11 10  1  0
 11 12  1  0
 12 13  1  0
 14 15  2  0
 13 14  1  1
 16 17  1  0
 17 18  2  0
 19 17  1  0
 19 20  1  0
 21 20  1  1
 21 22  1  0
 21 23  1  0
 22 14  1  0
 23 25  2  0
 23 24  1  0
M  END
$$$$
