MPQ.pdb
     RDKit          3D

 25 25  0  0  1  0  0  0  0  0999 V2000
    6.7312  -11.2802   26.3114 C   0  0  0  0  0  0  0  0  0  0  0  0
    6.4590  -12.5948   27.5012 S   0  0  0  0  0  0  0  0  0  0  0  0
    5.9763  -14.1531   26.7212 C   0  0  0  0  0  0  0  0  0  0  0  0
    6.9154  -14.5174   25.5906 C   0  0  0  0  0  0  0  0  0  0  0  0
    6.4999  -15.8353   24.9509 C   0  0  2  0  0  0  0  0  0  0  0  0
    6.3944  -16.8186   25.9586 N   0  0  0  0  0  0  0  0  0  0  0  0
    7.3006  -16.1530   23.7679 C   0  0  0  0  0  0  0  0  0  0  0  0
    7.5125  -17.4167   23.6510 O   0  0  0  0  0  0  0  0  0  0  0  0
    7.8238  -15.2496   22.8103 N   0  0  0  0  0  0  0  0  0  0  0  0
    7.8291  -13.8205   22.7071 C   0  0  0  0  0  0  0  0  0  0  0  0
    7.2389  -13.6352   21.3209 C   0  0  0  0  0  0  0  0  0  0  0  0
    7.9505  -14.7465   20.5774 C   0  0  0  0  0  0  0  0  0  0  0  0
    8.5348  -15.6730   21.6229 C   0  0  1  0  0  0  0  0  0  0  0  0
   10.0045  -15.5184   21.7748 C   0  0  0  0  0  0  0  0  0  0  0  0
   10.5083  -14.3741   21.8507 O   0  0  0  0  0  0  0  0  0  0  0  0
   12.4188  -17.9097   26.6036 N   0  0  0  0  0  0  0  0  0  0  0  0
   11.0498  -17.9517   26.1521 C   0  0  0  0  0  0  0  0  0  0  0  0
   10.1963  -18.1844   27.0206 O   0  0  0  0  0  0  0  0  0  0  0  0
   10.6832  -17.7297   24.7308 C   0  0  0  0  0  0  0  0  0  0  0  0
   11.4576  -16.5567   24.2214 C   0  0  0  0  0  0  0  0  0  0  0  0
   11.9563  -16.7542   22.8080 C   0  0  2  0  0  0  0  0  0  0  0  0
   10.8849  -16.6281   21.8401 N   0  0  0  0  0  0  0  0  0  0  0  0
   12.6958  -18.0047   22.6095 C   0  0  0  0  0  0  0  0  0  0  0  0
   12.1652  -18.9921   21.8065 O   0  0  0  0  0  0  0  0  0  0  0  0
   13.8050  -18.2058   23.1518 O   0  0  0  0  0  0  0  0  0  0  0  0
  2  1  1  0
  3  2  1  0
  4  3  1  0
  4  5  1  0
  5  7  1  0
  5  6  1  1
  7  8  2  0
  9 13  1  0
  9  7  1  0
 10  9  1  0
 11 10  1  0
 11 12  1  0
 12 13  1  0
 14 15  2  0
 13 14  1  1
 16 17  1  0
 17 18  2  0
 19 17  1  0
 19 20  1  0
 21 20  1  1
 21 22  1  0
 21 23  1  0
 22 14  1  0
 23 25  2  0
 23 24  1  0
M  END
$$$$
