MPQ.pdb
     RDKit          3D

 25 25  0  0  1  0  0  0  0  0999 V2000
    5.5734  -11.7847   26.5440 C   0  0  0  0  0  0  0  0  0  0  0  0
    7.2047  -12.4917   26.7823 S   0  0  0  0  0  0  0  0  0  0  0  0
    7.2358  -14.2800   26.5165 C   0  0  0  0  0  0  0  0  0  0  0  0
    6.3210  -14.6841   25.3795 C   0  0  0  0  0  0  0  0  0  0  0  0
    6.4614  -16.1702   25.0794 C   0  0  2  0  0  0  0  0  0  0  0  0
    6.6206  -16.8686   26.2961 N   0  0  0  0  0  0  0  0  0  0  0  0
    7.4273  -16.4304   24.0113 C   0  0  0  0  0  0  0  0  0  0  0  0
    7.8803  -17.6341   24.0499 O   0  0  0  0  0  0  0  0  0  0  0  0
    7.8724  -15.5316   23.0109 N   0  0  0  0  0  0  0  0  0  0  0  0
    7.5964  -14.1531   22.7345 C   0  0  0  0  0  0  0  0  0  0  0  0
    7.1650  -14.2371   21.2815 C   0  0  0  0  0  0  0  0  0  0  0  0
    8.1804  -15.2321   20.7590 C   0  0  0  0  0  0  0  0  0  0  0  0
    8.8029  -15.9020   21.9660 C   0  0  1  0  0  0  0  0  0  0  0  0
   10.1769  -15.4150   22.2522 C   0  0  0  0  0  0  0  0  0  0  0  0
   10.3502  -14.2547   22.6910 O   0  0  0  0  0  0  0  0  0  0  0  0
   10.1950  -18.6659   26.1932 N   0  0  0  0  0  0  0  0  0  0  0  0
   11.6358  -18.6336   26.2474 C   0  0  0  0  0  0  0  0  0  0  0  0
   12.1593  -19.2375   27.1952 O   0  0  0  0  0  0  0  0  0  0  0  0
   12.4454  -17.9194   25.2285 C   0  0  0  0  0  0  0  0  0  0  0  0
   11.5141  -17.2825   24.2475 C   0  0  0  0  0  0  0  0  0  0  0  0
   12.2394  -16.6070   23.1060 C   0  0  2  0  0  0  0  0  0  0  0  0
   11.3279  -16.2178   22.0485 N   0  0  0  0  0  0  0  0  0  0  0  0
   13.3590  -17.3878   22.5702 C   0  0  0  0  0  0  0  0  0  0  0  0
   14.5664  -17.3964   23.2361 O   0  0  0  0  0  0  0  0  0  0  0  0
   13.2518  -18.0533   21.5164 O   0  0  0  0  0  0  0  0  0  0  0  0
  2  1  1  0
  3  2  1  0
  4  3  1  0
  4  5  1  0
  5  7  1  0
  5  6  1  1
  7  8  2  0
  9 13  1  0
  9  7  1  0
 10  9  1  0
 11 10  1  0
 11 12  1  0
 12 13  1  0
 14 15  2  0
 13 14  1  1
 16 17  1  0
 17 18  2  0
 19 17  1  0
 19 20  1  0
 21 20  1  1
 21 22  1  0
 21 23  1  0
 22 14  1  0
 23 25  2  0
 23 24  1  0
M  END
$$$$
