MPQ.pdb
     RDKit          3D

 25 25  0  0  1  0  0  0  0  0999 V2000
    5.9956  -11.8210   26.6936 C   0  0  0  0  0  0  0  0  0  0  0  0
    7.1250  -12.9899   27.4525 S   0  0  0  0  0  0  0  0  0  0  0  0
    6.8804  -14.6811   26.8613 C   0  0  0  0  0  0  0  0  0  0  0  0
    6.5916  -14.7090   25.3752 C   0  0  0  0  0  0  0  0  0  0  0  0
    6.4856  -16.1434   24.8755 C   0  0  2  0  0  0  0  0  0  0  0  0
    6.5556  -17.0184   25.9813 N   0  0  0  0  0  0  0  0  0  0  0  0
    7.3751  -16.4020   23.7426 C   0  0  0  0  0  0  0  0  0  0  0  0
    7.7493  -17.6320   23.6909 O   0  0  0  0  0  0  0  0  0  0  0  0
    7.8256  -15.4770   22.7688 N   0  0  0  0  0  0  0  0  0  0  0  0
    7.6141  -14.0733   22.5741 C   0  0  0  0  0  0  0  0  0  0  0  0
    7.1168  -14.0588   21.1400 C   0  0  0  0  0  0  0  0  0  0  0  0
    8.0527  -15.0773   20.5229 C   0  0  0  0  0  0  0  0  0  0  0  0
    8.6886  -15.8410   21.6654 C   0  0  1  0  0  0  0  0  0  0  0  0
   10.0983  -15.4426   21.9124 C   0  0  0  0  0  0  0  0  0  0  0  0
   10.3635  -14.2724   22.2720 O   0  0  0  0  0  0  0  0  0  0  0  0
    9.9700  -17.9486   26.2946 N   0  0  0  0  0  0  0  0  0  0  0  0
   11.4089  -17.8850   26.3675 C   0  0  0  0  0  0  0  0  0  0  0  0
   11.9104  -18.1381   27.4726 O   0  0  0  0  0  0  0  0  0  0  0  0
   12.2415  -17.5369   25.1888 C   0  0  0  0  0  0  0  0  0  0  0  0
   11.3352  -17.0974   24.0841 C   0  0  0  0  0  0  0  0  0  0  0  0
   12.0859  -16.7122   22.8297 C   0  0  2  0  0  0  0  0  0  0  0  0
   11.1830  -16.3428   21.7578 N   0  0  0  0  0  0  0  0  0  0  0  0
   13.0461  -17.7247   22.3790 C   0  0  0  0  0  0  0  0  0  0  0  0
   12.7525  -18.5028   21.2792 O   0  0  0  0  0  0  0  0  0  0  0  0
   14.1348  -17.9065   22.9677 O   0  0  0  0  0  0  0  0  0  0  0  0
  2  1  1  0
  3  2  1  0
  4  3  1  0
  4  5  1  0
  5  7  1  0
  5  6  1  1
  7  8  2  0
  9 13  1  0
  9  7  1  0
 10  9  1  0
 11 10  1  0
 11 12  1  0
 12 13  1  0
 14 15  2  0
 13 14  1  1
 16 17  1  0
 17 18  2  0
 19 17  1  0
 19 20  1  0
 21 20  1  1
 21 22  1  0
 21 23  1  0
 22 14  1  0
 23 25  2  0
 23 24  1  0
M  END
$$$$
