MPQ.pdb
     RDKit          3D

 25 25  0  0  1  0  0  0  0  0999 V2000
    8.1856  -12.7151   27.8167 C   0  0  0  0  0  0  0  0  0  0  0  0
    6.9751  -12.4312   26.5237 S   0  0  0  0  0  0  0  0  0  0  0  0
    6.8710  -13.8041   25.3515 C   0  0  0  0  0  0  0  0  0  0  0  0
    6.6343  -15.1195   26.0632 C   0  0  0  0  0  0  0  0  0  0  0  0
    6.3307  -16.2251   25.0613 C   0  0  2  0  0  0  0  0  0  0  0  0
    5.9300  -17.3816   25.7652 N   0  0  0  0  0  0  0  0  0  0  0  0
    7.3862  -16.3680   24.0578 C   0  0  0  0  0  0  0  0  0  0  0  0
    8.0167  -17.4837   24.1727 O   0  0  0  0  0  0  0  0  0  0  0  0
    7.7450  -15.4461   23.0437 N   0  0  0  0  0  0  0  0  0  0  0  0
    7.3057  -14.1216   22.7190 C   0  0  0  0  0  0  0  0  0  0  0  0
    6.9339  -14.2975   21.2578 C   0  0  0  0  0  0  0  0  0  0  0  0
    8.0829  -15.1684   20.7934 C   0  0  0  0  0  0  0  0  0  0  0  0
    8.7471  -15.7220   22.0365 C   0  0  1  0  0  0  0  0  0  0  0  0
   10.0388  -15.0567   22.3459 C   0  0  0  0  0  0  0  0  0  0  0  0
   10.0466  -13.9101   22.8500 O   0  0  0  0  0  0  0  0  0  0  0  0
   10.6368  -18.8288   25.9085 N   0  0  0  0  0  0  0  0  0  0  0  0
   11.8780  -18.1673   26.2279 C   0  0  0  0  0  0  0  0  0  0  0  0
   12.3151  -18.3520   27.3732 O   0  0  0  0  0  0  0  0  0  0  0  0
   12.5909  -17.3150   25.2435 C   0  0  0  0  0  0  0  0  0  0  0  0
   11.6133  -16.8823   24.1985 C   0  0  0  0  0  0  0  0  0  0  0  0
   12.2440  -16.0205   23.1284 C   0  0  2  0  0  0  0  0  0  0  0  0
   11.2919  -15.6705   22.0932 N   0  0  0  0  0  0  0  0  0  0  0  0
   13.4617  -16.5941   22.5467 C   0  0  0  0  0  0  0  0  0  0  0  0
   14.6963  -16.1580   22.9790 O   0  0  0  0  0  0  0  0  0  0  0  0
   13.4148  -17.4760   21.6608 O   0  0  0  0  0  0  0  0  0  0  0  0
  2  1  1  0
  3  2  1  0
  4  3  1  0
  4  5  1  0
  5  7  1  0
  5  6  1  1
  7  8  2  0
  9 13  1  0
  9  7  1  0
 10  9  1  0
 11 10  1  0
 11 12  1  0
 12 13  1  0
 14 15  2  0
 13 14  1  1
 16 17  1  0
 17 18  2  0
 19 17  1  0
 19 20  1  0
 21 20  1  1
 21 22  1  0
 21 23  1  0
 22 14  1  0
 23 25  2  0
 23 24  1  0
M  END
$$$$
