MPQ.pdb
     RDKit          3D

 25 25  0  0  1  0  0  0  0  0999 V2000
    5.6941  -11.8631   25.9457 C   0  0  0  0  0  0  0  0  0  0  0  0
    7.0450  -12.6680   26.8089 S   0  0  0  0  0  0  0  0  0  0  0  0
    7.1433  -14.4384   26.4544 C   0  0  0  0  0  0  0  0  0  0  0  0
    6.1602  -14.8396   25.3750 C   0  0  0  0  0  0  0  0  0  0  0  0
    6.3344  -16.3071   25.0083 C   0  0  2  0  0  0  0  0  0  0  0  0
    6.5184  -17.0547   26.1919 N   0  0  0  0  0  0  0  0  0  0  0  0
    7.2993  -16.4961   23.9244 C   0  0  0  0  0  0  0  0  0  0  0  0
    7.7972  -17.6825   23.9198 O   0  0  0  0  0  0  0  0  0  0  0  0
    7.7014  -15.5491   22.9505 N   0  0  0  0  0  0  0  0  0  0  0  0
    7.4304  -14.1545   22.7646 C   0  0  0  0  0  0  0  0  0  0  0  0
    6.9184  -14.1544   21.3355 C   0  0  0  0  0  0  0  0  0  0  0  0
    7.8891  -15.1308   20.7044 C   0  0  0  0  0  0  0  0  0  0  0  0
    8.5675  -15.8725   21.8369 C   0  0  1  0  0  0  0  0  0  0  0  0
    9.9620  -15.4173   22.0718 C   0  0  0  0  0  0  0  0  0  0  0  0
   10.1814  -14.2430   22.4485 O   0  0  0  0  0  0  0  0  0  0  0  0
   11.6607  -19.7881   26.7198 N   0  0  0  0  0  0  0  0  0  0  0  0
   11.3744  -18.4695   26.2104 C   0  0  0  0  0  0  0  0  0  0  0  0
   10.4079  -17.8856   26.7219 O   0  0  0  0  0  0  0  0  0  0  0  0
   12.1889  -17.8473   25.1365 C   0  0  0  0  0  0  0  0  0  0  0  0
   11.2620  -17.2785   24.1107 C   0  0  0  0  0  0  0  0  0  0  0  0
   11.9929  -16.6468   22.9480 C   0  0  2  0  0  0  0  0  0  0  0  0
   11.0824  -16.2666   21.8864 N   0  0  0  0  0  0  0  0  0  0  0  0
   13.0934  -17.4630   22.4256 C   0  0  0  0  0  0  0  0  0  0  0  0
   14.3529  -17.3429   22.9739 O   0  0  0  0  0  0  0  0  0  0  0  0
   12.9234  -18.2733   21.4879 O   0  0  0  0  0  0  0  0  0  0  0  0
  2  1  1  0
  3  2  1  0
  4  3  1  0
  4  5  1  0
  5  7  1  0
  5  6  1  1
  7  8  2  0
  9 13  1  0
  9  7  1  0
 10  9  1  0
 11 10  1  0
 11 12  1  0
 12 13  1  0
 14 15  2  0
 13 14  1  1
 16 17  1  0
 17 18  2  0
 19 17  1  0
 19 20  1  0
 21 20  1  1
 21 22  1  0
 21 23  1  0
 22 14  1  0
 23 25  2  0
 23 24  1  0
M  END
$$$$
