MPQ.pdb
     RDKit          3D

 25 25  0  0  1  0  0  0  0  0999 V2000
    5.5752  -12.0764   26.6611 C   0  0  0  0  0  0  0  0  0  0  0  0
    7.1800  -12.8370   26.9142 S   0  0  0  0  0  0  0  0  0  0  0  0
    7.1820  -14.6048   26.5340 C   0  0  0  0  0  0  0  0  0  0  0  0
    6.0994  -14.9549   25.5350 C   0  0  0  0  0  0  0  0  0  0  0  0
    6.2420  -16.3985   25.0722 C   0  0  2  0  0  0  0  0  0  0  0  0
    6.2667  -17.2407   26.2051 N   0  0  0  0  0  0  0  0  0  0  0  0
    7.3044  -16.5589   24.0788 C   0  0  0  0  0  0  0  0  0  0  0  0
    7.7136  -17.7762   23.9987 O   0  0  0  0  0  0  0  0  0  0  0  0
    7.8781  -15.5572   23.2575 N   0  0  0  0  0  0  0  0  0  0  0  0
    7.7132  -14.1361   23.1799 C   0  0  0  0  0  0  0  0  0  0  0  0
    7.3830  -13.9700   21.7076 C   0  0  0  0  0  0  0  0  0  0  0  0
    8.3663  -14.9498   21.1016 C   0  0  0  0  0  0  0  0  0  0  0  0
    8.8552  -15.8370   22.2271 C   0  0  1  0  0  0  0  0  0  0  0  0
   10.2339  -15.5030   22.6683 C   0  0  0  0  0  0  0  0  0  0  0  0
   10.4501  -14.4388   23.2925 O   0  0  0  0  0  0  0  0  0  0  0  0
   11.1689  -19.8805   25.1557 N   0  0  0  0  0  0  0  0  0  0  0  0
   11.1822  -18.6821   25.9580 C   0  0  0  0  0  0  0  0  0  0  0  0
   10.6454  -18.7661   27.0722 O   0  0  0  0  0  0  0  0  0  0  0  0
   11.8023  -17.4214   25.4783 C   0  0  0  0  0  0  0  0  0  0  0  0
   12.4380  -17.6835   24.1508 C   0  0  0  0  0  0  0  0  0  0  0  0
   12.4998  -16.4505   23.2782 C   0  0  2  0  0  0  0  0  0  0  0  0
   11.3423  -16.3495   22.4118 N   0  0  0  0  0  0  0  0  0  0  0  0
   13.7416  -16.3312   22.5077 C   0  0  0  0  0  0  0  0  0  0  0  0
   14.9308  -16.0878   23.1619 O   0  0  0  0  0  0  0  0  0  0  0  0
   13.7559  -16.4444   21.2620 O   0  0  0  0  0  0  0  0  0  0  0  0
  2  1  1  0
  3  2  1  0
  4  3  1  0
  4  5  1  0
  5  7  1  0
  5  6  1  1
  7  8  2  0
  9 13  1  0
  9  7  1  0
 10  9  1  0
 11 10  1  0
 11 12  1  0
 12 13  1  0
 14 15  2  0
 13 14  1  1
 16 17  1  0
 17 18  2  0
 19 17  1  0
 19 20  1  0
 21 20  1  6
 21 22  1  0
 21 23  1  0
 22 14  1  0
 23 25  2  0
 23 24  1  0
M  END
$$$$
