MPQ.pdb
     RDKit          3D

 25 25  0  0  1  0  0  0  0  0999 V2000
    6.1010  -12.0239   26.5663 C   0  0  0  0  0  0  0  0  0  0  0  0
    7.5765  -12.9615   26.9682 S   0  0  0  0  0  0  0  0  0  0  0  0
    7.5021  -14.6680   26.3748 C   0  0  0  0  0  0  0  0  0  0  0  0
    6.3140  -14.8824   25.4611 C   0  0  0  0  0  0  0  0  0  0  0  0
    6.3371  -16.2855   24.8702 C   0  0  2  0  0  0  0  0  0  0  0  0
    6.2933  -17.2250   25.9232 N   0  0  0  0  0  0  0  0  0  0  0  0
    7.3820  -16.4427   23.8578 C   0  0  0  0  0  0  0  0  0  0  0  0
    7.9001  -17.6203   23.8746 O   0  0  0  0  0  0  0  0  0  0  0  0
    7.8373  -15.4754   22.9284 N   0  0  0  0  0  0  0  0  0  0  0  0
    7.6065  -14.0690   22.7805 C   0  0  0  0  0  0  0  0  0  0  0  0
    7.1392  -14.0096   21.3375 C   0  0  0  0  0  0  0  0  0  0  0  0
    8.1047  -14.9897   20.7040 C   0  0  0  0  0  0  0  0  0  0  0  0
    8.7292  -15.7847   21.8313 C   0  0  1  0  0  0  0  0  0  0  0  0
   10.1265  -15.3732   22.1230 C   0  0  0  0  0  0  0  0  0  0  0  0
   10.3926  -14.1672   22.3316 O   0  0  0  0  0  0  0  0  0  0  0  0
   10.8779  -18.5771   27.6094 N   0  0  0  0  0  0  0  0  0  0  0  0
   11.0829  -17.3201   26.9328 C   0  0  0  0  0  0  0  0  0  0  0  0
   10.4595  -16.3491   27.3861 O   0  0  0  0  0  0  0  0  0  0  0  0
   11.9872  -17.1953   25.7621 C   0  0  0  0  0  0  0  0  0  0  0  0
   11.1798  -16.7419   24.5884 C   0  0  0  0  0  0  0  0  0  0  0  0
   12.0203  -16.5163   23.3523 C   0  0  2  0  0  0  0  0  0  0  0  0
   11.1982  -16.3003   22.1783 N   0  0  0  0  0  0  0  0  0  0  0  0
   13.0121  -17.5687   23.1096 C   0  0  0  0  0  0  0  0  0  0  0  0
   12.6364  -18.7243   22.4578 O   0  0  0  0  0  0  0  0  0  0  0  0
   14.2011  -17.4496   23.4796 O   0  0  0  0  0  0  0  0  0  0  0  0
  2  1  1  0
  3  2  1  0
  4  3  1  0
  4  5  1  0
  5  7  1  0
  5  6  1  1
  7  8  2  0
  9 13  1  0
  9  7  1  0
 10  9  1  0
 11 10  1  0
 11 12  1  0
 12 13  1  0
 14 15  2  0
 13 14  1  1
 16 17  1  0
 17 18  2  0
 19 17  1  0
 19 20  1  0
 21 20  1  1
 21 22  1  0
 21 23  1  0
 22 14  1  0
 23 25  2  0
 23 24  1  0
M  END
$$$$
