MPQ.pdb
     RDKit          3D

 25 25  0  0  1  0  0  0  0  0999 V2000
    6.4447  -11.8437   26.0619 C   0  0  0  0  0  0  0  0  0  0  0  0
    7.2830  -12.9796   27.1687 S   0  0  0  0  0  0  0  0  0  0  0  0
    7.4375  -14.6427   26.4759 C   0  0  0  0  0  0  0  0  0  0  0  0
    6.2259  -15.0081   25.6445 C   0  0  0  0  0  0  0  0  0  0  0  0
    6.3021  -16.4604   25.1935 C   0  0  2  0  0  0  0  0  0  0  0  0
    6.4698  -17.2828   26.3288 N   0  0  0  0  0  0  0  0  0  0  0  0
    7.2268  -16.6446   24.0743 C   0  0  0  0  0  0  0  0  0  0  0  0
    7.5121  -17.8841   23.8801 O   0  0  0  0  0  0  0  0  0  0  0  0
    7.7928  -15.6434   23.2471 N   0  0  0  0  0  0  0  0  0  0  0  0
    7.6814  -14.2153   23.2157 C   0  0  0  0  0  0  0  0  0  0  0  0
    7.2747  -13.9953   21.7699 C   0  0  0  0  0  0  0  0  0  0  0  0
    8.1813  -14.9953   21.0827 C   0  0  0  0  0  0  0  0  0  0  0  0
    8.6974  -15.9321   22.1547 C   0  0  1  0  0  0  0  0  0  0  0  0
   10.1114  -15.6645   22.5235 C   0  0  0  0  0  0  0  0  0  0  0  0
   10.4294  -14.5602   23.0218 O   0  0  0  0  0  0  0  0  0  0  0  0
   10.4311  -19.9770   26.1256 N   0  0  0  0  0  0  0  0  0  0  0  0
   11.5529  -19.1838   25.6870 C   0  0  0  0  0  0  0  0  0  0  0  0
   12.6752  -19.6061   26.0014 O   0  0  0  0  0  0  0  0  0  0  0  0
   11.3749  -17.9346   24.9049 C   0  0  0  0  0  0  0  0  0  0  0  0
   12.5365  -17.7906   23.9749 C   0  0  0  0  0  0  0  0  0  0  0  0
   12.4021  -16.6017   23.0508 C   0  0  2  0  0  0  0  0  0  0  0  0
   11.1420  -16.6201   22.3349 N   0  0  0  0  0  0  0  0  0  0  0  0
   13.5274  -16.4407   22.1245 C   0  0  0  0  0  0  0  0  0  0  0  0
   14.7666  -16.0815   22.6109 O   0  0  0  0  0  0  0  0  0  0  0  0
   13.3967  -16.6208   20.8935 O   0  0  0  0  0  0  0  0  0  0  0  0
  2  1  1  0
  3  2  1  0
  4  3  1  0
  4  5  1  0
  5  7  1  0
  5  6  1  1
  7  8  2  0
  9 13  1  0
  9  7  1  0
 10  9  1  0
 11 10  1  0
 11 12  1  0
 12 13  1  0
 14 15  2  0
 13 14  1  1
 16 17  1  0
 17 18  2  0
 19 17  1  0
 19 20  1  0
 21 20  1  6
 21 22  1  0
 21 23  1  0
 22 14  1  0
 23 25  2  0
 23 24  1  0
M  END
$$$$
