MPQ.pdb
     RDKit          3D

 25 25  0  0  1  0  0  0  0  0999 V2000
    7.3735  -11.5074   27.2585 C   0  0  0  0  0  0  0  0  0  0  0  0
    5.7016  -12.1568   27.2878 S   0  0  0  0  0  0  0  0  0  0  0  0
    5.6206  -13.8976   26.8054 C   0  0  0  0  0  0  0  0  0  0  0  0
    6.7804  -14.2754   25.9084 C   0  0  0  0  0  0  0  0  0  0  0  0
    6.6302  -15.7064   25.4102 C   0  0  2  0  0  0  0  0  0  0  0  0
    6.4444  -16.5591   26.5201 N   0  0  0  0  0  0  0  0  0  0  0  0
    7.6637  -16.0656   24.4385 C   0  0  0  0  0  0  0  0  0  0  0  0
    8.1603  -17.2304   24.6671 O   0  0  0  0  0  0  0  0  0  0  0  0
    8.1290  -15.2928   23.3462 N   0  0  0  0  0  0  0  0  0  0  0  0
    7.8270  -13.9735   22.8760 C   0  0  0  0  0  0  0  0  0  0  0  0
    7.4660  -14.2645   21.4305 C   0  0  0  0  0  0  0  0  0  0  0  0
    8.5325  -15.2846   21.0895 C   0  0  0  0  0  0  0  0  0  0  0  0
    9.1171  -15.7665   22.4006 C   0  0  1  0  0  0  0  0  0  0  0  0
   10.4620  -15.1987   22.6766 C   0  0  0  0  0  0  0  0  0  0  0  0
   10.5791  -13.9910   22.9872 O   0  0  0  0  0  0  0  0  0  0  0  0
   10.7791  -17.1057   27.3978 N   0  0  0  0  0  0  0  0  0  0  0  0
   11.2807  -15.7638   27.2315 C   0  0  0  0  0  0  0  0  0  0  0  0
   11.1875  -15.0207   28.2193 O   0  0  0  0  0  0  0  0  0  0  0  0
   11.8739  -15.2988   25.9525 C   0  0  0  0  0  0  0  0  0  0  0  0
   11.8926  -16.4475   24.9958 C   0  0  0  0  0  0  0  0  0  0  0  0
   12.5892  -16.1149   23.6960 C   0  0  2  0  0  0  0  0  0  0  0  0
   11.6464  -15.9751   22.6041 N   0  0  0  0  0  0  0  0  0  0  0  0
   13.6632  -17.0489   23.3431 C   0  0  0  0  0  0  0  0  0  0  0  0
   13.4862  -17.9296   22.2970 O   0  0  0  0  0  0  0  0  0  0  0  0
   14.7464  -17.0719   23.9684 O   0  0  0  0  0  0  0  0  0  0  0  0
  2  1  1  0
  3  2  1  0
  4  3  1  0
  4  5  1  0
  5  7  1  0
  5  6  1  1
  7  8  2  0
  9 13  1  0
  9  7  1  0
 10  9  1  0
 11 10  1  0
 11 12  1  0
 12 13  1  0
 14 15  2  0
 13 14  1  1
 16 17  1  0
 17 18  2  0
 19 17  1  0
 19 20  1  0
 21 20  1  1
 21 22  1  0
 21 23  1  0
 22 14  1  0
 23 25  2  0
 23 24  1  0
M  END
$$$$
