MPQ.pdb
     RDKit          3D

 25 25  0  0  1  0  0  0  0  0999 V2000
    4.6387  -18.6444   22.5531 C   0  0  0  0  0  0  0  0  0  0  0  0
    4.4462  -17.9743   20.9003 S   0  0  0  0  0  0  0  0  0  0  0  0
    5.3474  -16.4242   20.6665 C   0  0  0  0  0  0  0  0  0  0  0  0
    6.3012  -16.1629   21.8131 C   0  0  0  0  0  0  0  0  0  0  0  0
    7.0291  -14.8402   21.6156 C   0  0  2  0  0  0  0  0  0  0  0  0
    7.5220  -14.7834   20.2937 N   0  0  0  0  0  0  0  0  0  0  0  0
    7.9628  -14.5541   22.7054 C   0  0  0  0  0  0  0  0  0  0  0  0
    9.1836  -14.5158   22.3006 O   0  0  0  0  0  0  0  0  0  0  0  0
    7.6559  -14.3319   24.0705 N   0  0  0  0  0  0  0  0  0  0  0  0
    6.4317  -14.3290   24.8150 C   0  0  0  0  0  0  0  0  0  0  0  0
    6.5084  -12.9662   25.4793 C   0  0  0  0  0  0  0  0  0  0  0  0
    7.9733  -12.9387   25.8631 C   0  0  0  0  0  0  0  0  0  0  0  0
    8.6570  -14.0343   25.0725 C   0  0  1  0  0  0  0  0  0  0  0  0
    8.9825  -15.2254   25.8985 C   0  0  0  0  0  0  0  0  0  0  0  0
    8.0643  -15.8691   26.4566 O   0  0  0  0  0  0  0  0  0  0  0  0
   10.8227  -15.9632   31.0311 N   0  0  0  0  0  0  0  0  0  0  0  0
   10.5631  -14.8747   30.1213 C   0  0  0  0  0  0  0  0  0  0  0  0
   10.3594  -13.7675   30.6401 O   0  0  0  0  0  0  0  0  0  0  0  0
   10.5411  -15.0680   28.6495 C   0  0  0  0  0  0  0  0  0  0  0  0
   10.6344  -16.5326   28.3645 C   0  0  0  0  0  0  0  0  0  0  0  0
   10.6632  -16.8399   26.8846 C   0  0  2  0  0  0  0  0  0  0  0  0
   10.3121  -15.6796   26.0902 N   0  0  0  0  0  0  0  0  0  0  0  0
    9.8505  -17.9996   26.5040 C   0  0  0  0  0  0  0  0  0  0  0  0
    8.9284  -17.8829   25.4855 O   0  0  0  0  0  0  0  0  0  0  0  0
    9.9689  -19.1033   27.0808 O   0  0  0  0  0  0  0  0  0  0  0  0
  2  1  1  0
  3  2  1  0
  4  3  1  0
  4  5  1  0
  5  7  1  0
  5  6  1  6
  7  8  2  0
  9 13  1  0
  9  7  1  0
 10  9  1  0
 11 10  1  0
 11 12  1  0
 12 13  1  0
 14 15  2  0
 13 14  1  1
 16 17  1  0
 17 18  2  0
 19 17  1  0
 19 20  1  0
 21 20  1  1
 21 22  1  0
 21 23  1  0
 22 14  1  0
 23 25  2  0
 23 24  1  0
M  END
$$$$
