MPQ.pdb
     RDKit          3D

 25 25  0  0  1  0  0  0  0  0999 V2000
   10.3919  -14.3274   28.3111 C   0  0  0  0  0  0  0  0  0  0  0  0
    8.8579  -13.5302   27.8324 S   0  0  0  0  0  0  0  0  0  0  0  0
    8.0084  -14.3989   26.4931 C   0  0  0  0  0  0  0  0  0  0  0  0
    7.2330  -15.5906   27.0139 C   0  0  0  0  0  0  0  0  0  0  0  0
    6.5058  -16.2965   25.8776 C   0  0  2  0  0  0  0  0  0  0  0  0
    5.8187  -17.4139   26.3997 N   0  0  0  0  0  0  0  0  0  0  0  0
    7.3688  -16.5077   24.7148 C   0  0  0  0  0  0  0  0  0  0  0  0
    7.7564  -17.7305   24.6144 O   0  0  0  0  0  0  0  0  0  0  0  0
    7.7827  -15.5467   23.7598 N   0  0  0  0  0  0  0  0  0  0  0  0
    7.6676  -14.1204   23.6869 C   0  0  0  0  0  0  0  0  0  0  0  0
    7.0163  -13.9587   22.3254 C   0  0  0  0  0  0  0  0  0  0  0  0
    7.7900  -14.9936   21.5351 C   0  0  0  0  0  0  0  0  0  0  0  0
    8.4841  -15.8880   22.5407 C   0  0  1  0  0  0  0  0  0  0  0  0
    9.9407  -15.6156   22.6470 C   0  0  0  0  0  0  0  0  0  0  0  0
   10.3408  -14.5462   23.1619 O   0  0  0  0  0  0  0  0  0  0  0  0
   10.3334  -18.7289   26.6872 N   0  0  0  0  0  0  0  0  0  0  0  0
   11.5110  -18.1137   26.1259 C   0  0  0  0  0  0  0  0  0  0  0  0
   12.2685  -17.5520   26.9305 O   0  0  0  0  0  0  0  0  0  0  0  0
   11.7996  -18.1505   24.6702 C   0  0  0  0  0  0  0  0  0  0  0  0
   12.2304  -16.7851   24.2399 C   0  0  0  0  0  0  0  0  0  0  0  0
   12.2586  -16.6272   22.7367 C   0  0  2  0  0  0  0  0  0  0  0  0
   10.9224  -16.5280   22.1839 N   0  0  0  0  0  0  0  0  0  0  0  0
   13.0345  -17.6624   22.0463 C   0  0  0  0  0  0  0  0  0  0  0  0
   14.3975  -17.7378   22.2406 O   0  0  0  0  0  0  0  0  0  0  0  0
   12.4926  -18.4878   21.2783 O   0  0  0  0  0  0  0  0  0  0  0  0
  2  1  1  0
  3  2  1  0
  4  3  1  0
  4  5  1  0
  5  7  1  0
  5  6  1  1
  7  8  2  0
  9 13  1  0
  9  7  1  0
 10  9  1  0
 11 10  1  0
 11 12  1  0
 12 13  1  0
 14 15  2  0
 13 14  1  1
 16 17  1  0
 17 18  2  0
 19 17  1  0
 19 20  1  0
 21 20  1  1
 21 22  1  0
 21 23  1  0
 22 14  1  0
 23 25  2  0
 23 24  1  0
M  END
$$$$
