MPQ.pdb
     RDKit          3D

 25 25  0  0  1  0  0  0  0  0999 V2000
    4.9130  -17.9146   23.2939 C   0  0  0  0  0  0  0  0  0  0  0  0
    5.5945  -17.6199   21.6610 S   0  0  0  0  0  0  0  0  0  0  0  0
    6.9641  -16.4394   21.6791 C   0  0  0  0  0  0  0  0  0  0  0  0
    6.4607  -15.0117   21.7109 C   0  0  0  0  0  0  0  0  0  0  0  0
    7.6101  -14.0421   21.9497 C   0  0  2  0  0  0  0  0  0  0  0  0
    8.4881  -14.0940   20.8453 N   0  0  0  0  0  0  0  0  0  0  0  0
    8.1861  -14.1851   23.2873 C   0  0  0  0  0  0  0  0  0  0  0  0
    9.4214  -14.5430   23.2476 O   0  0  0  0  0  0  0  0  0  0  0  0
    7.5426  -13.9772   24.5321 N   0  0  0  0  0  0  0  0  0  0  0  0
    6.2056  -13.6161   24.8995 C   0  0  0  0  0  0  0  0  0  0  0  0
    6.4716  -12.4154   25.7893 C   0  0  0  0  0  0  0  0  0  0  0  0
    7.6756  -12.9161   26.5599 C   0  0  0  0  0  0  0  0  0  0  0  0
    8.2138  -14.1147   25.8071 C   0  0  1  0  0  0  0  0  0  0  0  0
    7.8870  -15.4051   26.4667 C   0  0  0  0  0  0  0  0  0  0  0  0
    6.8259  -16.0043   26.1771 O   0  0  0  0  0  0  0  0  0  0  0  0
   11.1707  -17.0217   23.2969 N   0  0  0  0  0  0  0  0  0  0  0  0
   11.6617  -18.0571   24.1727 C   0  0  0  0  0  0  0  0  0  0  0  0
   12.3826  -18.9183   23.6479 O   0  0  0  0  0  0  0  0  0  0  0  0
   11.3240  -18.0904   25.6179 C   0  0  0  0  0  0  0  0  0  0  0  0
   10.4330  -16.9288   25.9212 C   0  0  0  0  0  0  0  0  0  0  0  0
    9.5895  -17.1456   27.1569 C   0  0  2  0  0  0  0  0  0  0  0  0
    8.7373  -16.0054   27.4298 N   0  0  0  0  0  0  0  0  0  0  0  0
   10.3638  -17.5161   28.3458 C   0  0  0  0  0  0  0  0  0  0  0  0
   10.4304  -18.8377   28.7331 O   0  0  0  0  0  0  0  0  0  0  0  0
   10.9722  -16.6612   29.0269 O   0  0  0  0  0  0  0  0  0  0  0  0
  2  1  1  0
  3  2  1  0
  4  3  1  0
  4  5  1  0
  5  7  1  0
  5  6  1  6
  7  8  2  0
  9 13  1  0
  9  7  1  0
 10  9  1  0
 11 10  1  0
 11 12  1  0
 12 13  1  0
 14 15  2  0
 13 14  1  1
 16 17  1  0
 17 18  2  0
 19 17  1  0
 19 20  1  0
 21 20  1  6
 21 22  1  0
 21 23  1  0
 22 14  1  0
 23 25  2  0
 23 24  1  0
M  END
$$$$
