MPQ.pdb
     RDKit          3D

 25 25  0  0  1  0  0  0  0  0999 V2000
    6.3142  -11.9438   27.3465 C   0  0  0  0  0  0  0  0  0  0  0  0
    7.7492  -12.9499   26.9636 S   0  0  0  0  0  0  0  0  0  0  0  0
    7.4388  -14.1285   25.6278 C   0  0  0  0  0  0  0  0  0  0  0  0
    6.5736  -15.2788   26.0979 C   0  0  0  0  0  0  0  0  0  0  0  0
    6.1714  -16.1626   24.9250 C   0  0  2  0  0  0  0  0  0  0  0  0
    5.4607  -17.2788   25.4172 N   0  0  0  0  0  0  0  0  0  0  0  0
    7.2873  -16.4120   24.0117 C   0  0  0  0  0  0  0  0  0  0  0  0
    7.7163  -17.6225   24.0895 O   0  0  0  0  0  0  0  0  0  0  0  0
    7.8904  -15.4969   23.1140 N   0  0  0  0  0  0  0  0  0  0  0  0
    7.8208  -14.0734   22.9668 C   0  0  0  0  0  0  0  0  0  0  0  0
    7.4355  -13.9593   21.5030 C   0  0  0  0  0  0  0  0  0  0  0  0
    8.3199  -15.0364   20.9098 C   0  0  0  0  0  0  0  0  0  0  0  0
    8.7975  -15.8978   22.0599 C   0  0  1  0  0  0  0  0  0  0  0  0
   10.2148  -15.6411   22.4238 C   0  0  0  0  0  0  0  0  0  0  0  0
   10.5365  -14.5540   22.9565 O   0  0  0  0  0  0  0  0  0  0  0  0
   11.6475  -17.9732   26.4371 N   0  0  0  0  0  0  0  0  0  0  0  0
   11.5090  -18.8870   25.3300 C   0  0  0  0  0  0  0  0  0  0  0  0
   10.8951  -19.9382   25.5645 O   0  0  0  0  0  0  0  0  0  0  0  0
   12.0684  -18.5873   23.9880 C   0  0  0  0  0  0  0  0  0  0  0  0
   12.7186  -17.2420   24.0376 C   0  0  0  0  0  0  0  0  0  0  0  0
   12.5819  -16.4780   22.7403 C   0  0  2  0  0  0  0  0  0  0  0  0
   11.2445  -16.5882   22.1927 N   0  0  0  0  0  0  0  0  0  0  0  0
   13.5893  -16.8317   21.7351 C   0  0  0  0  0  0  0  0  0  0  0  0
   14.9288  -16.6988   22.0341 O   0  0  0  0  0  0  0  0  0  0  0  0
   13.2678  -17.2546   20.6025 O   0  0  0  0  0  0  0  0  0  0  0  0
  2  1  1  0
  3  2  1  0
  4  3  1  0
  4  5  1  0
  5  7  1  0
  5  6  1  1
  7  8  2  0
  9 13  1  0
  9  7  1  0
 10  9  1  0
 11 10  1  0
 11 12  1  0
 12 13  1  0
 14 15  2  0
 13 14  1  1
 16 17  1  0
 17 18  2  0
 19 17  1  0
 19 20  1  0
 21 20  1  1
 21 22  1  0
 21 23  1  0
 22 14  1  0
 23 25  2  0
 23 24  1  0
M  END
$$$$
