HDY.pdb
     RDKit          3D

 31 32  0  0  1  0  0  0  0  0999 V2000
   25.7123  -10.7270  -21.4689 N   0  0  0  0  0  0  0  0  0  0  0  0
   24.6293   -9.8635  -21.9015 C   0  0  1  0  0  0  0  0  0  0  0  0
   23.4415  -10.6317  -22.3428 C   0  0  0  0  0  0  0  0  0  0  0  0
   23.7641  -11.5411  -23.4602 C   0  0  0  0  0  0  0  0  0  0  0  0
   23.8373  -11.2002  -24.8065 C   0  0  0  0  0  0  0  0  0  0  0  0
   24.1541  -12.2835  -25.5285 N   0  0  0  0  0  0  0  0  0  0  0  0
   24.2831  -13.2968  -24.6805 C   0  0  0  0  0  0  0  0  0  0  0  0
   24.0469  -12.8498  -23.4229 N   0  0  0  0  0  0  0  0  0  0  0  0
   24.3978   -8.7668  -20.9564 C   0  0  0  0  0  0  0  0  0  0  0  0
   24.6155   -9.0019  -19.7298 O   0  0  0  0  0  0  0  0  0  0  0  0
   23.9526   -7.4817  -21.2959 N   0  0  0  0  0  0  0  0  0  0  0  0
   23.7654   -6.4429  -20.3353 C   0  0  1  0  0  0  0  0  0  0  0  0
   23.4854   -5.0860  -20.8793 C   0  0  0  0  0  0  0  0  0  0  0  0
   24.6237   -4.5753  -21.6699 C   0  0  0  0  0  0  0  0  0  0  0  0
   25.7818   -4.8121  -21.2471 O   0  0  0  0  0  0  0  0  0  0  0  0
   22.6645   -6.8248  -19.3712 C   0  0  0  0  0  0  0  0  0  0  0  0
   21.6701   -7.4913  -19.7858 O   0  0  0  0  0  0  0  0  0  0  0  0
   24.4942   -3.8581  -22.8378 O   0  0  0  0  0  0  0  0  0  0  0  0
   18.3980   -9.2933  -12.0484 O   0  0  0  0  0  0  0  0  0  0  0  0
   19.2669   -8.9694  -13.0911 C   0  0  0  0  0  0  0  0  0  0  0  0
   18.9394   -9.0880  -14.4128 C   0  0  0  0  0  0  0  0  0  0  0  0
   19.8421   -8.7515  -15.3987 C   0  0  0  0  0  0  0  0  0  0  0  0
   21.1074   -8.2836  -15.1195 C   0  0  0  0  0  0  0  0  0  0  0  0
   22.1138   -7.9141  -16.1350 C   0  0  0  0  0  0  0  0  0  0  0  0
   21.6821   -6.7975  -17.0398 C   0  0  2  0  0  0  0  0  0  0  0  0
   22.7128   -6.4557  -18.0031 N   0  0  0  0  0  0  0  0  0  0  0  0
   21.2193   -5.5946  -16.3352 C   0  0  0  0  0  0  0  0  0  0  0  0
   21.9902   -4.4496  -16.1869 O   0  0  0  0  0  0  0  0  0  0  0  0
   21.4254   -8.1687  -13.7641 C   0  0  0  0  0  0  0  0  0  0  0  0
   20.5243   -8.5044  -12.7757 C   0  0  0  0  0  0  0  0  0  0  0  0
   20.0730   -5.5659  -15.8287 O   0  0  0  0  0  0  0  0  0  0  0  0
  2  3  1  0
  2  1  1  1
  3  4  1  0
  4  5  2  0
  5  6  1  0
  7  6  1  0
  8  4  1  0
  8  7  2  0
  9 10  2  0
  9  2  1  0
 11  9  1  0
 12 11  1  0
 13 14  1  0
 12 13  1  6
 14 15  2  0
 16 17  2  0
 16 12  1  0
 18 14  1  0
 20 19  1  0
 21 20  2  0
 22 21  1  0
 23 29  1  0
 23 22  2  0
 24 23  1  0
 25 24  1  1
 25 26  1  0
 26 16  1  0
 27 25  1  0
 28 27  1  0
 29 30  2  0
 30 20  1  0
 31 27  2  0
M  END
$$$$
