HDY.pdb
     RDKit          3D

 31 32  0  0  1  0  0  0  0  0999 V2000
   21.5914  -10.9869  -20.3918 N   0  0  0  0  0  0  0  0  0  0  0  0
   22.2697  -10.8344  -19.1182 C   0  0  1  0  0  0  0  0  0  0  0  0
   23.7277  -10.6266  -19.2804 C   0  0  0  0  0  0  0  0  0  0  0  0
   24.3725  -11.7778  -19.9427 C   0  0  0  0  0  0  0  0  0  0  0  0
   24.9168  -11.7948  -21.2224 C   0  0  0  0  0  0  0  0  0  0  0  0
   25.4133  -13.0114  -21.4843 N   0  0  0  0  0  0  0  0  0  0  0  0
   25.1994  -13.7623  -20.4105 C   0  0  0  0  0  0  0  0  0  0  0  0
   24.5673  -13.0165  -19.4718 N   0  0  0  0  0  0  0  0  0  0  0  0
   21.5607   -9.9057  -18.2325 C   0  0  0  0  0  0  0  0  0  0  0  0
   21.0126   -8.8961  -18.7688 O   0  0  0  0  0  0  0  0  0  0  0  0
   21.4416  -10.0393  -16.8421 N   0  0  0  0  0  0  0  0  0  0  0  0
   20.6786   -9.1425  -16.0357 C   0  0  1  0  0  0  0  0  0  0  0  0
   19.8418   -9.7631  -14.9726 C   0  0  0  0  0  0  0  0  0  0  0  0
   19.0967   -8.7430  -14.2071 C   0  0  0  0  0  0  0  0  0  0  0  0
   18.6804   -7.7348  -14.8283 O   0  0  0  0  0  0  0  0  0  0  0  0
   21.5901   -8.1119  -15.4075 C   0  0  0  0  0  0  0  0  0  0  0  0
   22.6717   -8.4805  -14.8606 O   0  0  0  0  0  0  0  0  0  0  0  0
   18.8311   -8.8291  -12.8590 O   0  0  0  0  0  0  0  0  0  0  0  0
   21.4882   -0.1910  -18.1640 O   0  0  0  0  0  0  0  0  0  0  0  0
   21.8455   -1.4394  -17.6533 C   0  0  0  0  0  0  0  0  0  0  0  0
   21.3896   -2.6233  -18.1621 C   0  0  0  0  0  0  0  0  0  0  0  0
   21.7791   -3.8264  -17.6135 C   0  0  0  0  0  0  0  0  0  0  0  0
   22.6360   -3.9101  -16.5381 C   0  0  0  0  0  0  0  0  0  0  0  0
   23.0809   -5.1699  -15.9094 C   0  0  0  0  0  0  0  0  0  0  0  0
   22.1333   -5.6993  -14.8732 C   0  0  2  0  0  0  0  0  0  0  0  0
   21.2669   -6.7314  -15.4128 N   0  0  0  0  0  0  0  0  0  0  0  0
   21.3393   -4.6649  -14.1970 C   0  0  0  0  0  0  0  0  0  0  0  0
   21.8832   -3.7259  -13.3311 O   0  0  0  0  0  0  0  0  0  0  0  0
   23.0922   -2.6910  -16.0307 C   0  0  0  0  0  0  0  0  0  0  0  0
   22.7042   -1.4860  -16.5775 C   0  0  0  0  0  0  0  0  0  0  0  0
   20.1024   -4.5975  -14.3891 O   0  0  0  0  0  0  0  0  0  0  0  0
  2  3  1  0
  2  1  1  6
  3  4  1  0
  4  5  2  0
  5  6  1  0
  7  6  1  0
  8  4  1  0
  8  7  2  0
  9 10  2  0
  9  2  1  0
 11  9  1  0
 12 11  1  0
 13 14  1  0
 12 13  1  1
 14 15  2  0
 16 17  2  0
 16 12  1  0
 18 14  1  0
 20 19  1  0
 21 20  2  0
 22 21  1  0
 23 29  1  0
 23 22  2  0
 24 23  1  0
 25 24  1  6
 25 26  1  0
 26 16  1  0
 27 25  1  0
 28 27  1  0
 29 30  2  0
 30 20  1  0
 31 27  2  0
M  END
$$$$
