HDY.pdb
     RDKit          3D

 31 32  0  0  1  0  0  0  0  0999 V2000
   44.7607   -5.2199   -7.7314 N   0  0  0  0  0  0  0  0  0  0  0  0
   43.9357   -6.4134   -7.7154 C   0  0  1  0  0  0  0  0  0  0  0  0
   42.8054   -6.3013   -6.7639 C   0  0  0  0  0  0  0  0  0  0  0  0
   43.2743   -6.0491   -5.3869 C   0  0  0  0  0  0  0  0  0  0  0  0
   43.0603   -4.8951   -4.6408 C   0  0  0  0  0  0  0  0  0  0  0  0
   43.6325   -5.0252   -3.4363 N   0  0  0  0  0  0  0  0  0  0  0  0
   44.2006   -6.2245   -3.3989 C   0  0  0  0  0  0  0  0  0  0  0  0
   43.9853   -6.8496   -4.5821 N   0  0  0  0  0  0  0  0  0  0  0  0
   43.6198   -6.8743   -9.0709 C   0  0  0  0  0  0  0  0  0  0  0  0
   43.5671   -5.9971   -9.9847 O   0  0  0  0  0  0  0  0  0  0  0  0
   43.3680   -8.2031   -9.4397 N   0  0  0  0  0  0  0  0  0  0  0  0
   42.8680   -8.5740  -10.7239 C   0  0  1  0  0  0  0  0  0  0  0  0
   43.3921   -9.8459  -11.2920 C   0  0  0  0  0  0  0  0  0  0  0  0
   43.1669  -10.9811  -10.3742 C   0  0  0  0  0  0  0  0  0  0  0  0
   42.3417  -11.8602  -10.7236 O   0  0  0  0  0  0  0  0  0  0  0  0
   41.3571   -8.6338  -10.6910 C   0  0  0  0  0  0  0  0  0  0  0  0
   40.7686   -9.0761   -9.6600 O   0  0  0  0  0  0  0  0  0  0  0  0
   43.8037  -11.1345   -9.1633 O   0  0  0  0  0  0  0  0  0  0  0  0
   38.4953  -10.2551   -5.6774 O   0  0  0  0  0  0  0  0  0  0  0  0
   38.4754  -10.0138   -7.0516 C   0  0  0  0  0  0  0  0  0  0  0  0
   37.8612   -8.9335   -7.6208 C   0  0  0  0  0  0  0  0  0  0  0  0
   37.8759   -8.7493   -8.9868 C   0  0  0  0  0  0  0  0  0  0  0  0
   38.4985   -9.6257   -9.8483 C   0  0  0  0  0  0  0  0  0  0  0  0
   38.5401   -9.4792  -11.3170 C   0  0  0  0  0  0  0  0  0  0  0  0
   39.1204   -8.1755  -11.7812 C   0  0  2  0  0  0  0  0  0  0  0  0
   40.5717   -8.2049  -11.7907 N   0  0  0  0  0  0  0  0  0  0  0  0
   38.6360   -7.0022  -11.0420 C   0  0  0  0  0  0  0  0  0  0  0  0
   39.4706   -6.1330  -10.3526 O   0  0  0  0  0  0  0  0  0  0  0  0
   39.1209  -10.7239   -9.2499 C   0  0  0  0  0  0  0  0  0  0  0  0
   39.1079  -10.9107   -7.8836 C   0  0  0  0  0  0  0  0  0  0  0  0
   37.4101   -6.7422  -11.0111 O   0  0  0  0  0  0  0  0  0  0  0  0
  2  3  1  0
  2  1  1  6
  3  4  1  0
  4  5  2  0
  5  6  1  0
  7  6  1  0
  8  4  1  0
  8  7  2  0
  9 10  2  0
  9  2  1  0
 11  9  1  0
 12 11  1  0
 13 14  1  0
 12 13  1  1
 14 15  2  0
 16 17  2  0
 16 12  1  0
 18 14  1  0
 20 19  1  0
 21 20  2  0
 22 21  1  0
 23 29  1  0
 23 22  2  0
 24 23  1  0
 25 24  1  1
 25 26  1  0
 26 16  1  0
 27 25  1  0
 28 27  1  0
 29 30  2  0
 30 20  1  0
 31 27  2  0
M  END
$$$$
