HDY.pdb
     RDKit          3D

 31 32  0  0  1  0  0  0  0  0999 V2000
   23.3952  -32.2186   -6.0962 N   0  0  0  0  0  0  0  0  0  0  0  0
   24.3907  -32.7043   -5.1589 C   0  0  1  0  0  0  0  0  0  0  0  0
   25.7278  -32.1153   -5.4054 C   0  0  0  0  0  0  0  0  0  0  0  0
   26.1831  -32.3557   -6.7891 C   0  0  0  0  0  0  0  0  0  0  0  0
   26.1752  -31.4355   -7.8318 C   0  0  0  0  0  0  0  0  0  0  0  0
   26.6609  -32.0082   -8.9415 N   0  0  0  0  0  0  0  0  0  0  0  0
   26.9749  -33.2604   -8.6318 C   0  0  0  0  0  0  0  0  0  0  0  0
   26.6861  -33.4754   -7.3251 N   0  0  0  0  0  0  0  0  0  0  0  0
   23.8970  -32.6769   -3.7787 C   0  0  0  0  0  0  0  0  0  0  0  0
   23.6950  -31.5393   -3.2568 O   0  0  0  0  0  0  0  0  0  0  0  0
   23.6330  -33.8035   -2.9873 N   0  0  0  0  0  0  0  0  0  0  0  0
   23.1516  -33.7185   -1.6465 C   0  0  1  0  0  0  0  0  0  0  0  0
   22.1431  -34.7363   -1.2436 C   0  0  0  0  0  0  0  0  0  0  0  0
   20.7755  -34.3177   -1.6126 C   0  0  0  0  0  0  0  0  0  0  0  0
   20.5429  -34.0834   -2.8237 O   0  0  0  0  0  0  0  0  0  0  0  0
   24.3125  -33.7638   -0.6782 C   0  0  0  0  0  0  0  0  0  0  0  0
   25.4066  -34.2940   -1.0343 O   0  0  0  0  0  0  0  0  0  0  0  0
   19.7433  -34.1690   -0.7138 O   0  0  0  0  0  0  0  0  0  0  0  0
   30.9368  -32.8084    4.6646 O   0  0  0  0  0  0  0  0  0  0  0  0
   29.8887  -32.8206    3.7436 C   0  0  0  0  0  0  0  0  0  0  0  0
   29.8209  -33.6846    2.6866 C   0  0  0  0  0  0  0  0  0  0  0  0
   28.7581  -33.6480    1.8095 C   0  0  0  0  0  0  0  0  0  0  0  0
   27.7171  -32.7552    1.9402 C   0  0  0  0  0  0  0  0  0  0  0  0
   26.5589  -32.6698    1.0281 C   0  0  0  0  0  0  0  0  0  0  0  0
   25.2953  -33.2472    1.5952 C   0  0  2  0  0  0  0  0  0  0  0  0
   24.2120  -33.2248    0.6293 N   0  0  0  0  0  0  0  0  0  0  0  0
   24.8672  -32.6359    2.8604 C   0  0  0  0  0  0  0  0  0  0  0  0
   25.4451  -32.9310    4.0877 O   0  0  0  0  0  0  0  0  0  0  0  0
   27.8024  -31.8798    3.0254 C   0  0  0  0  0  0  0  0  0  0  0  0
   28.8644  -31.9142    3.9045 C   0  0  0  0  0  0  0  0  0  0  0  0
   23.9335  -31.7996    2.8690 O   0  0  0  0  0  0  0  0  0  0  0  0
  2  3  1  0
  2  1  1  6
  3  4  1  0
  4  5  2  0
  5  6  1  0
  7  6  1  0
  8  4  1  0
  8  7  2  0
  9 10  2  0
  9  2  1  0
 11  9  1  0
 12 11  1  0
 13 14  1  0
 12 13  1  1
 14 15  2  0
 16 17  2  0
 16 12  1  0
 18 14  1  0
 20 19  1  0
 21 20  2  0
 22 21  1  0
 23 29  1  0
 23 22  2  0
 24 23  1  0
 25 24  1  6
 25 26  1  0
 26 16  1  0
 27 25  1  0
 28 27  1  0
 29 30  2  0
 30 20  1  0
 31 27  2  0
M  END
$$$$
