HDY.pdb
     RDKit          3D

 31 32  0  0  1  0  0  0  0  0999 V2000
   23.2419  -11.2261  -17.5975 N   0  0  0  0  0  0  0  0  0  0  0  0
   23.6306  -10.2977  -16.5522 C   0  0  1  0  0  0  0  0  0  0  0  0
   25.0031   -9.7748  -16.7483 C   0  0  0  0  0  0  0  0  0  0  0  0
   26.0009  -10.8623  -16.7861 C   0  0  0  0  0  0  0  0  0  0  0  0
   26.8979  -11.1944  -15.7765 C   0  0  0  0  0  0  0  0  0  0  0  0
   27.6483  -12.2341  -16.1651 N   0  0  0  0  0  0  0  0  0  0  0  0
   27.2533  -12.5682  -17.3878 C   0  0  0  0  0  0  0  0  0  0  0  0
   26.2527  -11.7371  -17.7686 N   0  0  0  0  0  0  0  0  0  0  0  0
   22.5778   -9.3145  -16.2793 C   0  0  0  0  0  0  0  0  0  0  0  0
   22.0510   -8.7360  -17.2770 O   0  0  0  0  0  0  0  0  0  0  0  0
   22.1078   -8.9586  -15.0075 N   0  0  0  0  0  0  0  0  0  0  0  0
   21.0956   -7.9745  -14.7980 C   0  0  1  0  0  0  0  0  0  0  0  0
   20.4118   -8.0048  -13.4764 C   0  0  0  0  0  0  0  0  0  0  0  0
   19.5918   -9.2233  -13.3199 C   0  0  0  0  0  0  0  0  0  0  0  0
   19.5403   -9.7508  -12.1819 O   0  0  0  0  0  0  0  0  0  0  0  0
   21.6654   -6.5924  -15.0274 C   0  0  0  0  0  0  0  0  0  0  0  0
   22.9097   -6.3960  -14.8930 O   0  0  0  0  0  0  0  0  0  0  0  0
   18.8827   -9.8146  -14.3410 O   0  0  0  0  0  0  0  0  0  0  0  0
   24.3576    0.7771  -18.5099 O   0  0  0  0  0  0  0  0  0  0  0  0
   23.8272   -0.4710  -18.1811 C   0  0  0  0  0  0  0  0  0  0  0  0
   23.0727   -1.2216  -19.0387 C   0  0  0  0  0  0  0  0  0  0  0  0
   22.5759   -2.4490  -18.6554 C   0  0  0  0  0  0  0  0  0  0  0  0
   22.8040   -2.9864  -17.4076 C   0  0  0  0  0  0  0  0  0  0  0  0
   22.2924   -4.2918  -16.9444 C   0  0  0  0  0  0  0  0  0  0  0  0
   21.3524   -4.1968  -15.7786 C   0  0  2  0  0  0  0  0  0  0  0  0
   20.8400   -5.4989  -15.3923 N   0  0  0  0  0  0  0  0  0  0  0  0
   20.2482   -3.2472  -15.9697 C   0  0  0  0  0  0  0  0  0  0  0  0
   20.3313   -1.9003  -15.6437 O   0  0  0  0  0  0  0  0  0  0  0  0
   23.5767   -2.2061  -16.5441 C   0  0  0  0  0  0  0  0  0  0  0  0
   24.0750   -0.9780  -16.9248 C   0  0  0  0  0  0  0  0  0  0  0  0
   19.1589   -3.6396  -16.4501 O   0  0  0  0  0  0  0  0  0  0  0  0
  2  3  1  0
  2  1  1  6
  3  4  1  0
  4  5  2  0
  5  6  1  0
  7  6  1  0
  8  4  1  0
  8  7  2  0
  9 10  2  0
  9  2  1  0
 11  9  1  0
 12 11  1  0
 13 14  1  0
 12 13  1  1
 14 15  2  0
 16 17  2  0
 16 12  1  0
 18 14  1  0
 20 19  1  0
 21 20  2  0
 22 21  1  0
 23 29  1  0
 23 22  2  0
 24 23  1  0
 25 24  1  6
 25 26  1  0
 26 16  1  0
 27 25  1  0
 28 27  1  0
 29 30  2  0
 30 20  1  0
 31 27  2  0
M  END
$$$$
