HDY.pdb
     RDKit          3D

 31 32  0  0  1  0  0  0  0  0999 V2000
   19.4360  -11.9974  -18.3685 N   0  0  0  0  0  0  0  0  0  0  0  0
   18.1686  -11.4908  -17.8760 C   0  0  1  0  0  0  0  0  0  0  0  0
   17.3543  -12.5477  -17.2314 C   0  0  0  0  0  0  0  0  0  0  0  0
   17.1983  -13.7263  -18.1068 C   0  0  0  0  0  0  0  0  0  0  0  0
   16.3192  -13.8481  -19.1775 C   0  0  0  0  0  0  0  0  0  0  0  0
   16.4564  -15.0576  -19.7374 N   0  0  0  0  0  0  0  0  0  0  0  0
   17.3941  -15.7026  -19.0538 C   0  0  0  0  0  0  0  0  0  0  0  0
   17.8472  -14.8971  -18.0623 N   0  0  0  0  0  0  0  0  0  0  0  0
   18.3352  -10.2363  -17.1357 C   0  0  0  0  0  0  0  0  0  0  0  0
   19.0096  -10.2805  -16.0630 O   0  0  0  0  0  0  0  0  0  0  0  0
   17.8083   -8.9935  -17.5134 N   0  0  0  0  0  0  0  0  0  0  0  0
   18.5924   -7.8029  -17.5817 C   0  0  1  0  0  0  0  0  0  0  0  0
   19.8269   -7.8746  -18.4102 C   0  0  0  0  0  0  0  0  0  0  0  0
   20.5516   -6.5875  -18.4125 C   0  0  0  0  0  0  0  0  0  0  0  0
   20.3454   -5.8025  -19.3701 O   0  0  0  0  0  0  0  0  0  0  0  0
   17.7396   -6.6513  -18.0653 C   0  0  0  0  0  0  0  0  0  0  0  0
   18.2122   -5.4759  -18.0630 O   0  0  0  0  0  0  0  0  0  0  0  0
   21.4364   -6.1966  -17.4329 O   0  0  0  0  0  0  0  0  0  0  0  0
   12.6214  -10.8429  -15.3467 O   0  0  0  0  0  0  0  0  0  0  0  0
   13.0992   -9.6129  -15.8003 C   0  0  0  0  0  0  0  0  0  0  0  0
   12.5019   -8.8897  -16.7946 C   0  0  0  0  0  0  0  0  0  0  0  0
   13.0220   -7.6791  -17.1995 C   0  0  0  0  0  0  0  0  0  0  0  0
   14.1552   -7.1320  -16.6386 C   0  0  0  0  0  0  0  0  0  0  0  0
   14.7567   -5.8438  -17.0373 C   0  0  0  0  0  0  0  0  0  0  0  0
   15.3629   -5.8553  -18.4099 C   0  0  2  0  0  0  0  0  0  0  0  0
   16.4137   -6.8500  -18.5263 N   0  0  0  0  0  0  0  0  0  0  0  0
   15.8437   -4.5452  -18.8683 C   0  0  0  0  0  0  0  0  0  0  0  0
   17.1429   -4.3142  -19.2997 O   0  0  0  0  0  0  0  0  0  0  0  0
   14.7527   -7.8842  -15.6243 C   0  0  0  0  0  0  0  0  0  0  0  0
   14.2345   -9.0955  -15.2171 C   0  0  0  0  0  0  0  0  0  0  0  0
   15.0666   -3.5618  -18.8837 O   0  0  0  0  0  0  0  0  0  0  0  0
  2  3  1  0
  2  1  1  1
  3  4  1  0
  4  5  2  0
  5  6  1  0
  7  6  1  0
  8  4  1  0
  8  7  2  0
  9 10  2  0
  9  2  1  0
 11  9  1  0
 12 11  1  0
 13 14  1  0
 12 13  1  6
 14 15  2  0
 16 17  2  0
 16 12  1  0
 18 14  1  0
 20 19  1  0
 21 20  2  0
 22 21  1  0
 23 29  1  0
 23 22  2  0
 24 23  1  0
 25 24  1  1
 25 26  1  0
 26 16  1  0
 27 25  1  0
 28 27  1  0
 29 30  2  0
 30 20  1  0
 31 27  2  0
M  END
$$$$
