HDY.pdb
     RDKit          3D

 31 32  0  0  1  0  0  0  0  0999 V2000
   25.0818  -34.0853  -10.5419 N   0  0  0  0  0  0  0  0  0  0  0  0
   26.2897  -33.3524  -10.2115 C   0  0  1  0  0  0  0  0  0  0  0  0
   26.3500  -32.0357  -10.8885 C   0  0  0  0  0  0  0  0  0  0  0  0
   26.4077  -32.1793  -12.3567 C   0  0  0  0  0  0  0  0  0  0  0  0
   25.3299  -32.1248  -13.2339 C   0  0  0  0  0  0  0  0  0  0  0  0
   25.7629  -32.2965  -14.4902 N   0  0  0  0  0  0  0  0  0  0  0  0
   27.0795  -32.4577  -14.4333 C   0  0  0  0  0  0  0  0  0  0  0  0
   27.4750  -32.3872  -13.1388 N   0  0  0  0  0  0  0  0  0  0  0  0
   26.5603  -33.3715   -8.7706 C   0  0  0  0  0  0  0  0  0  0  0  0
   27.6135  -32.7906   -8.3699 O   0  0  0  0  0  0  0  0  0  0  0  0
   25.7533  -33.9815   -7.8001 N   0  0  0  0  0  0  0  0  0  0  0  0
   26.0734  -33.9828   -6.4093 C   0  0  1  0  0  0  0  0  0  0  0  0
   24.9349  -33.7815   -5.4718 C   0  0  0  0  0  0  0  0  0  0  0  0
   25.4052  -33.5764   -4.0867 C   0  0  0  0  0  0  0  0  0  0  0  0
   26.6428  -33.6091   -3.8790 O   0  0  0  0  0  0  0  0  0  0  0  0
   26.7906  -35.2640   -6.0467 C   0  0  0  0  0  0  0  0  0  0  0  0
   26.2821  -36.3798   -6.3651 O   0  0  0  0  0  0  0  0  0  0  0  0
   24.5735  -33.3522   -3.0129 O   0  0  0  0  0  0  0  0  0  0  0  0
   33.2761  -40.8809   -3.7610 O   0  0  0  0  0  0  0  0  0  0  0  0
   32.5323  -39.7762   -4.1774 C   0  0  0  0  0  0  0  0  0  0  0  0
   32.1931  -39.5407   -5.4804 C   0  0  0  0  0  0  0  0  0  0  0  0
   31.4553  -38.4300   -5.8301 C   0  0  0  0  0  0  0  0  0  0  0  0
   31.0217  -37.5047   -4.9061 C   0  0  0  0  0  0  0  0  0  0  0  0
   30.2346  -36.2971   -5.2264 C   0  0  0  0  0  0  0  0  0  0  0  0
   28.7602  -36.4542   -4.9954 C   0  0  2  0  0  0  0  0  0  0  0  0
   28.0278  -35.2534   -5.3544 N   0  0  0  0  0  0  0  0  0  0  0  0
   28.4048  -36.8849   -3.6368 C   0  0  0  0  0  0  0  0  0  0  0  0
   28.3809  -38.2139   -3.2363 O   0  0  0  0  0  0  0  0  0  0  0  0
   31.3772  -37.7608   -3.5797 C   0  0  0  0  0  0  0  0  0  0  0  0
   32.1150  -38.8711   -3.2269 C   0  0  0  0  0  0  0  0  0  0  0  0
   28.1017  -36.0339   -2.7678 O   0  0  0  0  0  0  0  0  0  0  0  0
  2  3  1  0
  2  1  1  1
  3  4  1  0
  4  5  2  0
  5  6  1  0
  7  6  1  0
  8  4  1  0
  8  7  2  0
  9 10  2  0
  9  2  1  0
 11  9  1  0
 12 11  1  0
 13 14  1  0
 12 13  1  1
 14 15  2  0
 16 17  2  0
 16 12  1  0
 18 14  1  0
 20 19  1  0
 21 20  2  0
 22 21  1  0
 23 29  1  0
 23 22  2  0
 24 23  1  0
 25 24  1  1
 25 26  1  0
 26 16  1  0
 27 25  1  0
 28 27  1  0
 29 30  2  0
 30 20  1  0
 31 27  2  0
M  END
$$$$
