HDY.pdb
     RDKit          3D

 31 32  0  0  1  0  0  0  0  0999 V2000
   18.0118  -12.3719  -15.9125 N   0  0  0  0  0  0  0  0  0  0  0  0
   17.6609  -10.9639  -15.9112 C   0  0  1  0  0  0  0  0  0  0  0  0
   16.3963  -10.7016  -15.1849 C   0  0  0  0  0  0  0  0  0  0  0  0
   15.2548  -11.4019  -15.8065 C   0  0  0  0  0  0  0  0  0  0  0  0
   14.5192  -10.9680  -16.9040 C   0  0  0  0  0  0  0  0  0  0  0  0
   13.5607  -11.8610  -17.1851 N   0  0  0  0  0  0  0  0  0  0  0  0
   13.6683  -12.8444  -16.2997 C   0  0  0  0  0  0  0  0  0  0  0  0
   14.6964  -12.5691  -15.4604 N   0  0  0  0  0  0  0  0  0  0  0  0
   18.8093  -10.1177  -15.5725 C   0  0  0  0  0  0  0  0  0  0  0  0
   19.3272  -10.2737  -14.4259 O   0  0  0  0  0  0  0  0  0  0  0  0
   19.3798   -9.1487  -16.4095 N   0  0  0  0  0  0  0  0  0  0  0  0
   20.5409   -8.3985  -16.0546 C   0  0  1  0  0  0  0  0  0  0  0  0
   21.4586   -8.0391  -17.1699 C   0  0  0  0  0  0  0  0  0  0  0  0
   22.6858   -7.3860  -16.6708 C   0  0  0  0  0  0  0  0  0  0  0  0
   22.8455   -7.3144  -15.4277 O   0  0  0  0  0  0  0  0  0  0  0  0
   20.1363   -7.1382  -15.3228 C   0  0  0  0  0  0  0  0  0  0  0  0
   19.2385   -6.3895  -15.8110 O   0  0  0  0  0  0  0  0  0  0  0  0
   23.6624   -6.8527  -17.4815 O   0  0  0  0  0  0  0  0  0  0  0  0
   18.2210   -1.5257   -8.7440 O   0  0  0  0  0  0  0  0  0  0  0  0
   18.6535   -2.5601   -9.5747 C   0  0  0  0  0  0  0  0  0  0  0  0
   18.9748   -2.3880  -10.8921 C   0  0  0  0  0  0  0  0  0  0  0  0
   19.3967   -3.4504  -11.6624 C   0  0  0  0  0  0  0  0  0  0  0  0
   19.5186   -4.7285  -11.1629 C   0  0  0  0  0  0  0  0  0  0  0  0
   19.9602   -5.9013  -11.9438 C   0  0  0  0  0  0  0  0  0  0  0  0
   20.3756   -5.5745  -13.3483 C   0  0  2  0  0  0  0  0  0  0  0  0
   20.7377   -6.7661  -14.0940 N   0  0  0  0  0  0  0  0  0  0  0  0
   21.4399   -4.5666  -13.4436 C   0  0  0  0  0  0  0  0  0  0  0  0
   21.2096   -3.2389  -13.7778 O   0  0  0  0  0  0  0  0  0  0  0  0
   19.1862   -4.8865   -9.8153 C   0  0  0  0  0  0  0  0  0  0  0  0
   18.7640   -3.8255   -9.0422 C   0  0  0  0  0  0  0  0  0  0  0  0
   22.6304   -4.8876  -13.2179 O   0  0  0  0  0  0  0  0  0  0  0  0
  2  3  1  0
  2  1  1  1
  3  4  1  0
  4  5  2  0
  5  6  1  0
  7  6  1  0
  8  4  1  0
  8  7  2  0
  9 10  2  0
  9  2  1  0
 11  9  1  0
 12 11  1  0
 13 14  1  0
 12 13  1  6
 14 15  2  0
 16 17  2  0
 16 12  1  0
 18 14  1  0
 20 19  1  0
 21 20  2  0
 22 21  1  0
 23 29  1  0
 23 22  2  0
 24 23  1  0
 25 24  1  1
 25 26  1  0
 26 16  1  0
 27 25  1  0
 28 27  1  0
 29 30  2  0
 30 20  1  0
 31 27  2  0
M  END
$$$$
