HDY.pdb
     RDKit          3D

 31 32  0  0  1  0  0  0  0  0999 V2000
   28.1950  -34.4552   -5.2640 N   0  0  0  0  0  0  0  0  0  0  0  0
   27.8726  -33.0722   -4.9660 C   0  0  1  0  0  0  0  0  0  0  0  0
   27.4467  -32.3232   -6.1715 C   0  0  0  0  0  0  0  0  0  0  0  0
   26.3152  -32.9832   -6.8525 C   0  0  0  0  0  0  0  0  0  0  0  0
   25.0523  -33.2147   -6.3182 C   0  0  0  0  0  0  0  0  0  0  0  0
   24.2867  -33.8360   -7.2254 N   0  0  0  0  0  0  0  0  0  0  0  0
   25.0266  -34.0038   -8.3149 C   0  0  0  0  0  0  0  0  0  0  0  0
   26.2596  -33.4870   -8.0922 N   0  0  0  0  0  0  0  0  0  0  0  0
   27.0227  -32.9561   -3.7770 C   0  0  0  0  0  0  0  0  0  0  0  0
   26.8132  -31.7903   -3.3247 O   0  0  0  0  0  0  0  0  0  0  0  0
   26.4255  -34.0267   -3.0971 N   0  0  0  0  0  0  0  0  0  0  0  0
   25.5572  -33.8518   -1.9780 C   0  0  1  0  0  0  0  0  0  0  0  0
   24.3137  -34.6697   -1.9757 C   0  0  0  0  0  0  0  0  0  0  0  0
   23.4386  -34.3195   -0.8384 C   0  0  0  0  0  0  0  0  0  0  0  0
   23.4231  -35.0960    0.1478 O   0  0  0  0  0  0  0  0  0  0  0  0
   26.3153  -34.1028   -0.6935 C   0  0  0  0  0  0  0  0  0  0  0  0
   27.2084  -35.0006   -0.6568 O   0  0  0  0  0  0  0  0  0  0  0  0
   22.6415  -33.1980   -0.7929 O   0  0  0  0  0  0  0  0  0  0  0  0
   31.7725  -33.3838    5.8892 O   0  0  0  0  0  0  0  0  0  0  0  0
   30.9300  -33.3885    4.7769 C   0  0  0  0  0  0  0  0  0  0  0  0
   30.5543  -34.5255    4.1177 C   0  0  0  0  0  0  0  0  0  0  0  0
   29.7183  -34.4657    3.0233 C   0  0  0  0  0  0  0  0  0  0  0  0
   29.2183  -33.2788    2.5340 C   0  0  0  0  0  0  0  0  0  0  0  0
   28.3250  -33.1576    1.3645 C   0  0  0  0  0  0  0  0  0  0  0  0
   26.8796  -33.4148    1.6749 C   0  0  2  0  0  0  0  0  0  0  0  0
   26.0538  -33.3554    0.4826 N   0  0  0  0  0  0  0  0  0  0  0  0
   26.3254  -32.5516    2.7263 C   0  0  0  0  0  0  0  0  0  0  0  0
   26.7541  -32.5808    4.0464 O   0  0  0  0  0  0  0  0  0  0  0  0
   29.6123  -32.1271    3.2194 C   0  0  0  0  0  0  0  0  0  0  0  0
   30.4484  -32.1840    4.3146 C   0  0  0  0  0  0  0  0  0  0  0  0
   25.4158  -31.7337    2.4522 O   0  0  0  0  0  0  0  0  0  0  0  0
  2  3  1  0
  2  1  1  6
  3  4  1  0
  4  5  2  0
  5  6  1  0
  7  6  1  0
  8  4  1  0
  8  7  2  0
  9 10  2  0
  9  2  1  0
 11  9  1  0
 12 11  1  0
 13 14  1  0
 12 13  1  6
 14 15  2  0
 16 17  2  0
 16 12  1  0
 18 14  1  0
 20 19  1  0
 21 20  2  0
 22 21  1  0
 23 29  1  0
 23 22  2  0
 24 23  1  0
 25 24  1  6
 25 26  1  0
 26 16  1  0
 27 25  1  0
 28 27  1  0
 29 30  2  0
 30 20  1  0
 31 27  2  0
M  END
$$$$
