HDY.pdb
     RDKit          3D

 31 32  0  0  1  0  0  0  0  0999 V2000
   26.7625  -15.4855  -19.1661 N   0  0  0  0  0  0  0  0  0  0  0  0
   26.4610  -16.6715  -18.3864 C   0  0  1  0  0  0  0  0  0  0  0  0
   27.4579  -16.9075  -17.3158 C   0  0  0  0  0  0  0  0  0  0  0  0
   28.8106  -17.1208  -17.8674 C   0  0  0  0  0  0  0  0  0  0  0  0
   29.8673  -16.2172  -17.8334 C   0  0  0  0  0  0  0  0  0  0  0  0
   30.9390  -16.7551  -18.4312 N   0  0  0  0  0  0  0  0  0  0  0  0
   30.5919  -17.9692  -18.8412 C   0  0  0  0  0  0  0  0  0  0  0  0
   29.2996  -18.1950  -18.5005 N   0  0  0  0  0  0  0  0  0  0  0  0
   25.0473  -16.7239  -18.0010 C   0  0  0  0  0  0  0  0  0  0  0  0
   24.4477  -15.6182  -17.8419 O   0  0  0  0  0  0  0  0  0  0  0  0
   24.3049  -17.8942  -17.7908 N   0  0  0  0  0  0  0  0  0  0  0  0
   22.9228  -17.8869  -17.4350 C   0  0  1  0  0  0  0  0  0  0  0  0
   21.9672  -18.3004  -18.4985 C   0  0  0  0  0  0  0  0  0  0  0  0
   20.5712  -18.2544  -18.0183 C   0  0  0  0  0  0  0  0  0  0  0  0
   20.1823  -17.2036  -17.4522 O   0  0  0  0  0  0  0  0  0  0  0  0
   22.7013  -18.7471  -16.2109 C   0  0  0  0  0  0  0  0  0  0  0  0
   23.3201  -19.8466  -16.0959 O   0  0  0  0  0  0  0  0  0  0  0  0
   19.6727  -19.2888  -18.1527 O   0  0  0  0  0  0  0  0  0  0  0  0
   19.9431  -21.3518   -8.1572 O   0  0  0  0  0  0  0  0  0  0  0  0
   20.1819  -20.6098   -9.3145 C   0  0  0  0  0  0  0  0  0  0  0  0
   19.2012  -20.2422  -10.1928 C   0  0  0  0  0  0  0  0  0  0  0  0
   19.4999  -19.5079  -11.3206 C   0  0  0  0  0  0  0  0  0  0  0  0
   20.7813  -19.1061  -11.6280 C   0  0  0  0  0  0  0  0  0  0  0  0
   21.1568  -18.3242  -12.8230 C   0  0  0  0  0  0  0  0  0  0  0  0
   21.5318  -19.1665  -14.0069 C   0  0  2  0  0  0  0  0  0  0  0  0
   21.8130  -18.3556  -15.1775 N   0  0  0  0  0  0  0  0  0  0  0  0
   20.5582  -20.2171  -14.3325 C   0  0  0  0  0  0  0  0  0  0  0  0
   20.6416  -21.5154  -13.8480 O   0  0  0  0  0  0  0  0  0  0  0  0
   21.7709  -19.4903  -10.7200 C   0  0  0  0  0  0  0  0  0  0  0  0
   21.4750  -20.2247   -9.5909 C   0  0  0  0  0  0  0  0  0  0  0  0
   19.5883  -19.9627  -15.0849 O   0  0  0  0  0  0  0  0  0  0  0  0
  2  3  1  0
  2  1  1  1
  3  4  1  0
  4  5  2  0
  5  6  1  0
  7  6  1  0
  8  4  1  0
  8  7  2  0
  9 10  2  0
  9  2  1  0
 11  9  1  0
 12 11  1  0
 13 14  1  0
 12 13  1  6
 14 15  2  0
 16 17  2  0
 16 12  1  0
 18 14  1  0
 20 19  1  0
 21 20  2  0
 22 21  1  0
 23 29  1  0
 23 22  2  0
 24 23  1  0
 25 24  1  1
 25 26  1  0
 26 16  1  0
 27 25  1  0
 28 27  1  0
 29 30  2  0
 30 20  1  0
 31 27  2  0
M  END
$$$$
