HDY.pdb
     RDKit          3D

 31 32  0  0  1  0  0  0  0  0999 V2000
   26.2976  -20.2504  -18.4010 N   0  0  0  0  0  0  0  0  0  0  0  0
   25.1256  -21.0685  -18.1508 C   0  0  1  0  0  0  0  0  0  0  0  0
   25.4009  -22.5132  -18.3313 C   0  0  0  0  0  0  0  0  0  0  0  0
   25.9307  -22.8035  -19.6784 C   0  0  0  0  0  0  0  0  0  0  0  0
   27.2430  -23.1385  -19.9943 C   0  0  0  0  0  0  0  0  0  0  0  0
   27.3529  -23.3307  -21.3157 N   0  0  0  0  0  0  0  0  0  0  0  0
   26.1518  -23.1276  -21.8434 C   0  0  0  0  0  0  0  0  0  0  0  0
   25.2850  -22.8070  -20.8519 N   0  0  0  0  0  0  0  0  0  0  0  0
   24.4392  -20.6721  -16.9174 C   0  0  0  0  0  0  0  0  0  0  0  0
   25.0194  -19.8213  -16.1779 O   0  0  0  0  0  0  0  0  0  0  0  0
   23.1968  -21.1578  -16.4865 N   0  0  0  0  0  0  0  0  0  0  0  0
   22.5458  -20.6929  -15.3046 C   0  0  1  0  0  0  0  0  0  0  0  0
   22.2208  -19.2411  -15.2600 C   0  0  0  0  0  0  0  0  0  0  0  0
   21.1862  -18.9497  -14.2469 C   0  0  0  0  0  0  0  0  0  0  0  0
   20.0870  -18.4953  -14.6482 O   0  0  0  0  0  0  0  0  0  0  0  0
   21.2823  -21.4890  -15.0652 C   0  0  0  0  0  0  0  0  0  0  0  0
   20.2929  -21.3453  -15.8433 O   0  0  0  0  0  0  0  0  0  0  0  0
   21.3518  -19.1451  -12.8942 O   0  0  0  0  0  0  0  0  0  0  0  0
   15.4254  -26.7985  -10.8895 O   0  0  0  0  0  0  0  0  0  0  0  0
   16.5859  -26.1456  -11.3064 C   0  0  0  0  0  0  0  0  0  0  0  0
   17.4222  -26.6325  -12.2717 C   0  0  0  0  0  0  0  0  0  0  0  0
   18.5556  -25.9403  -12.6412 C   0  0  0  0  0  0  0  0  0  0  0  0
   18.9105  -24.7372  -12.0715 C   0  0  0  0  0  0  0  0  0  0  0  0
   20.1138  -23.9581  -12.4256 C   0  0  0  0  0  0  0  0  0  0  0  0
   19.9503  -23.1131  -13.6549 C   0  0  2  0  0  0  0  0  0  0  0  0
   21.1711  -22.4007  -13.9852 N   0  0  0  0  0  0  0  0  0  0  0  0
   18.8130  -22.1849  -13.6022 C   0  0  0  0  0  0  0  0  0  0  0  0
   17.5548  -22.4857  -14.1059 O   0  0  0  0  0  0  0  0  0  0  0  0
   18.0450  -24.2544  -11.0870 C   0  0  0  0  0  0  0  0  0  0  0  0
   16.9104  -24.9446  -10.7155 C   0  0  0  0  0  0  0  0  0  0  0  0
   18.9505  -21.0528  -13.0818 O   0  0  0  0  0  0  0  0  0  0  0  0
  2  3  1  0
  2  1  1  1
  3  4  1  0
  4  5  2  0
  5  6  1  0
  7  6  1  0
  8  4  1  0
  8  7  2  0
  9 10  2  0
  9  2  1  0
 11  9  1  0
 12 11  1  0
 13 14  1  0
 12 13  1  6
 14 15  2  0
 16 17  2  0
 16 12  1  0
 18 14  1  0
 20 19  1  0
 21 20  2  0
 22 21  1  0
 23 29  1  0
 23 22  2  0
 24 23  1  0
 25 24  1  1
 25 26  1  0
 26 16  1  0
 27 25  1  0
 28 27  1  0
 29 30  2  0
 30 20  1  0
 31 27  2  0
M  END
$$$$
