HDY.pdb
     RDKit          3D

 31 32  0  0  1  0  0  0  0  0999 V2000
   22.5743  -14.4656  -20.2612 N   0  0  0  0  0  0  0  0  0  0  0  0
   22.6140  -15.8793  -19.9365 C   0  0  1  0  0  0  0  0  0  0  0  0
   23.9837  -16.4372  -20.0260 C   0  0  0  0  0  0  0  0  0  0  0  0
   24.5230  -16.3421  -21.3971 C   0  0  0  0  0  0  0  0  0  0  0  0
   25.7135  -15.7303  -21.7748 C   0  0  0  0  0  0  0  0  0  0  0  0
   25.8752  -15.8400  -23.1003 N   0  0  0  0  0  0  0  0  0  0  0  0
   24.8246  -16.5015  -23.5707 C   0  0  0  0  0  0  0  0  0  0  0  0
   24.0008  -16.8083  -22.5390 N   0  0  0  0  0  0  0  0  0  0  0  0
   21.8527  -16.1792  -18.7199 C   0  0  0  0  0  0  0  0  0  0  0  0
   21.8380  -15.2949  -17.8115 O   0  0  0  0  0  0  0  0  0  0  0  0
   21.1429  -17.3632  -18.4764 N   0  0  0  0  0  0  0  0  0  0  0  0
   20.3960  -17.5923  -17.2820 C   0  0  1  0  0  0  0  0  0  0  0  0
   18.9725  -17.9882  -17.4616 C   0  0  0  0  0  0  0  0  0  0  0  0
   18.2769  -18.1075  -16.1641 C   0  0  0  0  0  0  0  0  0  0  0  0
   18.2164  -17.0856  -15.4374 O   0  0  0  0  0  0  0  0  0  0  0  0
   21.0928  -18.6293  -16.4295 C   0  0  0  0  0  0  0  0  0  0  0  0
   21.4913  -19.7103  -16.9564 O   0  0  0  0  0  0  0  0  0  0  0  0
   17.6926  -19.2658  -15.7036 O   0  0  0  0  0  0  0  0  0  0  0  0
   25.9729  -22.1605   -9.9385 O   0  0  0  0  0  0  0  0  0  0  0  0
   25.1790  -21.2958  -10.6929 C   0  0  0  0  0  0  0  0  0  0  0  0
   23.9777  -20.8045  -10.2642 C   0  0  0  0  0  0  0  0  0  0  0  0
   23.2382  -19.9524  -11.0562 C   0  0  0  0  0  0  0  0  0  0  0  0
   23.6550  -19.5501  -12.3062 C   0  0  0  0  0  0  0  0  0  0  0  0
   22.9011  -18.6449  -13.1965 C   0  0  0  0  0  0  0  0  0  0  0  0
   22.0416  -19.3566  -14.1997 C   0  0  2  0  0  0  0  0  0  0  0  0
   21.3159  -18.4254  -15.0443 N   0  0  0  0  0  0  0  0  0  0  0  0
   21.1227  -20.3425  -13.6155 C   0  0  0  0  0  0  0  0  0  0  0  0
   19.7970  -20.0666  -13.3093 O   0  0  0  0  0  0  0  0  0  0  0  0
   24.8844  -20.0616  -12.7285 C   0  0  0  0  0  0  0  0  0  0  0  0
   25.6264  -20.9140  -11.9382 C   0  0  0  0  0  0  0  0  0  0  0  0
   21.5234  -21.5041  -13.3674 O   0  0  0  0  0  0  0  0  0  0  0  0
  2  3  1  0
  2  1  1  1
  3  4  1  0
  4  5  2  0
  5  6  1  0
  7  6  1  0
  8  4  1  0
  8  7  2  0
  9 10  2  0
  9  2  1  0
 11  9  1  0
 12 11  1  0
 13 14  1  0
 12 13  1  6
 14 15  2  0
 16 17  2  0
 16 12  1  0
 18 14  1  0
 20 19  1  0
 21 20  2  0
 22 21  1  0
 23 29  1  0
 23 22  2  0
 24 23  1  0
 25 24  1  1
 25 26  1  0
 26 16  1  0
 27 25  1  0
 28 27  1  0
 29 30  2  0
 30 20  1  0
 31 27  2  0
M  END
$$$$
