HDY.pdb
     RDKit          3D

 31 32  0  0  1  0  0  0  0  0999 V2000
   24.0617  -21.4082  -13.6561 N   0  0  0  0  0  0  0  0  0  0  0  0
   23.9488  -19.9680  -13.5195 C   0  0  1  0  0  0  0  0  0  0  0  0
   24.9850  -19.4067  -12.6212 C   0  0  0  0  0  0  0  0  0  0  0  0
   25.0280  -20.1165  -11.3274 C   0  0  0  0  0  0  0  0  0  0  0  0
   23.9329  -20.5207  -10.5713 C   0  0  0  0  0  0  0  0  0  0  0  0
   24.3563  -21.1345   -9.4581 N   0  0  0  0  0  0  0  0  0  0  0  0
   25.6836  -21.1302   -9.4880 C   0  0  0  0  0  0  0  0  0  0  0  0
   26.0955  -20.5127  -10.6220 N   0  0  0  0  0  0  0  0  0  0  0  0
   23.7686  -19.3112  -14.8179 C   0  0  0  0  0  0  0  0  0  0  0  0
   23.6112  -18.0532  -14.8153 O   0  0  0  0  0  0  0  0  0  0  0  0
   23.7525  -19.9588  -16.0611 N   0  0  0  0  0  0  0  0  0  0  0  0
   23.4762  -19.2837  -17.2877 C   0  0  1  0  0  0  0  0  0  0  0  0
   24.0186  -19.9138  -18.5224 C   0  0  0  0  0  0  0  0  0  0  0  0
   23.8285  -19.0443  -19.7011 C   0  0  0  0  0  0  0  0  0  0  0  0
   23.0902  -19.4654  -20.6249 O   0  0  0  0  0  0  0  0  0  0  0  0
   21.9843  -19.0924  -17.4459 C   0  0  0  0  0  0  0  0  0  0  0  0
   21.1952  -20.0385  -17.1507 O   0  0  0  0  0  0  0  0  0  0  0  0
   24.4087  -17.8047  -19.8492 O   0  0  0  0  0  0  0  0  0  0  0  0
   18.1461  -21.5587  -13.2710 O   0  0  0  0  0  0  0  0  0  0  0  0
   18.5148  -20.4776  -14.0725 C   0  0  0  0  0  0  0  0  0  0  0  0
   19.6333  -19.7224  -13.8557 C   0  0  0  0  0  0  0  0  0  0  0  0
   19.9450  -18.6652  -14.6836 C   0  0  0  0  0  0  0  0  0  0  0  0
   19.1637  -18.3097  -15.7612 C   0  0  0  0  0  0  0  0  0  0  0  0
   19.4480  -17.1855  -16.6754 C   0  0  0  0  0  0  0  0  0  0  0  0
   20.0121  -17.6078  -18.0003 C   0  0  2  0  0  0  0  0  0  0  0  0
   21.4369  -17.8731  -17.9192 N   0  0  0  0  0  0  0  0  0  0  0  0
   19.7251  -16.6793  -19.1018 C   0  0  0  0  0  0  0  0  0  0  0  0
   18.4490  -16.2284  -19.4107 O   0  0  0  0  0  0  0  0  0  0  0  0
   18.0248  -19.0918  -15.9680 C   0  0  0  0  0  0  0  0  0  0  0  0
   17.7107  -20.1500  -15.1415 C   0  0  0  0  0  0  0  0  0  0  0  0
   20.6583  -16.2516  -19.8213 O   0  0  0  0  0  0  0  0  0  0  0  0
  2  3  1  0
  2  1  1  6
  3  4  1  0
  4  5  2  0
  5  6  1  0
  7  6  1  0
  8  4  1  0
  8  7  2  0
  9 10  2  0
  9  2  1  0
 11  9  1  0
 12 11  1  0
 13 14  1  0
 12 13  1  6
 14 15  2  0
 16 17  2  0
 16 12  1  0
 18 14  1  0
 20 19  1  0
 21 20  2  0
 22 21  1  0
 23 29  1  0
 23 22  2  0
 24 23  1  0
 25 24  1  1
 25 26  1  0
 26 16  1  0
 27 25  1  0
 28 27  1  0
 29 30  2  0
 30 20  1  0
 31 27  2  0
M  END
$$$$
