HDY.pdb
     RDKit          3D

 31 32  0  0  1  0  0  0  0  0999 V2000
   26.5212  -17.7542  -18.4797 N   0  0  0  0  0  0  0  0  0  0  0  0
   25.2622  -18.4614  -18.3367 C   0  0  1  0  0  0  0  0  0  0  0  0
   24.3439  -18.2073  -19.4715 C   0  0  0  0  0  0  0  0  0  0  0  0
   24.0650  -16.7668  -19.6356 C   0  0  0  0  0  0  0  0  0  0  0  0
   22.8438  -16.1342  -19.4291 C   0  0  0  0  0  0  0  0  0  0  0  0
   22.9687  -14.8231  -19.6750 N   0  0  0  0  0  0  0  0  0  0  0  0
   24.2298  -14.6086  -20.0301 C   0  0  0  0  0  0  0  0  0  0  0  0
   24.8991  -15.7870  -20.0074 N   0  0  0  0  0  0  0  0  0  0  0  0
   25.4655  -19.8601  -17.9470 C   0  0  0  0  0  0  0  0  0  0  0  0
   24.4387  -20.6014  -17.8878 O   0  0  0  0  0  0  0  0  0  0  0  0
   26.6998  -20.4447  -17.6311 N   0  0  0  0  0  0  0  0  0  0  0  0
   26.8262  -21.7739  -17.1270 C   0  0  1  0  0  0  0  0  0  0  0  0
   28.1307  -22.4484  -17.3694 C   0  0  0  0  0  0  0  0  0  0  0  0
   28.6285  -22.1874  -18.7353 C   0  0  0  0  0  0  0  0  0  0  0  0
   29.6517  -21.4705  -18.8573 O   0  0  0  0  0  0  0  0  0  0  0  0
   26.5287  -21.7931  -15.6442 C   0  0  0  0  0  0  0  0  0  0  0  0
   27.4840  -21.8195  -14.8126 O   0  0  0  0  0  0  0  0  0  0  0  0
   28.0421  -22.6799  -19.8793 O   0  0  0  0  0  0  0  0  0  0  0  0
   24.5795  -20.7450   -7.3755 O   0  0  0  0  0  0  0  0  0  0  0  0
   24.7608  -20.7128   -8.7586 C   0  0  0  0  0  0  0  0  0  0  0  0
   23.8000  -20.2980   -9.6378 C   0  0  0  0  0  0  0  0  0  0  0  0
   24.0392  -20.2888  -10.9953 C   0  0  0  0  0  0  0  0  0  0  0  0
   25.2388  -20.6897  -11.5414 C   0  0  0  0  0  0  0  0  0  0  0  0
   25.5458  -20.7045  -12.9857 C   0  0  0  0  0  0  0  0  0  0  0  0
   24.8624  -21.8068  -13.7405 C   0  0  2  0  0  0  0  0  0  0  0  0
   25.1990  -21.7820  -15.1523 N   0  0  0  0  0  0  0  0  0  0  0  0
   23.4050  -21.8474  -13.5614 C   0  0  0  0  0  0  0  0  0  0  0  0
   22.7788  -22.5358  -12.5312 O   0  0  0  0  0  0  0  0  0  0  0  0
   26.2092  -21.1104  -10.6288 C   0  0  0  0  0  0  0  0  0  0  0  0
   25.9728  -21.1205   -9.2703 C   0  0  0  0  0  0  0  0  0  0  0  0
   22.6570  -21.2394  -14.3627 O   0  0  0  0  0  0  0  0  0  0  0  0
  2  3  1  0
  2  1  1  6
  3  4  1  0
  4  5  2  0
  5  6  1  0
  7  6  1  0
  8  4  1  0
  8  7  2  0
  9 10  2  0
  9  2  1  0
 11  9  1  0
 12 11  1  0
 13 14  1  0
 12 13  1  1
 14 15  2  0
 16 17  2  0
 16 12  1  0
 18 14  1  0
 20 19  1  0
 21 20  2  0
 22 21  1  0
 23 29  1  0
 23 22  2  0
 24 23  1  0
 25 24  1  1
 25 26  1  0
 26 16  1  0
 27 25  1  0
 28 27  1  0
 29 30  2  0
 30 20  1  0
 31 27  2  0
M  END
$$$$
