HDY.pdb
     RDKit          3D

 31 32  0  0  1  0  0  0  0  0999 V2000
   17.3000  -20.2125   14.1762 N   0  0  0  0  0  0  0  0  0  0  0  0
   18.1180  -19.8258   13.0418 C   0  0  1  0  0  0  0  0  0  0  0  0
   17.5457  -20.2860   11.7548 C   0  0  0  0  0  0  0  0  0  0  0  0
   18.5752  -20.3736   10.7002 C   0  0  0  0  0  0  0  0  0  0  0  0
   19.6865  -21.2098   10.6995 C   0  0  0  0  0  0  0  0  0  0  0  0
   20.3965  -21.0140    9.5802 N   0  0  0  0  0  0  0  0  0  0  0  0
   19.7684  -20.0808    8.8750 C   0  0  0  0  0  0  0  0  0  0  0  0
   18.6616  -19.6892    9.5521 N   0  0  0  0  0  0  0  0  0  0  0  0
   18.5288  -18.4207   13.1215 C   0  0  0  0  0  0  0  0  0  0  0  0
   17.6791  -17.5918   13.5669 O   0  0  0  0  0  0  0  0  0  0  0  0
   19.7812  -17.9172   12.7433 N   0  0  0  0  0  0  0  0  0  0  0  0
   20.1531  -16.5492   12.9075 C   0  0  1  0  0  0  0  0  0  0  0  0
   20.6507  -16.1596   14.2550 C   0  0  0  0  0  0  0  0  0  0  0  0
   20.7858  -14.6939   14.3783 C   0  0  0  0  0  0  0  0  0  0  0  0
   20.3316  -13.9849   13.4472 O   0  0  0  0  0  0  0  0  0  0  0  0
   21.1862  -16.1680   11.8707 C   0  0  0  0  0  0  0  0  0  0  0  0
   22.2434  -16.8563   11.7552 O   0  0  0  0  0  0  0  0  0  0  0  0
   21.3768  -14.0590   15.4473 O   0  0  0  0  0  0  0  0  0  0  0  0
   19.9554  -19.9069    6.9577 O   0  0  0  0  0  0  0  0  0  0  0  0
   20.2540  -18.6076    7.3696 C   0  0  0  0  0  0  0  0  0  0  0  0
   19.3077  -17.6424    7.5724 C   0  0  0  0  0  0  0  0  0  0  0  0
   19.6654  -16.3751    7.9801 C   0  0  0  0  0  0  0  0  0  0  0  0
   20.9742  -16.0082    8.2044 C   0  0  0  0  0  0  0  0  0  0  0  0
   21.4123  -14.6657    8.6361 C   0  0  0  0  0  0  0  0  0  0  0  0
   21.9785  -14.6292   10.0253 C   0  0  2  0  0  0  0  0  0  0  0  0
   21.0046  -15.0520   11.0152 N   0  0  0  0  0  0  0  0  0  0  0  0
   22.5666  -13.3373   10.4034 C   0  0  0  0  0  0  0  0  0  0  0  0
   22.1705  -12.6128   11.5194 O   0  0  0  0  0  0  0  0  0  0  0  0
   21.9280  -17.0065    7.9923 C   0  0  0  0  0  0  0  0  0  0  0  0
   21.5731  -18.2752    7.5846 C   0  0  0  0  0  0  0  0  0  0  0  0
   23.4763  -12.8330    9.7038 O   0  0  0  0  0  0  0  0  0  0  0  0
  2  3  1  0
  2  1  1  1
  3  4  1  0
  4  5  2  0
  5  6  1  0
  7  6  1  0
  8  4  1  0
  8  7  2  0
  9 10  2  0
  9  2  1  0
 11  9  1  0
 12 11  1  0
 13 14  1  0
 12 13  1  1
 14 15  2  0
 16 17  2  0
 16 12  1  0
 18 14  1  0
 20 19  1  0
 21 20  2  0
 22 21  1  0
 23 29  1  0
 23 22  2  0
 24 23  1  0
 25 24  1  6
 25 26  1  0
 26 16  1  0
 27 25  1  0
 28 27  1  0
 29 30  2  0
 30 20  1  0
 31 27  2  0
M  END
$$$$
