HDY.pdb
     RDKit          3D

 31 32  0  0  1  0  0  0  0  0999 V2000
   14.5769  -18.9793    2.6898 N   0  0  0  0  0  0  0  0  0  0  0  0
   15.2794  -19.8012    3.6576 C   0  0  1  0  0  0  0  0  0  0  0  0
   16.0857  -20.8632    3.0116 C   0  0  0  0  0  0  0  0  0  0  0  0
   15.2564  -21.7315    2.1526 C   0  0  0  0  0  0  0  0  0  0  0  0
   15.2349  -21.7380    0.7621 C   0  0  0  0  0  0  0  0  0  0  0  0
   14.3613  -22.6574    0.3296 N   0  0  0  0  0  0  0  0  0  0  0  0
   13.8311  -23.2309    1.4032 C   0  0  0  0  0  0  0  0  0  0  0  0
   14.3723  -22.6711    2.5127 N   0  0  0  0  0  0  0  0  0  0  0  0
   15.9475  -18.9879    4.6783 C   0  0  0  0  0  0  0  0  0  0  0  0
   16.3648  -17.8434    4.3272 O   0  0  0  0  0  0  0  0  0  0  0  0
   16.1663  -19.3719    6.0087 N   0  0  0  0  0  0  0  0  0  0  0  0
   16.7829  -18.5207    6.9741 C   0  0  1  0  0  0  0  0  0  0  0  0
   16.3747  -18.7277    8.3903 C   0  0  0  0  0  0  0  0  0  0  0  0
   14.9145  -18.5817    8.5587 C   0  0  0  0  0  0  0  0  0  0  0  0
   14.2720  -19.5766    8.9749 O   0  0  0  0  0  0  0  0  0  0  0  0
   18.2879  -18.6324    6.8730 C   0  0  0  0  0  0  0  0  0  0  0  0
   18.8091  -19.6893    6.4083 O   0  0  0  0  0  0  0  0  0  0  0  0
   14.2166  -17.4262    8.2885 O   0  0  0  0  0  0  0  0  0  0  0  0
   20.6681  -11.1637    7.3029 O   0  0  0  0  0  0  0  0  0  0  0  0
   20.7045  -12.5096    6.9366 C   0  0  0  0  0  0  0  0  0  0  0  0
   19.8651  -13.0645    6.0114 C   0  0  0  0  0  0  0  0  0  0  0  0
   19.9500  -14.4025    5.6911 C   0  0  0  0  0  0  0  0  0  0  0  0
   20.8684  -15.2491    6.2722 C   0  0  0  0  0  0  0  0  0  0  0  0
   20.9988  -16.6886    5.9701 C   0  0  0  0  0  0  0  0  0  0  0  0
   20.5805  -17.5861    7.0976 C   0  0  2  0  0  0  0  0  0  0  0  0
   19.1413  -17.5784    7.2867 N   0  0  0  0  0  0  0  0  0  0  0  0
   21.2663  -17.3179    8.3686 C   0  0  0  0  0  0  0  0  0  0  0  0
   22.6238  -17.5308    8.5662 O   0  0  0  0  0  0  0  0  0  0  0  0
   21.7181  -14.6657    7.2152 C   0  0  0  0  0  0  0  0  0  0  0  0
   21.6356  -13.3274    7.5375 C   0  0  0  0  0  0  0  0  0  0  0  0
   20.6221  -16.8729    9.3476 O   0  0  0  0  0  0  0  0  0  0  0  0
  2  3  1  0
  2  1  1  6
  3  4  1  0
  4  5  2  0
  5  6  1  0
  7  6  1  0
  8  4  1  0
  8  7  2  0
  9 10  2  0
  9  2  1  0
 11  9  1  0
 12 11  1  0
 13 14  1  0
 12 13  1  1
 14 15  2  0
 16 17  2  0
 16 12  1  0
 18 14  1  0
 20 19  1  0
 21 20  2  0
 22 21  1  0
 23 29  1  0
 23 22  2  0
 24 23  1  0
 25 24  1  6
 25 26  1  0
 26 16  1  0
 27 25  1  0
 28 27  1  0
 29 30  2  0
 30 20  1  0
 31 27  2  0
M  END
$$$$
