SYE.pdb
     RDKit          3D

 28 28  0  0  1  0  0  0  0  0999 V2000
   18.5234  -11.8559  -14.4413 O   0  0  0  0  0  0  0  0  0  0  0  0
   17.4719  -10.9620  -14.2016 C   0  0  0  0  0  0  0  0  0  0  0  0
   16.4978  -11.5762  -13.2088 C   0  0  2  0  0  0  0  0  0  0  0  0
   15.4997  -12.3259  -13.9096 N   0  0  0  0  0  0  0  0  0  0  0  0
   15.9217  -10.4461  -12.4300 C   0  0  0  0  0  0  0  0  0  0  0  0
   15.0906   -9.6921  -12.9988 O   0  0  0  0  0  0  0  0  0  0  0  0
    9.7520  -11.4569  -10.0018 O   0  0  0  0  0  0  0  0  0  0  0  0
   11.0401  -10.9862   -9.7788 C   0  0  0  0  0  0  0  0  0  0  0  0
   12.1001  -11.8582   -9.9040 C   0  0  0  0  0  0  0  0  0  0  0  0
   13.4164  -11.4324   -9.6896 C   0  0  0  0  0  0  0  0  0  0  0  0
   13.6878  -10.1333   -9.3482 C   0  0  0  0  0  0  0  0  0  0  0  0
   15.0616   -9.6528   -9.1082 C   0  0  0  0  0  0  0  0  0  0  0  0
   15.6443   -9.0598  -10.3641 C   0  0  2  0  0  0  0  0  0  0  0  0
   16.2605  -10.1748  -11.0808 N   0  0  0  0  0  0  0  0  0  0  0  0
   16.6623   -8.0681  -10.0253 C   0  0  0  0  0  0  0  0  0  0  0  0
   17.6497   -8.2865   -9.2782 O   0  0  0  0  0  0  0  0  0  0  0  0
   12.6133   -9.2682   -9.2260 C   0  0  0  0  0  0  0  0  0  0  0  0
   11.3140   -9.6837   -9.4365 C   0  0  0  0  0  0  0  0  0  0  0  0
   16.5476   -6.7618  -10.5662 N   0  0  0  0  0  0  0  0  0  0  0  0
   17.4286   -5.7121  -10.0996 C   0  0  1  0  0  0  0  0  0  0  0  0
   18.3601   -5.4058  -11.2390 C   0  0  0  0  0  0  0  0  0  0  0  0
   19.4257   -6.4230  -11.4488 C   0  0  0  0  0  0  0  0  0  0  0  0
   20.2515   -6.0497  -12.6192 C   0  0  0  0  0  0  0  0  0  0  0  0
   19.9043   -5.0972  -13.3513 O   0  0  0  0  0  0  0  0  0  0  0  0
   16.5961   -4.5735   -9.6685 C   0  0  0  0  0  0  0  0  0  0  0  0
   17.1556   -3.6064   -9.1021 O   0  0  0  0  0  0  0  0  0  0  0  0
   21.4267   -6.7256  -12.9527 O   0  0  0  0  0  0  0  0  0  0  0  0
   15.2232   -4.4797   -9.8398 O   0  0  0  0  0  0  0  0  0  0  0  0
  2  1  1  0
  3  4  1  6
  3  2  1  0
  5  3  1  0
  6  5  2  0
  8  7  1  0
  9  8  2  0
 10  9  1  0
 11 17  1  0
 11 10  2  0
 12 11  1  0
 13 12  1  1
 13 15  1  0
 13 14  1  0
 14  5  1  0
 15 16  2  0
 17 18  2  0
 18  8  1  0
 19 20  1  0
 19 15  1  0
 20 25  1  0
 20 21  1  6
 22 21  1  0
 23 24  2  0
 23 22  1  0
 25 26  2  0
 25 28  1  0
 27 23  1  0
M  END
$$$$
