SYE.pdb
     RDKit          3D

 28 28  0  0  1  0  0  0  0  0999 V2000
   21.6326  -11.6203  -19.2215 O   0  0  0  0  0  0  0  0  0  0  0  0
   21.0366  -10.6717  -18.3806 C   0  0  0  0  0  0  0  0  0  0  0  0
   21.0721  -11.1705  -16.9448 C   0  0  2  0  0  0  0  0  0  0  0  0
   20.2971  -12.3685  -16.8284 N   0  0  0  0  0  0  0  0  0  0  0  0
   20.5434  -10.0638  -16.1013 C   0  0  0  0  0  0  0  0  0  0  0  0
   19.2972   -9.9020  -16.0421 O   0  0  0  0  0  0  0  0  0  0  0  0
   19.2041   -4.5910   -9.5003 O   0  0  0  0  0  0  0  0  0  0  0  0
   19.8205   -5.3838  -10.4604 C   0  0  0  0  0  0  0  0  0  0  0  0
   19.5515   -6.7354  -10.4825 C   0  0  0  0  0  0  0  0  0  0  0  0
   20.1475   -7.5763  -11.4301 C   0  0  0  0  0  0  0  0  0  0  0  0
   21.0171   -7.0772  -12.3640 C   0  0  0  0  0  0  0  0  0  0  0  0
   21.6680   -7.9354  -13.3719 C   0  0  0  0  0  0  0  0  0  0  0  0
   20.7920   -8.0853  -14.5878 C   0  0  2  0  0  0  0  0  0  0  0  0
   21.3706   -9.1825  -15.3612 N   0  0  0  0  0  0  0  0  0  0  0  0
   20.8171   -6.8572  -15.3789 C   0  0  0  0  0  0  0  0  0  0  0  0
   21.7910   -6.4794  -16.0785 O   0  0  0  0  0  0  0  0  0  0  0  0
   21.2782   -5.7176  -12.3303 C   0  0  0  0  0  0  0  0  0  0  0  0
   20.6928   -4.8849  -11.3979 C   0  0  0  0  0  0  0  0  0  0  0  0
   19.6733   -6.0182  -15.3710 N   0  0  0  0  0  0  0  0  0  0  0  0
   19.6795   -4.7894  -16.1364 C   0  0  1  0  0  0  0  0  0  0  0  0
   18.3546   -4.7265  -16.8438 C   0  0  0  0  0  0  0  0  0  0  0  0
   18.1084   -3.4514  -17.5702 C   0  0  0  0  0  0  0  0  0  0  0  0
   16.9578   -3.6112  -18.4877 C   0  0  0  0  0  0  0  0  0  0  0  0
   16.0804   -2.7224  -18.5509 O   0  0  0  0  0  0  0  0  0  0  0  0
   19.9288   -3.6720  -15.2066 C   0  0  0  0  0  0  0  0  0  0  0  0
   19.6222   -3.8197  -14.0010 O   0  0  0  0  0  0  0  0  0  0  0  0
   16.8015   -4.7324  -19.3047 O   0  0  0  0  0  0  0  0  0  0  0  0
   20.4836   -2.4508  -15.5584 O   0  0  0  0  0  0  0  0  0  0  0  0
  2  1  1  0
  3  4  1  6
  3  2  1  0
  5  3  1  0
  6  5  2  0
  8  7  1  0
  9  8  2  0
 10  9  1  0
 11 17  1  0
 11 10  2  0
 12 11  1  0
 13 12  1  1
 13 15  1  0
 13 14  1  0
 14  5  1  0
 15 16  2  0
 17 18  2  0
 18  8  1  0
 19 20  1  0
 19 15  1  0
 20 25  1  0
 20 21  1  1
 22 21  1  0
 23 24  2  0
 23 22  1  0
 25 26  2  0
 25 28  1  0
 27 23  1  0
M  END
$$$$
