SYE.pdb
     RDKit          3D

 28 28  0  0  1  0  0  0  0  0999 V2000
   16.8386  -12.6339  -14.2637 O   0  0  0  0  0  0  0  0  0  0  0  0
   17.3879  -11.4910  -14.8588 C   0  0  0  0  0  0  0  0  0  0  0  0
   17.3023  -11.6137  -16.3718 C   0  0  2  0  0  0  0  0  0  0  0  0
   18.1839  -12.6466  -16.8251 N   0  0  0  0  0  0  0  0  0  0  0  0
   17.6565  -10.2774  -16.9234 C   0  0  0  0  0  0  0  0  0  0  0  0
   18.8234  -10.1024  -17.3599 O   0  0  0  0  0  0  0  0  0  0  0  0
   15.8635  -10.2909  -23.3153 O   0  0  0  0  0  0  0  0  0  0  0  0
   15.8735   -9.6175  -22.1001 C   0  0  0  0  0  0  0  0  0  0  0  0
   16.6058   -8.4553  -21.9874 C   0  0  0  0  0  0  0  0  0  0  0  0
   16.6477   -7.7404  -20.7844 C   0  0  0  0  0  0  0  0  0  0  0  0
   15.9602   -8.1779  -19.6828 C   0  0  0  0  0  0  0  0  0  0  0  0
   15.9880   -7.4534  -18.3982 C   0  0  0  0  0  0  0  0  0  0  0  0
   17.1509   -7.9086  -17.5563 C   0  0  2  0  0  0  0  0  0  0  0  0
   16.7479   -9.1912  -16.9827 N   0  0  0  0  0  0  0  0  0  0  0  0
   17.4024   -6.9466  -16.4859 C   0  0  0  0  0  0  0  0  0  0  0  0
   16.6309   -6.7431  -15.5143 O   0  0  0  0  0  0  0  0  0  0  0  0
   15.2286   -9.3469  -19.8103 C   0  0  0  0  0  0  0  0  0  0  0  0
   15.1843  -10.0547  -20.9944 C   0  0  0  0  0  0  0  0  0  0  0  0
   18.5942   -6.1783  -16.5264 N   0  0  0  0  0  0  0  0  0  0  0  0
   18.9012   -5.2724  -15.4397 C   0  0  1  0  0  0  0  0  0  0  0  0
   20.2247   -5.7161  -14.8819 C   0  0  0  0  0  0  0  0  0  0  0  0
   20.7871   -4.8091  -13.8449 C   0  0  0  0  0  0  0  0  0  0  0  0
   22.1335   -5.2773  -13.4462 C   0  0  0  0  0  0  0  0  0  0  0  0
   22.9842   -4.4578  -13.0355 O   0  0  0  0  0  0  0  0  0  0  0  0
   18.8936   -3.8977  -15.9736 C   0  0  0  0  0  0  0  0  0  0  0  0
   19.0355   -3.7364  -17.2077 O   0  0  0  0  0  0  0  0  0  0  0  0
   22.5080   -6.6208  -13.5080 O   0  0  0  0  0  0  0  0  0  0  0  0
   18.7397   -2.7480  -15.2135 O   0  0  0  0  0  0  0  0  0  0  0  0
  2  1  1  0
  3  4  1  6
  3  2  1  0
  5  3  1  0
  6  5  2  0
  8  7  1  0
  9  8  2  0
 10  9  1  0
 11 17  1  0
 11 10  2  0
 12 11  1  0
 13 12  1  6
 13 15  1  0
 13 14  1  0
 14  5  1  0
 15 16  2  0
 17 18  2  0
 18  8  1  0
 19 20  1  0
 19 15  1  0
 20 25  1  0
 20 21  1  6
 22 21  1  0
 23 24  2  0
 23 22  1  0
 25 26  2  0
 25 28  1  0
 27 23  1  0
M  END
$$$$
