SYE.pdb
     RDKit          3D

 28 28  0  0  1  0  0  0  0  0999 V2000
   26.7887  -21.6051  -18.5299 O   0  0  0  0  0  0  0  0  0  0  0  0
   25.6785  -20.8238  -18.1846 C   0  0  0  0  0  0  0  0  0  0  0  0
   26.1425  -19.4400  -17.7588 C   0  0  2  0  0  0  0  0  0  0  0  0
   27.2710  -19.5544  -16.8855 N   0  0  0  0  0  0  0  0  0  0  0  0
   24.9762  -18.7880  -17.1029 C   0  0  0  0  0  0  0  0  0  0  0  0
   24.8356  -18.9275  -15.8606 O   0  0  0  0  0  0  0  0  0  0  0  0
   17.9454  -13.7123  -15.5443 O   0  0  0  0  0  0  0  0  0  0  0  0
   19.0462  -14.3302  -16.1248 C   0  0  0  0  0  0  0  0  0  0  0  0
   20.2820  -14.1857  -15.5320 C   0  0  0  0  0  0  0  0  0  0  0  0
   21.4214  -14.7885  -16.0783 C   0  0  0  0  0  0  0  0  0  0  0  0
   21.3390  -15.5408  -17.2207 C   0  0  0  0  0  0  0  0  0  0  0  0
   22.5199  -16.1839  -17.8270 C   0  0  0  0  0  0  0  0  0  0  0  0
   22.8470  -17.4714  -17.1173 C   0  0  2  0  0  0  0  0  0  0  0  0
   24.0153  -18.0181  -17.8049 N   0  0  0  0  0  0  0  0  0  0  0  0
   21.7278  -18.4040  -17.2284 C   0  0  0  0  0  0  0  0  0  0  0  0
   21.5164  -19.1493  -18.2186 O   0  0  0  0  0  0  0  0  0  0  0  0
   20.0911  -15.6777  -17.8055 C   0  0  0  0  0  0  0  0  0  0  0  0
   18.9652  -15.0852  -17.2703 C   0  0  0  0  0  0  0  0  0  0  0  0
   20.8037  -18.4902  -16.1557 N   0  0  0  0  0  0  0  0  0  0  0  0
   19.6947  -19.4173  -16.2367 C   0  0  1  0  0  0  0  0  0  0  0  0
   19.3119  -19.7417  -14.8197 C   0  0  0  0  0  0  0  0  0  0  0  0
   18.1477  -20.6600  -14.6950 C   0  0  0  0  0  0  0  0  0  0  0  0
   17.8894  -20.9509  -13.2668 C   0  0  0  0  0  0  0  0  0  0  0  0
   18.6362  -20.4711  -12.3859 O   0  0  0  0  0  0  0  0  0  0  0  0
   18.6244  -18.7828  -17.0283 C   0  0  0  0  0  0  0  0  0  0  0  0
   18.3857  -17.5672  -16.8425 O   0  0  0  0  0  0  0  0  0  0  0  0
   16.8276  -21.7539  -12.8462 O   0  0  0  0  0  0  0  0  0  0  0  0
   17.8460  -19.4275  -17.9778 O   0  0  0  0  0  0  0  0  0  0  0  0
  2  1  1  0
  3  4  1  1
  3  2  1  0
  5  3  1  0
  6  5  2  0
  8  7  1  0
  9  8  2  0
 10  9  1  0
 11 17  1  0
 11 10  2  0
 12 11  1  0
 13 12  1  6
 13 15  1  0
 13 14  1  0
 14  5  1  0
 15 16  2  0
 17 18  2  0
 18  8  1  0
 19 20  1  0
 19 15  1  0
 20 25  1  0
 20 21  1  1
 22 21  1  0
 23 24  2  0
 23 22  1  0
 25 26  2  0
 25 28  1  0
 27 23  1  0
M  END
$$$$
