SYE.pdb
     RDKit          3D

 28 28  0  0  1  0  0  0  0  0999 V2000
   30.4431   -8.3427  -17.8986 O   0  0  0  0  0  0  0  0  0  0  0  0
   29.0479   -8.2990  -17.7828 C   0  0  0  0  0  0  0  0  0  0  0  0
   28.4608   -9.6406  -18.1915 C   0  0  2  0  0  0  0  0  0  0  0  0
   28.6863   -9.8634  -19.5876 N   0  0  0  0  0  0  0  0  0  0  0  0
   27.0135   -9.5893  -17.8476 C   0  0  0  0  0  0  0  0  0  0  0  0
   26.2147   -9.1179  -18.6975 O   0  0  0  0  0  0  0  0  0  0  0  0
   19.2240  -11.2522  -14.1566 O   0  0  0  0  0  0  0  0  0  0  0  0
   20.5820  -11.1916  -14.4437 C   0  0  0  0  0  0  0  0  0  0  0  0
   21.4269  -10.5751  -13.5461 C   0  0  0  0  0  0  0  0  0  0  0  0
   22.8028  -10.4884  -13.7899 C   0  0  0  0  0  0  0  0  0  0  0  0
   23.3488  -11.0154  -14.9309 C   0  0  0  0  0  0  0  0  0  0  0  0
   24.7925  -10.9356  -15.2226 C   0  0  0  0  0  0  0  0  0  0  0  0
   25.0579   -9.9452  -16.3257 C   0  0  2  0  0  0  0  0  0  0  0  0
   26.4879  -10.0439  -16.6123 N   0  0  0  0  0  0  0  0  0  0  0  0
   24.7374   -8.5932  -15.8741 C   0  0  0  0  0  0  0  0  0  0  0  0
   25.5592   -7.8066  -15.3389 O   0  0  0  0  0  0  0  0  0  0  0  0
   22.4883  -11.6321  -15.8237 C   0  0  0  0  0  0  0  0  0  0  0  0
   21.1312  -11.7199  -15.5874 C   0  0  0  0  0  0  0  0  0  0  0  0
   23.4125   -8.1151  -16.0419 N   0  0  0  0  0  0  0  0  0  0  0  0
   23.0854   -6.7579  -15.6583 C   0  0  1  0  0  0  0  0  0  0  0  0
   23.6482   -5.8690  -16.7320 C   0  0  0  0  0  0  0  0  0  0  0  0
   23.3118   -4.4283  -16.5727 C   0  0  0  0  0  0  0  0  0  0  0  0
   23.8962   -3.6507  -17.6884 C   0  0  0  0  0  0  0  0  0  0  0  0
   24.5495   -4.2331  -18.5817 O   0  0  0  0  0  0  0  0  0  0  0  0
   21.6224   -6.6679  -15.4958 C   0  0  0  0  0  0  0  0  0  0  0  0
   20.8973   -7.4036  -16.2045 O   0  0  0  0  0  0  0  0  0  0  0  0
   23.7497   -2.2663  -17.7939 O   0  0  0  0  0  0  0  0  0  0  0  0
   20.9690   -5.8244  -14.6101 O   0  0  0  0  0  0  0  0  0  0  0  0
  2  1  1  0
  3  4  1  6
  3  2  1  0
  5  3  1  0
  6  5  2  0
  8  7  1  0
  9  8  2  0
 10  9  1  0
 11 17  1  0
 11 10  2  0
 12 11  1  0
 13 12  1  1
 13 15  1  0
 13 14  1  0
 14  5  1  0
 15 16  2  0
 17 18  2  0
 18  8  1  0
 19 20  1  0
 19 15  1  0
 20 25  1  0
 20 21  1  6
 22 21  1  0
 23 24  2  0
 23 22  1  0
 25 26  2  0
 25 28  1  0
 27 23  1  0
M  END
$$$$
