SYE.pdb
     RDKit          3D

 28 28  0  0  1  0  0  0  0  0999 V2000
   26.4301  -18.2396  -17.9034 O   0  0  0  0  0  0  0  0  0  0  0  0
   27.7888  -18.2388  -18.2438 C   0  0  0  0  0  0  0  0  0  0  0  0
   28.4213  -19.5539  -17.8172 C   0  0  2  0  0  0  0  0  0  0  0  0
   28.4569  -20.4573  -18.9272 N   0  0  0  0  0  0  0  0  0  0  0  0
   27.6006  -20.0690  -16.6874 C   0  0  0  0  0  0  0  0  0  0  0  0
   26.7399  -20.9539  -16.9301 O   0  0  0  0  0  0  0  0  0  0  0  0
   24.4263  -21.3095   -8.5177 O   0  0  0  0  0  0  0  0  0  0  0  0
   25.1841  -20.8793   -9.5998 C   0  0  0  0  0  0  0  0  0  0  0  0
   25.3229  -21.7112  -10.6899 C   0  0  0  0  0  0  0  0  0  0  0  0
   26.0761  -21.3235  -11.8046 C   0  0  0  0  0  0  0  0  0  0  0  0
   26.6978  -20.1030  -11.8424 C   0  0  0  0  0  0  0  0  0  0  0  0
   27.5045  -19.6656  -12.9973 C   0  0  0  0  0  0  0  0  0  0  0  0
   26.9029  -20.1637  -14.2850 C   0  0  2  0  0  0  0  0  0  0  0  0
   27.7378  -19.6147  -15.3518 N   0  0  0  0  0  0  0  0  0  0  0  0
   25.5353  -19.6687  -14.4244 C   0  0  0  0  0  0  0  0  0  0  0  0
   25.2284  -18.4628  -14.6040 O   0  0  0  0  0  0  0  0  0  0  0  0
   26.5498  -19.2773  -10.7404 C   0  0  0  0  0  0  0  0  0  0  0  0
   25.8080  -19.6555   -9.6395 C   0  0  0  0  0  0  0  0  0  0  0  0
   24.4646  -20.5965  -14.3555 N   0  0  0  0  0  0  0  0  0  0  0  0
   23.0986  -20.1171  -14.3552 C   0  0  1  0  0  0  0  0  0  0  0  0
   22.4650  -20.6482  -15.6106 C   0  0  0  0  0  0  0  0  0  0  0  0
   23.0248  -20.0798  -16.8667 C   0  0  0  0  0  0  0  0  0  0  0  0
   22.3453  -20.6818  -18.0359 C   0  0  0  0  0  0  0  0  0  0  0  0
   21.1262  -20.9542  -17.9787 O   0  0  0  0  0  0  0  0  0  0  0  0
   22.4548  -20.5694  -13.1078 C   0  0  0  0  0  0  0  0  0  0  0  0
   21.7897  -19.7399  -12.4453 O   0  0  0  0  0  0  0  0  0  0  0  0
   23.0157  -20.9667  -19.2270 O   0  0  0  0  0  0  0  0  0  0  0  0
   22.5232  -21.8566  -12.5966 O   0  0  0  0  0  0  0  0  0  0  0  0
  2  1  1  0
  3  4  1  6
  3  2  1  0
  5  3  1  0
  6  5  2  0
  8  7  1  0
  9  8  2  0
 10  9  1  0
 11 17  1  0
 11 10  2  0
 12 11  1  0
 13 12  1  1
 13 15  1  0
 13 14  1  0
 14  5  1  0
 15 16  2  0
 17 18  2  0
 18  8  1  0
 19 20  1  0
 19 15  1  0
 20 25  1  0
 20 21  1  6
 22 21  1  0
 23 24  2  0
 23 22  1  0
 25 26  2  0
 25 28  1  0
 27 23  1  0
M  END
$$$$
