SYE.pdb
     RDKit          3D

 28 28  0  0  1  0  0  0  0  0999 V2000
   26.3603  -26.5582  -23.2898 O   0  0  0  0  0  0  0  0  0  0  0  0
   26.3093  -27.1352  -22.0144 C   0  0  0  0  0  0  0  0  0  0  0  0
   26.6208  -26.0798  -20.9653 C   0  0  2  0  0  0  0  0  0  0  0  0
   27.0409  -24.8698  -21.6047 N   0  0  0  0  0  0  0  0  0  0  0  0
   27.6745  -26.6574  -20.0869 C   0  0  0  0  0  0  0  0  0  0  0  0
   28.8400  -26.1906  -20.1671 O   0  0  0  0  0  0  0  0  0  0  0  0
   26.3787  -22.4259  -16.1822 O   0  0  0  0  0  0  0  0  0  0  0  0
   26.7068  -23.7669  -16.3383 C   0  0  0  0  0  0  0  0  0  0  0  0
   28.0275  -24.1131  -16.5265 C   0  0  0  0  0  0  0  0  0  0  0  0
   28.4088  -25.4505  -16.6886 C   0  0  0  0  0  0  0  0  0  0  0  0
   27.4767  -26.4546  -16.6648 C   0  0  0  0  0  0  0  0  0  0  0  0
   27.8426  -27.8729  -16.8394 C   0  0  0  0  0  0  0  0  0  0  0  0
   28.4552  -28.1007  -18.1962 C   0  0  2  0  0  0  0  0  0  0  0  0
   27.4337  -27.7062  -19.1644 N   0  0  0  0  0  0  0  0  0  0  0  0
   28.7793  -29.5148  -18.3695 C   0  0  0  0  0  0  0  0  0  0  0  0
   28.0489  -30.3457  -18.9667 O   0  0  0  0  0  0  0  0  0  0  0  0
   26.1536  -26.0924  -16.4749 C   0  0  0  0  0  0  0  0  0  0  0  0
   25.7733  -24.7752  -16.3145 C   0  0  0  0  0  0  0  0  0  0  0  0
   29.9981  -30.0050  -17.8343 N   0  0  0  0  0  0  0  0  0  0  0  0
   30.4162  -31.3600  -18.1257 C   0  0  1  0  0  0  0  0  0  0  0  0
   31.9007  -31.4025  -17.8932 C   0  0  0  0  0  0  0  0  0  0  0  0
   32.5067  -32.7523  -18.0513 C   0  0  0  0  0  0  0  0  0  0  0  0
   33.9791  -32.6580  -17.9311 C   0  0  0  0  0  0  0  0  0  0  0  0
   34.5159  -31.5596  -17.6678 O   0  0  0  0  0  0  0  0  0  0  0  0
   29.6376  -32.2738  -17.2691 C   0  0  0  0  0  0  0  0  0  0  0  0
   29.1255  -31.8173  -16.2210 O   0  0  0  0  0  0  0  0  0  0  0  0
   34.8167  -33.7619  -18.1015 O   0  0  0  0  0  0  0  0  0  0  0  0
   29.4195  -33.6183  -17.5289 O   0  0  0  0  0  0  0  0  0  0  0  0
  2  1  1  0
  3  4  1  6
  3  2  1  0
  5  3  1  0
  6  5  2  0
  8  7  1  0
  9  8  2  0
 10  9  1  0
 11 17  1  0
 11 10  2  0
 12 11  1  0
 13 12  1  1
 13 15  1  0
 13 14  1  0
 14  5  1  0
 15 16  2  0
 17 18  2  0
 18  8  1  0
 19 20  1  0
 19 15  1  0
 20 25  1  0
 20 21  1  1
 22 21  1  0
 23 24  2  0
 23 22  1  0
 25 26  2  0
 25 28  1  0
 27 23  1  0
M  END
$$$$
