SYE.pdb
     RDKit          3D

 28 28  0  0  1  0  0  0  0  0999 V2000
   21.3045  -22.2386  -14.4055 O   0  0  0  0  0  0  0  0  0  0  0  0
   20.5876  -21.9301  -13.2424 C   0  0  0  0  0  0  0  0  0  0  0  0
   20.7954  -20.4659  -12.8895 C   0  0  2  0  0  0  0  0  0  0  0  0
   20.3968  -19.6408  -13.9894 N   0  0  0  0  0  0  0  0  0  0  0  0
   22.2378  -20.3141  -12.5547 C   0  0  0  0  0  0  0  0  0  0  0  0
   22.9384  -19.5501  -13.2675 O   0  0  0  0  0  0  0  0  0  0  0  0
   29.4194  -19.6674   -7.5753 O   0  0  0  0  0  0  0  0  0  0  0  0
   28.2368  -20.1175   -8.1490 C   0  0  0  0  0  0  0  0  0  0  0  0
   27.0458  -19.5428   -7.7605 C   0  0  0  0  0  0  0  0  0  0  0  0
   25.8276  -19.9614   -8.3090 C   0  0  0  0  0  0  0  0  0  0  0  0
   25.7858  -20.9570   -9.2496 C   0  0  0  0  0  0  0  0  0  0  0  0
   24.5197  -21.4272   -9.8428 C   0  0  0  0  0  0  0  0  0  0  0  0
   24.2759  -20.7615  -11.1716 C   0  0  2  0  0  0  0  0  0  0  0  0
   22.8636  -20.9854  -11.4746 N   0  0  0  0  0  0  0  0  0  0  0  0
   25.1058  -21.3804  -12.2026 C   0  0  0  0  0  0  0  0  0  0  0  0
   25.0645  -22.5973  -12.5158 O   0  0  0  0  0  0  0  0  0  0  0  0
   26.9898  -21.5254   -9.6306 C   0  0  0  0  0  0  0  0  0  0  0  0
   28.1931  -21.1157   -9.0926 C   0  0  0  0  0  0  0  0  0  0  0  0
   26.0290  -20.5697  -12.9116 N   0  0  0  0  0  0  0  0  0  0  0  0
   26.6571  -21.0794  -14.1122 C   0  0  1  0  0  0  0  0  0  0  0  0
   25.5448  -21.3576  -15.0844 C   0  0  0  0  0  0  0  0  0  0  0  0
   26.0042  -21.7342  -16.4488 C   0  0  0  0  0  0  0  0  0  0  0  0
   24.8385  -21.8670  -17.3514 C   0  0  0  0  0  0  0  0  0  0  0  0
   23.6829  -21.6788  -16.9121 O   0  0  0  0  0  0  0  0  0  0  0  0
   27.6375  -20.0800  -14.5758 C   0  0  0  0  0  0  0  0  0  0  0  0
   27.4427  -18.8761  -14.2895 O   0  0  0  0  0  0  0  0  0  0  0  0
   24.9703  -22.2001  -18.7008 O   0  0  0  0  0  0  0  0  0  0  0  0
   28.7767  -20.3634  -15.3139 O   0  0  0  0  0  0  0  0  0  0  0  0
  2  1  1  0
  3  4  1  6
  3  2  1  0
  5  3  1  0
  6  5  2  0
  8  7  1  0
  9  8  2  0
 10  9  1  0
 11 17  1  0
 11 10  2  0
 12 11  1  0
 13 12  1  1
 13 15  1  0
 13 14  1  0
 14  5  1  0
 15 16  2  0
 17 18  2  0
 18  8  1  0
 19 20  1  0
 19 15  1  0
 20 25  1  0
 20 21  1  6
 22 21  1  0
 23 24  2  0
 23 22  1  0
 25 26  2  0
 25 28  1  0
 27 23  1  0
M  END
$$$$
