SYE.pdb
     RDKit          3D

 28 28  0  0  1  0  0  0  0  0999 V2000
   45.0700   -9.6112   -5.1989 O   0  0  0  0  0  0  0  0  0  0  0  0
   44.5239  -10.8547   -4.8560 C   0  0  0  0  0  0  0  0  0  0  0  0
   44.1623  -11.6181   -6.1201 C   0  0  2  0  0  0  0  0  0  0  0  0
   45.3300  -11.7986   -6.9283 N   0  0  0  0  0  0  0  0  0  0  0  0
   43.1098  -10.8206   -6.8070 C   0  0  0  0  0  0  0  0  0  0  0  0
   43.4545  -10.0684   -7.7546 O   0  0  0  0  0  0  0  0  0  0  0  0
   35.4912   -6.4731   -7.7322 O   0  0  0  0  0  0  0  0  0  0  0  0
   36.4558   -7.4428   -7.4881 C   0  0  0  0  0  0  0  0  0  0  0  0
   36.7597   -7.7682   -6.1838 C   0  0  0  0  0  0  0  0  0  0  0  0
   37.7240   -8.7385   -5.8860 C   0  0  0  0  0  0  0  0  0  0  0  0
   38.3943   -9.3930   -6.8860 C   0  0  0  0  0  0  0  0  0  0  0  0
   39.4208  -10.4152   -6.6080 C   0  0  0  0  0  0  0  0  0  0  0  0
   40.7799   -9.9364   -7.0459 C   0  0  2  0  0  0  0  0  0  0  0  0
   41.7390  -10.8643   -6.4494 N   0  0  0  0  0  0  0  0  0  0  0  0
   41.0221   -8.5859   -6.5437 C   0  0  0  0  0  0  0  0  0  0  0  0
   41.1776   -8.2934   -5.3309 O   0  0  0  0  0  0  0  0  0  0  0  0
   38.0789   -9.0562   -8.1918 C   0  0  0  0  0  0  0  0  0  0  0  0
   37.1288   -8.1003   -8.4899 C   0  0  0  0  0  0  0  0  0  0  0  0
   41.0901   -7.5157   -7.4723 N   0  0  0  0  0  0  0  0  0  0  0  0
   41.3012   -6.1649   -6.9961 C   0  0  1  0  0  0  0  0  0  0  0  0
   42.7116   -5.8020   -7.3688 C   0  0  0  0  0  0  0  0  0  0  0  0
   43.7278   -6.1630   -6.3435 C   0  0  0  0  0  0  0  0  0  0  0  0
   45.0566   -5.6567   -6.7547 C   0  0  0  0  0  0  0  0  0  0  0  0
   45.4718   -4.5619   -6.3156 O   0  0  0  0  0  0  0  0  0  0  0  0
   40.2689   -5.3006   -7.5981 C   0  0  0  0  0  0  0  0  0  0  0  0
   39.7074   -5.6860   -8.6495 O   0  0  0  0  0  0  0  0  0  0  0  0
   45.8878   -6.3590   -7.6294 O   0  0  0  0  0  0  0  0  0  0  0  0
   39.8590   -4.0767   -7.0912 O   0  0  0  0  0  0  0  0  0  0  0  0
  2  1  1  0
  3  4  1  6
  3  2  1  0
  5  3  1  0
  6  5  2  0
  8  7  1  0
  9  8  2  0
 10  9  1  0
 11 17  1  0
 11 10  2  0
 12 11  1  0
 13 12  1  1
 13 15  1  0
 13 14  1  0
 14  5  1  0
 15 16  2  0
 17 18  2  0
 18  8  1  0
 19 20  1  0
 19 15  1  0
 20 25  1  0
 20 21  1  6
 22 21  1  0
 23 24  2  0
 23 22  1  0
 25 26  2  0
 25 28  1  0
 27 23  1  0
M  END
$$$$
