SYE.pdb
     RDKit          3D

 28 28  0  0  1  0  0  0  0  0999 V2000
   25.3712  -35.6585   -6.1600 O   0  0  0  0  0  0  0  0  0  0  0  0
   26.6243  -35.9061   -5.5852 C   0  0  0  0  0  0  0  0  0  0  0  0
   27.4180  -34.6111   -5.5170 C   0  0  2  0  0  0  0  0  0  0  0  0
   28.7776  -34.8554   -5.8930 N   0  0  0  0  0  0  0  0  0  0  0  0
   27.2922  -34.1133   -4.1199 C   0  0  0  0  0  0  0  0  0  0  0  0
   28.1569  -34.4709   -3.2790 O   0  0  0  0  0  0  0  0  0  0  0  0
   23.6443  -30.3695    3.0241 O   0  0  0  0  0  0  0  0  0  0  0  0
   23.9913  -30.6976    1.7194 C   0  0  0  0  0  0  0  0  0  0  0  0
   25.3134  -30.6130    1.3393 C   0  0  0  0  0  0  0  0  0  0  0  0
   25.7134  -30.9327    0.0363 C   0  0  0  0  0  0  0  0  0  0  0  0
   24.7989  -31.3395   -0.8995 C   0  0  0  0  0  0  0  0  0  0  0  0
   25.1846  -31.6772   -2.2827 C   0  0  0  0  0  0  0  0  0  0  0  0
   26.1735  -32.8130   -2.2964 C   0  0  2  0  0  0  0  0  0  0  0  0
   26.2490  -33.2570   -3.6870 N   0  0  0  0  0  0  0  0  0  0  0  0
   25.6934  -33.9066   -1.4548 C   0  0  0  0  0  0  0  0  0  0  0  0
   24.8027  -34.7274   -1.7916 O   0  0  0  0  0  0  0  0  0  0  0  0
   23.4742  -31.4201   -0.5039 C   0  0  0  0  0  0  0  0  0  0  0  0
   23.0754  -31.1059    0.7797 C   0  0  0  0  0  0  0  0  0  0  0  0
   26.2583  -34.0715   -0.1641 N   0  0  0  0  0  0  0  0  0  0  0  0
   25.7711  -35.1231    0.7034 C   0  0  1  0  0  0  0  0  0  0  0  0
   26.5740  -36.3497    0.3712 C   0  0  0  0  0  0  0  0  0  0  0  0
   26.1827  -37.5637    1.1376 C   0  0  0  0  0  0  0  0  0  0  0  0
   25.8001  -38.6453    0.2023 C   0  0  0  0  0  0  0  0  0  0  0  0
   26.6102  -39.0364   -0.6664 O   0  0  0  0  0  0  0  0  0  0  0  0
   25.9054  -34.6648    2.0987 C   0  0  0  0  0  0  0  0  0  0  0  0
   25.1775  -35.1908    2.9719 O   0  0  0  0  0  0  0  0  0  0  0  0
   24.5494  -39.2642    0.2443 O   0  0  0  0  0  0  0  0  0  0  0  0
   26.7842  -33.6847    2.5348 O   0  0  0  0  0  0  0  0  0  0  0  0
  2  1  1  0
  3  4  1  1
  3  2  1  0
  5  3  1  0
  6  5  2  0
  8  7  1  0
  9  8  2  0
 10  9  1  0
 11 17  1  0
 11 10  2  0
 12 11  1  0
 13 12  1  6
 13 15  1  0
 13 14  1  0
 14  5  1  0
 15 16  2  0
 17 18  2  0
 18  8  1  0
 19 20  1  0
 19 15  1  0
 20 25  1  0
 20 21  1  1
 22 21  1  0
 23 24  2  0
 23 22  1  0
 25 26  2  0
 25 28  1  0
 27 23  1  0
M  END
$$$$
