SYE.pdb
     RDKit          3D

 28 28  0  0  1  0  0  0  0  0999 V2000
   28.6747   -9.1676  -16.5998 O   0  0  0  0  0  0  0  0  0  0  0  0
   27.2987   -9.0868  -16.8490 C   0  0  0  0  0  0  0  0  0  0  0  0
   26.5889  -10.2453  -16.1667 C   0  0  2  0  0  0  0  0  0  0  0  0
   26.9829  -11.4805  -16.7736 N   0  0  0  0  0  0  0  0  0  0  0  0
   25.1298   -9.9828  -16.3005 C   0  0  0  0  0  0  0  0  0  0  0  0
   24.5856  -10.1931  -17.4151 O   0  0  0  0  0  0  0  0  0  0  0  0
   16.5895  -10.3341  -15.2485 O   0  0  0  0  0  0  0  0  0  0  0  0
   17.9642  -10.3247  -15.0469 C   0  0  0  0  0  0  0  0  0  0  0  0
   18.7887  -10.7887  -16.0491 C   0  0  0  0  0  0  0  0  0  0  0  0
   20.1801  -10.7997  -15.8942 C   0  0  0  0  0  0  0  0  0  0  0  0
   20.7620  -10.3485  -14.7386 C   0  0  0  0  0  0  0  0  0  0  0  0
   22.2235  -10.3525  -14.5393 C   0  0  0  0  0  0  0  0  0  0  0  0
   22.8826   -9.3216  -15.4175 C   0  0  2  0  0  0  0  0  0  0  0  0
   24.3211   -9.5080  -15.2377 N   0  0  0  0  0  0  0  0  0  0  0  0
   22.5015   -7.9783  -14.9872 C   0  0  0  0  0  0  0  0  0  0  0  0
   22.8883   -7.4344  -13.9217 O   0  0  0  0  0  0  0  0  0  0  0  0
   19.9216   -9.8851  -13.7402 C   0  0  0  0  0  0  0  0  0  0  0  0
   18.5494   -9.8723  -13.8887 C   0  0  0  0  0  0  0  0  0  0  0  0
   21.6358   -7.2178  -15.8144 N   0  0  0  0  0  0  0  0  0  0  0  0
   21.2396   -5.8866  -15.4063 C   0  0  1  0  0  0  0  0  0  0  0  0
   21.7802   -4.9477  -16.4484 C   0  0  0  0  0  0  0  0  0  0  0  0
   21.4024   -3.5230  -16.2438 C   0  0  0  0  0  0  0  0  0  0  0  0
   22.0577   -2.6785  -17.2678 C   0  0  0  0  0  0  0  0  0  0  0  0
   21.6479   -2.6972  -18.4492 O   0  0  0  0  0  0  0  0  0  0  0  0
   19.7713   -5.8674  -15.2700 C   0  0  0  0  0  0  0  0  0  0  0  0
   19.0917   -6.5885  -16.0364 O   0  0  0  0  0  0  0  0  0  0  0  0
   23.1361   -1.8430  -16.9713 O   0  0  0  0  0  0  0  0  0  0  0  0
   19.0659   -5.1067  -14.3498 O   0  0  0  0  0  0  0  0  0  0  0  0
  2  1  1  0
  3  4  1  6
  3  2  1  0
  5  3  1  0
  6  5  2  0
  8  7  1  0
  9  8  2  0
 10  9  1  0
 11 17  1  0
 11 10  2  0
 12 11  1  0
 13 12  1  1
 13 15  1  0
 13 14  1  0
 14  5  1  0
 15 16  2  0
 17 18  2  0
 18  8  1  0
 19 20  1  0
 19 15  1  0
 20 25  1  0
 20 21  1  6
 22 21  1  0
 23 24  2  0
 23 22  1  0
 25 26  2  0
 25 28  1  0
 27 23  1  0
M  END
$$$$
