SYE.pdb
     RDKit          3D

 28 28  0  0  1  0  0  0  0  0999 V2000
   22.2694  -11.8756  -21.2579 O   0  0  0  0  0  0  0  0  0  0  0  0
   21.5336  -11.0777  -20.3724 C   0  0  0  0  0  0  0  0  0  0  0  0
   22.4812  -10.3731  -19.4147 C   0  0  2  0  0  0  0  0  0  0  0  0
   23.3426  -11.3319  -18.7919 N   0  0  0  0  0  0  0  0  0  0  0  0
   21.6271   -9.6499  -18.4333 C   0  0  0  0  0  0  0  0  0  0  0  0
   20.6402   -9.0006  -18.8658 O   0  0  0  0  0  0  0  0  0  0  0  0
   16.2145  -12.9971  -16.6821 O   0  0  0  0  0  0  0  0  0  0  0  0
   17.3117  -12.2432  -16.2844 C   0  0  0  0  0  0  0  0  0  0  0  0
   17.1053  -10.9714  -15.7950 C   0  0  0  0  0  0  0  0  0  0  0  0
   18.1780  -10.1724  -15.3815 C   0  0  0  0  0  0  0  0  0  0  0  0
   19.4662  -10.6341  -15.4524 C   0  0  0  0  0  0  0  0  0  0  0  0
   20.6199   -9.8167  -15.0321 C   0  0  0  0  0  0  0  0  0  0  0  0
   21.0297   -8.8711  -16.1304 C   0  0  2  0  0  0  0  0  0  0  0  0
   21.8675   -9.6543  -17.0365 N   0  0  0  0  0  0  0  0  0  0  0  0
   21.8042   -7.7633  -15.5757 C   0  0  0  0  0  0  0  0  0  0  0  0
   23.0196   -7.8303  -15.2611 O   0  0  0  0  0  0  0  0  0  0  0  0
   19.6589  -11.9136  -15.9459 C   0  0  0  0  0  0  0  0  0  0  0  0
   18.6043  -12.7048  -16.3546 C   0  0  0  0  0  0  0  0  0  0  0  0
   21.1592   -6.5168  -15.3700 N   0  0  0  0  0  0  0  0  0  0  0  0
   21.9339   -5.3692  -14.9472 C   0  0  1  0  0  0  0  0  0  0  0  0
   21.2494   -4.1622  -15.5256 C   0  0  0  0  0  0  0  0  0  0  0  0
   21.8392   -2.8630  -15.1032 C   0  0  0  0  0  0  0  0  0  0  0  0
   21.0404   -1.7463  -15.6564 C   0  0  0  0  0  0  0  0  0  0  0  0
   21.0869   -1.4903  -16.8796 O   0  0  0  0  0  0  0  0  0  0  0  0
   22.0062   -5.3829  -13.4743 C   0  0  0  0  0  0  0  0  0  0  0  0
   21.1348   -6.0217  -12.8403 O   0  0  0  0  0  0  0  0  0  0  0  0
   20.2187   -0.9467  -14.8599 O   0  0  0  0  0  0  0  0  0  0  0  0
   22.9732   -4.7385  -12.7175 O   0  0  0  0  0  0  0  0  0  0  0  0
  2  1  1  0
  3  4  1  1
  3  2  1  0
  5  3  1  0
  6  5  2  0
  8  7  1  0
  9  8  2  0
 10  9  1  0
 11 17  1  0
 11 10  2  0
 12 11  1  0
 13 12  1  1
 13 15  1  0
 13 14  1  0
 14  5  1  0
 15 16  2  0
 17 18  2  0
 18  8  1  0
 19 20  1  0
 19 15  1  0
 20 25  1  0
 20 21  1  1
 22 21  1  0
 23 24  2  0
 23 22  1  0
 25 26  2  0
 25 28  1  0
 27 23  1  0
M  END
$$$$
