SYE.pdb
     RDKit          3D

 28 28  0  0  1  0  0  0  0  0999 V2000
   19.9546  -10.1356  -14.5796 O   0  0  0  0  0  0  0  0  0  0  0  0
   18.8127   -9.4375  -14.1664 C   0  0  0  0  0  0  0  0  0  0  0  0
   17.9080  -10.3659  -13.3720 C   0  0  2  0  0  0  0  0  0  0  0  0
   17.2813  -11.3036  -14.2537 N   0  0  0  0  0  0  0  0  0  0  0  0
   16.9246   -9.4965  -12.6700 C   0  0  0  0  0  0  0  0  0  0  0  0
   15.9225   -9.0898  -13.3125 O   0  0  0  0  0  0  0  0  0  0  0  0
   11.9459   -5.7085   -6.5645 O   0  0  0  0  0  0  0  0  0  0  0  0
   12.9341   -6.4246   -7.2287 C   0  0  0  0  0  0  0  0  0  0  0  0
   14.2485   -6.0337   -7.0901 C   0  0  0  0  0  0  0  0  0  0  0  0
   15.2804   -6.7226   -7.7388 C   0  0  0  0  0  0  0  0  0  0  0  0
   15.0110   -7.8073   -8.5317 C   0  0  0  0  0  0  0  0  0  0  0  0
   16.0727   -8.5515   -9.2350 C   0  0  0  0  0  0  0  0  0  0  0  0
   16.0884   -8.1989  -10.6992 C   0  0  2  0  0  0  0  0  0  0  0  0
   17.0581   -9.1028  -11.3150 N   0  0  0  0  0  0  0  0  0  0  0  0
   16.5215   -6.8149  -10.8774 C   0  0  0  0  0  0  0  0  0  0  0  0
   17.6824   -6.3949  -10.6397 O   0  0  0  0  0  0  0  0  0  0  0  0
   13.6862   -8.1890   -8.6618 C   0  0  0  0  0  0  0  0  0  0  0  0
   12.6658   -7.5128   -8.0240 C   0  0  0  0  0  0  0  0  0  0  0  0
   15.5826   -5.8628  -11.3507 N   0  0  0  0  0  0  0  0  0  0  0  0
   15.9942   -4.4902  -11.5564 C   0  0  1  0  0  0  0  0  0  0  0  0
   16.2178   -4.3340  -13.0346 C   0  0  0  0  0  0  0  0  0  0  0  0
   16.5282   -2.9432  -13.4633 C   0  0  0  0  0  0  0  0  0  0  0  0
   16.7695   -2.9107  -14.9234 C   0  0  0  0  0  0  0  0  0  0  0  0
   17.0047   -1.8232  -15.4942 O   0  0  0  0  0  0  0  0  0  0  0  0
   14.9491   -3.6105  -11.0006 C   0  0  0  0  0  0  0  0  0  0  0  0
   13.7702   -4.0327  -10.9667 O   0  0  0  0  0  0  0  0  0  0  0  0
   16.7465   -4.0624  -15.7121 O   0  0  0  0  0  0  0  0  0  0  0  0
   15.1631   -2.3338  -10.5032 O   0  0  0  0  0  0  0  0  0  0  0  0
  2  1  1  0
  3  4  1  6
  3  2  1  0
  5  3  1  0
  6  5  2  0
  8  7  1  0
  9  8  2  0
 10  9  1  0
 11 17  1  0
 11 10  2  0
 12 11  1  0
 13 12  1  1
 13 15  1  0
 13 14  1  0
 14  5  1  0
 15 16  2  0
 17 18  2  0
 18  8  1  0
 19 20  1  0
 19 15  1  0
 20 25  1  0
 20 21  1  6
 22 21  1  0
 23 24  2  0
 23 22  1  0
 25 26  2  0
 25 28  1  0
 27 23  1  0
M  END
$$$$
