SYE.pdb
     RDKit          3D

 28 28  0  0  1  0  0  0  0  0999 V2000
   25.9161   -7.1815  -20.3220 O   0  0  0  0  0  0  0  0  0  0  0  0
   24.7158   -7.1757  -19.5999 C   0  0  0  0  0  0  0  0  0  0  0  0
   24.5051   -8.5347  -18.9516 C   0  0  2  0  0  0  0  0  0  0  0  0
   24.2039   -9.5094  -19.9559 N   0  0  0  0  0  0  0  0  0  0  0  0
   23.3995   -8.3659  -17.9694 C   0  0  0  0  0  0  0  0  0  0  0  0
   22.2364   -8.1718  -18.4079 O   0  0  0  0  0  0  0  0  0  0  0  0
   22.0616  -14.6284  -16.2902 O   0  0  0  0  0  0  0  0  0  0  0  0
   22.2554  -13.3239  -15.8530 C   0  0  0  0  0  0  0  0  0  0  0  0
   21.1861  -12.4542  -15.8539 C   0  0  0  0  0  0  0  0  0  0  0  0
   21.3303  -11.1299  -15.4230 C   0  0  0  0  0  0  0  0  0  0  0  0
   22.5419  -10.6608  -14.9875 C   0  0  0  0  0  0  0  0  0  0  0  0
   22.7308   -9.2702  -14.5334 C   0  0  0  0  0  0  0  0  0  0  0  0
   22.4514   -8.3027  -15.6533 C   0  0  2  0  0  0  0  0  0  0  0  0
   23.5883   -8.4123  -16.5655 N   0  0  0  0  0  0  0  0  0  0  0  0
   22.3675   -6.9409  -15.1308 C   0  0  0  0  0  0  0  0  0  0  0  0
   23.3588   -6.2411  -14.8017 O   0  0  0  0  0  0  0  0  0  0  0  0
   23.6074  -11.5455  -14.9918 C   0  0  0  0  0  0  0  0  0  0  0  0
   23.4697  -12.8518  -15.4157 C   0  0  0  0  0  0  0  0  0  0  0  0
   21.0881   -6.3481  -14.9762 N   0  0  0  0  0  0  0  0  0  0  0  0
   20.9822   -4.9292  -14.7094 C   0  0  1  0  0  0  0  0  0  0  0  0
   21.6819   -4.2334  -15.8434 C   0  0  0  0  0  0  0  0  0  0  0  0
   21.5798   -2.7493  -15.8073 C   0  0  0  0  0  0  0  0  0  0  0  0
   22.3057   -2.1687  -16.9593 C   0  0  0  0  0  0  0  0  0  0  0  0
   21.7047   -1.9590  -18.0358 O   0  0  0  0  0  0  0  0  0  0  0  0
   19.5522   -4.5937  -14.5765 C   0  0  0  0  0  0  0  0  0  0  0  0
   19.2378   -3.5696  -13.9271 O   0  0  0  0  0  0  0  0  0  0  0  0
   23.6604   -1.8364  -16.9006 O   0  0  0  0  0  0  0  0  0  0  0  0
   18.5075   -5.3270  -15.1185 O   0  0  0  0  0  0  0  0  0  0  0  0
  2  1  1  0
  3  4  1  6
  3  2  1  0
  5  3  1  0
  6  5  2  0
  8  7  1  0
  9  8  2  0
 10  9  1  0
 11 17  1  0
 11 10  2  0
 12 11  1  0
 13 12  1  1
 13 15  1  0
 13 14  1  0
 14  5  1  0
 15 16  2  0
 17 18  2  0
 18  8  1  0
 19 20  1  0
 19 15  1  0
 20 25  1  0
 20 21  1  6
 22 21  1  0
 23 24  2  0
 23 22  1  0
 25 26  2  0
 25 28  1  0
 27 23  1  0
M  END
$$$$
