SYE.pdb
     RDKit          3D

 28 28  0  0  1  0  0  0  0  0999 V2000
   26.1489  -17.2744  -20.3291 O   0  0  0  0  0  0  0  0  0  0  0  0
   25.8293  -18.2761  -19.4035 C   0  0  0  0  0  0  0  0  0  0  0  0
   27.0620  -18.6248  -18.5848 C   0  0  2  0  0  0  0  0  0  0  0  0
   27.9681  -19.3987  -19.3782 N   0  0  0  0  0  0  0  0  0  0  0  0
   26.5770  -19.3637  -17.3872 C   0  0  0  0  0  0  0  0  0  0  0  0
   26.2046  -20.5565  -17.5325 O   0  0  0  0  0  0  0  0  0  0  0  0
   24.6097  -21.4927   -9.0598 O   0  0  0  0  0  0  0  0  0  0  0  0
   25.1033  -20.8774  -10.2035 C   0  0  0  0  0  0  0  0  0  0  0  0
   24.5003  -19.7224  -10.6529 C   0  0  0  0  0  0  0  0  0  0  0  0
   24.9606  -19.0652  -11.8002 C   0  0  0  0  0  0  0  0  0  0  0  0
   26.0260  -19.5537  -12.5100 C   0  0  0  0  0  0  0  0  0  0  0  0
   26.5323  -18.8907  -13.7265 C   0  0  0  0  0  0  0  0  0  0  0  0
   25.9891  -19.5598  -14.9617 C   0  0  2  0  0  0  0  0  0  0  0  0
   26.5126  -18.7937  -16.0911 N   0  0  0  0  0  0  0  0  0  0  0  0
   24.5291  -19.5039  -14.9618 C   0  0  0  0  0  0  0  0  0  0  0  0
   23.8555  -18.4628  -15.1692 O   0  0  0  0  0  0  0  0  0  0  0  0
   26.6223  -20.7148  -12.0471 C   0  0  0  0  0  0  0  0  0  0  0  0
   26.1719  -21.3659  -10.9164 C   0  0  0  0  0  0  0  0  0  0  0  0
   23.8016  -20.6958  -14.7127 N   0  0  0  0  0  0  0  0  0  0  0  0
   22.3686  -20.6341  -14.5162 C   0  0  1  0  0  0  0  0  0  0  0  0
   21.7603  -21.5207  -15.5667 C   0  0  0  0  0  0  0  0  0  0  0  0
   20.2874  -21.6933  -15.4441 C   0  0  0  0  0  0  0  0  0  0  0  0
   19.6006  -20.4498  -15.8603 C   0  0  0  0  0  0  0  0  0  0  0  0
   19.7117  -20.0376  -17.0357 O   0  0  0  0  0  0  0  0  0  0  0  0
   22.0785  -21.0431  -13.1293 C   0  0  0  0  0  0  0  0  0  0  0  0
   21.1799  -20.4346  -12.5037 O   0  0  0  0  0  0  0  0  0  0  0  0
   18.8167  -19.6977  -14.9834 O   0  0  0  0  0  0  0  0  0  0  0  0
   22.7261  -22.0616  -12.4464 O   0  0  0  0  0  0  0  0  0  0  0  0
  2  1  1  0
  3  4  1  6
  3  2  1  0
  5  3  1  0
  6  5  2  0
  8  7  1  0
  9  8  2  0
 10  9  1  0
 11 17  1  0
 11 10  2  0
 12 11  1  0
 13 12  1  1
 13 15  1  0
 13 14  1  0
 14  5  1  0
 15 16  2  0
 17 18  2  0
 18  8  1  0
 19 20  1  0
 19 15  1  0
 20 25  1  0
 20 21  1  6
 22 21  1  0
 23 24  2  0
 23 22  1  0
 25 26  2  0
 25 28  1  0
 27 23  1  0
M  END
$$$$
