SYE.pdb
     RDKit          3D

 28 28  0  0  1  0  0  0  0  0999 V2000
   30.0754  -10.2130  -20.2142 O   0  0  0  0  0  0  0  0  0  0  0  0
   30.2630  -10.3811  -18.8363 C   0  0  0  0  0  0  0  0  0  0  0  0
   29.3212  -11.4580  -18.3219 C   0  0  2  0  0  0  0  0  0  0  0  0
   29.2770  -12.5471  -19.2499 N   0  0  0  0  0  0  0  0  0  0  0  0
   27.9950  -10.8067  -18.1417 C   0  0  0  0  0  0  0  0  0  0  0  0
   27.1588  -10.8871  -19.0781 O   0  0  0  0  0  0  0  0  0  0  0  0
   20.6487   -7.8125  -14.4299 O   0  0  0  0  0  0  0  0  0  0  0  0
   21.9672   -8.1853  -14.6599 C   0  0  0  0  0  0  0  0  0  0  0  0
   22.2587   -9.5175  -14.8595 C   0  0  0  0  0  0  0  0  0  0  0  0
   23.5714   -9.9435  -15.0951 C   0  0  0  0  0  0  0  0  0  0  0  0
   24.6053   -9.0451  -15.1335 C   0  0  0  0  0  0  0  0  0  0  0  0
   26.0006   -9.4600  -15.3722 C   0  0  0  0  0  0  0  0  0  0  0  0
   26.2994   -9.4959  -16.8479 C   0  0  2  0  0  0  0  0  0  0  0  0
   27.6247  -10.1004  -16.9700 N   0  0  0  0  0  0  0  0  0  0  0  0
   26.3245   -8.1386  -17.3880 C   0  0  0  0  0  0  0  0  0  0  0  0
   27.2398   -7.3033  -17.1752 O   0  0  0  0  0  0  0  0  0  0  0  0
   24.2980   -7.7099  -14.9315 C   0  0  0  0  0  0  0  0  0  0  0  0
   23.0053   -7.2856  -14.6991 C   0  0  0  0  0  0  0  0  0  0  0  0
   25.2512   -7.7133  -18.2122 N   0  0  0  0  0  0  0  0  0  0  0  0
   25.2611   -6.3778  -18.7708 C   0  0  1  0  0  0  0  0  0  0  0  0
   25.4312   -6.5428  -20.2552 C   0  0  0  0  0  0  0  0  0  0  0  0
   26.8289   -6.8195  -20.6842 C   0  0  0  0  0  0  0  0  0  0  0  0
   26.8788   -6.9840  -22.1545 C   0  0  0  0  0  0  0  0  0  0  0  0
   27.3651   -8.0236  -22.6511 O   0  0  0  0  0  0  0  0  0  0  0  0
   24.0113   -5.7047  -18.3705 C   0  0  0  0  0  0  0  0  0  0  0  0
   23.0132   -6.4119  -18.1004 O   0  0  0  0  0  0  0  0  0  0  0  0
   26.3980   -6.0119  -23.0336 O   0  0  0  0  0  0  0  0  0  0  0  0
   23.8433   -4.3323  -18.2651 O   0  0  0  0  0  0  0  0  0  0  0  0
  2  1  1  0
  3  4  1  6
  3  2  1  0
  5  3  1  0
  6  5  2  0
  8  7  1  0
  9  8  2  0
 10  9  1  0
 11 17  1  0
 11 10  2  0
 12 11  1  0
 13 12  1  1
 13 15  1  0
 13 14  1  0
 14  5  1  0
 15 16  2  0
 17 18  2  0
 18  8  1  0
 19 20  1  0
 19 15  1  0
 20 25  1  0
 20 21  1  6
 22 21  1  0
 23 24  2  0
 23 22  1  0
 25 26  2  0
 25 28  1  0
 27 23  1  0
M  END
$$$$
