IVH.pdb
     RDKit          3D

 26 26  0  0  1  0  0  0  0  0999 V2000
   19.4342  -19.3449  -16.2785 C   0  0  0  0  0  0  0  0  0  0  0  0
   19.8650  -18.1731  -17.1190 C   0  0  0  0  0  0  0  0  0  0  0  0
   20.4067  -17.0772  -16.2827 C   0  0  2  0  0  0  0  0  0  0  0  0
   19.4466  -16.7913  -15.1485 C   0  0  0  0  0  0  0  0  0  0  0  0
   20.7834  -15.8124  -16.9813 C   0  0  2  0  0  0  0  0  0  0  0  0
   21.7544  -16.2352  -18.0228 N   0  0  0  0  0  0  0  0  0  0  0  0
   21.4896  -14.8274  -16.0993 C   0  0  0  0  0  0  0  0  0  0  0  0
   20.9479  -14.4262  -15.0364 O   0  0  0  0  0  0  0  0  0  0  0  0
   25.3133  -14.8155  -15.0712 C   0  0  0  0  0  0  0  0  0  0  0  0
   24.8830  -13.5456  -15.7086 C   0  0  2  0  0  0  0  0  0  0  0  0
   25.7073  -12.4127  -15.1256 C   0  0  0  0  0  0  0  0  0  0  0  0
   23.4036  -13.2851  -15.5693 C   0  0  2  0  0  0  0  0  0  0  0  0
   22.7692  -14.3156  -16.4123 N   0  0  0  0  0  0  0  0  0  0  0  0
   22.9878  -11.9471  -16.0560 C   0  0  0  0  0  0  0  0  0  0  0  0
   22.9573  -11.7247  -17.3115 O   0  0  0  0  0  0  0  0  0  0  0  0
   22.6077  -10.8564  -15.2516 N   0  0  0  0  0  0  0  0  0  0  0  0
   22.0208   -9.6499  -15.8058 C   0  0  1  0  0  0  0  0  0  0  0  0
   20.8521   -9.9602  -16.7125 C   0  0  0  0  0  0  0  0  0  0  0  0
   20.2071   -8.7593  -17.2464 C   0  0  0  0  0  0  0  0  0  0  0  0
   20.5990   -7.4520  -17.0562 C   0  0  0  0  0  0  0  0  0  0  0  0
   19.7533   -6.6226  -17.7071 N   0  0  0  0  0  0  0  0  0  0  0  0
   18.8484   -7.4205  -18.2924 C   0  0  0  0  0  0  0  0  0  0  0  0
   19.1199   -8.7110  -18.0160 N   0  0  0  0  0  0  0  0  0  0  0  0
   21.6479   -8.7510  -14.6944 C   0  0  0  0  0  0  0  0  0  0  0  0
   21.1286   -7.4965  -14.9774 O   0  0  0  0  0  0  0  0  0  0  0  0
   21.7779   -9.0669  -13.4852 O   0  0  0  0  0  0  0  0  0  0  0  0
  2  1  1  0
  3  5  1  0
  3  2  1  0
  3  4  1  1
  5  6  1  6
  7  5  1  0
  7  8  2  0
 10  9  1  1
 10 12  1  0
 11 10  1  0
 12 13  1  6
 13  7  1  0
 14 12  1  0
 15 14  2  0
 16 14  1  0
 17 16  1  0
 17 24  1  0
 17 18  1  1
 19 18  1  0
 20 19  2  0
 21 22  1  0
 21 20  1  0
 22 23  2  0
 23 19  1  0
 24 25  1  0
 26 24  2  0
M  END
$$$$
