IVH.pdb
     RDKit          3D

 26 26  0  0  1  0  0  0  0  0999 V2000
   26.7599  -15.1832  -15.1723 C   0  0  0  0  0  0  0  0  0  0  0  0
   25.2587  -15.1075  -15.2503 C   0  0  0  0  0  0  0  0  0  0  0  0
   24.8102  -13.8080  -15.8016 C   0  0  2  0  0  0  0  0  0  0  0  0
   25.5329  -12.6856  -15.0891 C   0  0  0  0  0  0  0  0  0  0  0  0
   23.3393  -13.5518  -15.8254 C   0  0  2  0  0  0  0  0  0  0  0  0
   22.7637  -14.7392  -16.5073 N   0  0  0  0  0  0  0  0  0  0  0  0
   22.9526  -12.3518  -16.6362 C   0  0  0  0  0  0  0  0  0  0  0  0
   23.6071  -12.0452  -17.6666 O   0  0  0  0  0  0  0  0  0  0  0  0
   19.1577  -11.1417  -16.6227 C   0  0  0  0  0  0  0  0  0  0  0  0
   20.1228  -10.7372  -17.6758 C   0  0  2  0  0  0  0  0  0  0  0  0
   20.2149  -11.8556  -18.6974 C   0  0  0  0  0  0  0  0  0  0  0  0
   21.4800  -10.3733  -17.1265 C   0  0  2  0  0  0  0  0  0  0  0  0
   21.8580  -11.5276  -16.2899 N   0  0  0  0  0  0  0  0  0  0  0  0
   21.4716   -9.1537  -16.2824 C   0  0  0  0  0  0  0  0  0  0  0  0
   21.2674   -9.2675  -15.0286 O   0  0  0  0  0  0  0  0  0  0  0  0
   21.6737   -7.8356  -16.7326 N   0  0  0  0  0  0  0  0  0  0  0  0
   21.6466   -6.6953  -15.8347 C   0  0  1  0  0  0  0  0  0  0  0  0
   22.5974   -5.6082  -16.2802 C   0  0  0  0  0  0  0  0  0  0  0  0
   22.4912   -4.3897  -15.4756 C   0  0  0  0  0  0  0  0  0  0  0  0
   21.7497   -4.2149  -14.3273 C   0  0  0  0  0  0  0  0  0  0  0  0
   21.9053   -2.9521  -13.8713 N   0  0  0  0  0  0  0  0  0  0  0  0
   22.7385   -2.3581  -14.7379 C   0  0  0  0  0  0  0  0  0  0  0  0
   23.0939   -3.2237  -15.7075 N   0  0  0  0  0  0  0  0  0  0  0  0
   20.2545   -6.2143  -15.7219 C   0  0  0  0  0  0  0  0  0  0  0  0
   19.6017   -5.7455  -16.8523 O   0  0  0  0  0  0  0  0  0  0  0  0
   19.6184   -6.2066  -14.6383 O   0  0  0  0  0  0  0  0  0  0  0  0
  2  1  1  0
  3  5  1  0
  3  2  1  0
  3  4  1  1
  5  6  1  6
  7  5  1  0
  7  8  2  0
 10  9  1  1
 10 12  1  0
 11 10  1  0
 12 13  1  1
 13  7  1  0
 14 12  1  0
 15 14  2  0
 16 14  1  0
 17 16  1  0
 17 24  1  0
 17 18  1  6
 19 18  1  0
 20 19  2  0
 21 22  1  0
 21 20  1  0
 22 23  2  0
 23 19  1  0
 24 25  1  0
 26 24  2  0
M  END
$$$$
