IVH.pdb
     RDKit          3D

 26 26  0  0  1  0  0  0  0  0999 V2000
   17.2315  -15.5977  -15.7544 C   0  0  0  0  0  0  0  0  0  0  0  0
   18.1926  -15.0181  -16.7572 C   0  0  0  0  0  0  0  0  0  0  0  0
   18.8774  -13.8195  -16.2204 C   0  0  2  0  0  0  0  0  0  0  0  0
   17.8433  -12.8287  -15.7319 C   0  0  0  0  0  0  0  0  0  0  0  0
   19.8672  -13.1461  -17.1130 C   0  0  2  0  0  0  0  0  0  0  0  0
   20.9537  -14.1439  -17.2867 N   0  0  0  0  0  0  0  0  0  0  0  0
   20.4884  -11.9244  -16.5059 C   0  0  0  0  0  0  0  0  0  0  0  0
   21.3796  -12.0378  -15.6244 O   0  0  0  0  0  0  0  0  0  0  0  0
   22.2907   -9.0075  -18.0372 C   0  0  0  0  0  0  0  0  0  0  0  0
   21.0932   -8.5157  -17.3103 C   0  0  2  0  0  0  0  0  0  0  0  0
   21.3830   -7.1164  -16.7997 C   0  0  0  0  0  0  0  0  0  0  0  0
   20.6586   -9.4349  -16.1957 C   0  0  2  0  0  0  0  0  0  0  0  0
   20.1118  -10.6169  -16.8879 N   0  0  0  0  0  0  0  0  0  0  0  0
   19.6026   -8.8583  -15.3281 C   0  0  0  0  0  0  0  0  0  0  0  0
   18.4487   -8.6311  -15.8217 O   0  0  0  0  0  0  0  0  0  0  0  0
   19.7417   -8.5239  -13.9681 N   0  0  0  0  0  0  0  0  0  0  0  0
   18.6523   -7.9609  -13.1913 C   0  0  1  0  0  0  0  0  0  0  0  0
   18.5853   -8.5583  -11.8046 C   0  0  0  0  0  0  0  0  0  0  0  0
   17.5540   -7.9446  -10.9661 C   0  0  0  0  0  0  0  0  0  0  0  0
   16.6497   -6.9740  -11.3390 C   0  0  0  0  0  0  0  0  0  0  0  0
   15.8576   -6.6607  -10.2895 N   0  0  0  0  0  0  0  0  0  0  0  0
   16.2767   -7.4370   -9.2797 C   0  0  0  0  0  0  0  0  0  0  0  0
   17.3008   -8.2132   -9.6853 N   0  0  0  0  0  0  0  0  0  0  0  0
   18.7995   -6.4913  -13.1648 C   0  0  0  0  0  0  0  0  0  0  0  0
   17.6716   -5.6913  -13.2711 O   0  0  0  0  0  0  0  0  0  0  0  0
   19.9109   -5.9165  -13.0491 O   0  0  0  0  0  0  0  0  0  0  0  0
  2  1  1  0
  3  5  1  0
  3  2  1  0
  3  4  1  6
  5  6  1  1
  7  5  1  0
  7  8  2  0
 10  9  1  1
 10 12  1  0
 11 10  1  0
 12 13  1  6
 13  7  1  0
 14 12  1  0
 15 14  2  0
 16 14  1  0
 17 16  1  0
 17 24  1  0
 17 18  1  1
 19 18  1  0
 20 19  2  0
 21 22  1  0
 21 20  1  0
 22 23  2  0
 23 19  1  0
 24 25  1  0
 26 24  2  0
M  END
$$$$
