IVH.pdb
     RDKit          3D

 26 26  0  0  1  0  0  0  0  0999 V2000
   29.7528  -20.4821  -12.2783 C   0  0  0  0  0  0  0  0  0  0  0  0
   28.3193  -20.2706  -12.6851 C   0  0  0  0  0  0  0  0  0  0  0  0
   28.0756  -20.7350  -14.0703 C   0  0  2  0  0  0  0  0  0  0  0  0
   29.0482  -20.0509  -15.0062 C   0  0  0  0  0  0  0  0  0  0  0  0
   26.6803  -20.6199  -14.5896 C   0  0  2  0  0  0  0  0  0  0  0  0
   26.4324  -19.1579  -14.6753 N   0  0  0  0  0  0  0  0  0  0  0  0
   25.6467  -21.1849  -13.6625 C   0  0  0  0  0  0  0  0  0  0  0  0
   25.4945  -22.4306  -13.5664 O   0  0  0  0  0  0  0  0  0  0  0  0
   25.3895  -20.6620  -10.1000 C   0  0  0  0  0  0  0  0  0  0  0  0
   24.0474  -20.3290  -10.6404 C   0  0  2  0  0  0  0  0  0  0  0  0
   23.0029  -20.7455   -9.6213 C   0  0  0  0  0  0  0  0  0  0  0  0
   23.7832  -20.9472  -11.9910 C   0  0  2  0  0  0  0  0  0  0  0  0
   24.8143  -20.3633  -12.8691 N   0  0  0  0  0  0  0  0  0  0  0  0
   22.4454  -20.6205  -12.5422 C   0  0  0  0  0  0  0  0  0  0  0  0
   22.1772  -19.4111  -12.8459 O   0  0  0  0  0  0  0  0  0  0  0  0
   21.4020  -21.5356  -12.7763 N   0  0  0  0  0  0  0  0  0  0  0  0
   20.1238  -21.1307  -13.3325 C   0  0  1  0  0  0  0  0  0  0  0  0
   19.7873  -21.9051  -14.5860 C   0  0  0  0  0  0  0  0  0  0  0  0
   20.5507  -21.4630  -15.7544 C   0  0  0  0  0  0  0  0  0  0  0  0
   21.4779  -20.4448  -15.8037 C   0  0  0  0  0  0  0  0  0  0  0  0
   21.9700  -20.3358  -17.0579 N   0  0  0  0  0  0  0  0  0  0  0  0
   21.3457  -21.2840  -17.7715 C   0  0  0  0  0  0  0  0  0  0  0  0
   20.4883  -21.9661  -16.9872 N   0  0  0  0  0  0  0  0  0  0  0  0
   19.0876  -21.2704  -12.2891 C   0  0  0  0  0  0  0  0  0  0  0  0
   17.8504  -20.6708  -12.4725 O   0  0  0  0  0  0  0  0  0  0  0  0
   19.2692  -21.9144  -11.2256 O   0  0  0  0  0  0  0  0  0  0  0  0
  2  1  1  0
  3  5  1  0
  3  2  1  0
  3  4  1  6
  5  6  1  1
  7  5  1  0
  7  8  2  0
 10  9  1  1
 10 12  1  0
 11 10  1  0
 12 13  1  6
 13  7  1  0
 14 12  1  0
 15 14  2  0
 16 14  1  0
 17 16  1  0
 17 24  1  0
 17 18  1  6
 19 18  1  0
 20 19  2  0
 21 22  1  0
 21 20  1  0
 22 23  2  0
 23 19  1  0
 24 25  1  0
 26 24  2  0
M  END
$$$$
