IVH.pdb
     RDKit          3D

 26 26  0  0  1  0  0  0  0  0999 V2000
   25.0277  -17.4604  -16.9642 C   0  0  0  0  0  0  0  0  0  0  0  0
   25.9986  -18.5977  -16.7931 C   0  0  0  0  0  0  0  0  0  0  0  0
   27.3537  -18.1060  -16.4529 C   0  0  2  0  0  0  0  0  0  0  0  0
   27.8124  -17.1284  -17.5129 C   0  0  0  0  0  0  0  0  0  0  0  0
   28.4055  -19.1350  -16.1991 C   0  0  2  0  0  0  0  0  0  0  0  0
   28.4407  -19.9484  -17.4413 N   0  0  0  0  0  0  0  0  0  0  0  0
   28.0725  -20.0685  -15.0745 C   0  0  0  0  0  0  0  0  0  0  0  0
   27.4319  -21.1283  -15.2990 O   0  0  0  0  0  0  0  0  0  0  0  0
   30.4317  -21.1037  -12.0977 C   0  0  0  0  0  0  0  0  0  0  0  0
   29.1302  -20.5769  -11.6153 C   0  0  2  0  0  0  0  0  0  0  0  0
   28.7720  -21.2912  -10.3252 C   0  0  0  0  0  0  0  0  0  0  0  0
   28.0283  -20.6934  -12.6392 C   0  0  2  0  0  0  0  0  0  0  0  0
   28.4553  -19.8085  -13.7391 N   0  0  0  0  0  0  0  0  0  0  0  0
   26.7068  -20.2368  -12.1441 C   0  0  0  0  0  0  0  0  0  0  0  0
   26.5306  -18.9981  -11.8961 O   0  0  0  0  0  0  0  0  0  0  0  0
   25.5842  -21.0532  -11.9114 N   0  0  0  0  0  0  0  0  0  0  0  0
   24.3159  -20.5173  -11.4517 C   0  0  1  0  0  0  0  0  0  0  0  0
   23.1459  -21.1586  -12.1618 C   0  0  0  0  0  0  0  0  0  0  0  0
   21.8523  -20.7820  -11.5889 C   0  0  0  0  0  0  0  0  0  0  0  0
   21.4117  -21.0201  -10.3052 C   0  0  0  0  0  0  0  0  0  0  0  0
   20.1643  -20.5230  -10.1510 N   0  0  0  0  0  0  0  0  0  0  0  0
   19.8445  -19.9834  -11.3362 C   0  0  0  0  0  0  0  0  0  0  0  0
   20.8617  -20.1383  -12.2062 N   0  0  0  0  0  0  0  0  0  0  0  0
   24.2391  -20.6744   -9.9849 C   0  0  0  0  0  0  0  0  0  0  0  0
   23.4104  -19.8376   -9.2523 O   0  0  0  0  0  0  0  0  0  0  0  0
   24.8955  -21.5401   -9.3537 O   0  0  0  0  0  0  0  0  0  0  0  0
  2  1  1  0
  3  5  1  0
  3  2  1  0
  3  4  1  6
  5  6  1  6
  7  5  1  0
  7  8  2  0
 10  9  1  6
 10 12  1  0
 11 10  1  0
 12 13  1  6
 13  7  1  0
 14 12  1  0
 15 14  2  0
 16 14  1  0
 17 16  1  0
 17 24  1  0
 17 18  1  6
 19 18  1  0
 20 19  2  0
 21 22  1  0
 21 20  1  0
 22 23  2  0
 23 19  1  0
 24 25  1  0
 26 24  2  0
M  END
$$$$
