IVH.pdb
     RDKit          3D

 26 26  0  0  1  0  0  0  0  0999 V2000
   17.6759  -15.9347  -17.5156 C   0  0  0  0  0  0  0  0  0  0  0  0
   19.1662  -16.1453  -17.5060 C   0  0  0  0  0  0  0  0  0  0  0  0
   19.8595  -15.0730  -16.7556 C   0  0  2  0  0  0  0  0  0  0  0  0
   19.4154  -13.7257  -17.2821 C   0  0  0  0  0  0  0  0  0  0  0  0
   21.3496  -15.1444  -16.6901 C   0  0  2  0  0  0  0  0  0  0  0  0
   21.6337  -16.4549  -16.0514 N   0  0  0  0  0  0  0  0  0  0  0  0
   21.9628  -14.0908  -15.8177 C   0  0  0  0  0  0  0  0  0  0  0  0
   21.6563  -14.0195  -14.5991 O   0  0  0  0  0  0  0  0  0  0  0  0
   25.5980  -13.2030  -15.2977 C   0  0  0  0  0  0  0  0  0  0  0  0
   24.8686  -11.9912  -15.7490 C   0  0  2  0  0  0  0  0  0  0  0  0
   25.5139  -10.7763  -15.1082 C   0  0  0  0  0  0  0  0  0  0  0  0
   23.3886  -12.0503  -15.4623 C   0  0  2  0  0  0  0  0  0  0  0  0
   22.8945  -13.1500  -16.3118 N   0  0  0  0  0  0  0  0  0  0  0  0
   22.6641  -10.8067  -15.8211 C   0  0  0  0  0  0  0  0  0  0  0  0
   22.2146  -10.6700  -17.0069 O   0  0  0  0  0  0  0  0  0  0  0  0
   22.4084   -9.7218  -14.9617 N   0  0  0  0  0  0  0  0  0  0  0  0
   21.6260   -8.5711  -15.3750 C   0  0  1  0  0  0  0  0  0  0  0  0
   20.2472   -8.9709  -15.8474 C   0  0  0  0  0  0  0  0  0  0  0  0
   19.4302   -7.8287  -16.2612 C   0  0  0  0  0  0  0  0  0  0  0  0
   19.4966   -7.1510  -17.4592 C   0  0  0  0  0  0  0  0  0  0  0  0
   18.5828   -6.1551  -17.4716 N   0  0  0  0  0  0  0  0  0  0  0  0
   17.9609   -6.2246  -16.2857 C   0  0  0  0  0  0  0  0  0  0  0  0
   18.4704   -7.2340  -15.5529 N   0  0  0  0  0  0  0  0  0  0  0  0
   21.5806   -7.6039  -14.2594 C   0  0  0  0  0  0  0  0  0  0  0  0
   20.9746   -6.3710  -14.4505 O   0  0  0  0  0  0  0  0  0  0  0  0
   22.0696   -7.8418  -13.1267 O   0  0  0  0  0  0  0  0  0  0  0  0
  2  1  1  0
  3  5  1  0
  3  2  1  0
  3  4  1  6
  5  6  1  1
  7  5  1  0
  7  8  2  0
 10  9  1  1
 10 12  1  0
 11 10  1  0
 12 13  1  6
 13  7  1  0
 14 12  1  0
 15 14  2  0
 16 14  1  0
 17 16  1  0
 17 24  1  0
 17 18  1  1
 19 18  1  0
 20 19  2  0
 21 22  1  0
 21 20  1  0
 22 23  2  0
 23 19  1  0
 24 25  1  0
 26 24  2  0
M  END
$$$$
