IVH.pdb
     RDKit          3D

 26 26  0  0  1  0  0  0  0  0999 V2000
   29.2259  -18.9224  -18.8408 C   0  0  0  0  0  0  0  0  0  0  0  0
   28.0990  -18.2907  -18.0685 C   0  0  0  0  0  0  0  0  0  0  0  0
   27.5320  -19.2294  -17.0730 C   0  0  2  0  0  0  0  0  0  0  0  0
   27.1657  -20.5269  -17.7601 C   0  0  0  0  0  0  0  0  0  0  0  0
   26.3915  -18.7348  -16.2458 C   0  0  2  0  0  0  0  0  0  0  0  0
   26.9724  -17.6439  -15.4219 N   0  0  0  0  0  0  0  0  0  0  0  0
   25.8509  -19.7601  -15.2953 C   0  0  0  0  0  0  0  0  0  0  0  0
   25.2036  -20.7483  -15.7297 O   0  0  0  0  0  0  0  0  0  0  0  0
   27.4895  -21.0519  -11.8794 C   0  0  0  0  0  0  0  0  0  0  0  0
   26.1154  -20.5190  -11.7008 C   0  0  2  0  0  0  0  0  0  0  0  0
   25.4396  -21.2978  -10.5874 C   0  0  0  0  0  0  0  0  0  0  0  0
   25.3009  -20.5449  -12.9705 C   0  0  2  0  0  0  0  0  0  0  0  0
   26.0400  -19.6679  -13.8978 N   0  0  0  0  0  0  0  0  0  0  0  0
   23.9257  -20.0143  -12.8049 C   0  0  0  0  0  0  0  0  0  0  0  0
   23.7637  -18.7711  -12.5705 O   0  0  0  0  0  0  0  0  0  0  0  0
   22.7362  -20.7625  -12.8829 N   0  0  0  0  0  0  0  0  0  0  0  0
   21.4244  -20.1419  -12.8472 C   0  0  1  0  0  0  0  0  0  0  0  0
   21.2733  -19.0882  -13.9201 C   0  0  0  0  0  0  0  0  0  0  0  0
   19.9645  -18.4326  -13.8984 C   0  0  0  0  0  0  0  0  0  0  0  0
   18.9558  -18.6227  -12.9790 C   0  0  0  0  0  0  0  0  0  0  0  0
   17.8995  -17.8393  -13.2916 N   0  0  0  0  0  0  0  0  0  0  0  0
   18.2620  -17.1735  -14.3977 C   0  0  0  0  0  0  0  0  0  0  0  0
   19.5082  -17.5297  -14.7663 N   0  0  0  0  0  0  0  0  0  0  0  0
   20.3975  -21.1990  -12.9477 C   0  0  0  0  0  0  0  0  0  0  0  0
   19.0629  -20.8730  -12.7571 O   0  0  0  0  0  0  0  0  0  0  0  0
   20.6722  -22.3987  -13.2008 O   0  0  0  0  0  0  0  0  0  0  0  0
  2  1  1  0
  3  5  1  0
  3  2  1  0
  3  4  1  6
  5  6  1  1
  7  5  1  0
  7  8  2  0
 10  9  1  6
 10 12  1  0
 11 10  1  0
 12 13  1  6
 13  7  1  0
 14 12  1  0
 15 14  2  0
 16 14  1  0
 17 16  1  0
 17 24  1  0
 17 18  1  6
 19 18  1  0
 20 19  2  0
 21 22  1  0
 21 20  1  0
 22 23  2  0
 23 19  1  0
 24 25  1  0
 26 24  2  0
M  END
$$$$
