IVH.pdb
     RDKit          3D

 26 26  0  0  1  0  0  0  0  0999 V2000
   19.1100  -19.1978  -15.9749 C   0  0  0  0  0  0  0  0  0  0  0  0
   20.4653  -18.9259  -15.3793 C   0  0  0  0  0  0  0  0  0  0  0  0
   20.7229  -19.7894  -14.2038 C   0  0  2  0  0  0  0  0  0  0  0  0
   19.5607  -19.6840  -13.2406 C   0  0  0  0  0  0  0  0  0  0  0  0
   22.0174  -19.5912  -13.4863 C   0  0  2  0  0  0  0  0  0  0  0  0
   23.0581  -19.9062  -14.4981 N   0  0  0  0  0  0  0  0  0  0  0  0
   22.2198  -20.5376  -12.3416 C   0  0  0  0  0  0  0  0  0  0  0  0
   22.3682  -21.7689  -12.5558 O   0  0  0  0  0  0  0  0  0  0  0  0
   24.8111  -20.1912   -9.6266 C   0  0  0  0  0  0  0  0  0  0  0  0
   23.4760  -20.3556   -8.9983 C   0  0  2  0  0  0  0  0  0  0  0  0
   23.6524  -21.0900   -7.6821 C   0  0  0  0  0  0  0  0  0  0  0  0
   22.4819  -21.0522   -9.8943 C   0  0  2  0  0  0  0  0  0  0  0  0
   22.2542  -20.1008  -10.9980 N   0  0  0  0  0  0  0  0  0  0  0  0
   21.1848  -21.3370   -9.2337 C   0  0  0  0  0  0  0  0  0  0  0  0
   20.3538  -20.3851   -9.0602 O   0  0  0  0  0  0  0  0  0  0  0  0
   20.7557  -22.5916   -8.7614 N   0  0  0  0  0  0  0  0  0  0  0  0
   19.4509  -22.7891   -8.1568 C   0  0  1  0  0  0  0  0  0  0  0  0
   18.4825  -23.4442   -9.1147 C   0  0  0  0  0  0  0  0  0  0  0  0
   17.1681  -23.6919   -8.5196 C   0  0  0  0  0  0  0  0  0  0  0  0
   16.7737  -23.4087   -7.2300 C   0  0  0  0  0  0  0  0  0  0  0  0
   15.4867  -23.7822   -7.0537 N   0  0  0  0  0  0  0  0  0  0  0  0
   15.0968  -24.2915   -8.2313 C   0  0  0  0  0  0  0  0  0  0  0  0
   16.1098  -24.2383   -9.1181 N   0  0  0  0  0  0  0  0  0  0  0  0
   19.6191  -23.5626   -6.9096 C   0  0  0  0  0  0  0  0  0  0  0  0
   18.8206  -23.2708   -5.8137 O   0  0  0  0  0  0  0  0  0  0  0  0
   20.4612  -24.4868   -6.7853 O   0  0  0  0  0  0  0  0  0  0  0  0
  2  1  1  0
  3  5  1  0
  3  2  1  0
  3  4  1  1
  5  6  1  6
  7  5  1  0
  7  8  2  0
 10  9  1  6
 10 12  1  0
 11 10  1  0
 12 13  1  6
 13  7  1  0
 14 12  1  0
 15 14  2  0
 16 14  1  0
 17 16  1  0
 17 24  1  0
 17 18  1  6
 19 18  1  0
 20 19  2  0
 21 22  1  0
 21 20  1  0
 22 23  2  0
 23 19  1  0
 24 25  1  0
 26 24  2  0
M  END
$$$$
