IVH.pdb
     RDKit          3D

 26 26  0  0  1  0  0  0  0  0999 V2000
   26.3281  -15.4330  -17.3953 C   0  0  0  0  0  0  0  0  0  0  0  0
   27.3289  -16.3430  -16.7351 C   0  0  0  0  0  0  0  0  0  0  0  0
   26.6589  -17.4143  -15.9624 C   0  0  2  0  0  0  0  0  0  0  0  0
   25.7306  -16.7909  -14.9430 C   0  0  0  0  0  0  0  0  0  0  0  0
   27.5360  -18.4357  -15.3164 C   0  0  2  0  0  0  0  0  0  0  0  0
   28.2672  -19.0680  -16.4441 N   0  0  0  0  0  0  0  0  0  0  0  0
   26.7765  -19.5256  -14.6220 C   0  0  0  0  0  0  0  0  0  0  0  0
   26.2699  -20.4673  -15.2857 O   0  0  0  0  0  0  0  0  0  0  0  0
   27.7672  -21.2258  -11.2123 C   0  0  0  0  0  0  0  0  0  0  0  0
   26.3680  -20.7297  -11.1942 C   0  0  2  0  0  0  0  0  0  0  0  0
   25.5409  -21.6585  -10.3246 C   0  0  0  0  0  0  0  0  0  0  0  0
   25.7738  -20.5840  -12.5732 C   0  0  2  0  0  0  0  0  0  0  0  0
   26.5992  -19.5469  -13.2200 N   0  0  0  0  0  0  0  0  0  0  0  0
   24.3603  -20.1343  -12.5664 C   0  0  0  0  0  0  0  0  0  0  0  0
   24.1024  -18.8992  -12.3801 O   0  0  0  0  0  0  0  0  0  0  0  0
   23.2313  -20.9540  -12.7517 N   0  0  0  0  0  0  0  0  0  0  0  0
   21.9696  -20.4373  -13.2500 C   0  0  1  0  0  0  0  0  0  0  0  0
   22.1283  -19.7766  -14.6000 C   0  0  0  0  0  0  0  0  0  0  0  0
   20.8762  -19.2202  -15.1158 C   0  0  0  0  0  0  0  0  0  0  0  0
   19.6506  -19.2097  -14.4860 C   0  0  0  0  0  0  0  0  0  0  0  0
   18.7355  -18.6078  -15.2780 N   0  0  0  0  0  0  0  0  0  0  0  0
   19.3999  -18.2522  -16.3871 C   0  0  0  0  0  0  0  0  0  0  0  0
   20.6925  -18.6207  -16.2920 N   0  0  0  0  0  0  0  0  0  0  0  0
   20.9838  -21.5372  -13.2739 C   0  0  0  0  0  0  0  0  0  0  0  0
   19.7168  -21.3284  -12.7495 O   0  0  0  0  0  0  0  0  0  0  0  0
   21.2351  -22.6717  -13.7520 O   0  0  0  0  0  0  0  0  0  0  0  0
  2  1  1  0
  3  5  1  0
  3  2  1  0
  3  4  1  1
  5  6  1  6
  7  5  1  0
  7  8  2  0
 10  9  1  6
 10 12  1  0
 11 10  1  0
 12 13  1  6
 13  7  1  0
 14 12  1  0
 15 14  2  0
 16 14  1  0
 17 16  1  0
 17 24  1  0
 17 18  1  6
 19 18  1  0
 20 19  2  0
 21 22  1  0
 21 20  1  0
 22 23  2  0
 23 19  1  0
 24 25  1  0
 26 24  2  0
M  END
$$$$
