IVH.pdb
     RDKit          3D

 26 26  0  0  1  0  0  0  0  0999 V2000
   11.4891  -13.3549    3.7810 C   0  0  0  0  0  0  0  0  0  0  0  0
   12.5367  -12.2817    3.9078 C   0  0  0  0  0  0  0  0  0  0  0  0
   13.8805  -12.8614    4.1360 C   0  0  2  0  0  0  0  0  0  0  0  0
   13.8129  -13.8460    5.2830 C   0  0  0  0  0  0  0  0  0  0  0  0
   15.0086  -11.9033    4.3340 C   0  0  2  0  0  0  0  0  0  0  0  0
   15.1221  -11.1860    3.0384 N   0  0  0  0  0  0  0  0  0  0  0  0
   16.3273  -12.5722    4.5804 C   0  0  0  0  0  0  0  0  0  0  0  0
   16.9118  -13.1838    3.6486 O   0  0  0  0  0  0  0  0  0  0  0  0
   19.4872  -11.0766    6.1155 C   0  0  0  0  0  0  0  0  0  0  0  0
   19.0600  -12.2734    6.8833 C   0  0  2  0  0  0  0  0  0  0  0  0
   20.2950  -12.9358    7.4655 C   0  0  0  0  0  0  0  0  0  0  0  0
   18.2441  -13.2422    6.0636 C   0  0  2  0  0  0  0  0  0  0  0  0
   16.9627  -12.5464    5.8426 N   0  0  0  0  0  0  0  0  0  0  0  0
   17.9771  -14.5270    6.7550 C   0  0  0  0  0  0  0  0  0  0  0  0
   17.1721  -14.5445    7.7441 O   0  0  0  0  0  0  0  0  0  0  0  0
   18.5361  -15.7755    6.4238 N   0  0  0  0  0  0  0  0  0  0  0  0
   18.1350  -17.0055    7.0822 C   0  0  1  0  0  0  0  0  0  0  0  0
   18.2101  -18.1916    6.1484 C   0  0  0  0  0  0  0  0  0  0  0  0
   16.8931  -18.7084    5.7723 C   0  0  0  0  0  0  0  0  0  0  0  0
   15.6665  -18.2364    6.1868 C   0  0  0  0  0  0  0  0  0  0  0  0
   14.6810  -18.9718    5.6257 N   0  0  0  0  0  0  0  0  0  0  0  0
   15.3035  -19.8893    4.8714 C   0  0  0  0  0  0  0  0  0  0  0  0
   16.6390  -19.7326    4.9581 N   0  0  0  0  0  0  0  0  0  0  0  0
   18.9638  -17.1874    8.2913 C   0  0  0  0  0  0  0  0  0  0  0  0
   18.5064  -18.0045    9.3145 O   0  0  0  0  0  0  0  0  0  0  0  0
   20.0804  -16.6324    8.4460 O   0  0  0  0  0  0  0  0  0  0  0  0
  2  1  1  0
  3  5  1  0
  3  2  1  0
  3  4  1  1
  5  6  1  6
  7  5  1  0
  7  8  2  0
 10  9  1  6
 10 12  1  0
 11 10  1  0
 12 13  1  1
 13  7  1  0
 14 12  1  0
 15 14  2  0
 16 14  1  0
 17 16  1  0
 17 24  1  0
 17 18  1  6
 19 18  1  0
 20 19  2  0
 21 22  1  0
 21 20  1  0
 22 23  2  0
 23 19  1  0
 24 25  1  0
 26 24  2  0
M  END
$$$$
