FVL.pdb
     RDKit          3D

 27 27  0  0  1  0  0  0  0  0999 V2000
   23.2625  -19.4717  -17.9063 N   0  0  0  0  0  0  0  0  0  0  0  0
   23.6488  -18.6674  -16.7781 C   0  0  1  0  0  0  0  0  0  0  0  0
   22.3745  -18.1940  -16.1067 C   0  0  0  0  0  0  0  0  0  0  0  0
   21.7191  -17.1198  -16.8835 C   0  0  0  0  0  0  0  0  0  0  0  0
   20.5635  -17.3440  -17.5852 C   0  0  0  0  0  0  0  0  0  0  0  0
   19.9546  -16.3329  -18.3117 C   0  0  0  0  0  0  0  0  0  0  0  0
   20.4787  -15.0622  -18.3628 C   0  0  0  0  0  0  0  0  0  0  0  0
   21.6428  -14.8399  -17.6548 C   0  0  0  0  0  0  0  0  0  0  0  0
   22.2543  -15.8298  -16.9333 C   0  0  0  0  0  0  0  0  0  0  0  0
   24.4317  -19.5159  -15.8442 C   0  0  0  0  0  0  0  0  0  0  0  0
   24.0623  -20.7233  -15.6541 O   0  0  0  0  0  0  0  0  0  0  0  0
   28.5560  -20.2501  -13.3109 C   0  0  0  0  0  0  0  0  0  0  0  0
   27.7370  -19.5327  -14.3412 C   0  0  1  0  0  0  0  0  0  0  0  0
   28.2968  -19.6326  -15.7175 C   0  0  0  0  0  0  0  0  0  0  0  0
   26.2783  -19.9879  -14.2431 C   0  0  2  0  0  0  0  0  0  0  0  0
   25.5636  -19.0723  -15.1492 N   0  0  0  0  0  0  0  0  0  0  0  0
   25.7615  -19.8206  -12.8705 C   0  0  0  0  0  0  0  0  0  0  0  0
   25.6556  -18.6440  -12.3927 O   0  0  0  0  0  0  0  0  0  0  0  0
   21.1212  -21.7522  -11.0879 C   0  0  0  0  0  0  0  0  0  0  0  0
   22.3518  -20.8943  -11.2121 C   0  0  1  0  0  0  0  0  0  0  0  0
   21.9884  -19.4297  -11.0114 C   0  0  0  0  0  0  0  0  0  0  0  0
   23.5483  -21.3231  -10.4884 C   0  0  0  0  0  0  0  0  0  0  0  0
   24.8504  -20.6721  -10.6647 C   0  0  2  0  0  0  0  0  0  0  0  0
   25.3593  -20.8634  -12.0063 N   0  0  0  0  0  0  0  0  0  0  0  0
   25.9046  -21.0502   -9.7314 C   0  0  0  0  0  0  0  0  0  0  0  0
   26.7175  -21.9620  -10.0125 O   0  0  0  0  0  0  0  0  0  0  0  0
   26.0765  -20.4434   -8.5007 O   0  0  0  0  0  0  0  0  0  0  0  0
  2  1  1  6
  3  2  1  0
  4  3  1  0
  5  4  2  0
  6  5  1  0
  7  6  2  0
  7  8  1  0
  8  9  2  0
  9  4  1  0
 10 11  2  0
 10  2  1  0
 13 12  1  1
 14 13  1  0
 15 13  1  0
 15 16  1  6
 16 10  1  0
 17 15  1  0
 18 17  2  0
 20 19  1  1
 20 21  1  0
 23 22  1  1
 22 20  1  0
 23 24  1  0
 24 17  1  0
 25 23  1  0
 25 27  1  0
 26 25  2  0
M  END
$$$$
