FVL.pdb
     RDKit          3D

 27 27  0  0  1  0  0  0  0  0999 V2000
   20.4462  -18.6941  -16.4890 N   0  0  0  0  0  0  0  0  0  0  0  0
   21.4619  -18.1603  -15.6217 C   0  0  1  0  0  0  0  0  0  0  0  0
   20.7843  -17.1748  -14.6898 C   0  0  0  0  0  0  0  0  0  0  0  0
   20.3303  -15.9680  -15.4139 C   0  0  0  0  0  0  0  0  0  0  0  0
   18.9990  -15.6882  -15.5787 C   0  0  0  0  0  0  0  0  0  0  0  0
   18.5801  -14.5556  -16.2589 C   0  0  0  0  0  0  0  0  0  0  0  0
   19.4766  -13.6627  -16.7984 C   0  0  0  0  0  0  0  0  0  0  0  0
   20.8168  -13.9478  -16.6305 C   0  0  0  0  0  0  0  0  0  0  0  0
   21.2438  -15.0629  -15.9608 C   0  0  0  0  0  0  0  0  0  0  0  0
   22.0470  -19.2799  -14.8411 C   0  0  0  0  0  0  0  0  0  0  0  0
   21.2606  -20.1123  -14.2762 O   0  0  0  0  0  0  0  0  0  0  0  0
   25.4107  -22.6079  -14.5229 C   0  0  0  0  0  0  0  0  0  0  0  0
   24.6937  -21.4314  -15.1133 C   0  0  1  0  0  0  0  0  0  0  0  0
   23.8611  -21.7787  -16.2980 C   0  0  0  0  0  0  0  0  0  0  0  0
   23.9147  -20.7028  -14.0146 C   0  0  2  0  0  0  0  0  0  0  0  0
   23.4231  -19.4850  -14.6821 N   0  0  0  0  0  0  0  0  0  0  0  0
   24.8021  -20.3242  -12.8971 C   0  0  0  0  0  0  0  0  0  0  0  0
   24.7921  -19.1182  -12.4857 O   0  0  0  0  0  0  0  0  0  0  0  0
   26.6097  -18.5522   -8.4714 C   0  0  0  0  0  0  0  0  0  0  0  0
   26.1186  -19.9635   -8.6522 C   0  0  1  0  0  0  0  0  0  0  0  0
   25.2189  -20.3553   -7.4884 C   0  0  0  0  0  0  0  0  0  0  0  0
   25.5970  -20.3324   -9.9680 C   0  0  0  0  0  0  0  0  0  0  0  0
   26.4596  -20.8244  -11.0470 C   0  0  2  0  0  0  0  0  0  0  0  0
   25.6875  -21.1890  -12.2159 N   0  0  0  0  0  0  0  0  0  0  0  0
   27.3366  -21.9439  -10.7267 C   0  0  0  0  0  0  0  0  0  0  0  0
   26.9643  -23.1269  -10.9088 O   0  0  0  0  0  0  0  0  0  0  0  0
   28.6100  -21.7821  -10.2121 O   0  0  0  0  0  0  0  0  0  0  0  0
  2  1  1  6
  3  2  1  0
  4  3  1  0
  5  4  2  0
  6  5  1  0
  7  6  2  0
  7  8  1  0
  8  9  2  0
  9  4  1  0
 10 11  2  0
 10  2  1  0
 13 12  1  1
 14 13  1  0
 15 13  1  0
 15 16  1  6
 16 10  1  0
 17 15  1  0
 18 17  2  0
 20 19  1  6
 20 21  1  0
 23 22  1  1
 22 20  1  0
 23 24  1  0
 24 17  1  0
 25 23  1  0
 25 27  1  0
 26 25  2  0
M  END
$$$$
