FVL.pdb
     RDKit          3D

 27 27  0  0  1  0  0  0  0  0999 V2000
   28.1031  -21.6942   -8.6794 N   0  0  0  0  0  0  0  0  0  0  0  0
   26.9588  -20.8437   -8.8691 C   0  0  1  0  0  0  0  0  0  0  0  0
   27.3146  -19.4804   -8.3091 C   0  0  0  0  0  0  0  0  0  0  0  0
   27.5595  -19.5397   -6.8519 C   0  0  0  0  0  0  0  0  0  0  0  0
   26.6859  -20.1665   -6.0022 C   0  0  0  0  0  0  0  0  0  0  0  0
   26.9211  -20.2181   -4.6373 C   0  0  0  0  0  0  0  0  0  0  0  0
   28.0373  -19.6453   -4.0733 C   0  0  0  0  0  0  0  0  0  0  0  0
   28.9151  -19.0149   -4.9322 C   0  0  0  0  0  0  0  0  0  0  0  0
   28.6946  -18.9568   -6.2821 C   0  0  0  0  0  0  0  0  0  0  0  0
   26.6876  -20.7412  -10.3255 C   0  0  0  0  0  0  0  0  0  0  0  0
   27.6574  -20.8879  -11.1431 O   0  0  0  0  0  0  0  0  0  0  0  0
   23.9160  -22.1585  -13.8060 C   0  0  0  0  0  0  0  0  0  0  0  0
   24.4651  -21.9950  -12.4209 C   0  0  1  0  0  0  0  0  0  0  0  0
   25.2872  -23.1515  -11.9692 C   0  0  0  0  0  0  0  0  0  0  0  0
   25.1933  -20.6522  -12.3142 C   0  0  2  0  0  0  0  0  0  0  0  0
   25.4211  -20.4908  -10.8678 N   0  0  0  0  0  0  0  0  0  0  0  0
   24.3439  -19.5478  -12.8023 C   0  0  0  0  0  0  0  0  0  0  0  0
   23.3378  -19.1922  -12.1058 O   0  0  0  0  0  0  0  0  0  0  0  0
   25.6263  -16.9340  -17.0277 C   0  0  0  0  0  0  0  0  0  0  0  0
   25.8265  -16.6720  -15.5590 C   0  0  1  0  0  0  0  0  0  0  0  0
   26.8594  -15.5713  -15.3621 C   0  0  0  0  0  0  0  0  0  0  0  0
   24.6296  -16.5307  -14.7302 C   0  0  0  0  0  0  0  0  0  0  0  0
   23.7640  -17.6666  -14.3976 C   0  0  2  0  0  0  0  0  0  0  0  0
   24.5389  -18.8223  -13.9988 N   0  0  0  0  0  0  0  0  0  0  0  0
   22.8218  -18.0959  -15.4238 C   0  0  0  0  0  0  0  0  0  0  0  0
   23.0165  -19.1470  -16.0783 O   0  0  0  0  0  0  0  0  0  0  0  0
   21.6752  -17.3898  -15.7388 O   0  0  0  0  0  0  0  0  0  0  0  0
  2  1  1  6
  3  2  1  0
  4  3  1  0
  5  4  2  0
  6  5  1  0
  7  6  2  0
  7  8  1  0
  8  9  2  0
  9  4  1  0
 10 11  2  0
 10  2  1  0
 13 12  1  6
 14 13  1  0
 15 13  1  0
 15 16  1  1
 16 10  1  0
 17 15  1  0
 18 17  2  0
 20 19  1  6
 20 21  1  0
 23 22  1  6
 22 20  1  0
 23 24  1  0
 24 17  1  0
 25 23  1  0
 25 27  1  0
 26 25  2  0
M  END
$$$$
