FVL.pdb
     RDKit          3D

 27 27  0  0  1  0  0  0  0  0999 V2000
   24.7087  -19.0236  -17.7293 N   0  0  0  0  0  0  0  0  0  0  0  0
   25.0376  -18.3010  -16.5299 C   0  0  1  0  0  0  0  0  0  0  0  0
   23.7642  -17.6392  -16.0408 C   0  0  0  0  0  0  0  0  0  0  0  0
   23.4272  -16.4477  -16.8492 C   0  0  0  0  0  0  0  0  0  0  0  0
   22.3449  -16.4332  -17.6897 C   0  0  0  0  0  0  0  0  0  0  0  0
   22.0349  -15.3134  -18.4452 C   0  0  0  0  0  0  0  0  0  0  0  0
   22.7952  -14.1685  -18.3875 C   0  0  0  0  0  0  0  0  0  0  0  0
   23.8846  -14.1867  -17.5398 C   0  0  0  0  0  0  0  0  0  0  0  0
   24.2018  -15.2862  -16.7882 C   0  0  0  0  0  0  0  0  0  0  0  0
   25.5285  -19.2711  -15.5184 C   0  0  0  0  0  0  0  0  0  0  0  0
   24.9071  -20.3774  -15.3755 O   0  0  0  0  0  0  0  0  0  0  0  0
   29.0658  -20.7050  -12.4514 C   0  0  0  0  0  0  0  0  0  0  0  0
   28.5527  -19.9622  -13.6480 C   0  0  1  0  0  0  0  0  0  0  0  0
   29.2003  -20.3748  -14.9238 C   0  0  0  0  0  0  0  0  0  0  0  0
   27.0242  -20.0469  -13.6863 C   0  0  2  0  0  0  0  0  0  0  0  0
   26.6431  -19.0487  -14.7004 N   0  0  0  0  0  0  0  0  0  0  0  0
   26.4393  -19.6700  -12.3843 C   0  0  0  0  0  0  0  0  0  0  0  0
   26.4735  -18.4477  -12.0258 O   0  0  0  0  0  0  0  0  0  0  0  0
   21.4579  -20.1353  -11.1703 C   0  0  0  0  0  0  0  0  0  0  0  0
   22.8275  -20.6935  -10.8902 C   0  0  1  0  0  0  0  0  0  0  0  0
   23.3003  -21.5306  -12.0705 C   0  0  0  0  0  0  0  0  0  0  0  0
   23.8348  -19.7743  -10.3611 C   0  0  0  0  0  0  0  0  0  0  0  0
   25.2422  -20.1546  -10.2042 C   0  0  2  0  0  0  0  0  0  0  0  0
   25.8259  -20.5528  -11.4676 N   0  0  0  0  0  0  0  0  0  0  0  0
   25.5348  -21.1995   -9.2306 C   0  0  0  0  0  0  0  0  0  0  0  0
   26.1042  -22.2613   -9.5763 O   0  0  0  0  0  0  0  0  0  0  0  0
   25.2120  -21.0939   -7.8900 O   0  0  0  0  0  0  0  0  0  0  0  0
  2  1  1  6
  3  2  1  0
  4  3  1  0
  5  4  2  0
  6  5  1  0
  7  6  2  0
  7  8  1  0
  8  9  2  0
  9  4  1  0
 10 11  2  0
 10  2  1  0
 13 12  1  1
 14 13  1  0
 15 13  1  0
 15 16  1  6
 16 10  1  0
 17 15  1  0
 18 17  2  0
 20 19  1  6
 20 21  1  0
 23 22  1  6
 22 20  1  0
 23 24  1  0
 24 17  1  0
 25 23  1  0
 25 27  1  0
 26 25  2  0
M  END
$$$$
