FVL.pdb
     RDKit          3D

 27 27  0  0  1  0  0  0  0  0999 V2000
   23.0151  -21.9712  -13.8112 N   0  0  0  0  0  0  0  0  0  0  0  0
   23.3822  -20.8416  -12.9999 C   0  0  1  0  0  0  0  0  0  0  0  0
   22.1387  -20.4031  -12.2515 C   0  0  0  0  0  0  0  0  0  0  0  0
   21.2175  -19.6466  -13.1267 C   0  0  0  0  0  0  0  0  0  0  0  0
   21.5468  -18.4102  -13.6175 C   0  0  0  0  0  0  0  0  0  0  0  0
   20.6786  -17.7062  -14.4369 C   0  0  0  0  0  0  0  0  0  0  0  0
   19.4508  -18.2127  -14.7948 C   0  0  0  0  0  0  0  0  0  0  0  0
   19.1224  -19.4583  -14.2986 C   0  0  0  0  0  0  0  0  0  0  0  0
   19.9708  -20.1641  -13.4884 C   0  0  0  0  0  0  0  0  0  0  0  0
   24.4285  -21.2750  -12.0395 C   0  0  0  0  0  0  0  0  0  0  0  0
   24.3335  -22.4320  -11.5077 O   0  0  0  0  0  0  0  0  0  0  0  0
   29.0190  -21.1139  -10.6036 C   0  0  0  0  0  0  0  0  0  0  0  0
   27.8677  -20.7700  -11.4998 C   0  0  1  0  0  0  0  0  0  0  0  0
   27.9375  -21.4293  -12.8331 C   0  0  0  0  0  0  0  0  0  0  0  0
   26.5505  -21.0266  -10.7622 C   0  0  2  0  0  0  0  0  0  0  0  0
   25.5271  -20.4872  -11.6742 N   0  0  0  0  0  0  0  0  0  0  0  0
   26.5055  -20.2887   -9.4844 C   0  0  0  0  0  0  0  0  0  0  0  0
   26.0946  -19.0825   -9.4854 O   0  0  0  0  0  0  0  0  0  0  0  0
   27.8581  -21.2667   -3.4135 C   0  0  0  0  0  0  0  0  0  0  0  0
   27.4763  -20.3069   -4.5083 C   0  0  1  0  0  0  0  0  0  0  0  0
   28.3821  -19.0841   -4.4685 C   0  0  0  0  0  0  0  0  0  0  0  0
   27.2676  -20.8591   -5.8465 C   0  0  0  0  0  0  0  0  0  0  0  0
   26.9609  -20.0164   -7.0067 C   0  0  2  0  0  0  0  0  0  0  0  0
   26.8822  -20.7989   -8.2220 N   0  0  0  0  0  0  0  0  0  0  0  0
   27.8573  -18.8945   -7.2579 C   0  0  0  0  0  0  0  0  0  0  0  0
   28.9746  -19.0707   -7.7980 O   0  0  0  0  0  0  0  0  0  0  0  0
   27.5442  -17.5892   -6.9255 O   0  0  0  0  0  0  0  0  0  0  0  0
  2  1  1  6
  3  2  1  0
  4  3  1  0
  5  4  2  0
  6  5  1  0
  7  6  2  0
  7  8  1  0
  8  9  2  0
  9  4  1  0
 10 11  2  0
 10  2  1  0
 13 12  1  1
 14 13  1  0
 15 13  1  0
 15 16  1  6
 16 10  1  0
 17 15  1  0
 18 17  2  0
 20 19  1  1
 20 21  1  0
 23 22  1  1
 22 20  1  0
 23 24  1  0
 24 17  1  0
 25 23  1  0
 25 27  1  0
 26 25  2  0
M  END
$$$$
