FVL.pdb
     RDKit          3D

 27 27  0  0  1  0  0  0  0  0999 V2000
   23.7844  -19.7487  -15.7438 N   0  0  0  0  0  0  0  0  0  0  0  0
   22.4573  -19.3362  -15.3732 C   0  0  1  0  0  0  0  0  0  0  0  0
   21.6025  -19.3963  -16.6240 C   0  0  0  0  0  0  0  0  0  0  0  0
   22.0106  -18.3720  -17.6094 C   0  0  0  0  0  0  0  0  0  0  0  0
   21.8238  -17.0349  -17.3743 C   0  0  0  0  0  0  0  0  0  0  0  0
   22.2081  -16.0801  -18.3024 C   0  0  0  0  0  0  0  0  0  0  0  0
   22.7926  -16.4274  -19.4981 C   0  0  0  0  0  0  0  0  0  0  0  0
   22.9793  -17.7751  -19.7316 C   0  0  0  0  0  0  0  0  0  0  0  0
   22.6043  -18.7283  -18.8233 C   0  0  0  0  0  0  0  0  0  0  0  0
   21.9388  -20.2854  -14.3557 C   0  0  0  0  0  0  0  0  0  0  0  0
   22.4752  -21.4404  -14.2628 O   0  0  0  0  0  0  0  0  0  0  0  0
   19.6510  -20.9011  -10.1123 C   0  0  0  0  0  0  0  0  0  0  0  0
   20.2967  -20.0868  -11.1925 C   0  0  1  0  0  0  0  0  0  0  0  0
   21.5317  -19.3844  -10.7467 C   0  0  0  0  0  0  0  0  0  0  0  0
   20.5066  -20.9581  -12.4341 C   0  0  2  0  0  0  0  0  0  0  0  0
   20.8860  -19.9926  -13.4800 N   0  0  0  0  0  0  0  0  0  0  0  0
   19.2547  -21.6360  -12.8244 C   0  0  0  0  0  0  0  0  0  0  0  0
   18.2883  -20.9341  -13.2687 O   0  0  0  0  0  0  0  0  0  0  0  0
   16.0755  -26.4993  -13.1768 C   0  0  0  0  0  0  0  0  0  0  0  0
   16.9951  -25.8942  -14.2034 C   0  0  1  0  0  0  0  0  0  0  0  0
   16.1834  -25.3214  -15.3569 C   0  0  0  0  0  0  0  0  0  0  0  0
   18.0594  -25.0149  -13.7202 C   0  0  0  0  0  0  0  0  0  0  0  0
   17.7929  -23.6726  -13.1935 C   0  0  2  0  0  0  0  0  0  0  0  0
   19.0112  -23.0259  -12.7543 N   0  0  0  0  0  0  0  0  0  0  0  0
   16.8221  -23.5737  -12.1105 C   0  0  0  0  0  0  0  0  0  0  0  0
   15.6082  -23.3723  -12.3495 O   0  0  0  0  0  0  0  0  0  0  0  0
   17.1651  -23.6924  -10.7761 O   0  0  0  0  0  0  0  0  0  0  0  0
  2  1  1  6
  3  2  1  0
  4  3  1  0
  5  4  2  0
  6  5  1  0
  7  6  2  0
  7  8  1  0
  8  9  2  0
  9  4  1  0
 10 11  2  0
 10  2  1  0
 13 12  1  1
 14 13  1  0
 15 13  1  0
 15 16  1  6
 16 10  1  0
 17 15  1  0
 18 17  2  0
 20 19  1  1
 20 21  1  0
 23 22  1  1
 22 20  1  0
 23 24  1  0
 24 17  1  0
 25 23  1  0
 25 27  1  0
 26 25  2  0
M  END
$$$$
