FVL.pdb
     RDKit          3D

 27 27  0  0  1  0  0  0  0  0999 V2000
   23.2924  -20.7359  -18.0556 N   0  0  0  0  0  0  0  0  0  0  0  0
   23.5281  -19.7413  -17.0436 C   0  0  1  0  0  0  0  0  0  0  0  0
   22.1759  -19.3287  -16.4957 C   0  0  0  0  0  0  0  0  0  0  0  0
   21.4259  -18.5041  -17.4674 C   0  0  0  0  0  0  0  0  0  0  0  0
   21.8141  -17.2264  -17.7753 C   0  0  0  0  0  0  0  0  0  0  0  0
   21.1063  -16.4586  -18.6865 C   0  0  0  0  0  0  0  0  0  0  0  0
   19.9857  -16.9403  -19.3223 C   0  0  0  0  0  0  0  0  0  0  0  0
   19.5975  -18.2277  -19.0099 C   0  0  0  0  0  0  0  0  0  0  0  0
   20.2878  -18.9965  -18.1117 C   0  0  0  0  0  0  0  0  0  0  0  0
   24.3485  -20.3533  -15.9677 C   0  0  0  0  0  0  0  0  0  0  0  0
   24.0343  -21.5147  -15.5403 O   0  0  0  0  0  0  0  0  0  0  0  0
   28.4258  -20.2722  -13.2391 C   0  0  0  0  0  0  0  0  0  0  0  0
   27.6220  -19.8766  -14.4408 C   0  0  1  0  0  0  0  0  0  0  0  0
   28.2612  -20.2543  -15.7316 C   0  0  0  0  0  0  0  0  0  0  0  0
   26.1907  -20.4008  -14.2942 C   0  0  2  0  0  0  0  0  0  0  0  0
   25.4589  -19.7313  -15.3835 N   0  0  0  0  0  0  0  0  0  0  0  0
   25.6099  -20.0021  -12.9969 C   0  0  0  0  0  0  0  0  0  0  0  0
   25.4109  -18.7646  -12.7669 O   0  0  0  0  0  0  0  0  0  0  0  0
   20.9661  -21.4372  -11.2329 C   0  0  0  0  0  0  0  0  0  0  0  0
   22.2665  -20.7080  -11.4397 C   0  0  1  0  0  0  0  0  0  0  0  0
   21.9997  -19.2346  -11.7143 C   0  0  0  0  0  0  0  0  0  0  0  0
   23.3395  -20.9572  -10.4775 C   0  0  0  0  0  0  0  0  0  0  0  0
   24.7048  -20.4599  -10.6749 C   0  0  2  0  0  0  0  0  0  0  0  0
   25.2402  -20.8791  -11.9528 N   0  0  0  0  0  0  0  0  0  0  0  0
   25.6826  -20.8030   -9.6494 C   0  0  0  0  0  0  0  0  0  0  0  0
   26.5461  -21.6884   -9.8528 O   0  0  0  0  0  0  0  0  0  0  0  0
   25.7239  -20.1897   -8.4106 O   0  0  0  0  0  0  0  0  0  0  0  0
  2  1  1  6
  3  2  1  0
  4  3  1  0
  5  4  2  0
  6  5  1  0
  7  6  2  0
  7  8  1  0
  8  9  2  0
  9  4  1  0
 10 11  2  0
 10  2  1  0
 13 12  1  1
 14 13  1  0
 15 13  1  0
 15 16  1  6
 16 10  1  0
 17 15  1  0
 18 17  2  0
 20 19  1  1
 20 21  1  0
 23 22  1  1
 22 20  1  0
 23 24  1  0
 24 17  1  0
 25 23  1  0
 25 27  1  0
 26 25  2  0
M  END
$$$$
