FVL.pdb
     RDKit          3D

 27 27  0  0  1  0  0  0  0  0999 V2000
   25.9818   -9.1502  -18.1152 N   0  0  0  0  0  0  0  0  0  0  0  0
   25.0815   -8.0556  -17.8702 C   0  0  1  0  0  0  0  0  0  0  0  0
   25.4682   -7.4455  -16.5372 C   0  0  0  0  0  0  0  0  0  0  0  0
   24.9730   -8.2577  -15.4050 C   0  0  0  0  0  0  0  0  0  0  0  0
   25.8150   -9.0445  -14.6634 C   0  0  0  0  0  0  0  0  0  0  0  0
   25.3443   -9.8038  -13.6038 C   0  0  0  0  0  0  0  0  0  0  0  0
   24.0156   -9.8037  -13.2478 C   0  0  0  0  0  0  0  0  0  0  0  0
   23.1703   -9.0101  -13.9969 C   0  0  0  0  0  0  0  0  0  0  0  0
   23.6224   -8.2554  -15.0459 C   0  0  0  0  0  0  0  0  0  0  0  0
   25.2518   -7.0571  -18.9560 C   0  0  0  0  0  0  0  0  0  0  0  0
   26.4290   -6.8091  -19.3840 O   0  0  0  0  0  0  0  0  0  0  0  0
   23.4252   -4.8791  -22.8355 C   0  0  0  0  0  0  0  0  0  0  0  0
   23.5927   -5.9484  -21.7985 C   0  0  1  0  0  0  0  0  0  0  0  0
   24.0807   -7.2410  -22.3540 C   0  0  0  0  0  0  0  0  0  0  0  0
   24.4534   -5.4164  -20.6491 C   0  0  2  0  0  0  0  0  0  0  0  0
   24.1916   -6.3604  -19.5490 N   0  0  0  0  0  0  0  0  0  0  0  0
   24.0225   -4.0631  -20.2461 C   0  0  0  0  0  0  0  0  0  0  0  0
   22.8548   -3.9094  -19.7596 O   0  0  0  0  0  0  0  0  0  0  0  0
   26.1270   -0.5351  -16.5683 C   0  0  0  0  0  0  0  0  0  0  0  0
   25.0905   -1.1417  -17.4756 C   0  0  1  0  0  0  0  0  0  0  0  0
   23.6955   -0.7517  -17.0072 C   0  0  0  0  0  0  0  0  0  0  0  0
   25.2995   -1.0148  -18.9176 C   0  0  0  0  0  0  0  0  0  0  0  0
   24.3677   -1.5768  -19.9005 C   0  0  2  0  0  0  0  0  0  0  0  0
   24.7963   -2.8854  -20.3468 N   0  0  0  0  0  0  0  0  0  0  0  0
   24.0975   -0.7700  -21.0843 C   0  0  0  0  0  0  0  0  0  0  0  0
   23.4360    0.2916  -21.0035 O   0  0  0  0  0  0  0  0  0  0  0  0
   24.5420   -1.1121  -22.3484 O   0  0  0  0  0  0  0  0  0  0  0  0
  2  1  1  6
  3  2  1  0
  4  3  1  0
  5  4  2  0
  6  5  1  0
  7  6  2  0
  7  8  1  0
  8  9  2  0
  9  4  1  0
 10 11  2  0
 10  2  1  0
 13 12  1  6
 14 13  1  0
 15 13  1  0
 15 16  1  1
 16 10  1  0
 17 15  1  0
 18 17  2  0
 20 19  1  1
 20 21  1  0
 23 22  1  6
 22 20  1  0
 23 24  1  0
 24 17  1  0
 25 23  1  0
 25 27  1  0
 26 25  2  0
M  END
$$$$
