FVL.pdb
     RDKit          3D

 27 27  0  0  1  0  0  0  0  0999 V2000
   21.1543  -15.8638  -18.4435 N   0  0  0  0  0  0  0  0  0  0  0  0
   19.9986  -15.4609  -17.6880 C   0  0  1  0  0  0  0  0  0  0  0  0
   18.8943  -15.1604  -18.6824 C   0  0  0  0  0  0  0  0  0  0  0  0
   19.1666  -13.9175  -19.4359 C   0  0  0  0  0  0  0  0  0  0  0  0
   19.5166  -13.9432  -20.7606 C   0  0  0  0  0  0  0  0  0  0  0  0
   19.7711  -12.7745  -21.4609 C   0  0  0  0  0  0  0  0  0  0  0  0
   19.6846  -11.5390  -20.8625 C   0  0  0  0  0  0  0  0  0  0  0  0
   19.3318  -11.5169  -19.5280 C   0  0  0  0  0  0  0  0  0  0  0  0
   19.0779  -12.6638  -18.8249 C   0  0  0  0  0  0  0  0  0  0  0  0
   19.5985  -16.5878  -16.8076 C   0  0  0  0  0  0  0  0  0  0  0  0
   19.7776  -17.7831  -17.2193 O   0  0  0  0  0  0  0  0  0  0  0  0
   18.4991  -18.2133  -12.3501 C   0  0  0  0  0  0  0  0  0  0  0  0
   19.1105  -17.2551  -13.3272 C   0  0  1  0  0  0  0  0  0  0  0  0
   20.5901  -17.1441  -13.2012 C   0  0  0  0  0  0  0  0  0  0  0  0
   18.6448  -17.6020  -14.7441 C   0  0  2  0  0  0  0  0  0  0  0  0
   19.0301  -16.4228  -15.5384 N   0  0  0  0  0  0  0  0  0  0  0  0
   17.1789  -17.7689  -14.7947 C   0  0  0  0  0  0  0  0  0  0  0  0
   16.4431  -16.7293  -14.8363 O   0  0  0  0  0  0  0  0  0  0  0  0
   12.9917  -19.7927  -18.1913 C   0  0  0  0  0  0  0  0  0  0  0  0
   13.2717  -19.3787  -16.7715 C   0  0  1  0  0  0  0  0  0  0  0  0
   12.3166  -20.0900  -15.8233 C   0  0  0  0  0  0  0  0  0  0  0  0
   14.6670  -19.3769  -16.3325 C   0  0  0  0  0  0  0  0  0  0  0  0
   15.0529  -19.1400  -14.9378 C   0  0  2  0  0  0  0  0  0  0  0  0
   16.4874  -19.0008  -14.8029 N   0  0  0  0  0  0  0  0  0  0  0  0
   14.6079  -20.1234  -13.9579 C   0  0  0  0  0  0  0  0  0  0  0  0
   15.1916  -21.2265  -13.8410 O   0  0  0  0  0  0  0  0  0  0  0  0
   13.5362  -19.9122  -13.1096 O   0  0  0  0  0  0  0  0  0  0  0  0
  2  1  1  6
  3  2  1  0
  4  3  1  0
  5  4  2  0
  6  5  1  0
  7  6  2  0
  7  8  1  0
  8  9  2  0
  9  4  1  0
 10 11  2  0
 10  2  1  0
 13 12  1  1
 14 13  1  0
 15 13  1  0
 15 16  1  6
 16 10  1  0
 17 15  1  0
 18 17  2  0
 20 19  1  6
 20 21  1  0
 23 22  1  6
 22 20  1  0
 23 24  1  0
 24 17  1  0
 25 23  1  0
 25 27  1  0
 26 25  2  0
M  END
$$$$
