FVL.pdb
     RDKit          3D

 27 27  0  0  1  0  0  0  0  0999 V2000
   24.0101  -13.9967  -18.5759 N   0  0  0  0  0  0  0  0  0  0  0  0
   23.7631  -13.2288  -17.3850 C   0  0  1  0  0  0  0  0  0  0  0  0
   25.1102  -12.7847  -16.8495 C   0  0  0  0  0  0  0  0  0  0  0  0
   25.9195  -13.9360  -16.3951 C   0  0  0  0  0  0  0  0  0  0  0  0
   25.6513  -14.5813  -15.2162 C   0  0  0  0  0  0  0  0  0  0  0  0
   26.4140  -15.6594  -14.7959 C   0  0  0  0  0  0  0  0  0  0  0  0
   27.4715  -16.1309  -15.5385 C   0  0  0  0  0  0  0  0  0  0  0  0
   27.7387  -15.4786  -16.7254 C   0  0  0  0  0  0  0  0  0  0  0  0
   26.9931  -14.4125  -17.1520 C   0  0  0  0  0  0  0  0  0  0  0  0
   22.9455  -12.0449  -17.7523 C   0  0  0  0  0  0  0  0  0  0  0  0
   23.1402  -11.4912  -18.8863 O   0  0  0  0  0  0  0  0  0  0  0  0
   18.7101   -9.8289  -17.5218 C   0  0  0  0  0  0  0  0  0  0  0  0
   19.6955  -10.9389  -17.3125 C   0  0  1  0  0  0  0  0  0  0  0  0
   19.4516  -12.1199  -18.1860 C   0  0  0  0  0  0  0  0  0  0  0  0
   21.1195  -10.3861  -17.4200 C   0  0  2  0  0  0  0  0  0  0  0  0
   21.9619  -11.4887  -16.9252 N   0  0  0  0  0  0  0  0  0  0  0  0
   21.2975   -9.2060  -16.5511 C   0  0  0  0  0  0  0  0  0  0  0  0
   21.2043   -9.3526  -15.2887 O   0  0  0  0  0  0  0  0  0  0  0  0
   23.9024   -4.2743  -15.3484 C   0  0  0  0  0  0  0  0  0  0  0  0
   22.6876   -4.3462  -16.2342 C   0  0  1  0  0  0  0  0  0  0  0  0
   22.6656   -3.1582  -17.1859 C   0  0  0  0  0  0  0  0  0  0  0  0
   22.3897   -5.6308  -16.8668 C   0  0  0  0  0  0  0  0  0  0  0  0
   21.8634   -6.7749  -16.1155 C   0  0  2  0  0  0  0  0  0  0  0  0
   21.5698   -7.8909  -16.9894 N   0  0  0  0  0  0  0  0  0  0  0  0
   20.6847   -6.5329  -15.2925 C   0  0  0  0  0  0  0  0  0  0  0  0
   19.5454   -6.4467  -15.8079 O   0  0  0  0  0  0  0  0  0  0  0  0
   20.7408   -6.3852  -13.9186 O   0  0  0  0  0  0  0  0  0  0  0  0
  2  1  1  6
  3  2  1  0
  4  3  1  0
  5  4  2  0
  6  5  1  0
  7  6  2  0
  7  8  1  0
  8  9  2  0
  9  4  1  0
 10 11  2  0
 10  2  1  0
 13 12  1  6
 14 13  1  0
 15 13  1  0
 15 16  1  1
 16 10  1  0
 17 15  1  0
 18 17  2  0
 20 19  1  6
 20 21  1  0
 23 22  1  6
 22 20  1  0
 23 24  1  0
 24 17  1  0
 25 23  1  0
 25 27  1  0
 26 25  2  0
M  END
$$$$
