FVL.pdb
     RDKit          3D

 27 27  0  0  1  0  0  0  0  0999 V2000
   25.2704  -17.5147  -16.0260 N   0  0  0  0  0  0  0  0  0  0  0  0
   26.3364  -17.9097  -15.1448 C   0  0  1  0  0  0  0  0  0  0  0  0
   27.0228  -16.6425  -14.6738 C   0  0  0  0  0  0  0  0  0  0  0  0
   27.7746  -15.9937  -15.7695 C   0  0  0  0  0  0  0  0  0  0  0  0
   27.5339  -14.6949  -16.1344 C   0  0  0  0  0  0  0  0  0  0  0  0
   28.2418  -14.0929  -17.1626 C   0  0  0  0  0  0  0  0  0  0  0  0
   29.2151  -14.7673  -17.8626 C   0  0  0  0  0  0  0  0  0  0  0  0
   29.4549  -16.0753  -17.4923 C   0  0  0  0  0  0  0  0  0  0  0  0
   28.7629  -16.6817  -16.4786 C   0  0  0  0  0  0  0  0  0  0  0  0
   25.7453  -18.6291  -13.9879 C   0  0  0  0  0  0  0  0  0  0  0  0
   24.7058  -18.1432  -13.4279 O   0  0  0  0  0  0  0  0  0  0  0  0
   24.7397  -22.8214  -11.9065 C   0  0  0  0  0  0  0  0  0  0  0  0
   25.3377  -21.9385  -12.9599 C   0  0  1  0  0  0  0  0  0  0  0  0
   24.5871  -21.9587  -14.2458 C   0  0  0  0  0  0  0  0  0  0  0  0
   25.5375  -20.5297  -12.3940 C   0  0  2  0  0  0  0  0  0  0  0  0
   26.2606  -19.8212  -13.4642 N   0  0  0  0  0  0  0  0  0  0  0  0
   26.3720  -20.5604  -11.1766 C   0  0  0  0  0  0  0  0  0  0  0  0
   27.5373  -21.0719  -11.2430 O   0  0  0  0  0  0  0  0  0  0  0  0
   29.1857  -20.4659   -6.5517 C   0  0  0  0  0  0  0  0  0  0  0  0
   27.8840  -19.7148   -6.6339 C   0  0  1  0  0  0  0  0  0  0  0  0
   27.9540  -18.4559   -5.7808 C   0  0  0  0  0  0  0  0  0  0  0  0
   27.3055  -19.5116   -7.9619 C   0  0  0  0  0  0  0  0  0  0  0  0
   26.5255  -20.5468   -8.6474 C   0  0  2  0  0  0  0  0  0  0  0  0
   25.9997  -20.0649   -9.9071 N   0  0  0  0  0  0  0  0  0  0  0  0
   25.4208  -21.1374   -7.9017 C   0  0  0  0  0  0  0  0  0  0  0  0
   24.2475  -20.7227   -8.0515 O   0  0  0  0  0  0  0  0  0  0  0  0
   25.5871  -22.1716   -6.9988 O   0  0  0  0  0  0  0  0  0  0  0  0
  2  1  1  6
  3  2  1  0
  4  3  1  0
  5  4  2  0
  6  5  1  0
  7  6  2  0
  7  8  1  0
  8  9  2  0
  9  4  1  0
 10 11  2  0
 10  2  1  0
 13 12  1  1
 14 13  1  0
 15 13  1  0
 15 16  1  6
 16 10  1  0
 17 15  1  0
 18 17  2  0
 20 19  1  6
 20 21  1  0
 23 22  1  1
 22 20  1  0
 23 24  1  0
 24 17  1  0
 25 23  1  0
 25 27  1  0
 26 25  2  0
M  END
$$$$
