FVL.pdb
     RDKit          3D

 27 27  0  0  1  0  0  0  0  0999 V2000
   23.2590  -30.5027  -10.7623 N   0  0  0  0  0  0  0  0  0  0  0  0
   21.9683  -30.2298  -11.3354 C   0  0  1  0  0  0  0  0  0  0  0  0
   20.9801  -31.1821  -10.6910 C   0  0  0  0  0  0  0  0  0  0  0  0
   20.9641  -32.4925  -11.3762 C   0  0  0  0  0  0  0  0  0  0  0  0
   21.3796  -33.6368  -10.7470 C   0  0  0  0  0  0  0  0  0  0  0  0
   21.3625  -34.8617  -11.3951 C   0  0  0  0  0  0  0  0  0  0  0  0
   20.9297  -34.9865  -12.6948 C   0  0  0  0  0  0  0  0  0  0  0  0
   20.5119  -33.8319  -13.3256 C   0  0  0  0  0  0  0  0  0  0  0  0
   20.5238  -32.6158  -12.6967 C   0  0  0  0  0  0  0  0  0  0  0  0
   21.6029  -28.8256  -11.0192 C   0  0  0  0  0  0  0  0  0  0  0  0
   22.2730  -28.2016  -10.1293 O   0  0  0  0  0  0  0  0  0  0  0  0
   20.0314  -24.6497  -12.7631 C   0  0  0  0  0  0  0  0  0  0  0  0
   20.4949  -26.0746  -12.8039 C   0  0  1  0  0  0  0  0  0  0  0  0
   21.8393  -26.2428  -13.4215 C   0  0  0  0  0  0  0  0  0  0  0  0
   20.3868  -26.6882  -11.4050 C   0  0  2  0  0  0  0  0  0  0  0  0
   20.5574  -28.1322  -11.6414 N   0  0  0  0  0  0  0  0  0  0  0  0
   19.0544  -26.4420  -10.8192 C   0  0  0  0  0  0  0  0  0  0  0  0
   18.0345  -26.9756  -11.3659 O   0  0  0  0  0  0  0  0  0  0  0  0
   18.0846  -25.5952   -5.2958 C   0  0  0  0  0  0  0  0  0  0  0  0
   17.9591  -26.0643   -6.7205 C   0  0  1  0  0  0  0  0  0  0  0  0
   17.2161  -27.3921   -6.7685 C   0  0  0  0  0  0  0  0  0  0  0  0
   17.5139  -25.0883   -7.7148 C   0  0  0  0  0  0  0  0  0  0  0  0
   17.4648  -25.3918   -9.1486 C   0  0  2  0  0  0  0  0  0  0  0  0
   18.7863  -25.6519   -9.6791 N   0  0  0  0  0  0  0  0  0  0  0  0
   16.8284  -24.4006  -10.0075 C   0  0  0  0  0  0  0  0  0  0  0  0
   17.4756  -23.4249  -10.4550 O   0  0  0  0  0  0  0  0  0  0  0  0
   15.4980  -24.4668  -10.3792 O   0  0  0  0  0  0  0  0  0  0  0  0
  2  1  1  1
  3  2  1  0
  4  3  1  0
  5  4  2  0
  6  5  1  0
  7  6  2  0
  7  8  1  0
  8  9  2  0
  9  4  1  0
 10 11  2  0
 10  2  1  0
 13 12  1  1
 14 13  1  0
 15 13  1  0
 15 16  1  6
 16 10  1  0
 17 15  1  0
 18 17  2  0
 20 19  1  1
 20 21  1  0
 23 22  1  1
 22 20  1  0
 23 24  1  0
 24 17  1  0
 25 23  1  0
 25 27  1  0
 26 25  2  0
M  END
$$$$
