NNF.pdb
     RDKit          3D

 28 28  0  0  1  0  0  0  0  0999 V2000
   28.9186  -21.3544  -18.6829 N   0  0  0  0  0  0  0  0  0  0  0  0
   27.6667  -20.7218  -18.5459 C   0  0  0  0  0  0  0  0  0  0  0  0
   27.2382  -20.0473  -19.5234 O   0  0  0  0  0  0  0  0  0  0  0  0
   26.8731  -20.8382  -17.3022 C   0  0  0  0  0  0  0  0  0  0  0  0
   27.6336  -21.4667  -16.1593 C   0  0  2  0  0  0  0  0  0  0  0  0
   28.4015  -22.6168  -16.5168 N   0  0  0  0  0  0  0  0  0  0  0  0
   26.7643  -21.6758  -14.9749 C   0  0  0  0  0  0  0  0  0  0  0  0
   25.7582  -22.4176  -15.1148 O   0  0  0  0  0  0  0  0  0  0  0  0
   24.6636  -21.3472  -10.2517 N   0  0  0  0  0  0  0  0  0  0  0  0
   25.9712  -20.8084  -10.1422 C   0  0  0  0  0  0  0  0  0  0  0  0
   26.3675  -20.4584   -9.0037 O   0  0  0  0  0  0  0  0  0  0  0  0
   26.7962  -20.6870  -11.3654 C   0  0  0  0  0  0  0  0  0  0  0  0
   26.0935  -21.2053  -12.5812 C   0  0  2  0  0  0  0  0  0  0  0  0
   26.9913  -21.1007  -13.7133 N   0  0  0  0  0  0  0  0  0  0  0  0
   24.8546  -20.4430  -12.8863 C   0  0  0  0  0  0  0  0  0  0  0  0
   24.9180  -19.2937  -13.4151 O   0  0  0  0  0  0  0  0  0  0  0  0
   23.5642  -20.9532  -12.6068 N   0  0  0  0  0  0  0  0  0  0  0  0
   22.3444  -20.4848  -13.2484 C   0  0  1  0  0  0  0  0  0  0  0  0
   22.4781  -20.5057  -14.7487 C   0  0  0  0  0  0  0  0  0  0  0  0
   21.2647  -20.0248  -15.4026 C   0  0  0  0  0  0  0  0  0  0  0  0
   20.2641  -20.9573  -15.6706 C   0  0  0  0  0  0  0  0  0  0  0  0
   19.1047  -20.5244  -16.2772 C   0  0  0  0  0  0  0  0  0  0  0  0
   18.9072  -19.2056  -16.6241 C   0  0  0  0  0  0  0  0  0  0  0  0
   19.8860  -18.2792  -16.3650 C   0  0  0  0  0  0  0  0  0  0  0  0
   21.0485  -18.7091  -15.7575 C   0  0  0  0  0  0  0  0  0  0  0  0
   21.1507  -21.1460  -12.7228 C   0  0  0  0  0  0  0  0  0  0  0  0
   19.9722  -20.5478  -12.3651 O   0  0  0  0  0  0  0  0  0  0  0  0
   21.2087  -22.4144  -12.5797 O   0  0  0  0  0  0  0  0  0  0  0  0
  2  1  1  0
  2  3  2  0
  4  2  1  0
  5  7  1  0
  5  4  1  0
  5  6  1  6
  7  8  2  0
  9 10  1  0
 10 12  1  0
 10 11  2  0
 13 12  1  1
 13 14  1  0
 13 15  1  0
 14  7  1  0
 15 17  1  0
 15 16  2  0
 17 18  1  0
 18 26  1  0
 18 19  1  6
 20 19  1  0
 20 25  2  0
 21 20  1  0
 22 21  2  0
 22 23  1  0
 23 24  2  0
 24 25  1  0
 26 28  2  0
 26 27  1  0
M  END
$$$$
