NNF.pdb
     RDKit          3D

 28 28  0  0  1  0  0  0  0  0999 V2000
   26.5129  -18.1978  -18.4739 N   0  0  0  0  0  0  0  0  0  0  0  0
   25.1643  -17.8820  -18.2131 C   0  0  0  0  0  0  0  0  0  0  0  0
   24.4644  -17.4531  -19.1725 O   0  0  0  0  0  0  0  0  0  0  0  0
   24.5787  -18.0443  -16.8638 C   0  0  0  0  0  0  0  0  0  0  0  0
   25.5426  -18.6200  -15.8543 C   0  0  2  0  0  0  0  0  0  0  0  0
   25.9440  -19.9658  -16.1153 N   0  0  0  0  0  0  0  0  0  0  0  0
   25.0743  -18.3975  -14.4639 C   0  0  0  0  0  0  0  0  0  0  0  0
   24.6968  -17.2380  -14.1552 O   0  0  0  0  0  0  0  0  0  0  0  0
   21.6257  -21.5055  -12.2967 N   0  0  0  0  0  0  0  0  0  0  0  0
   21.8850  -21.3803  -13.6856 C   0  0  0  0  0  0  0  0  0  0  0  0
   21.0936  -21.9410  -14.4825 O   0  0  0  0  0  0  0  0  0  0  0  0
   23.0656  -20.6011  -14.1223 C   0  0  0  0  0  0  0  0  0  0  0  0
   23.8127  -20.0039  -12.9710 C   0  0  2  0  0  0  0  0  0  0  0  0
   25.0262  -19.3937  -13.4744 N   0  0  0  0  0  0  0  0  0  0  0  0
   24.1805  -21.0180  -11.9485 C   0  0  0  0  0  0  0  0  0  0  0  0
   23.2886  -21.7196  -11.3857 O   0  0  0  0  0  0  0  0  0  0  0  0
   25.5218  -21.2474  -11.5588 N   0  0  0  0  0  0  0  0  0  0  0  0
   25.9997  -21.1605  -10.1866 C   0  0  1  0  0  0  0  0  0  0  0  0
   27.0199  -20.0625  -10.0359 C   0  0  0  0  0  0  0  0  0  0  0  0
   27.5229  -19.9810   -8.6678 C   0  0  0  0  0  0  0  0  0  0  0  0
   28.4861  -20.9102   -8.2787 C   0  0  0  0  0  0  0  0  0  0  0  0
   28.9840  -20.8457   -6.9952 C   0  0  0  0  0  0  0  0  0  0  0  0
   28.5604  -19.8958   -6.0915 C   0  0  0  0  0  0  0  0  0  0  0  0
   27.6122  -18.9762   -6.4641 C   0  0  0  0  0  0  0  0  0  0  0  0
   27.1112  -19.0378   -7.7488 C   0  0  0  0  0  0  0  0  0  0  0  0
   24.9049  -21.1271   -9.2178 C   0  0  0  0  0  0  0  0  0  0  0  0
   23.8048  -20.3127   -9.2511 O   0  0  0  0  0  0  0  0  0  0  0  0
   24.9782  -21.9406   -8.2351 O   0  0  0  0  0  0  0  0  0  0  0  0
  2  1  1  0
  2  3  2  0
  4  2  1  0
  5  7  1  0
  5  4  1  0
  5  6  1  6
  7  8  2  0
  9 10  1  0
 10 12  1  0
 10 11  2  0
 13 12  1  6
 13 14  1  0
 13 15  1  0
 14  7  1  0
 15 17  1  0
 15 16  2  0
 17 18  1  0
 18 26  1  0
 18 19  1  6
 20 19  1  0
 20 25  2  0
 21 20  1  0
 22 21  2  0
 22 23  1  0
 23 24  2  0
 24 25  1  0
 26 28  2  0
 26 27  1  0
M  END
$$$$
