NNF.pdb
     RDKit          3D

 28 28  0  0  1  0  0  0  0  0999 V2000
   20.2057  -18.4887  -13.6362 N   0  0  0  0  0  0  0  0  0  0  0  0
   20.3126  -19.7939  -14.1570 C   0  0  0  0  0  0  0  0  0  0  0  0
   19.3507  -20.2325  -14.8474 O   0  0  0  0  0  0  0  0  0  0  0  0
   21.5081  -20.6302  -13.9092 C   0  0  0  0  0  0  0  0  0  0  0  0
   22.5130  -19.9854  -12.9851 C   0  0  2  0  0  0  0  0  0  0  0  0
   22.9740  -18.7019  -13.4101 N   0  0  0  0  0  0  0  0  0  0  0  0
   23.6068  -20.9228  -12.6287 C   0  0  0  0  0  0  0  0  0  0  0  0
   23.2857  -22.0921  -12.2945 O   0  0  0  0  0  0  0  0  0  0  0  0
   26.0560  -22.6342  -15.0941 N   0  0  0  0  0  0  0  0  0  0  0  0
   27.0889  -21.6994  -14.8270 C   0  0  0  0  0  0  0  0  0  0  0  0
   27.9022  -21.4453  -15.7488 O   0  0  0  0  0  0  0  0  0  0  0  0
   27.1554  -21.0753  -13.4862 C   0  0  0  0  0  0  0  0  0  0  0  0
   26.0585  -21.5456  -12.5830 C   0  0  2  0  0  0  0  0  0  0  0  0
   24.9716  -20.5897  -12.6397 N   0  0  0  0  0  0  0  0  0  0  0  0
   26.5045  -21.6736  -11.1709 C   0  0  0  0  0  0  0  0  0  0  0  0
   27.3673  -22.5411  -10.8430 O   0  0  0  0  0  0  0  0  0  0  0  0
   25.9975  -20.8473  -10.1395 N   0  0  0  0  0  0  0  0  0  0  0  0
   26.4258  -20.9201   -8.7502 C   0  0  1  0  0  0  0  0  0  0  0  0
   27.6937  -20.1367   -8.5315 C   0  0  0  0  0  0  0  0  0  0  0  0
   28.0148  -20.0202   -7.1122 C   0  0  0  0  0  0  0  0  0  0  0  0
   27.0083  -19.5728   -6.2582 C   0  0  0  0  0  0  0  0  0  0  0  0
   27.2849  -19.4656   -4.9123 C   0  0  0  0  0  0  0  0  0  0  0  0
   28.5189  -19.7856   -4.3897 C   0  0  0  0  0  0  0  0  0  0  0  0
   29.5173  -20.2269   -5.2217 C   0  0  0  0  0  0  0  0  0  0  0  0
   29.2439  -20.3355   -6.5703 C   0  0  0  0  0  0  0  0  0  0  0  0
   25.3410  -20.6174   -7.8175 C   0  0  0  0  0  0  0  0  0  0  0  0
   25.1749  -21.1295   -6.5586 O   0  0  0  0  0  0  0  0  0  0  0  0
   24.4521  -19.7897   -8.2145 O   0  0  0  0  0  0  0  0  0  0  0  0
  2  1  1  0
  2  3  2  0
  4  2  1  0
  5  7  1  0
  5  4  1  0
  5  6  1  6
  7  8  2  0
  9 10  1  0
 10 12  1  0
 10 11  2  0
 13 12  1  6
 13 14  1  0
 13 15  1  0
 14  7  1  0
 15 17  1  0
 15 16  2  0
 17 18  1  0
 18 26  1  0
 18 19  1  6
 20 19  1  0
 20 25  2  0
 21 20  1  0
 22 21  2  0
 22 23  1  0
 23 24  2  0
 24 25  1  0
 26 28  2  0
 26 27  1  0
M  END
$$$$
