NNF.pdb
     RDKit          3D

 28 28  0  0  1  0  0  0  0  0999 V2000
   24.7537  -22.6428  -16.4124 N   0  0  0  0  0  0  0  0  0  0  0  0
   25.4517  -22.5027  -17.6288 C   0  0  0  0  0  0  0  0  0  0  0  0
   25.2404  -21.4621  -18.3119 O   0  0  0  0  0  0  0  0  0  0  0  0
   26.4026  -23.5348  -18.0984 C   0  0  0  0  0  0  0  0  0  0  0  0
   26.5827  -24.6750  -17.1251 C   0  0  2  0  0  0  0  0  0  0  0  0
   26.8738  -24.2734  -15.7856 N   0  0  0  0  0  0  0  0  0  0  0  0
   27.5137  -25.7023  -17.6543 C   0  0  0  0  0  0  0  0  0  0  0  0
   27.1466  -26.3557  -18.6645 O   0  0  0  0  0  0  0  0  0  0  0  0
   31.6488  -28.6425  -18.5679 N   0  0  0  0  0  0  0  0  0  0  0  0
   32.0896  -27.5407  -17.7908 C   0  0  0  0  0  0  0  0  0  0  0  0
   33.3229  -27.4209  -17.5904 O   0  0  0  0  0  0  0  0  0  0  0  0
   31.0818  -26.5951  -17.2597 C   0  0  0  0  0  0  0  0  0  0  0  0
   29.6821  -27.0046  -17.5966 C   0  0  2  0  0  0  0  0  0  0  0  0
   28.7727  -25.9913  -17.1018 N   0  0  0  0  0  0  0  0  0  0  0  0
   29.3133  -28.3102  -16.9896 C   0  0  0  0  0  0  0  0  0  0  0  0
   29.5602  -28.5473  -15.7700 O   0  0  0  0  0  0  0  0  0  0  0  0
   28.6785  -29.3363  -17.7297 N   0  0  0  0  0  0  0  0  0  0  0  0
   28.2112  -30.5889  -17.1539 C   0  0  1  0  0  0  0  0  0  0  0  0
   27.5000  -30.3533  -15.8471 C   0  0  0  0  0  0  0  0  0  0  0  0
   26.9354  -31.5890  -15.3127 C   0  0  0  0  0  0  0  0  0  0  0  0
   27.7671  -32.3954  -14.5377 C   0  0  0  0  0  0  0  0  0  0  0  0
   27.2527  -33.5614  -14.0131 C   0  0  0  0  0  0  0  0  0  0  0  0
   25.9490  -33.9507  -14.2309 C   0  0  0  0  0  0  0  0  0  0  0  0
   25.1215  -33.1643  -14.9927 C   0  0  0  0  0  0  0  0  0  0  0  0
   25.6333  -31.9957  -15.5197 C   0  0  0  0  0  0  0  0  0  0  0  0
   27.4787  -31.4059  -18.1204 C   0  0  0  0  0  0  0  0  0  0  0  0
   26.7662  -30.9575  -19.2002 O   0  0  0  0  0  0  0  0  0  0  0  0
   27.5020  -32.6711  -17.9425 O   0  0  0  0  0  0  0  0  0  0  0  0
  2  1  1  0
  2  3  2  0
  4  2  1  0
  5  7  1  0
  5  4  1  0
  5  6  1  1
  7  8  2  0
  9 10  1  0
 10 12  1  0
 10 11  2  0
 13 12  1  1
 13 14  1  0
 13 15  1  0
 14  7  1  0
 15 17  1  0
 15 16  2  0
 17 18  1  0
 18 26  1  0
 18 19  1  1
 20 19  1  0
 20 25  2  0
 21 20  1  0
 22 21  2  0
 22 23  1  0
 23 24  2  0
 24 25  1  0
 26 28  2  0
 26 27  1  0
M  END
$$$$
