NNF.pdb
     RDKit          3D

 28 28  0  0  1  0  0  0  0  0999 V2000
   28.7512  -21.1760  -17.6371 N   0  0  0  0  0  0  0  0  0  0  0  0
   27.3901  -20.9179  -17.3780 C   0  0  0  0  0  0  0  0  0  0  0  0
   26.5464  -21.2889  -18.2411 O   0  0  0  0  0  0  0  0  0  0  0  0
   26.9540  -20.2360  -16.1392 C   0  0  0  0  0  0  0  0  0  0  0  0
   27.2411  -21.0252  -14.8844 C   0  0  2  0  0  0  0  0  0  0  0  0
   26.9567  -22.4216  -14.9819 N   0  0  0  0  0  0  0  0  0  0  0  0
   26.6500  -20.3794  -13.6863 C   0  0  0  0  0  0  0  0  0  0  0  0
   26.7773  -19.1331  -13.5740 O   0  0  0  0  0  0  0  0  0  0  0  0
   22.6092  -21.0609  -13.4686 N   0  0  0  0  0  0  0  0  0  0  0  0
   23.0413  -20.3060  -12.3481 C   0  0  0  0  0  0  0  0  0  0  0  0
   22.6218  -19.1281  -12.2379 O   0  0  0  0  0  0  0  0  0  0  0  0
   23.9574  -20.9396  -11.3730 C   0  0  0  0  0  0  0  0  0  0  0  0
   25.3643  -20.4469  -11.5083 C   0  0  2  0  0  0  0  0  0  0  0  0
   25.9610  -21.0673  -12.6734 N   0  0  0  0  0  0  0  0  0  0  0  0
   26.1945  -20.7732  -10.3195 C   0  0  0  0  0  0  0  0  0  0  0  0
   27.4389  -20.9781  -10.4382 O   0  0  0  0  0  0  0  0  0  0  0  0
   25.6471  -20.8695   -9.0177 N   0  0  0  0  0  0  0  0  0  0  0  0
   26.4416  -20.9076   -7.7986 C   0  0  1  0  0  0  0  0  0  0  0  0
   27.4612  -19.7988   -7.7806 C   0  0  0  0  0  0  0  0  0  0  0  0
   28.2016  -19.7707   -6.5227 C   0  0  0  0  0  0  0  0  0  0  0  0
   28.0827  -18.6305   -5.7301 C   0  0  0  0  0  0  0  0  0  0  0  0
   28.7637  -18.5859   -4.5327 C   0  0  0  0  0  0  0  0  0  0  0  0
   29.5533  -19.6285   -4.0992 C   0  0  0  0  0  0  0  0  0  0  0  0
   29.6776  -20.7559   -4.8719 C   0  0  0  0  0  0  0  0  0  0  0  0
   28.9970  -20.8040   -6.0718 C   0  0  0  0  0  0  0  0  0  0  0  0
   25.6130  -21.0079   -6.5980 C   0  0  0  0  0  0  0  0  0  0  0  0
   24.3330  -20.5469   -6.4439 O   0  0  0  0  0  0  0  0  0  0  0  0
   26.1336  -21.5845   -5.5834 O   0  0  0  0  0  0  0  0  0  0  0  0
  2  1  1  0
  2  3  2  0
  4  2  1  0
  5  7  1  0
  5  4  1  0
  5  6  1  6
  7  8  2  0
  9 10  1  0
 10 12  1  0
 10 11  2  0
 13 12  1  1
 13 14  1  0
 13 15  1  0
 14  7  1  0
 15 17  1  0
 15 16  2  0
 17 18  1  0
 18 26  1  0
 18 19  1  1
 20 19  1  0
 20 25  2  0
 21 20  1  0
 22 21  2  0
 22 23  1  0
 23 24  2  0
 24 25  1  0
 26 28  2  0
 26 27  1  0
M  END
$$$$
