NNF.pdb
     RDKit          3D

 28 28  0  0  1  0  0  0  0  0999 V2000
   16.1703  -14.2636  -15.5162 N   0  0  0  0  0  0  0  0  0  0  0  0
   17.5564  -14.1680  -15.7524 C   0  0  0  0  0  0  0  0  0  0  0  0
   18.2563  -15.2038  -15.5744 O   0  0  0  0  0  0  0  0  0  0  0  0
   18.1804  -12.9010  -16.1944 C   0  0  0  0  0  0  0  0  0  0  0  0
   17.2265  -11.7307  -16.2023 C   0  0  2  0  0  0  0  0  0  0  0  0
   16.0820  -11.9017  -17.0397 N   0  0  0  0  0  0  0  0  0  0  0  0
   17.9387  -10.4476  -16.4223 C   0  0  0  0  0  0  0  0  0  0  0  0
   18.1545  -10.0978  -17.6111 O   0  0  0  0  0  0  0  0  0  0  0  0
   17.2113   -5.7385  -16.3192 N   0  0  0  0  0  0  0  0  0  0  0  0
   17.1481   -6.8118  -15.3939 C   0  0  0  0  0  0  0  0  0  0  0  0
   16.0212   -7.3055  -15.1450 O   0  0  0  0  0  0  0  0  0  0  0  0
   18.4035   -7.2921  -14.7735 C   0  0  0  0  0  0  0  0  0  0  0  0
   19.0786   -8.3461  -15.5943 C   0  0  2  0  0  0  0  0  0  0  0  0
   18.3861   -9.6025  -15.3930 N   0  0  0  0  0  0  0  0  0  0  0  0
   20.5059   -8.5260  -15.2206 C   0  0  0  0  0  0  0  0  0  0  0  0
   20.8695   -9.5172  -14.5208 O   0  0  0  0  0  0  0  0  0  0  0  0
   21.5132   -7.6155  -15.6206 N   0  0  0  0  0  0  0  0  0  0  0  0
   22.9408   -7.8822  -15.5217 C   0  0  1  0  0  0  0  0  0  0  0  0
   23.2794   -9.2388  -16.0824 C   0  0  0  0  0  0  0  0  0  0  0  0
   24.7011   -9.5388  -15.9406 C   0  0  0  0  0  0  0  0  0  0  0  0
   25.5369   -9.2201  -17.0095 C   0  0  0  0  0  0  0  0  0  0  0  0
   26.8847   -9.4838  -16.8940 C   0  0  0  0  0  0  0  0  0  0  0  0
   27.4265  -10.0494  -15.7604 C   0  0  0  0  0  0  0  0  0  0  0  0
   26.6125  -10.3673  -14.7020 C   0  0  0  0  0  0  0  0  0  0  0  0
   25.2621  -10.1046  -14.8142 C   0  0  0  0  0  0  0  0  0  0  0  0
   23.7496   -6.7785  -16.0373 C   0  0  0  0  0  0  0  0  0  0  0  0
   24.8864   -6.2623  -15.4752 O   0  0  0  0  0  0  0  0  0  0  0  0
   23.3582   -6.2348  -17.1254 O   0  0  0  0  0  0  0  0  0  0  0  0
  2  1  1  0
  2  3  2  0
  4  2  1  0
  5  7  1  0
  5  4  1  0
  5  6  1  6
  7  8  2  0
  9 10  1  0
 10 12  1  0
 10 11  2  0
 13 12  1  1
 13 14  1  0
 13 15  1  0
 14  7  1  0
 15 17  1  0
 15 16  2  0
 17 18  1  0
 18 26  1  0
 18 19  1  6
 20 19  1  0
 20 25  2  0
 21 20  1  0
 22 21  2  0
 22 23  1  0
 23 24  2  0
 24 25  1  0
 26 28  2  0
 26 27  1  0
M  END
$$$$
