NNF.pdb
     RDKit          3D

 28 28  0  0  1  0  0  0  0  0999 V2000
   28.1183  -18.4625  -17.0898 N   0  0  0  0  0  0  0  0  0  0  0  0
   28.6109  -17.7801  -15.9593 C   0  0  0  0  0  0  0  0  0  0  0  0
   29.6828  -17.1255  -16.0880 O   0  0  0  0  0  0  0  0  0  0  0  0
   27.9029  -17.8229  -14.6605 C   0  0  0  0  0  0  0  0  0  0  0  0
   26.7246  -18.7670  -14.6478 C   0  0  2  0  0  0  0  0  0  0  0  0
   25.7288  -18.4888  -15.6333 N   0  0  0  0  0  0  0  0  0  0  0  0
   26.1767  -18.9375  -13.2793 C   0  0  0  0  0  0  0  0  0  0  0  0
   25.7694  -17.9079  -12.6826 O   0  0  0  0  0  0  0  0  0  0  0  0
   22.9963  -21.8417  -13.7477 N   0  0  0  0  0  0  0  0  0  0  0  0
   23.2254  -21.1236  -12.5461 C   0  0  0  0  0  0  0  0  0  0  0  0
   22.4541  -20.1706  -12.2766 O   0  0  0  0  0  0  0  0  0  0  0  0
   24.3528  -21.5305  -11.6771 C   0  0  0  0  0  0  0  0  0  0  0  0
   25.3041  -20.4056  -11.4126 C   0  0  2  0  0  0  0  0  0  0  0  0
   26.0844  -20.1693  -12.6100 N   0  0  0  0  0  0  0  0  0  0  0  0
   26.2336  -20.7028  -10.2915 C   0  0  0  0  0  0  0  0  0  0  0  0
   27.1169  -21.6033  -10.4074 O   0  0  0  0  0  0  0  0  0  0  0  0
   26.1803  -20.0074   -9.0598 N   0  0  0  0  0  0  0  0  0  0  0  0
   26.9601  -20.3673   -7.8845 C   0  0  1  0  0  0  0  0  0  0  0  0
   27.7546  -19.1914   -7.3795 C   0  0  0  0  0  0  0  0  0  0  0  0
   28.4651  -19.5136   -6.1456 C   0  0  0  0  0  0  0  0  0  0  0  0
   27.8888  -19.1044   -4.9443 C   0  0  0  0  0  0  0  0  0  0  0  0
   28.5358  -19.4073   -3.7657 C   0  0  0  0  0  0  0  0  0  0  0  0
   29.7276  -20.0982   -3.7404 C   0  0  0  0  0  0  0  0  0  0  0  0
   30.3040  -20.5057   -4.9174 C   0  0  0  0  0  0  0  0  0  0  0  0
   29.6588  -20.2041   -6.0998 C   0  0  0  0  0  0  0  0  0  0  0  0
   26.1570  -21.0535   -6.8734 C   0  0  0  0  0  0  0  0  0  0  0  0
   26.6124  -21.9083   -5.9056 O   0  0  0  0  0  0  0  0  0  0  0  0
   24.8978  -20.8368   -6.8912 O   0  0  0  0  0  0  0  0  0  0  0  0
  2  1  1  0
  2  3  2  0
  4  2  1  0
  5  7  1  0
  5  4  1  0
  5  6  1  6
  7  8  2  0
  9 10  1  0
 10 12  1  0
 10 11  2  0
 13 12  1  6
 13 14  1  0
 13 15  1  0
 14  7  1  0
 15 17  1  0
 15 16  2  0
 17 18  1  0
 18 26  1  0
 18 19  1  1
 20 19  1  0
 20 25  2  0
 21 20  1  0
 22 21  2  0
 22 23  1  0
 23 24  2  0
 24 25  1  0
 26 28  2  0
 26 27  1  0
M  END
$$$$
