NNF.pdb
     RDKit          3D

 28 28  0  0  1  0  0  0  0  0999 V2000
   28.7701  -29.4945  -18.8048 N   0  0  0  0  0  0  0  0  0  0  0  0
   28.6349  -28.0928  -18.8620 C   0  0  0  0  0  0  0  0  0  0  0  0
   29.5982  -27.4277  -19.3352 O   0  0  0  0  0  0  0  0  0  0  0  0
   27.4092  -27.4137  -18.3861 C   0  0  0  0  0  0  0  0  0  0  0  0
   27.6484  -26.4896  -17.2163 C   0  0  2  0  0  0  0  0  0  0  0  0
   28.2831  -27.1033  -16.0934 N   0  0  0  0  0  0  0  0  0  0  0  0
   26.4255  -25.7260  -16.8650 C   0  0  0  0  0  0  0  0  0  0  0  0
   25.9571  -24.9453  -17.7329 O   0  0  0  0  0  0  0  0  0  0  0  0
   22.1347  -25.9895  -15.7887 N   0  0  0  0  0  0  0  0  0  0  0  0
   22.6096  -26.2117  -14.4707 C   0  0  0  0  0  0  0  0  0  0  0  0
   21.8759  -26.8594  -13.6847 O   0  0  0  0  0  0  0  0  0  0  0  0
   23.9355  -25.6735  -14.0912 C   0  0  0  0  0  0  0  0  0  0  0  0
   24.6286  -25.0042  -15.2367 C   0  0  2  0  0  0  0  0  0  0  0  0
   25.7604  -25.8179  -15.6309 N   0  0  0  0  0  0  0  0  0  0  0  0
   25.1203  -23.6464  -14.8847 C   0  0  0  0  0  0  0  0  0  0  0  0
   26.3383  -23.4568  -14.5934 O   0  0  0  0  0  0  0  0  0  0  0  0
   24.2680  -22.5166  -14.8579 N   0  0  0  0  0  0  0  0  0  0  0  0
   24.7306  -21.1492  -14.6700 C   0  0  1  0  0  0  0  0  0  0  0  0
   25.7872  -20.7900  -15.6817 C   0  0  0  0  0  0  0  0  0  0  0  0
   26.2519  -19.4170  -15.5084 C   0  0  0  0  0  0  0  0  0  0  0  0
   25.4556  -18.3968  -16.0259 C   0  0  0  0  0  0  0  0  0  0  0  0
   25.8685  -17.0919  -15.8643 C   0  0  0  0  0  0  0  0  0  0  0  0
   27.0374  -16.7684  -15.2106 C   0  0  0  0  0  0  0  0  0  0  0  0
   27.8291  -17.7651  -14.6973 C   0  0  0  0  0  0  0  0  0  0  0  0
   27.4188  -19.0733  -14.8573 C   0  0  0  0  0  0  0  0  0  0  0  0
   23.6250  -20.1981  -14.5634 C   0  0  0  0  0  0  0  0  0  0  0  0
   23.4750  -19.2172  -13.6199 O   0  0  0  0  0  0  0  0  0  0  0  0
   22.6991  -20.2881  -15.4394 O   0  0  0  0  0  0  0  0  0  0  0  0
  2  1  1  0
  2  3  2  0
  4  2  1  0
  5  7  1  0
  5  4  1  0
  5  6  1  1
  7  8  2  0
  9 10  1  0
 10 12  1  0
 10 11  2  0
 13 12  1  1
 13 14  1  0
 13 15  1  0
 14  7  1  0
 15 17  1  0
 15 16  2  0
 17 18  1  0
 18 26  1  0
 18 19  1  6
 20 19  1  0
 20 25  2  0
 21 20  1  0
 22 21  2  0
 22 23  1  0
 23 24  2  0
 24 25  1  0
 26 28  2  0
 26 27  1  0
M  END
$$$$
