NNF.pdb
     RDKit          3D

 28 28  0  0  1  0  0  0  0  0999 V2000
   17.9866  -13.7421  -16.1567 N   0  0  0  0  0  0  0  0  0  0  0  0
   17.2203  -12.5962  -15.8631 C   0  0  0  0  0  0  0  0  0  0  0  0
   16.0532  -12.7684  -15.4133 O   0  0  0  0  0  0  0  0  0  0  0  0
   17.7566  -11.2328  -16.0713 C   0  0  0  0  0  0  0  0  0  0  0  0
   19.1311  -11.2152  -16.6959 C   0  0  2  0  0  0  0  0  0  0  0  0
   20.1228  -11.9452  -15.9721 N   0  0  0  0  0  0  0  0  0  0  0  0
   19.5497   -9.8376  -17.0551 C   0  0  0  0  0  0  0  0  0  0  0  0
   20.5515   -9.7103  -17.8050 O   0  0  0  0  0  0  0  0  0  0  0  0
   18.6769   -5.1811  -19.6119 N   0  0  0  0  0  0  0  0  0  0  0  0
   18.2615   -5.3984  -18.2732 C   0  0  0  0  0  0  0  0  0  0  0  0
   18.0974   -4.3929  -17.5398 O   0  0  0  0  0  0  0  0  0  0  0  0
   18.0438   -6.7881  -17.8118 C   0  0  0  0  0  0  0  0  0  0  0  0
   19.2180   -7.3294  -17.0576 C   0  0  2  0  0  0  0  0  0  0  0  0
   18.9026   -8.6716  -16.6130 N   0  0  0  0  0  0  0  0  0  0  0  0
   19.5564   -6.5033  -15.8693 C   0  0  0  0  0  0  0  0  0  0  0  0
   18.8454   -6.5573  -14.8224 O   0  0  0  0  0  0  0  0  0  0  0  0
   20.6703   -5.6302  -15.8472 N   0  0  0  0  0  0  0  0  0  0  0  0
   21.0579   -4.8301  -14.6945 C   0  0  1  0  0  0  0  0  0  0  0  0
   22.4193   -5.2305  -14.1891 C   0  0  0  0  0  0  0  0  0  0  0  0
   22.4487   -6.6308  -13.7775 C   0  0  0  0  0  0  0  0  0  0  0  0
   23.1143   -7.5324  -14.6061 C   0  0  0  0  0  0  0  0  0  0  0  0
   23.1649   -8.8580  -14.2323 C   0  0  0  0  0  0  0  0  0  0  0  0
   22.5808   -9.3150  -13.0711 C   0  0  0  0  0  0  0  0  0  0  0  0
   21.9227   -8.4358  -12.2479 C   0  0  0  0  0  0  0  0  0  0  0  0
   21.8700   -7.1074  -12.6192 C   0  0  0  0  0  0  0  0  0  0  0  0
   20.8790   -3.3975  -14.9267 C   0  0  0  0  0  0  0  0  0  0  0  0
   20.9063   -2.4043  -13.9847 O   0  0  0  0  0  0  0  0  0  0  0  0
   20.6748   -3.0290  -16.1331 O   0  0  0  0  0  0  0  0  0  0  0  0
  2  1  1  0
  2  3  2  0
  4  2  1  0
  5  7  1  0
  5  4  1  0
  5  6  1  1
  7  8  2  0
  9 10  1  0
 10 12  1  0
 10 11  2  0
 13 12  1  1
 13 14  1  0
 13 15  1  0
 14  7  1  0
 15 17  1  0
 15 16  2  0
 17 18  1  0
 18 26  1  0
 18 19  1  6
 20 19  1  0
 20 25  2  0
 21 20  1  0
 22 21  2  0
 22 23  1  0
 23 24  2  0
 24 25  1  0
 26 28  2  0
 26 27  1  0
M  END
$$$$
