NNF.pdb
     RDKit          3D

 28 28  0  0  1  0  0  0  0  0999 V2000
   29.1625  -18.5201  -17.5268 N   0  0  0  0  0  0  0  0  0  0  0  0
   28.2100  -17.6318  -18.0652 C   0  0  0  0  0  0  0  0  0  0  0  0
   28.6264  -16.7092  -18.8199 O   0  0  0  0  0  0  0  0  0  0  0  0
   26.7678  -17.7674  -17.7624 C   0  0  0  0  0  0  0  0  0  0  0  0
   26.4443  -18.9590  -16.8935 C   0  0  2  0  0  0  0  0  0  0  0  0
   26.8206  -20.2200  -17.4490 N   0  0  0  0  0  0  0  0  0  0  0  0
   25.0425  -18.9166  -16.4086 C   0  0  0  0  0  0  0  0  0  0  0  0
   24.6360  -17.8423  -15.8958 O   0  0  0  0  0  0  0  0  0  0  0  0
   21.0695  -18.5391  -18.3501 N   0  0  0  0  0  0  0  0  0  0  0  0
   21.8436  -19.7265  -18.4058 C   0  0  0  0  0  0  0  0  0  0  0  0
   22.4176  -20.0018  -19.4876 O   0  0  0  0  0  0  0  0  0  0  0  0
   21.9353  -20.5743  -17.1956 C   0  0  0  0  0  0  0  0  0  0  0  0
   22.7457  -19.9352  -16.1115 C   0  0  2  0  0  0  0  0  0  0  0  0
   24.1443  -19.9942  -16.4844 N   0  0  0  0  0  0  0  0  0  0  0  0
   22.5750  -20.6165  -14.8016 C   0  0  0  0  0  0  0  0  0  0  0  0
   23.1128  -21.7427  -14.5852 O   0  0  0  0  0  0  0  0  0  0  0  0
   21.8167  -20.0516  -13.7482 N   0  0  0  0  0  0  0  0  0  0  0  0
   21.6412  -20.6736  -12.4438 C   0  0  1  0  0  0  0  0  0  0  0  0
   22.2279  -19.8182  -11.3515 C   0  0  0  0  0  0  0  0  0  0  0  0
   23.6210  -20.1658  -11.0872 C   0  0  0  0  0  0  0  0  0  0  0  0
   23.9474  -20.5852   -9.7988 C   0  0  0  0  0  0  0  0  0  0  0  0
   25.2544  -20.9294   -9.5287 C   0  0  0  0  0  0  0  0  0  0  0  0
   26.2411  -20.8714  -10.4886 C   0  0  0  0  0  0  0  0  0  0  0  0
   25.9306  -20.4596  -11.7605 C   0  0  0  0  0  0  0  0  0  0  0  0
   24.6227  -20.1140  -12.0346 C   0  0  0  0  0  0  0  0  0  0  0  0
   20.2644  -21.1110  -12.2173 C   0  0  0  0  0  0  0  0  0  0  0  0
   19.1636  -20.7710  -12.9571 O   0  0  0  0  0  0  0  0  0  0  0  0
   20.0620  -21.8914  -11.2259 O   0  0  0  0  0  0  0  0  0  0  0  0
  2  1  1  0
  2  3  2  0
  4  2  1  0
  5  7  1  0
  5  4  1  0
  5  6  1  6
  7  8  2  0
  9 10  1  0
 10 12  1  0
 10 11  2  0
 13 12  1  6
 13 14  1  0
 13 15  1  0
 14  7  1  0
 15 17  1  0
 15 16  2  0
 17 18  1  0
 18 26  1  0
 18 19  1  1
 20 19  1  0
 20 25  2  0
 21 20  1  0
 22 21  2  0
 22 23  1  0
 23 24  2  0
 24 25  1  0
 26 28  2  0
 26 27  1  0
M  END
$$$$
