GAS.pdb
     RDKit          3D

 16 15  0  0  1  0  0  0  0  0999 V2000
   11.6745  -11.4412  -10.7578 N   0  0  0  0  0  0  0  0  0  0  0  0
   12.8934  -11.4460  -11.5143 C   0  0  0  0  0  0  0  0  0  0  0  0
   13.9569  -10.6134  -10.8989 C   0  0  0  0  0  0  0  0  0  0  0  0
   13.6375   -9.9716   -9.8586 O   0  0  0  0  0  0  0  0  0  0  0  0
   17.6233   -9.8271  -11.3480 C   0  0  0  0  0  0  0  0  0  0  0  0
   16.2444   -9.7061  -10.7327 C   0  0  2  0  0  0  0  0  0  0  0  0
   15.2707  -10.5107  -11.4104 N   0  0  0  0  0  0  0  0  0  0  0  0
   15.8681   -8.2715  -10.8037 C   0  0  0  0  0  0  0  0  0  0  0  0
   15.1864   -7.8288  -11.7515 O   0  0  0  0  0  0  0  0  0  0  0  0
   14.1466   -4.4255   -9.4575 O   0  0  0  0  0  0  0  0  0  0  0  0
   14.3909   -5.8001   -9.5182 C   0  0  0  0  0  0  0  0  0  0  0  0
   15.8663   -5.9934   -9.7188 C   0  0  2  0  0  0  0  0  0  0  0  0
   16.2742   -7.3601   -9.7927 N   0  0  0  0  0  0  0  0  0  0  0  0
   16.6196   -5.2439   -8.6692 C   0  0  0  0  0  0  0  0  0  0  0  0
   16.7373   -3.8632   -8.7016 O   0  0  0  0  0  0  0  0  0  0  0  0
   17.1683   -5.8567   -7.7246 O   0  0  0  0  0  0  0  0  0  0  0  0
  1  2  1  0
  2  3  1  0
  3  4  2  0
  6  5  1  6
  7  6  1  0
  7  3  1  0
  8  9  2  0
  8  6  1  0
 10 11  1  0
 12 11  1  1
 12 14  1  0
 12 13  1  0
 13  8  1  0
 14 15  1  0
 16 14  2  0
M  END
$$$$
