GAS.pdb
     RDKit          3D

 16 15  0  0  1  0  0  0  0  0999 V2000
   18.6097  -13.0256  -15.5514 N   0  0  0  0  0  0  0  0  0  0  0  0
   17.7252  -11.9151  -15.7583 C   0  0  0  0  0  0  0  0  0  0  0  0
   18.4465  -10.6476  -16.0344 C   0  0  0  0  0  0  0  0  0  0  0  0
   19.7050  -10.6820  -15.9289 O   0  0  0  0  0  0  0  0  0  0  0  0
   17.7688   -7.2253  -17.4450 C   0  0  0  0  0  0  0  0  0  0  0  0
   18.5868   -8.2891  -16.7423 C   0  0  2  0  0  0  0  0  0  0  0  0
   17.8062   -9.4412  -16.3989 N   0  0  0  0  0  0  0  0  0  0  0  0
   19.1455   -7.6608  -15.5184 C   0  0  0  0  0  0  0  0  0  0  0  0
   18.8623   -8.0951  -14.3827 O   0  0  0  0  0  0  0  0  0  0  0  0
   22.5542   -6.5882  -12.9930 O   0  0  0  0  0  0  0  0  0  0  0  0
   21.8173   -7.1520  -14.0380 C   0  0  0  0  0  0  0  0  0  0  0  0
   20.8782   -6.1004  -14.5541 C   0  0  2  0  0  0  0  0  0  0  0  0
   20.0203   -6.5450  -15.6058 N   0  0  0  0  0  0  0  0  0  0  0  0
   21.6506   -4.8828  -14.9433 C   0  0  0  0  0  0  0  0  0  0  0  0
   21.8786   -4.5569  -16.2711 O   0  0  0  0  0  0  0  0  0  0  0  0
   22.1149   -4.1200  -14.0648 O   0  0  0  0  0  0  0  0  0  0  0  0
  1  2  1  0
  2  3  1  0
  3  4  2  0
  6  5  1  1
  7  6  1  0
  7  3  1  0
  8  9  2  0
  8  6  1  0
 10 11  1  0
 12 11  1  6
 12 14  1  0
 12 13  1  0
 13  8  1  0
 14 15  1  0
 16 14  2  0
M  END
$$$$
