GAS.pdb
     RDKit          3D

 16 15  0  0  1  0  0  0  0  0999 V2000
   16.6348  -20.4579    2.5727 N   0  0  0  0  0  0  0  0  0  0  0  0
   15.9641  -19.5309    3.4383 C   0  0  0  0  0  0  0  0  0  0  0  0
   16.9007  -18.6252    4.1492 C   0  0  0  0  0  0  0  0  0  0  0  0
   18.1313  -18.7955    3.9195 O   0  0  0  0  0  0  0  0  0  0  0  0
   16.8529  -15.3883    6.0084 C   0  0  0  0  0  0  0  0  0  0  0  0
   17.4553  -16.7218    5.6165 C   0  0  2  0  0  0  0  0  0  0  0  0
   16.4883  -17.6118    5.0444 N   0  0  0  0  0  0  0  0  0  0  0  0
   18.0316  -17.3109    6.8517 C   0  0  0  0  0  0  0  0  0  0  0  0
   17.4512  -18.2353    7.4579 O   0  0  0  0  0  0  0  0  0  0  0  0
   21.9837  -17.7637    7.5272 O   0  0  0  0  0  0  0  0  0  0  0  0
   21.3837  -17.0987    8.5999 C   0  0  0  0  0  0  0  0  0  0  0  0
   19.9081  -17.3693    8.5375 C   0  0  2  0  0  0  0  0  0  0  0  0
   19.2627  -16.8380    7.3796 N   0  0  0  0  0  0  0  0  0  0  0  0
   19.2574  -16.9054    9.7994 C   0  0  0  0  0  0  0  0  0  0  0  0
   19.3217  -17.6469   10.9686 O   0  0  0  0  0  0  0  0  0  0  0  0
   18.6311  -15.8210    9.8270 O   0  0  0  0  0  0  0  0  0  0  0  0
  1  2  1  0
  2  3  1  0
  3  4  2  0
  6  5  1  1
  7  6  1  0
  7  3  1  0
  8  9  2  0
  8  6  1  0
 10 11  1  0
 12 11  1  1
 12 14  1  0
 12 13  1  0
 13  8  1  0
 14 15  1  0
 16 14  2  0
M  END
$$$$
