GAS.pdb
     RDKit          3D

 16 15  0  0  1  0  0  0  0  0999 V2000
   15.9139  -10.6579  -16.2584 N   0  0  0  0  0  0  0  0  0  0  0  0
   16.0330   -9.3204  -15.7533 C   0  0  0  0  0  0  0  0  0  0  0  0
   17.3260   -8.6836  -16.1077 C   0  0  0  0  0  0  0  0  0  0  0  0
   18.3663   -9.3705  -15.9025 O   0  0  0  0  0  0  0  0  0  0  0  0
   18.6786   -5.5631  -17.7265 C   0  0  0  0  0  0  0  0  0  0  0  0
   18.7345   -6.8031  -16.8582 C   0  0  2  0  0  0  0  0  0  0  0  0
   17.4404   -7.3823  -16.6481 N   0  0  0  0  0  0  0  0  0  0  0  0
   19.3326   -6.3921  -15.5627 C   0  0  0  0  0  0  0  0  0  0  0  0
   18.6174   -6.0075  -14.6144 O   0  0  0  0  0  0  0  0  0  0  0  0
   21.8083   -8.3095  -13.5030 O   0  0  0  0  0  0  0  0  0  0  0  0
   22.4432   -7.0830  -13.7167 C   0  0  0  0  0  0  0  0  0  0  0  0
   21.3961   -6.0944  -14.1414 C   0  0  2  0  0  0  0  0  0  0  0  0
   20.7390   -6.4252  -15.3655 N   0  0  0  0  0  0  0  0  0  0  0  0
   21.9850   -4.7223  -14.1793 C   0  0  0  0  0  0  0  0  0  0  0  0
   22.4178   -4.0821  -13.0286 O   0  0  0  0  0  0  0  0  0  0  0  0
   22.1015   -4.1132  -15.2676 O   0  0  0  0  0  0  0  0  0  0  0  0
  1  2  1  0
  2  3  1  0
  3  4  2  0
  6  5  1  6
  7  6  1  0
  7  3  1  0
  8  9  2  0
  8  6  1  0
 10 11  1  0
 12 11  1  6
 12 14  1  0
 12 13  1  0
 13  8  1  0
 14 15  1  0
 16 14  2  0
M  END
$$$$
