GAS.pdb
     RDKit          3D

 16 15  0  0  1  0  0  0  0  0999 V2000
   15.4933   -9.2840  -13.6899 N   0  0  0  0  0  0  0  0  0  0  0  0
   15.9957   -7.9850  -13.3460 C   0  0  0  0  0  0  0  0  0  0  0  0
   15.8016   -7.6531  -11.9124 C   0  0  0  0  0  0  0  0  0  0  0  0
   14.7180   -8.0361  -11.3880 O   0  0  0  0  0  0  0  0  0  0  0  0
   17.6802   -6.1649   -9.0063 C   0  0  0  0  0  0  0  0  0  0  0  0
   16.4539   -6.6241   -9.7678 C   0  0  2  0  0  0  0  0  0  0  0  0
   16.7474   -6.9488  -11.1327 N   0  0  0  0  0  0  0  0  0  0  0  0
   15.4685   -5.5153   -9.7015 C   0  0  0  0  0  0  0  0  0  0  0  0
   15.2726   -4.7660  -10.6808 O   0  0  0  0  0  0  0  0  0  0  0  0
   12.2605   -5.5098   -7.0951 O   0  0  0  0  0  0  0  0  0  0  0  0
   12.9673   -4.3042   -7.0891 C   0  0  0  0  0  0  0  0  0  0  0  0
   13.7569   -4.2313   -8.3641 C   0  0  2  0  0  0  0  0  0  0  0  0
   14.7191   -5.2753   -8.5188 N   0  0  0  0  0  0  0  0  0  0  0  0
   14.3772   -2.8789   -8.4955 C   0  0  0  0  0  0  0  0  0  0  0  0
   13.6091   -1.7369   -8.6595 O   0  0  0  0  0  0  0  0  0  0  0  0
   15.6223   -2.7474   -8.4596 O   0  0  0  0  0  0  0  0  0  0  0  0
  1  2  1  0
  2  3  1  0
  3  4  2  0
  6  5  1  1
  7  6  1  0
  7  3  1  0
  8  9  2  0
  8  6  1  0
 10 11  1  0
 12 11  1  1
 12 14  1  0
 12 13  1  0
 13  8  1  0
 14 15  1  0
 16 14  2  0
M  END
$$$$
