GAS.pdb
     RDKit          3D

 16 15  0  0  1  0  0  0  0  0999 V2000
   12.1229  -10.9913  -10.1717 N   0  0  0  0  0  0  0  0  0  0  0  0
   13.2994  -10.7127  -10.9441 C   0  0  0  0  0  0  0  0  0  0  0  0
   14.2444   -9.8047  -10.2475 C   0  0  0  0  0  0  0  0  0  0  0  0
   13.8424   -9.3000   -9.1613 O   0  0  0  0  0  0  0  0  0  0  0  0
   17.7574   -8.4659  -10.6013 C   0  0  0  0  0  0  0  0  0  0  0  0
   16.3617   -8.5601  -10.0202 C   0  0  2  0  0  0  0  0  0  0  0  0
   15.5347   -9.4898  -10.7317 N   0  0  0  0  0  0  0  0  0  0  0  0
   15.7781   -7.1962  -10.0844 C   0  0  0  0  0  0  0  0  0  0  0  0
   15.1240   -6.8199  -11.0791 O   0  0  0  0  0  0  0  0  0  0  0  0
   14.9770   -2.9871   -7.8022 O   0  0  0  0  0  0  0  0  0  0  0  0
   15.5550   -4.2528   -7.6731 C   0  0  0  0  0  0  0  0  0  0  0  0
   15.4564   -4.9382   -9.0053 C   0  0  2  0  0  0  0  0  0  0  0  0
   15.9481   -6.2789   -9.0132 N   0  0  0  0  0  0  0  0  0  0  0  0
   16.1115   -4.0991  -10.0529 C   0  0  0  0  0  0  0  0  0  0  0  0
   15.3944   -3.1864  -10.8106 O   0  0  0  0  0  0  0  0  0  0  0  0
   17.3404   -4.2046  -10.2714 O   0  0  0  0  0  0  0  0  0  0  0  0
  1  2  1  0
  2  3  1  0
  3  4  2  0
  6  5  1  6
  7  6  1  0
  7  3  1  0
  8  9  2  0
  8  6  1  0
 10 11  1  0
 12 11  1  1
 12 14  1  0
 12 13  1  0
 13  8  1  0
 14 15  1  0
 16 14  2  0
M  END
$$$$
