GAS.pdb
     RDKit          3D

 16 15  0  0  1  0  0  0  0  0999 V2000
   12.3968   -9.8804   -8.7237 N   0  0  0  0  0  0  0  0  0  0  0  0
   13.5598   -9.3780   -8.0506 C   0  0  0  0  0  0  0  0  0  0  0  0
   14.3122   -8.3881   -8.8611 C   0  0  0  0  0  0  0  0  0  0  0  0
   14.2423   -8.5188  -10.1157 O   0  0  0  0  0  0  0  0  0  0  0  0
   15.8517   -5.0206   -8.5048 C   0  0  0  0  0  0  0  0  0  0  0  0
   15.7053   -6.3757   -9.1657 C   0  0  2  0  0  0  0  0  0  0  0  0
   15.0797   -7.3381   -8.3072 N   0  0  0  0  0  0  0  0  0  0  0  0
   17.0728   -6.8232   -9.5326 C   0  0  0  0  0  0  0  0  0  0  0  0
   17.9305   -7.0626   -8.6574 O   0  0  0  0  0  0  0  0  0  0  0  0
   17.7379   -8.5658  -13.1305 O   0  0  0  0  0  0  0  0  0  0  0  0
   18.7030   -8.7073  -12.1298 C   0  0  0  0  0  0  0  0  0  0  0  0
   18.7285   -7.4329  -11.3363 C   0  0  2  0  0  0  0  0  0  0  0  0
   17.4445   -6.9919  -10.8932 N   0  0  0  0  0  0  0  0  0  0  0  0
   19.4449   -6.3736  -12.1080 C   0  0  0  0  0  0  0  0  0  0  0  0
   20.8015   -6.4596  -12.3789 O   0  0  0  0  0  0  0  0  0  0  0  0
   18.8252   -5.3711  -12.5323 O   0  0  0  0  0  0  0  0  0  0  0  0
  1  2  1  0
  2  3  1  0
  3  4  2  0
  6  5  1  1
  7  6  1  0
  7  3  1  0
  8  9  2  0
  8  6  1  0
 10 11  1  0
 12 11  1  6
 12 14  1  0
 12 13  1  0
 13  8  1  0
 14 15  1  0
 16 14  2  0
M  END
$$$$
