GAS.pdb
     RDKit          3D

 16 15  0  0  1  0  0  0  0  0999 V2000
   19.2091  -11.7499  -18.3062 N   0  0  0  0  0  0  0  0  0  0  0  0
   20.2598  -10.7761  -18.2283 C   0  0  0  0  0  0  0  0  0  0  0  0
   20.4112  -10.1992  -16.8692 C   0  0  0  0  0  0  0  0  0  0  0  0
   19.3671   -9.7238  -16.3403 O   0  0  0  0  0  0  0  0  0  0  0  0
   22.9669   -9.8353  -14.1314 C   0  0  0  0  0  0  0  0  0  0  0  0
   21.7189   -9.4710  -14.9088 C   0  0  2  0  0  0  0  0  0  0  0  0
   21.6352  -10.1599  -16.1630 N   0  0  0  0  0  0  0  0  0  0  0  0
   21.7642   -8.0032  -15.1282 C   0  0  0  0  0  0  0  0  0  0  0  0
   22.3185   -7.5177  -16.1362 O   0  0  0  0  0  0  0  0  0  0  0  0
   19.7500   -3.7675  -14.4281 O   0  0  0  0  0  0  0  0  0  0  0  0
   19.7033   -5.1371  -14.1545 C   0  0  0  0  0  0  0  0  0  0  0  0
   21.0800   -5.6942  -14.3749 C   0  0  2  0  0  0  0  0  0  0  0  0
   21.1767   -7.1077  -14.1950 N   0  0  0  0  0  0  0  0  0  0  0  0
   22.0633   -4.9568  -13.5262 C   0  0  0  0  0  0  0  0  0  0  0  0
   22.6255   -3.7578  -13.9355 O   0  0  0  0  0  0  0  0  0  0  0  0
   22.4050   -5.4136  -12.4111 O   0  0  0  0  0  0  0  0  0  0  0  0
  1  2  1  0
  2  3  1  0
  3  4  2  0
  6  5  1  6
  7  6  1  0
  7  3  1  0
  8  9  2  0
  8  6  1  0
 10 11  1  0
 12 11  1  1
 12 14  1  0
 12 13  1  0
 13  8  1  0
 14 15  1  0
 16 14  2  0
M  END
$$$$
