GAS.pdb
     RDKit          3D

 16 15  0  0  1  0  0  0  0  0999 V2000
    9.5330   -7.6144   -7.3858 N   0  0  0  0  0  0  0  0  0  0  0  0
    9.8256   -6.5345   -8.2838 C   0  0  0  0  0  0  0  0  0  0  0  0
   11.2702   -6.1965   -8.3272 C   0  0  0  0  0  0  0  0  0  0  0  0
   11.7713   -5.7314   -7.2649 O   0  0  0  0  0  0  0  0  0  0  0  0
   14.2388   -6.4962  -10.6310 C   0  0  0  0  0  0  0  0  0  0  0  0
   13.4664   -5.9893   -9.4306 C   0  0  2  0  0  0  0  0  0  0  0  0
   12.0843   -6.3671   -9.4703 N   0  0  0  0  0  0  0  0  0  0  0  0
   13.5973   -4.5102   -9.4305 C   0  0  0  0  0  0  0  0  0  0  0  0
   12.8279   -3.7938  -10.1040 O   0  0  0  0  0  0  0  0  0  0  0  0
   15.3573   -0.5757   -7.3047 O   0  0  0  0  0  0  0  0  0  0  0  0
   15.3138   -1.9718   -7.2621 C   0  0  0  0  0  0  0  0  0  0  0  0
   14.7879   -2.4531   -8.5835 C   0  0  2  0  0  0  0  0  0  0  0  0
   14.6042   -3.8671   -8.6620 N   0  0  0  0  0  0  0  0  0  0  0  0
   15.6557   -1.9426   -9.6868 C   0  0  0  0  0  0  0  0  0  0  0  0
   15.4098   -0.7268  -10.3054 O   0  0  0  0  0  0  0  0  0  0  0  0
   16.6377   -2.6126  -10.0814 O   0  0  0  0  0  0  0  0  0  0  0  0
  1  2  1  0
  2  3  1  0
  3  4  2  0
  6  5  1  6
  7  6  1  0
  7  3  1  0
  8  9  2  0
  8  6  1  0
 10 11  1  0
 12 11  1  1
 12 14  1  0
 12 13  1  0
 13  8  1  0
 14 15  1  0
 16 14  2  0
M  END
$$$$
