GAS.pdb
     RDKit          3D

 16 15  0  0  1  0  0  0  0  0999 V2000
   20.7255  -12.5431  -19.3185 N   0  0  0  0  0  0  0  0  0  0  0  0
   21.6764  -11.4715  -19.2438 C   0  0  0  0  0  0  0  0  0  0  0  0
   21.6727  -10.7887  -17.9259 C   0  0  0  0  0  0  0  0  0  0  0  0
   20.6058  -10.1938  -17.6036 O   0  0  0  0  0  0  0  0  0  0  0  0
   23.7847  -10.4837  -14.8286 C   0  0  0  0  0  0  0  0  0  0  0  0
   22.6889  -10.0798  -15.7933 C   0  0  2  0  0  0  0  0  0  0  0  0
   22.7769  -10.7756  -17.0433 N   0  0  0  0  0  0  0  0  0  0  0  0
   22.8240   -8.6165  -16.0065 C   0  0  0  0  0  0  0  0  0  0  0  0
   23.5814   -8.1595  -16.8876 O   0  0  0  0  0  0  0  0  0  0  0  0
   19.7754   -6.0896  -15.3355 O   0  0  0  0  0  0  0  0  0  0  0  0
   20.8969   -5.7292  -16.0874 C   0  0  0  0  0  0  0  0  0  0  0  0
   22.1091   -6.2763  -15.3907 C   0  0  2  0  0  0  0  0  0  0  0  0
   22.0934   -7.6931  -15.2118 N   0  0  0  0  0  0  0  0  0  0  0  0
   22.3163   -5.5547  -14.0995 C   0  0  0  0  0  0  0  0  0  0  0  0
   22.5851   -4.1956  -14.0582 O   0  0  0  0  0  0  0  0  0  0  0  0
   22.2503   -6.1721  -13.0116 O   0  0  0  0  0  0  0  0  0  0  0  0
  1  2  1  0
  2  3  1  0
  3  4  2  0
  6  5  1  1
  7  6  1  0
  7  3  1  0
  8  9  2  0
  8  6  1  0
 10 11  1  0
 12 11  1  1
 12 14  1  0
 12 13  1  0
 13  8  1  0
 14 15  1  0
 16 14  2  0
M  END
$$$$
