GAS.pdb
     RDKit          3D

 16 15  0  0  1  0  0  0  0  0999 V2000
    0.4463   21.1647  -69.3105 N   0  0  0  0  0  0  0  0  0  0  0  0
    1.8351   21.0251  -68.9789 C   0  0  0  0  0  0  0  0  0  0  0  0
    2.1528   19.7091  -68.3704 C   0  0  0  0  0  0  0  0  0  0  0  0
    1.1683   18.9939  -68.0309 O   0  0  0  0  0  0  0  0  0  0  0  0
    4.6077   21.1344  -67.1098 C   0  0  0  0  0  0  0  0  0  0  0  0
    4.2155   19.6741  -67.0186 C   0  0  2  0  0  0  0  0  0  0  0  0
    3.4684   19.2362  -68.1607 N   0  0  0  0  0  0  0  0  0  0  0  0
    3.4050   19.5247  -65.7834 C   0  0  0  0  0  0  0  0  0  0  0  0
    3.3381   18.4320  -65.1832 O   0  0  0  0  0  0  0  0  0  0  0  0
    1.5480   21.4406  -67.3611 O   0  0  0  0  0  0  0  0  0  0  0  0
    0.5978   21.3472  -66.3406 C   0  0  0  0  0  0  0  0  0  0  0  0
    1.2574   20.6937  -65.1607 C   0  0  2  0  0  0  0  0  0  0  0  0
    2.6811   20.6237  -65.2487 N   0  0  0  0  0  0  0  0  0  0  0  0
    0.6479   19.3510  -64.9230 C   0  0  0  0  0  0  0  0  0  0  0  0
   -0.6757   19.2084  -64.5373 O   0  0  0  0  0  0  0  0  0  0  0  0
    1.3307   18.3111  -65.0695 O   0  0  0  0  0  0  0  0  0  0  0  0
  1  2  1  0
  2  3  1  0
  3  4  2  0
  6  5  1  6
  7  6  1  0
  7  3  1  0
  8  9  2  0
  8  6  1  0
 10 11  1  0
 12 11  1  6
 12 14  1  0
 12 13  1  0
 13  8  1  0
 14 15  1  0
 16 14  2  0
M  END
$$$$
