GAS.pdb
     RDKit          3D

 16 15  0  0  1  0  0  0  0  0999 V2000
   20.4960  -11.8243  -19.7005 N   0  0  0  0  0  0  0  0  0  0  0  0
   21.5858  -10.9244  -19.4539 C   0  0  0  0  0  0  0  0  0  0  0  0
   21.5572  -10.3456  -18.0874 C   0  0  0  0  0  0  0  0  0  0  0  0
   20.4681   -9.8201  -17.7218 O   0  0  0  0  0  0  0  0  0  0  0  0
   23.6574  -10.2027  -14.9710 C   0  0  0  0  0  0  0  0  0  0  0  0
   22.5472   -9.7654  -15.9041 C   0  0  2  0  0  0  0  0  0  0  0  0
   22.6615  -10.3565  -17.2049 N   0  0  0  0  0  0  0  0  0  0  0  0
   22.6268   -8.2859  -16.0007 C   0  0  0  0  0  0  0  0  0  0  0  0
   23.4212   -7.7320  -16.7887 O   0  0  0  0  0  0  0  0  0  0  0  0
   19.4648   -5.9036  -14.8618 O   0  0  0  0  0  0  0  0  0  0  0  0
   20.4616   -5.4631  -15.7366 C   0  0  0  0  0  0  0  0  0  0  0  0
   21.7685   -6.0306  -15.2632 C   0  0  2  0  0  0  0  0  0  0  0  0
   21.7992   -7.4569  -15.1971 N   0  0  0  0  0  0  0  0  0  0  0  0
   22.1467   -5.4050  -13.9607 C   0  0  0  0  0  0  0  0  0  0  0  0
   22.4181   -4.0500  -13.8537 O   0  0  0  0  0  0  0  0  0  0  0  0
   22.2275   -6.1023  -12.9233 O   0  0  0  0  0  0  0  0  0  0  0  0
  1  2  1  0
  2  3  1  0
  3  4  2  0
  6  5  1  1
  7  6  1  0
  7  3  1  0
  8  9  2  0
  8  6  1  0
 10 11  1  0
 12 11  1  1
 12 14  1  0
 12 13  1  0
 13  8  1  0
 14 15  1  0
 16 14  2  0
M  END
$$$$
