GAS.pdb
     RDKit          3D

 16 15  0  0  1  0  0  0  0  0999 V2000
   12.2923  -10.7402   -8.7702 N   0  0  0  0  0  0  0  0  0  0  0  0
   13.6521  -10.3787   -9.0501 C   0  0  0  0  0  0  0  0  0  0  0  0
   13.8737   -8.9112   -9.0319 C   0  0  0  0  0  0  0  0  0  0  0  0
   12.8824   -8.1965   -8.7114 O   0  0  0  0  0  0  0  0  0  0  0  0
   15.1270   -6.3538   -7.8555 C   0  0  0  0  0  0  0  0  0  0  0  0
   15.2404   -6.8724   -9.2743 C   0  0  2  0  0  0  0  0  0  0  0  0
   15.1075   -8.2977   -9.3478 N   0  0  0  0  0  0  0  0  0  0  0  0
   16.5719   -6.4515   -9.7790 C   0  0  0  0  0  0  0  0  0  0  0  0
   17.6123   -7.0478   -9.4314 O   0  0  0  0  0  0  0  0  0  0  0  0
   18.1162   -6.4701  -13.8365 O   0  0  0  0  0  0  0  0  0  0  0  0
   17.2784   -6.5873  -12.7242 C   0  0  0  0  0  0  0  0  0  0  0  0
   17.4805   -5.3695  -11.8696 C   0  0  2  0  0  0  0  0  0  0  0  0
   16.6996   -5.3557  -10.6739 N   0  0  0  0  0  0  0  0  0  0  0  0
   17.2663   -4.1387  -12.6883 C   0  0  0  0  0  0  0  0  0  0  0  0
   18.3269   -3.4257  -13.2247 O   0  0  0  0  0  0  0  0  0  0  0  0
   16.1068   -3.7198  -12.9099 O   0  0  0  0  0  0  0  0  0  0  0  0
  1  2  1  0
  2  3  1  0
  3  4  2  0
  6  5  1  1
  7  6  1  0
  7  3  1  0
  8  9  2  0
  8  6  1  0
 10 11  1  0
 12 11  1  6
 12 14  1  0
 12 13  1  0
 13  8  1  0
 14 15  1  0
 16 14  2  0
M  END
$$$$
