EEY.pdb
     RDKit          3D

 31 31  0  0  1  0  0  0  0  0999 V2000
   16.7543  -12.3269  -18.0608 N   0  0  0  0  0  0  0  0  0  0  0  0
   17.1550  -11.8396  -16.7980 C   0  0  1  0  0  0  0  0  0  0  0  0
   17.8911  -12.7611  -15.8865 C   0  0  0  0  0  0  0  0  0  0  0  0
   17.1901  -13.9680  -15.4058 C   0  0  0  0  0  0  0  0  0  0  0  0
   15.8937  -13.6984  -14.7748 C   0  0  0  0  0  0  0  0  0  0  0  0
   15.7190  -13.1689  -13.6604 O   0  0  0  0  0  0  0  0  0  0  0  0
   17.9926  -10.5846  -16.8828 C   0  0  0  0  0  0  0  0  0  0  0  0
   18.9493  -10.5189  -17.6971 O   0  0  0  0  0  0  0  0  0  0  0  0
   14.7493  -14.0756  -15.5021 O   0  0  0  0  0  0  0  0  0  0  0  0
   17.7559   -9.4455  -16.0738 N   0  0  0  0  0  0  0  0  0  0  0  0
   18.5621   -8.2300  -16.1975 C   0  0  1  0  0  0  0  0  0  0  0  0
   17.8979   -7.0575  -15.5456 C   0  0  0  0  0  0  0  0  0  0  0  0
   16.6018   -6.6597  -16.1850 C   0  0  0  0  0  0  0  0  0  0  0  0
   15.5496   -6.6739  -15.1354 C   0  0  0  0  0  0  0  0  0  0  0  0
   15.5485   -5.8541  -14.1715 O   0  0  0  0  0  0  0  0  0  0  0  0
   19.9150   -8.5138  -15.7072 C   0  0  0  0  0  0  0  0  0  0  0  0
   20.1291   -9.0483  -14.5865 O   0  0  0  0  0  0  0  0  0  0  0  0
   14.5085   -7.5920  -15.1585 O   0  0  0  0  0  0  0  0  0  0  0  0
   28.4315  -10.6701  -15.6809 O   0  0  0  0  0  0  0  0  0  0  0  0
   27.0962  -10.3892  -15.9611 C   0  0  0  0  0  0  0  0  0  0  0  0
   26.7782   -9.5027  -16.9709 C   0  0  0  0  0  0  0  0  0  0  0  0
   25.4560   -9.2262  -17.2463 C   0  0  0  0  0  0  0  0  0  0  0  0
   24.4103   -9.7991  -16.5534 C   0  0  0  0  0  0  0  0  0  0  0  0
   22.9974   -9.5236  -16.8141 C   0  0  0  0  0  0  0  0  0  0  0  0
   22.4072   -8.4248  -15.9755 C   0  0  2  0  0  0  0  0  0  0  0  0
   21.0650   -8.1948  -16.4834 N   0  0  0  0  0  0  0  0  0  0  0  0
   23.1764   -7.1822  -16.0738 C   0  0  0  0  0  0  0  0  0  0  0  0
   24.1983   -6.8975  -15.1511 O   0  0  0  0  0  0  0  0  0  0  0  0
   24.7444  -10.6813  -15.5489 C   0  0  0  0  0  0  0  0  0  0  0  0
   26.0673  -10.9710  -15.2582 C   0  0  0  0  0  0  0  0  0  0  0  0
   22.9121   -6.3664  -16.9973 O   0  0  0  0  0  0  0  0  0  0  0  0
  2  1  1  6
  2  3  1  0
  3  4  1  0
  4  5  1  0
  5  9  1  0
  6  5  2  0
  7  2  1  0
  8  7  2  0
 10  7  1  0
 11 10  1  0
 11 12  1  1
 13 12  1  0
 14 13  1  0
 14 15  2  0
 16 11  1  0
 16 26  1  0
 17 16  2  0
 18 14  1  0
 20 19  1  0
 21 20  2  0
 22 21  1  0
 23 29  1  0
 23 22  2  0
 24 23  1  0
 25 24  1  6
 25 26  1  0
 25 27  1  0
 27 28  1  0
 29 30  2  0
 30 20  1  0
 31 27  2  0
M  END
$$$$
