EEY.pdb
     RDKit          3D

 31 31  0  0  1  0  0  0  0  0999 V2000
   19.5267  -11.3902  -18.1118 N   0  0  0  0  0  0  0  0  0  0  0  0
   18.9916  -10.1062  -17.8720 C   0  0  1  0  0  0  0  0  0  0  0  0
   18.2780   -9.8673  -16.5853 C   0  0  0  0  0  0  0  0  0  0  0  0
   17.1520  -10.7574  -16.2406 C   0  0  0  0  0  0  0  0  0  0  0  0
   17.0241  -11.0364  -14.8062 C   0  0  0  0  0  0  0  0  0  0  0  0
   17.9365  -11.4282  -14.0534 O   0  0  0  0  0  0  0  0  0  0  0  0
   20.0176   -9.0027  -17.9876 C   0  0  0  0  0  0  0  0  0  0  0  0
   21.1031   -9.0825  -17.3568 O   0  0  0  0  0  0  0  0  0  0  0  0
   15.7514  -10.8405  -14.2381 O   0  0  0  0  0  0  0  0  0  0  0  0
   19.8210   -7.8499  -18.7878 N   0  0  0  0  0  0  0  0  0  0  0  0
   20.8119   -6.7743  -18.8486 C   0  0  1  0  0  0  0  0  0  0  0  0
   20.7722   -6.0597  -20.1634 C   0  0  0  0  0  0  0  0  0  0  0  0
   21.8433   -5.0237  -20.3252 C   0  0  0  0  0  0  0  0  0  0  0  0
   21.6120   -4.3232  -21.6155 C   0  0  0  0  0  0  0  0  0  0  0  0
   21.1630   -3.1414  -21.6694 O   0  0  0  0  0  0  0  0  0  0  0  0
   20.6343   -5.9076  -17.6787 C   0  0  0  0  0  0  0  0  0  0  0  0
   19.5042   -5.6860  -17.1675 O   0  0  0  0  0  0  0  0  0  0  0  0
   21.8781   -4.9324  -22.8343 O   0  0  0  0  0  0  0  0  0  0  0  0
   20.8127   -9.7609  -12.4159 O   0  0  0  0  0  0  0  0  0  0  0  0
   21.2249   -8.5699  -13.0091 C   0  0  0  0  0  0  0  0  0  0  0  0
   20.6865   -7.3703  -12.5872 C   0  0  0  0  0  0  0  0  0  0  0  0
   21.0960   -6.1929  -13.1758 C   0  0  0  0  0  0  0  0  0  0  0  0
   22.0347   -6.1462  -14.1851 C   0  0  0  0  0  0  0  0  0  0  0  0
   22.4869   -4.9167  -14.8362 C   0  0  0  0  0  0  0  0  0  0  0  0
   21.5671   -4.3983  -15.9059 C   0  0  2  0  0  0  0  0  0  0  0  0
   21.7437   -5.2671  -17.0575 N   0  0  0  0  0  0  0  0  0  0  0  0
   21.8885   -3.0219  -16.2901 C   0  0  0  0  0  0  0  0  0  0  0  0
   21.6335   -1.9547  -15.4108 O   0  0  0  0  0  0  0  0  0  0  0  0
   22.5622   -7.3516  -14.5946 C   0  0  0  0  0  0  0  0  0  0  0  0
   22.1626   -8.5443  -14.0147 C   0  0  0  0  0  0  0  0  0  0  0  0
   22.3976   -2.8018  -17.4217 O   0  0  0  0  0  0  0  0  0  0  0  0
  2  1  1  1
  2  3  1  0
  3  4  1  0
  4  5  1  0
  5  9  1  0
  6  5  2  0
  7  2  1  0
  8  7  2  0
 10  7  1  0
 11 10  1  0
 11 12  1  6
 13 12  1  0
 14 13  1  0
 14 15  2  0
 16 11  1  0
 16 26  1  0
 17 16  2  0
 18 14  1  0
 20 19  1  0
 21 20  2  0
 22 21  1  0
 23 29  1  0
 23 22  2  0
 24 23  1  0
 25 24  1  1
 25 26  1  0
 25 27  1  0
 27 28  1  0
 29 30  2  0
 30 20  1  0
 31 27  2  0
M  END
$$$$
