EEY.pdb
     RDKit          3D

 31 31  0  0  1  0  0  0  0  0999 V2000
   16.4301  -12.7560  -17.2042 N   0  0  0  0  0  0  0  0  0  0  0  0
   17.3336  -12.4017  -16.1791 C   0  0  1  0  0  0  0  0  0  0  0  0
   18.2880  -13.4369  -15.6898 C   0  0  0  0  0  0  0  0  0  0  0  0
   18.9208  -14.3235  -16.6860 C   0  0  0  0  0  0  0  0  0  0  0  0
   19.7336  -15.3970  -16.1043 C   0  0  0  0  0  0  0  0  0  0  0  0
   19.3638  -16.2003  -15.2264 O   0  0  0  0  0  0  0  0  0  0  0  0
   18.1730  -11.1914  -16.5175 C   0  0  0  0  0  0  0  0  0  0  0  0
   18.5498  -10.9967  -17.7019 O   0  0  0  0  0  0  0  0  0  0  0  0
   21.0492  -15.5231  -16.5883 O   0  0  0  0  0  0  0  0  0  0  0  0
   18.5720  -10.2367  -15.5495 N   0  0  0  0  0  0  0  0  0  0  0  0
   19.3292   -9.0382  -15.9139 C   0  0  1  0  0  0  0  0  0  0  0  0
   18.7341   -7.8039  -15.3110 C   0  0  0  0  0  0  0  0  0  0  0  0
   19.4685   -6.5436  -15.6562 C   0  0  0  0  0  0  0  0  0  0  0  0
   18.7664   -5.4097  -15.0000 C   0  0  0  0  0  0  0  0  0  0  0  0
   19.3019   -4.7290  -14.0775 O   0  0  0  0  0  0  0  0  0  0  0  0
   20.7411   -9.2578  -15.5828 C   0  0  0  0  0  0  0  0  0  0  0  0
   21.1336  -10.2616  -14.9301 O   0  0  0  0  0  0  0  0  0  0  0  0
   17.4805   -5.0372  -15.3672 O   0  0  0  0  0  0  0  0  0  0  0  0
   29.0223  -11.1261  -16.5175 O   0  0  0  0  0  0  0  0  0  0  0  0
   27.6639  -10.8194  -16.4874 C   0  0  0  0  0  0  0  0  0  0  0  0
   26.8674  -11.3274  -15.4802 C   0  0  0  0  0  0  0  0  0  0  0  0
   25.5233  -11.0225  -15.4525 C   0  0  0  0  0  0  0  0  0  0  0  0
   24.9169  -10.2202  -16.3962 C   0  0  0  0  0  0  0  0  0  0  0  0
   23.4937   -9.8821  -16.4013 C   0  0  0  0  0  0  0  0  0  0  0  0
   23.1539   -8.5867  -15.7190 C   0  0  2  0  0  0  0  0  0  0  0  0
   21.7477   -8.3361  -15.9877 N   0  0  0  0  0  0  0  0  0  0  0  0
   23.9470   -7.4679  -16.2335 C   0  0  0  0  0  0  0  0  0  0  0  0
   23.3727   -6.5217  -17.1005 O   0  0  0  0  0  0  0  0  0  0  0  0
   25.7253   -9.7214  -17.3945 C   0  0  0  0  0  0  0  0  0  0  0  0
   27.0778  -10.0172  -17.4383 C   0  0  0  0  0  0  0  0  0  0  0  0
   25.1550   -7.3611  -15.8907 O   0  0  0  0  0  0  0  0  0  0  0  0
  2  1  1  6
  2  3  1  0
  3  4  1  0
  4  5  1  0
  5  9  1  0
  6  5  2  0
  7  2  1  0
  8  7  2  0
 10  7  1  0
 11 10  1  0
 11 12  1  1
 13 12  1  0
 14 13  1  0
 14 15  2  0
 16 11  1  0
 16 26  1  0
 17 16  2  0
 18 14  1  0
 20 19  1  0
 21 20  2  0
 22 21  1  0
 23 29  1  0
 23 22  2  0
 24 23  1  0
 25 24  1  6
 25 26  1  0
 25 27  1  0
 27 28  1  0
 29 30  2  0
 30 20  1  0
 31 27  2  0
M  END
$$$$
