EEY.pdb
     RDKit          3D

 31 31  0  0  1  0  0  0  0  0999 V2000
   26.6135  -18.4228  -16.3855 N   0  0  0  0  0  0  0  0  0  0  0  0
   26.0290  -19.6225  -15.9255 C   0  0  1  0  0  0  0  0  0  0  0  0
   26.7473  -20.9027  -16.1840 C   0  0  0  0  0  0  0  0  0  0  0  0
   27.9569  -21.1925  -15.3890 C   0  0  0  0  0  0  0  0  0  0  0  0
   28.6488  -22.4266  -15.7761 C   0  0  0  0  0  0  0  0  0  0  0  0
   28.3398  -23.1706  -16.7267 O   0  0  0  0  0  0  0  0  0  0  0  0
   25.7279  -19.6084  -14.4446 C   0  0  0  0  0  0  0  0  0  0  0  0
   26.2320  -18.7226  -13.7072 O   0  0  0  0  0  0  0  0  0  0  0  0
   29.7615  -22.7951  -14.9971 O   0  0  0  0  0  0  0  0  0  0  0  0
   24.8870  -20.5635  -13.8212 N   0  0  0  0  0  0  0  0  0  0  0  0
   24.1891  -20.2756  -12.5671 C   0  0  1  0  0  0  0  0  0  0  0  0
   22.7880  -20.8027  -12.5807 C   0  0  0  0  0  0  0  0  0  0  0  0
   22.0468  -20.5930  -11.2948 C   0  0  0  0  0  0  0  0  0  0  0  0
   20.7318  -21.2765  -11.4072 C   0  0  0  0  0  0  0  0  0  0  0  0
   19.8726  -20.9458  -12.2753 O   0  0  0  0  0  0  0  0  0  0  0  0
   25.0108  -20.7590  -11.4525 C   0  0  0  0  0  0  0  0  0  0  0  0
   25.5796  -21.8831  -11.4704 O   0  0  0  0  0  0  0  0  0  0  0  0
   20.3765  -22.3183  -10.5611 O   0  0  0  0  0  0  0  0  0  0  0  0
   29.2854  -20.3513   -3.6150 O   0  0  0  0  0  0  0  0  0  0  0  0
   28.5993  -20.0821   -4.7971 C   0  0  0  0  0  0  0  0  0  0  0  0
   27.2761  -20.4563   -4.9234 C   0  0  0  0  0  0  0  0  0  0  0  0
   26.5991  -20.1889   -6.0942 C   0  0  0  0  0  0  0  0  0  0  0  0
   27.1837  -19.5541   -7.1699 C   0  0  0  0  0  0  0  0  0  0  0  0
   26.4980  -19.2609   -8.4284 C   0  0  0  0  0  0  0  0  0  0  0  0
   25.9819  -20.4693   -9.1581 C   0  0  2  0  0  0  0  0  0  0  0  0
   25.2073  -19.9717  -10.2827 N   0  0  0  0  0  0  0  0  0  0  0  0
   25.1203  -21.2983   -8.3120 C   0  0  0  0  0  0  0  0  0  0  0  0
   23.7223  -21.1547   -8.3550 O   0  0  0  0  0  0  0  0  0  0  0  0
   28.5044  -19.1873   -7.0279 C   0  0  0  0  0  0  0  0  0  0  0  0
   29.2003  -19.4479   -5.8590 C   0  0  0  0  0  0  0  0  0  0  0  0
   25.6463  -22.1450   -7.5409 O   0  0  0  0  0  0  0  0  0  0  0  0
  2  1  1  1
  2  3  1  0
  3  4  1  0
  4  5  1  0
  5  9  1  0
  6  5  2  0
  7  2  1  0
  8  7  2  0
 10  7  1  0
 11 10  1  0
 11 12  1  6
 13 12  1  0
 14 13  1  0
 14 15  2  0
 16 11  1  0
 16 26  1  0
 17 16  2  0
 18 14  1  0
 20 19  1  0
 21 20  2  0
 22 21  1  0
 23 29  1  0
 23 22  2  0
 24 23  1  0
 25 24  1  1
 25 26  1  0
 25 27  1  0
 27 28  1  0
 29 30  2  0
 30 20  1  0
 31 27  2  0
M  END
$$$$
