EEY.pdb
     RDKit          3D

 31 31  0  0  1  0  0  0  0  0999 V2000
   18.7536  -14.8933  -16.8349 N   0  0  0  0  0  0  0  0  0  0  0  0
   18.1736  -13.6083  -16.9056 C   0  0  1  0  0  0  0  0  0  0  0  0
   16.9380  -13.3464  -16.1141 C   0  0  0  0  0  0  0  0  0  0  0  0
   15.7860  -14.2488  -16.3073 C   0  0  0  0  0  0  0  0  0  0  0  0
   15.8305  -15.4639  -15.4868 C   0  0  0  0  0  0  0  0  0  0  0  0
   16.6589  -15.7100  -14.5891 O   0  0  0  0  0  0  0  0  0  0  0  0
   19.1369  -12.5000  -16.5483 C   0  0  0  0  0  0  0  0  0  0  0  0
   19.7613  -12.5349  -15.4567 O   0  0  0  0  0  0  0  0  0  0  0  0
   14.8437  -16.4338  -15.7446 O   0  0  0  0  0  0  0  0  0  0  0  0
   19.3835  -11.3917  -17.3961 N   0  0  0  0  0  0  0  0  0  0  0  0
   20.2168  -10.2656  -16.9718 C   0  0  1  0  0  0  0  0  0  0  0  0
   20.8459   -9.5724  -18.1399 C   0  0  0  0  0  0  0  0  0  0  0  0
   21.9654  -10.3422  -18.7733 C   0  0  0  0  0  0  0  0  0  0  0  0
   22.4930   -9.5360  -19.9050 C   0  0  0  0  0  0  0  0  0  0  0  0
   22.0294   -8.3943  -20.1926 O   0  0  0  0  0  0  0  0  0  0  0  0
   19.4184   -9.3935  -16.1038 C   0  0  0  0  0  0  0  0  0  0  0  0
   18.1963   -9.1686  -16.3123 O   0  0  0  0  0  0  0  0  0  0  0  0
   23.5270   -9.9964  -20.7089 O   0  0  0  0  0  0  0  0  0  0  0  0
   15.4924   -6.2599   -9.0660 O   0  0  0  0  0  0  0  0  0  0  0  0
   16.2230   -6.8853  -10.0736 C   0  0  0  0  0  0  0  0  0  0  0  0
   16.0254   -6.5227  -11.3913 C   0  0  0  0  0  0  0  0  0  0  0  0
   16.7496   -7.1431  -12.3868 C   0  0  0  0  0  0  0  0  0  0  0  0
   17.6813   -8.1278  -12.1335 C   0  0  0  0  0  0  0  0  0  0  0  0
   18.4617   -8.8115  -13.1647 C   0  0  0  0  0  0  0  0  0  0  0  0
   19.1995   -7.8975  -14.1025 C   0  0  2  0  0  0  0  0  0  0  0  0
   19.9931   -8.7515  -14.9705 N   0  0  0  0  0  0  0  0  0  0  0  0
   20.0899   -6.9783  -13.3900 C   0  0  0  0  0  0  0  0  0  0  0  0
   19.6264   -5.7235  -12.9571 O   0  0  0  0  0  0  0  0  0  0  0  0
   17.8666   -8.4783  -10.8137 C   0  0  0  0  0  0  0  0  0  0  0  0
   17.1479   -7.8657   -9.8004 C   0  0  0  0  0  0  0  0  0  0  0  0
   21.2814   -7.3240  -13.1682 O   0  0  0  0  0  0  0  0  0  0  0  0
  2  1  1  1
  2  3  1  0
  3  4  1  0
  4  5  1  0
  5  9  1  0
  6  5  2  0
  7  2  1  0
  8  7  2  0
 10  7  1  0
 11 10  1  0
 11 12  1  6
 13 12  1  0
 14 13  1  0
 14 15  2  0
 16 11  1  0
 16 26  1  0
 17 16  2  0
 18 14  1  0
 20 19  1  0
 21 20  2  0
 22 21  1  0
 23 29  1  0
 23 22  2  0
 24 23  1  0
 25 24  1  1
 25 26  1  0
 25 27  1  0
 27 28  1  0
 29 30  2  0
 30 20  1  0
 31 27  2  0
M  END
$$$$
