EEY.pdb
     RDKit          3D

 31 31  0  0  1  0  0  0  0  0999 V2000
   26.7281  -18.9454  -16.5361 N   0  0  0  0  0  0  0  0  0  0  0  0
   25.4677  -19.2892  -17.0707 C   0  0  1  0  0  0  0  0  0  0  0  0
   25.3159  -20.6220  -17.7206 C   0  0  0  0  0  0  0  0  0  0  0  0
   26.5411  -21.3535  -18.0983 C   0  0  0  0  0  0  0  0  0  0  0  0
   26.2942  -22.6653  -18.7064 C   0  0  0  0  0  0  0  0  0  0  0  0
   25.6318  -23.5922  -18.2016 O   0  0  0  0  0  0  0  0  0  0  0  0
   24.3464  -19.1901  -16.0624 C   0  0  0  0  0  0  0  0  0  0  0  0
   24.5951  -19.2774  -14.8323 O   0  0  0  0  0  0  0  0  0  0  0  0
   26.8610  -22.8874  -19.9754 O   0  0  0  0  0  0  0  0  0  0  0  0
   22.9922  -18.9998  -16.4339 N   0  0  0  0  0  0  0  0  0  0  0  0
   21.9412  -18.7870  -15.4376 C   0  0  1  0  0  0  0  0  0  0  0  0
   20.9973  -17.7018  -15.8530 C   0  0  0  0  0  0  0  0  0  0  0  0
   21.6486  -16.3631  -16.0273 C   0  0  0  0  0  0  0  0  0  0  0  0
   20.5893  -15.3798  -16.3739 C   0  0  0  0  0  0  0  0  0  0  0  0
   20.4394  -14.9376  -17.5500 O   0  0  0  0  0  0  0  0  0  0  0  0
   21.3003  -20.0748  -15.1509 C   0  0  0  0  0  0  0  0  0  0  0  0
   21.0303  -20.9109  -16.0540 O   0  0  0  0  0  0  0  0  0  0  0  0
   19.7054  -14.8933  -15.4204 O   0  0  0  0  0  0  0  0  0  0  0  0
   25.9428  -24.3163  -15.6532 O   0  0  0  0  0  0  0  0  0  0  0  0
   24.8433  -23.8605  -14.9295 C   0  0  0  0  0  0  0  0  0  0  0  0
   24.8900  -22.6246  -14.3153 C   0  0  0  0  0  0  0  0  0  0  0  0
   23.8007  -22.1756  -13.5996 C   0  0  0  0  0  0  0  0  0  0  0  0
   22.6412  -22.9092  -13.4601 C   0  0  0  0  0  0  0  0  0  0  0  0
   21.4701  -22.4671  -12.7031 C   0  0  0  0  0  0  0  0  0  0  0  0
   20.4216  -21.7669  -13.5213 C   0  0  2  0  0  0  0  0  0  0  0  0
   20.9482  -20.4461  -13.8224 N   0  0  0  0  0  0  0  0  0  0  0  0
   19.1583  -21.6250  -12.7939 C   0  0  0  0  0  0  0  0  0  0  0  0
   18.3815  -22.7542  -12.4803 O   0  0  0  0  0  0  0  0  0  0  0  0
   22.6107  -24.1401  -14.0789 C   0  0  0  0  0  0  0  0  0  0  0  0
   23.6957  -24.6074  -14.8021 C   0  0  0  0  0  0  0  0  0  0  0  0
   18.7717  -20.4757  -12.4506 O   0  0  0  0  0  0  0  0  0  0  0  0
  2  1  1  1
  2  3  1  0
  3  4  1  0
  4  5  1  0
  5  9  1  0
  6  5  2  0
  7  2  1  0
  8  7  2  0
 10  7  1  0
 11 10  1  0
 11 12  1  6
 13 12  1  0
 14 13  1  0
 14 15  2  0
 16 11  1  0
 16 26  1  0
 17 16  2  0
 18 14  1  0
 20 19  1  0
 21 20  2  0
 22 21  1  0
 23 29  1  0
 23 22  2  0
 24 23  1  0
 25 24  1  1
 25 26  1  0
 25 27  1  0
 27 28  1  0
 29 30  2  0
 30 20  1  0
 31 27  2  0
M  END
$$$$
