EEY.pdb
     RDKit          3D

 31 31  0  0  1  0  0  0  0  0999 V2000
   19.7422  -21.9917  -15.6298 N   0  0  0  0  0  0  0  0  0  0  0  0
   20.2966  -20.6955  -15.7016 C   0  0  1  0  0  0  0  0  0  0  0  0
   20.2815  -19.8517  -14.4729 C   0  0  0  0  0  0  0  0  0  0  0  0
   18.9826  -19.6052  -13.8164 C   0  0  0  0  0  0  0  0  0  0  0  0
   19.0573  -18.7172  -12.6513 C   0  0  0  0  0  0  0  0  0  0  0  0
   19.3719  -17.5116  -12.6699 O   0  0  0  0  0  0  0  0  0  0  0  0
   21.7257  -20.6858  -16.1930 C   0  0  0  0  0  0  0  0  0  0  0  0
   22.4545  -21.6986  -16.0325 O   0  0  0  0  0  0  0  0  0  0  0  0
   18.7433  -19.2881  -11.4038 O   0  0  0  0  0  0  0  0  0  0  0  0
   22.3088  -19.5690  -16.8418 N   0  0  0  0  0  0  0  0  0  0  0  0
   23.6734  -19.6088  -17.3696 C   0  0  1  0  0  0  0  0  0  0  0  0
   23.9143  -18.5142  -18.3620 C   0  0  0  0  0  0  0  0  0  0  0  0
   25.3045  -18.4964  -18.9224 C   0  0  0  0  0  0  0  0  0  0  0  0
   25.4076  -17.3442  -19.8556 C   0  0  0  0  0  0  0  0  0  0  0  0
   25.3640  -16.1454  -19.4531 O   0  0  0  0  0  0  0  0  0  0  0  0
   24.6112  -19.6257  -16.2419 C   0  0  0  0  0  0  0  0  0  0  0  0
   24.3799  -19.0195  -15.1619 O   0  0  0  0  0  0  0  0  0  0  0  0
   25.5580  -17.5248  -21.2239 O   0  0  0  0  0  0  0  0  0  0  0  0
   24.7035  -20.7228   -8.9198 O   0  0  0  0  0  0  0  0  0  0  0  0
   24.9065  -20.9750  -10.2746 C   0  0  0  0  0  0  0  0  0  0  0  0
   26.1695  -21.2953  -10.7317 C   0  0  0  0  0  0  0  0  0  0  0  0
   26.3680  -21.5445  -12.0730 C   0  0  0  0  0  0  0  0  0  0  0  0
   25.3520  -21.4902  -13.0040 C   0  0  0  0  0  0  0  0  0  0  0  0
   25.5280  -21.7416  -14.4343 C   0  0  0  0  0  0  0  0  0  0  0  0
   26.5048  -20.8256  -15.1169 C   0  0  2  0  0  0  0  0  0  0  0  0
   25.8426  -20.3365  -16.3147 N   0  0  0  0  0  0  0  0  0  0  0  0
   27.7366  -21.5195  -15.4996 C   0  0  0  0  0  0  0  0  0  0  0  0
   28.8153  -21.6111  -14.6024 O   0  0  0  0  0  0  0  0  0  0  0  0
   24.0978  -21.1691  -12.5318 C   0  0  0  0  0  0  0  0  0  0  0  0
   23.8798  -20.9156  -11.1877 C   0  0  0  0  0  0  0  0  0  0  0  0
   27.8214  -22.0355  -16.6462 O   0  0  0  0  0  0  0  0  0  0  0  0
  2  1  1  1
  2  3  1  0
  3  4  1  0
  4  5  1  0
  5  9  1  0
  6  5  2  0
  7  2  1  0
  8  7  2  0
 10  7  1  0
 11 10  1  0
 11 12  1  6
 13 12  1  0
 14 13  1  0
 14 15  2  0
 16 11  1  0
 16 26  1  0
 17 16  2  0
 18 14  1  0
 20 19  1  0
 21 20  2  0
 22 21  1  0
 23 29  1  0
 23 22  2  0
 24 23  1  0
 25 24  1  6
 25 26  1  0
 25 27  1  0
 27 28  1  0
 29 30  2  0
 30 20  1  0
 31 27  2  0
M  END
$$$$
