EEY.pdb
     RDKit          3D

 31 31  0  0  1  0  0  0  0  0999 V2000
   26.2325  -20.6095  -14.4997 N   0  0  0  0  0  0  0  0  0  0  0  0
   25.1043  -21.1273  -15.1717 C   0  0  1  0  0  0  0  0  0  0  0  0
   25.1354  -22.5515  -15.6104 C   0  0  0  0  0  0  0  0  0  0  0  0
   26.3327  -23.0302  -16.3289 C   0  0  0  0  0  0  0  0  0  0  0  0
   26.2332  -24.4133  -16.8072 C   0  0  0  0  0  0  0  0  0  0  0  0
   26.6879  -25.4206  -16.2315 O   0  0  0  0  0  0  0  0  0  0  0  0
   23.8198  -20.9620  -14.3928 C   0  0  0  0  0  0  0  0  0  0  0  0
   23.8299  -21.0367  -13.1370 O   0  0  0  0  0  0  0  0  0  0  0  0
   25.5613  -24.6101  -18.0282 O   0  0  0  0  0  0  0  0  0  0  0  0
   22.5689  -20.7215  -15.0137 N   0  0  0  0  0  0  0  0  0  0  0  0
   21.3353  -20.5866  -14.2375 C   0  0  1  0  0  0  0  0  0  0  0  0
   20.3886  -19.6140  -14.8689 C   0  0  0  0  0  0  0  0  0  0  0  0
   19.0887  -19.4679  -14.1370 C   0  0  0  0  0  0  0  0  0  0  0  0
   18.1699  -18.6692  -14.9896 C   0  0  0  0  0  0  0  0  0  0  0  0
   17.7810  -19.0737  -16.1238 O   0  0  0  0  0  0  0  0  0  0  0  0
   20.7750  -21.9234  -14.0128 C   0  0  0  0  0  0  0  0  0  0  0  0
   20.8481  -22.8400  -14.8742 O   0  0  0  0  0  0  0  0  0  0  0  0
   17.6886  -17.4319  -14.5836 O   0  0  0  0  0  0  0  0  0  0  0  0
   18.2309  -29.1437   -9.6323 O   0  0  0  0  0  0  0  0  0  0  0  0
   18.7062  -27.8984  -10.0373 C   0  0  0  0  0  0  0  0  0  0  0  0
   18.2008  -26.7499   -9.4607 C   0  0  0  0  0  0  0  0  0  0  0  0
   18.6726  -25.5188   -9.8631 C   0  0  0  0  0  0  0  0  0  0  0  0
   19.6432  -25.3676  -10.8311 C   0  0  0  0  0  0  0  0  0  0  0  0
   20.1616  -24.0778  -11.2868 C   0  0  0  0  0  0  0  0  0  0  0  0
   19.5614  -23.5787  -12.5712 C   0  0  2  0  0  0  0  0  0  0  0  0
   20.1136  -22.2532  -12.7960 N   0  0  0  0  0  0  0  0  0  0  0  0
   18.1017  -23.4837  -12.4976 C   0  0  0  0  0  0  0  0  0  0  0  0
   17.4681  -22.2305  -12.4272 O   0  0  0  0  0  0  0  0  0  0  0  0
   20.1370  -26.5232  -11.3965 C   0  0  0  0  0  0  0  0  0  0  0  0
   19.6748  -27.7687  -11.0048 C   0  0  0  0  0  0  0  0  0  0  0  0
   17.4155  -24.5407  -12.4973 O   0  0  0  0  0  0  0  0  0  0  0  0
  2  1  1  1
  2  3  1  0
  3  4  1  0
  4  5  1  0
  5  9  1  0
  6  5  2  0
  7  2  1  0
  8  7  2  0
 10  7  1  0
 11 10  1  0
 11 12  1  6
 13 12  1  0
 14 13  1  0
 14 15  2  0
 16 11  1  0
 16 26  1  0
 17 16  2  0
 18 14  1  0
 20 19  1  0
 21 20  2  0
 22 21  1  0
 23 29  1  0
 23 22  2  0
 24 23  1  0
 25 24  1  1
 25 26  1  0
 25 27  1  0
 27 28  1  0
 29 30  2  0
 30 20  1  0
 31 27  2  0
M  END
$$$$
