EEY.pdb
     RDKit          3D

 31 31  0  0  1  0  0  0  0  0999 V2000
   23.8887  -10.6133  -18.2301 N   0  0  0  0  0  0  0  0  0  0  0  0
   24.0122  -10.7475  -16.8303 C   0  0  1  0  0  0  0  0  0  0  0  0
   25.3655  -11.0078  -16.2623 C   0  0  0  0  0  0  0  0  0  0  0  0
   26.4725  -10.1217  -16.6727 C   0  0  0  0  0  0  0  0  0  0  0  0
   27.7879  -10.5313  -16.1692 C   0  0  0  0  0  0  0  0  0  0  0  0
   28.0205  -11.5262  -15.4560 O   0  0  0  0  0  0  0  0  0  0  0  0
   23.4640   -9.5631  -16.0682 C   0  0  0  0  0  0  0  0  0  0  0  0
   23.3593   -9.6132  -14.8155 O   0  0  0  0  0  0  0  0  0  0  0  0
   28.8802   -9.7203  -16.5300 O   0  0  0  0  0  0  0  0  0  0  0  0
   23.0486   -8.3657  -16.7019 N   0  0  0  0  0  0  0  0  0  0  0  0
   22.2382   -7.3651  -16.0058 C   0  0  1  0  0  0  0  0  0  0  0  0
   22.8230   -5.9931  -16.1350 C   0  0  0  0  0  0  0  0  0  0  0  0
   22.0159   -4.9224  -15.4649 C   0  0  0  0  0  0  0  0  0  0  0  0
   22.6690   -3.6160  -15.7405 C   0  0  0  0  0  0  0  0  0  0  0  0
   22.1008   -2.7076  -16.4137 O   0  0  0  0  0  0  0  0  0  0  0  0
   20.8512   -7.4820  -16.4682 C   0  0  0  0  0  0  0  0  0  0  0  0
   20.5579   -7.7349  -17.6672 O   0  0  0  0  0  0  0  0  0  0  0  0
   23.9424   -3.3237  -15.2713 O   0  0  0  0  0  0  0  0  0  0  0  0
   12.7202   -9.7466  -17.9966 O   0  0  0  0  0  0  0  0  0  0  0  0
   14.0148   -9.5081  -17.5411 C   0  0  0  0  0  0  0  0  0  0  0  0
   14.9854   -9.0790  -18.4246 C   0  0  0  0  0  0  0  0  0  0  0  0
   16.2659   -8.8436  -17.9714 C   0  0  0  0  0  0  0  0  0  0  0  0
   16.6391   -9.0169  -16.6551 C   0  0  0  0  0  0  0  0  0  0  0  0
   17.9888   -8.7834  -16.1417 C   0  0  0  0  0  0  0  0  0  0  0  0
   18.3829   -7.3360  -16.0476 C   0  0  2  0  0  0  0  0  0  0  0  0
   19.7566   -7.3131  -15.5737 N   0  0  0  0  0  0  0  0  0  0  0  0
   17.5390   -6.5947  -15.1075 C   0  0  0  0  0  0  0  0  0  0  0  0
   16.3007   -6.0696  -15.5171 O   0  0  0  0  0  0  0  0  0  0  0  0
   15.6590   -9.4454  -15.7864 C   0  0  0  0  0  0  0  0  0  0  0  0
   14.3672   -9.6869  -16.2239 C   0  0  0  0  0  0  0  0  0  0  0  0
   17.9354   -6.4305  -13.9226 O   0  0  0  0  0  0  0  0  0  0  0  0
  2  1  1  6
  2  3  1  0
  3  4  1  0
  4  5  1  0
  5  9  1  0
  6  5  2  0
  7  2  1  0
  8  7  2  0
 10  7  1  0
 11 10  1  0
 11 12  1  6
 13 12  1  0
 14 13  1  0
 14 15  2  0
 16 11  1  0
 16 26  1  0
 17 16  2  0
 18 14  1  0
 20 19  1  0
 21 20  2  0
 22 21  1  0
 23 29  1  0
 23 22  2  0
 24 23  1  0
 25 24  1  1
 25 26  1  0
 25 27  1  0
 27 28  1  0
 29 30  2  0
 30 20  1  0
 31 27  2  0
M  END
$$$$
