EEY.pdb
     RDKit          3D

 31 31  0  0  1  0  0  0  0  0999 V2000
   16.3497  -12.6506  -16.1134 N   0  0  0  0  0  0  0  0  0  0  0  0
   17.6802  -12.1810  -16.0700 C   0  0  1  0  0  0  0  0  0  0  0  0
   18.6857  -12.8242  -16.9628 C   0  0  0  0  0  0  0  0  0  0  0  0
   18.9848  -14.2546  -16.7540 C   0  0  0  0  0  0  0  0  0  0  0  0
   20.4092  -14.5910  -16.8522 C   0  0  0  0  0  0  0  0  0  0  0  0
   21.0009  -14.9735  -17.8799 O   0  0  0  0  0  0  0  0  0  0  0  0
   17.7954  -10.6950  -16.3196 C   0  0  0  0  0  0  0  0  0  0  0  0
   17.2953  -10.1894  -17.3574 O   0  0  0  0  0  0  0  0  0  0  0  0
   21.1677  -14.4673  -15.6731 O   0  0  0  0  0  0  0  0  0  0  0  0
   18.4539   -9.8135  -15.4267 N   0  0  0  0  0  0  0  0  0  0  0  0
   18.4878   -8.3679  -15.6539 C   0  0  1  0  0  0  0  0  0  0  0  0
   17.4464   -7.6570  -14.8471 C   0  0  0  0  0  0  0  0  0  0  0  0
   17.4718   -6.1660  -14.9996 C   0  0  0  0  0  0  0  0  0  0  0  0
   16.4397   -5.5952  -14.0952 C   0  0  0  0  0  0  0  0  0  0  0  0
   16.2512   -4.3484  -13.9902 O   0  0  0  0  0  0  0  0  0  0  0  0
   19.8578   -7.8918  -15.4351 C   0  0  0  0  0  0  0  0  0  0  0  0
   20.5786   -8.3172  -14.4933 O   0  0  0  0  0  0  0  0  0  0  0  0
   15.6251   -6.4046  -13.3150 O   0  0  0  0  0  0  0  0  0  0  0  0
   27.3399   -3.2940  -17.0782 O   0  0  0  0  0  0  0  0  0  0  0  0
   26.0919   -3.9100  -17.1361 C   0  0  0  0  0  0  0  0  0  0  0  0
   26.0079   -5.2871  -17.1948 C   0  0  0  0  0  0  0  0  0  0  0  0
   24.7717   -5.8944  -17.2521 C   0  0  0  0  0  0  0  0  0  0  0  0
   23.5880   -5.1867  -17.2541 C   0  0  0  0  0  0  0  0  0  0  0  0
   22.2605   -5.7975  -17.3209 C   0  0  0  0  0  0  0  0  0  0  0  0
   21.7743   -6.3855  -16.0260 C   0  0  2  0  0  0  0  0  0  0  0  0
   20.4457   -6.9140  -16.2867 N   0  0  0  0  0  0  0  0  0  0  0  0
   21.6908   -5.3824  -14.9619 C   0  0  0  0  0  0  0  0  0  0  0  0
   22.7332   -5.2391  -14.0293 O   0  0  0  0  0  0  0  0  0  0  0  0
   23.6891   -3.8136  -17.1952 C   0  0  0  0  0  0  0  0  0  0  0  0
   24.9225   -3.1863  -17.1372 C   0  0  0  0  0  0  0  0  0  0  0  0
   20.6707   -4.6460  -14.8892 O   0  0  0  0  0  0  0  0  0  0  0  0
  2  1  1  6
  2  3  1  0
  3  4  1  0
  4  5  1  0
  5  9  1  0
  6  5  2  0
  7  2  1  0
  8  7  2  0
 10  7  1  0
 11 10  1  0
 11 12  1  1
 13 12  1  0
 14 13  1  0
 14 15  2  0
 16 11  1  0
 16 26  1  0
 17 16  2  0
 18 14  1  0
 20 19  1  0
 21 20  2  0
 22 21  1  0
 23 29  1  0
 23 22  2  0
 24 23  1  0
 25 24  1  6
 25 26  1  0
 25 27  1  0
 27 28  1  0
 29 30  2  0
 30 20  1  0
 31 27  2  0
M  END
$$$$
