EEY.pdb
     RDKit          3D

 31 31  0  0  1  0  0  0  0  0999 V2000
   26.0583  -19.2320  -16.4163 N   0  0  0  0  0  0  0  0  0  0  0  0
   26.5925  -20.1150  -15.4531 C   0  0  1  0  0  0  0  0  0  0  0  0
   28.0646  -20.3487  -15.4486 C   0  0  0  0  0  0  0  0  0  0  0  0
   28.6878  -20.8727  -16.6798 C   0  0  0  0  0  0  0  0  0  0  0  0
   28.4346  -20.0597  -17.8742 C   0  0  0  0  0  0  0  0  0  0  0  0
   28.9101  -18.9312  -18.1048 O   0  0  0  0  0  0  0  0  0  0  0  0
   26.2283  -19.7401  -14.0351 C   0  0  0  0  0  0  0  0  0  0  0  0
   26.8428  -18.8107  -13.4511 O   0  0  0  0  0  0  0  0  0  0  0  0
   27.5752  -20.6133  -18.8417 O   0  0  0  0  0  0  0  0  0  0  0  0
   25.2058  -20.3949  -13.3045 N   0  0  0  0  0  0  0  0  0  0  0  0
   24.7998  -19.9446  -11.9723 C   0  0  1  0  0  0  0  0  0  0  0  0
   23.3174  -19.7574  -11.8800 C   0  0  0  0  0  0  0  0  0  0  0  0
   22.5387  -21.0373  -11.9265 C   0  0  0  0  0  0  0  0  0  0  0  0
   21.0926  -20.6953  -11.8950 C   0  0  0  0  0  0  0  0  0  0  0  0
   20.5375  -20.2097  -10.8667 O   0  0  0  0  0  0  0  0  0  0  0  0
   25.3607  -20.8638  -10.9764 C   0  0  0  0  0  0  0  0  0  0  0  0
   25.5461  -22.0871  -11.2150 O   0  0  0  0  0  0  0  0  0  0  0  0
   20.2722  -20.8919  -12.9975 O   0  0  0  0  0  0  0  0  0  0  0  0
   28.3913  -18.3820   -3.3567 O   0  0  0  0  0  0  0  0  0  0  0  0
   28.2176  -18.9873   -4.5992 C   0  0  0  0  0  0  0  0  0  0  0  0
   27.6303  -18.2817   -5.6307 C   0  0  0  0  0  0  0  0  0  0  0  0
   27.4594  -18.8828   -6.8595 C   0  0  0  0  0  0  0  0  0  0  0  0
   27.8514  -20.1789   -7.1210 C   0  0  0  0  0  0  0  0  0  0  0  0
   27.6793  -20.8499   -8.4095 C   0  0  0  0  0  0  0  0  0  0  0  0
   26.2803  -21.3233   -8.6885 C   0  0  2  0  0  0  0  0  0  0  0  0
   25.7267  -20.4125   -9.6767 N   0  0  0  0  0  0  0  0  0  0  0  0
   25.4399  -21.2979   -7.4892 C   0  0  0  0  0  0  0  0  0  0  0  0
   25.5961  -22.2689   -6.4844 O   0  0  0  0  0  0  0  0  0  0  0  0
   28.4356  -20.8694   -6.0813 C   0  0  0  0  0  0  0  0  0  0  0  0
   28.6153  -20.2815   -4.8401 C   0  0  0  0  0  0  0  0  0  0  0  0
   24.5709  -20.3936   -7.3659 O   0  0  0  0  0  0  0  0  0  0  0  0
  2  1  1  6
  2  3  1  0
  3  4  1  0
  4  5  1  0
  5  9  1  0
  6  5  2  0
  7  2  1  0
  8  7  2  0
 10  7  1  0
 11 10  1  0
 11 12  1  6
 13 12  1  0
 14 13  1  0
 14 15  2  0
 16 11  1  0
 16 26  1  0
 17 16  2  0
 18 14  1  0
 20 19  1  0
 21 20  2  0
 22 21  1  0
 23 29  1  0
 23 22  2  0
 24 23  1  0
 25 24  1  1
 25 26  1  0
 25 27  1  0
 27 28  1  0
 29 30  2  0
 30 20  1  0
 31 27  2  0
M  END
$$$$
