EEY.pdb
     RDKit          3D

 31 31  0  0  1  0  0  0  0  0999 V2000
   24.8558  -12.3044  -19.1693 N   0  0  0  0  0  0  0  0  0  0  0  0
   25.2292  -11.1870  -19.9468 C   0  0  1  0  0  0  0  0  0  0  0  0
   24.1723  -10.4872  -20.7310 C   0  0  0  0  0  0  0  0  0  0  0  0
   23.3922  -11.2772  -21.7037 C   0  0  0  0  0  0  0  0  0  0  0  0
   21.9406  -11.0941  -21.5999 C   0  0  0  0  0  0  0  0  0  0  0  0
   21.1903  -10.6738  -22.5016 O   0  0  0  0  0  0  0  0  0  0  0  0
   25.9311  -10.1135  -19.1476 C   0  0  0  0  0  0  0  0  0  0  0  0
   25.3677   -9.6043  -18.1447 O   0  0  0  0  0  0  0  0  0  0  0  0
   21.3511  -11.4263  -20.3657 O   0  0  0  0  0  0  0  0  0  0  0  0
   27.2240   -9.6333  -19.4730 N   0  0  0  0  0  0  0  0  0  0  0  0
   27.9175   -8.6545  -18.6343 C   0  0  1  0  0  0  0  0  0  0  0  0
   29.3996   -8.7026  -18.8390 C   0  0  0  0  0  0  0  0  0  0  0  0
   30.1609   -7.7154  -18.0066 C   0  0  0  0  0  0  0  0  0  0  0  0
   31.6030   -7.8503  -18.3404 C   0  0  0  0  0  0  0  0  0  0  0  0
   32.4476   -8.2969  -17.5108 O   0  0  0  0  0  0  0  0  0  0  0  0
   27.3144   -7.3362  -18.8573 C   0  0  0  0  0  0  0  0  0  0  0  0
   26.9617   -6.9392  -19.9999 O   0  0  0  0  0  0  0  0  0  0  0  0
   32.1001   -7.4913  -19.5860 O   0  0  0  0  0  0  0  0  0  0  0  0
   22.3670   -0.2245  -17.3825 O   0  0  0  0  0  0  0  0  0  0  0  0
   23.0800   -1.4191  -17.3111 C   0  0  0  0  0  0  0  0  0  0  0  0
   23.9398   -1.6434  -16.2541 C   0  0  0  0  0  0  0  0  0  0  0  0
   24.6443   -2.8264  -16.1856 C   0  0  0  0  0  0  0  0  0  0  0  0
   24.5351   -3.8201  -17.1356 C   0  0  0  0  0  0  0  0  0  0  0  0
   25.2720   -5.0833  -17.0980 C   0  0  0  0  0  0  0  0  0  0  0  0
   26.4756   -5.1346  -17.9967 C   0  0  2  0  0  0  0  0  0  0  0  0
   27.0962   -6.4310  -17.7804 N   0  0  0  0  0  0  0  0  0  0  0  0
   27.4438   -4.0813  -17.6826 C   0  0  0  0  0  0  0  0  0  0  0  0
   28.7028   -4.4027  -17.1456 O   0  0  0  0  0  0  0  0  0  0  0  0
   23.6732   -3.5807  -18.1838 C   0  0  0  0  0  0  0  0  0  0  0  0
   22.9573   -2.3981  -18.2691 C   0  0  0  0  0  0  0  0  0  0  0  0
   27.1360   -2.8785  -17.8985 O   0  0  0  0  0  0  0  0  0  0  0  0
  2  1  1  1
  2  3  1  0
  3  4  1  0
  4  5  1  0
  5  9  1  0
  6  5  2  0
  7  2  1  0
  8  7  2  0
 10  7  1  0
 11 10  1  0
 11 12  1  6
 13 12  1  0
 14 13  1  0
 14 15  2  0
 16 11  1  0
 16 26  1  0
 17 16  2  0
 18 14  1  0
 20 19  1  0
 21 20  2  0
 22 21  1  0
 23 29  1  0
 23 22  2  0
 24 23  1  0
 25 24  1  1
 25 26  1  0
 25 27  1  0
 27 28  1  0
 29 30  2  0
 30 20  1  0
 31 27  2  0
M  END
$$$$
