EEY.pdb
     RDKit          3D

 31 31  0  0  1  0  0  0  0  0999 V2000
   19.1345  -14.5738  -16.4912 N   0  0  0  0  0  0  0  0  0  0  0  0
   18.4242  -13.3540  -16.5054 C   0  0  1  0  0  0  0  0  0  0  0  0
   17.3086  -13.1749  -15.5332 C   0  0  0  0  0  0  0  0  0  0  0  0
   16.2147  -14.1660  -15.5420 C   0  0  0  0  0  0  0  0  0  0  0  0
   15.0824  -13.8185  -14.6766 C   0  0  0  0  0  0  0  0  0  0  0  0
   15.0956  -13.7916  -13.4309 O   0  0  0  0  0  0  0  0  0  0  0  0
   19.3152  -12.1445  -16.3407 C   0  0  0  0  0  0  0  0  0  0  0  0
   20.2201  -12.1423  -15.4667 O   0  0  0  0  0  0  0  0  0  0  0  0
   13.8761  -13.4870  -15.3214 O   0  0  0  0  0  0  0  0  0  0  0  0
   19.1854  -10.9791  -17.1363 N   0  0  0  0  0  0  0  0  0  0  0  0
   20.0624   -9.8209  -16.9575 C   0  0  1  0  0  0  0  0  0  0  0  0
   20.2791   -9.0878  -18.2445 C   0  0  0  0  0  0  0  0  0  0  0  0
   19.1119   -8.2495  -18.6710 C   0  0  0  0  0  0  0  0  0  0  0  0
   19.6250   -6.9053  -19.0439 C   0  0  0  0  0  0  0  0  0  0  0  0
   19.2476   -5.8523  -18.4523 O   0  0  0  0  0  0  0  0  0  0  0  0
   19.5308   -8.9950  -15.8682 C   0  0  0  0  0  0  0  0  0  0  0  0
   18.3096   -8.9906  -15.5579 O   0  0  0  0  0  0  0  0  0  0  0  0
   20.5494   -6.7349  -20.0655 O   0  0  0  0  0  0  0  0  0  0  0  0
   19.7960   -3.8319   -8.6085 O   0  0  0  0  0  0  0  0  0  0  0  0
   20.0780   -4.6690   -9.6855 C   0  0  0  0  0  0  0  0  0  0  0  0
   19.8694   -6.0293   -9.5709 C   0  0  0  0  0  0  0  0  0  0  0  0
   20.1493   -6.8558  -10.6382 C   0  0  0  0  0  0  0  0  0  0  0  0
   20.6369   -6.3885  -11.8406 C   0  0  0  0  0  0  0  0  0  0  0  0
   20.9511   -7.2367  -12.9902 C   0  0  0  0  0  0  0  0  0  0  0  0
   19.8551   -7.3376  -14.0138 C   0  0  2  0  0  0  0  0  0  0  0  0
   20.3794   -8.1485  -15.1000 N   0  0  0  0  0  0  0  0  0  0  0  0
   19.4680   -6.0260  -14.5384 C   0  0  0  0  0  0  0  0  0  0  0  0
   18.3748   -5.3305  -13.9925 O   0  0  0  0  0  0  0  0  0  0  0  0
   20.8396   -5.0289  -11.9386 C   0  0  0  0  0  0  0  0  0  0  0  0
   20.5640   -4.1834  -10.8768 C   0  0  0  0  0  0  0  0  0  0  0  0
   20.1266   -5.5245  -15.4886 O   0  0  0  0  0  0  0  0  0  0  0  0
  2  1  1  1
  2  3  1  0
  3  4  1  0
  4  5  1  0
  5  9  1  0
  6  5  2  0
  7  2  1  0
  8  7  2  0
 10  7  1  0
 11 10  1  0
 11 12  1  6
 13 12  1  0
 14 13  1  0
 14 15  2  0
 16 11  1  0
 16 26  1  0
 17 16  2  0
 18 14  1  0
 20 19  1  0
 21 20  2  0
 22 21  1  0
 23 29  1  0
 23 22  2  0
 24 23  1  0
 25 24  1  1
 25 26  1  0
 25 27  1  0
 27 28  1  0
 29 30  2  0
 30 20  1  0
 31 27  2  0
M  END
$$$$
