EEY.pdb
     RDKit          3D

 31 31  0  0  1  0  0  0  0  0999 V2000
   16.2406  -11.9384  -17.0945 N   0  0  0  0  0  0  0  0  0  0  0  0
   17.1915  -11.9817  -16.0521 C   0  0  1  0  0  0  0  0  0  0  0  0
   18.3625  -12.8918  -16.2017 C   0  0  0  0  0  0  0  0  0  0  0  0
   18.1016  -14.3293  -16.4125 C   0  0  0  0  0  0  0  0  0  0  0  0
   17.5136  -15.0094  -15.2535 C   0  0  0  0  0  0  0  0  0  0  0  0
   16.5630  -15.8145  -15.2828 O   0  0  0  0  0  0  0  0  0  0  0  0
   17.7626  -10.6249  -15.7105 C   0  0  0  0  0  0  0  0  0  0  0  0
   18.1531   -9.8564  -16.6268 O   0  0  0  0  0  0  0  0  0  0  0  0
   18.0818  -14.7197  -13.9988 O   0  0  0  0  0  0  0  0  0  0  0  0
   17.8878  -10.1557  -14.3793 N   0  0  0  0  0  0  0  0  0  0  0  0
   18.3834   -8.8118  -14.0780 C   0  0  1  0  0  0  0  0  0  0  0  0
   17.7289   -8.2418  -12.8584 C   0  0  0  0  0  0  0  0  0  0  0  0
   16.2559   -8.0095  -13.0109 C   0  0  0  0  0  0  0  0  0  0  0  0
   15.7462   -7.4456  -11.7336 C   0  0  0  0  0  0  0  0  0  0  0  0
   15.0768   -6.3727  -11.6905 O   0  0  0  0  0  0  0  0  0  0  0  0
   19.8483   -8.8555  -14.0189 C   0  0  0  0  0  0  0  0  0  0  0  0
   20.4839   -9.9203  -13.7956 O   0  0  0  0  0  0  0  0  0  0  0  0
   15.9795   -8.0702  -10.5159 O   0  0  0  0  0  0  0  0  0  0  0  0
   28.0176   -9.3336  -16.1972 O   0  0  0  0  0  0  0  0  0  0  0  0
   26.6500   -9.1772  -15.9843 C   0  0  0  0  0  0  0  0  0  0  0  0
   26.0073   -9.9597  -15.0453 C   0  0  0  0  0  0  0  0  0  0  0  0
   24.6538   -9.8032  -14.8364 C   0  0  0  0  0  0  0  0  0  0  0  0
   23.8892   -8.8878  -15.5288 C   0  0  0  0  0  0  0  0  0  0  0  0
   22.4511   -8.7001  -15.3377 C   0  0  0  0  0  0  0  0  0  0  0  0
   22.0837   -7.7399  -14.2412 C   0  0  2  0  0  0  0  0  0  0  0  0
   20.6317   -7.6828  -14.2132 N   0  0  0  0  0  0  0  0  0  0  0  0
   22.6118   -6.3957  -14.4854 C   0  0  0  0  0  0  0  0  0  0  0  0
   23.8035   -5.9719  -13.8714 O   0  0  0  0  0  0  0  0  0  0  0  0
   24.5454   -8.1149  -16.4621 C   0  0  0  0  0  0  0  0  0  0  0  0
   25.9047   -8.2584  -16.6854 C   0  0  0  0  0  0  0  0  0  0  0  0
   21.9847   -5.6185  -15.2541 O   0  0  0  0  0  0  0  0  0  0  0  0
  2  1  1  6
  2  3  1  0
  3  4  1  0
  4  5  1  0
  5  9  1  0
  6  5  2  0
  7  2  1  0
  8  7  2  0
 10  7  1  0
 11 10  1  0
 11 12  1  1
 13 12  1  0
 14 13  1  0
 14 15  2  0
 16 11  1  0
 16 26  1  0
 17 16  2  0
 18 14  1  0
 20 19  1  0
 21 20  2  0
 22 21  1  0
 23 29  1  0
 23 22  2  0
 24 23  1  0
 25 24  1  6
 25 26  1  0
 25 27  1  0
 27 28  1  0
 29 30  2  0
 30 20  1  0
 31 27  2  0
M  END
$$$$
