EEY.pdb
     RDKit          3D

 31 31  0  0  1  0  0  0  0  0999 V2000
   23.5096  -37.0542   -3.8047 N   0  0  0  0  0  0  0  0  0  0  0  0
   24.3239  -36.3509   -2.8909 C   0  0  1  0  0  0  0  0  0  0  0  0
   25.1084  -35.1877   -3.3942 C   0  0  0  0  0  0  0  0  0  0  0  0
   26.0472  -35.4146   -4.5105 C   0  0  0  0  0  0  0  0  0  0  0  0
   26.8065  -34.2242   -4.9082 C   0  0  0  0  0  0  0  0  0  0  0  0
   26.7314  -33.0986   -4.3791 O   0  0  0  0  0  0  0  0  0  0  0  0
   23.5669  -35.8485   -1.6833 C   0  0  0  0  0  0  0  0  0  0  0  0
   22.3733  -35.4686   -1.8006 O   0  0  0  0  0  0  0  0  0  0  0  0
   27.6982  -34.3777   -5.9862 O   0  0  0  0  0  0  0  0  0  0  0  0
   24.1410  -35.7779   -0.3897 N   0  0  0  0  0  0  0  0  0  0  0  0
   23.4074  -35.2282    0.7514 C   0  0  1  0  0  0  0  0  0  0  0  0
   24.1139  -35.4963    2.0437 C   0  0  0  0  0  0  0  0  0  0  0  0
   23.9327  -36.8927    2.5576 C   0  0  0  0  0  0  0  0  0  0  0  0
   24.6717  -37.0078    3.8420 C   0  0  0  0  0  0  0  0  0  0  0  0
   25.3107  -36.0362    4.3410 O   0  0  0  0  0  0  0  0  0  0  0  0
   23.1304  -33.8115    0.4912 C   0  0  0  0  0  0  0  0  0  0  0  0
   23.7427  -33.1547   -0.3927 O   0  0  0  0  0  0  0  0  0  0  0  0
   24.6993  -38.1931    4.5641 O   0  0  0  0  0  0  0  0  0  0  0  0
   18.9056  -26.9361   -2.2945 O   0  0  0  0  0  0  0  0  0  0  0  0
   19.4525  -28.1381   -1.8510 C   0  0  0  0  0  0  0  0  0  0  0  0
   18.6258  -29.1277   -1.3569 C   0  0  0  0  0  0  0  0  0  0  0  0
   19.1693  -30.3163   -0.9186 C   0  0  0  0  0  0  0  0  0  0  0  0
   20.5232  -30.5773   -0.9471 C   0  0  0  0  0  0  0  0  0  0  0  0
   21.1341  -31.8232   -0.4843 C   0  0  0  0  0  0  0  0  0  0  0  0
   21.7619  -31.7457    0.8792 C   0  0  2  0  0  0  0  0  0  0  0  0
   22.1446  -33.1022    1.2341 N   0  0  0  0  0  0  0  0  0  0  0  0
   20.8312  -31.2312    1.8863 C   0  0  0  0  0  0  0  0  0  0  0  0
   20.7286  -29.8498    2.1274 O   0  0  0  0  0  0  0  0  0  0  0  0
   21.3343  -29.5797   -1.4429 C   0  0  0  0  0  0  0  0  0  0  0  0
   20.8059  -28.3791   -1.8876 C   0  0  0  0  0  0  0  0  0  0  0  0
   20.1202  -32.0420    2.5385 O   0  0  0  0  0  0  0  0  0  0  0  0
  2  1  1  6
  2  3  1  0
  3  4  1  0
  4  5  1  0
  5  9  1  0
  6  5  2  0
  7  2  1  0
  8  7  2  0
 10  7  1  0
 11 10  1  0
 11 12  1  1
 13 12  1  0
 14 13  1  0
 14 15  2  0
 16 11  1  0
 16 26  1  0
 17 16  2  0
 18 14  1  0
 20 19  1  0
 21 20  2  0
 22 21  1  0
 23 29  1  0
 23 22  2  0
 24 23  1  0
 25 24  1  6
 25 26  1  0
 25 27  1  0
 27 28  1  0
 29 30  2  0
 30 20  1  0
 31 27  2  0
M  END
$$$$
