EEY.pdb
     RDKit          3D

 31 31  0  0  1  0  0  0  0  0999 V2000
   20.3783  -12.0468  -16.8801 N   0  0  0  0  0  0  0  0  0  0  0  0
   19.5260  -10.9228  -16.8254 C   0  0  1  0  0  0  0  0  0  0  0  0
   18.5719  -10.8148  -15.6853 C   0  0  0  0  0  0  0  0  0  0  0  0
   17.6147  -11.9185  -15.4746 C   0  0  0  0  0  0  0  0  0  0  0  0
   16.4364  -11.8664  -16.3466 C   0  0  0  0  0  0  0  0  0  0  0  0
   16.1451  -10.9401  -17.1275 O   0  0  0  0  0  0  0  0  0  0  0  0
   20.2707   -9.6085  -16.8681 C   0  0  0  0  0  0  0  0  0  0  0  0
   21.3399   -9.4683  -16.2202 O   0  0  0  0  0  0  0  0  0  0  0  0
   15.5615  -12.9675  -16.2888 O   0  0  0  0  0  0  0  0  0  0  0  0
   19.8203   -8.4929  -17.6168 N   0  0  0  0  0  0  0  0  0  0  0  0
   20.5766   -7.2407  -17.6668 C   0  0  1  0  0  0  0  0  0  0  0  0
   20.2708   -6.4594  -18.9066 C   0  0  0  0  0  0  0  0  0  0  0  0
   20.7910   -7.0866  -20.1647 C   0  0  0  0  0  0  0  0  0  0  0  0
   22.1675   -6.5758  -20.3961 C   0  0  0  0  0  0  0  0  0  0  0  0
   23.0382   -7.2463  -21.0233 O   0  0  0  0  0  0  0  0  0  0  0  0
   20.3539   -6.5090  -16.4153 C   0  0  0  0  0  0  0  0  0  0  0  0
   19.2326   -6.4776  -15.8415 O   0  0  0  0  0  0  0  0  0  0  0  0
   22.5708   -5.3304  -19.9338 O   0  0  0  0  0  0  0  0  0  0  0  0
   17.8955   -6.9924   -9.3102 O   0  0  0  0  0  0  0  0  0  0  0  0
   18.8208   -6.7750  -10.3285 C   0  0  0  0  0  0  0  0  0  0  0  0
   19.2008   -7.8211  -11.1459 C   0  0  0  0  0  0  0  0  0  0  0  0
   20.1167   -7.6035  -12.1529 C   0  0  0  0  0  0  0  0  0  0  0  0
   20.6869   -6.3712  -12.3943 C   0  0  0  0  0  0  0  0  0  0  0  0
   21.6660   -6.1064  -13.4485 C   0  0  0  0  0  0  0  0  0  0  0  0
   21.2090   -5.1342  -14.4996 C   0  0  2  0  0  0  0  0  0  0  0  0
   21.4067   -5.7904  -15.7813 N   0  0  0  0  0  0  0  0  0  0  0  0
   21.9817   -3.8902  -14.4736 C   0  0  0  0  0  0  0  0  0  0  0  0
   21.5502   -2.7949  -13.7049 O   0  0  0  0  0  0  0  0  0  0  0  0
   20.2973   -5.3380  -11.5699 C   0  0  0  0  0  0  0  0  0  0  0  0
   19.3784   -5.5381  -10.5531 C   0  0  0  0  0  0  0  0  0  0  0  0
   23.0418   -3.8101  -15.1504 O   0  0  0  0  0  0  0  0  0  0  0  0
  2  1  1  1
  2  3  1  0
  3  4  1  0
  4  5  1  0
  5  9  1  0
  6  5  2  0
  7  2  1  0
  8  7  2  0
 10  7  1  0
 11 10  1  0
 11 12  1  6
 13 12  1  0
 14 13  1  0
 14 15  2  0
 16 11  1  0
 16 26  1  0
 17 16  2  0
 18 14  1  0
 20 19  1  0
 21 20  2  0
 22 21  1  0
 23 29  1  0
 23 22  2  0
 24 23  1  0
 25 24  1  1
 25 26  1  0
 25 27  1  0
 27 28  1  0
 29 30  2  0
 30 20  1  0
 31 27  2  0
M  END
$$$$
