ERE.pdb
     RDKit          3D

 30 29  0  0  1  0  0  0  0  0999 V2000
   12.1562  -16.6549   18.5665 N   0  0  0  0  0  0  0  0  0  0  0  0
   13.1873  -16.5487   19.6014 C   0  0  1  0  0  0  0  0  0  0  0  0
   14.2935  -15.6360   19.1449 C   0  0  0  0  0  0  0  0  0  0  0  0
   13.8822  -14.5615   18.1994 C   0  0  0  0  0  0  0  0  0  0  0  0
   15.0712  -13.7050   17.8289 C   0  0  0  0  0  0  0  0  0  0  0  0
   15.8232  -14.0928   16.8867 O   0  0  0  0  0  0  0  0  0  0  0  0
   12.5633  -16.0613   20.8768 C   0  0  0  0  0  0  0  0  0  0  0  0
   13.2664  -15.8026   21.8761 O   0  0  0  0  0  0  0  0  0  0  0  0
   15.3182  -12.5270   18.5139 O   0  0  0  0  0  0  0  0  0  0  0  0
    8.2840  -12.0559   18.2663 N   0  0  0  0  0  0  0  0  0  0  0  0
    8.0447  -13.4692   18.3049 C   0  0  0  0  0  0  0  0  0  0  0  0
    8.5094  -14.2122   17.3695 N   0  0  0  0  0  0  0  0  0  0  0  0
    7.3045  -14.0460   19.3603 N   0  0  0  0  0  0  0  0  0  0  0  0
    7.4252  -13.6187   20.7315 C   0  0  0  0  0  0  0  0  0  0  0  0
    8.8626  -13.7206   21.2387 C   0  0  0  0  0  0  0  0  0  0  0  0
    9.0276  -15.0336   21.9271 C   0  0  0  0  0  0  0  0  0  0  0  0
   10.4279  -15.4750   22.1267 C   0  0  2  0  0  0  0  0  0  0  0  0
   11.1581  -15.8812   20.9814 N   0  0  0  0  0  0  0  0  0  0  0  0
   10.5672  -16.3569   23.3232 C   0  0  0  0  0  0  0  0  0  0  0  0
   10.1015  -17.5085   23.2280 O   0  0  0  0  0  0  0  0  0  0  0  0
    8.2704  -15.2360   17.3366 N   0  0  0  0  0  0  0  0  0  0  0  0
   11.1852  -15.9469   24.5260 C   0  0  2  0  0  0  0  0  0  0  0  0
   11.1014  -16.5588   25.8007 C   0  0  0  0  0  0  0  0  0  0  0  0
   10.6327  -15.7908   26.9660 C   0  0  0  0  0  0  0  0  0  0  0  0
   10.5689  -16.4578   28.2848 C   0  0  0  0  0  0  0  0  0  0  0  0
   10.2318  -15.5966   29.4261 O   0  0  0  0  0  0  0  0  0  0  0  0
   10.2291  -16.0453   30.5786 C   0  0  0  0  0  0  0  0  0  0  0  0
   10.4995  -17.9518   25.7749 O   0  0  0  0  0  0  0  0  0  0  0  0
    9.3508  -18.2159   25.3827 O   0  0  0  0  0  0  0  0  0  0  0  0
    9.9021  -14.2449   29.2674 O   0  0  0  0  0  0  0  0  0  0  0  0
  2  1  1  6
  2  3  1  0
  3  4  1  0
  4  5  1  0
  5  9  1  0
  5  6  2  0
  7  2  1  0
  7  8  2  0
 10 11  1  0
 11 12  2  0
 13 11  1  0
 13 14  1  0
 14 15  1  0
 17 16  1  6
 16 15  1  0
 17 18  1  0
 18  7  1  0
 19 17  1  0
 20 19  2  0
 21 19  1  0
 22 27  1  0
 22 21  1  0
 23 24  1  0
 22 23  1  1
 24 25  1  0
 25 29  1  0
 25 26  2  0
 27 30  1  0
 28 27  2  0
M  END
$$$$
