ERE.pdb
     RDKit          3D

 30 29  0  0  1  0  0  0  0  0999 V2000
    8.4715  -12.7738   19.3890 N   0  0  0  0  0  0  0  0  0  0  0  0
    8.6731  -14.2235   19.4460 C   0  0  1  0  0  0  0  0  0  0  0  0
    9.9287  -14.6056   18.7094 C   0  0  0  0  0  0  0  0  0  0  0  0
   10.9245  -13.5115   18.5397 C   0  0  0  0  0  0  0  0  0  0  0  0
   12.3215  -14.0287   18.7961 C   0  0  0  0  0  0  0  0  0  0  0  0
   13.1637  -13.9836   17.8515 O   0  0  0  0  0  0  0  0  0  0  0  0
    8.7220  -14.6625   20.8807 C   0  0  0  0  0  0  0  0  0  0  0  0
    9.1818  -13.9106   21.7655 O   0  0  0  0  0  0  0  0  0  0  0  0
   12.6557  -14.5369   20.0402 O   0  0  0  0  0  0  0  0  0  0  0  0
    5.3992  -22.1489   24.7708 N   0  0  0  0  0  0  0  0  0  0  0  0
    5.8407  -21.2939   25.8339 C   0  0  0  0  0  0  0  0  0  0  0  0
    5.6439  -21.6483   27.0500 N   0  0  0  0  0  0  0  0  0  0  0  0
    6.4875  -20.0702   25.5530 N   0  0  0  0  0  0  0  0  0  0  0  0
    6.5392  -19.4922   24.2337 C   0  0  0  0  0  0  0  0  0  0  0  0
    7.4035  -18.2332   24.1935 C   0  0  0  0  0  0  0  0  0  0  0  0
    7.4014  -17.7044   22.7986 C   0  0  0  0  0  0  0  0  0  0  0  0
    8.2132  -16.4842   22.5803 C   0  0  2  0  0  0  0  0  0  0  0  0
    8.2471  -15.9434   21.2703 N   0  0  0  0  0  0  0  0  0  0  0  0
    9.5311  -16.5618   23.2773 C   0  0  0  0  0  0  0  0  0  0  0  0
   10.4477  -17.1565   22.6786 O   0  0  0  0  0  0  0  0  0  0  0  0
    5.9453  -21.0233   27.8404 N   0  0  0  0  0  0  0  0  0  0  0  0
    9.7714  -16.0067   24.5544 C   0  0  2  0  0  0  0  0  0  0  0  0
   10.8847  -16.2234   25.4027 C   0  0  0  0  0  0  0  0  0  0  0  0
   11.0084  -15.4876   26.6719 C   0  0  0  0  0  0  0  0  0  0  0  0
    9.9929  -14.4663   27.0095 C   0  0  0  0  0  0  0  0  0  0  0  0
   10.1738  -13.7794   28.2954 O   0  0  0  0  0  0  0  0  0  0  0  0
    9.5716  -12.7275   28.5412 C   0  0  0  0  0  0  0  0  0  0  0  0
   11.2535  -17.6860   25.5705 O   0  0  0  0  0  0  0  0  0  0  0  0
   12.3678  -18.0941   25.9378 O   0  0  0  0  0  0  0  0  0  0  0  0
   11.0245  -14.2748   29.2913 O   0  0  0  0  0  0  0  0  0  0  0  0
  2  1  1  1
  2  3  1  0
  3  4  1  0
  4  5  1  0
  5  9  1  0
  5  6  2  0
  7  2  1  0
  7  8  2  0
 10 11  1  0
 11 12  2  0
 13 11  1  0
 13 14  1  0
 14 15  1  0
 17 16  1  6
 16 15  1  0
 17 18  1  0
 18  7  1  0
 19 17  1  0
 20 19  2  0
 21 19  1  0
 22 27  1  0
 22 21  1  0
 23 24  1  0
 22 23  1  6
 24 25  1  0
 25 29  1  0
 25 26  2  0
 27 30  1  0
 28 27  2  0
M  END
$$$$
