ERE.pdb
     RDKit          3D

 30 29  0  0  1  0  0  0  0  0999 V2000
    8.1466  -19.4577   18.8639 N   0  0  0  0  0  0  0  0  0  0  0  0
    9.5424  -19.0505   18.6868 C   0  0  1  0  0  0  0  0  0  0  0  0
    9.7764  -18.5884   17.2737 C   0  0  0  0  0  0  0  0  0  0  0  0
    8.7362  -17.6767   16.7222 C   0  0  0  0  0  0  0  0  0  0  0  0
    9.1013  -17.2521   15.3182 C   0  0  0  0  0  0  0  0  0  0  0  0
   10.2136  -17.6288   14.8446 O   0  0  0  0  0  0  0  0  0  0  0  0
    9.8764  -17.9751   19.6795 C   0  0  0  0  0  0  0  0  0  0  0  0
   11.0018  -17.4334   19.6828 O   0  0  0  0  0  0  0  0  0  0  0  0
    8.2285  -16.4695   14.5809 O   0  0  0  0  0  0  0  0  0  0  0  0
    6.4175  -11.7145   18.8199 N   0  0  0  0  0  0  0  0  0  0  0  0
    7.6211  -12.3220   19.3081 C   0  0  0  0  0  0  0  0  0  0  0  0
    8.4482  -11.6206   19.9915 N   0  0  0  0  0  0  0  0  0  0  0  0
    7.9013  -13.6806   19.0429 N   0  0  0  0  0  0  0  0  0  0  0  0
    8.3939  -14.5925   20.0444 C   0  0  0  0  0  0  0  0  0  0  0  0
    7.3229  -14.9437   21.0756 C   0  0  0  0  0  0  0  0  0  0  0  0
    7.9402  -15.8129   22.1191 C   0  0  0  0  0  0  0  0  0  0  0  0
    9.1167  -16.5980   21.6776 C   0  0  2  0  0  0  0  0  0  0  0  0
    8.9228  -17.5449   20.6405 N   0  0  0  0  0  0  0  0  0  0  0  0
    9.9350  -17.0701   22.8335 C   0  0  0  0  0  0  0  0  0  0  0  0
    9.5668  -18.1232   23.3880 O   0  0  0  0  0  0  0  0  0  0  0  0
    9.3093  -12.0647   20.4009 N   0  0  0  0  0  0  0  0  0  0  0  0
   11.0756  -16.3867   23.3118 C   0  0  2  0  0  0  0  0  0  0  0  0
   12.1466  -16.9093   24.0773 C   0  0  0  0  0  0  0  0  0  0  0  0
   13.5263  -16.4565   23.8342 C   0  0  0  0  0  0  0  0  0  0  0  0
   14.6349  -17.1174   24.5570 C   0  0  0  0  0  0  0  0  0  0  0  0
   15.9788  -16.5814   24.3030 O   0  0  0  0  0  0  0  0  0  0  0  0
   16.1365  -15.5736   23.6037 C   0  0  0  0  0  0  0  0  0  0  0  0
   11.8486  -17.0099   25.5621 O   0  0  0  0  0  0  0  0  0  0  0  0
   10.9137  -16.4254   26.1343 O   0  0  0  0  0  0  0  0  0  0  0  0
   17.1304  -17.1766   24.8326 O   0  0  0  0  0  0  0  0  0  0  0  0
  2  1  1  6
  2  3  1  0
  3  4  1  0
  4  5  1  0
  5  9  1  0
  5  6  2  0
  7  2  1  0
  7  8  2  0
 10 11  1  0
 11 12  2  0
 13 11  1  0
 13 14  1  0
 14 15  1  0
 17 16  1  1
 16 15  1  0
 17 18  1  0
 18  7  1  0
 19 17  1  0
 20 19  2  0
 21 19  1  0
 22 27  1  0
 22 21  1  0
 23 24  1  0
 22 23  1  6
 24 25  1  0
 25 29  1  0
 25 26  2  0
 27 30  1  0
 28 27  2  0
M  END
$$$$
