ERE.pdb
     RDKit          3D

 30 29  0  0  1  0  0  0  0  0999 V2000
    9.8799  -21.4406   19.5839 N   0  0  0  0  0  0  0  0  0  0  0  0
    9.3369  -20.8698   20.8188 C   0  0  1  0  0  0  0  0  0  0  0  0
    9.4387  -21.8651   21.9431 C   0  0  0  0  0  0  0  0  0  0  0  0
   10.8169  -22.3363   22.2526 C   0  0  0  0  0  0  0  0  0  0  0  0
   10.9320  -22.6976   23.7158 C   0  0  0  0  0  0  0  0  0  0  0  0
    9.9503  -22.4505   24.4766 O   0  0  0  0  0  0  0  0  0  0  0  0
   10.0670  -19.5986   21.1419 C   0  0  0  0  0  0  0  0  0  0  0  0
   11.3093  -19.5280   21.0340 O   0  0  0  0  0  0  0  0  0  0  0  0
   12.0907  -23.2841   24.1967 O   0  0  0  0  0  0  0  0  0  0  0  0
    8.1944  -11.9476   20.4186 N   0  0  0  0  0  0  0  0  0  0  0  0
    7.9770  -12.8884   19.3586 C   0  0  0  0  0  0  0  0  0  0  0  0
    8.6030  -12.7432   18.2495 N   0  0  0  0  0  0  0  0  0  0  0  0
    7.0826  -13.9686   19.5261 N   0  0  0  0  0  0  0  0  0  0  0  0
    7.0842  -14.8181   20.6904 C   0  0  0  0  0  0  0  0  0  0  0  0
    8.0535  -15.9898   20.5431 C   0  0  0  0  0  0  0  0  0  0  0  0
    8.9640  -15.9997   21.7247 C   0  0  0  0  0  0  0  0  0  0  0  0
    9.8983  -17.1474   21.7973 C   0  0  2  0  0  0  0  0  0  0  0  0
    9.3656  -18.4429   21.5783 N   0  0  0  0  0  0  0  0  0  0  0  0
   10.8384  -17.0263   22.9506 C   0  0  0  0  0  0  0  0  0  0  0  0
   10.4876  -17.5632   24.0187 O   0  0  0  0  0  0  0  0  0  0  0  0
    8.3674  -13.3503   17.4235 N   0  0  0  0  0  0  0  0  0  0  0  0
   12.0732  -16.3426   22.8812 C   0  0  2  0  0  0  0  0  0  0  0  0
   13.1730  -16.4388   23.7686 C   0  0  0  0  0  0  0  0  0  0  0  0
   13.6128  -17.7513   24.2699 C   0  0  0  0  0  0  0  0  0  0  0  0
   12.6685  -18.5682   25.0632 C   0  0  0  0  0  0  0  0  0  0  0  0
   13.1855  -19.8513   25.5575 O   0  0  0  0  0  0  0  0  0  0  0  0
   12.4227  -20.6982   26.0377 C   0  0  0  0  0  0  0  0  0  0  0  0
   14.3540  -15.5687   23.3795 O   0  0  0  0  0  0  0  0  0  0  0  0
   14.4363  -14.9248   22.3204 O   0  0  0  0  0  0  0  0  0  0  0  0
   14.5474  -20.1737   25.5098 O   0  0  0  0  0  0  0  0  0  0  0  0
  2  1  1  6
  2  3  1  0
  3  4  1  0
  4  5  1  0
  5  9  1  0
  5  6  2  0
  7  2  1  0
  7  8  2  0
 10 11  1  0
 11 12  2  0
 13 11  1  0
 13 14  1  0
 14 15  1  0
 17 16  1  1
 16 15  1  0
 17 18  1  0
 18  7  1  0
 19 17  1  0
 20 19  2  0
 21 19  1  0
 22 27  1  0
 22 21  1  0
 23 24  1  0
 22 23  1  1
 24 25  1  0
 25 29  1  0
 25 26  2  0
 27 30  1  0
 28 27  2  0
M  END
$$$$
