ERE.pdb
     RDKit          3D

 30 29  0  0  1  0  0  0  0  0999 V2000
   15.0252  -14.6473   16.3788 N   0  0  0  0  0  0  0  0  0  0  0  0
   14.3899  -15.8611   16.8972 C   0  0  1  0  0  0  0  0  0  0  0  0
   15.4217  -16.9313   17.1316 C   0  0  0  0  0  0  0  0  0  0  0  0
   16.8376  -16.4742   17.0703 C   0  0  0  0  0  0  0  0  0  0  0  0
   17.7757  -17.6453   17.2526 C   0  0  0  0  0  0  0  0  0  0  0  0
   18.7305  -17.7860   16.4328 O   0  0  0  0  0  0  0  0  0  0  0  0
   13.6429  -15.5320   18.1570 C   0  0  0  0  0  0  0  0  0  0  0  0
   14.1540  -14.8032   19.0331 O   0  0  0  0  0  0  0  0  0  0  0  0
   17.5811  -18.5341   18.2967 O   0  0  0  0  0  0  0  0  0  0  0  0
    7.1168  -13.0074   16.9512 N   0  0  0  0  0  0  0  0  0  0  0  0
    7.2796  -13.4036   18.3196 C   0  0  0  0  0  0  0  0  0  0  0  0
    7.1226  -12.5355   19.2495 N   0  0  0  0  0  0  0  0  0  0  0  0
    7.6103  -14.7366   18.6492 N   0  0  0  0  0  0  0  0  0  0  0  0
    7.7596  -15.1976   20.0066 C   0  0  0  0  0  0  0  0  0  0  0  0
    9.2253  -15.2568   20.4333 C   0  0  0  0  0  0  0  0  0  0  0  0
   10.0430  -15.6671   19.2551 C   0  0  0  0  0  0  0  0  0  0  0  0
   11.4994  -15.7833   19.5018 C   0  0  2  0  0  0  0  0  0  0  0  0
   12.3362  -16.0398   18.3865 N   0  0  0  0  0  0  0  0  0  0  0  0
   11.7933  -16.5891   20.7237 C   0  0  0  0  0  0  0  0  0  0  0  0
   11.8460  -17.8256   20.5806 O   0  0  0  0  0  0  0  0  0  0  0  0
    7.2746  -12.8019   20.2556 N   0  0  0  0  0  0  0  0  0  0  0  0
   12.0038  -16.0207   22.0002 C   0  0  2  0  0  0  0  0  0  0  0  0
   12.9310  -16.4254   22.9916 C   0  0  0  0  0  0  0  0  0  0  0  0
   14.3562  -16.0790   22.8640 C   0  0  0  0  0  0  0  0  0  0  0  0
   15.3089  -16.5810   23.8783 C   0  0  0  0  0  0  0  0  0  0  0  0
   16.7199  -16.2329   23.6639 O   0  0  0  0  0  0  0  0  0  0  0  0
   17.0500  -15.0757   23.3784 C   0  0  0  0  0  0  0  0  0  0  0  0
   12.4363  -16.2274   24.4126 O   0  0  0  0  0  0  0  0  0  0  0  0
   11.3999  -15.6149   24.7191 O   0  0  0  0  0  0  0  0  0  0  0  0
   17.7453  -17.1805   23.7710 O   0  0  0  0  0  0  0  0  0  0  0  0
  2  1  1  1
  2  3  1  0
  3  4  1  0
  4  5  1  0
  5  9  1  0
  5  6  2  0
  7  2  1  0
  7  8  2  0
 10 11  1  0
 11 12  2  0
 13 11  1  0
 13 14  1  0
 14 15  1  0
 17 16  1  6
 16 15  1  0
 17 18  1  0
 18  7  1  0
 19 17  1  0
 20 19  2  0
 21 19  1  0
 22 27  1  0
 22 21  1  0
 23 24  1  0
 22 23  1  6
 24 25  1  0
 25 29  1  0
 25 26  2  0
 27 30  1  0
 28 27  2  0
M  END
$$$$
