ERE.pdb
     RDKit          3D

 30 29  0  0  1  0  0  0  0  0999 V2000
   12.0387  -17.5128   19.5260 N   0  0  0  0  0  0  0  0  0  0  0  0
   12.9897  -16.9624   20.4946 C   0  0  1  0  0  0  0  0  0  0  0  0
   13.8117  -15.8738   19.8588 C   0  0  0  0  0  0  0  0  0  0  0  0
   13.5651  -15.6565   18.4064 C   0  0  0  0  0  0  0  0  0  0  0  0
   14.5167  -14.6157   17.8624 C   0  0  0  0  0  0  0  0  0  0  0  0
   14.5311  -13.4708   18.4033 O   0  0  0  0  0  0  0  0  0  0  0  0
   12.2415  -16.4572   21.6940 C   0  0  0  0  0  0  0  0  0  0  0  0
   12.8391  -15.8750   22.6234 O   0  0  0  0  0  0  0  0  0  0  0  0
   15.3461  -14.9233   16.7969 O   0  0  0  0  0  0  0  0  0  0  0  0
    8.0626  -13.9098   18.4258 N   0  0  0  0  0  0  0  0  0  0  0  0
    7.8653  -12.7285   19.2143 C   0  0  0  0  0  0  0  0  0  0  0  0
    8.2000  -11.5880   18.7344 N   0  0  0  0  0  0  0  0  0  0  0  0
    7.3079  -12.8115   20.5093 N   0  0  0  0  0  0  0  0  0  0  0  0
    7.3395  -14.0134   21.3040 C   0  0  0  0  0  0  0  0  0  0  0  0
    8.7626  -14.3964   21.7068 C   0  0  0  0  0  0  0  0  0  0  0  0
    8.6984  -15.6193   22.5586 C   0  0  0  0  0  0  0  0  0  0  0  0
   10.0057  -16.2358   22.8849 C   0  0  2  0  0  0  0  0  0  0  0  0
   10.8354  -16.6271   21.8040 N   0  0  0  0  0  0  0  0  0  0  0  0
    9.8913  -17.2247   23.9974 C   0  0  0  0  0  0  0  0  0  0  0  0
    8.9270  -18.0121   23.9506 O   0  0  0  0  0  0  0  0  0  0  0  0
    8.0725  -10.7138   19.3053 N   0  0  0  0  0  0  0  0  0  0  0  0
   10.8055  -17.2976   25.0725 C   0  0  1  0  0  0  0  0  0  0  0  0
   10.8526  -18.2588   26.1118 C   0  0  0  0  0  0  0  0  0  0  0  0
   11.9772  -19.2048   26.2009 C   0  0  0  0  0  0  0  0  0  0  0  0
   13.3161  -18.6934   26.5667 C   0  0  0  0  0  0  0  0  0  0  0  0
   14.4599  -19.4309   26.0137 O   0  0  0  0  0  0  0  0  0  0  0  0
   14.2864  -20.3873   25.2490 C   0  0  0  0  0  0  0  0  0  0  0  0
   10.4818  -17.7068   27.4761 O   0  0  0  0  0  0  0  0  0  0  0  0
   10.2664  -16.5072   27.7161 O   0  0  0  0  0  0  0  0  0  0  0  0
   15.7835  -19.0919   26.3207 O   0  0  0  0  0  0  0  0  0  0  0  0
  2  1  1  6
  2  3  1  0
  3  4  1  0
  4  5  1  0
  5  9  1  0
  5  6  2  0
  7  2  1  0
  7  8  2  0
 10 11  1  0
 11 12  2  0
 13 11  1  0
 13 14  1  0
 14 15  1  0
 17 16  1  6
 16 15  1  0
 17 18  1  0
 18  7  1  0
 19 17  1  0
 20 19  2  0
 21 19  1  0
 22 27  1  0
 22 21  1  0
 23 24  1  0
 22 23  1  6
 24 25  1  0
 25 29  1  0
 25 26  2  0
 27 30  1  0
 28 27  2  0
M  END
$$$$
