ERE.pdb
     RDKit          3D

 30 29  0  0  1  0  0  0  0  0999 V2000
   14.8016  -14.5988   16.2540 N   0  0  0  0  0  0  0  0  0  0  0  0
   13.4714  -15.1067   16.5976 C   0  0  1  0  0  0  0  0  0  0  0  0
   13.3992  -16.5899   16.3529 C   0  0  0  0  0  0  0  0  0  0  0  0
   14.6166  -17.3576   16.7350 C   0  0  0  0  0  0  0  0  0  0  0  0
   14.4255  -18.8271   16.4371 C   0  0  0  0  0  0  0  0  0  0  0  0
   13.6303  -19.1553   15.5078 O   0  0  0  0  0  0  0  0  0  0  0  0
   13.1649  -14.7699   18.0281 C   0  0  0  0  0  0  0  0  0  0  0  0
   14.0675  -14.7588   18.8912 O   0  0  0  0  0  0  0  0  0  0  0  0
   15.1114  -19.7791   17.1727 O   0  0  0  0  0  0  0  0  0  0  0  0
    8.2292  -15.7283   15.9731 N   0  0  0  0  0  0  0  0  0  0  0  0
    7.8000  -14.3602   15.9602 C   0  0  0  0  0  0  0  0  0  0  0  0
    7.6907  -13.7450   14.8410 N   0  0  0  0  0  0  0  0  0  0  0  0
    7.4983  -13.6884   17.1654 N   0  0  0  0  0  0  0  0  0  0  0  0
    8.0980  -14.0332   18.4298 C   0  0  0  0  0  0  0  0  0  0  0  0
    9.3567  -13.2138   18.7090 C   0  0  0  0  0  0  0  0  0  0  0  0
   10.0022  -13.7472   19.9437 C   0  0  0  0  0  0  0  0  0  0  0  0
   11.3731  -14.2800   19.7646 C   0  0  2  0  0  0  0  0  0  0  0  0
   11.8418  -14.4548   18.4381 N   0  0  0  0  0  0  0  0  0  0  0  0
   11.6571  -15.4084   20.6999 C   0  0  0  0  0  0  0  0  0  0  0  0
   11.1295  -16.5048   20.4322 O   0  0  0  0  0  0  0  0  0  0  0  0
    7.4968  -12.7115   14.8201 N   0  0  0  0  0  0  0  0  0  0  0  0
   12.4740  -15.2839   21.8462 C   0  0  1  0  0  0  0  0  0  0  0  0
   13.1070  -16.3163   22.5808 C   0  0  0  0  0  0  0  0  0  0  0  0
   14.5685  -16.4834   22.5225 C   0  0  0  0  0  0  0  0  0  0  0  0
   15.4293  -15.5129   23.2335 C   0  0  0  0  0  0  0  0  0  0  0  0
   16.8528  -15.5289   22.8711 O   0  0  0  0  0  0  0  0  0  0  0  0
   17.6422  -14.7184   23.3708 C   0  0  0  0  0  0  0  0  0  0  0  0
   12.5865  -16.4696   23.9982 O   0  0  0  0  0  0  0  0  0  0  0  0
   11.7980  -15.6829   24.5482 O   0  0  0  0  0  0  0  0  0  0  0  0
   17.3780  -16.4491   21.9556 O   0  0  0  0  0  0  0  0  0  0  0  0
  2  1  1  1
  2  3  1  0
  3  4  1  0
  4  5  1  0
  5  9  1  0
  5  6  2  0
  7  2  1  0
  7  8  2  0
 10 11  1  0
 11 12  2  0
 13 11  1  0
 13 14  1  0
 14 15  1  0
 17 16  1  6
 16 15  1  0
 17 18  1  0
 18  7  1  0
 19 17  1  0
 20 19  2  0
 21 19  1  0
 22 27  1  0
 22 21  1  0
 23 24  1  0
 22 23  1  6
 24 25  1  0
 25 29  1  0
 25 26  2  0
 27 30  1  0
 28 27  2  0
M  END
$$$$
