ERE.pdb
     RDKit          3D

 30 29  0  0  1  0  0  0  0  0999 V2000
   12.0408  -16.4347   18.0652 N   0  0  0  0  0  0  0  0  0  0  0  0
   13.0196  -16.4970   19.1531 C   0  0  1  0  0  0  0  0  0  0  0  0
   14.2311  -15.6711   18.8137 C   0  0  0  0  0  0  0  0  0  0  0  0
   13.9444  -14.3093   18.2838 C   0  0  0  0  0  0  0  0  0  0  0  0
   15.2162  -13.6609   17.7871 C   0  0  0  0  0  0  0  0  0  0  0  0
   16.2623  -14.3699   17.7058 O   0  0  0  0  0  0  0  0  0  0  0  0
   12.3766  -16.0323   20.4276 C   0  0  0  0  0  0  0  0  0  0  0  0
   13.0653  -15.5684   21.3605 O   0  0  0  0  0  0  0  0  0  0  0  0
   15.2201  -12.3219   17.4336 O   0  0  0  0  0  0  0  0  0  0  0  0
    7.6052  -13.7920   16.6869 N   0  0  0  0  0  0  0  0  0  0  0  0
    7.7709  -13.2586   18.0075 C   0  0  0  0  0  0  0  0  0  0  0  0
    8.5462  -12.2539   18.1882 N   0  0  0  0  0  0  0  0  0  0  0  0
    7.0898  -13.8288   19.1056 N   0  0  0  0  0  0  0  0  0  0  0  0
    7.4033  -13.5126   20.4763 C   0  0  0  0  0  0  0  0  0  0  0  0
    8.8543  -13.8421   20.8226 C   0  0  0  0  0  0  0  0  0  0  0  0
    8.8821  -15.1484   21.5424 C   0  0  0  0  0  0  0  0  0  0  0  0
   10.2290  -15.7285   21.7547 C   0  0  2  0  0  0  0  0  0  0  0  0
   10.9694  -16.1072   20.6066 N   0  0  0  0  0  0  0  0  0  0  0  0
   10.2399  -16.7109   22.8787 C   0  0  0  0  0  0  0  0  0  0  0  0
    9.6182  -17.7754   22.6989 O   0  0  0  0  0  0  0  0  0  0  0  0
    8.7328  -11.8952   19.1591 N   0  0  0  0  0  0  0  0  0  0  0  0
   10.9051  -16.4851   24.1048 C   0  0  2  0  0  0  0  0  0  0  0  0
   11.0423  -17.3753   25.1980 C   0  0  0  0  0  0  0  0  0  0  0  0
   12.3387  -18.0128   25.4812 C   0  0  0  0  0  0  0  0  0  0  0  0
   13.5662  -17.4309   24.8955 C   0  0  0  0  0  0  0  0  0  0  0  0
   14.8146  -18.1567   25.1651 O   0  0  0  0  0  0  0  0  0  0  0  0
   15.8388  -17.5509   25.5020 C   0  0  0  0  0  0  0  0  0  0  0  0
   10.3707  -16.8930   26.4707 O   0  0  0  0  0  0  0  0  0  0  0  0
    9.8308  -15.7824   26.6053 O   0  0  0  0  0  0  0  0  0  0  0  0
   14.9047  -19.5498   25.0554 O   0  0  0  0  0  0  0  0  0  0  0  0
  2  1  1  6
  2  3  1  0
  3  4  1  0
  4  5  1  0
  5  9  1  0
  5  6  2  0
  7  2  1  0
  7  8  2  0
 10 11  1  0
 11 12  2  0
 13 11  1  0
 13 14  1  0
 14 15  1  0
 17 16  1  6
 16 15  1  0
 17 18  1  0
 18  7  1  0
 19 17  1  0
 20 19  2  0
 21 19  1  0
 22 27  1  0
 22 21  1  0
 23 24  1  0
 22 23  1  6
 24 25  1  0
 25 29  1  0
 25 26  2  0
 27 30  1  0
 28 27  2  0
M  END
$$$$
