ERE.pdb
     RDKit          3D

 30 29  0  0  1  0  0  0  0  0999 V2000
   14.1509  -17.9847   16.6641 N   0  0  0  0  0  0  0  0  0  0  0  0
   13.3716  -18.6392   17.7176 C   0  0  1  0  0  0  0  0  0  0  0  0
   13.9579  -19.9873   18.0399 C   0  0  0  0  0  0  0  0  0  0  0  0
   15.3645  -19.9689   18.5284 C   0  0  0  0  0  0  0  0  0  0  0  0
   15.8428  -21.3760   18.8042 C   0  0  0  0  0  0  0  0  0  0  0  0
   17.0172  -21.6932   18.4525 O   0  0  0  0  0  0  0  0  0  0  0  0
   13.3308  -17.7534   18.9289 C   0  0  0  0  0  0  0  0  0  0  0  0
   14.3576  -17.1638   19.3264 O   0  0  0  0  0  0  0  0  0  0  0  0
   15.0036  -22.2844   19.4275 O   0  0  0  0  0  0  0  0  0  0  0  0
    6.3454  -12.5944   18.6063 N   0  0  0  0  0  0  0  0  0  0  0  0
    7.0806  -13.2628   19.6400 C   0  0  0  0  0  0  0  0  0  0  0  0
    7.1451  -12.7373   20.8074 N   0  0  0  0  0  0  0  0  0  0  0  0
    7.7313  -14.4898   19.3833 N   0  0  0  0  0  0  0  0  0  0  0  0
    8.4456  -15.2283   20.3940 C   0  0  0  0  0  0  0  0  0  0  0  0
    9.8913  -15.5061   19.9859 C   0  0  0  0  0  0  0  0  0  0  0  0
   10.5490  -16.2804   21.0783 C   0  0  0  0  0  0  0  0  0  0  0  0
   11.9289  -16.7374   20.7914 C   0  0  2  0  0  0  0  0  0  0  0  0
   12.1248  -17.5620   19.6549 N   0  0  0  0  0  0  0  0  0  0  0  0
   12.6389  -17.1724   22.0304 C   0  0  0  0  0  0  0  0  0  0  0  0
   12.3615  -18.3059   22.4669 O   0  0  0  0  0  0  0  0  0  0  0  0
    7.6304  -13.2435   21.5913 N   0  0  0  0  0  0  0  0  0  0  0  0
   13.5830  -16.3703   22.7102 C   0  0  2  0  0  0  0  0  0  0  0  0
   14.3150  -16.6891   23.8801 C   0  0  0  0  0  0  0  0  0  0  0  0
   15.6934  -16.2013   24.0523 C   0  0  0  0  0  0  0  0  0  0  0  0
   16.6087  -16.2157   22.8903 C   0  0  0  0  0  0  0  0  0  0  0  0
   17.9105  -15.5644   23.0883 O   0  0  0  0  0  0  0  0  0  0  0  0
   18.6564  -15.3362   22.1285 C   0  0  0  0  0  0  0  0  0  0  0  0
   13.5138  -16.5537   25.1619 O   0  0  0  0  0  0  0  0  0  0  0  0
   13.9374  -16.8476   26.2921 O   0  0  0  0  0  0  0  0  0  0  0  0
   18.3639  -15.1758   24.3549 O   0  0  0  0  0  0  0  0  0  0  0  0
  2  1  1  6
  2  3  1  0
  3  4  1  0
  4  5  1  0
  5  9  1  0
  5  6  2  0
  7  2  1  0
  7  8  2  0
 10 11  1  0
 11 12  2  0
 13 11  1  0
 13 14  1  0
 14 15  1  0
 17 16  1  1
 16 15  1  0
 17 18  1  0
 18  7  1  0
 19 17  1  0
 20 19  2  0
 21 19  1  0
 22 27  1  0
 22 21  1  0
 23 24  1  0
 22 23  1  6
 24 25  1  0
 25 29  1  0
 25 26  2  0
 27 30  1  0
 28 27  2  0
M  END
$$$$
