GWW.pdb
     RDKit          3D

 33 36  0  0  1  0  0  0  0  0999 V2000
   14.2281  -22.2657   -1.9205 N   0  0  0  0  0  0  0  0  0  0  0  0
   15.4142  -22.3124   -1.1242 C   0  0  0  0  0  0  0  0  0  0  0  0
   15.1983  -21.8134    0.2590 C   0  0  0  0  0  0  0  0  0  0  0  0
   14.0367  -21.6275    0.7024 O   0  0  0  0  0  0  0  0  0  0  0  0
   16.2743  -21.5235    1.1422 N   0  0  0  0  0  0  0  0  0  0  0  0
   16.1077  -21.1349    2.5172 C   0  0  1  0  0  0  0  0  0  0  0  0
   16.6068  -22.1167    3.5294 C   0  0  0  0  0  0  0  0  0  0  0  0
   15.8068  -23.3214    3.7066 C   0  0  0  0  0  0  0  0  0  0  0  0
   15.4082  -24.1694    2.6907 C   0  0  0  0  0  0  0  0  0  0  0  0
   14.7026  -25.2003    3.2176 N   0  0  0  0  0  0  0  0  0  0  0  0
   14.6547  -25.0042    4.5629 C   0  0  0  0  0  0  0  0  0  0  0  0
   14.0626  -25.7451    5.5622 C   0  0  0  0  0  0  0  0  0  0  0  0
   14.1341  -25.3484    6.8871 C   0  0  0  0  0  0  0  0  0  0  0  0
   14.8087  -24.1895    7.2262 C   0  0  0  0  0  0  0  0  0  0  0  0
   15.3887  -23.4724    6.2071 C   0  0  0  0  0  0  0  0  0  0  0  0
   15.3335  -23.8439    4.8854 C   0  0  0  0  0  0  0  0  0  0  0  0
   16.9059  -19.8686    2.7034 C   0  0  0  0  0  0  0  0  0  0  0  0
   18.0325  -19.8748    2.1765 O   0  0  0  0  0  0  0  0  0  0  0  0
   16.4406  -18.7515    3.4127 N   0  0  0  0  0  0  0  0  0  0  0  0
   17.1954  -17.5449    3.6212 C   0  0  1  0  0  0  0  0  0  0  0  0
   16.4629  -16.2698    3.2205 C   0  0  0  0  0  0  0  0  0  0  0  0
   17.4546  -15.1754    3.1398 C   0  0  0  0  0  0  0  0  0  0  0  0
   18.3025  -14.8046    2.1214 C   0  0  0  0  0  0  0  0  0  0  0  0
   19.0207  -13.7392    2.5103 N   0  0  0  0  0  0  0  0  0  0  0  0
   18.6718  -13.3947    3.7566 C   0  0  0  0  0  0  0  0  0  0  0  0
   19.1137  -12.3780    4.5924 C   0  0  0  0  0  0  0  0  0  0  0  0
   18.6014  -12.2086    5.8567 C   0  0  0  0  0  0  0  0  0  0  0  0
   17.6258  -13.0738    6.2963 C   0  0  0  0  0  0  0  0  0  0  0  0
   17.1812  -14.0981    5.4532 C   0  0  0  0  0  0  0  0  0  0  0  0
   17.6949  -14.2683    4.1858 C   0  0  0  0  0  0  0  0  0  0  0  0
   17.6630  -17.4102    5.0020 C   0  0  0  0  0  0  0  0  0  0  0  0
   16.8322  -17.4269    5.9594 O   0  0  0  0  0  0  0  0  0  0  0  0
   18.9930  -17.2604    5.3588 O   0  0  0  0  0  0  0  0  0  0  0  0
  1  2  1  0
  2  3  1  0
  3  4  2  0
  5  3  1  0
  5  6  1  0
  6  7  1  1
  8  9  2  0
  8  7  1  0
 10  9  1  0
 11 16  2  0
 11 10  1  0
 12 11  1  0
 13 14  1  0
 13 12  2  0
 14 15  2  0
 15 16  1  0
 16  8  1  0
 17 18  2  0
 17  6  1  0
 19 17  1  0
 20 19  1  0
 20 21  1  1
 22 30  1  0
 22 21  1  0
 23 22  2  0
 24 23  1  0
 24 25  1  0
 25 26  1  0
 25 30  2  0
 26 27  2  0
 27 28  1  0
 29 28  2  0
 30 29  1  0
 31 20  1  0
 32 31  2  0
 33 31  1  0
M  END
$$$$
