GWW.pdb
     RDKit          3D

 33 36  0  0  1  0  0  0  0  0999 V2000
   31.6800  -21.6464  -10.0212 N   0  0  0  0  0  0  0  0  0  0  0  0
   30.6511  -20.6709  -10.2027 C   0  0  0  0  0  0  0  0  0  0  0  0
   29.2971  -21.1984   -9.8902 C   0  0  0  0  0  0  0  0  0  0  0  0
   29.1131  -22.4273   -9.6995 O   0  0  0  0  0  0  0  0  0  0  0  0
   28.1548  -20.3574   -9.7914 N   0  0  0  0  0  0  0  0  0  0  0  0
   26.8429  -20.8180   -9.4223 C   0  0  1  0  0  0  0  0  0  0  0  0
   26.2345  -20.1449   -8.2330 C   0  0  0  0  0  0  0  0  0  0  0  0
   27.1666  -19.6176   -7.2451 C   0  0  0  0  0  0  0  0  0  0  0  0
   27.6733  -18.3319   -7.2350 C   0  0  0  0  0  0  0  0  0  0  0  0
   28.4871  -18.1787   -6.1613 N   0  0  0  0  0  0  0  0  0  0  0  0
   28.4953  -19.3646   -5.4950 C   0  0  0  0  0  0  0  0  0  0  0  0
   29.1568  -19.7519   -4.3501 C   0  0  0  0  0  0  0  0  0  0  0  0
   29.0234  -21.0339   -3.8439 C   0  0  0  0  0  0  0  0  0  0  0  0
   28.2148  -21.9515   -4.4899 C   0  0  0  0  0  0  0  0  0  0  0  0
   27.5683  -21.5352   -5.6291 C   0  0  0  0  0  0  0  0  0  0  0  0
   27.6825  -20.2697   -6.1519 C   0  0  0  0  0  0  0  0  0  0  0  0
   25.9424  -20.5303  -10.5977 C   0  0  0  0  0  0  0  0  0  0  0  0
   25.8094  -19.3253  -10.8759 O   0  0  0  0  0  0  0  0  0  0  0  0
   25.2892  -21.5248  -11.3406 N   0  0  0  0  0  0  0  0  0  0  0  0
   24.4894  -21.2768  -12.5102 C   0  0  1  0  0  0  0  0  0  0  0  0
   24.5173  -22.4009  -13.5390 C   0  0  0  0  0  0  0  0  0  0  0  0
   23.7998  -21.9374  -14.7466 C   0  0  0  0  0  0  0  0  0  0  0  0
   24.1972  -21.0958  -15.7601 C   0  0  0  0  0  0  0  0  0  0  0  0
   23.1990  -20.9726  -16.6491 N   0  0  0  0  0  0  0  0  0  0  0  0
   22.1529  -21.7090  -16.2527 C   0  0  0  0  0  0  0  0  0  0  0  0
   20.9013  -21.9157  -16.8168 C   0  0  0  0  0  0  0  0  0  0  0  0
   19.9675  -22.7316  -16.2236 C   0  0  0  0  0  0  0  0  0  0  0  0
   20.2909  -23.3553  -15.0404 C   0  0  0  0  0  0  0  0  0  0  0  0
   21.5526  -23.1464  -14.4726 C   0  0  0  0  0  0  0  0  0  0  0  0
   22.4887  -22.3282  -15.0671 C   0  0  0  0  0  0  0  0  0  0  0  0
   23.0966  -20.9699  -12.1794 C   0  0  0  0  0  0  0  0  0  0  0  0
   22.4786  -20.0601  -12.8098 O   0  0  0  0  0  0  0  0  0  0  0  0
   22.3726  -21.6206  -11.1939 O   0  0  0  0  0  0  0  0  0  0  0  0
  1  2  1  0
  2  3  1  0
  3  4  2  0
  5  3  1  0
  5  6  1  0
  6  7  1  1
  8  9  2  0
  8  7  1  0
 10  9  1  0
 11 16  2  0
 11 10  1  0
 12 11  1  0
 13 14  1  0
 13 12  2  0
 14 15  2  0
 15 16  1  0
 16  8  1  0
 17 18  2  0
 17  6  1  0
 19 17  1  0
 20 19  1  0
 20 21  1  6
 22 30  1  0
 22 21  1  0
 23 22  2  0
 24 23  1  0
 24 25  1  0
 25 26  1  0
 25 30  2  0
 26 27  2  0
 27 28  1  0
 29 28  2  0
 30 29  1  0
 31 20  1  0
 32 31  2  0
 33 31  1  0
M  END
$$$$
