GWW.pdb
     RDKit          3D

 33 36  0  0  1  0  0  0  0  0999 V2000
   30.2422  -19.7649  -13.1740 N   0  0  0  0  0  0  0  0  0  0  0  0
   29.4079  -19.4409  -12.0595 C   0  0  0  0  0  0  0  0  0  0  0  0
   28.3443  -20.4522  -11.8243 C   0  0  0  0  0  0  0  0  0  0  0  0
   28.3272  -21.5307  -12.4700 O   0  0  0  0  0  0  0  0  0  0  0  0
   27.3053  -20.2595  -10.8728 N   0  0  0  0  0  0  0  0  0  0  0  0
   26.3000  -21.2413  -10.5655 C   0  0  1  0  0  0  0  0  0  0  0  0
   26.0745  -21.4990   -9.1094 C   0  0  0  0  0  0  0  0  0  0  0  0
   26.5138  -20.4530   -8.1951 C   0  0  0  0  0  0  0  0  0  0  0  0
   26.0905  -19.1378   -8.2273 C   0  0  0  0  0  0  0  0  0  0  0  0
   26.6803  -18.4517   -7.2174 N   0  0  0  0  0  0  0  0  0  0  0  0
   27.4748  -19.3307   -6.5491 C   0  0  0  0  0  0  0  0  0  0  0  0
   28.2934  -19.1553   -5.4549 C   0  0  0  0  0  0  0  0  0  0  0  0
   29.0307  -20.2061   -4.9354 C   0  0  0  0  0  0  0  0  0  0  0  0
   28.9528  -21.4589   -5.5163 C   0  0  0  0  0  0  0  0  0  0  0  0
   28.1277  -21.6021   -6.6061 C   0  0  0  0  0  0  0  0  0  0  0  0
   27.3851  -20.5770   -7.1407 C   0  0  0  0  0  0  0  0  0  0  0  0
   25.0020  -20.7134  -11.1238 C   0  0  0  0  0  0  0  0  0  0  0  0
   24.7809  -19.5112  -10.8941 O   0  0  0  0  0  0  0  0  0  0  0  0
   24.0914  -21.4946  -11.8506 N   0  0  0  0  0  0  0  0  0  0  0  0
   22.9778  -20.9697  -12.5946 C   0  0  1  0  0  0  0  0  0  0  0  0
   23.0729  -21.1836  -14.1006 C   0  0  0  0  0  0  0  0  0  0  0  0
   23.5351  -22.5681  -14.3404 C   0  0  0  0  0  0  0  0  0  0  0  0
   22.9086  -23.7742  -14.1256 C   0  0  0  0  0  0  0  0  0  0  0  0
   23.7263  -24.7700  -14.5022 N   0  0  0  0  0  0  0  0  0  0  0  0
   24.8755  -24.2569  -14.9602 C   0  0  0  0  0  0  0  0  0  0  0  0
   26.0220  -24.8589  -15.4606 C   0  0  0  0  0  0  0  0  0  0  0  0
   27.1007  -24.1190  -15.8831 C   0  0  0  0  0  0  0  0  0  0  0  0
   27.0329  -22.7468  -15.8041 C   0  0  0  0  0  0  0  0  0  0  0  0
   25.8770  -22.1410  -15.2996 C   0  0  0  0  0  0  0  0  0  0  0  0
   24.7956  -22.8827  -14.8758 C   0  0  0  0  0  0  0  0  0  0  0  0
   21.6943  -21.4908  -12.1208 C   0  0  0  0  0  0  0  0  0  0  0  0
   21.6612  -22.5028  -11.3580 O   0  0  0  0  0  0  0  0  0  0  0  0
   20.4657  -20.9442  -12.4530 O   0  0  0  0  0  0  0  0  0  0  0  0
  1  2  1  0
  2  3  1  0
  3  4  2  0
  5  3  1  0
  5  6  1  0
  6  7  1  1
  8  9  2  0
  8  7  1  0
 10  9  1  0
 11 16  2  0
 11 10  1  0
 12 11  1  0
 13 14  1  0
 13 12  2  0
 14 15  2  0
 15 16  1  0
 16  8  1  0
 17 18  2  0
 17  6  1  0
 19 17  1  0
 20 19  1  0
 20 21  1  6
 22 30  1  0
 22 21  1  0
 23 22  2  0
 24 23  1  0
 24 25  1  0
 25 26  1  0
 25 30  2  0
 26 27  2  0
 27 28  1  0
 29 28  2  0
 30 29  1  0
 31 20  1  0
 32 31  2  0
 33 31  1  0
M  END
$$$$
