GWW.pdb
     RDKit          3D

 33 36  0  0  1  0  0  0  0  0999 V2000
   30.2905  -23.2753  -16.7377 N   0  0  0  0  0  0  0  0  0  0  0  0
   28.9128  -23.0165  -17.0175 C   0  0  0  0  0  0  0  0  0  0  0  0
   28.3048  -22.0491  -16.0668 C   0  0  0  0  0  0  0  0  0  0  0  0
   29.0267  -21.3283  -15.3320 O   0  0  0  0  0  0  0  0  0  0  0  0
   26.8980  -21.8879  -15.9377 N   0  0  0  0  0  0  0  0  0  0  0  0
   26.2718  -20.8190  -15.2066 C   0  0  1  0  0  0  0  0  0  0  0  0
   25.4047  -19.9068  -16.0150 C   0  0  0  0  0  0  0  0  0  0  0  0
   26.0897  -18.8517  -16.7502 C   0  0  0  0  0  0  0  0  0  0  0  0
   26.3963  -18.8896  -18.0972 C   0  0  0  0  0  0  0  0  0  0  0  0
   27.0072  -17.7321  -18.4511 N   0  0  0  0  0  0  0  0  0  0  0  0
   27.0871  -16.9648  -17.3307 C   0  0  0  0  0  0  0  0  0  0  0  0
   27.6171  -15.7085  -17.1332 C   0  0  0  0  0  0  0  0  0  0  0  0
   27.5968  -15.1099  -15.8847 C   0  0  0  0  0  0  0  0  0  0  0  0
   27.0376  -15.7747  -14.8084 C   0  0  0  0  0  0  0  0  0  0  0  0
   26.5173  -17.0261  -15.0372 C   0  0  0  0  0  0  0  0  0  0  0  0
   26.5237  -17.6422  -16.2653 C   0  0  0  0  0  0  0  0  0  0  0  0
   25.3834  -21.4693  -14.1756 C   0  0  0  0  0  0  0  0  0  0  0  0
   24.5764  -22.3016  -14.6264 O   0  0  0  0  0  0  0  0  0  0  0  0
   25.4383  -21.1781  -12.8046 N   0  0  0  0  0  0  0  0  0  0  0  0
   24.5564  -21.7375  -11.8154 C   0  0  1  0  0  0  0  0  0  0  0  0
   25.2579  -22.2229  -10.5525 C   0  0  0  0  0  0  0  0  0  0  0  0
   26.0608  -21.1039  -10.0131 C   0  0  0  0  0  0  0  0  0  0  0  0
   25.6886  -20.0083   -9.2684 C   0  0  0  0  0  0  0  0  0  0  0  0
   26.7737  -19.2625   -9.0070 N   0  0  0  0  0  0  0  0  0  0  0  0
   27.8530  -19.8338   -9.5571 C   0  0  0  0  0  0  0  0  0  0  0  0
   29.1903  -19.4614   -9.5702 C   0  0  0  0  0  0  0  0  0  0  0  0
   30.1442  -20.2174  -10.2090 C   0  0  0  0  0  0  0  0  0  0  0  0
   29.7539  -21.3713  -10.8491 C   0  0  0  0  0  0  0  0  0  0  0  0
   28.4058  -21.7456  -10.8354 C   0  0  0  0  0  0  0  0  0  0  0  0
   27.4493  -20.9877  -10.1953 C   0  0  0  0  0  0  0  0  0  0  0  0
   23.4834  -20.8155  -11.4385 C   0  0  0  0  0  0  0  0  0  0  0  0
   22.4751  -21.2405  -10.7985 O   0  0  0  0  0  0  0  0  0  0  0  0
   23.4831  -19.4630  -11.7375 O   0  0  0  0  0  0  0  0  0  0  0  0
  1  2  1  0
  2  3  1  0
  3  4  2  0
  5  3  1  0
  5  6  1  0
  6  7  1  6
  8  9  2  0
  8  7  1  0
 10  9  1  0
 11 16  2  0
 11 10  1  0
 12 11  1  0
 13 14  1  0
 13 12  2  0
 14 15  2  0
 15 16  1  0
 16  8  1  0
 17 18  2  0
 17  6  1  0
 19 17  1  0
 20 19  1  0
 20 21  1  1
 22 30  1  0
 22 21  1  0
 23 22  2  0
 24 23  1  0
 24 25  1  0
 25 26  1  0
 25 30  2  0
 26 27  2  0
 27 28  1  0
 29 28  2  0
 30 29  1  0
 31 20  1  0
 32 31  2  0
 33 31  1  0
M  END
$$$$
