GWW.pdb
     RDKit          3D

 33 36  0  0  1  0  0  0  0  0999 V2000
   26.0224  -23.6828  -16.4286 N   0  0  0  0  0  0  0  0  0  0  0  0
   25.3252  -22.7607  -15.5881 C   0  0  0  0  0  0  0  0  0  0  0  0
   25.9691  -22.5941  -14.2588 C   0  0  0  0  0  0  0  0  0  0  0  0
   26.8367  -23.4103  -13.8570 O   0  0  0  0  0  0  0  0  0  0  0  0
   25.6454  -21.5215  -13.3833 N   0  0  0  0  0  0  0  0  0  0  0  0
   26.3278  -21.2563  -12.1451 C   0  0  1  0  0  0  0  0  0  0  0  0
   27.1379  -19.9992  -12.1121 C   0  0  0  0  0  0  0  0  0  0  0  0
   28.4791  -20.0828  -12.6752 C   0  0  0  0  0  0  0  0  0  0  0  0
   28.9349  -19.3553  -13.7582 C   0  0  0  0  0  0  0  0  0  0  0  0
   30.2346  -19.6635  -13.9909 N   0  0  0  0  0  0  0  0  0  0  0  0
   30.5992  -20.5840  -13.0579 C   0  0  0  0  0  0  0  0  0  0  0  0
   31.7977  -21.2304  -12.8483 C   0  0  0  0  0  0  0  0  0  0  0  0
   31.9461  -22.1514  -11.8249 C   0  0  0  0  0  0  0  0  0  0  0  0
   30.8796  -22.4365  -10.9915 C   0  0  0  0  0  0  0  0  0  0  0  0
   29.6976  -21.7755  -11.2260 C   0  0  0  0  0  0  0  0  0  0  0  0
   29.5238  -20.8571  -12.2331 C   0  0  0  0  0  0  0  0  0  0  0  0
   25.2595  -21.1177  -11.0893 C   0  0  0  0  0  0  0  0  0  0  0  0
   24.1141  -20.9047  -11.5248 O   0  0  0  0  0  0  0  0  0  0  0  0
   25.5076  -21.2156   -9.7122 N   0  0  0  0  0  0  0  0  0  0  0  0
   24.4987  -21.1140   -8.6920 C   0  0  1  0  0  0  0  0  0  0  0  0
   25.0328  -21.2230   -7.2687 C   0  0  0  0  0  0  0  0  0  0  0  0
   26.0133  -20.1353   -7.0605 C   0  0  0  0  0  0  0  0  0  0  0  0
   26.2917  -19.0199   -7.8168 C   0  0  0  0  0  0  0  0  0  0  0  0
   27.2666  -18.3147   -7.2216 N   0  0  0  0  0  0  0  0  0  0  0  0
   27.6408  -18.9317   -6.0933 C   0  0  0  0  0  0  0  0  0  0  0  0
   28.5934  -18.6098   -5.1361 C   0  0  0  0  0  0  0  0  0  0  0  0
   28.8091  -19.4052   -4.0359 C   0  0  0  0  0  0  0  0  0  0  0  0
   28.0565  -20.5477   -3.8881 C   0  0  0  0  0  0  0  0  0  0  0  0
   27.0967  -20.8712   -4.8534 C   0  0  0  0  0  0  0  0  0  0  0  0
   26.8805  -20.0741   -5.9566 C   0  0  0  0  0  0  0  0  0  0  0  0
   23.7069  -19.8882   -8.8097 C   0  0  0  0  0  0  0  0  0  0  0  0
   22.7204  -19.6915   -8.0382 O   0  0  0  0  0  0  0  0  0  0  0  0
   23.9603  -18.8875   -9.7334 O   0  0  0  0  0  0  0  0  0  0  0  0
  1  2  1  0
  2  3  1  0
  3  4  2  0
  5  3  1  0
  5  6  1  0
  6  7  1  6
  8  9  2  0
  8  7  1  0
 10  9  1  0
 11 16  2  0
 11 10  1  0
 12 11  1  0
 13 14  1  0
 13 12  2  0
 14 15  2  0
 15 16  1  0
 16  8  1  0
 17 18  2  0
 17  6  1  0
 19 17  1  0
 20 19  1  0
 20 21  1  1
 22 30  1  0
 22 21  1  0
 23 22  2  0
 24 23  1  0
 24 25  1  0
 25 26  1  0
 25 30  2  0
 26 27  2  0
 27 28  1  0
 29 28  2  0
 30 29  1  0
 31 20  1  0
 32 31  2  0
 33 31  1  0
M  END
$$$$
