GWW.pdb
     RDKit          3D

 33 36  0  0  1  0  0  0  0  0999 V2000
   28.4143  -21.9302  -16.8963 N   0  0  0  0  0  0  0  0  0  0  0  0
   27.2940  -22.2237  -16.0585 C   0  0  0  0  0  0  0  0  0  0  0  0
   27.1913  -21.3064  -14.8935 C   0  0  0  0  0  0  0  0  0  0  0  0
   28.0260  -20.3812  -14.7270 O   0  0  0  0  0  0  0  0  0  0  0  0
   26.1617  -21.4223  -13.9196 N   0  0  0  0  0  0  0  0  0  0  0  0
   25.9461  -20.4773  -12.8567 C   0  0  1  0  0  0  0  0  0  0  0  0
   24.6319  -19.7635  -12.8857 C   0  0  0  0  0  0  0  0  0  0  0  0
   24.3984  -18.8909  -14.0289 C   0  0  0  0  0  0  0  0  0  0  0  0
   23.3349  -18.9939  -14.9054 C   0  0  0  0  0  0  0  0  0  0  0  0
   23.4180  -18.0056  -15.8299 N   0  0  0  0  0  0  0  0  0  0  0  0
   24.5315  -17.2803  -15.5391 C   0  0  0  0  0  0  0  0  0  0  0  0
   25.0788  -16.1791  -16.1603 C   0  0  0  0  0  0  0  0  0  0  0  0
   26.2432  -15.5954  -15.6898 C   0  0  0  0  0  0  0  0  0  0  0  0
   26.8778  -16.1181  -14.5775 C   0  0  0  0  0  0  0  0  0  0  0  0
   26.3074  -17.2166  -13.9801 C   0  0  0  0  0  0  0  0  0  0  0  0
   25.1532  -17.8141  -14.4256 C   0  0  0  0  0  0  0  0  0  0  0  0
   25.9901  -21.2636  -11.5702 C   0  0  0  0  0  0  0  0  0  0  0  0
   25.4905  -22.4009  -11.6315 O   0  0  0  0  0  0  0  0  0  0  0  0
   26.5451  -20.7761  -10.3777 N   0  0  0  0  0  0  0  0  0  0  0  0
   26.6097  -21.5156   -9.1456 C   0  0  1  0  0  0  0  0  0  0  0  0
   27.9103  -21.3333   -8.3722 C   0  0  0  0  0  0  0  0  0  0  0  0
   27.7612  -20.1535   -7.4926 C   0  0  0  0  0  0  0  0  0  0  0  0
   27.1493  -18.9407   -7.7123 C   0  0  0  0  0  0  0  0  0  0  0  0
   27.2665  -18.1810   -6.6118 N   0  0  0  0  0  0  0  0  0  0  0  0
   27.9382  -18.8567   -5.6705 C   0  0  0  0  0  0  0  0  0  0  0  0
   28.3118  -18.5161   -4.3776 C   0  0  0  0  0  0  0  0  0  0  0  0
   29.0093  -19.3867   -3.5744 C   0  0  0  0  0  0  0  0  0  0  0  0
   29.3411  -20.6254   -4.0735 C   0  0  0  0  0  0  0  0  0  0  0  0
   28.9640  -20.9677   -5.3767 C   0  0  0  0  0  0  0  0  0  0  0  0
   28.2651  -20.0949   -6.1822 C   0  0  0  0  0  0  0  0  0  0  0  0
   25.4836  -21.2207   -8.2576 C   0  0  0  0  0  0  0  0  0  0  0  0
   25.3220  -21.8882   -7.1921 O   0  0  0  0  0  0  0  0  0  0  0  0
   24.5445  -20.2316   -8.4992 O   0  0  0  0  0  0  0  0  0  0  0  0
  1  2  1  0
  2  3  1  0
  3  4  2  0
  5  3  1  0
  5  6  1  0
  6  7  1  6
  8  9  2  0
  8  7  1  0
 10  9  1  0
 11 16  2  0
 11 10  1  0
 12 11  1  0
 13 14  1  0
 13 12  2  0
 14 15  2  0
 15 16  1  0
 16  8  1  0
 17 18  2  0
 17  6  1  0
 19 17  1  0
 20 19  1  0
 20 21  1  1
 22 30  1  0
 22 21  1  0
 23 22  2  0
 24 23  1  0
 24 25  1  0
 25 26  1  0
 25 30  2  0
 26 27  2  0
 27 28  1  0
 29 28  2  0
 30 29  1  0
 31 20  1  0
 32 31  2  0
 33 31  1  0
M  END
$$$$
