GWW.pdb
     RDKit          3D

 33 36  0  0  1  0  0  0  0  0999 V2000
   24.5652  -24.4705  -15.5691 N   0  0  0  0  0  0  0  0  0  0  0  0
   24.2522  -23.1626  -15.0847 C   0  0  0  0  0  0  0  0  0  0  0  0
   24.9394  -22.8434  -13.8060 C   0  0  0  0  0  0  0  0  0  0  0  0
   25.5659  -23.7306  -13.1728 O   0  0  0  0  0  0  0  0  0  0  0  0
   24.9268  -21.5400  -13.2378 N   0  0  0  0  0  0  0  0  0  0  0  0
   25.7001  -21.1531  -12.0882 C   0  0  1  0  0  0  0  0  0  0  0  0
   26.3596  -19.8134  -12.1763 C   0  0  0  0  0  0  0  0  0  0  0  0
   27.6859  -19.7871  -12.7790 C   0  0  0  0  0  0  0  0  0  0  0  0
   28.0772  -18.9502  -13.8068 C   0  0  0  0  0  0  0  0  0  0  0  0
   29.3816  -19.1775  -14.0986 N   0  0  0  0  0  0  0  0  0  0  0  0
   29.8135  -20.1560  -13.2580 C   0  0  0  0  0  0  0  0  0  0  0  0
   31.0447  -20.7621  -13.1358 C   0  0  0  0  0  0  0  0  0  0  0  0
   31.2634  -21.7589  -12.1997 C   0  0  0  0  0  0  0  0  0  0  0  0
   30.2356  -22.1623  -11.3667 C   0  0  0  0  0  0  0  0  0  0  0  0
   29.0194  -21.5388  -11.5128 C   0  0  0  0  0  0  0  0  0  0  0  0
   28.7760  -20.5473  -12.4323 C   0  0  0  0  0  0  0  0  0  0  0  0
   24.7394  -21.0938  -10.9269 C   0  0  0  0  0  0  0  0  0  0  0  0
   23.5402  -20.9924  -11.2410 O   0  0  0  0  0  0  0  0  0  0  0  0
   25.1375  -21.1457   -9.5829 N   0  0  0  0  0  0  0  0  0  0  0  0
   24.2379  -21.2955   -8.4705 C   0  0  1  0  0  0  0  0  0  0  0  0
   24.9286  -21.4186   -7.1175 C   0  0  0  0  0  0  0  0  0  0  0  0
   25.7701  -20.2184   -6.9195 C   0  0  0  0  0  0  0  0  0  0  0  0
   25.8981  -19.0762   -7.6762 C   0  0  0  0  0  0  0  0  0  0  0  0
   26.7867  -18.2568   -7.0922 N   0  0  0  0  0  0  0  0  0  0  0  0
   27.2497  -18.8242   -5.9709 C   0  0  0  0  0  0  0  0  0  0  0  0
   28.1685  -18.3883   -5.0258 C   0  0  0  0  0  0  0  0  0  0  0  0
   28.4960  -19.1523   -3.9310 C   0  0  0  0  0  0  0  0  0  0  0  0
   27.8923  -20.3792   -3.7764 C   0  0  0  0  0  0  0  0  0  0  0  0
   26.9665  -20.8176   -4.7295 C   0  0  0  0  0  0  0  0  0  0  0  0
   26.6383  -20.0520   -5.8273 C   0  0  0  0  0  0  0  0  0  0  0  0
   23.2491  -20.2180   -8.4029 C   0  0  0  0  0  0  0  0  0  0  0  0
   23.4010  -19.1706   -9.1008 O   0  0  0  0  0  0  0  0  0  0  0  0
   22.1168  -20.2539   -7.6059 O   0  0  0  0  0  0  0  0  0  0  0  0
  1  2  1  0
  2  3  1  0
  3  4  2  0
  5  3  1  0
  5  6  1  0
  6  7  1  6
  8  9  2  0
  8  7  1  0
 10  9  1  0
 11 16  2  0
 11 10  1  0
 12 11  1  0
 13 14  1  0
 13 12  2  0
 14 15  2  0
 15 16  1  0
 16  8  1  0
 17 18  2  0
 17  6  1  0
 19 17  1  0
 20 19  1  0
 20 21  1  1
 22 30  1  0
 22 21  1  0
 23 22  2  0
 24 23  1  0
 24 25  1  0
 25 26  1  0
 25 30  2  0
 26 27  2  0
 27 28  1  0
 29 28  2  0
 30 29  1  0
 31 20  1  0
 32 31  2  0
 33 31  1  0
M  END
$$$$
