GWW.pdb
     RDKit          3D

 33 36  0  0  1  0  0  0  0  0999 V2000
   26.1411  -18.1258  -22.1829 N   0  0  0  0  0  0  0  0  0  0  0  0
   24.8537  -17.9371  -22.7749 C   0  0  0  0  0  0  0  0  0  0  0  0
   24.6013  -16.5251  -23.1644 C   0  0  0  0  0  0  0  0  0  0  0  0
   25.0787  -15.5764  -22.4917 O   0  0  0  0  0  0  0  0  0  0  0  0
   23.8198  -16.1749  -24.2995 N   0  0  0  0  0  0  0  0  0  0  0  0
   23.5349  -14.8221  -24.6970 C   0  0  1  0  0  0  0  0  0  0  0  0
   23.7137  -14.5268  -26.1525 C   0  0  0  0  0  0  0  0  0  0  0  0
   24.9972  -13.9569  -26.5407 C   0  0  0  0  0  0  0  0  0  0  0  0
   26.1971  -14.6421  -26.5685 C   0  0  0  0  0  0  0  0  0  0  0  0
   27.1776  -13.8124  -27.0028 N   0  0  0  0  0  0  0  0  0  0  0  0
   26.5992  -12.6059  -27.2482 C   0  0  0  0  0  0  0  0  0  0  0  0
   27.1397  -11.4207  -27.6968 C   0  0  0  0  0  0  0  0  0  0  0  0
   26.3529  -10.2946  -27.8715 C   0  0  0  0  0  0  0  0  0  0  0  0
   24.9989  -10.3476  -27.5940 C   0  0  0  0  0  0  0  0  0  0  0  0
   24.4896  -11.5438  -27.1483 C   0  0  0  0  0  0  0  0  0  0  0  0
   25.2473  -12.6755  -26.9673 C   0  0  0  0  0  0  0  0  0  0  0  0
   22.0814  -14.5791  -24.3753 C   0  0  0  0  0  0  0  0  0  0  0  0
   21.3121  -15.5064  -24.6841 O   0  0  0  0  0  0  0  0  0  0  0  0
   21.6020  -13.4058  -23.7743 N   0  0  0  0  0  0  0  0  0  0  0  0
   20.2299  -13.1792  -23.4065 C   0  0  1  0  0  0  0  0  0  0  0  0
   20.0088  -11.9464  -22.5382 C   0  0  0  0  0  0  0  0  0  0  0  0
   20.3007  -10.7490  -23.3561 C   0  0  0  0  0  0  0  0  0  0  0  0
   19.5511  -10.1153  -24.3205 C   0  0  0  0  0  0  0  0  0  0  0  0
   20.2341   -9.0581  -24.7870 N   0  0  0  0  0  0  0  0  0  0  0  0
   21.4138   -8.9742  -24.1585 C   0  0  0  0  0  0  0  0  0  0  0  0
   22.4627   -8.0726  -24.2781 C   0  0  0  0  0  0  0  0  0  0  0  0
   23.5996   -8.1818  -23.5131 C   0  0  0  0  0  0  0  0  0  0  0  0
   23.6911   -9.2145  -22.6083 C   0  0  0  0  0  0  0  0  0  0  0  0
   22.6335  -10.1227  -22.4887 C   0  0  0  0  0  0  0  0  0  0  0  0
   21.4938  -10.0136  -23.2556 C   0  0  0  0  0  0  0  0  0  0  0  0
   19.3446  -13.1057  -24.5702 C   0  0  0  0  0  0  0  0  0  0  0  0
   19.8237  -12.8704  -25.7201 O   0  0  0  0  0  0  0  0  0  0  0  0
   17.9717  -13.2799  -24.5118 O   0  0  0  0  0  0  0  0  0  0  0  0
  1  2  1  0
  2  3  1  0
  3  4  2  0
  5  3  1  0
  5  6  1  0
  6  7  1  6
  8  9  2  0
  8  7  1  0
 10  9  1  0
 11 16  2  0
 11 10  1  0
 12 11  1  0
 13 14  1  0
 13 12  2  0
 14 15  2  0
 15 16  1  0
 16  8  1  0
 17 18  2  0
 17  6  1  0
 19 17  1  0
 20 19  1  0
 20 21  1  6
 22 30  1  0
 22 21  1  0
 23 22  2  0
 24 23  1  0
 24 25  1  0
 25 26  1  0
 25 30  2  0
 26 27  2  0
 27 28  1  0
 29 28  2  0
 30 29  1  0
 31 20  1  0
 32 31  2  0
 33 31  1  0
M  END
$$$$
