GWW.pdb
     RDKit          3D

 33 36  0  0  1  0  0  0  0  0999 V2000
   28.4896  -23.1864  -16.8056 N   0  0  0  0  0  0  0  0  0  0  0  0
   27.2604  -22.6794  -16.2810 C   0  0  0  0  0  0  0  0  0  0  0  0
   27.4487  -21.8905  -15.0355 C   0  0  0  0  0  0  0  0  0  0  0  0
   28.5894  -21.7570  -14.5242 O   0  0  0  0  0  0  0  0  0  0  0  0
   26.3683  -21.2541  -14.3648 N   0  0  0  0  0  0  0  0  0  0  0  0
   26.5246  -20.3686  -13.2421 C   0  0  1  0  0  0  0  0  0  0  0  0
   25.7168  -19.1107  -13.2960 C   0  0  0  0  0  0  0  0  0  0  0  0
   26.0000  -18.2110  -14.4065 C   0  0  0  0  0  0  0  0  0  0  0  0
   25.0731  -17.3944  -15.0262 C   0  0  0  0  0  0  0  0  0  0  0  0
   25.6872  -16.6754  -15.9979 N   0  0  0  0  0  0  0  0  0  0  0  0
   26.9986  -17.0370  -15.9930 C   0  0  0  0  0  0  0  0  0  0  0  0
   28.0529  -16.6188  -16.7751 C   0  0  0  0  0  0  0  0  0  0  0  0
   29.3256  -17.1353  -16.5985 C   0  0  0  0  0  0  0  0  0  0  0  0
   29.5555  -18.0887  -15.6232 C   0  0  0  0  0  0  0  0  0  0  0  0
   28.4838  -18.4853  -14.8595 C   0  0  0  0  0  0  0  0  0  0  0  0
   27.2120  -17.9887  -15.0131 C   0  0  0  0  0  0  0  0  0  0  0  0
   26.0643  -21.1339  -12.0265 C   0  0  0  0  0  0  0  0  0  0  0  0
   25.1963  -21.9972  -12.2461 O   0  0  0  0  0  0  0  0  0  0  0  0
   26.5580  -20.9114  -10.7326 N   0  0  0  0  0  0  0  0  0  0  0  0
   26.0766  -21.5745   -9.5503 C   0  0  1  0  0  0  0  0  0  0  0  0
   27.1386  -21.7976   -8.4801 C   0  0  0  0  0  0  0  0  0  0  0  0
   27.4141  -20.4993   -7.8273 C   0  0  0  0  0  0  0  0  0  0  0  0
   27.1011  -19.2158   -8.2124 C   0  0  0  0  0  0  0  0  0  0  0  0
   27.5573  -18.3541   -7.2898 N   0  0  0  0  0  0  0  0  0  0  0  0
   28.1628  -19.0309   -6.3054 C   0  0  0  0  0  0  0  0  0  0  0  0
   28.7865  -18.6067   -5.1398 C   0  0  0  0  0  0  0  0  0  0  0  0
   29.3486  -19.4972   -4.2563 C   0  0  0  0  0  0  0  0  0  0  0  0
   29.2865  -20.8416   -4.5431 C   0  0  0  0  0  0  0  0  0  0  0  0
   28.6577  -21.2681   -5.7180 C   0  0  0  0  0  0  0  0  0  0  0  0
   28.0943  -20.3755   -6.6040 C   0  0  0  0  0  0  0  0  0  0  0  0
   24.9339  -20.8844   -8.9491 C   0  0  0  0  0  0  0  0  0  0  0  0
   24.5625  -19.7586   -9.3981 O   0  0  0  0  0  0  0  0  0  0  0  0
   24.1980  -21.3839   -7.8872 O   0  0  0  0  0  0  0  0  0  0  0  0
  1  2  1  0
  2  3  1  0
  3  4  2  0
  5  3  1  0
  5  6  1  0
  6  7  1  6
  8  9  2  0
  8  7  1  0
 10  9  1  0
 11 16  2  0
 11 10  1  0
 12 11  1  0
 13 14  1  0
 13 12  2  0
 14 15  2  0
 15 16  1  0
 16  8  1  0
 17 18  2  0
 17  6  1  0
 19 17  1  0
 20 19  1  0
 20 21  1  1
 22 30  1  0
 22 21  1  0
 23 22  2  0
 24 23  1  0
 24 25  1  0
 25 26  1  0
 25 30  2  0
 26 27  2  0
 27 28  1  0
 29 28  2  0
 30 29  1  0
 31 20  1  0
 32 31  2  0
 33 31  1  0
M  END
$$$$
