GWW.pdb
     RDKit          3D

 33 36  0  0  1  0  0  0  0  0999 V2000
   30.3995  -23.2021  -17.0857 N   0  0  0  0  0  0  0  0  0  0  0  0
   29.3578  -23.6601  -16.2206 C   0  0  0  0  0  0  0  0  0  0  0  0
   28.4623  -22.5635  -15.7682 C   0  0  0  0  0  0  0  0  0  0  0  0
   28.9342  -21.5169  -15.2560 O   0  0  0  0  0  0  0  0  0  0  0  0
   27.0473  -22.6358  -15.8875 N   0  0  0  0  0  0  0  0  0  0  0  0
   26.1486  -21.5881  -15.4828 C   0  0  1  0  0  0  0  0  0  0  0  0
   24.8510  -21.5297  -16.2248 C   0  0  0  0  0  0  0  0  0  0  0  0
   23.9510  -20.4425  -15.8631 C   0  0  0  0  0  0  0  0  0  0  0  0
   24.3175  -19.1169  -15.7279 C   0  0  0  0  0  0  0  0  0  0  0  0
   23.2249  -18.3794  -15.4104 N   0  0  0  0  0  0  0  0  0  0  0  0
   22.1707  -19.2367  -15.3445 C   0  0  0  0  0  0  0  0  0  0  0  0
   20.8423  -19.0128  -15.0557 C   0  0  0  0  0  0  0  0  0  0  0  0
   19.9276  -20.0524  -15.0372 C   0  0  0  0  0  0  0  0  0  0  0  0
   20.3424  -21.3430  -15.3115 C   0  0  0  0  0  0  0  0  0  0  0  0
   21.6735  -21.5340  -15.5959 C   0  0  0  0  0  0  0  0  0  0  0  0
   22.6011  -20.5209  -15.6218 C   0  0  0  0  0  0  0  0  0  0  0  0
   25.8148  -21.8466  -14.0348 C   0  0  0  0  0  0  0  0  0  0  0  0
   25.6732  -23.0450  -13.7334 O   0  0  0  0  0  0  0  0  0  0  0  0
   25.6675  -20.8332  -13.0762 N   0  0  0  0  0  0  0  0  0  0  0  0
   25.3068  -21.0562  -11.7017 C   0  0  1  0  0  0  0  0  0  0  0  0
   25.9372  -20.0749  -10.7206 C   0  0  0  0  0  0  0  0  0  0  0  0
   27.2259  -20.6416  -10.2669 C   0  0  0  0  0  0  0  0  0  0  0  0
   28.2246  -21.2771  -10.9686 C   0  0  0  0  0  0  0  0  0  0  0  0
   29.2121  -21.6143  -10.1241 N   0  0  0  0  0  0  0  0  0  0  0  0
   28.8952  -21.2197   -8.8840 C   0  0  0  0  0  0  0  0  0  0  0  0
   29.5728  -21.3302   -7.6774 C   0  0  0  0  0  0  0  0  0  0  0  0
   29.0462  -20.8407   -6.5059 C   0  0  0  0  0  0  0  0  0  0  0  0
   27.8151  -20.2269   -6.5400 C   0  0  0  0  0  0  0  0  0  0  0  0
   27.1329  -20.1160   -7.7566 C   0  0  0  0  0  0  0  0  0  0  0  0
   27.6606  -20.6070   -8.9311 C   0  0  0  0  0  0  0  0  0  0  0  0
   23.8568  -21.0649  -11.4992 C   0  0  0  0  0  0  0  0  0  0  0  0
   23.0813  -20.7133  -12.4384 O   0  0  0  0  0  0  0  0  0  0  0  0
   23.2416  -21.4417  -10.3168 O   0  0  0  0  0  0  0  0  0  0  0  0
  1  2  1  0
  2  3  1  0
  3  4  2  0
  5  3  1  0
  5  6  1  0
  6  7  1  6
  8  9  2  0
  8  7  1  0
 10  9  1  0
 11 16  2  0
 11 10  1  0
 12 11  1  0
 13 14  1  0
 13 12  2  0
 14 15  2  0
 15 16  1  0
 16  8  1  0
 17 18  2  0
 17  6  1  0
 19 17  1  0
 20 19  1  0
 20 21  1  1
 22 30  1  0
 22 21  1  0
 23 22  2  0
 24 23  1  0
 24 25  1  0
 25 26  1  0
 25 30  2  0
 26 27  2  0
 27 28  1  0
 29 28  2  0
 30 29  1  0
 31 20  1  0
 32 31  2  0
 33 31  1  0
M  END
$$$$
