TMI.pdb
     RDKit          3D

 24 23  0  0  1  0  0  0  0  0999 V2000
   26.5490  -19.5654  -15.5460 C   0  0  0  0  0  0  0  0  0  0  0  0
   27.7977  -19.2694  -14.7695 C   0  0  1  0  0  0  0  0  0  0  0  0
   27.4839  -18.3166  -13.7849 O   0  0  0  0  0  0  0  0  0  0  0  0
   28.3211  -20.5354  -14.1131 C   0  0  2  0  0  0  0  0  0  0  0  0
   28.5753  -21.4974  -15.1449 N   0  0  0  0  0  0  0  0  0  0  0  0
   27.2773  -21.0316  -13.1822 C   0  0  0  0  0  0  0  0  0  0  0  0
   26.4083  -21.8724  -13.4842 O   0  0  0  0  0  0  0  0  0  0  0  0
   26.9969  -19.0560   -6.7322 C   0  0  0  0  0  0  0  0  0  0  0  0
   26.1961  -20.6727   -6.7934 S   0  0  0  0  0  0  0  0  0  0  0  0
   25.5894  -21.0276   -8.4644 C   0  0  0  0  0  0  0  0  0  0  0  0
   26.6617  -20.5961   -9.4605 C   0  0  0  0  0  0  0  0  0  0  0  0
   26.2692  -20.9345  -10.8694 C   0  0  2  0  0  0  0  0  0  0  0  0
   27.2452  -20.5307  -11.8538 N   0  0  0  0  0  0  0  0  0  0  0  0
   24.9721  -20.3082  -11.2337 C   0  0  0  0  0  0  0  0  0  0  0  0
   24.8555  -19.0714  -11.4317 O   0  0  0  0  0  0  0  0  0  0  0  0
   23.2186  -21.1243  -15.6815 C   0  0  0  0  0  0  0  0  0  0  0  0
   23.3850  -20.5805  -14.3065 C   0  0  0  0  0  0  0  0  0  0  0  0
   22.3297  -21.0123  -13.3351 C   0  0  2  0  0  0  0  0  0  0  0  0
   20.9904  -20.5085  -13.8293 C   0  0  0  0  0  0  0  0  0  0  0  0
   22.5580  -20.5471  -11.9352 C   0  0  2  0  0  0  0  0  0  0  0  0
   23.7818  -21.0887  -11.3783 N   0  0  0  0  0  0  0  0  0  0  0  0
   21.4173  -21.0004  -11.0963 C   0  0  0  0  0  0  0  0  0  0  0  0
   20.3556  -20.1450  -10.8553 O   0  0  0  0  0  0  0  0  0  0  0  0
   21.3605  -22.1503  -10.5778 O   0  0  0  0  0  0  0  0  0  0  0  0
  2  1  1  1
  2  4  1  0
  3  2  1  0
  4  5  1  6
  6 13  1  0
  6  4  1  0
  7  6  2  0
  8  9  1  0
  9 10  1  0
 11 10  1  0
 12 11  1  1
 12 13  1  0
 14 15  2  0
 14 12  1  0
 16 17  1  0
 17 18  1  0
 18 20  1  0
 18 19  1  6
 20 21  1  1
 20 22  1  0
 21 14  1  0
 22 23  1  0
 24 22  2  0
M  END
$$$$
