TMI.pdb
     RDKit          3D

 24 23  0  0  1  0  0  0  0  0999 V2000
   28.7618  -18.0408  -16.0420 C   0  0  0  0  0  0  0  0  0  0  0  0
   27.7103  -18.8553  -15.3487 C   0  0  1  0  0  0  0  0  0  0  0  0
   26.6520  -19.0604  -16.2507 O   0  0  0  0  0  0  0  0  0  0  0  0
   28.2835  -20.1933  -14.9140 C   0  0  2  0  0  0  0  0  0  0  0  0
   28.5926  -20.9474  -16.0931 N   0  0  0  0  0  0  0  0  0  0  0  0
   27.2533  -20.8893  -14.1040 C   0  0  0  0  0  0  0  0  0  0  0  0
   26.6068  -21.8820  -14.4914 O   0  0  0  0  0  0  0  0  0  0  0  0
   26.8211  -20.0840   -7.6825 C   0  0  0  0  0  0  0  0  0  0  0  0
   25.1293  -20.6437   -7.9711 S   0  0  0  0  0  0  0  0  0  0  0  0
   24.9141  -21.1841   -9.6881 C   0  0  0  0  0  0  0  0  0  0  0  0
   26.0599  -20.6074  -10.5145 C   0  0  0  0  0  0  0  0  0  0  0  0
   25.9015  -20.9305  -11.9719 C   0  0  2  0  0  0  0  0  0  0  0  0
   26.9665  -20.4122  -12.7975 N   0  0  0  0  0  0  0  0  0  0  0  0
   24.6181  -20.4052  -12.5050 C   0  0  0  0  0  0  0  0  0  0  0  0
   24.4257  -19.1782  -12.7047 O   0  0  0  0  0  0  0  0  0  0  0  0
   22.8125  -21.5048  -17.0762 C   0  0  0  0  0  0  0  0  0  0  0  0
   23.0285  -20.9222  -15.7241 C   0  0  0  0  0  0  0  0  0  0  0  0
   21.9911  -21.2993  -14.7115 C   0  0  2  0  0  0  0  0  0  0  0  0
   20.6489  -20.7869  -15.1889 C   0  0  0  0  0  0  0  0  0  0  0  0
   22.2645  -20.7903  -13.3352 C   0  0  2  0  0  0  0  0  0  0  0  0
   23.5287  -21.2775  -12.8198 N   0  0  0  0  0  0  0  0  0  0  0  0
   21.1771  -21.2577  -12.4354 C   0  0  0  0  0  0  0  0  0  0  0  0
   20.1810  -20.3796  -12.0432 O   0  0  0  0  0  0  0  0  0  0  0  0
   21.1087  -22.4400  -11.9975 O   0  0  0  0  0  0  0  0  0  0  0  0
  2  1  1  6
  2  4  1  0
  3  2  1  0
  4  5  1  6
  6 13  1  0
  6  4  1  0
  7  6  2  0
  8  9  1  0
  9 10  1  0
 11 10  1  0
 12 11  1  1
 12 13  1  0
 14 15  2  0
 14 12  1  0
 16 17  1  0
 17 18  1  0
 18 20  1  0
 18 19  1  6
 20 21  1  1
 20 22  1  0
 21 14  1  0
 22 23  1  0
 24 22  2  0
M  END
$$$$
