TMI.pdb
     RDKit          3D

 24 23  0  0  1  0  0  0  0  0999 V2000
   18.6124  -20.2114  -16.7585 C   0  0  0  0  0  0  0  0  0  0  0  0
   19.7517  -20.6963  -15.9119 C   0  0  1  0  0  0  0  0  0  0  0  0
   19.9820  -19.7445  -14.9036 O   0  0  0  0  0  0  0  0  0  0  0  0
   19.4080  -22.0371  -15.2860 C   0  0  2  0  0  0  0  0  0  0  0  0
   18.3423  -21.8296  -14.3502 N   0  0  0  0  0  0  0  0  0  0  0  0
   20.6199  -22.5415  -14.5940 C   0  0  0  0  0  0  0  0  0  0  0  0
   20.7915  -22.5045  -13.3601 O   0  0  0  0  0  0  0  0  0  0  0  0
   24.6302  -26.6374  -17.5040 C   0  0  0  0  0  0  0  0  0  0  0  0
   25.4839  -26.5545  -15.9156 S   0  0  0  0  0  0  0  0  0  0  0  0
   24.7248  -25.3073  -14.8411 C   0  0  0  0  0  0  0  0  0  0  0  0
   23.5046  -24.7399  -15.5606 C   0  0  0  0  0  0  0  0  0  0  0  0
   22.9074  -23.5896  -14.8033 C   0  0  2  0  0  0  0  0  0  0  0  0
   21.6680  -23.1085  -15.3665 N   0  0  0  0  0  0  0  0  0  0  0  0
   23.8489  -22.4423  -14.7334 C   0  0  0  0  0  0  0  0  0  0  0  0
   23.8290  -21.5049  -15.5720 O   0  0  0  0  0  0  0  0  0  0  0  0
   26.1487  -21.1057   -9.7763 C   0  0  0  0  0  0  0  0  0  0  0  0
   25.5119  -20.9548  -11.1126 C   0  0  0  0  0  0  0  0  0  0  0  0
   26.4329  -21.1889  -12.2704 C   0  0  2  0  0  0  0  0  0  0  0  0
   27.4864  -20.1017  -12.2705 C   0  0  0  0  0  0  0  0  0  0  0  0
   25.7509  -21.2302  -13.5976 C   0  0  2  0  0  0  0  0  0  0  0  0
   24.8330  -22.3474  -13.6992 N   0  0  0  0  0  0  0  0  0  0  0  0
   26.7862  -21.3730  -14.6550 C   0  0  0  0  0  0  0  0  0  0  0  0
   27.2807  -22.6270  -14.9714 O   0  0  0  0  0  0  0  0  0  0  0  0
   27.2521  -20.3907  -15.2970 O   0  0  0  0  0  0  0  0  0  0  0  0
  2  1  1  6
  2  4  1  0
  3  2  1  0
  4  5  1  1
  6 13  1  0
  6  4  1  0
  7  6  2  0
  8  9  1  0
  9 10  1  0
 11 10  1  0
 12 11  1  6
 12 13  1  0
 14 15  2  0
 14 12  1  0
 16 17  1  0
 17 18  1  0
 18 20  1  0
 18 19  1  6
 20 21  1  1
 20 22  1  0
 21 14  1  0
 22 23  1  0
 24 22  2  0
M  END
$$$$
