TMI.pdb
     RDKit          3D

 24 23  0  0  1  0  0  0  0  0999 V2000
   17.7951   -9.0827  -17.7676 C   0  0  0  0  0  0  0  0  0  0  0  0
   17.5017  -10.4378  -17.1954 C   0  0  1  0  0  0  0  0  0  0  0  0
   16.4117  -10.9811  -17.8971 O   0  0  0  0  0  0  0  0  0  0  0  0
   18.7122  -11.3437  -17.3421 C   0  0  2  0  0  0  0  0  0  0  0  0
   18.3144  -12.6755  -16.9921 N   0  0  0  0  0  0  0  0  0  0  0  0
   19.7640  -10.8528  -16.4174 C   0  0  0  0  0  0  0  0  0  0  0  0
   19.6068  -10.7029  -15.1902 O   0  0  0  0  0  0  0  0  0  0  0  0
   27.4643  -10.3896  -14.9508 C   0  0  0  0  0  0  0  0  0  0  0  0
   26.1175  -10.9166  -16.0311 S   0  0  0  0  0  0  0  0  0  0  0  0
   24.5689  -10.0893  -15.5797 C   0  0  0  0  0  0  0  0  0  0  0  0
   23.4524  -10.6669  -16.4446 C   0  0  0  0  0  0  0  0  0  0  0  0
   22.1318  -10.0224  -16.1376 C   0  0  2  0  0  0  0  0  0  0  0  0
   21.0428  -10.5255  -16.9410 N   0  0  0  0  0  0  0  0  0  0  0  0
   22.1926   -8.5501  -16.3274 C   0  0  0  0  0  0  0  0  0  0  0  0
   22.3640   -8.0250  -17.4576 O   0  0  0  0  0  0  0  0  0  0  0  0
   18.5181   -5.6956  -16.9961 C   0  0  0  0  0  0  0  0  0  0  0  0
   19.9597   -6.0455  -16.8813 C   0  0  0  0  0  0  0  0  0  0  0  0
   20.5675   -5.7475  -15.5451 C   0  0  2  0  0  0  0  0  0  0  0  0
   20.4940   -4.2540  -15.3090 C   0  0  0  0  0  0  0  0  0  0  0  0
   21.9780   -6.2128  -15.3958 C   0  0  2  0  0  0  0  0  0  0  0  0
   22.0579   -7.6498  -15.2236 N   0  0  0  0  0  0  0  0  0  0  0  0
   22.5644   -5.5609  -14.1952 C   0  0  0  0  0  0  0  0  0  0  0  0
   23.2650   -4.3739  -14.3276 O   0  0  0  0  0  0  0  0  0  0  0  0
   22.4572   -6.0404  -13.0320 O   0  0  0  0  0  0  0  0  0  0  0  0
  2  1  1  6
  2  4  1  0
  3  2  1  0
  4  5  1  1
  6 13  1  0
  6  4  1  0
  7  6  2  0
  8  9  1  0
  9 10  1  0
 11 10  1  0
 12 11  1  6
 12 13  1  0
 14 15  2  0
 14 12  1  0
 16 17  1  0
 17 18  1  0
 18 20  1  0
 18 19  1  6
 20 21  1  1
 20 22  1  0
 21 14  1  0
 22 23  1  0
 24 22  2  0
M  END
$$$$
