TMI.pdb
     RDKit          3D

 24 23  0  0  1  0  0  0  0  0999 V2000
   19.9714   -9.3092  -19.5765 C   0  0  0  0  0  0  0  0  0  0  0  0
   19.6017  -10.7424  -19.3333 C   0  0  1  0  0  0  0  0  0  0  0  0
   18.9619  -11.2296  -20.4861 O   0  0  0  0  0  0  0  0  0  0  0  0
   20.8464  -11.5652  -19.0480 C   0  0  2  0  0  0  0  0  0  0  0  0
   20.4486  -12.9344  -18.9006 N   0  0  0  0  0  0  0  0  0  0  0  0
   21.4498  -11.0584  -17.7906 C   0  0  0  0  0  0  0  0  0  0  0  0
   21.0187  -11.3165  -16.6500 O   0  0  0  0  0  0  0  0  0  0  0  0
   27.0440  -11.7558  -14.9936 C   0  0  0  0  0  0  0  0  0  0  0  0
   27.0343   -9.9669  -15.2356 S   0  0  0  0  0  0  0  0  0  0  0  0
   25.3371   -9.3456  -15.3768 C   0  0  0  0  0  0  0  0  0  0  0  0
   24.7066   -9.9653  -16.6206 C   0  0  0  0  0  0  0  0  0  0  0  0
   23.2424   -9.6465  -16.7097 C   0  0  2  0  0  0  0  0  0  0  0  0
   22.5952  -10.2221  -17.8649 N   0  0  0  0  0  0  0  0  0  0  0  0
   23.0103   -8.1794  -16.7442 C   0  0  0  0  0  0  0  0  0  0  0  0
   23.4459   -7.4521  -17.6735 O   0  0  0  0  0  0  0  0  0  0  0  0
   18.3980   -6.2647  -17.1924 C   0  0  0  0  0  0  0  0  0  0  0  0
   19.8825   -6.3546  -17.1452 C   0  0  0  0  0  0  0  0  0  0  0  0
   20.4955   -5.8564  -15.8724 C   0  0  2  0  0  0  0  0  0  0  0  0
   20.2144   -4.3735  -15.7551 C   0  0  0  0  0  0  0  0  0  0  0  0
   21.9638   -6.1015  -15.7623 C   0  0  2  0  0  0  0  0  0  0  0  0
   22.2735   -7.5166  -15.7123 N   0  0  0  0  0  0  0  0  0  0  0  0
   22.4547   -5.4670  -14.5105 C   0  0  0  0  0  0  0  0  0  0  0  0
   22.9858   -4.1889  -14.5473 O   0  0  0  0  0  0  0  0  0  0  0  0
   22.4138   -6.0423  -13.3873 O   0  0  0  0  0  0  0  0  0  0  0  0
  2  1  1  6
  2  4  1  0
  3  2  1  0
  4  5  1  1
  6 13  1  0
  6  4  1  0
  7  6  2  0
  8  9  1  0
  9 10  1  0
 11 10  1  0
 12 11  1  6
 12 13  1  0
 14 15  2  0
 14 12  1  0
 16 17  1  0
 17 18  1  0
 18 20  1  0
 18 19  1  6
 20 21  1  1
 20 22  1  0
 21 14  1  0
 22 23  1  0
 24 22  2  0
M  END
$$$$
