TMI.pdb
     RDKit          3D

 24 23  0  0  1  0  0  0  0  0999 V2000
   27.5077  -17.7386  -15.3925 C   0  0  0  0  0  0  0  0  0  0  0  0
   27.4903  -18.6732  -16.5656 C   0  0  1  0  0  0  0  0  0  0  0  0
   27.6799  -17.9127  -17.7323 O   0  0  0  0  0  0  0  0  0  0  0  0
   28.6005  -19.7017  -16.4348 C   0  0  2  0  0  0  0  0  0  0  0  0
   28.5674  -20.5401  -17.5969 N   0  0  0  0  0  0  0  0  0  0  0  0
   28.3429  -20.4976  -15.2091 C   0  0  0  0  0  0  0  0  0  0  0  0
   27.4695  -21.3817  -15.1157 O   0  0  0  0  0  0  0  0  0  0  0  0
   32.7333  -22.0143  -10.7019 C   0  0  0  0  0  0  0  0  0  0  0  0
   31.3432  -21.6686   -9.6033 S   0  0  0  0  0  0  0  0  0  0  0  0
   29.7950  -21.5571  -10.5398 C   0  0  0  0  0  0  0  0  0  0  0  0
   30.0920  -20.8667  -11.8678 C   0  0  0  0  0  0  0  0  0  0  0  0
   28.8986  -20.8925  -12.7780 C   0  0  2  0  0  0  0  0  0  0  0  0
   29.1303  -20.2548  -14.0525 N   0  0  0  0  0  0  0  0  0  0  0  0
   27.7250  -20.2341  -12.1484 C   0  0  0  0  0  0  0  0  0  0  0  0
   27.6127  -18.9830  -12.0809 O   0  0  0  0  0  0  0  0  0  0  0  0
   23.0057  -20.9034  -13.8849 C   0  0  0  0  0  0  0  0  0  0  0  0
   24.1503  -20.3367  -13.1216 C   0  0  0  0  0  0  0  0  0  0  0  0
   24.2297  -20.7857  -11.6948 C   0  0  2  0  0  0  0  0  0  0  0  0
   23.0295  -20.2362  -10.9535 C   0  0  0  0  0  0  0  0  0  0  0  0
   25.4839  -20.3811  -10.9938 C   0  0  2  0  0  0  0  0  0  0  0  0
   26.6557  -20.9983  -11.5829 N   0  0  0  0  0  0  0  0  0  0  0  0
   25.3890  -20.8101   -9.5734 C   0  0  0  0  0  0  0  0  0  0  0  0
   24.8457  -19.9553   -8.6294 O   0  0  0  0  0  0  0  0  0  0  0  0
   25.7859  -21.9385   -9.1689 O   0  0  0  0  0  0  0  0  0  0  0  0
  2  1  1  1
  2  4  1  0
  3  2  1  0
  4  5  1  6
  6 13  1  0
  6  4  1  0
  7  6  2  0
  8  9  1  0
  9 10  1  0
 11 10  1  0
 12 11  1  1
 12 13  1  0
 14 15  2  0
 14 12  1  0
 16 17  1  0
 17 18  1  0
 18 20  1  0
 18 19  1  1
 20 21  1  6
 20 22  1  0
 21 14  1  0
 22 23  1  0
 24 22  2  0
M  END
$$$$
