TMI.pdb
     RDKit          3D

 24 23  0  0  1  0  0  0  0  0999 V2000
   16.1007  -11.2657  -17.3017 C   0  0  0  0  0  0  0  0  0  0  0  0
   17.3152  -10.4180  -17.0646 C   0  0  1  0  0  0  0  0  0  0  0  0
   17.4454  -10.2198  -15.6792 O   0  0  0  0  0  0  0  0  0  0  0  0
   18.5540  -11.1118  -17.6046 C   0  0  2  0  0  0  0  0  0  0  0  0
   18.7052  -12.3552  -16.9078 N   0  0  0  0  0  0  0  0  0  0  0  0
   19.7185  -10.2271  -17.3527 C   0  0  0  0  0  0  0  0  0  0  0  0
   20.5473  -10.3993  -16.4380 O   0  0  0  0  0  0  0  0  0  0  0  0
   23.7654   -6.3919  -21.6006 C   0  0  0  0  0  0  0  0  0  0  0  0
   22.7490   -5.4179  -20.4706 S   0  0  0  0  0  0  0  0  0  0  0  0
   22.4268   -6.3358  -18.9409 C   0  0  0  0  0  0  0  0  0  0  0  0
   21.2992   -7.3278  -19.2110 C   0  0  0  0  0  0  0  0  0  0  0  0
   20.9611   -8.1213  -17.9823 C   0  0  2  0  0  0  0  0  0  0  0  0
   19.9243   -9.1031  -18.1960 N   0  0  0  0  0  0  0  0  0  0  0  0
   20.5254   -7.2365  -16.8712 C   0  0  0  0  0  0  0  0  0  0  0  0
   19.3485   -6.8016  -16.7808 O   0  0  0  0  0  0  0  0  0  0  0  0
   20.3163   -8.7634  -12.0994 C   0  0  0  0  0  0  0  0  0  0  0  0
   20.1709   -7.9506  -13.3372 C   0  0  0  0  0  0  0  0  0  0  0  0
   21.1017   -6.7803  -13.4257 C   0  0  2  0  0  0  0  0  0  0  0  0
   20.8123   -5.8509  -12.2662 C   0  0  0  0  0  0  0  0  0  0  0  0
   21.0166   -6.0252  -14.7105 C   0  0  2  0  0  0  0  0  0  0  0  0
   21.4318   -6.8325  -15.8405 N   0  0  0  0  0  0  0  0  0  0  0  0
   21.9126   -4.8422  -14.6218 C   0  0  0  0  0  0  0  0  0  0  0  0
   21.4199   -3.6374  -14.1496 O   0  0  0  0  0  0  0  0  0  0  0  0
   23.1284   -4.8745  -14.9613 O   0  0  0  0  0  0  0  0  0  0  0  0
  2  1  1  1
  2  4  1  0
  3  2  1  0
  4  5  1  1
  6 13  1  0
  6  4  1  0
  7  6  2  0
  8  9  1  0
  9 10  1  0
 11 10  1  0
 12 11  1  6
 12 13  1  0
 14 15  2  0
 14 12  1  0
 16 17  1  0
 17 18  1  0
 18 20  1  0
 18 19  1  1
 20 21  1  6
 20 22  1  0
 21 14  1  0
 22 23  1  0
 24 22  2  0
M  END
$$$$
