TMI.pdb
     RDKit          3D

 24 23  0  0  1  0  0  0  0  0999 V2000
   17.4500  -16.5700  -17.4065 C   0  0  0  0  0  0  0  0  0  0  0  0
   17.7375  -15.1214  -17.6685 C   0  0  1  0  0  0  0  0  0  0  0  0
   16.6088  -14.5577  -18.2882 O   0  0  0  0  0  0  0  0  0  0  0  0
   18.0242  -14.3980  -16.3639 C   0  0  2  0  0  0  0  0  0  0  0  0
   16.8476  -14.4709  -15.5486 N   0  0  0  0  0  0  0  0  0  0  0  0
   18.3492  -12.9866  -16.6869 C   0  0  0  0  0  0  0  0  0  0  0  0
   19.3166  -12.6306  -17.3874 O   0  0  0  0  0  0  0  0  0  0  0  0
   15.5305   -5.5663  -16.8507 C   0  0  0  0  0  0  0  0  0  0  0  0
   15.2602   -7.3146  -16.4910 S   0  0  0  0  0  0  0  0  0  0  0  0
   16.8211   -8.2341  -16.5571 C   0  0  0  0  0  0  0  0  0  0  0  0
   16.5068   -9.7166  -16.3781 C   0  0  0  0  0  0  0  0  0  0  0  0
   17.7559  -10.5488  -16.4041 C   0  0  2  0  0  0  0  0  0  0  0  0
   17.5182  -11.9545  -16.1760 N   0  0  0  0  0  0  0  0  0  0  0  0
   18.7355  -10.0841  -15.3884 C   0  0  0  0  0  0  0  0  0  0  0  0
   18.5828  -10.3017  -14.1589 O   0  0  0  0  0  0  0  0  0  0  0  0
   24.4463  -10.6674  -14.2738 C   0  0  0  0  0  0  0  0  0  0  0  0
   23.3114   -9.7161  -14.1292 C   0  0  0  0  0  0  0  0  0  0  0  0
   22.1494   -9.9922  -15.0332 C   0  0  2  0  0  0  0  0  0  0  0  0
   22.6268   -9.9001  -16.4669 C   0  0  0  0  0  0  0  0  0  0  0  0
   20.9847   -9.0809  -14.8300 C   0  0  2  0  0  0  0  0  0  0  0  0
   19.9110   -9.3596  -15.7630 N   0  0  0  0  0  0  0  0  0  0  0  0
   21.4398   -7.6811  -15.0394 C   0  0  0  0  0  0  0  0  0  0  0  0
   22.1061   -7.0134  -14.0258 O   0  0  0  0  0  0  0  0  0  0  0  0
   21.2482   -7.0506  -16.1165 O   0  0  0  0  0  0  0  0  0  0  0  0
  2  1  1  1
  2  4  1  0
  3  2  1  0
  4  5  1  1
  6 13  1  0
  6  4  1  0
  7  6  2  0
  8  9  1  0
  9 10  1  0
 11 10  1  0
 12 11  1  1
 12 13  1  0
 14 15  2  0
 14 12  1  0
 16 17  1  0
 17 18  1  0
 18 20  1  0
 18 19  1  6
 20 21  1  6
 20 22  1  0
 21 14  1  0
 22 23  1  0
 24 22  2  0
M  END
$$$$
