TMI.pdb
     RDKit          3D

 24 23  0  0  1  0  0  0  0  0999 V2000
   29.2774  -21.4569  -17.0986 C   0  0  0  0  0  0  0  0  0  0  0  0
   28.3255  -21.9645  -16.0565 C   0  0  1  0  0  0  0  0  0  0  0  0
   29.0593  -22.2305  -14.8876 O   0  0  0  0  0  0  0  0  0  0  0  0
   27.2572  -20.9236  -15.7687 C   0  0  2  0  0  0  0  0  0  0  0  0
   27.9135  -19.7125  -15.3723 N   0  0  0  0  0  0  0  0  0  0  0  0
   26.4031  -21.4385  -14.6698 C   0  0  0  0  0  0  0  0  0  0  0  0
   25.7177  -22.4771  -14.7399 O   0  0  0  0  0  0  0  0  0  0  0  0
   27.2495  -21.2467   -7.9983 C   0  0  0  0  0  0  0  0  0  0  0  0
   25.6835  -20.4117   -8.3285 S   0  0  0  0  0  0  0  0  0  0  0  0
   24.9792  -20.9644   -9.9049 C   0  0  0  0  0  0  0  0  0  0  0  0
   25.9581  -20.5983  -11.0167 C   0  0  0  0  0  0  0  0  0  0  0  0
   25.4644  -21.0618  -12.3564 C   0  0  2  0  0  0  0  0  0  0  0  0
   26.3457  -20.7182  -13.4473 N   0  0  0  0  0  0  0  0  0  0  0  0
   24.1240  -20.4987  -12.6622 C   0  0  0  0  0  0  0  0  0  0  0  0
   23.9261  -19.2622  -12.7818 O   0  0  0  0  0  0  0  0  0  0  0  0
   21.7339  -21.8134  -16.8932 C   0  0  0  0  0  0  0  0  0  0  0  0
   22.1062  -21.1063  -15.6380 C   0  0  0  0  0  0  0  0  0  0  0  0
   21.1855  -21.3611  -14.4842 C   0  0  2  0  0  0  0  0  0  0  0  0
   19.8338  -20.7626  -14.8103 C   0  0  0  0  0  0  0  0  0  0  0  0
   21.6738  -20.8234  -13.1802 C   0  0  2  0  0  0  0  0  0  0  0  0
   22.9825  -21.3434  -12.8369 N   0  0  0  0  0  0  0  0  0  0  0  0
   20.7142  -21.2227  -12.1171 C   0  0  0  0  0  0  0  0  0  0  0  0
   19.9373  -20.2617  -11.4926 O   0  0  0  0  0  0  0  0  0  0  0  0
   20.5637  -22.4189  -11.7418 O   0  0  0  0  0  0  0  0  0  0  0  0
  2  1  1  6
  2  4  1  0
  3  2  1  0
  4  5  1  1
  6 13  1  0
  6  4  1  0
  7  6  2  0
  8  9  1  0
  9 10  1  0
 11 10  1  0
 12 11  1  1
 12 13  1  0
 14 15  2  0
 14 12  1  0
 16 17  1  0
 17 18  1  0
 18 20  1  0
 18 19  1  6
 20 21  1  1
 20 22  1  0
 21 14  1  0
 22 23  1  0
 24 22  2  0
M  END
$$$$
