TMI.pdb
     RDKit          3D

 24 23  0  0  1  0  0  0  0  0999 V2000
   24.7609  -19.3662  -18.1383 C   0  0  0  0  0  0  0  0  0  0  0  0
   24.7847  -19.1691  -16.6516 C   0  0  1  0  0  0  0  0  0  0  0  0
   25.7116  -18.1534  -16.3607 O   0  0  0  0  0  0  0  0  0  0  0  0
   23.4072  -18.7681  -16.1524 C   0  0  2  0  0  0  0  0  0  0  0  0
   23.0390  -17.5445  -16.8018 N   0  0  0  0  0  0  0  0  0  0  0  0
   23.4928  -18.5746  -14.6836 C   0  0  0  0  0  0  0  0  0  0  0  0
   23.3909  -17.4713  -14.1128 O   0  0  0  0  0  0  0  0  0  0  0  0
   19.7469  -20.6226  -10.5176 C   0  0  0  0  0  0  0  0  0  0  0  0
   21.2014  -20.9966   -9.5159 S   0  0  0  0  0  0  0  0  0  0  0  0
   22.6845  -20.2313  -10.2236 C   0  0  0  0  0  0  0  0  0  0  0  0
   22.5864  -20.3221  -11.7437 C   0  0  0  0  0  0  0  0  0  0  0  0
   23.7471  -19.6418  -12.4096 C   0  0  2  0  0  0  0  0  0  0  0  0
   23.7044  -19.7056  -13.8514 N   0  0  0  0  0  0  0  0  0  0  0  0
   25.0404  -20.2249  -11.9682 C   0  0  0  0  0  0  0  0  0  0  0  0
   25.7112  -21.0002  -12.6970 O   0  0  0  0  0  0  0  0  0  0  0  0
   27.1964  -18.3926   -6.9996 C   0  0  0  0  0  0  0  0  0  0  0  0
   27.1075  -18.6667   -8.4594 C   0  0  0  0  0  0  0  0  0  0  0  0
   27.1586  -20.1187   -8.8237 C   0  0  2  0  0  0  0  0  0  0  0  0
   28.5172  -20.6615   -8.4347 C   0  0  0  0  0  0  0  0  0  0  0  0
   26.8983  -20.3981  -10.2668 C   0  0  2  0  0  0  0  0  0  0  0  0
   25.5904  -19.9301  -10.6808 N   0  0  0  0  0  0  0  0  0  0  0  0
   26.9626  -21.8680  -10.4810 C   0  0  0  0  0  0  0  0  0  0  0  0
   28.1449  -22.4527  -10.9022 O   0  0  0  0  0  0  0  0  0  0  0  0
   25.9750  -22.6327  -10.2960 O   0  0  0  0  0  0  0  0  0  0  0  0
  2  1  1  6
  2  4  1  0
  3  2  1  0
  4  5  1  6
  6 13  1  0
  6  4  1  0
  7  6  2  0
  8  9  1  0
  9 10  1  0
 11 10  1  0
 12 11  1  1
 12 13  1  0
 14 15  2  0
 14 12  1  0
 16 17  1  0
 17 18  1  0
 18 20  1  0
 18 19  1  6
 20 21  1  1
 20 22  1  0
 21 14  1  0
 22 23  1  0
 24 22  2  0
M  END
$$$$
