TMI.pdb
     RDKit          3D

 24 23  0  0  1  0  0  0  0  0999 V2000
   28.5968  -18.6465  -16.1340 C   0  0  0  0  0  0  0  0  0  0  0  0
   27.5695  -19.3497  -15.2973 C   0  0  1  0  0  0  0  0  0  0  0  0
   26.4473  -19.6023  -16.1050 O   0  0  0  0  0  0  0  0  0  0  0  0
   28.1291  -20.6592  -14.7685 C   0  0  2  0  0  0  0  0  0  0  0  0
   28.3476  -21.5311  -15.8849 N   0  0  0  0  0  0  0  0  0  0  0  0
   27.1286  -21.2407  -13.8396 C   0  0  0  0  0  0  0  0  0  0  0  0
   26.3426  -22.1605  -14.1391 O   0  0  0  0  0  0  0  0  0  0  0  0
   27.3405  -20.2915   -7.4590 C   0  0  0  0  0  0  0  0  0  0  0  0
   25.5756  -20.6573   -7.5593 S   0  0  0  0  0  0  0  0  0  0  0  0
   25.0963  -21.0548   -9.2618 C   0  0  0  0  0  0  0  0  0  0  0  0
   26.2570  -20.6846  -10.1806 C   0  0  0  0  0  0  0  0  0  0  0  0
   25.9648  -21.0493  -11.6071 C   0  0  2  0  0  0  0  0  0  0  0  0
   27.0410  -20.7331  -12.5162 N   0  0  0  0  0  0  0  0  0  0  0  0
   24.7405  -20.3664  -12.0991 C   0  0  0  0  0  0  0  0  0  0  0  0
   24.6954  -19.1240  -12.2908 O   0  0  0  0  0  0  0  0  0  0  0  0
   21.1847  -22.7923  -15.6692 C   0  0  0  0  0  0  0  0  0  0  0  0
   21.5873  -22.3466  -14.3079 C   0  0  0  0  0  0  0  0  0  0  0  0
   21.9407  -20.8944  -14.2081 C   0  0  2  0  0  0  0  0  0  0  0  0
   23.0708  -20.6101  -15.1745 C   0  0  0  0  0  0  0  0  0  0  0  0
   22.3267  -20.4504  -12.8362 C   0  0  2  0  0  0  0  0  0  0  0  0
   23.5423  -21.0955  -12.3812 N   0  0  0  0  0  0  0  0  0  0  0  0
   21.2269  -20.8032  -11.9001 C   0  0  0  0  0  0  0  0  0  0  0  0
   20.0248  -20.1187  -11.9587 O   0  0  0  0  0  0  0  0  0  0  0  0
   21.3296  -21.7149  -11.0325 O   0  0  0  0  0  0  0  0  0  0  0  0
  2  1  1  6
  2  4  1  0
  3  2  1  0
  4  5  1  6
  6 13  1  0
  6  4  1  0
  7  6  2  0
  8  9  1  0
  9 10  1  0
 11 10  1  0
 12 11  1  1
 12 13  1  0
 14 15  2  0
 14 12  1  0
 16 17  1  0
 17 18  1  0
 18 20  1  0
 18 19  1  6
 20 21  1  1
 20 22  1  0
 21 14  1  0
 22 23  1  0
 24 22  2  0
M  END
$$$$
