SWY.pdb
     RDKit          3D

 33 35  0  0  1  0  0  0  0  0999 V2000
   25.9047  -18.9596  -15.2190 O   0  0  0  0  0  0  0  0  0  0  0  0
   26.4475  -20.1051  -15.7765 C   0  0  0  0  0  0  0  0  0  0  0  0
   27.3260  -20.7416  -14.6984 C   0  0  2  0  0  0  0  0  0  0  0  0
   27.9894  -21.8600  -15.3350 N   0  0  0  0  0  0  0  0  0  0  0  0
   26.4319  -21.2469  -13.6459 C   0  0  0  0  0  0  0  0  0  0  0  0
   25.7832  -22.3070  -13.8434 O   0  0  0  0  0  0  0  0  0  0  0  0
   26.2786  -20.5597  -12.3918 N   0  0  0  0  0  0  0  0  0  0  0  0
   25.3098  -20.9973  -11.4482 C   0  0  1  0  0  0  0  0  0  0  0  0
   25.5878  -20.5543  -10.0162 C   0  0  0  0  0  0  0  0  0  0  0  0
   26.9579  -20.8781   -9.5668 C   0  0  0  0  0  0  0  0  0  0  0  0
   27.8950  -21.6089  -10.2687 C   0  0  0  0  0  0  0  0  0  0  0  0
   29.0335  -21.6817   -9.5638 N   0  0  0  0  0  0  0  0  0  0  0  0
   28.8568  -21.0101   -8.4105 C   0  0  0  0  0  0  0  0  0  0  0  0
   29.6697  -20.7649   -7.3290 C   0  0  0  0  0  0  0  0  0  0  0  0
   29.2438  -20.0370   -6.2401 C   0  0  0  0  0  0  0  0  0  0  0  0
   27.9656  -19.5215   -6.1994 C   0  0  0  0  0  0  0  0  0  0  0  0
   27.1569  -19.7753   -7.2952 C   0  0  0  0  0  0  0  0  0  0  0  0
   27.5700  -20.5019   -8.3925 C   0  0  0  0  0  0  0  0  0  0  0  0
   23.9349  -20.5354  -11.7698 C   0  0  0  0  0  0  0  0  0  0  0  0
   23.7035  -19.3060  -11.6829 O   0  0  0  0  0  0  0  0  0  0  0  0
   23.9020  -18.4900  -17.8799 O   0  0  0  0  0  0  0  0  0  0  0  0
   23.2311  -19.1871  -16.8785 C   0  0  0  0  0  0  0  0  0  0  0  0
   23.6450  -20.4834  -16.6320 C   0  0  0  0  0  0  0  0  0  0  0  0
   23.0123  -21.2135  -15.6514 C   0  0  0  0  0  0  0  0  0  0  0  0
   21.9667  -20.6494  -14.9166 C   0  0  0  0  0  0  0  0  0  0  0  0
   21.2548  -21.4071  -13.8688 C   0  0  0  0  0  0  0  0  0  0  0  0
   21.5461  -20.9490  -12.4619 C   0  0  2  0  0  0  0  0  0  0  0  0
   22.9058  -21.4226  -12.1614 N   0  0  0  0  0  0  0  0  0  0  0  0
   20.5604  -21.5436  -11.5497 C   0  0  0  0  0  0  0  0  0  0  0  0
   20.9260  -22.6107  -10.7571 O   0  0  0  0  0  0  0  0  0  0  0  0
   21.5753  -19.3533  -15.1851 C   0  0  0  0  0  0  0  0  0  0  0  0
   22.2021  -18.6076  -16.1683 C   0  0  0  0  0  0  0  0  0  0  0  0
   19.4036  -21.0901  -11.4902 O   0  0  0  0  0  0  0  0  0  0  0  0
  2  1  1  0
  3  2  1  0
  3  4  1  6
  5  6  2  0
  5  3  1  0
  7  5  1  0
  8  9  1  1
  8  7  1  0
 10  9  1  0
 10 18  1  0
 11 12  1  0
 11 10  2  0
 12 13  1  0
 13 18  2  0
 13 14  1  0
 14 15  2  0
 15 16  1  0
 17 16  2  0
 18 17  1  0
 19  8  1  0
 20 19  2  0
 22 21  1  0
 22 23  2  0
 24 23  1  0
 25 24  2  0
 26 25  1  0
 27 26  1  6
 27 28  1  0
 28 19  1  0
 29 27  1  0
 29 30  1  0
 31 32  2  0
 31 25  1  0
 32 22  1  0
 33 29  2  0
M  END
$$$$
