SWY.pdb
     RDKit          3D

 33 35  0  0  1  0  0  0  0  0999 V2000
   26.5841  -19.3058  -14.9121 O   0  0  0  0  0  0  0  0  0  0  0  0
   27.9311  -19.6213  -14.9719 C   0  0  0  0  0  0  0  0  0  0  0  0
   28.0559  -21.0858  -14.5490 C   0  0  2  0  0  0  0  0  0  0  0  0
   27.3462  -21.8514  -15.5522 N   0  0  0  0  0  0  0  0  0  0  0  0
   27.3683  -21.2294  -13.2571 C   0  0  0  0  0  0  0  0  0  0  0  0
   26.2464  -21.7981  -13.2147 O   0  0  0  0  0  0  0  0  0  0  0  0
   27.9457  -20.7358  -12.0359 N   0  0  0  0  0  0  0  0  0  0  0  0
   27.2403  -20.8594  -10.8080 C   0  0  1  0  0  0  0  0  0  0  0  0
   27.9542  -20.2392   -9.6122 C   0  0  0  0  0  0  0  0  0  0  0  0
   27.2492  -20.4714   -8.3343 C   0  0  0  0  0  0  0  0  0  0  0  0
   26.0352  -21.1088   -8.1767 C   0  0  0  0  0  0  0  0  0  0  0  0
   25.7150  -21.1583   -6.8754 N   0  0  0  0  0  0  0  0  0  0  0  0
   26.7004  -20.5628   -6.1776 C   0  0  0  0  0  0  0  0  0  0  0  0
   26.8956  -20.3265   -4.8373 C   0  0  0  0  0  0  0  0  0  0  0  0
   28.0120  -19.6752   -4.3614 C   0  0  0  0  0  0  0  0  0  0  0  0
   28.9869  -19.2316   -5.2296 C   0  0  0  0  0  0  0  0  0  0  0  0
   28.7784  -19.4762   -6.5772 C   0  0  0  0  0  0  0  0  0  0  0  0
   27.6659  -20.1275   -7.0680 C   0  0  0  0  0  0  0  0  0  0  0  0
   25.8871  -20.2477  -10.8508 C   0  0  0  0  0  0  0  0  0  0  0  0
   25.7990  -19.0689  -11.2692 O   0  0  0  0  0  0  0  0  0  0  0  0
   22.4657  -17.1268  -16.1338 O   0  0  0  0  0  0  0  0  0  0  0  0
   22.6232  -18.1014  -15.1518 C   0  0  0  0  0  0  0  0  0  0  0  0
   21.7878  -18.0243  -14.0525 C   0  0  0  0  0  0  0  0  0  0  0  0
   21.9052  -18.9654  -13.0547 C   0  0  0  0  0  0  0  0  0  0  0  0
   22.8564  -19.9836  -13.1547 C   0  0  0  0  0  0  0  0  0  0  0  0
   23.0218  -21.0003  -12.0974 C   0  0  0  0  0  0  0  0  0  0  0  0
   23.3754  -20.4391  -10.7432 C   0  0  2  0  0  0  0  0  0  0  0  0
   24.7247  -20.9419  -10.4427 N   0  0  0  0  0  0  0  0  0  0  0  0
   22.3970  -20.9145   -9.7561 C   0  0  0  0  0  0  0  0  0  0  0  0
   21.1068  -20.4300   -9.7913 O   0  0  0  0  0  0  0  0  0  0  0  0
   23.6766  -20.0349  -14.2637 C   0  0  0  0  0  0  0  0  0  0  0  0
   23.5698  -19.0953  -15.2743 C   0  0  0  0  0  0  0  0  0  0  0  0
   22.7268  -21.7480   -8.8937 O   0  0  0  0  0  0  0  0  0  0  0  0
  2  1  1  0
  3  2  1  0
  3  4  1  6
  5  6  2  0
  5  3  1  0
  7  5  1  0
  8  9  1  1
  8  7  1  0
 10  9  1  0
 10 18  1  0
 11 12  1  0
 11 10  2  0
 12 13  1  0
 13 18  2  0
 13 14  1  0
 14 15  2  0
 15 16  1  0
 17 16  2  0
 18 17  1  0
 19  8  1  0
 20 19  2  0
 22 21  1  0
 22 23  2  0
 24 23  1  0
 25 24  2  0
 26 25  1  0
 27 26  1  6
 27 28  1  0
 28 19  1  0
 29 27  1  0
 29 30  1  0
 31 32  2  0
 31 25  1  0
 32 22  1  0
 33 29  2  0
M  END
$$$$
