SWY.pdb
     RDKit          3D

 33 35  0  0  1  0  0  0  0  0999 V2000
   30.5331  -32.1285  -23.6413 O   0  0  0  0  0  0  0  0  0  0  0  0
   31.6227  -32.3607  -22.8187 C   0  0  0  0  0  0  0  0  0  0  0  0
   31.8388  -31.0815  -22.0086 C   0  0  2  0  0  0  0  0  0  0  0  0
   32.6613  -30.2222  -22.8339 N   0  0  0  0  0  0  0  0  0  0  0  0
   32.5890  -31.4500  -20.7988 C   0  0  0  0  0  0  0  0  0  0  0  0
   33.8185  -31.1903  -20.7317 O   0  0  0  0  0  0  0  0  0  0  0  0
   31.9529  -32.1016  -19.6855 N   0  0  0  0  0  0  0  0  0  0  0  0
   32.6949  -32.4016  -18.5108 C   0  0  1  0  0  0  0  0  0  0  0  0
   32.1362  -31.7703  -17.2406 C   0  0  0  0  0  0  0  0  0  0  0  0
   32.0785  -30.2950  -17.3057 C   0  0  0  0  0  0  0  0  0  0  0  0
   33.1318  -29.4494  -17.5893 C   0  0  0  0  0  0  0  0  0  0  0  0
   32.7057  -28.1778  -17.5852 N   0  0  0  0  0  0  0  0  0  0  0  0
   31.3894  -28.1771  -17.3029 C   0  0  0  0  0  0  0  0  0  0  0  0
   30.4556  -27.1770  -17.1668 C   0  0  0  0  0  0  0  0  0  0  0  0
   29.1385  -27.4388  -16.8607 C   0  0  0  0  0  0  0  0  0  0  0  0
   28.7067  -28.7354  -16.6779 C   0  0  0  0  0  0  0  0  0  0  0  0
   29.6572  -29.7336  -16.8182 C   0  0  0  0  0  0  0  0  0  0  0  0
   30.9790  -29.4864  -17.1249 C   0  0  0  0  0  0  0  0  0  0  0  0
   32.7964  -33.8596  -18.2438 C   0  0  0  0  0  0  0  0  0  0  0  0
   31.7697  -34.5543  -18.4329 O   0  0  0  0  0  0  0  0  0  0  0  0
   33.8378  -42.2051  -18.5788 O   0  0  0  0  0  0  0  0  0  0  0  0
   33.7831  -40.8149  -18.6333 C   0  0  0  0  0  0  0  0  0  0  0  0
   34.8898  -40.1637  -19.1465 C   0  0  0  0  0  0  0  0  0  0  0  0
   34.8834  -38.7890  -19.2210 C   0  0  0  0  0  0  0  0  0  0  0  0
   33.7720  -38.0647  -18.7834 C   0  0  0  0  0  0  0  0  0  0  0  0
   33.7356  -36.5899  -18.8332 C   0  0  0  0  0  0  0  0  0  0  0  0
   34.0700  -35.9141  -17.5273 C   0  0  2  0  0  0  0  0  0  0  0  0
   33.9899  -34.4697  -17.7934 N   0  0  0  0  0  0  0  0  0  0  0  0
   35.4246  -36.3064  -17.1168 C   0  0  0  0  0  0  0  0  0  0  0  0
   35.6425  -37.5724  -16.6164 O   0  0  0  0  0  0  0  0  0  0  0  0
   32.6818  -38.7421  -18.2757 C   0  0  0  0  0  0  0  0  0  0  0  0
   32.6745  -40.1238  -18.1946 C   0  0  0  0  0  0  0  0  0  0  0  0
   36.3704  -35.5049  -17.2186 O   0  0  0  0  0  0  0  0  0  0  0  0
  2  1  1  0
  3  2  1  0
  3  4  1  6
  5  6  2  0
  5  3  1  0
  7  5  1  0
  8  9  1  1
  8  7  1  0
 10  9  1  0
 10 18  1  0
 11 12  1  0
 11 10  2  0
 12 13  1  0
 13 18  2  0
 13 14  1  0
 14 15  2  0
 15 16  1  0
 17 16  2  0
 18 17  1  0
 19  8  1  0
 20 19  2  0
 22 21  1  0
 22 23  2  0
 24 23  1  0
 25 24  2  0
 26 25  1  0
 27 26  1  6
 27 28  1  0
 28 19  1  0
 29 27  1  0
 29 30  1  0
 31 32  2  0
 31 25  1  0
 32 22  1  0
 33 29  2  0
M  END
$$$$
