SWY.pdb
     RDKit          3D

 33 35  0  0  1  0  0  0  0  0999 V2000
   27.6100  -18.7266  -14.7839 O   0  0  0  0  0  0  0  0  0  0  0  0
   28.9251  -18.9937  -14.4422 C   0  0  0  0  0  0  0  0  0  0  0  0
   29.0389  -20.5119  -14.2962 C   0  0  2  0  0  0  0  0  0  0  0  0
   28.6008  -21.0669  -15.5596 N   0  0  0  0  0  0  0  0  0  0  0  0
   28.1030  -20.9222  -13.2389 C   0  0  0  0  0  0  0  0  0  0  0  0
   27.0280  -21.4955  -13.5543 O   0  0  0  0  0  0  0  0  0  0  0  0
   28.3844  -20.6855  -11.8484 N   0  0  0  0  0  0  0  0  0  0  0  0
   27.5041  -21.1749  -10.8453 C   0  0  1  0  0  0  0  0  0  0  0  0
   28.1312  -21.2773   -9.4596 C   0  0  0  0  0  0  0  0  0  0  0  0
   27.1558  -21.0766   -8.3676 C   0  0  0  0  0  0  0  0  0  0  0  0
   25.7989  -21.3209   -8.4311 C   0  0  0  0  0  0  0  0  0  0  0  0
   25.2335  -21.0479   -7.2461 N   0  0  0  0  0  0  0  0  0  0  0  0
   26.1991  -20.6281   -6.4070 C   0  0  0  0  0  0  0  0  0  0  0  0
   26.1939  -20.2180   -5.0946 C   0  0  0  0  0  0  0  0  0  0  0  0
   27.3415  -19.8208   -4.4449 C   0  0  0  0  0  0  0  0  0  0  0  0
   28.5539  -19.8218   -5.1016 C   0  0  0  0  0  0  0  0  0  0  0  0
   28.5454  -20.2374   -6.4233 C   0  0  0  0  0  0  0  0  0  0  0  0
   27.4044  -20.6383   -7.0864 C   0  0  0  0  0  0  0  0  0  0  0  0
   26.2807  -20.3461  -10.6908 C   0  0  0  0  0  0  0  0  0  0  0  0
   26.4301  -19.1030  -10.6217 O   0  0  0  0  0  0  0  0  0  0  0  0
   22.7171  -23.8739  -15.8375 O   0  0  0  0  0  0  0  0  0  0  0  0
   22.9509  -22.8299  -14.9462 C   0  0  0  0  0  0  0  0  0  0  0  0
   24.2562  -22.3895  -14.8253 C   0  0  0  0  0  0  0  0  0  0  0  0
   24.5377  -21.3593  -13.9566 C   0  0  0  0  0  0  0  0  0  0  0  0
   23.5161  -20.7688  -13.2089 C   0  0  0  0  0  0  0  0  0  0  0  0
   23.7828  -19.6732  -12.2563 C   0  0  0  0  0  0  0  0  0  0  0  0
   23.7751  -20.0917  -10.8076 C   0  0  2  0  0  0  0  0  0  0  0  0
   24.9847  -20.9075  -10.6214 N   0  0  0  0  0  0  0  0  0  0  0  0
   22.5595  -20.8713  -10.5395 C   0  0  0  0  0  0  0  0  0  0  0  0
   21.3300  -20.2494  -10.5861 O   0  0  0  0  0  0  0  0  0  0  0  0
   22.2228  -21.2297  -13.3505 C   0  0  0  0  0  0  0  0  0  0  0  0
   21.9252  -22.2647  -14.2199 C   0  0  0  0  0  0  0  0  0  0  0  0
   22.6352  -22.0838  -10.2723 O   0  0  0  0  0  0  0  0  0  0  0  0
  2  1  1  0
  3  2  1  0
  3  4  1  6
  5  6  2  0
  5  3  1  0
  7  5  1  0
  8  9  1  1
  8  7  1  0
 10  9  1  0
 10 18  1  0
 11 12  1  0
 11 10  2  0
 12 13  1  0
 13 18  2  0
 13 14  1  0
 14 15  2  0
 15 16  1  0
 17 16  2  0
 18 17  1  0
 19  8  1  0
 20 19  2  0
 22 21  1  0
 22 23  2  0
 24 23  1  0
 25 24  2  0
 26 25  1  0
 27 26  1  6
 27 28  1  0
 28 19  1  0
 29 27  1  0
 29 30  1  0
 31 32  2  0
 31 25  1  0
 32 22  1  0
 33 29  2  0
M  END
$$$$
