SWY.pdb
     RDKit          3D

 33 35  0  0  1  0  0  0  0  0999 V2000
   27.0004  -19.0484  -16.2754 O   0  0  0  0  0  0  0  0  0  0  0  0
   28.3542  -19.3150  -16.1583 C   0  0  0  0  0  0  0  0  0  0  0  0
   28.4862  -20.8253  -15.9566 C   0  0  2  0  0  0  0  0  0  0  0  0
   27.9716  -21.4344  -17.1650 N   0  0  0  0  0  0  0  0  0  0  0  0
   27.6222  -21.1939  -14.8252 C   0  0  0  0  0  0  0  0  0  0  0  0
   26.5007  -21.7186  -15.0502 O   0  0  0  0  0  0  0  0  0  0  0  0
   28.0261  -20.9704  -13.4631 N   0  0  0  0  0  0  0  0  0  0  0  0
   27.1968  -21.3967  -12.3902 C   0  0  1  0  0  0  0  0  0  0  0  0
   27.8931  -21.4217  -11.0341 C   0  0  0  0  0  0  0  0  0  0  0  0
   27.0136  -20.9966   -9.9252 C   0  0  0  0  0  0  0  0  0  0  0  0
   25.6342  -21.0438   -9.9142 C   0  0  0  0  0  0  0  0  0  0  0  0
   25.1751  -20.6003   -8.7348 N   0  0  0  0  0  0  0  0  0  0  0  0
   26.2325  -20.2627   -7.9727 C   0  0  0  0  0  0  0  0  0  0  0  0
   26.3532  -19.7563   -6.7002 C   0  0  0  0  0  0  0  0  0  0  0  0
   27.5775  -19.4823   -6.1319 C   0  0  0  0  0  0  0  0  0  0  0  0
   28.7420  -19.7115   -6.8338 C   0  0  0  0  0  0  0  0  0  0  0  0
   28.6066  -20.2221   -8.1145 C   0  0  0  0  0  0  0  0  0  0  0  0
   27.3875  -20.5018   -8.6960 C   0  0  0  0  0  0  0  0  0  0  0  0
   25.9843  -20.5547  -12.2226 C   0  0  0  0  0  0  0  0  0  0  0  0
   26.1553  -19.3269  -12.0332 O   0  0  0  0  0  0  0  0  0  0  0  0
   22.0575  -21.6960  -18.1482 O   0  0  0  0  0  0  0  0  0  0  0  0
   22.3831  -21.0973  -16.9339 C   0  0  0  0  0  0  0  0  0  0  0  0
   23.7140  -20.7846  -16.7262 C   0  0  0  0  0  0  0  0  0  0  0  0
   24.0856  -20.1913  -15.5408 C   0  0  0  0  0  0  0  0  0  0  0  0
   23.1284  -19.9101  -14.5630 C   0  0  0  0  0  0  0  0  0  0  0  0
   23.4920  -19.2894  -13.2741 C   0  0  0  0  0  0  0  0  0  0  0  0
   23.4859  -20.2382  -12.1021 C   0  0  2  0  0  0  0  0  0  0  0  0
   24.6752  -21.0873  -12.2698 N   0  0  0  0  0  0  0  0  0  0  0  0
   22.2525  -21.0352  -12.1359 C   0  0  0  0  0  0  0  0  0  0  0  0
   21.0461  -20.4315  -11.8518 O   0  0  0  0  0  0  0  0  0  0  0  0
   21.8074  -20.2338  -14.7985 C   0  0  0  0  0  0  0  0  0  0  0  0
   21.4195  -20.8308  -15.9855 C   0  0  0  0  0  0  0  0  0  0  0  0
   22.2927  -22.2458  -12.4186 O   0  0  0  0  0  0  0  0  0  0  0  0
  2  1  1  0
  3  2  1  0
  3  4  1  6
  5  6  2  0
  5  3  1  0
  7  5  1  0
  8  9  1  1
  8  7  1  0
 10  9  1  0
 10 18  1  0
 11 12  1  0
 11 10  2  0
 12 13  1  0
 13 18  2  0
 13 14  1  0
 14 15  2  0
 15 16  1  0
 17 16  2  0
 18 17  1  0
 19  8  1  0
 20 19  2  0
 22 21  1  0
 22 23  2  0
 24 23  1  0
 25 24  2  0
 26 25  1  0
 27 26  1  6
 27 28  1  0
 28 19  1  0
 29 27  1  0
 29 30  1  0
 31 32  2  0
 31 25  1  0
 32 22  1  0
 33 29  2  0
M  END
$$$$
