SWY.pdb
     RDKit          3D

 33 35  0  0  1  0  0  0  0  0999 V2000
   29.8102  -35.2303    5.2076 O   0  0  0  0  0  0  0  0  0  0  0  0
   28.4575  -35.0678    5.4558 C   0  0  0  0  0  0  0  0  0  0  0  0
   28.0446  -33.7572    4.7844 C   0  0  2  0  0  0  0  0  0  0  0  0
   29.1315  -33.4063    3.8946 N   0  0  0  0  0  0  0  0  0  0  0  0
   27.9374  -32.7386    5.8395 C   0  0  0  0  0  0  0  0  0  0  0  0
   28.9242  -32.5201    6.5892 O   0  0  0  0  0  0  0  0  0  0  0  0
   26.7304  -31.9820    6.0383 N   0  0  0  0  0  0  0  0  0  0  0  0
   26.6475  -31.0270    7.0878 C   0  0  1  0  0  0  0  0  0  0  0  0
   26.3513  -29.6071    6.6186 C   0  0  0  0  0  0  0  0  0  0  0  0
   25.1679  -29.5249    5.7372 C   0  0  0  0  0  0  0  0  0  0  0  0
   25.0659  -30.0356    4.4590 C   0  0  0  0  0  0  0  0  0  0  0  0
   23.8398  -29.7953    3.9716 N   0  0  0  0  0  0  0  0  0  0  0  0
   23.1368  -29.1347    4.9107 C   0  0  0  0  0  0  0  0  0  0  0  0
   21.8543  -28.6411    4.9538 C   0  0  0  0  0  0  0  0  0  0  0  0
   21.3584  -27.9802    6.0558 C   0  0  0  0  0  0  0  0  0  0  0  0
   22.1466  -27.7893    7.1709 C   0  0  0  0  0  0  0  0  0  0  0  0
   23.4365  -28.2917    7.1147 C   0  0  0  0  0  0  0  0  0  0  0  0
   23.9462  -28.9559    6.0185 C   0  0  0  0  0  0  0  0  0  0  0  0
   25.6083  -31.3599    8.0960 C   0  0  0  0  0  0  0  0  0  0  0  0
   24.6480  -32.0741    7.7215 O   0  0  0  0  0  0  0  0  0  0  0  0
   27.6016  -36.9517   10.5875 O   0  0  0  0  0  0  0  0  0  0  0  0
   27.0906  -35.6788   10.8274 C   0  0  0  0  0  0  0  0  0  0  0  0
   25.8580  -35.6053   11.4501 C   0  0  0  0  0  0  0  0  0  0  0  0
   25.3109  -34.3688   11.7087 C   0  0  0  0  0  0  0  0  0  0  0  0
   25.9946  -33.2058   11.3459 C   0  0  0  0  0  0  0  0  0  0  0  0
   25.4321  -31.8636   11.5929 C   0  0  0  0  0  0  0  0  0  0  0  0
   24.6615  -31.2877   10.4316 C   0  0  2  0  0  0  0  0  0  0  0  0
   25.6714  -30.9045    9.4332 N   0  0  0  0  0  0  0  0  0  0  0  0
   23.8983  -30.1208   10.8933 C   0  0  0  0  0  0  0  0  0  0  0  0
   22.7968  -30.3063   11.7013 O   0  0  0  0  0  0  0  0  0  0  0  0
   27.2231  -33.3104   10.7256 C   0  0  0  0  0  0  0  0  0  0  0  0
   27.7851  -34.5469   10.4591 C   0  0  0  0  0  0  0  0  0  0  0  0
   24.2407  -28.9724   10.5598 O   0  0  0  0  0  0  0  0  0  0  0  0
  2  1  1  0
  3  2  1  0
  3  4  1  6
  5  6  2  0
  5  3  1  0
  7  5  1  0
  8  9  1  6
  8  7  1  0
 10  9  1  0
 10 18  1  0
 11 12  1  0
 11 10  2  0
 12 13  1  0
 13 18  2  0
 13 14  1  0
 14 15  2  0
 15 16  1  0
 17 16  2  0
 18 17  1  0
 19  8  1  0
 20 19  2  0
 22 21  1  0
 22 23  2  0
 24 23  1  0
 25 24  2  0
 26 25  1  0
 27 26  1  1
 27 28  1  0
 28 19  1  0
 29 27  1  0
 29 30  1  0
 31 32  2  0
 31 25  1  0
 32 22  1  0
 33 29  2  0
M  END
$$$$
