SWY.pdb
     RDKit          3D

 33 35  0  0  1  0  0  0  0  0999 V2000
   27.0105  -24.8553  -18.8924 O   0  0  0  0  0  0  0  0  0  0  0  0
   28.2262  -24.1979  -18.8061 C   0  0  0  0  0  0  0  0  0  0  0  0
   28.8346  -24.5800  -17.4559 C   0  0  2  0  0  0  0  0  0  0  0  0
   28.5860  -25.9971  -17.2944 N   0  0  0  0  0  0  0  0  0  0  0  0
   28.1000  -23.8404  -16.4187 C   0  0  0  0  0  0  0  0  0  0  0  0
   27.4897  -24.4775  -15.5213 O   0  0  0  0  0  0  0  0  0  0  0  0
   28.0603  -22.4028  -16.4021 N   0  0  0  0  0  0  0  0  0  0  0  0
   27.4536  -21.7148  -15.3162 C   0  0  1  0  0  0  0  0  0  0  0  0
   27.9994  -20.3105  -15.0831 C   0  0  0  0  0  0  0  0  0  0  0  0
   27.2958  -19.5893  -14.0020 C   0  0  0  0  0  0  0  0  0  0  0  0
   26.8734  -18.2758  -14.0384 C   0  0  0  0  0  0  0  0  0  0  0  0
   26.2515  -17.9680  -12.8907 N   0  0  0  0  0  0  0  0  0  0  0  0
   26.2603  -19.0595  -12.1027 C   0  0  0  0  0  0  0  0  0  0  0  0
   25.7793  -19.3136  -10.8399 C   0  0  0  0  0  0  0  0  0  0  0  0
   25.9221  -20.5418  -10.2330 C   0  0  0  0  0  0  0  0  0  0  0  0
   26.5633  -21.5741  -10.8844 C   0  0  0  0  0  0  0  0  0  0  0  0
   27.0428  -21.3052  -12.1561 C   0  0  0  0  0  0  0  0  0  0  0  0
   26.9066  -20.0807  -12.7763 C   0  0  0  0  0  0  0  0  0  0  0  0
   25.9826  -21.5724  -15.4672 C   0  0  0  0  0  0  0  0  0  0  0  0
   25.5446  -21.2770  -16.6045 O   0  0  0  0  0  0  0  0  0  0  0  0
   17.4282  -21.4493  -13.0736 O   0  0  0  0  0  0  0  0  0  0  0  0
   18.8122  -21.5939  -13.1230 C   0  0  0  0  0  0  0  0  0  0  0  0
   19.5648  -20.6637  -12.4298 C   0  0  0  0  0  0  0  0  0  0  0  0
   20.9376  -20.7646  -12.4486 C   0  0  0  0  0  0  0  0  0  0  0  0
   21.5589  -21.7945  -13.1591 C   0  0  0  0  0  0  0  0  0  0  0  0
   23.0281  -21.9250  -13.2148 C   0  0  0  0  0  0  0  0  0  0  0  0
   23.6365  -21.5546  -14.5440 C   0  0  2  0  0  0  0  0  0  0  0  0
   25.0853  -21.7565  -14.3899 N   0  0  0  0  0  0  0  0  0  0  0  0
   23.3222  -20.1509  -14.8413 C   0  0  0  0  0  0  0  0  0  0  0  0
   23.8345  -19.1554  -14.0368 O   0  0  0  0  0  0  0  0  0  0  0  0
   20.7816  -22.7083  -13.8417 C   0  0  0  0  0  0  0  0  0  0  0  0
   19.4005  -22.6189  -13.8318 C   0  0  0  0  0  0  0  0  0  0  0  0
   22.5997  -19.8592  -15.8109 O   0  0  0  0  0  0  0  0  0  0  0  0
  2  1  1  0
  3  2  1  0
  3  4  1  1
  5  6  2  0
  5  3  1  0
  7  5  1  0
  8  9  1  6
  8  7  1  0
 10  9  1  0
 10 18  1  0
 11 12  1  0
 11 10  2  0
 12 13  1  0
 13 18  2  0
 13 14  1  0
 14 15  2  0
 15 16  1  0
 17 16  2  0
 18 17  1  0
 19  8  1  0
 20 19  2  0
 22 21  1  0
 22 23  2  0
 24 23  1  0
 25 24  2  0
 26 25  1  0
 27 26  1  1
 27 28  1  0
 28 19  1  0
 29 27  1  0
 29 30  1  0
 31 32  2  0
 31 25  1  0
 32 22  1  0
 33 29  2  0
M  END
$$$$
