SWY.pdb
     RDKit          3D

 33 35  0  0  1  0  0  0  0  0999 V2000
   27.0839  -18.5735  -13.6359 O   0  0  0  0  0  0  0  0  0  0  0  0
   28.3789  -18.7555  -13.1804 C   0  0  0  0  0  0  0  0  0  0  0  0
   28.5819  -20.2642  -13.0324 C   0  0  2  0  0  0  0  0  0  0  0  0
   28.5983  -20.7973  -14.3784 N   0  0  0  0  0  0  0  0  0  0  0  0
   27.4122  -20.7961  -12.3174 C   0  0  0  0  0  0  0  0  0  0  0  0
   26.5467  -21.4530  -12.9523 O   0  0  0  0  0  0  0  0  0  0  0  0
   27.2302  -20.5854  -10.9063 N   0  0  0  0  0  0  0  0  0  0  0  0
   26.0514  -21.0454  -10.2589 C   0  0  1  0  0  0  0  0  0  0  0  0
   26.1179  -21.0035   -8.7364 C   0  0  0  0  0  0  0  0  0  0  0  0
   27.4946  -20.8475   -8.2223 C   0  0  0  0  0  0  0  0  0  0  0  0
   28.6587  -21.1118   -8.9150 C   0  0  0  0  0  0  0  0  0  0  0  0
   29.7189  -20.8334   -8.1424 N   0  0  0  0  0  0  0  0  0  0  0  0
   29.2675  -20.3910   -6.9537 C   0  0  0  0  0  0  0  0  0  0  0  0
   29.8950  -19.9747   -5.8033 C   0  0  0  0  0  0  0  0  0  0  0  0
   29.1935  -19.5648   -4.6912 C   0  0  0  0  0  0  0  0  0  0  0  0
   27.8147  -19.5585   -4.6963 C   0  0  0  0  0  0  0  0  0  0  0  0
   27.1947  -19.9799   -5.8615 C   0  0  0  0  0  0  0  0  0  0  0  0
   27.8841  -20.3924   -6.9827 C   0  0  0  0  0  0  0  0  0  0  0  0
   24.8387  -20.2794  -10.6461 C   0  0  0  0  0  0  0  0  0  0  0  0
   24.9288  -19.0289  -10.6706 O   0  0  0  0  0  0  0  0  0  0  0  0
   19.8685  -17.6067  -16.9436 O   0  0  0  0  0  0  0  0  0  0  0  0
   20.7250  -18.1593  -15.9949 C   0  0  0  0  0  0  0  0  0  0  0  0
   20.6108  -19.5179  -15.7633 C   0  0  0  0  0  0  0  0  0  0  0  0
   21.4358  -20.1106  -14.8342 C   0  0  0  0  0  0  0  0  0  0  0  0
   22.3750  -19.3470  -14.1368 C   0  0  0  0  0  0  0  0  0  0  0  0
   23.2652  -19.9450  -13.1225 C   0  0  0  0  0  0  0  0  0  0  0  0
   22.5983  -20.2349  -11.8014 C   0  0  2  0  0  0  0  0  0  0  0  0
   23.6162  -20.9069  -10.9794 N   0  0  0  0  0  0  0  0  0  0  0  0
   21.4376  -21.1055  -12.0304 C   0  0  0  0  0  0  0  0  0  0  0  0
   20.1682  -20.5694  -11.9894 O   0  0  0  0  0  0  0  0  0  0  0  0
   22.4659  -17.9931  -14.3892 C   0  0  0  0  0  0  0  0  0  0  0  0
   21.6427  -17.3838  -15.3202 C   0  0  0  0  0  0  0  0  0  0  0  0
   21.5955  -22.3178  -12.2600 O   0  0  0  0  0  0  0  0  0  0  0  0
  2  1  1  0
  3  2  1  0
  3  4  1  6
  5  6  2  0
  5  3  1  0
  7  5  1  0
  8  9  1  1
  8  7  1  0
 10  9  1  0
 10 18  1  0
 11 12  1  0
 11 10  2  0
 12 13  1  0
 13 18  2  0
 13 14  1  0
 14 15  2  0
 15 16  1  0
 17 16  2  0
 18 17  1  0
 19  8  1  0
 20 19  2  0
 22 21  1  0
 22 23  2  0
 24 23  1  0
 25 24  2  0
 26 25  1  0
 27 26  1  6
 27 28  1  0
 28 19  1  0
 29 27  1  0
 29 30  1  0
 31 32  2  0
 31 25  1  0
 32 22  1  0
 33 29  2  0
M  END
$$$$
