SWY.pdb
     RDKit          3D

 33 35  0  0  1  0  0  0  0  0999 V2000
   28.4952  -26.2905  -19.3411 O   0  0  0  0  0  0  0  0  0  0  0  0
   27.8564  -25.6092  -18.3186 C   0  0  0  0  0  0  0  0  0  0  0  0
   28.9204  -25.3101  -17.2615 C   0  0  2  0  0  0  0  0  0  0  0  0
   29.0129  -26.5003  -16.4424 N   0  0  0  0  0  0  0  0  0  0  0  0
   28.4218  -24.1971  -16.4399 C   0  0  0  0  0  0  0  0  0  0  0  0
   27.7999  -24.4463  -15.3746 O   0  0  0  0  0  0  0  0  0  0  0  0
   28.6269  -22.8259  -16.8225 N   0  0  0  0  0  0  0  0  0  0  0  0
   28.1650  -21.7719  -15.9879 C   0  0  1  0  0  0  0  0  0  0  0  0
   28.6215  -20.3841  -16.4238 C   0  0  0  0  0  0  0  0  0  0  0  0
   28.0123  -19.2988  -15.6269 C   0  0  0  0  0  0  0  0  0  0  0  0
   27.9247  -19.2482  -14.2505 C   0  0  0  0  0  0  0  0  0  0  0  0
   27.3314  -18.1053  -13.8760 N   0  0  0  0  0  0  0  0  0  0  0  0
   27.0285  -17.4062  -14.9860 C   0  0  0  0  0  0  0  0  0  0  0  0
   26.4203  -16.1914  -15.1976 C   0  0  0  0  0  0  0  0  0  0  0  0
   26.2144  -15.6834  -16.4612 C   0  0  0  0  0  0  0  0  0  0  0  0
   26.6193  -16.3896  -17.5741 C   0  0  0  0  0  0  0  0  0  0  0  0
   27.2310  -17.6118  -17.3472 C   0  0  0  0  0  0  0  0  0  0  0  0
   27.4442  -18.1326  -16.0879 C   0  0  0  0  0  0  0  0  0  0  0  0
   26.6837  -21.7140  -15.8907 C   0  0  0  0  0  0  0  0  0  0  0  0
   26.0313  -21.7916  -16.9589 O   0  0  0  0  0  0  0  0  0  0  0  0
   20.3553  -26.1794  -16.0028 O   0  0  0  0  0  0  0  0  0  0  0  0
   21.2722  -25.3037  -15.4272 C   0  0  0  0  0  0  0  0  0  0  0  0
   22.6119  -25.5605  -15.6542 C   0  0  0  0  0  0  0  0  0  0  0  0
   23.5568  -24.7229  -15.1059 C   0  0  0  0  0  0  0  0  0  0  0  0
   23.1641  -23.6287  -14.3314 C   0  0  0  0  0  0  0  0  0  0  0  0
   24.1490  -22.7185  -13.7147 C   0  0  0  0  0  0  0  0  0  0  0  0
   24.5382  -21.5446  -14.5775 C   0  0  2  0  0  0  0  0  0  0  0  0
   26.0066  -21.5771  -14.6569 N   0  0  0  0  0  0  0  0  0  0  0  0
   24.0655  -20.3062  -13.9448 C   0  0  0  0  0  0  0  0  0  0  0  0
   24.9721  -19.4689  -13.3302 O   0  0  0  0  0  0  0  0  0  0  0  0
   21.8195  -23.3975  -14.1218 C   0  0  0  0  0  0  0  0  0  0  0  0
   20.8586  -24.2315  -14.6666 C   0  0  0  0  0  0  0  0  0  0  0  0
   22.8570  -20.0120  -13.9616 O   0  0  0  0  0  0  0  0  0  0  0  0
  2  1  1  0
  3  2  1  0
  3  4  1  1
  5  6  2  0
  5  3  1  0
  7  5  1  0
  8  9  1  6
  8  7  1  0
 10  9  1  0
 10 18  1  0
 11 12  1  0
 11 10  2  0
 12 13  1  0
 13 18  2  0
 13 14  1  0
 14 15  2  0
 15 16  1  0
 17 16  2  0
 18 17  1  0
 19  8  1  0
 20 19  2  0
 22 21  1  0
 22 23  2  0
 24 23  1  0
 25 24  2  0
 26 25  1  0
 27 26  1  1
 27 28  1  0
 28 19  1  0
 29 27  1  0
 29 30  1  0
 31 32  2  0
 31 25  1  0
 32 22  1  0
 33 29  2  0
M  END
$$$$
