SWY.pdb
     RDKit          3D

 33 35  0  0  1  0  0  0  0  0999 V2000
   26.4650  -18.2417  -14.9284 O   0  0  0  0  0  0  0  0  0  0  0  0
   27.8413  -18.1534  -14.8042 C   0  0  0  0  0  0  0  0  0  0  0  0
   28.3720  -19.5878  -14.7945 C   0  0  2  0  0  0  0  0  0  0  0  0
   28.4775  -19.9823  -16.1835 N   0  0  0  0  0  0  0  0  0  0  0  0
   27.3614  -20.4249  -14.1310 C   0  0  0  0  0  0  0  0  0  0  0  0
   26.4964  -21.0170  -14.8273 O   0  0  0  0  0  0  0  0  0  0  0  0
   27.3351  -20.5862  -12.7021 N   0  0  0  0  0  0  0  0  0  0  0  0
   26.4233  -21.4954  -12.0998 C   0  0  1  0  0  0  0  0  0  0  0  0
   26.8834  -22.0411  -10.7526 C   0  0  0  0  0  0  0  0  0  0  0  0
   26.7546  -21.0581   -9.6567 C   0  0  0  0  0  0  0  0  0  0  0  0
   25.6317  -20.3139   -9.3563 C   0  0  0  0  0  0  0  0  0  0  0  0
   25.8712  -19.5452   -8.2838 N   0  0  0  0  0  0  0  0  0  0  0  0
   27.1339  -19.7739   -7.8769 C   0  0  0  0  0  0  0  0  0  0  0  0
   27.8989  -19.2707   -6.8512 C   0  0  0  0  0  0  0  0  0  0  0  0
   29.2003  -19.6699   -6.6415 C   0  0  0  0  0  0  0  0  0  0  0  0
   29.7879  -20.6038   -7.4683 C   0  0  0  0  0  0  0  0  0  0  0  0
   29.0064  -21.1032   -8.4976 C   0  0  0  0  0  0  0  0  0  0  0  0
   27.7020  -20.7132   -8.7192 C   0  0  0  0  0  0  0  0  0  0  0  0
   25.0779  -20.9065  -11.8755 C   0  0  0  0  0  0  0  0  0  0  0  0
   25.0131  -19.8584  -11.1901 O   0  0  0  0  0  0  0  0  0  0  0  0
   23.4132  -19.7750  -18.4271 O   0  0  0  0  0  0  0  0  0  0  0  0
   23.1973  -19.7249  -17.0524 C   0  0  0  0  0  0  0  0  0  0  0  0
   24.0972  -18.9893  -16.3030 C   0  0  0  0  0  0  0  0  0  0  0  0
   23.9259  -18.9098  -14.9393 C   0  0  0  0  0  0  0  0  0  0  0  0
   22.8561  -19.5644  -14.3241 C   0  0  0  0  0  0  0  0  0  0  0  0
   22.6500  -19.5146  -12.8633 C   0  0  0  0  0  0  0  0  0  0  0  0
   22.5777  -20.8660  -12.1979 C   0  0  2  0  0  0  0  0  0  0  0  0
   23.8979  -21.4819  -12.4010 N   0  0  0  0  0  0  0  0  0  0  0  0
   21.5163  -21.6578  -12.8334 C   0  0  0  0  0  0  0  0  0  0  0  0
   20.2012  -21.2701  -12.6891 O   0  0  0  0  0  0  0  0  0  0  0  0
   21.9742  -20.2914  -15.0979 C   0  0  0  0  0  0  0  0  0  0  0  0
   22.1342  -20.3802  -16.4698 C   0  0  0  0  0  0  0  0  0  0  0  0
   21.7985  -22.6711  -13.4974 O   0  0  0  0  0  0  0  0  0  0  0  0
  2  1  1  0
  3  2  1  0
  3  4  1  6
  5  6  2  0
  5  3  1  0
  7  5  1  0
  8  9  1  1
  8  7  1  0
 10  9  1  0
 10 18  1  0
 11 12  1  0
 11 10  2  0
 12 13  1  0
 13 18  2  0
 13 14  1  0
 14 15  2  0
 15 16  1  0
 17 16  2  0
 18 17  1  0
 19  8  1  0
 20 19  2  0
 22 21  1  0
 22 23  2  0
 24 23  1  0
 25 24  2  0
 26 25  1  0
 27 26  1  6
 27 28  1  0
 28 19  1  0
 29 27  1  0
 29 30  1  0
 31 32  2  0
 31 25  1  0
 32 22  1  0
 33 29  2  0
M  END
$$$$
