SWY.pdb
     RDKit          3D

 33 35  0  0  1  0  0  0  0  0999 V2000
   21.8048  -28.4220  -14.8810 O   0  0  0  0  0  0  0  0  0  0  0  0
   22.2426  -27.1085  -14.8584 C   0  0  0  0  0  0  0  0  0  0  0  0
   22.6791  -26.8181  -13.4216 C   0  0  2  0  0  0  0  0  0  0  0  0
   21.6016  -27.2871  -12.5761 N   0  0  0  0  0  0  0  0  0  0  0  0
   22.7983  -25.3587  -13.2859 C   0  0  0  0  0  0  0  0  0  0  0  0
   21.7622  -24.6695  -13.0978 O   0  0  0  0  0  0  0  0  0  0  0  0
   24.0720  -24.6952  -13.3621 N   0  0  0  0  0  0  0  0  0  0  0  0
   24.1447  -23.2761  -13.3241 C   0  0  1  0  0  0  0  0  0  0  0  0
   25.5651  -22.7242  -13.2796 C   0  0  0  0  0  0  0  0  0  0  0  0
   25.6190  -21.2549  -13.4293 C   0  0  0  0  0  0  0  0  0  0  0  0
   24.9883  -20.3293  -12.6229 C   0  0  0  0  0  0  0  0  0  0  0  0
   25.2803  -19.0894  -13.0422 N   0  0  0  0  0  0  0  0  0  0  0  0
   26.0926  -19.1883  -14.1114 C   0  0  0  0  0  0  0  0  0  0  0  0
   26.6887  -18.2589  -14.9308 C   0  0  0  0  0  0  0  0  0  0  0  0
   27.4916  -18.6209  -15.9896 C   0  0  0  0  0  0  0  0  0  0  0  0
   27.7276  -19.9509  -16.2664 C   0  0  0  0  0  0  0  0  0  0  0  0
   27.1215  -20.8771  -15.4333 C   0  0  0  0  0  0  0  0  0  0  0  0
   26.3156  -20.5292  -14.3692 C   0  0  0  0  0  0  0  0  0  0  0  0
   23.4803  -22.6287  -14.4846 C   0  0  0  0  0  0  0  0  0  0  0  0
   23.6532  -23.1480  -15.6128 O   0  0  0  0  0  0  0  0  0  0  0  0
   17.5446  -20.7573  -20.1702 O   0  0  0  0  0  0  0  0  0  0  0  0
   18.3744  -21.0585  -19.0933 C   0  0  0  0  0  0  0  0  0  0  0  0
   19.5406  -21.7467  -19.3739 C   0  0  0  0  0  0  0  0  0  0  0  0
   20.3937  -22.0676  -18.3422 C   0  0  0  0  0  0  0  0  0  0  0  0
   20.0826  -21.7011  -17.0306 C   0  0  0  0  0  0  0  0  0  0  0  0
   20.9651  -22.0418  -15.8975 C   0  0  0  0  0  0  0  0  0  0  0  0
   21.9015  -20.9351  -15.4824 C   0  0  2  0  0  0  0  0  0  0  0  0
   22.6782  -21.4714  -14.3543 N   0  0  0  0  0  0  0  0  0  0  0  0
   21.1117  -19.7646  -15.0776 C   0  0  0  0  0  0  0  0  0  0  0  0
   21.0428  -19.4203  -13.7445 O   0  0  0  0  0  0  0  0  0  0  0  0
   18.9113  -21.0149  -16.7810 C   0  0  0  0  0  0  0  0  0  0  0  0
   18.0442  -20.6858  -17.8084 C   0  0  0  0  0  0  0  0  0  0  0  0
   20.5086  -19.0871  -15.9287 O   0  0  0  0  0  0  0  0  0  0  0  0
  2  1  1  0
  3  2  1  0
  3  4  1  1
  5  6  2  0
  5  3  1  0
  7  5  1  0
  8  9  1  6
  8  7  1  0
 10  9  1  0
 10 18  1  0
 11 12  1  0
 11 10  2  0
 12 13  1  0
 13 18  2  0
 13 14  1  0
 14 15  2  0
 15 16  1  0
 17 16  2  0
 18 17  1  0
 19  8  1  0
 20 19  2  0
 22 21  1  0
 22 23  2  0
 24 23  1  0
 25 24  2  0
 26 25  1  0
 27 26  1  1
 27 28  1  0
 28 19  1  0
 29 27  1  0
 29 30  1  0
 31 32  2  0
 31 25  1  0
 32 22  1  0
 33 29  2  0
M  END
$$$$
