SWY.pdb
     RDKit          3D

 33 35  0  0  1  0  0  0  0  0999 V2000
   27.3487  -18.0606  -14.8705 O   0  0  0  0  0  0  0  0  0  0  0  0
   28.4312  -18.3504  -14.0570 C   0  0  0  0  0  0  0  0  0  0  0  0
   28.7515  -19.8311  -14.2673 C   0  0  2  0  0  0  0  0  0  0  0  0
   28.9415  -19.9985  -15.6928 N   0  0  0  0  0  0  0  0  0  0  0  0
   27.5711  -20.5995  -13.8447 C   0  0  0  0  0  0  0  0  0  0  0  0
   26.7688  -21.0271  -14.7148 O   0  0  0  0  0  0  0  0  0  0  0  0
   27.3081  -20.8771  -12.4582 N   0  0  0  0  0  0  0  0  0  0  0  0
   26.1450  -21.6016  -12.0801 C   0  0  1  0  0  0  0  0  0  0  0  0
   26.2227  -22.2280  -10.6924 C   0  0  0  0  0  0  0  0  0  0  0  0
   26.3181  -21.2257   -9.6105 C   0  0  0  0  0  0  0  0  0  0  0  0
   25.3799  -20.2594   -9.3091 C   0  0  0  0  0  0  0  0  0  0  0  0
   25.7901  -19.5439   -8.2516 N   0  0  0  0  0  0  0  0  0  0  0  0
   26.9830  -20.0263   -7.8556 C   0  0  0  0  0  0  0  0  0  0  0  0
   27.8510  -19.6810   -6.8467 C   0  0  0  0  0  0  0  0  0  0  0  0
   29.0431  -20.3408   -6.6456 C   0  0  0  0  0  0  0  0  0  0  0  0
   29.4105  -21.3876   -7.4643 C   0  0  0  0  0  0  0  0  0  0  0  0
   28.5272  -21.7257   -8.4766 C   0  0  0  0  0  0  0  0  0  0  0  0
   27.3301  -21.0745   -8.6894 C   0  0  0  0  0  0  0  0  0  0  0  0
   24.9125  -20.7722  -12.0965 C   0  0  0  0  0  0  0  0  0  0  0  0
   25.0371  -19.5476  -11.8567 O   0  0  0  0  0  0  0  0  0  0  0  0
   18.5197  -16.3733  -15.5134 O   0  0  0  0  0  0  0  0  0  0  0  0
   19.5877  -17.1520  -15.0754 C   0  0  0  0  0  0  0  0  0  0  0  0
   19.6098  -18.4727  -15.4846 C   0  0  0  0  0  0  0  0  0  0  0  0
   20.6456  -19.2829  -15.0774 C   0  0  0  0  0  0  0  0  0  0  0  0
   21.6594  -18.7743  -14.2619 C   0  0  0  0  0  0  0  0  0  0  0  0
   22.7768  -19.6171  -13.7928 C   0  0  0  0  0  0  0  0  0  0  0  0
   22.4586  -20.4554  -12.5804 C   0  0  2  0  0  0  0  0  0  0  0  0
   23.6346  -21.3130  -12.3683 N   0  0  0  0  0  0  0  0  0  0  0  0
   21.2570  -21.2555  -12.8519 C   0  0  0  0  0  0  0  0  0  0  0  0
   20.0342  -20.8245  -12.3832 O   0  0  0  0  0  0  0  0  0  0  0  0
   21.6105  -17.4520  -13.8692 C   0  0  0  0  0  0  0  0  0  0  0  0
   20.5751  -16.6260  -14.2708 C   0  0  0  0  0  0  0  0  0  0  0  0
   21.3387  -22.3142  -13.4996 O   0  0  0  0  0  0  0  0  0  0  0  0
  2  1  1  0
  3  2  1  0
  3  4  1  6
  5  6  2  0
  5  3  1  0
  7  5  1  0
  8  9  1  1
  8  7  1  0
 10  9  1  0
 10 18  1  0
 11 12  1  0
 11 10  2  0
 12 13  1  0
 13 18  2  0
 13 14  1  0
 14 15  2  0
 15 16  1  0
 17 16  2  0
 18 17  1  0
 19  8  1  0
 20 19  2  0
 22 21  1  0
 22 23  2  0
 24 23  1  0
 25 24  2  0
 26 25  1  0
 27 26  1  6
 27 28  1  0
 28 19  1  0
 29 27  1  0
 29 30  1  0
 31 32  2  0
 31 25  1  0
 32 22  1  0
 33 29  2  0
M  END
$$$$
