CAL.pdb
     RDKit          3D

 20 19  0  0  1  0  0  0  0  0999 V2000
    6.6700  -19.7075   21.7766 N   0  0  0  0  0  0  0  0  0  0  0  0
    6.3383  -18.5314   22.5721 C   0  0  1  0  0  0  0  0  0  0  0  0
    6.4354  -18.9707   24.0381 C   0  0  0  0  0  0  0  0  0  0  0  0
    5.9419  -17.6574   25.1520 S   0  0  0  0  0  0  0  0  0  0  0  0
    7.3476  -17.4818   22.2784 C   0  0  0  0  0  0  0  0  0  0  0  0
    8.5904  -17.7527   22.1882 O   0  0  0  0  0  0  0  0  0  0  0  0
    7.3174  -13.7796   21.4072 C   0  0  0  0  0  0  0  0  0  0  0  0
    7.9592  -15.0633   21.9405 C   0  0  2  0  0  0  0  0  0  0  0  0
    6.9986  -16.1183   22.0801 N   0  0  0  0  0  0  0  0  0  0  0  0
    8.5986  -14.7976   23.2730 C   0  0  0  0  0  0  0  0  0  0  0  0
    9.7790  -14.3379   23.3410 O   0  0  0  0  0  0  0  0  0  0  0  0
    5.7379  -12.5049   26.9661 C   0  0  0  0  0  0  0  0  0  0  0  0
    6.9308  -12.9081   26.1143 C   0  0  1  0  0  0  0  0  0  0  0  0
    7.9350  -11.7491   26.0655 C   0  0  0  0  0  0  0  0  0  0  0  0
    7.5589  -14.1293   26.7001 C   0  0  0  0  0  0  0  0  0  0  0  0
    8.5692  -14.7214   25.7823 C   0  0  2  0  0  0  0  0  0  0  0  0
    7.9244  -15.0441   24.4814 N   0  0  0  0  0  0  0  0  0  0  0  0
    9.2100  -15.9336   26.3104 C   0  0  0  0  0  0  0  0  0  0  0  0
   10.0271  -15.8826   27.4455 O   0  0  0  0  0  0  0  0  0  0  0  0
    9.0493  -17.0379   25.7708 O   0  0  0  0  0  0  0  0  0  0  0  0
  2  1  1  6
  3  2  1  0
  4  3  1  0
  5  6  2  0
  5  2  1  0
  8  7  1  1
  8  9  1  0
  9  5  1  0
 10  8  1  0
 11 10  2  0
 13 12  1  1
 13 14  1  0
 15 13  1  0
 16 15  1  1
 16 17  1  0
 17 10  1  0
 18 16  1  0
 19 18  1  0
 20 18  2  0
M  END
$$$$
