CAL.pdb
     RDKit          3D

 20 19  0  0  1  0  0  0  0  0999 V2000
    6.2996  -19.5729   21.6046 N   0  0  0  0  0  0  0  0  0  0  0  0
    6.1135  -18.4272   22.4871 C   0  0  1  0  0  0  0  0  0  0  0  0
    6.2006  -18.9752   23.9166 C   0  0  0  0  0  0  0  0  0  0  0  0
    5.7873  -17.7216   25.1276 S   0  0  0  0  0  0  0  0  0  0  0  0
    7.2199  -17.4695   22.2317 C   0  0  0  0  0  0  0  0  0  0  0  0
    8.4393  -17.8423   22.2135 O   0  0  0  0  0  0  0  0  0  0  0  0
    7.5418  -13.8223   21.2187 C   0  0  0  0  0  0  0  0  0  0  0  0
    8.0471  -15.1227   21.8494 C   0  0  2  0  0  0  0  0  0  0  0  0
    6.9954  -16.0864   21.9926 N   0  0  0  0  0  0  0  0  0  0  0  0
    8.6424  -14.8370   23.1980 C   0  0  0  0  0  0  0  0  0  0  0  0
    9.7351  -14.2003   23.2981 O   0  0  0  0  0  0  0  0  0  0  0  0
    5.4552  -12.8992   26.6277 C   0  0  0  0  0  0  0  0  0  0  0  0
    6.7754  -13.1534   25.9182 C   0  0  1  0  0  0  0  0  0  0  0  0
    7.6515  -11.8972   26.0101 C   0  0  0  0  0  0  0  0  0  0  0  0
    7.4546  -14.3211   26.5537 C   0  0  0  0  0  0  0  0  0  0  0  0
    8.5634  -14.8389   25.7075 C   0  0  2  0  0  0  0  0  0  0  0  0
    8.0217  -15.2574   24.3869 N   0  0  0  0  0  0  0  0  0  0  0  0
    9.2864  -15.9694   26.3061 C   0  0  0  0  0  0  0  0  0  0  0  0
    9.9675  -15.8293   27.5206 O   0  0  0  0  0  0  0  0  0  0  0  0
    9.3175  -17.0807   25.7579 O   0  0  0  0  0  0  0  0  0  0  0  0
  2  1  1  6
  3  2  1  0
  4  3  1  0
  5  6  2  0
  5  2  1  0
  8  7  1  1
  8  9  1  0
  9  5  1  0
 10  8  1  0
 11 10  2  0
 13 12  1  1
 13 14  1  0
 15 13  1  0
 16 15  1  1
 16 17  1  0
 17 10  1  0
 18 16  1  0
 19 18  1  0
 20 18  2  0
M  END
$$$$
