CAL.pdb
     RDKit          3D

 20 19  0  0  1  0  0  0  0  0999 V2000
    6.3864  -19.3439   21.2391 N   0  0  0  0  0  0  0  0  0  0  0  0
    6.1005  -18.2504   22.1601 C   0  0  1  0  0  0  0  0  0  0  0  0
    6.1169  -18.8649   23.5650 C   0  0  0  0  0  0  0  0  0  0  0  0
    5.4851  -17.7210   24.7903 S   0  0  0  0  0  0  0  0  0  0  0  0
    7.1836  -17.2430   22.0233 C   0  0  0  0  0  0  0  0  0  0  0  0
    8.4135  -17.5791   22.0003 O   0  0  0  0  0  0  0  0  0  0  0  0
    7.3910  -13.5241   21.2817 C   0  0  0  0  0  0  0  0  0  0  0  0
    7.9500  -14.8567   21.7874 C   0  0  2  0  0  0  0  0  0  0  0  0
    6.9237  -15.8502   21.9096 N   0  0  0  0  0  0  0  0  0  0  0  0
    8.6080  -14.6592   23.1227 C   0  0  0  0  0  0  0  0  0  0  0  0
    9.7594  -14.1324   23.2019 O   0  0  0  0  0  0  0  0  0  0  0  0
    5.7910  -12.5244   26.8271 C   0  0  0  0  0  0  0  0  0  0  0  0
    7.0249  -12.8930   26.0192 C   0  0  1  0  0  0  0  0  0  0  0  0
    8.0512  -11.7564   26.1124 C   0  0  0  0  0  0  0  0  0  0  0  0
    7.5946  -14.1664   26.5510 C   0  0  0  0  0  0  0  0  0  0  0  0
    8.6161  -14.7371   25.6321 C   0  0  2  0  0  0  0  0  0  0  0  0
    7.9836  -15.0445   24.3215 N   0  0  0  0  0  0  0  0  0  0  0  0
    9.2617  -15.9527   26.1466 C   0  0  0  0  0  0  0  0  0  0  0  0
   10.0548  -15.9167   27.2990 O   0  0  0  0  0  0  0  0  0  0  0  0
    9.1261  -17.0466   25.5796 O   0  0  0  0  0  0  0  0  0  0  0  0
  2  1  1  6
  3  2  1  0
  4  3  1  0
  5  6  2  0
  5  2  1  0
  8  7  1  1
  8  9  1  0
  9  5  1  0
 10  8  1  0
 11 10  2  0
 13 12  1  1
 13 14  1  0
 15 13  1  0
 16 15  1  1
 16 17  1  0
 17 10  1  0
 18 16  1  0
 19 18  1  0
 20 18  2  0
M  END
$$$$
