CAL.pdb
     RDKit          3D

 20 19  0  0  1  0  0  0  0  0999 V2000
    6.4055  -19.6813   21.8414 N   0  0  0  0  0  0  0  0  0  0  0  0
    6.2605  -18.5479   22.7472 C   0  0  1  0  0  0  0  0  0  0  0  0
    6.5884  -19.0803   24.1474 C   0  0  0  0  0  0  0  0  0  0  0  0
    6.3524  -17.8225   25.4009 S   0  0  0  0  0  0  0  0  0  0  0  0
    7.2454  -17.5118   22.3437 C   0  0  0  0  0  0  0  0  0  0  0  0
    8.4704  -17.7965   22.1326 O   0  0  0  0  0  0  0  0  0  0  0  0
    7.1701  -13.8431   21.3673 C   0  0  0  0  0  0  0  0  0  0  0  0
    7.8430  -15.1039   21.9167 C   0  0  2  0  0  0  0  0  0  0  0  0
    6.8915  -16.1464   22.1675 N   0  0  0  0  0  0  0  0  0  0  0  0
    8.5686  -14.7800   23.1908 C   0  0  0  0  0  0  0  0  0  0  0  0
    9.6679  -14.1474   23.1633 O   0  0  0  0  0  0  0  0  0  0  0  0
    5.7412  -12.6411   26.7825 C   0  0  0  0  0  0  0  0  0  0  0  0
    6.9465  -13.0031   25.9298 C   0  0  1  0  0  0  0  0  0  0  0  0
    7.8275  -11.7611   25.7422 C   0  0  0  0  0  0  0  0  0  0  0  0
    7.7089  -14.0972   26.6009 C   0  0  0  0  0  0  0  0  0  0  0  0
    8.7280  -14.6924   25.6949 C   0  0  2  0  0  0  0  0  0  0  0  0
    8.0662  -15.1594   24.4475 N   0  0  0  0  0  0  0  0  0  0  0  0
    9.4671  -15.8138   26.2910 C   0  0  0  0  0  0  0  0  0  0  0  0
    9.4816  -17.0739   25.6825 O   0  0  0  0  0  0  0  0  0  0  0  0
   10.1000  -15.6821   27.3486 O   0  0  0  0  0  0  0  0  0  0  0  0
  2  1  1  6
  3  2  1  0
  4  3  1  0
  5  6  2  0
  5  2  1  0
  8  7  1  1
  8  9  1  0
  9  5  1  0
 10  8  1  0
 11 10  2  0
 13 12  1  1
 13 14  1  0
 15 13  1  0
 16 15  1  1
 16 17  1  0
 17 10  1  0
 18 16  1  0
 19 18  1  0
 20 18  2  0
M  END
$$$$
