CAL.pdb
     RDKit          3D

 20 19  0  0  1  0  0  0  0  0999 V2000
    6.7591  -19.8166   23.0540 N   0  0  0  0  0  0  0  0  0  0  0  0
    6.1412  -18.4970   22.9985 C   0  0  1  0  0  0  0  0  0  0  0  0
    5.5303  -18.2570   24.3844 C   0  0  0  0  0  0  0  0  0  0  0  0
    6.6949  -18.6380   25.6911 S   0  0  0  0  0  0  0  0  0  0  0  0
    7.2108  -17.5031   22.7252 C   0  0  0  0  0  0  0  0  0  0  0  0
    8.4455  -17.7917   22.8605 O   0  0  0  0  0  0  0  0  0  0  0  0
    7.3677  -14.0512   21.1504 C   0  0  0  0  0  0  0  0  0  0  0  0
    7.9444  -15.2235   21.9488 C   0  0  2  0  0  0  0  0  0  0  0  0
    6.9318  -16.1762   22.2985 N   0  0  0  0  0  0  0  0  0  0  0  0
    8.5976  -14.7143   23.2014 C   0  0  0  0  0  0  0  0  0  0  0  0
    9.5676  -13.8993   23.1367 O   0  0  0  0  0  0  0  0  0  0  0  0
    5.4413  -12.9695   26.6826 C   0  0  0  0  0  0  0  0  0  0  0  0
    6.7103  -13.1239   25.8598 C   0  0  1  0  0  0  0  0  0  0  0  0
    7.3381  -11.7429   25.6306 C   0  0  0  0  0  0  0  0  0  0  0  0
    7.6564  -14.0226   26.5851 C   0  0  0  0  0  0  0  0  0  0  0  0
    8.7523  -14.4974   25.6979 C   0  0  2  0  0  0  0  0  0  0  0  0
    8.1666  -15.1146   24.4779 N   0  0  0  0  0  0  0  0  0  0  0  0
    9.6532  -15.4664   26.3368 C   0  0  0  0  0  0  0  0  0  0  0  0
    9.8600  -16.7346   25.7825 O   0  0  0  0  0  0  0  0  0  0  0  0
   10.2579  -15.1946   27.3841 O   0  0  0  0  0  0  0  0  0  0  0  0
  2  1  1  1
  3  2  1  0
  4  3  1  0
  5  6  2  0
  5  2  1  0
  8  7  1  1
  8  9  1  0
  9  5  1  0
 10  8  1  0
 11 10  2  0
 13 12  1  1
 13 14  1  0
 15 13  1  0
 16 15  1  1
 16 17  1  0
 17 10  1  0
 18 16  1  0
 19 18  1  0
 20 18  2  0
M  END
$$$$
