CAL.pdb
     RDKit          3D

 20 19  0  0  1  0  0  0  0  0999 V2000
    8.4660  -15.1282   17.8485 N   0  0  0  0  0  0  0  0  0  0  0  0
    8.8322  -14.4129   19.0651 C   0  0  1  0  0  0  0  0  0  0  0  0
    8.2132  -13.0158   18.9373 C   0  0  0  0  0  0  0  0  0  0  0  0
    8.5498  -12.0129   20.3830 S   0  0  0  0  0  0  0  0  0  0  0  0
    8.2389  -15.1383   20.2176 C   0  0  0  0  0  0  0  0  0  0  0  0
    7.0361  -15.5613   20.1969 O   0  0  0  0  0  0  0  0  0  0  0  0
    8.8579  -17.6425   22.4165 C   0  0  0  0  0  0  0  0  0  0  0  0
    8.4438  -16.1711   22.5043 C   0  0  2  0  0  0  0  0  0  0  0  0
    8.9657  -15.4070   21.4093 N   0  0  0  0  0  0  0  0  0  0  0  0
    8.9318  -15.5807   23.7958 C   0  0  0  0  0  0  0  0  0  0  0  0
   10.1736  -15.4290   24.0063 O   0  0  0  0  0  0  0  0  0  0  0  0
    5.5714  -12.3412   26.7245 C   0  0  0  0  0  0  0  0  0  0  0  0
    6.7602  -12.8998   25.9591 C   0  0  1  0  0  0  0  0  0  0  0  0
    7.7202  -11.7561   25.6067 C   0  0  0  0  0  0  0  0  0  0  0  0
    7.4443  -13.9260   26.8003 C   0  0  0  0  0  0  0  0  0  0  0  0
    8.5628  -14.5794   26.0684 C   0  0  2  0  0  0  0  0  0  0  0  0
    8.0449  -15.1780   24.8092 N   0  0  0  0  0  0  0  0  0  0  0  0
    9.2493  -15.6212   26.8445 C   0  0  0  0  0  0  0  0  0  0  0  0
   10.2596  -15.2949   27.7562 O   0  0  0  0  0  0  0  0  0  0  0  0
    8.9579  -16.8194   26.7185 O   0  0  0  0  0  0  0  0  0  0  0  0
  2  1  1  6
  3  2  1  0
  4  3  1  0
  5  6  2  0
  5  2  1  0
  8  7  1  6
  8  9  1  0
  9  5  1  0
 10  8  1  0
 11 10  2  0
 13 12  1  1
 13 14  1  0
 15 13  1  0
 16 15  1  1
 16 17  1  0
 17 10  1  0
 18 16  1  0
 19 18  1  0
 20 18  2  0
M  END
$$$$
