CAL.pdb
     RDKit          3D

 20 19  0  0  1  0  0  0  0  0999 V2000
    7.4350  -15.0544   18.8431 N   0  0  0  0  0  0  0  0  0  0  0  0
    8.3811  -14.5570   19.8348 C   0  0  1  0  0  0  0  0  0  0  0  0
    8.0496  -13.0724   20.0288 C   0  0  0  0  0  0  0  0  0  0  0  0
    8.9468  -12.0416   18.8705 S   0  0  0  0  0  0  0  0  0  0  0  0
    8.1559  -15.3068   21.0972 C   0  0  0  0  0  0  0  0  0  0  0  0
    6.9824  -15.5507   21.5325 O   0  0  0  0  0  0  0  0  0  0  0  0
    9.9280  -17.7940   23.1389 C   0  0  0  0  0  0  0  0  0  0  0  0
    9.0340  -16.5516   23.1014 C   0  0  2  0  0  0  0  0  0  0  0  0
    9.2236  -15.7980   21.8967 N   0  0  0  0  0  0  0  0  0  0  0  0
    9.3300  -15.6751   24.2842 C   0  0  0  0  0  0  0  0  0  0  0  0
   10.3861  -14.9730   24.3177 O   0  0  0  0  0  0  0  0  0  0  0  0
    5.5026  -12.7726   26.4383 C   0  0  0  0  0  0  0  0  0  0  0  0
    6.8644  -13.2369   25.9475 C   0  0  1  0  0  0  0  0  0  0  0  0
    7.7267  -12.0137   25.6096 C   0  0  0  0  0  0  0  0  0  0  0  0
    7.5105  -14.0639   27.0094 C   0  0  0  0  0  0  0  0  0  0  0  0
    8.7689  -14.6934   26.5258 C   0  0  2  0  0  0  0  0  0  0  0  0
    8.4612  -15.5985   25.3864 N   0  0  0  0  0  0  0  0  0  0  0  0
    9.4850  -15.4541   27.5590 C   0  0  0  0  0  0  0  0  0  0  0  0
    9.6702  -16.8361   27.4401 O   0  0  0  0  0  0  0  0  0  0  0  0
    9.9475  -14.8997   28.5667 O   0  0  0  0  0  0  0  0  0  0  0  0
  2  1  1  6
  3  2  1  0
  4  3  1  0
  5  6  2  0
  5  2  1  0
  8  7  1  6
  8  9  1  0
  9  5  1  0
 10  8  1  0
 11 10  2  0
 13 12  1  1
 13 14  1  0
 15 13  1  0
 16 15  1  1
 16 17  1  0
 17 10  1  0
 18 16  1  0
 19 18  1  0
 20 18  2  0
M  END
$$$$
