CAL.pdb
     RDKit          3D

 20 19  0  0  1  0  0  0  0  0999 V2000
    6.3412  -19.4916   21.5917 N   0  0  0  0  0  0  0  0  0  0  0  0
    6.2672  -18.3827   22.5355 C   0  0  1  0  0  0  0  0  0  0  0  0
    6.5884  -18.9764   23.9123 C   0  0  0  0  0  0  0  0  0  0  0  0
    6.4180  -17.7544   25.2111 S   0  0  0  0  0  0  0  0  0  0  0  0
    7.2974  -17.3847   22.1491 C   0  0  0  0  0  0  0  0  0  0  0  0
    8.5000  -17.7252   21.8964 O   0  0  0  0  0  0  0  0  0  0  0  0
    7.4304  -13.6958   21.2897 C   0  0  0  0  0  0  0  0  0  0  0  0
    8.0198  -14.9912   21.8541 C   0  0  2  0  0  0  0  0  0  0  0  0
    7.0140  -15.9964   22.0364 N   0  0  0  0  0  0  0  0  0  0  0  0
    8.6875  -14.7159   23.1706 C   0  0  0  0  0  0  0  0  0  0  0  0
    9.7689  -14.0543   23.2187 O   0  0  0  0  0  0  0  0  0  0  0  0
    5.8307  -12.6031   26.6484 C   0  0  0  0  0  0  0  0  0  0  0  0
    7.0821  -12.9869   25.8753 C   0  0  1  0  0  0  0  0  0  0  0  0
    8.0343  -11.7852   25.8211 C   0  0  0  0  0  0  0  0  0  0  0  0
    7.7340  -14.1499   26.5472 C   0  0  0  0  0  0  0  0  0  0  0  0
    8.7666  -14.7777   25.6793 C   0  0  2  0  0  0  0  0  0  0  0  0
    8.1489  -15.1736   24.3855 N   0  0  0  0  0  0  0  0  0  0  0  0
    9.4093  -15.9543   26.2806 C   0  0  0  0  0  0  0  0  0  0  0  0
   10.1712  -15.8429   27.4491 O   0  0  0  0  0  0  0  0  0  0  0  0
    9.2988  -17.0807   25.7752 O   0  0  0  0  0  0  0  0  0  0  0  0
  2  1  1  6
  3  2  1  0
  4  3  1  0
  5  6  2  0
  5  2  1  0
  8  7  1  1
  8  9  1  0
  9  5  1  0
 10  8  1  0
 11 10  2  0
 13 12  1  1
 13 14  1  0
 15 13  1  0
 16 15  1  1
 16 17  1  0
 17 10  1  0
 18 16  1  0
 19 18  1  0
 20 18  2  0
M  END
$$$$
