CAL.pdb
     RDKit          3D

 20 19  0  0  1  0  0  0  0  0999 V2000
    7.8944  -13.3963   18.6366 N   0  0  0  0  0  0  0  0  0  0  0  0
    8.8261  -14.3594   19.2113 C   0  0  1  0  0  0  0  0  0  0  0  0
   10.1359  -13.5960   19.4416 C   0  0  0  0  0  0  0  0  0  0  0  0
    9.8804  -12.1442   20.4595 S   0  0  0  0  0  0  0  0  0  0  0  0
    8.2631  -14.8233   20.5053 C   0  0  0  0  0  0  0  0  0  0  0  0
    7.4186  -14.1257   21.1582 O   0  0  0  0  0  0  0  0  0  0  0  0
    8.2832  -18.0744   22.4627 C   0  0  0  0  0  0  0  0  0  0  0  0
    8.0395  -16.5713   22.3031 C   0  0  2  0  0  0  0  0  0  0  0  0
    8.6248  -16.0643   21.0966 N   0  0  0  0  0  0  0  0  0  0  0  0
    8.6141  -15.8345   23.4786 C   0  0  0  0  0  0  0  0  0  0  0  0
    9.8395  -15.5067   23.4972 O   0  0  0  0  0  0  0  0  0  0  0  0
    5.7984  -12.1022   26.1389 C   0  0  0  0  0  0  0  0  0  0  0  0
    6.9051  -12.8901   25.4567 C   0  0  1  0  0  0  0  0  0  0  0  0
    8.0221  -11.9298   25.0277 C   0  0  0  0  0  0  0  0  0  0  0  0
    7.4263  -13.9203   26.4032 C   0  0  0  0  0  0  0  0  0  0  0  0
    8.4413  -14.7959   25.7578 C   0  0  2  0  0  0  0  0  0  0  0  0
    7.8285  -15.4833   24.5899 N   0  0  0  0  0  0  0  0  0  0  0  0
    9.0113  -15.8058   26.6602 C   0  0  0  0  0  0  0  0  0  0  0  0
    8.7105  -17.1638   26.5063 O   0  0  0  0  0  0  0  0  0  0  0  0
    9.7747  -15.4904   27.5844 O   0  0  0  0  0  0  0  0  0  0  0  0
  2  1  1  1
  3  2  1  0
  4  3  1  0
  5  6  2  0
  5  2  1  0
  8  7  1  1
  8  9  1  0
  9  5  1  0
 10  8  1  0
 11 10  2  0
 13 12  1  1
 13 14  1  0
 15 13  1  0
 16 15  1  1
 16 17  1  0
 17 10  1  0
 18 16  1  0
 19 18  1  0
 20 18  2  0
M  END
$$$$
