CAL.pdb
     RDKit          3D

 20 19  0  0  1  0  0  0  0  0999 V2000
    6.4223  -19.6133   21.9101 N   0  0  0  0  0  0  0  0  0  0  0  0
    6.2303  -18.5065   22.8396 C   0  0  1  0  0  0  0  0  0  0  0  0
    6.4760  -19.0820   24.2396 C   0  0  0  0  0  0  0  0  0  0  0  0
    6.2540  -17.8384   25.5098 S   0  0  0  0  0  0  0  0  0  0  0  0
    7.2405  -17.4643   22.5238 C   0  0  0  0  0  0  0  0  0  0  0  0
    8.4648  -17.7567   22.3194 O   0  0  0  0  0  0  0  0  0  0  0  0
    7.1811  -13.7918   21.5950 C   0  0  0  0  0  0  0  0  0  0  0  0
    7.8650  -15.0607   22.1112 C   0  0  2  0  0  0  0  0  0  0  0  0
    6.9130  -16.0844   22.4292 N   0  0  0  0  0  0  0  0  0  0  0  0
    8.6745  -14.7413   23.3348 C   0  0  0  0  0  0  0  0  0  0  0  0
    9.7471  -14.0705   23.2408 O   0  0  0  0  0  0  0  0  0  0  0  0
    6.0603  -13.0769   26.7095 C   0  0  0  0  0  0  0  0  0  0  0  0
    7.2561  -13.1569   25.7742 C   0  0  1  0  0  0  0  0  0  0  0  0
    7.5504  -11.7626   25.2057 C   0  0  0  0  0  0  0  0  0  0  0  0
    8.4327  -13.6806   26.5293 C   0  0  0  0  0  0  0  0  0  0  0  0
    9.0911  -14.8042   25.8099 C   0  0  2  0  0  0  0  0  0  0  0  0
    8.2820  -15.1667   24.6157 N   0  0  0  0  0  0  0  0  0  0  0  0
    9.2847  -16.0036   26.6365 C   0  0  0  0  0  0  0  0  0  0  0  0
   10.0880  -15.9693   27.7819 O   0  0  0  0  0  0  0  0  0  0  0  0
    8.7454  -17.0818   26.3483 O   0  0  0  0  0  0  0  0  0  0  0  0
  2  1  1  6
  3  2  1  0
  4  3  1  0
  5  6  2  0
  5  2  1  0
  8  7  1  1
  8  9  1  0
  9  5  1  0
 10  8  1  0
 11 10  2  0
 13 12  1  1
 13 14  1  0
 15 13  1  0
 16 15  1  1
 16 17  1  0
 17 10  1  0
 18 16  1  0
 19 18  1  0
 20 18  2  0
M  END
$$$$
