CAL.pdb
     RDKit          3D

 20 19  0  0  1  0  0  0  0  0999 V2000
    6.0721  -18.5263   21.7395 N   0  0  0  0  0  0  0  0  0  0  0  0
    7.4998  -18.7929   21.6118 C   0  0  1  0  0  0  0  0  0  0  0  0
    7.6794  -19.5006   20.2633 C   0  0  0  0  0  0  0  0  0  0  0  0
    9.3605  -20.0789   20.0431 S   0  0  0  0  0  0  0  0  0  0  0  0
    8.2098  -17.4881   21.6101 C   0  0  0  0  0  0  0  0  0  0  0  0
    9.4830  -17.4171   21.6013 O   0  0  0  0  0  0  0  0  0  0  0  0
    7.2386  -13.8388   21.2167 C   0  0  0  0  0  0  0  0  0  0  0  0
    8.1841  -14.9709   21.6275 C   0  0  2  0  0  0  0  0  0  0  0  0
    7.5237  -16.2433   21.6180 N   0  0  0  0  0  0  0  0  0  0  0  0
    8.7282  -14.7067   23.0019 C   0  0  0  0  0  0  0  0  0  0  0  0
    9.8347  -14.1047   23.1521 O   0  0  0  0  0  0  0  0  0  0  0  0
    5.7267  -12.5057   26.5734 C   0  0  0  0  0  0  0  0  0  0  0  0
    6.9946  -12.8979   25.8319 C   0  0  1  0  0  0  0  0  0  0  0  0
    8.0603  -11.8139   26.0395 C   0  0  0  0  0  0  0  0  0  0  0  0
    7.4725  -14.2161   26.3445 C   0  0  0  0  0  0  0  0  0  0  0  0
    8.5730  -14.7649   25.5071 C   0  0  2  0  0  0  0  0  0  0  0  0
    8.0430  -15.1102   24.1609 N   0  0  0  0  0  0  0  0  0  0  0  0
    9.2199  -15.9516   26.0835 C   0  0  0  0  0  0  0  0  0  0  0  0
    9.9123  -15.8787   27.2975 O   0  0  0  0  0  0  0  0  0  0  0  0
    9.1744  -17.0529   25.5164 O   0  0  0  0  0  0  0  0  0  0  0  0
  2  1  1  6
  3  2  1  0
  4  3  1  0
  5  6  2  0
  5  2  1  0
  8  7  1  1
  8  9  1  0
  9  5  1  0
 10  8  1  0
 11 10  2  0
 13 12  1  1
 13 14  1  0
 15 13  1  0
 16 15  1  1
 16 17  1  0
 17 10  1  0
 18 16  1  0
 19 18  1  0
 20 18  2  0
M  END
$$$$
