CAL.pdb
     RDKit          3D

 20 19  0  0  1  0  0  0  0  0999 V2000
    6.3912  -19.6252   22.0262 N   0  0  0  0  0  0  0  0  0  0  0  0
    5.8937  -18.2714   22.2402 C   0  0  1  0  0  0  0  0  0  0  0  0
    5.3833  -18.2315   23.6856 C   0  0  0  0  0  0  0  0  0  0  0  0
    6.7014  -18.5463   24.8572 S   0  0  0  0  0  0  0  0  0  0  0  0
    7.0326  -17.3336   22.0674 C   0  0  0  0  0  0  0  0  0  0  0  0
    8.2394  -17.7438   22.0276 O   0  0  0  0  0  0  0  0  0  0  0  0
    7.4590  -13.6484   21.2611 C   0  0  0  0  0  0  0  0  0  0  0  0
    7.9376  -14.9999   21.7982 C   0  0  2  0  0  0  0  0  0  0  0  0
    6.8549  -15.9294   21.9361 N   0  0  0  0  0  0  0  0  0  0  0  0
    8.6005  -14.8120   23.1324 C   0  0  0  0  0  0  0  0  0  0  0  0
    9.7352  -14.2509   23.2148 O   0  0  0  0  0  0  0  0  0  0  0  0
    5.8800  -12.5897   26.8241 C   0  0  0  0  0  0  0  0  0  0  0  0
    7.0945  -13.0189   26.0167 C   0  0  1  0  0  0  0  0  0  0  0  0
    8.1826  -11.9426   26.1249 C   0  0  0  0  0  0  0  0  0  0  0  0
    7.5896  -14.3275   26.5373 C   0  0  0  0  0  0  0  0  0  0  0  0
    8.6174  -14.9219   25.6407 C   0  0  2  0  0  0  0  0  0  0  0  0
    7.9987  -15.2440   24.3269 N   0  0  0  0  0  0  0  0  0  0  0  0
    9.2449  -16.1352   26.1823 C   0  0  0  0  0  0  0  0  0  0  0  0
    9.9782  -16.0987   27.3737 O   0  0  0  0  0  0  0  0  0  0  0  0
    9.1465  -17.2275   25.6046 O   0  0  0  0  0  0  0  0  0  0  0  0
  2  1  1  1
  3  2  1  0
  4  3  1  0
  5  6  2  0
  5  2  1  0
  8  7  1  1
  8  9  1  0
  9  5  1  0
 10  8  1  0
 11 10  2  0
 13 12  1  1
 13 14  1  0
 15 13  1  0
 16 15  1  1
 16 17  1  0
 17 10  1  0
 18 16  1  0
 19 18  1  0
 20 18  2  0
M  END
$$$$
