CAL.pdb
     RDKit          3D

 20 19  0  0  1  0  0  0  0  0999 V2000
    7.8540  -15.0199   17.3777 N   0  0  0  0  0  0  0  0  0  0  0  0
    8.6409  -14.4855   18.4827 C   0  0  1  0  0  0  0  0  0  0  0  0
    8.3362  -12.9834   18.5318 C   0  0  0  0  0  0  0  0  0  0  0  0
    9.1843  -12.1848   19.8927 S   0  0  0  0  0  0  0  0  0  0  0  0
    8.1834  -15.1474   19.7313 C   0  0  0  0  0  0  0  0  0  0  0  0
    6.9474  -15.2253   20.0353 O   0  0  0  0  0  0  0  0  0  0  0  0
    9.4723  -17.6888   22.0928 C   0  0  0  0  0  0  0  0  0  0  0  0
    8.6677  -16.4078   21.8560 C   0  0  2  0  0  0  0  0  0  0  0  0
    9.0844  -15.7329   20.6618 N   0  0  0  0  0  0  0  0  0  0  0  0
    8.8269  -15.4824   23.0278 C   0  0  0  0  0  0  0  0  0  0  0  0
    9.9032  -14.8316   23.1933 O   0  0  0  0  0  0  0  0  0  0  0  0
    7.8494  -11.6282   26.3365 C   0  0  0  0  0  0  0  0  0  0  0  0
    6.8695  -12.7617   26.5934 C   0  0  1  0  0  0  0  0  0  0  0  0
    5.5020  -12.1758   26.9686 C   0  0  0  0  0  0  0  0  0  0  0  0
    6.7659  -13.6055   25.3663 C   0  0  0  0  0  0  0  0  0  0  0  0
    8.0055  -14.3959   25.1369 C   0  0  2  0  0  0  0  0  0  0  0  0
    7.8042  -15.3025   23.9751 N   0  0  0  0  0  0  0  0  0  0  0  0
    8.4217  -15.1942   26.2981 C   0  0  0  0  0  0  0  0  0  0  0  0
    9.3897  -14.7204   27.1907 O   0  0  0  0  0  0  0  0  0  0  0  0
    7.9315  -16.3098   26.5254 O   0  0  0  0  0  0  0  0  0  0  0  0
  2  1  1  6
  3  2  1  0
  4  3  1  0
  5  6  2  0
  5  2  1  0
  8  7  1  1
  8  9  1  0
  9  5  1  0
 10  8  1  0
 11 10  2  0
 13 12  1  6
 13 14  1  0
 15 13  1  0
 16 15  1  1
 16 17  1  0
 17 10  1  0
 18 16  1  0
 19 18  1  0
 20 18  2  0
M  END
$$$$
