NTV.pdb
     RDKit          3D

 23 22  0  0  1  0  0  0  0  0999 V2000
   20.2137  -20.6123   -9.7133 N   0  0  0  0  0  0  0  0  0  0  0  0
   21.0858  -21.1111  -10.7163 C   0  0  0  0  0  0  0  0  0  0  0  0
   20.8815  -22.2275  -11.2515 O   0  0  0  0  0  0  0  0  0  0  0  0
   22.2698  -20.2992  -11.1480 C   0  0  0  0  0  0  0  0  0  0  0  0
   23.5404  -20.9449  -10.6425 C   0  0  2  0  0  0  0  0  0  0  0  0
   23.5840  -20.8423   -9.1900 N   0  0  0  0  0  0  0  0  0  0  0  0
   24.6763  -20.2118  -11.2487 C   0  0  0  0  0  0  0  0  0  0  0  0
   25.0765  -19.1763  -10.6366 O   0  0  0  0  0  0  0  0  0  0  0  0
   28.1658  -21.1128  -11.8883 C   0  0  0  0  0  0  0  0  0  0  0  0
   27.5813  -20.6837  -13.1965 C   0  0  1  0  0  0  0  0  0  0  0  0
   27.2869  -21.7395  -14.0425 O   0  0  0  0  0  0  0  0  0  0  0  0
   26.3593  -19.8016  -12.9926 C   0  0  2  0  0  0  0  0  0  0  0  0
   25.3156  -20.6126  -12.4537 N   0  0  0  0  0  0  0  0  0  0  0  0
   25.9810  -19.1003  -14.2390 C   0  0  0  0  0  0  0  0  0  0  0  0
   24.9295  -19.4287  -14.8122 O   0  0  0  0  0  0  0  0  0  0  0  0
   26.5218  -15.0578  -14.8905 C   0  0  0  0  0  0  0  0  0  0  0  0
   26.9004  -15.9108  -16.0633 C   0  0  2  0  0  0  0  0  0  0  0  0
   26.5674  -15.2451  -17.3920 C   0  0  0  0  0  0  0  0  0  0  0  0
   26.3914  -17.3098  -15.9785 C   0  0  2  0  0  0  0  0  0  0  0  0
   26.7311  -18.0687  -14.8423 N   0  0  0  0  0  0  0  0  0  0  0  0
   26.8815  -18.0354  -17.1923 C   0  0  0  0  0  0  0  0  0  0  0  0
   26.0766  -18.2440  -18.3015 O   0  0  0  0  0  0  0  0  0  0  0  0
   28.0574  -18.4921  -17.2593 O   0  0  0  0  0  0  0  0  0  0  0  0
  2  1  1  0
  3  2  2  0
  4  2  1  0
  4  5  1  0
  5  6  1  1
  7  5  1  0
  7  8  2  0
 10  9  1  1
 10 12  1  0
 11 10  1  0
 12 14  1  0
 12 13  1  6
 13  7  1  0
 14 20  1  0
 15 14  2  0
 17 16  1  1
 17 18  1  0
 19 17  1  0
 19 20  1  1
 21 22  1  0
 21 19  1  0
 23 21  2  0
M  END
$$$$
