NTV.pdb
     RDKit          3D

 23 22  0  0  1  0  0  0  0  0999 V2000
   24.4031  -20.5781   -8.0774 N   0  0  0  0  0  0  0  0  0  0  0  0
   25.7719  -20.7745   -8.3983 C   0  0  0  0  0  0  0  0  0  0  0  0
   26.6233  -20.9728   -7.4982 O   0  0  0  0  0  0  0  0  0  0  0  0
   26.2151  -20.7460   -9.8302 C   0  0  0  0  0  0  0  0  0  0  0  0
   25.0528  -20.3529  -10.7142 C   0  0  2  0  0  0  0  0  0  0  0  0
   24.0289  -21.3867  -10.6461 N   0  0  0  0  0  0  0  0  0  0  0  0
   25.5744  -20.2294  -12.0955 C   0  0  0  0  0  0  0  0  0  0  0  0
   26.8112  -20.4545  -12.2587 O   0  0  0  0  0  0  0  0  0  0  0  0
   25.2785  -22.2747  -14.8410 C   0  0  0  0  0  0  0  0  0  0  0  0
   24.7997  -20.9494  -15.3426 C   0  0  1  0  0  0  0  0  0  0  0  0
   23.4211  -20.8590  -15.4338 O   0  0  0  0  0  0  0  0  0  0  0  0
   25.3591  -19.8081  -14.5075 C   0  0  2  0  0  0  0  0  0  0  0  0
   24.7660  -19.8787  -13.2113 N   0  0  0  0  0  0  0  0  0  0  0  0
   25.1692  -18.5019  -15.1756 C   0  0  0  0  0  0  0  0  0  0  0  0
   24.2205  -17.7834  -14.8210 O   0  0  0  0  0  0  0  0  0  0  0  0
   28.0915  -16.6546  -18.0140 C   0  0  0  0  0  0  0  0  0  0  0  0
   27.0839  -15.9690  -17.1416 C   0  0  2  0  0  0  0  0  0  0  0  0
   27.7026  -15.4333  -15.8571 C   0  0  0  0  0  0  0  0  0  0  0  0
   25.8548  -16.7761  -16.8937 C   0  0  2  0  0  0  0  0  0  0  0  0
   25.9932  -17.9950  -16.2027 N   0  0  0  0  0  0  0  0  0  0  0  0
   25.2326  -17.0585  -18.2252 C   0  0  0  0  0  0  0  0  0  0  0  0
   24.7072  -16.0527  -19.0215 O   0  0  0  0  0  0  0  0  0  0  0  0
   25.1586  -18.2330  -18.6844 O   0  0  0  0  0  0  0  0  0  0  0  0
  2  1  1  0
  3  2  2  0
  4  2  1  0
  4  5  1  0
  5  6  1  6
  7  5  1  0
  7  8  2  0
 10  9  1  1
 10 12  1  0
 11 10  1  0
 12 14  1  0
 12 13  1  1
 13  7  1  0
 14 20  1  0
 15 14  2  0
 17 16  1  1
 17 18  1  0
 19 17  1  0
 19 20  1  6
 21 22  1  0
 21 19  1  0
 23 21  2  0
M  END
$$$$
