NTV.pdb
     RDKit          3D

 23 22  0  0  1  0  0  0  0  0999 V2000
   15.7842  -16.1828  -14.4877 N   0  0  0  0  0  0  0  0  0  0  0  0
   15.4952  -14.7949  -14.5617 C   0  0  0  0  0  0  0  0  0  0  0  0
   14.3715  -14.3512  -14.2228 O   0  0  0  0  0  0  0  0  0  0  0  0
   16.5414  -13.8389  -15.0506 C   0  0  0  0  0  0  0  0  0  0  0  0
   15.9635  -12.9687  -16.1441 C   0  0  2  0  0  0  0  0  0  0  0  0
   15.7142  -13.7857  -17.3241 N   0  0  0  0  0  0  0  0  0  0  0  0
   16.9638  -11.9174  -16.4428 C   0  0  0  0  0  0  0  0  0  0  0  0
   17.9426  -12.2550  -17.1744 O   0  0  0  0  0  0  0  0  0  0  0  0
   16.3535   -8.7217  -18.1569 C   0  0  0  0  0  0  0  0  0  0  0  0
   17.0933   -8.4040  -16.8963 C   0  0  1  0  0  0  0  0  0  0  0  0
   16.2914   -7.8583  -15.9083 O   0  0  0  0  0  0  0  0  0  0  0  0
   17.8388   -9.6215  -16.3718 C   0  0  2  0  0  0  0  0  0  0  0  0
   16.8714  -10.5849  -15.9556 N   0  0  0  0  0  0  0  0  0  0  0  0
   18.8026   -9.2535  -15.3115 C   0  0  0  0  0  0  0  0  0  0  0  0
   18.4096   -9.2202  -14.1341 O   0  0  0  0  0  0  0  0  0  0  0  0
   23.2007   -9.0025  -15.9077 C   0  0  0  0  0  0  0  0  0  0  0  0
   22.4528   -9.2536  -14.6333 C   0  0  2  0  0  0  0  0  0  0  0  0
   22.3714  -10.7363  -14.2950 C   0  0  0  0  0  0  0  0  0  0  0  0
   21.1254   -8.5770  -14.5719 C   0  0  2  0  0  0  0  0  0  0  0  0
   20.1584   -8.9310  -15.5320 N   0  0  0  0  0  0  0  0  0  0  0  0
   21.3721   -7.1044  -14.6738 C   0  0  0  0  0  0  0  0  0  0  0  0
   22.0005   -6.3907  -13.6650 O   0  0  0  0  0  0  0  0  0  0  0  0
   21.0163   -6.4434  -15.6898 O   0  0  0  0  0  0  0  0  0  0  0  0
  2  1  1  0
  3  2  2  0
  4  2  1  0
  4  5  1  0
  5  6  1  6
  7  5  1  0
  7  8  2  0
 10  9  1  6
 10 12  1  0
 11 10  1  0
 12 14  1  0
 12 13  1  1
 13  7  1  0
 14 20  1  0
 15 14  2  0
 17 16  1  6
 17 18  1  0
 19 17  1  0
 19 20  1  6
 21 22  1  0
 21 19  1  0
 23 21  2  0
M  END
$$$$
