NTV.pdb
     RDKit          3D

 23 22  0  0  1  0  0  0  0  0999 V2000
   23.4105  -15.1809  -19.0344 N   0  0  0  0  0  0  0  0  0  0  0  0
   22.2563  -14.5342  -18.5198 C   0  0  0  0  0  0  0  0  0  0  0  0
   21.1092  -14.8462  -18.9216 O   0  0  0  0  0  0  0  0  0  0  0  0
   22.4008  -13.4623  -17.4817 C   0  0  0  0  0  0  0  0  0  0  0  0
   23.8661  -13.2409  -17.1803 C   0  0  2  0  0  0  0  0  0  0  0  0
   24.3904  -14.4029  -16.4755 N   0  0  0  0  0  0  0  0  0  0  0  0
   23.9612  -12.0316  -16.3297 C   0  0  0  0  0  0  0  0  0  0  0  0
   23.5667  -12.1473  -15.1305 O   0  0  0  0  0  0  0  0  0  0  0  0
   26.9033  -10.1414  -15.3666 C   0  0  0  0  0  0  0  0  0  0  0  0
   25.9345   -9.1334  -15.8983 C   0  0  1  0  0  0  0  0  0  0  0  0
   26.2702   -8.6534  -17.1529 O   0  0  0  0  0  0  0  0  0  0  0  0
   24.5140   -9.6767  -15.8932 C   0  0  2  0  0  0  0  0  0  0  0  0
   24.4627  -10.7842  -16.7921 N   0  0  0  0  0  0  0  0  0  0  0  0
   23.5263   -8.6187  -16.1996 C   0  0  0  0  0  0  0  0  0  0  0  0
   23.1238   -8.4994  -17.3682 O   0  0  0  0  0  0  0  0  0  0  0  0
   20.0213   -8.0098  -15.8868 C   0  0  0  0  0  0  0  0  0  0  0  0
   20.6578   -6.8746  -15.1434 C   0  0  2  0  0  0  0  0  0  0  0  0
   19.8358   -5.5955  -15.2301 C   0  0  0  0  0  0  0  0  0  0  0  0
   22.0926   -6.6596  -15.4880 C   0  0  2  0  0  0  0  0  0  0  0  0
   22.9934   -7.7163  -15.2549 N   0  0  0  0  0  0  0  0  0  0  0  0
   22.5603   -5.4645  -14.7180 C   0  0  0  0  0  0  0  0  0  0  0  0
   23.3486   -5.5807  -13.5837 O   0  0  0  0  0  0  0  0  0  0  0  0
   22.2551   -4.2905  -15.0705 O   0  0  0  0  0  0  0  0  0  0  0  0
  2  1  1  0
  3  2  2  0
  4  2  1  0
  4  5  1  0
  5  6  1  1
  7  5  1  0
  7  8  2  0
 10  9  1  6
 10 12  1  0
 11 10  1  0
 12 14  1  0
 12 13  1  6
 13  7  1  0
 14 20  1  0
 15 14  2  0
 17 16  1  6
 17 18  1  0
 19 17  1  0
 19 20  1  1
 21 22  1  0
 21 19  1  0
 23 21  2  0
M  END
$$$$
