NTV.pdb
     RDKit          3D

 23 22  0  0  1  0  0  0  0  0999 V2000
   22.6632  -14.0897  -18.2550 N   0  0  0  0  0  0  0  0  0  0  0  0
   21.5163  -13.5247  -18.8720 C   0  0  0  0  0  0  0  0  0  0  0  0
   20.7845  -14.2119  -19.6248 O   0  0  0  0  0  0  0  0  0  0  0  0
   21.1672  -12.0877  -18.6260 C   0  0  0  0  0  0  0  0  0  0  0  0
   19.9449  -12.0062  -17.7393 C   0  0  2  0  0  0  0  0  0  0  0  0
   18.7837  -12.4801  -18.4803 N   0  0  0  0  0  0  0  0  0  0  0  0
   19.7728  -10.5846  -17.3588 C   0  0  0  0  0  0  0  0  0  0  0  0
   19.6078   -9.7583  -18.3059 O   0  0  0  0  0  0  0  0  0  0  0  0
   17.0376   -9.1644  -15.4527 C   0  0  0  0  0  0  0  0  0  0  0  0
   18.2991   -8.7252  -14.7797 C   0  0  1  0  0  0  0  0  0  0  0  0
   18.5868   -9.4371  -13.6275 O   0  0  0  0  0  0  0  0  0  0  0  0
   19.4777   -8.7584  -15.7403 C   0  0  2  0  0  0  0  0  0  0  0  0
   19.7852  -10.1252  -16.0134 N   0  0  0  0  0  0  0  0  0  0  0  0
   20.6262   -7.9857  -15.2184 C   0  0  0  0  0  0  0  0  0  0  0  0
   21.4898   -8.5785  -14.5514 O   0  0  0  0  0  0  0  0  0  0  0  0
   23.4529   -3.8609  -15.3470 C   0  0  0  0  0  0  0  0  0  0  0  0
   22.2945   -4.6515  -15.8756 C   0  0  2  0  0  0  0  0  0  0  0  0
   21.0930   -3.7715  -16.1942 C   0  0  0  0  0  0  0  0  0  0  0  0
   21.9364   -5.8294  -15.0342 C   0  0  2  0  0  0  0  0  0  0  0  0
   20.8254   -6.6034  -15.4198 N   0  0  0  0  0  0  0  0  0  0  0  0
   21.7001   -5.3272  -13.6443 C   0  0  0  0  0  0  0  0  0  0  0  0
   22.7386   -4.9213  -12.8207 O   0  0  0  0  0  0  0  0  0  0  0  0
   20.5366   -5.2509  -13.1581 O   0  0  0  0  0  0  0  0  0  0  0  0
  2  1  1  0
  3  2  2  0
  4  2  1  0
  4  5  1  0
  5  6  1  6
  7  5  1  0
  7  8  2  0
 10  9  1  6
 10 12  1  0
 11 10  1  0
 12 14  1  0
 12 13  1  1
 13  7  1  0
 14 20  1  0
 15 14  2  0
 17 16  1  1
 17 18  1  0
 19 17  1  0
 19 20  1  6
 21 22  1  0
 21 19  1  0
 23 21  2  0
M  END
$$$$
