NTV.pdb
     RDKit          3D

 23 22  0  0  1  0  0  0  0  0999 V2000
   19.4050  -15.3146  -20.0626 N   0  0  0  0  0  0  0  0  0  0  0  0
   18.3848  -14.6616  -19.3223 C   0  0  0  0  0  0  0  0  0  0  0  0
   17.1931  -14.6767  -19.7147 O   0  0  0  0  0  0  0  0  0  0  0  0
   18.7273  -13.9415  -18.0529 C   0  0  0  0  0  0  0  0  0  0  0  0
   20.2065  -14.0828  -17.7717 C   0  0  2  0  0  0  0  0  0  0  0  0
   20.4575  -15.3876  -17.1748 N   0  0  0  0  0  0  0  0  0  0  0  0
   20.5794  -13.0012  -16.8302 C   0  0  0  0  0  0  0  0  0  0  0  0
   20.0492  -13.0409  -15.6794 O   0  0  0  0  0  0  0  0  0  0  0  0
   23.8529  -11.9421  -15.4016 C   0  0  0  0  0  0  0  0  0  0  0  0
   23.2333  -10.7548  -16.0676 C   0  0  1  0  0  0  0  0  0  0  0  0
   23.8033  -10.4487  -17.2918 O   0  0  0  0  0  0  0  0  0  0  0  0
   21.7276  -10.9205  -16.2024 C   0  0  2  0  0  0  0  0  0  0  0  0
   21.4816  -11.9522  -17.1575 N   0  0  0  0  0  0  0  0  0  0  0  0
   21.0669   -9.6384  -16.5317 C   0  0  0  0  0  0  0  0  0  0  0  0
   20.7728   -9.4063  -17.7156 O   0  0  0  0  0  0  0  0  0  0  0  0
   18.0270   -6.0113  -16.0306 C   0  0  0  0  0  0  0  0  0  0  0  0
   18.6086   -7.3653  -15.7568 C   0  0  2  0  0  0  0  0  0  0  0  0
   18.0731   -7.9729  -14.4671 C   0  0  0  0  0  0  0  0  0  0  0  0
   20.0970   -7.4076  -15.8367 C   0  0  2  0  0  0  0  0  0  0  0  0
   20.7370   -8.6378  -15.5932 N   0  0  0  0  0  0  0  0  0  0  0  0
   20.6233   -6.4025  -14.8607 C   0  0  0  0  0  0  0  0  0  0  0  0
   20.5117   -5.0376  -15.0758 O   0  0  0  0  0  0  0  0  0  0  0  0
   21.1956   -6.7564  -13.7915 O   0  0  0  0  0  0  0  0  0  0  0  0
  2  1  1  0
  3  2  2  0
  4  2  1  0
  4  5  1  0
  5  6  1  1
  7  5  1  0
  7  8  2  0
 10  9  1  6
 10 12  1  0
 11 10  1  0
 12 14  1  0
 12 13  1  6
 13  7  1  0
 14 20  1  0
 15 14  2  0
 17 16  1  1
 17 18  1  0
 19 17  1  0
 19 20  1  1
 21 22  1  0
 21 19  1  0
 23 21  2  0
M  END
$$$$
