NTV.pdb
     RDKit          3D

 23 22  0  0  1  0  0  0  0  0999 V2000
   15.5516  -13.7378  -14.5002 N   0  0  0  0  0  0  0  0  0  0  0  0
   15.4512  -12.3657  -14.8499 C   0  0  0  0  0  0  0  0  0  0  0  0
   14.3341  -11.7989  -14.9232 O   0  0  0  0  0  0  0  0  0  0  0  0
   16.6921  -11.5751  -15.1374 C   0  0  0  0  0  0  0  0  0  0  0  0
   16.6739  -11.1055  -16.5748 C   0  0  2  0  0  0  0  0  0  0  0  0
   16.9547  -12.2350  -17.4507 N   0  0  0  0  0  0  0  0  0  0  0  0
   17.7243  -10.0695  -16.7112 C   0  0  0  0  0  0  0  0  0  0  0  0
   18.8925  -10.4769  -16.9875 O   0  0  0  0  0  0  0  0  0  0  0  0
   17.7132   -7.1019  -19.0047 C   0  0  0  0  0  0  0  0  0  0  0  0
   18.0320   -6.6216  -17.6245 C   0  0  1  0  0  0  0  0  0  0  0  0
   16.9759   -5.9721  -17.0082 O   0  0  0  0  0  0  0  0  0  0  0  0
   18.5493   -7.7544  -16.7514 C   0  0  2  0  0  0  0  0  0  0  0  0
   17.4802   -8.6782  -16.5492 N   0  0  0  0  0  0  0  0  0  0  0  0
   19.1385   -7.2456  -15.4934 C   0  0  0  0  0  0  0  0  0  0  0  0
   18.4033   -7.1133  -14.5015 O   0  0  0  0  0  0  0  0  0  0  0  0
   23.4991   -7.1105  -14.6521 C   0  0  0  0  0  0  0  0  0  0  0  0
   22.3463   -7.2161  -13.7000 C   0  0  2  0  0  0  0  0  0  0  0  0
   22.0436   -8.6591  -13.3187 C   0  0  0  0  0  0  0  0  0  0  0  0
   21.1319   -6.4719  -14.1413 C   0  0  2  0  0  0  0  0  0  0  0  0
   20.4937   -6.8912  -15.3242 N   0  0  0  0  0  0  0  0  0  0  0  0
   21.5241   -5.0366  -14.3020 C   0  0  0  0  0  0  0  0  0  0  0  0
   21.8945   -4.2485  -13.2234 O   0  0  0  0  0  0  0  0  0  0  0  0
   21.5348   -4.4772  -15.4346 O   0  0  0  0  0  0  0  0  0  0  0  0
  2  1  1  0
  3  2  2  0
  4  2  1  0
  4  5  1  0
  5  6  1  6
  7  5  1  0
  7  8  2  0
 10  9  1  6
 10 12  1  0
 11 10  1  0
 12 14  1  0
 12 13  1  1
 13  7  1  0
 14 20  1  0
 15 14  2  0
 17 16  1  6
 17 18  1  0
 19 17  1  0
 19 20  1  6
 21 22  1  0
 21 19  1  0
 23 21  2  0
M  END
$$$$
