NTV.pdb
     RDKit          3D

 23 22  0  0  1  0  0  0  0  0999 V2000
   14.7591   -7.5707   -7.4966 N   0  0  0  0  0  0  0  0  0  0  0  0
   15.4675   -6.9377   -8.5515 C   0  0  0  0  0  0  0  0  0  0  0  0
   15.5816   -5.6888   -8.5934 O   0  0  0  0  0  0  0  0  0  0  0  0
   16.0912   -7.7654   -9.6347 C   0  0  0  0  0  0  0  0  0  0  0  0
   15.3511   -7.5426  -10.9345 C   0  0  2  0  0  0  0  0  0  0  0  0
   14.0468   -8.1870  -10.8589 N   0  0  0  0  0  0  0  0  0  0  0  0
   16.1669   -8.1474  -12.0132 C   0  0  0  0  0  0  0  0  0  0  0  0
   16.0902   -9.4057  -12.1468 O   0  0  0  0  0  0  0  0  0  0  0  0
   15.8491   -7.8482  -15.5951 C   0  0  0  0  0  0  0  0  0  0  0  0
   17.2464   -7.4404  -15.2511 C   0  0  1  0  0  0  0  0  0  0  0  0
   17.4326   -6.0685  -15.2337 O   0  0  0  0  0  0  0  0  0  0  0  0
   17.6948   -8.0603  -13.9367 C   0  0  2  0  0  0  0  0  0  0  0  0
   17.0071   -7.3942  -12.8782 N   0  0  0  0  0  0  0  0  0  0  0  0
   19.1673   -8.0320  -13.7967 C   0  0  0  0  0  0  0  0  0  0  0  0
   19.6779   -7.1917  -13.0382 O   0  0  0  0  0  0  0  0  0  0  0  0
   23.6571  -10.0975  -14.3923 C   0  0  0  0  0  0  0  0  0  0  0  0
   22.1800  -10.1789  -14.6336 C   0  0  2  0  0  0  0  0  0  0  0  0
   21.8493  -10.8203  -15.9748 C   0  0  0  0  0  0  0  0  0  0  0  0
   21.4642   -8.8880  -14.4224 C   0  0  2  0  0  0  0  0  0  0  0  0
   20.0570   -8.8979  -14.4671 N   0  0  0  0  0  0  0  0  0  0  0  0
   21.9608   -7.9297  -15.4592 C   0  0  0  0  0  0  0  0  0  0  0  0
   23.1961   -7.3089  -15.3577 O   0  0  0  0  0  0  0  0  0  0  0  0
   21.2716   -7.6431  -16.4783 O   0  0  0  0  0  0  0  0  0  0  0  0
  2  1  1  0
  3  2  2  0
  4  2  1  0
  4  5  1  0
  5  6  1  1
  7  5  1  0
  7  8  2  0
 10  9  1  1
 10 12  1  0
 11 10  1  0
 12 14  1  0
 12 13  1  1
 13  7  1  0
 14 20  1  0
 15 14  2  0
 17 16  1  6
 17 18  1  0
 19 17  1  0
 19 20  1  6
 21 22  1  0
 21 19  1  0
 23 21  2  0
M  END
$$$$
