NTV.pdb
     RDKit          3D

 23 22  0  0  1  0  0  0  0  0999 V2000
   18.1451  -16.9614  -14.3221 N   0  0  0  0  0  0  0  0  0  0  0  0
   17.1638  -16.4104  -15.1874 C   0  0  0  0  0  0  0  0  0  0  0  0
   15.9666  -16.7807  -15.1235 O   0  0  0  0  0  0  0  0  0  0  0  0
   17.5547  -15.3709  -16.1945 C   0  0  0  0  0  0  0  0  0  0  0  0
   16.5404  -14.2492  -16.1869 C   0  0  2  0  0  0  0  0  0  0  0  0
   15.5140  -14.5257  -17.1829 N   0  0  0  0  0  0  0  0  0  0  0  0
   17.2645  -13.0006  -16.5209 C   0  0  0  0  0  0  0  0  0  0  0  0
   17.8538  -12.9676  -17.6428 O   0  0  0  0  0  0  0  0  0  0  0  0
   16.0681  -10.0391  -17.5661 C   0  0  0  0  0  0  0  0  0  0  0  0
   16.9118   -9.6414  -16.3968 C   0  0  1  0  0  0  0  0  0  0  0  0
   16.1778   -9.3596  -15.2570 O   0  0  0  0  0  0  0  0  0  0  0  0
   17.9782  -10.6856  -16.1047 C   0  0  2  0  0  0  0  0  0  0  0  0
   17.3225  -11.8721  -15.6581 N   0  0  0  0  0  0  0  0  0  0  0  0
   18.9923  -10.1761  -15.1557 C   0  0  0  0  0  0  0  0  0  0  0  0
   18.8037  -10.3364  -13.9389 O   0  0  0  0  0  0  0  0  0  0  0  0
   23.0152   -8.7415  -16.3901 C   0  0  0  0  0  0  0  0  0  0  0  0
   22.6187   -9.3487  -15.0784 C   0  0  2  0  0  0  0  0  0  0  0  0
   22.9530  -10.8327  -15.0053 C   0  0  0  0  0  0  0  0  0  0  0  0
   21.2111   -9.0570  -14.6819 C   0  0  2  0  0  0  0  0  0  0  0  0
   20.1796   -9.5099  -15.5263 N   0  0  0  0  0  0  0  0  0  0  0  0
   21.0872   -7.5720  -14.5429 C   0  0  0  0  0  0  0  0  0  0  0  0
   21.7490   -6.8668  -13.5498 O   0  0  0  0  0  0  0  0  0  0  0  0
   20.3697   -6.8923  -15.3296 O   0  0  0  0  0  0  0  0  0  0  0  0
  2  1  1  0
  3  2  2  0
  4  2  1  0
  4  5  1  0
  5  6  1  6
  7  5  1  0
  7  8  2  0
 10  9  1  6
 10 12  1  0
 11 10  1  0
 12 14  1  0
 12 13  1  1
 13  7  1  0
 14 20  1  0
 15 14  2  0
 17 16  1  6
 17 18  1  0
 19 17  1  0
 19 20  1  6
 21 22  1  0
 21 19  1  0
 23 21  2  0
M  END
$$$$
