NTV.pdb
     RDKit          3D

 23 22  0  0  1  0  0  0  0  0999 V2000
   15.2927  -14.0759  -16.1761 N   0  0  0  0  0  0  0  0  0  0  0  0
   14.3217  -13.5935  -15.2598 C   0  0  0  0  0  0  0  0  0  0  0  0
   13.1487  -14.0390  -15.2692 O   0  0  0  0  0  0  0  0  0  0  0  0
   14.6944  -12.5371  -14.2634 C   0  0  0  0  0  0  0  0  0  0  0  0
   16.0661  -11.9911  -14.5908 C   0  0  2  0  0  0  0  0  0  0  0  0
   17.0189  -13.0917  -14.6439 N   0  0  0  0  0  0  0  0  0  0  0  0
   16.4293  -11.0420  -13.5127 C   0  0  0  0  0  0  0  0  0  0  0  0
   16.7677  -11.5472  -12.4003 O   0  0  0  0  0  0  0  0  0  0  0  0
   19.1113   -8.5563  -13.6883 C   0  0  0  0  0  0  0  0  0  0  0  0
   17.9044   -7.8334  -13.1802 C   0  0  1  0  0  0  0  0  0  0  0  0
   17.3198   -7.0046  -14.1228 O   0  0  0  0  0  0  0  0  0  0  0  0
   16.8811   -8.8018  -12.6076 C   0  0  2  0  0  0  0  0  0  0  0  0
   16.4136   -9.6293  -13.6724 N   0  0  0  0  0  0  0  0  0  0  0  0
   15.7996   -8.0896  -11.8922 C   0  0  0  0  0  0  0  0  0  0  0  0
   14.6698   -8.0507  -12.4061 O   0  0  0  0  0  0  0  0  0  0  0  0
   13.8787   -6.2590   -7.6904 C   0  0  0  0  0  0  0  0  0  0  0  0
   14.9487   -7.0200   -8.4133 C   0  0  2  0  0  0  0  0  0  0  0  0
   16.3225   -6.8183   -7.7877 C   0  0  0  0  0  0  0  0  0  0  0  0
   14.9513   -6.7996   -9.8881 C   0  0  2  0  0  0  0  0  0  0  0  0
   15.9487   -7.4380  -10.6496 N   0  0  0  0  0  0  0  0  0  0  0  0
   15.0572   -5.3244  -10.1167 C   0  0  0  0  0  0  0  0  0  0  0  0
   16.2112   -4.7359  -10.6106 O   0  0  0  0  0  0  0  0  0  0  0  0
   14.0936   -4.5462   -9.8681 O   0  0  0  0  0  0  0  0  0  0  0  0
  2  1  1  0
  3  2  2  0
  4  2  1  0
  4  5  1  0
  5  6  1  1
  7  5  1  0
  7  8  2  0
 10  9  1  6
 10 12  1  0
 11 10  1  0
 12 14  1  0
 12 13  1  6
 13  7  1  0
 14 20  1  0
 15 14  2  0
 17 16  1  1
 17 18  1  0
 19 17  1  0
 19 20  1  6
 21 22  1  0
 21 19  1  0
 23 21  2  0
M  END
$$$$
