NTV.pdb
     RDKit          3D

 23 22  0  0  1  0  0  0  0  0999 V2000
   12.7106  -13.3436  -13.9160 N   0  0  0  0  0  0  0  0  0  0  0  0
   13.3656  -12.4647  -14.8181 C   0  0  0  0  0  0  0  0  0  0  0  0
   12.7083  -11.7256  -15.5901 O   0  0  0  0  0  0  0  0  0  0  0  0
   14.8634  -12.4126  -14.8555 C   0  0  0  0  0  0  0  0  0  0  0  0
   15.3354  -12.3881  -16.2920 C   0  0  2  0  0  0  0  0  0  0  0  0
   15.1842  -13.7175  -16.8681 N   0  0  0  0  0  0  0  0  0  0  0  0
   16.7618  -11.9876  -16.2785 C   0  0  0  0  0  0  0  0  0  0  0  0
   17.5664  -12.7695  -15.6883 O   0  0  0  0  0  0  0  0  0  0  0  0
   18.9968  -11.3123  -19.1974 C   0  0  0  0  0  0  0  0  0  0  0  0
   19.0765  -10.1422  -18.2691 C   0  0  1  0  0  0  0  0  0  0  0  0
   18.3692   -9.0372  -18.7116 O   0  0  0  0  0  0  0  0  0  0  0  0
   18.6494  -10.5248  -16.8605 C   0  0  2  0  0  0  0  0  0  0  0  0
   17.2484  -10.7965  -16.8834 N   0  0  0  0  0  0  0  0  0  0  0  0
   19.0364   -9.4911  -15.8755 C   0  0  0  0  0  0  0  0  0  0  0  0
   18.1699   -8.6987  -15.4714 O   0  0  0  0  0  0  0  0  0  0  0  0
   22.6393   -9.7209  -13.4053 C   0  0  0  0  0  0  0  0  0  0  0  0
   21.4123   -8.8990  -13.1491 C   0  0  2  0  0  0  0  0  0  0  0  0
   20.4321   -9.6008  -12.2185 C   0  0  0  0  0  0  0  0  0  0  0  0
   20.7611   -8.3879  -14.3894 C   0  0  2  0  0  0  0  0  0  0  0  0
   20.3344   -9.3279  -15.3468 N   0  0  0  0  0  0  0  0  0  0  0  0
   21.7281   -7.4535  -15.0463 C   0  0  0  0  0  0  0  0  0  0  0  0
   22.0899   -6.2443  -14.4731 O   0  0  0  0  0  0  0  0  0  0  0  0
   22.2601   -7.7277  -16.1588 O   0  0  0  0  0  0  0  0  0  0  0  0
  2  1  1  0
  3  2  2  0
  4  2  1  0
  4  5  1  0
  5  6  1  1
  7  5  1  0
  7  8  2  0
 10  9  1  6
 10 12  1  0
 11 10  1  0
 12 14  1  0
 12 13  1  6
 13  7  1  0
 14 20  1  0
 15 14  2  0
 17 16  1  6
 17 18  1  0
 19 17  1  0
 19 20  1  6
 21 22  1  0
 21 19  1  0
 23 21  2  0
M  END
$$$$
