NTV.pdb
     RDKit          3D

 23 22  0  0  1  0  0  0  0  0999 V2000
   15.2951  -12.8355  -16.2696 N   0  0  0  0  0  0  0  0  0  0  0  0
   16.4487  -13.4947  -15.7696 C   0  0  0  0  0  0  0  0  0  0  0  0
   16.3974  -14.6926  -15.3996 O   0  0  0  0  0  0  0  0  0  0  0  0
   17.7506  -12.7568  -15.6792 C   0  0  0  0  0  0  0  0  0  0  0  0
   17.5569  -11.3271  -16.1325 C   0  0  2  0  0  0  0  0  0  0  0  0
   17.3539  -11.3059  -17.5748 N   0  0  0  0  0  0  0  0  0  0  0  0
   18.7852  -10.5818  -15.7704 C   0  0  0  0  0  0  0  0  0  0  0  0
   19.2472  -10.7781  -14.6063 O   0  0  0  0  0  0  0  0  0  0  0  0
   21.9980   -9.9563  -17.9795 C   0  0  0  0  0  0  0  0  0  0  0  0
   21.4869   -8.6851  -17.3793 C   0  0  1  0  0  0  0  0  0  0  0  0
   20.8507   -7.8606  -18.2917 O   0  0  0  0  0  0  0  0  0  0  0  0
   20.5861   -8.9613  -16.1854 C   0  0  2  0  0  0  0  0  0  0  0  0
   19.4458   -9.6824  -16.6513 N   0  0  0  0  0  0  0  0  0  0  0  0
   20.2451   -7.7165  -15.4624 C   0  0  0  0  0  0  0  0  0  0  0  0
   19.1701   -7.1518  -15.7219 O   0  0  0  0  0  0  0  0  0  0  0  0
   21.9341   -6.4082  -11.5883 C   0  0  0  0  0  0  0  0  0  0  0  0
   20.6651   -6.0172  -12.2834 C   0  0  2  0  0  0  0  0  0  0  0  0
   19.4834   -6.8760  -11.8527 C   0  0  0  0  0  0  0  0  0  0  0  0
   20.7960   -5.9225  -13.7658 C   0  0  2  0  0  0  0  0  0  0  0  0
   21.0566   -7.1059  -14.4828 N   0  0  0  0  0  0  0  0  0  0  0  0
   21.8939   -4.9469  -14.0535 C   0  0  0  0  0  0  0  0  0  0  0  0
   21.7972   -3.6068  -13.7124 O   0  0  0  0  0  0  0  0  0  0  0  0
   22.9631   -5.3045  -14.6234 O   0  0  0  0  0  0  0  0  0  0  0  0
  2  1  1  0
  3  2  2  0
  4  2  1  0
  4  5  1  0
  5  6  1  6
  7  5  1  0
  7  8  2  0
 10  9  1  6
 10 12  1  0
 11 10  1  0
 12 14  1  0
 12 13  1  6
 13  7  1  0
 14 20  1  0
 15 14  2  0
 17 16  1  1
 17 18  1  0
 19 17  1  0
 19 20  1  1
 21 22  1  0
 21 19  1  0
 23 21  2  0
M  END
$$$$
