NTV.pdb
     RDKit          3D

 23 22  0  0  1  0  0  0  0  0999 V2000
   32.0130  -22.6985  -18.9486 N   0  0  0  0  0  0  0  0  0  0  0  0
   30.7216  -22.9328  -18.4075 C   0  0  0  0  0  0  0  0  0  0  0  0
   30.1353  -24.0273  -18.5887 O   0  0  0  0  0  0  0  0  0  0  0  0
   30.0416  -21.8630  -17.6072 C   0  0  0  0  0  0  0  0  0  0  0  0
   28.7734  -21.4317  -18.3093 C   0  0  2  0  0  0  0  0  0  0  0  0
   29.1171  -20.5636  -19.4274 N   0  0  0  0  0  0  0  0  0  0  0  0
   27.9504  -20.7000  -17.3182 C   0  0  0  0  0  0  0  0  0  0  0  0
   28.3485  -19.5412  -16.9928 O   0  0  0  0  0  0  0  0  0  0  0  0
   23.9927  -20.8739  -17.1321 C   0  0  0  0  0  0  0  0  0  0  0  0
   24.8535  -19.8262  -16.5007 C   0  0  1  0  0  0  0  0  0  0  0  0
   24.1603  -18.9803  -15.6515 O   0  0  0  0  0  0  0  0  0  0  0  0
   26.0444  -20.4466  -15.7868 C   0  0  2  0  0  0  0  0  0  0  0  0
   26.7671  -21.2309  -16.7354 N   0  0  0  0  0  0  0  0  0  0  0  0
   25.6248  -21.2052  -14.5880 C   0  0  0  0  0  0  0  0  0  0  0  0
   25.2454  -22.3792  -14.7281 O   0  0  0  0  0  0  0  0  0  0  0  0
   25.4696  -21.8237   -9.6497 C   0  0  0  0  0  0  0  0  0  0  0  0
   25.8958  -20.9907  -10.8207 C   0  0  2  0  0  0  0  0  0  0  0  0
   25.8278  -19.4988  -10.5223 C   0  0  0  0  0  0  0  0  0  0  0  0
   25.2136  -21.3529  -12.0962 C   0  0  2  0  0  0  0  0  0  0  0  0
   25.6199  -20.6947  -13.2726 N   0  0  0  0  0  0  0  0  0  0  0  0
   23.7499  -21.1085  -11.9022 C   0  0  0  0  0  0  0  0  0  0  0  0
   22.9728  -21.9046  -11.0752 O   0  0  0  0  0  0  0  0  0  0  0  0
   23.1550  -20.1601  -12.4874 O   0  0  0  0  0  0  0  0  0  0  0  0
  2  1  1  0
  3  2  2  0
  4  2  1  0
  4  5  1  0
  5  6  1  6
  7  5  1  0
  7  8  2  0
 10  9  1  1
 10 12  1  0
 11 10  1  0
 12 14  1  0
 12 13  1  6
 13  7  1  0
 14 20  1  0
 15 14  2  0
 17 16  1  1
 17 18  1  0
 19 17  1  0
 19 20  1  6
 21 22  1  0
 21 19  1  0
 23 21  2  0
M  END
$$$$
