NTV.pdb
     RDKit          3D

 23 22  0  0  1  0  0  0  0  0999 V2000
   19.6611  -13.3937  -20.0108 N   0  0  0  0  0  0  0  0  0  0  0  0
   19.1052  -13.6539  -18.7308 C   0  0  0  0  0  0  0  0  0  0  0  0
   18.3660  -14.6496  -18.5390 O   0  0  0  0  0  0  0  0  0  0  0  0
   19.4001  -12.7313  -17.5865 C   0  0  0  0  0  0  0  0  0  0  0  0
   20.2416  -11.5723  -18.0721 C   0  0  2  0  0  0  0  0  0  0  0  0
   21.5117  -12.0802  -18.5730 N   0  0  0  0  0  0  0  0  0  0  0  0
   20.4621  -10.6747  -16.9142 C   0  0  0  0  0  0  0  0  0  0  0  0
   19.4532  -10.4241  -16.1886 O   0  0  0  0  0  0  0  0  0  0  0  0
   22.4287  -11.2345  -13.9788 C   0  0  0  0  0  0  0  0  0  0  0  0
   22.8974   -9.9237  -14.5260 C   0  0  1  0  0  0  0  0  0  0  0  0
   24.1157  -10.0021  -15.1793 O   0  0  0  0  0  0  0  0  0  0  0  0
   21.8453   -9.2927  -15.4248 C   0  0  2  0  0  0  0  0  0  0  0  0
   21.7231  -10.1010  -16.5948 N   0  0  0  0  0  0  0  0  0  0  0  0
   22.1563   -7.8755  -15.7136 C   0  0  0  0  0  0  0  0  0  0  0  0
   22.7971   -7.6034  -16.7419 O   0  0  0  0  0  0  0  0  0  0  0  0
   19.7371   -4.4886  -14.7144 C   0  0  0  0  0  0  0  0  0  0  0  0
   20.9077   -4.5802  -15.6460 C   0  0  2  0  0  0  0  0  0  0  0  0
   20.4916   -4.9689  -17.0585 C   0  0  0  0  0  0  0  0  0  0  0  0
   22.0260   -5.4183  -15.1257 C   0  0  2  0  0  0  0  0  0  0  0  0
   21.7775   -6.7858  -14.9012 N   0  0  0  0  0  0  0  0  0  0  0  0
   22.4791   -4.8051  -13.8379 C   0  0  0  0  0  0  0  0  0  0  0  0
   23.0584   -3.5468  -13.7843 O   0  0  0  0  0  0  0  0  0  0  0  0
   22.3525   -5.4111  -12.7368 O   0  0  0  0  0  0  0  0  0  0  0  0
  2  1  1  0
  3  2  2  0
  4  2  1  0
  4  5  1  0
  5  6  1  1
  7  5  1  0
  7  8  2  0
 10  9  1  6
 10 12  1  0
 11 10  1  0
 12 14  1  0
 12 13  1  6
 13  7  1  0
 14 20  1  0
 15 14  2  0
 17 16  1  1
 17 18  1  0
 19 17  1  0
 19 20  1  1
 21 22  1  0
 21 19  1  0
 23 21  2  0
M  END
$$$$
