NTV.pdb
     RDKit          3D

 23 22  0  0  1  0  0  0  0  0999 V2000
   24.5149  -11.1540  -15.1281 N   0  0  0  0  0  0  0  0  0  0  0  0
   23.7664  -11.5544  -16.2660 C   0  0  0  0  0  0  0  0  0  0  0  0
   24.0973  -12.5646  -16.9327 O   0  0  0  0  0  0  0  0  0  0  0  0
   22.5624  -10.7651  -16.6839 C   0  0  0  0  0  0  0  0  0  0  0  0
   22.3269   -9.6392  -15.7020 C   0  0  2  0  0  0  0  0  0  0  0  0
   22.0088  -10.2017  -14.3965 N   0  0  0  0  0  0  0  0  0  0  0  0
   21.1887   -8.8410  -16.2144 C   0  0  0  0  0  0  0  0  0  0  0  0
   21.1534   -8.6387  -17.4654 O   0  0  0  0  0  0  0  0  0  0  0  0
   17.8160   -9.6008  -16.7554 C   0  0  0  0  0  0  0  0  0  0  0  0
   17.8227   -8.4396  -15.8126 C   0  0  1  0  0  0  0  0  0  0  0  0
   17.6493   -8.8030  -14.4879 O   0  0  0  0  0  0  0  0  0  0  0  0
   19.0800   -7.6002  -15.9794 C   0  0  2  0  0  0  0  0  0  0  0  0
   20.1655   -8.3093  -15.3828 N   0  0  0  0  0  0  0  0  0  0  0  0
   18.8971   -6.2345  -15.4409 C   0  0  0  0  0  0  0  0  0  0  0  0
   19.4081   -5.9526  -14.3448 O   0  0  0  0  0  0  0  0  0  0  0  0
   17.3606   -1.4955  -16.0113 C   0  0  0  0  0  0  0  0  0  0  0  0
   17.5582   -2.8563  -16.6078 C   0  0  2  0  0  0  0  0  0  0  0  0
   16.3843   -3.2790  -17.4812 C   0  0  0  0  0  0  0  0  0  0  0  0
   17.9384   -3.8996  -15.6126 C   0  0  2  0  0  0  0  0  0  0  0  0
   18.1759   -5.2054  -16.0825 N   0  0  0  0  0  0  0  0  0  0  0  0
   16.8458   -3.9589  -14.5915 C   0  0  0  0  0  0  0  0  0  0  0  0
   16.0202   -5.0645  -14.4585 O   0  0  0  0  0  0  0  0  0  0  0  0
   16.6271   -2.9979  -13.8012 O   0  0  0  0  0  0  0  0  0  0  0  0
  2  1  1  0
  3  2  2  0
  4  2  1  0
  4  5  1  0
  5  6  1  1
  7  5  1  0
  7  8  2  0
 10  9  1  6
 10 12  1  0
 11 10  1  0
 12 14  1  0
 12 13  1  1
 13  7  1  0
 14 20  1  0
 15 14  2  0
 17 16  1  1
 17 18  1  0
 19 17  1  0
 19 20  1  6
 21 22  1  0
 21 19  1  0
 23 21  2  0
M  END
$$$$
