MLE.pdb
     RDKit          3D

 26 25  0  0  1  0  0  0  0  0999 V2000
   14.7930  -31.4489   -2.2715 C   0  0  0  0  0  0  0  0  0  0  0  0
   16.5287  -30.9106   -2.1737 S   0  0  0  0  0  0  0  0  0  0  0  0
   16.6600  -29.1978   -1.6220 C   0  0  0  0  0  0  0  0  0  0  0  0
   18.1234  -28.8879   -1.3880 C   0  0  0  0  0  0  0  0  0  0  0  0
   18.3103  -27.4701   -0.8772 C   0  0  2  0  0  0  0  0  0  0  0  0
   18.9015  -26.6483   -1.9490 N   0  0  0  0  0  0  0  0  0  0  0  0
   19.2214  -27.4136    0.2719 C   0  0  0  0  0  0  0  0  0  0  0  0
   20.4395  -27.6632    0.1161 O   0  0  0  0  0  0  0  0  0  0  0  0
   19.5332  -23.2747    3.7434 C   0  0  0  0  0  0  0  0  0  0  0  0
   19.8838  -24.5035    2.9504 C   0  0  1  0  0  0  0  0  0  0  0  0
   21.4222  -24.5729    2.9021 C   0  0  0  0  0  0  0  0  0  0  0  0
   19.4396  -25.7933    3.5264 C   0  0  0  0  0  0  0  0  0  0  0  0
   19.6875  -27.0319    2.7346 C   0  0  2  0  0  0  0  0  0  0  0  0
   18.8119  -27.0853    1.5969 N   0  0  0  0  0  0  0  0  0  0  0  0
   19.4265  -28.1819    3.6722 C   0  0  0  0  0  0  0  0  0  0  0  0
   18.2384  -28.3753    3.9999 O   0  0  0  0  0  0  0  0  0  0  0  0
   20.4366  -29.0208    4.1768 N   0  0  0  0  0  0  0  0  0  0  0  0
   20.1613  -30.1103    5.1405 C   0  0  1  0  0  0  0  0  0  0  0  0
   21.3142  -31.0488    5.1915 C   0  0  0  0  0  0  0  0  0  0  0  0
   21.0802  -32.1878    6.1328 C   0  0  0  0  0  0  0  0  0  0  0  0
   22.2268  -33.1229    6.2233 C   0  0  0  0  0  0  0  0  0  0  0  0
   23.2652  -32.8732    5.5435 O   0  0  0  0  0  0  0  0  0  0  0  0
   19.8765  -29.5042    6.4524 C   0  0  0  0  0  0  0  0  0  0  0  0
   20.4778  -28.4837    6.8221 O   0  0  0  0  0  0  0  0  0  0  0  0
   22.2365  -34.2522    7.0015 O   0  0  0  0  0  0  0  0  0  0  0  0
   18.9328  -30.0668    7.2912 O   0  0  0  0  0  0  0  0  0  0  0  0
  2  1  1  0
  3  4  1  0
  3  2  1  0
  4  5  1  0
  5  6  1  6
  7  5  1  0
  7  8  2  0
 10  9  1  1
 11 10  1  0
 12 10  1  0
 13 12  1  1
 13 14  1  0
 14  7  1  0
 15 13  1  0
 16 15  2  0
 17 15  1  0
 18 17  1  0
 18 23  1  0
 18 19  1  1
 20 21  1  0
 20 19  1  0
 21 22  2  0
 21 25  1  0
 23 26  1  0
 24 23  2  0
M  END
$$$$
