MLE.pdb
     RDKit          3D

 26 25  0  0  1  0  0  0  0  0999 V2000
   18.0358  -14.1895  -14.4207 C   0  0  0  0  0  0  0  0  0  0  0  0
   16.2287  -14.3930  -14.3491 S   0  0  0  0  0  0  0  0  0  0  0  0
   15.5493  -13.7355  -12.8124 C   0  0  0  0  0  0  0  0  0  0  0  0
   16.0670  -12.3241  -12.6331 C   0  0  0  0  0  0  0  0  0  0  0  0
   15.7026  -11.7745  -11.2652 C   0  0  2  0  0  0  0  0  0  0  0  0
   14.3842  -12.3040  -10.8714 N   0  0  0  0  0  0  0  0  0  0  0  0
   15.6042  -10.3102  -11.2675 C   0  0  0  0  0  0  0  0  0  0  0  0
   15.5419   -9.6901  -12.3547 O   0  0  0  0  0  0  0  0  0  0  0  0
   13.9885   -5.4024   -9.2434 C   0  0  0  0  0  0  0  0  0  0  0  0
   15.0560   -6.1362   -8.4792 C   0  0  1  0  0  0  0  0  0  0  0  0
   14.7324   -5.9532   -6.9840 C   0  0  0  0  0  0  0  0  0  0  0  0
   15.1210   -7.5987   -8.7019 C   0  0  0  0  0  0  0  0  0  0  0  0
   15.4684   -8.0801  -10.0694 C   0  0  2  0  0  0  0  0  0  0  0  0
   15.5732   -9.5127  -10.0869 N   0  0  0  0  0  0  0  0  0  0  0  0
   16.7873   -7.4373  -10.4121 C   0  0  0  0  0  0  0  0  0  0  0  0
   17.7684   -7.7746   -9.7193 O   0  0  0  0  0  0  0  0  0  0  0  0
   16.9522   -6.5019  -11.4495 N   0  0  0  0  0  0  0  0  0  0  0  0
   18.2826   -6.0226  -11.8875 C   0  0  1  0  0  0  0  0  0  0  0  0
   18.9845   -7.0916  -12.6473 C   0  0  0  0  0  0  0  0  0  0  0  0
   20.2148   -6.5882  -13.3338 C   0  0  0  0  0  0  0  0  0  0  0  0
   20.8990   -7.6202  -14.1488 C   0  0  0  0  0  0  0  0  0  0  0  0
   20.4025   -8.7840  -14.1911 O   0  0  0  0  0  0  0  0  0  0  0  0
   18.0918   -4.8016  -12.6889 C   0  0  0  0  0  0  0  0  0  0  0  0
   16.9810   -4.5263  -13.1685 O   0  0  0  0  0  0  0  0  0  0  0  0
   22.0464   -7.3955  -14.8658 O   0  0  0  0  0  0  0  0  0  0  0  0
   19.1515   -3.9442  -12.9178 O   0  0  0  0  0  0  0  0  0  0  0  0
  2  1  1  0
  3  4  1  0
  3  2  1  0
  4  5  1  0
  5  6  1  6
  7  5  1  0
  7  8  2  0
 10  9  1  6
 11 10  1  0
 12 10  1  0
 13 12  1  1
 13 14  1  0
 14  7  1  0
 15 13  1  0
 16 15  2  0
 17 15  1  0
 18 17  1  0
 18 23  1  0
 18 19  1  6
 20 21  1  0
 20 19  1  0
 21 22  2  0
 21 25  1  0
 23 26  1  0
 24 23  2  0
M  END
$$$$
