MLE.pdb
     RDKit          3D

 26 25  0  0  1  0  0  0  0  0999 V2000
   19.4675  -15.5059  -17.1649 C   0  0  0  0  0  0  0  0  0  0  0  0
   20.2778  -15.5556  -18.7938 S   0  0  0  0  0  0  0  0  0  0  0  0
   20.7073  -13.9005  -19.3696 C   0  0  0  0  0  0  0  0  0  0  0  0
   21.1045  -13.0705  -18.1672 C   0  0  0  0  0  0  0  0  0  0  0  0
   21.4610  -11.6511  -18.5724 C   0  0  2  0  0  0  0  0  0  0  0  0
   22.5283  -11.6964  -19.5885 N   0  0  0  0  0  0  0  0  0  0  0  0
   21.9658  -10.8649  -17.4408 C   0  0  0  0  0  0  0  0  0  0  0  0
   21.2425  -10.6843  -16.4335 O   0  0  0  0  0  0  0  0  0  0  0  0
   27.4768  -10.5999  -16.3971 C   0  0  0  0  0  0  0  0  0  0  0  0
   25.9820  -10.6918  -16.2594 C   0  0  1  0  0  0  0  0  0  0  0  0
   25.7023  -11.2425  -14.8479 C   0  0  0  0  0  0  0  0  0  0  0  0
   25.2448   -9.4105  -16.3460 C   0  0  0  0  0  0  0  0  0  0  0  0
   23.7550   -9.4611  -16.3203 C   0  0  2  0  0  0  0  0  0  0  0  0
   23.2605  -10.2707  -17.3990 N   0  0  0  0  0  0  0  0  0  0  0  0
   23.2899   -8.0347  -16.4577 C   0  0  0  0  0  0  0  0  0  0  0  0
   23.6720   -7.4192  -17.4733 O   0  0  0  0  0  0  0  0  0  0  0  0
   22.4674   -7.3891  -15.5169 N   0  0  0  0  0  0  0  0  0  0  0  0
   21.9527   -6.0155  -15.7167 C   0  0  1  0  0  0  0  0  0  0  0  0
   20.4879   -6.0526  -15.9730 C   0  0  0  0  0  0  0  0  0  0  0  0
   19.8787   -4.6863  -15.9937 C   0  0  0  0  0  0  0  0  0  0  0  0
   18.4328   -4.6905  -16.3206 C   0  0  0  0  0  0  0  0  0  0  0  0
   17.8662   -5.8012  -16.5403 O   0  0  0  0  0  0  0  0  0  0  0  0
   22.2908   -5.2186  -14.5249 C   0  0  0  0  0  0  0  0  0  0  0  0
   22.5509   -5.7730  -13.4458 O   0  0  0  0  0  0  0  0  0  0  0  0
   17.6613   -3.5596  -16.4029 O   0  0  0  0  0  0  0  0  0  0  0  0
   22.3225   -3.8385  -14.5941 O   0  0  0  0  0  0  0  0  0  0  0  0
  2  1  1  0
  3  4  1  0
  3  2  1  0
  4  5  1  0
  5  6  1  6
  7  5  1  0
  7  8  2  0
 10  9  1  1
 11 10  1  0
 12 10  1  0
 13 12  1  6
 13 14  1  0
 14  7  1  0
 15 13  1  0
 16 15  2  0
 17 15  1  0
 18 17  1  0
 18 23  1  0
 18 19  1  1
 20 21  1  0
 20 19  1  0
 21 22  2  0
 21 25  1  0
 23 26  1  0
 24 23  2  0
M  END
$$$$
