MLE.pdb
     RDKit          3D

 26 25  0  0  1  0  0  0  0  0999 V2000
   27.7337  -24.3029  -20.9092 C   0  0  0  0  0  0  0  0  0  0  0  0
   26.7283  -24.4124  -19.3961 S   0  0  0  0  0  0  0  0  0  0  0  0
   27.7443  -24.2509  -17.9138 C   0  0  0  0  0  0  0  0  0  0  0  0
   26.8229  -24.1929  -16.7138 C   0  0  0  0  0  0  0  0  0  0  0  0
   26.3474  -22.7744  -16.4538 C   0  0  2  0  0  0  0  0  0  0  0  0
   27.5210  -21.9026  -16.2635 N   0  0  0  0  0  0  0  0  0  0  0  0
   25.5299  -22.6808  -15.2386 C   0  0  0  0  0  0  0  0  0  0  0  0
   24.4856  -23.3657  -15.1341 O   0  0  0  0  0  0  0  0  0  0  0  0
   24.6737  -21.7809   -9.7931 C   0  0  0  0  0  0  0  0  0  0  0  0
   24.9989  -20.6000  -10.6658 C   0  0  1  0  0  0  0  0  0  0  0  0
   25.9340  -19.6904   -9.8460 C   0  0  0  0  0  0  0  0  0  0  0  0
   25.7275  -20.9033  -11.9188 C   0  0  0  0  0  0  0  0  0  0  0  0
   24.9983  -21.6462  -12.9860 C   0  0  2  0  0  0  0  0  0  0  0  0
   25.8442  -21.8415  -14.1306 N   0  0  0  0  0  0  0  0  0  0  0  0
   23.8019  -20.8000  -13.3360 C   0  0  0  0  0  0  0  0  0  0  0  0
   23.9968  -19.5714  -13.4312 O   0  0  0  0  0  0  0  0  0  0  0  0
   22.5144  -21.3228  -13.5537 N   0  0  0  0  0  0  0  0  0  0  0  0
   21.3485  -20.4667  -13.8689 C   0  0  1  0  0  0  0  0  0  0  0  0
   20.7646  -20.8631  -15.1784 C   0  0  0  0  0  0  0  0  0  0  0  0
   21.7991  -20.9721  -16.2536 C   0  0  0  0  0  0  0  0  0  0  0  0
   21.7720  -22.2705  -16.9682 C   0  0  0  0  0  0  0  0  0  0  0  0
   20.9528  -23.1554  -16.5827 O   0  0  0  0  0  0  0  0  0  0  0  0
   20.3786  -20.5845  -12.7667 C   0  0  0  0  0  0  0  0  0  0  0  0
   19.4128  -19.8095  -12.6879 O   0  0  0  0  0  0  0  0  0  0  0  0
   22.5845  -22.5798  -18.0290 O   0  0  0  0  0  0  0  0  0  0  0  0
   20.5327  -21.5633  -11.8030 O   0  0  0  0  0  0  0  0  0  0  0  0
  2  1  1  0
  3  4  1  0
  3  2  1  0
  4  5  1  0
  5  6  1  1
  7  5  1  0
  7  8  2  0
 10  9  1  1
 11 10  1  0
 12 10  1  0
 13 12  1  1
 13 14  1  0
 14  7  1  0
 15 13  1  0
 16 15  2  0
 17 15  1  0
 18 17  1  0
 18 23  1  0
 18 19  1  6
 20 21  1  0
 20 19  1  0
 21 22  2  0
 21 25  1  0
 23 26  1  0
 24 23  2  0
M  END
$$$$
