MLE.pdb
     RDKit          3D

 26 25  0  0  1  0  0  0  0  0999 V2000
   29.1943  -21.5358  -17.3271 C   0  0  0  0  0  0  0  0  0  0  0  0
   28.6188  -19.8229  -17.5432 S   0  0  0  0  0  0  0  0  0  0  0  0
   28.7810  -18.8732  -16.0177 C   0  0  0  0  0  0  0  0  0  0  0  0
   28.4502  -19.7859  -14.8559 C   0  0  0  0  0  0  0  0  0  0  0  0
   26.9787  -19.6995  -14.4906 C   0  0  2  0  0  0  0  0  0  0  0  0
   26.7024  -18.3659  -13.9259 N   0  0  0  0  0  0  0  0  0  0  0  0
   26.6031  -20.6917  -13.4766 C   0  0  0  0  0  0  0  0  0  0  0  0
   26.6814  -21.9143  -13.7399 O   0  0  0  0  0  0  0  0  0  0  0  0
   26.7561  -19.6197   -8.0629 C   0  0  0  0  0  0  0  0  0  0  0  0
   26.7664  -20.2357   -9.4349 C   0  0  1  0  0  0  0  0  0  0  0  0
   27.7476  -21.4222   -9.3781 C   0  0  0  0  0  0  0  0  0  0  0  0
   25.4785  -20.7992   -9.9002 C   0  0  0  0  0  0  0  0  0  0  0  0
   25.3829  -21.2367  -11.3222 C   0  0  2  0  0  0  0  0  0  0  0  0
   26.1401  -20.3588  -12.1705 N   0  0  0  0  0  0  0  0  0  0  0  0
   23.9178  -21.1947  -11.6708 C   0  0  0  0  0  0  0  0  0  0  0  0
   23.1489  -21.8341  -10.9250 O   0  0  0  0  0  0  0  0  0  0  0  0
   23.3979  -20.4852  -12.7684 N   0  0  0  0  0  0  0  0  0  0  0  0
   21.9688  -20.5419  -13.1505 C   0  0  1  0  0  0  0  0  0  0  0  0
   21.6215  -19.3708  -13.9993 C   0  0  0  0  0  0  0  0  0  0  0  0
   20.1897  -19.3863  -14.4328 C   0  0  0  0  0  0  0  0  0  0  0  0
   19.8349  -18.2653  -15.3354 C   0  0  0  0  0  0  0  0  0  0  0  0
   20.4919  -18.1220  -16.4081 O   0  0  0  0  0  0  0  0  0  0  0  0
   21.7261  -21.8215  -13.8386 C   0  0  0  0  0  0  0  0  0  0  0  0
   22.6158  -22.3513  -14.5221 O   0  0  0  0  0  0  0  0  0  0  0  0
   18.8330  -17.3636  -15.0821 O   0  0  0  0  0  0  0  0  0  0  0  0
   20.4997  -22.4501  -13.7312 O   0  0  0  0  0  0  0  0  0  0  0  0
  2  1  1  0
  3  4  1  0
  3  2  1  0
  4  5  1  0
  5  6  1  1
  7  5  1  0
  7  8  2  0
 10  9  1  1
 11 10  1  0
 12 10  1  0
 13 12  1  1
 13 14  1  0
 14  7  1  0
 15 13  1  0
 16 15  2  0
 17 15  1  0
 18 17  1  0
 18 23  1  0
 18 19  1  6
 20 21  1  0
 20 19  1  0
 21 22  2  0
 21 25  1  0
 23 26  1  0
 24 23  2  0
M  END
$$$$
