MLE.pdb
     RDKit          3D

 26 25  0  0  1  0  0  0  0  0999 V2000
   22.7917   -9.3464  -14.0140 C   0  0  0  0  0  0  0  0  0  0  0  0
   21.4003   -8.3499  -13.3950 S   0  0  0  0  0  0  0  0  0  0  0  0
   19.9783   -9.3820  -12.9851 C   0  0  0  0  0  0  0  0  0  0  0  0
   18.8717   -8.4815  -12.4781 C   0  0  0  0  0  0  0  0  0  0  0  0
   17.6506   -9.2871  -12.0709 C   0  0  2  0  0  0  0  0  0  0  0  0
   17.1491  -10.0243  -13.2451 N   0  0  0  0  0  0  0  0  0  0  0  0
   16.5594   -8.4304  -11.5921 C   0  0  0  0  0  0  0  0  0  0  0  0
   15.6876   -8.0224  -12.3944 O   0  0  0  0  0  0  0  0  0  0  0  0
   13.5289   -8.9992   -7.0002 C   0  0  0  0  0  0  0  0  0  0  0  0
   13.9544   -8.5734   -8.3784 C   0  0  1  0  0  0  0  0  0  0  0  0
   12.6850   -8.0802   -9.0990 C   0  0  0  0  0  0  0  0  0  0  0  0
   14.9159   -7.4488   -8.4396 C   0  0  0  0  0  0  0  0  0  0  0  0
   15.4436   -7.0558   -9.7774 C   0  0  2  0  0  0  0  0  0  0  0  0
   16.4110   -8.0131  -10.2375 N   0  0  0  0  0  0  0  0  0  0  0  0
   16.0715   -5.6989   -9.5925 C   0  0  0  0  0  0  0  0  0  0  0  0
   17.2671   -5.6817   -9.2367 O   0  0  0  0  0  0  0  0  0  0  0  0
   15.3859   -4.4881   -9.7989 N   0  0  0  0  0  0  0  0  0  0  0  0
   16.0641   -3.2560  -10.2609 C   0  0  1  0  0  0  0  0  0  0  0  0
   16.8324   -3.5329  -11.5042 C   0  0  0  0  0  0  0  0  0  0  0  0
   17.5645   -2.3268  -12.0018 C   0  0  0  0  0  0  0  0  0  0  0  0
   18.3663   -2.5855  -13.2214 C   0  0  0  0  0  0  0  0  0  0  0  0
   18.3359   -3.7445  -13.7299 O   0  0  0  0  0  0  0  0  0  0  0  0
   15.0425   -2.2133  -10.4568 C   0  0  0  0  0  0  0  0  0  0  0  0
   13.9198   -2.5022  -10.8992 O   0  0  0  0  0  0  0  0  0  0  0  0
   19.1474   -1.6433  -13.8404 O   0  0  0  0  0  0  0  0  0  0  0  0
   15.3225   -0.8951  -10.1493 O   0  0  0  0  0  0  0  0  0  0  0  0
  2  1  1  0
  3  4  1  0
  3  2  1  0
  4  5  1  0
  5  6  1  6
  7  5  1  0
  7  8  2  0
 10  9  1  1
 11 10  1  0
 12 10  1  0
 13 12  1  1
 13 14  1  0
 14  7  1  0
 15 13  1  0
 16 15  2  0
 17 15  1  0
 18 17  1  0
 18 23  1  0
 18 19  1  6
 20 21  1  0
 20 19  1  0
 21 22  2  0
 21 25  1  0
 23 26  1  0
 24 23  2  0
M  END
$$$$
