MLE.pdb
     RDKit          3D

 26 25  0  0  1  0  0  0  0  0999 V2000
   19.3046  -24.3601  -16.7667 C   0  0  0  0  0  0  0  0  0  0  0  0
   18.6694  -22.6546  -16.7660 S   0  0  0  0  0  0  0  0  0  0  0  0
   19.9174  -21.4842  -16.1933 C   0  0  0  0  0  0  0  0  0  0  0  0
   20.4687  -21.9885  -14.8764 C   0  0  0  0  0  0  0  0  0  0  0  0
   19.5589  -21.6136  -13.7198 C   0  0  2  0  0  0  0  0  0  0  0  0
   19.6166  -20.1542  -13.5181 N   0  0  0  0  0  0  0  0  0  0  0  0
   19.9751  -22.2468  -12.4631 C   0  0  0  0  0  0  0  0  0  0  0  0
   20.1050  -23.4918  -12.4041 O   0  0  0  0  0  0  0  0  0  0  0  0
   23.0675  -19.4627   -8.5314 C   0  0  0  0  0  0  0  0  0  0  0  0
   22.5298  -20.4967   -9.4820 C   0  0  1  0  0  0  0  0  0  0  0  0
   23.5480  -21.6529   -9.4977 C   0  0  0  0  0  0  0  0  0  0  0  0
   21.2330  -21.1062   -9.1083 C   0  0  0  0  0  0  0  0  0  0  0  0
   20.6559  -22.1316  -10.0237 C   0  0  2  0  0  0  0  0  0  0  0  0
   20.2522  -21.5289  -11.2636 N   0  0  0  0  0  0  0  0  0  0  0  0
   19.4732  -22.7170   -9.2968 C   0  0  0  0  0  0  0  0  0  0  0  0
   18.4557  -21.9993   -9.2192 O   0  0  0  0  0  0  0  0  0  0  0  0
   19.4696  -24.0001   -8.7205 N   0  0  0  0  0  0  0  0  0  0  0  0
   18.3021  -24.5434   -7.9901 C   0  0  1  0  0  0  0  0  0  0  0  0
   18.1775  -26.0039   -8.2431 C   0  0  0  0  0  0  0  0  0  0  0  0
   17.0184  -26.6106   -7.5175 C   0  0  0  0  0  0  0  0  0  0  0  0
   16.4831  -27.8270   -8.1743 C   0  0  0  0  0  0  0  0  0  0  0  0
   17.1510  -28.3498   -9.1141 O   0  0  0  0  0  0  0  0  0  0  0  0
   18.4702  -24.2371   -6.5593 C   0  0  0  0  0  0  0  0  0  0  0  0
   17.4832  -24.1266   -5.8154 O   0  0  0  0  0  0  0  0  0  0  0  0
   15.3000  -28.4284   -7.8284 O   0  0  0  0  0  0  0  0  0  0  0  0
   19.7339  -24.0683   -6.0253 O   0  0  0  0  0  0  0  0  0  0  0  0
  2  1  1  0
  3  4  1  0
  3  2  1  0
  4  5  1  0
  5  6  1  1
  7  5  1  0
  7  8  2  0
 10  9  1  1
 11 10  1  0
 12 10  1  0
 13 12  1  1
 13 14  1  0
 14  7  1  0
 15 13  1  0
 16 15  2  0
 17 15  1  0
 18 17  1  0
 18 23  1  0
 18 19  1  1
 20 21  1  0
 20 19  1  0
 21 22  2  0
 21 25  1  0
 23 26  1  0
 24 23  2  0
M  END
$$$$
