MLE.pdb
     RDKit          3D

 26 25  0  0  1  0  0  0  0  0999 V2000
   26.5770  -27.0048  -16.5254 C   0  0  0  0  0  0  0  0  0  0  0  0
   26.0271  -25.8133  -17.7865 S   0  0  0  0  0  0  0  0  0  0  0  0
   27.1511  -24.4067  -17.9022 C   0  0  0  0  0  0  0  0  0  0  0  0
   27.2322  -23.7536  -16.5386 C   0  0  0  0  0  0  0  0  0  0  0  0
   26.1129  -22.7460  -16.3442 C   0  0  2  0  0  0  0  0  0  0  0  0
   26.5840  -21.4171  -16.7752 N   0  0  0  0  0  0  0  0  0  0  0  0
   25.7102  -22.6336  -14.9375 C   0  0  0  0  0  0  0  0  0  0  0  0
   25.1338  -23.5932  -14.3742 O   0  0  0  0  0  0  0  0  0  0  0  0
   28.7277  -19.4377  -11.7519 C   0  0  0  0  0  0  0  0  0  0  0  0
   27.8601  -20.4966  -12.3746 C   0  0  1  0  0  0  0  0  0  0  0  0
   28.3762  -21.8517  -11.8540 C   0  0  0  0  0  0  0  0  0  0  0  0
   26.4238  -20.4478  -12.0178 C   0  0  0  0  0  0  0  0  0  0  0  0
   25.4870  -21.3228  -12.7789 C   0  0  2  0  0  0  0  0  0  0  0  0
   25.9325  -21.4764  -14.1360 N   0  0  0  0  0  0  0  0  0  0  0  0
   24.1454  -20.6395  -12.7244 C   0  0  0  0  0  0  0  0  0  0  0  0
   24.1450  -19.4382  -12.3876 O   0  0  0  0  0  0  0  0  0  0  0  0
   22.9311  -21.2808  -13.0289 N   0  0  0  0  0  0  0  0  0  0  0  0
   21.6443  -20.5538  -13.1133 C   0  0  1  0  0  0  0  0  0  0  0  0
   21.7218  -19.5007  -14.1609 C   0  0  0  0  0  0  0  0  0  0  0  0
   21.7329  -20.0724  -15.5434 C   0  0  0  0  0  0  0  0  0  0  0  0
   22.3534  -19.1753  -16.5472 C   0  0  0  0  0  0  0  0  0  0  0  0
   22.4115  -19.5638  -17.7507 O   0  0  0  0  0  0  0  0  0  0  0  0
   20.5784  -21.5335  -13.3846 C   0  0  0  0  0  0  0  0  0  0  0  0
   20.8567  -22.7046  -13.6859 O   0  0  0  0  0  0  0  0  0  0  0  0
   22.8748  -17.9409  -16.2550 O   0  0  0  0  0  0  0  0  0  0  0  0
   19.2500  -21.1593  -13.3068 O   0  0  0  0  0  0  0  0  0  0  0  0
  2  1  1  0
  3  4  1  0
  3  2  1  0
  4  5  1  0
  5  6  1  1
  7  5  1  0
  7  8  2  0
 10  9  1  1
 11 10  1  0
 12 10  1  0
 13 12  1  1
 13 14  1  0
 14  7  1  0
 15 13  1  0
 16 15  2  0
 17 15  1  0
 18 17  1  0
 18 23  1  0
 18 19  1  6
 20 21  1  0
 20 19  1  0
 21 22  2  0
 21 25  1  0
 23 26  1  0
 24 23  2  0
M  END
$$$$
