MLE.pdb
     RDKit          3D

 26 25  0  0  1  0  0  0  0  0999 V2000
   25.8122  -16.3891  -16.9152 C   0  0  0  0  0  0  0  0  0  0  0  0
   27.2977  -15.9927  -15.9413 S   0  0  0  0  0  0  0  0  0  0  0  0
   28.1009  -17.4853  -15.3230 C   0  0  0  0  0  0  0  0  0  0  0  0
   27.0263  -18.4266  -14.8212 C   0  0  0  0  0  0  0  0  0  0  0  0
   27.6269  -19.5739  -14.0283 C   0  0  2  0  0  0  0  0  0  0  0  0
   28.3669  -20.4569  -14.9483 N   0  0  0  0  0  0  0  0  0  0  0  0
   26.5979  -20.3884  -13.3713 C   0  0  0  0  0  0  0  0  0  0  0  0
   26.1247  -21.3894  -13.9583 O   0  0  0  0  0  0  0  0  0  0  0  0
   26.0481  -20.1436   -7.7417 C   0  0  0  0  0  0  0  0  0  0  0  0
   26.1861  -20.5606   -9.1800 C   0  0  1  0  0  0  0  0  0  0  0  0
   26.6291  -22.0363   -9.1706 C   0  0  0  0  0  0  0  0  0  0  0  0
   24.9458  -20.5168   -9.9878 C   0  0  0  0  0  0  0  0  0  0  0  0
   25.0415  -20.8782  -11.4310 C   0  0  2  0  0  0  0  0  0  0  0  0
   26.0782  -20.1181  -12.0722 N   0  0  0  0  0  0  0  0  0  0  0  0
   23.6937  -20.5642  -12.0266 C   0  0  0  0  0  0  0  0  0  0  0  0
   23.3569  -19.3631  -12.0412 O   0  0  0  0  0  0  0  0  0  0  0  0
   22.8271  -21.5400  -12.5513 N   0  0  0  0  0  0  0  0  0  0  0  0
   21.5326  -21.2001  -13.1839 C   0  0  1  0  0  0  0  0  0  0  0  0
   21.1909  -22.2110  -14.2202 C   0  0  0  0  0  0  0  0  0  0  0  0
   22.1171  -22.1587  -15.3940 C   0  0  0  0  0  0  0  0  0  0  0  0
   21.8519  -23.2130  -16.4016 C   0  0  0  0  0  0  0  0  0  0  0  0
   20.9643  -24.0799  -16.1498 O   0  0  0  0  0  0  0  0  0  0  0  0
   20.5104  -21.1174  -12.1266 C   0  0  0  0  0  0  0  0  0  0  0  0
   20.7672  -21.4804  -10.9682 O   0  0  0  0  0  0  0  0  0  0  0  0
   22.5120  -23.3130  -17.5996 O   0  0  0  0  0  0  0  0  0  0  0  0
   19.2479  -20.6328  -12.4126 O   0  0  0  0  0  0  0  0  0  0  0  0
  2  1  1  0
  3  4  1  0
  3  2  1  0
  4  5  1  0
  5  6  1  6
  7  5  1  0
  7  8  2  0
 10  9  1  1
 11 10  1  0
 12 10  1  0
 13 12  1  1
 13 14  1  0
 14  7  1  0
 15 13  1  0
 16 15  2  0
 17 15  1  0
 18 17  1  0
 18 23  1  0
 18 19  1  6
 20 21  1  0
 20 19  1  0
 21 22  2  0
 21 25  1  0
 23 26  1  0
 24 23  2  0
M  END
$$$$
