MLE.pdb
     RDKit          3D

 26 25  0  0  1  0  0  0  0  0999 V2000
   11.1805  -21.0000    4.4711 C   0  0  0  0  0  0  0  0  0  0  0  0
   10.8742  -21.6476    2.7981 S   0  0  0  0  0  0  0  0  0  0  0  0
   12.2971  -21.3908    1.7187 C   0  0  0  0  0  0  0  0  0  0  0  0
   13.4073  -20.7706    2.5405 C   0  0  0  0  0  0  0  0  0  0  0  0
   14.6359  -20.5008    1.6899 C   0  0  2  0  0  0  0  0  0  0  0  0
   15.2389  -21.7875    1.2969 N   0  0  0  0  0  0  0  0  0  0  0  0
   15.6576  -19.7429    2.4216 C   0  0  0  0  0  0  0  0  0  0  0  0
   16.4580  -20.3419    3.1773 O   0  0  0  0  0  0  0  0  0  0  0  0
   18.9655  -15.4443    3.6937 C   0  0  0  0  0  0  0  0  0  0  0  0
   17.5011  -15.1612    3.5008 C   0  0  1  0  0  0  0  0  0  0  0  0
   17.4069  -13.8227    2.7435 C   0  0  0  0  0  0  0  0  0  0  0  0
   16.7556  -16.1426    2.6798 C   0  0  0  0  0  0  0  0  0  0  0  0
   16.6886  -17.5500    3.1669 C   0  0  2  0  0  0  0  0  0  0  0  0
   15.8141  -18.3291    2.3351 N   0  0  0  0  0  0  0  0  0  0  0  0
   16.1673  -17.4751    4.5785 C   0  0  0  0  0  0  0  0  0  0  0  0
   14.9458  -17.6765    4.7330 O   0  0  0  0  0  0  0  0  0  0  0  0
   16.9768  -17.1967    5.6946 N   0  0  0  0  0  0  0  0  0  0  0  0
   16.4751  -17.2803    7.0848 C   0  0  1  0  0  0  0  0  0  0  0  0
   16.0069  -18.6621    7.3753 C   0  0  0  0  0  0  0  0  0  0  0  0
   15.4181  -18.7877    8.7448 C   0  0  0  0  0  0  0  0  0  0  0  0
   14.9736  -20.1636    9.0714 C   0  0  0  0  0  0  0  0  0  0  0  0
   15.2745  -21.1008    8.2752 O   0  0  0  0  0  0  0  0  0  0  0  0
   17.5554  -16.8550    7.9912 C   0  0  0  0  0  0  0  0  0  0  0  0
   17.2959  -16.4058    9.1183 O   0  0  0  0  0  0  0  0  0  0  0  0
   14.2497  -20.4912   10.1893 O   0  0  0  0  0  0  0  0  0  0  0  0
   18.8765  -16.9512    7.5960 O   0  0  0  0  0  0  0  0  0  0  0  0
  2  1  1  0
  3  4  1  0
  3  2  1  0
  4  5  1  0
  5  6  1  1
  7  5  1  0
  7  8  2  0
 10  9  1  6
 11 10  1  0
 12 10  1  0
 13 12  1  6
 13 14  1  0
 14  7  1  0
 15 13  1  0
 16 15  2  0
 17 15  1  0
 18 17  1  0
 18 23  1  0
 18 19  1  1
 20 21  1  0
 20 19  1  0
 21 22  2  0
 21 25  1  0
 23 26  1  0
 24 23  2  0
M  END
$$$$
