NHY.pdb
     RDKit          3D

 31 32  0  0  1  0  0  0  0  0999 V2000
    6.5165  -17.9679   16.1908 N   0  0  0  0  0  0  0  0  0  0  0  0
    7.6445  -17.3110   16.7198 C   0  0  0  0  0  0  0  0  0  0  0  0
    8.7539  -17.2515   16.1154 O   0  0  0  0  0  0  0  0  0  0  0  0
    7.5710  -16.6484   18.0382 C   0  0  0  0  0  0  0  0  0  0  0  0
    8.6686  -17.1718   18.9439 C   0  0  2  0  0  0  0  0  0  0  0  0
    9.1865  -18.4385   18.5523 N   0  0  0  0  0  0  0  0  0  0  0  0
    8.2147  -17.1085   20.3535 C   0  0  0  0  0  0  0  0  0  0  0  0
    7.8154  -15.9935   20.8134 O   0  0  0  0  0  0  0  0  0  0  0  0
    8.1903  -18.1954   21.2334 N   0  0  0  0  0  0  0  0  0  0  0  0
    7.6440  -18.0554   22.6377 C   0  0  1  0  0  0  0  0  0  0  0  0
    7.6142  -19.4409   23.1596 C   0  0  0  0  0  0  0  0  0  0  0  0
    7.2099  -19.6938   24.5258 C   0  0  0  0  0  0  0  0  0  0  0  0
    6.7533  -18.6188   25.3213 C   0  0  0  0  0  0  0  0  0  0  0  0
    6.4346  -19.0534   26.5225 N   0  0  0  0  0  0  0  0  0  0  0  0
    6.6695  -20.3779   26.5337 C   0  0  0  0  0  0  0  0  0  0  0  0
    7.1295  -20.7347   25.3368 N   0  0  0  0  0  0  0  0  0  0  0  0
    8.6691  -17.2603   23.3858 C   0  0  0  0  0  0  0  0  0  0  0  0
    9.8941  -17.3687   23.0252 O   0  0  0  0  0  0  0  0  0  0  0  0
    4.9710  -11.6909   27.4532 O   0  0  0  0  0  0  0  0  0  0  0  0
    6.0533  -12.2920   26.8170 C   0  0  0  0  0  0  0  0  0  0  0  0
    7.3461  -11.8434   26.9644 C   0  0  0  0  0  0  0  0  0  0  0  0
    8.4155  -12.4545   26.3225 C   0  0  0  0  0  0  0  0  0  0  0  0
    8.2112  -13.5553   25.4981 C   0  0  0  0  0  0  0  0  0  0  0  0
    9.3620  -14.1684   24.8318 C   0  0  0  0  0  0  0  0  0  0  0  0
    9.5099  -15.6550   25.0846 C   0  0  2  0  0  0  0  0  0  0  0  0
    8.4134  -16.3889   24.4566 N   0  0  0  0  0  0  0  0  0  0  0  0
    9.5534  -15.9446   26.5327 C   0  0  0  0  0  0  0  0  0  0  0  0
   10.4291  -15.5203   27.3031 O   0  0  0  0  0  0  0  0  0  0  0  0
    6.9111  -13.9960   25.3577 C   0  0  0  0  0  0  0  0  0  0  0  0
    5.8540  -13.3837   25.9987 C   0  0  0  0  0  0  0  0  0  0  0  0
    8.5550  -16.7465   27.0977 O   0  0  0  0  0  0  0  0  0  0  0  0
  2  3  2  0
  2  1  1  0
  4  2  1  0
  5  4  1  0
  5  6  1  6
  7  5  1  0
  8  7  2  0
  9  7  1  0
 10  9  1  0
 10 11  1  1
 12 11  1  0
 12 13  2  0
 14 13  1  0
 15 14  1  0
 16 15  2  0
 16 12  1  0
 17 10  1  0
 17 18  2  0
 20 21  2  0
 20 19  1  0
 22 21  1  0
 23 22  2  0
 24 23  1  0
 25 24  1  1
 25 26  1  0
 26 17  1  0
 27 25  1  0
 28 27  2  0
 29 23  1  0
 29 30  2  0
 30 20  1  0
 31 27  1  0
M  END
$$$$
