NHY.pdb
     RDKit          3D

 31 32  0  0  1  0  0  0  0  0999 V2000
    8.8625  -13.3984   17.8332 N   0  0  0  0  0  0  0  0  0  0  0  0
    8.0492  -12.8506   18.8441 C   0  0  0  0  0  0  0  0  0  0  0  0
    7.4375  -11.7509   18.7164 O   0  0  0  0  0  0  0  0  0  0  0  0
    7.8759  -13.5608   20.1279 C   0  0  0  0  0  0  0  0  0  0  0  0
    8.5983  -14.8933   20.0855 C   0  0  2  0  0  0  0  0  0  0  0  0
    8.2156  -15.7242   18.9949 N   0  0  0  0  0  0  0  0  0  0  0  0
    8.5024  -15.5469   21.4123 C   0  0  0  0  0  0  0  0  0  0  0  0
    7.3514  -15.8417   21.8622 O   0  0  0  0  0  0  0  0  0  0  0  0
    9.5951  -15.8707   22.2231 N   0  0  0  0  0  0  0  0  0  0  0  0
    9.5256  -17.0129   23.2134 C   0  0  1  0  0  0  0  0  0  0  0  0
   10.6498  -17.8982   22.8318 C   0  0  0  0  0  0  0  0  0  0  0  0
   10.9699  -19.0549   23.6402 C   0  0  0  0  0  0  0  0  0  0  0  0
   12.1944  -19.0878   24.3448 C   0  0  0  0  0  0  0  0  0  0  0  0
   12.2953  -20.2156   25.0164 N   0  0  0  0  0  0  0  0  0  0  0  0
   11.1745  -20.9180   24.7711 C   0  0  0  0  0  0  0  0  0  0  0  0
   10.4030  -20.2079   23.9511 N   0  0  0  0  0  0  0  0  0  0  0  0
    9.8039  -16.3978   24.5501 C   0  0  0  0  0  0  0  0  0  0  0  0
   10.6438  -15.4312   24.6036 O   0  0  0  0  0  0  0  0  0  0  0  0
    6.1497  -11.0846   25.2541 O   0  0  0  0  0  0  0  0  0  0  0  0
    6.7338  -12.1824   25.8793 C   0  0  0  0  0  0  0  0  0  0  0  0
    7.8550  -12.0785   26.6707 C   0  0  0  0  0  0  0  0  0  0  0  0
    8.4260  -13.1840   27.2880 C   0  0  0  0  0  0  0  0  0  0  0  0
    7.8750  -14.4500   27.1235 C   0  0  0  0  0  0  0  0  0  0  0  0
    8.5092  -15.5930   27.7834 C   0  0  0  0  0  0  0  0  0  0  0  0
    9.6785  -16.1830   27.0215 C   0  0  2  0  0  0  0  0  0  0  0  0
    9.2199  -16.7791   25.7687 N   0  0  0  0  0  0  0  0  0  0  0  0
   10.3872  -17.1914   27.8362 C   0  0  0  0  0  0  0  0  0  0  0  0
   10.4263  -18.4026   27.5683 O   0  0  0  0  0  0  0  0  0  0  0  0
    6.7514  -14.5420   26.3278 C   0  0  0  0  0  0  0  0  0  0  0  0
    6.1899  -13.4392   25.7181 C   0  0  0  0  0  0  0  0  0  0  0  0
   11.0662  -16.7811   28.9893 O   0  0  0  0  0  0  0  0  0  0  0  0
  2  3  2  0
  2  1  1  0
  4  2  1  0
  5  4  1  0
  5  6  1  6
  7  5  1  0
  8  7  2  0
  9  7  1  0
 10  9  1  0
 10 11  1  6
 12 11  1  0
 12 13  2  0
 14 13  1  0
 15 14  1  0
 16 15  2  0
 16 12  1  0
 17 10  1  0
 17 18  2  0
 20 21  2  0
 20 19  1  0
 22 21  1  0
 23 22  2  0
 24 23  1  0
 25 24  1  1
 25 26  1  0
 26 17  1  0
 27 25  1  0
 28 27  2  0
 29 23  1  0
 29 30  2  0
 30 20  1  0
 31 27  1  0
M  END
$$$$
