NHY.pdb
     RDKit          3D

 31 32  0  0  1  0  0  0  0  0999 V2000
   15.6599  -14.0886   17.4432 N   0  0  0  0  0  0  0  0  0  0  0  0
   14.8622  -15.1693   17.8667 C   0  0  0  0  0  0  0  0  0  0  0  0
   14.6928  -16.2141   17.1742 O   0  0  0  0  0  0  0  0  0  0  0  0
   14.1738  -15.1206   19.1730 C   0  0  0  0  0  0  0  0  0  0  0  0
   12.6759  -15.2486   18.9753 C   0  0  2  0  0  0  0  0  0  0  0  0
   12.1240  -14.2775   18.0928 N   0  0  0  0  0  0  0  0  0  0  0  0
   12.0098  -15.3187   20.2975 C   0  0  0  0  0  0  0  0  0  0  0  0
   11.8132  -14.2383   20.9364 O   0  0  0  0  0  0  0  0  0  0  0  0
   11.5730  -16.4981   20.9093 N   0  0  0  0  0  0  0  0  0  0  0  0
   10.8669  -16.4724   22.2475 C   0  0  1  0  0  0  0  0  0  0  0  0
   10.0342  -17.6970   22.2465 C   0  0  0  0  0  0  0  0  0  0  0  0
    9.3643  -18.1207   23.4572 C   0  0  0  0  0  0  0  0  0  0  0  0
    8.6982  -17.1596   24.2507 C   0  0  0  0  0  0  0  0  0  0  0  0
    8.1557  -17.7419   25.2994 N   0  0  0  0  0  0  0  0  0  0  0  0
    8.4478  -19.0523   25.2134 C   0  0  0  0  0  0  0  0  0  0  0  0
    9.1664  -19.2525   24.1110 N   0  0  0  0  0  0  0  0  0  0  0  0
   11.9511  -16.6047   23.2719 C   0  0  0  0  0  0  0  0  0  0  0  0
   13.0211  -17.2258   22.9375 O   0  0  0  0  0  0  0  0  0  0  0  0
    8.9218  -15.4885   30.3675 O   0  0  0  0  0  0  0  0  0  0  0  0
    9.9466  -15.4208   29.4280 C   0  0  0  0  0  0  0  0  0  0  0  0
   11.0888  -16.1836   29.5166 C   0  0  0  0  0  0  0  0  0  0  0  0
   12.1026  -16.1045   28.5705 C   0  0  0  0  0  0  0  0  0  0  0  0
   11.9945  -15.2393   27.4875 C   0  0  0  0  0  0  0  0  0  0  0  0
   13.0871  -15.1774   26.5146 C   0  0  0  0  0  0  0  0  0  0  0  0
   13.0566  -16.2764   25.4719 C   0  0  2  0  0  0  0  0  0  0  0  0
   11.9111  -16.1008   24.5818 N   0  0  0  0  0  0  0  0  0  0  0  0
   13.0081  -17.6090   26.1078 C   0  0  0  0  0  0  0  0  0  0  0  0
   12.0249  -18.3654   26.0688 O   0  0  0  0  0  0  0  0  0  0  0  0
   10.8453  -14.4795   27.4092 C   0  0  0  0  0  0  0  0  0  0  0  0
    9.8425  -14.5637   28.3529 C   0  0  0  0  0  0  0  0  0  0  0  0
   14.1296  -18.0726   26.8054 O   0  0  0  0  0  0  0  0  0  0  0  0
  2  3  2  0
  2  1  1  0
  4  2  1  0
  5  4  1  0
  5  6  1  1
  7  5  1  0
  8  7  2  0
  9  7  1  0
 10  9  1  0
 10 11  1  6
 12 11  1  0
 12 13  2  0
 14 13  1  0
 15 14  1  0
 16 15  2  0
 16 12  1  0
 17 10  1  0
 17 18  2  0
 20 21  2  0
 20 19  1  0
 22 21  1  0
 23 22  2  0
 24 23  1  0
 25 24  1  1
 25 26  1  0
 26 17  1  0
 27 25  1  0
 28 27  2  0
 29 23  1  0
 29 30  2  0
 30 20  1  0
 31 27  1  0
M  END
$$$$
