NHY.pdb
     RDKit          3D

 31 32  0  0  1  0  0  0  0  0999 V2000
   16.6438  -15.3026   18.0116 N   0  0  0  0  0  0  0  0  0  0  0  0
   16.1703  -14.2063   18.7583 C   0  0  0  0  0  0  0  0  0  0  0  0
   16.8308  -13.1383   18.9092 O   0  0  0  0  0  0  0  0  0  0  0  0
   14.8467  -14.2656   19.4118 C   0  0  0  0  0  0  0  0  0  0  0  0
   13.9117  -15.1508   18.6110 C   0  0  2  0  0  0  0  0  0  0  0  0
   13.6181  -14.6541   17.3097 N   0  0  0  0  0  0  0  0  0  0  0  0
   12.7153  -15.4671   19.4267 C   0  0  0  0  0  0  0  0  0  0  0  0
   11.7560  -14.6343   19.4457 O   0  0  0  0  0  0  0  0  0  0  0  0
   12.5543  -16.6276   20.1904 N   0  0  0  0  0  0  0  0  0  0  0  0
   11.2557  -16.9185   20.9109 C   0  0  1  0  0  0  0  0  0  0  0  0
   11.0738  -18.3807   20.7634 C   0  0  0  0  0  0  0  0  0  0  0  0
    9.9824  -19.0486   21.4393 C   0  0  0  0  0  0  0  0  0  0  0  0
    8.8657  -18.2928   21.8618 C   0  0  0  0  0  0  0  0  0  0  0  0
    7.9885  -19.0789   22.4499 N   0  0  0  0  0  0  0  0  0  0  0  0
    8.4995  -20.3231   22.4233 C   0  0  0  0  0  0  0  0  0  0  0  0
    9.6842  -20.2795   21.8182 N   0  0  0  0  0  0  0  0  0  0  0  0
   11.5157  -16.5885   22.3482 C   0  0  0  0  0  0  0  0  0  0  0  0
   12.7266  -16.6344   22.7656 O   0  0  0  0  0  0  0  0  0  0  0  0
   10.5842  -14.8966   31.0496 O   0  0  0  0  0  0  0  0  0  0  0  0
   10.4003  -14.9842   29.6727 C   0  0  0  0  0  0  0  0  0  0  0  0
   10.6589  -13.9359   28.8192 C   0  0  0  0  0  0  0  0  0  0  0  0
   10.4703  -14.0394   27.4471 C   0  0  0  0  0  0  0  0  0  0  0  0
   10.0072  -15.2230   26.8833 C   0  0  0  0  0  0  0  0  0  0  0  0
    9.8131  -15.2921   25.4336 C   0  0  0  0  0  0  0  0  0  0  0  0
   10.9309  -15.9918   24.6874 C   0  0  2  0  0  0  0  0  0  0  0  0
   10.5472  -16.2216   23.2963 N   0  0  0  0  0  0  0  0  0  0  0  0
   11.2821  -17.2714   25.3371 C   0  0  0  0  0  0  0  0  0  0  0  0
   10.6322  -18.3208   25.2081 O   0  0  0  0  0  0  0  0  0  0  0  0
    9.7512  -16.2669   27.7486 C   0  0  0  0  0  0  0  0  0  0  0  0
    9.9411  -16.1565   29.1105 C   0  0  0  0  0  0  0  0  0  0  0  0
   12.4157  -17.3314   26.1559 O   0  0  0  0  0  0  0  0  0  0  0  0
  2  3  2  0
  2  1  1  0
  4  2  1  0
  5  4  1  0
  5  6  1  6
  7  5  1  0
  8  7  2  0
  9  7  1  0
 10  9  1  0
 10 11  1  1
 12 11  1  0
 12 13  2  0
 14 13  1  0
 15 14  1  0
 16 15  2  0
 16 12  1  0
 17 10  1  0
 17 18  2  0
 20 21  2  0
 20 19  1  0
 22 21  1  0
 23 22  2  0
 24 23  1  0
 25 24  1  1
 25 26  1  0
 26 17  1  0
 27 25  1  0
 28 27  2  0
 29 23  1  0
 29 30  2  0
 30 20  1  0
 31 27  1  0
M  END
$$$$
