NHY.pdb
     RDKit          3D

 31 32  0  0  1  0  0  0  0  0999 V2000
    9.1153  -13.7175   17.9313 N   0  0  0  0  0  0  0  0  0  0  0  0
    8.2276  -13.0929   18.8289 C   0  0  0  0  0  0  0  0  0  0  0  0
    7.5597  -12.0607   18.5317 O   0  0  0  0  0  0  0  0  0  0  0  0
    8.0389  -13.6359   20.1897 C   0  0  0  0  0  0  0  0  0  0  0  0
    8.8492  -14.9064   20.3585 C   0  0  2  0  0  0  0  0  0  0  0  0
    8.6431  -15.8651   19.3266 N   0  0  0  0  0  0  0  0  0  0  0  0
    8.6544  -15.4353   21.7293 C   0  0  0  0  0  0  0  0  0  0  0  0
    7.5148  -15.3025   22.2751 O   0  0  0  0  0  0  0  0  0  0  0  0
    9.6404  -16.0794   22.4836 N   0  0  0  0  0  0  0  0  0  0  0  0
    9.2950  -16.8183   23.7583 C   0  0  1  0  0  0  0  0  0  0  0  0
    9.8758  -18.1674   23.5692 C   0  0  0  0  0  0  0  0  0  0  0  0
    9.2336  -19.1174   22.6866 C   0  0  0  0  0  0  0  0  0  0  0  0
    8.0606  -18.7360   21.9970 C   0  0  0  0  0  0  0  0  0  0  0  0
    7.6351  -19.7331   21.2501 N   0  0  0  0  0  0  0  0  0  0  0  0
    8.4946  -20.7519   21.4319 C   0  0  0  0  0  0  0  0  0  0  0  0
    9.4351  -20.3620   22.2893 N   0  0  0  0  0  0  0  0  0  0  0  0
   10.0347  -16.1024   24.8459 C   0  0  0  0  0  0  0  0  0  0  0  0
   11.1774  -15.5961   24.5627 O   0  0  0  0  0  0  0  0  0  0  0  0
    5.3186  -12.0809   25.1237 O   0  0  0  0  0  0  0  0  0  0  0  0
    6.4264  -12.5954   25.7910 C   0  0  0  0  0  0  0  0  0  0  0  0
    6.3179  -13.4550   26.8604 C   0  0  0  0  0  0  0  0  0  0  0  0
    7.4335  -13.9600   27.5158 C   0  0  0  0  0  0  0  0  0  0  0  0
    8.7148  -13.6080   27.1064 C   0  0  0  0  0  0  0  0  0  0  0  0
    9.8668  -14.1541   27.8266 C   0  0  0  0  0  0  0  0  0  0  0  0
   10.4869  -15.3746   27.1773 C   0  0  2  0  0  0  0  0  0  0  0  0
    9.5876  -15.9237   26.1648 N   0  0  0  0  0  0  0  0  0  0  0  0
   10.8089  -16.4053   28.1856 C   0  0  0  0  0  0  0  0  0  0  0  0
   11.5547  -16.2192   29.1600 O   0  0  0  0  0  0  0  0  0  0  0  0
    8.8113  -12.7456   26.0335 C   0  0  0  0  0  0  0  0  0  0  0  0
    7.6984  -12.2482   25.3875 C   0  0  0  0  0  0  0  0  0  0  0  0
   10.2502  -17.6823   28.0574 O   0  0  0  0  0  0  0  0  0  0  0  0
  2  3  2  0
  2  1  1  0
  4  2  1  0
  5  4  1  0
  5  6  1  6
  7  5  1  0
  8  7  2  0
  9  7  1  0
 10  9  1  0
 10 11  1  6
 12 11  1  0
 12 13  2  0
 14 13  1  0
 15 14  1  0
 16 15  2  0
 16 12  1  0
 17 10  1  0
 17 18  2  0
 20 21  2  0
 20 19  1  0
 22 21  1  0
 23 22  2  0
 24 23  1  0
 25 24  1  1
 25 26  1  0
 26 17  1  0
 27 25  1  0
 28 27  2  0
 29 23  1  0
 29 30  2  0
 30 20  1  0
 31 27  1  0
M  END
$$$$
