NHY.pdb
     RDKit          3D

 31 32  0  0  1  0  0  0  0  0999 V2000
   15.7708  -14.1120   15.8034 N   0  0  0  0  0  0  0  0  0  0  0  0
   15.6045  -13.7337   17.1498 C   0  0  0  0  0  0  0  0  0  0  0  0
   16.5702  -13.4072   17.8985 O   0  0  0  0  0  0  0  0  0  0  0  0
   14.2569  -13.7038   17.7546 C   0  0  0  0  0  0  0  0  0  0  0  0
   14.2156  -14.6028   18.9749 C   0  0  2  0  0  0  0  0  0  0  0  0
   14.6839  -15.9255   18.7348 N   0  0  0  0  0  0  0  0  0  0  0  0
   12.8687  -14.5356   19.5897 C   0  0  0  0  0  0  0  0  0  0  0  0
   12.3993  -13.3967   19.9007 O   0  0  0  0  0  0  0  0  0  0  0  0
   12.0589  -15.6435   19.8601 N   0  0  0  0  0  0  0  0  0  0  0  0
   10.7137  -15.4855   20.5351 C   0  0  1  0  0  0  0  0  0  0  0  0
    9.8972  -16.5941   19.9898 C   0  0  0  0  0  0  0  0  0  0  0  0
    9.3544  -16.5059   18.6513 C   0  0  0  0  0  0  0  0  0  0  0  0
    8.7748  -15.2916   18.2195 C   0  0  0  0  0  0  0  0  0  0  0  0
    8.3444  -15.4153   16.9814 N   0  0  0  0  0  0  0  0  0  0  0  0
    8.6259  -16.6724   16.5937 C   0  0  0  0  0  0  0  0  0  0  0  0
    9.2254  -17.3004   17.6026 N   0  0  0  0  0  0  0  0  0  0  0  0
   10.9695  -15.7213   21.9917 C   0  0  0  0  0  0  0  0  0  0  0  0
   11.9970  -16.4149   22.3167 O   0  0  0  0  0  0  0  0  0  0  0  0
   10.7534  -15.6720   30.8981 O   0  0  0  0  0  0  0  0  0  0  0  0
   10.4857  -15.4509   29.5502 C   0  0  0  0  0  0  0  0  0  0  0  0
   10.7803  -14.2644   28.9180 C   0  0  0  0  0  0  0  0  0  0  0  0
   10.5069  -14.0594   27.5717 C   0  0  0  0  0  0  0  0  0  0  0  0
    9.9181  -15.0612   26.8082 C   0  0  0  0  0  0  0  0  0  0  0  0
    9.6376  -14.8058   25.3940 C   0  0  0  0  0  0  0  0  0  0  0  0
   10.5730  -15.5138   24.4349 C   0  0  2  0  0  0  0  0  0  0  0  0
   10.1840  -15.2431   23.0527 N   0  0  0  0  0  0  0  0  0  0  0  0
   10.5856  -16.9699   24.6848 C   0  0  0  0  0  0  0  0  0  0  0  0
    9.7042  -17.7522   24.2957 O   0  0  0  0  0  0  0  0  0  0  0  0
    9.6271  -16.2462   27.4527 C   0  0  0  0  0  0  0  0  0  0  0  0
    9.9018  -16.4423   28.7904 C   0  0  0  0  0  0  0  0  0  0  0  0
   11.6482  -17.5288   25.4042 O   0  0  0  0  0  0  0  0  0  0  0  0
  2  3  2  0
  2  1  1  0
  4  2  1  0
  5  4  1  0
  5  6  1  6
  7  5  1  0
  8  7  2  0
  9  7  1  0
 10  9  1  0
 10 11  1  6
 12 11  1  0
 12 13  2  0
 14 13  1  0
 15 14  1  0
 16 15  2  0
 16 12  1  0
 17 10  1  0
 17 18  2  0
 20 21  2  0
 20 19  1  0
 22 21  1  0
 23 22  2  0
 24 23  1  0
 25 24  1  1
 25 26  1  0
 26 17  1  0
 27 25  1  0
 28 27  2  0
 29 23  1  0
 29 30  2  0
 30 20  1  0
 31 27  1  0
M  END
$$$$
