NHY.pdb
     RDKit          3D

 31 32  0  0  1  0  0  0  0  0999 V2000
    9.2449  -15.8187   13.9063 N   0  0  0  0  0  0  0  0  0  0  0  0
    8.2057  -16.6559   14.3565 C   0  0  0  0  0  0  0  0  0  0  0  0
    7.1922  -16.9354   13.6534 O   0  0  0  0  0  0  0  0  0  0  0  0
    8.2629  -17.2552   15.7056 C   0  0  0  0  0  0  0  0  0  0  0  0
    9.3906  -16.6303   16.5037 C   0  0  2  0  0  0  0  0  0  0  0  0
   10.6691  -16.7497   15.8894 N   0  0  0  0  0  0  0  0  0  0  0  0
    9.3371  -17.1243   17.9001 C   0  0  0  0  0  0  0  0  0  0  0  0
    8.2591  -16.9757   18.5559 O   0  0  0  0  0  0  0  0  0  0  0  0
   10.3955  -17.7510   18.5658 N   0  0  0  0  0  0  0  0  0  0  0  0
   10.2249  -18.3036   19.9643 C   0  0  1  0  0  0  0  0  0  0  0  0
   11.2968  -19.3174   20.0914 C   0  0  0  0  0  0  0  0  0  0  0  0
   11.0875  -20.6614   19.5975 C   0  0  0  0  0  0  0  0  0  0  0  0
    9.7697  -21.1601   19.4891 C   0  0  0  0  0  0  0  0  0  0  0  0
    9.7929  -22.3908   19.0222 N   0  0  0  0  0  0  0  0  0  0  0  0
   11.0848  -22.7089   18.8232 C   0  0  0  0  0  0  0  0  0  0  0  0
   11.8344  -21.6658   19.1722 N   0  0  0  0  0  0  0  0  0  0  0  0
   10.5097  -17.1557   20.8829 C   0  0  0  0  0  0  0  0  0  0  0  0
   11.5625  -16.4582   20.6645 O   0  0  0  0  0  0  0  0  0  0  0  0
    7.3229  -12.7354   17.7635 O   0  0  0  0  0  0  0  0  0  0  0  0
    7.7433  -13.1854   19.0117 C   0  0  0  0  0  0  0  0  0  0  0  0
    8.9899  -12.9045   19.5229 C   0  0  0  0  0  0  0  0  0  0  0  0
    9.3944  -13.3610   20.7708 C   0  0  0  0  0  0  0  0  0  0  0  0
    8.5401  -14.1280   21.5551 C   0  0  0  0  0  0  0  0  0  0  0  0
    9.0042  -14.5981   22.8619 C   0  0  0  0  0  0  0  0  0  0  0  0
   10.1207  -15.6204   22.7964 C   0  0  2  0  0  0  0  0  0  0  0  0
    9.7193  -16.7593   21.9736 N   0  0  0  0  0  0  0  0  0  0  0  0
   10.5005  -16.0777   24.1489 C   0  0  0  0  0  0  0  0  0  0  0  0
   10.2919  -17.2216   24.5829 O   0  0  0  0  0  0  0  0  0  0  0  0
    7.2931  -14.4034   21.0323 C   0  0  0  0  0  0  0  0  0  0  0  0
    6.8985  -13.9462   19.7920 C   0  0  0  0  0  0  0  0  0  0  0  0
   11.1378  -15.1835   25.0168 O   0  0  0  0  0  0  0  0  0  0  0  0
  2  3  2  0
  2  1  1  0
  4  2  1  0
  5  4  1  0
  5  6  1  6
  7  5  1  0
  8  7  2  0
  9  7  1  0
 10  9  1  0
 10 11  1  1
 12 11  1  0
 12 13  2  0
 14 13  1  0
 15 14  1  0
 16 15  2  0
 16 12  1  0
 17 10  1  0
 17 18  2  0
 20 21  2  0
 20 19  1  0
 22 21  1  0
 23 22  2  0
 24 23  1  0
 25 24  1  1
 25 26  1  0
 26 17  1  0
 27 25  1  0
 28 27  2  0
 29 23  1  0
 29 30  2  0
 30 20  1  0
 31 27  1  0
M  END
$$$$
