NHY.pdb
     RDKit          3D

 31 32  0  0  1  0  0  0  0  0999 V2000
   14.4565  -17.7424   14.3033 N   0  0  0  0  0  0  0  0  0  0  0  0
   14.5494  -18.2110   15.6282 C   0  0  0  0  0  0  0  0  0  0  0  0
   15.5360  -18.8765   16.0564 O   0  0  0  0  0  0  0  0  0  0  0  0
   13.4662  -17.9347   16.5942 C   0  0  0  0  0  0  0  0  0  0  0  0
   13.8325  -18.4891   17.9571 C   0  0  2  0  0  0  0  0  0  0  0  0
   14.0909  -19.8890   17.9616 N   0  0  0  0  0  0  0  0  0  0  0  0
   12.8248  -18.0524   18.9524 C   0  0  0  0  0  0  0  0  0  0  0  0
   12.5826  -16.8105   19.0666 O   0  0  0  0  0  0  0  0  0  0  0  0
   12.1070  -18.9116   19.7907 N   0  0  0  0  0  0  0  0  0  0  0  0
   11.0163  -18.3893   20.7006 C   0  0  1  0  0  0  0  0  0  0  0  0
   10.0874  -19.5324   20.8535 C   0  0  0  0  0  0  0  0  0  0  0  0
    9.1028  -19.8099   19.8300 C   0  0  0  0  0  0  0  0  0  0  0  0
    8.7936  -18.8107   18.8798 C   0  0  0  0  0  0  0  0  0  0  0  0
    7.8829  -19.2567   18.0401 N   0  0  0  0  0  0  0  0  0  0  0  0
    7.5896  -20.5152   18.4141 C   0  0  0  0  0  0  0  0  0  0  0  0
    8.3267  -20.8210   19.4794 N   0  0  0  0  0  0  0  0  0  0  0  0
   11.6891  -18.1120   22.0094 C   0  0  0  0  0  0  0  0  0  0  0  0
   12.7467  -18.7776   22.2942 O   0  0  0  0  0  0  0  0  0  0  0  0
   17.0018  -15.1148   20.6971 O   0  0  0  0  0  0  0  0  0  0  0  0
   15.9388  -15.2654   21.5829 C   0  0  0  0  0  0  0  0  0  0  0  0
   14.6517  -14.8905   21.2713 C   0  0  0  0  0  0  0  0  0  0  0  0
   13.6015  -15.0476   22.1666 C   0  0  0  0  0  0  0  0  0  0  0  0
   13.8201  -15.5967   23.4251 C   0  0  0  0  0  0  0  0  0  0  0  0
   12.6898  -15.7395   24.3450 C   0  0  0  0  0  0  0  0  0  0  0  0
   11.9693  -17.0688   24.2461 C   0  0  2  0  0  0  0  0  0  0  0  0
   11.2707  -17.1743   22.9670 N   0  0  0  0  0  0  0  0  0  0  0  0
   11.0167  -17.2395   25.3625 C   0  0  0  0  0  0  0  0  0  0  0  0
   11.3501  -17.3590   26.5520 O   0  0  0  0  0  0  0  0  0  0  0  0
   15.1143  -15.9687   23.7264 C   0  0  0  0  0  0  0  0  0  0  0  0
   16.1522  -15.8096   22.8317 C   0  0  0  0  0  0  0  0  0  0  0  0
    9.6445  -17.2721   25.0886 O   0  0  0  0  0  0  0  0  0  0  0  0
  2  3  2  0
  2  1  1  0
  4  2  1  0
  5  4  1  0
  5  6  1  6
  7  5  1  0
  8  7  2  0
  9  7  1  0
 10  9  1  0
 10 11  1  1
 12 11  1  0
 12 13  2  0
 14 13  1  0
 15 14  1  0
 16 15  2  0
 16 12  1  0
 17 10  1  0
 17 18  2  0
 20 21  2  0
 20 19  1  0
 22 21  1  0
 23 22  2  0
 24 23  1  0
 25 24  1  1
 25 26  1  0
 26 17  1  0
 27 25  1  0
 28 27  2  0
 29 23  1  0
 29 30  2  0
 30 20  1  0
 31 27  1  0
M  END
$$$$
