NHY.pdb
     RDKit          3D

 31 32  0  0  1  0  0  0  0  0999 V2000
    9.1817  -13.0082   16.9462 N   0  0  0  0  0  0  0  0  0  0  0  0
    7.9485  -13.6878   16.9155 C   0  0  0  0  0  0  0  0  0  0  0  0
    7.1031  -13.5402   15.9863 O   0  0  0  0  0  0  0  0  0  0  0  0
    7.5866  -14.6246   17.9989 C   0  0  0  0  0  0  0  0  0  0  0  0
    8.6128  -14.5513   19.1128 C   0  0  2  0  0  0  0  0  0  0  0  0
    9.9613  -14.5440   18.6571 N   0  0  0  0  0  0  0  0  0  0  0  0
    8.3168  -15.5943   20.1234 C   0  0  0  0  0  0  0  0  0  0  0  0
    7.1579  -15.6247   20.6431 O   0  0  0  0  0  0  0  0  0  0  0  0
    9.2257  -16.5640   20.5589 N   0  0  0  0  0  0  0  0  0  0  0  0
    8.8414  -17.5837   21.6090 C   0  0  1  0  0  0  0  0  0  0  0  0
    9.5198  -18.8275   21.1781 C   0  0  0  0  0  0  0  0  0  0  0  0
    8.7985  -19.8194   20.4100 C   0  0  0  0  0  0  0  0  0  0  0  0
    8.7584  -19.7077   19.0019 C   0  0  0  0  0  0  0  0  0  0  0  0
    8.0593  -20.7004   18.4929 N   0  0  0  0  0  0  0  0  0  0  0  0
    7.6431  -21.4550   19.5259 C   0  0  0  0  0  0  0  0  0  0  0  0
    8.0945  -20.9114   20.6539 N   0  0  0  0  0  0  0  0  0  0  0  0
    9.4564  -17.0934   22.8833 C   0  0  0  0  0  0  0  0  0  0  0  0
   10.4930  -16.3442   22.8009 O   0  0  0  0  0  0  0  0  0  0  0  0
    6.1811  -11.1209   28.0190 O   0  0  0  0  0  0  0  0  0  0  0  0
    6.5908  -12.1322   27.1548 C   0  0  0  0  0  0  0  0  0  0  0  0
    7.9069  -12.3177   26.7973 C   0  0  0  0  0  0  0  0  0  0  0  0
    8.2997  -13.3320   25.9336 C   0  0  0  0  0  0  0  0  0  0  0  0
    7.3620  -14.2054   25.3942 C   0  0  0  0  0  0  0  0  0  0  0  0
    7.8125  -15.2576   24.4811 C   0  0  0  0  0  0  0  0  0  0  0  0
    8.7280  -16.2845   25.1160 C   0  0  2  0  0  0  0  0  0  0  0  0
    8.9964  -17.3740   24.1799 N   0  0  0  0  0  0  0  0  0  0  0  0
    8.1424  -16.8173   26.3634 C   0  0  0  0  0  0  0  0  0  0  0  0
    8.4603  -16.4373   27.5013 O   0  0  0  0  0  0  0  0  0  0  0  0
    6.0457  -14.0097   25.7595 C   0  0  0  0  0  0  0  0  0  0  0  0
    5.6633  -12.9999   26.6181 C   0  0  0  0  0  0  0  0  0  0  0  0
    7.1643  -17.8154   26.2852 O   0  0  0  0  0  0  0  0  0  0  0  0
  2  3  2  0
  2  1  1  0
  4  2  1  0
  5  4  1  0
  5  6  1  6
  7  5  1  0
  8  7  2  0
  9  7  1  0
 10  9  1  0
 10 11  1  6
 12 11  1  0
 12 13  2  0
 14 13  1  0
 15 14  1  0
 16 15  2  0
 16 12  1  0
 17 10  1  0
 17 18  2  0
 20 21  2  0
 20 19  1  0
 22 21  1  0
 23 22  2  0
 24 23  1  0
 25 24  1  6
 25 26  1  0
 26 17  1  0
 27 25  1  0
 28 27  2  0
 29 23  1  0
 29 30  2  0
 30 20  1  0
 31 27  1  0
M  END
$$$$
