NHY.pdb
     RDKit          3D

 31 32  0  0  1  0  0  0  0  0999 V2000
    5.6925  -20.7690   18.6724 N   0  0  0  0  0  0  0  0  0  0  0  0
    6.6176  -20.4271   17.6669 C   0  0  0  0  0  0  0  0  0  0  0  0
    6.7541  -21.0932   16.6005 O   0  0  0  0  0  0  0  0  0  0  0  0
    7.4877  -19.2438   17.8259 C   0  0  0  0  0  0  0  0  0  0  0  0
    7.2258  -18.5831   19.1653 C   0  0  2  0  0  0  0  0  0  0  0  0
    5.8888  -18.1235   19.3318 N   0  0  0  0  0  0  0  0  0  0  0  0
    8.2602  -17.5515   19.4153 C   0  0  0  0  0  0  0  0  0  0  0  0
    9.4831  -17.8901   19.3522 O   0  0  0  0  0  0  0  0  0  0  0  0
    7.9945  -16.2128   19.7206 N   0  0  0  0  0  0  0  0  0  0  0  0
    9.1162  -15.2227   19.9479 C   0  0  1  0  0  0  0  0  0  0  0  0
    8.8594  -14.1453   18.9649 C   0  0  0  0  0  0  0  0  0  0  0  0
    8.8750  -14.4366   17.5476 C   0  0  0  0  0  0  0  0  0  0  0  0
    7.8161  -13.9723   16.7352 C   0  0  0  0  0  0  0  0  0  0  0  0
    8.0158  -14.3372   15.4861 N   0  0  0  0  0  0  0  0  0  0  0  0
    9.1719  -15.0245   15.4600 C   0  0  0  0  0  0  0  0  0  0  0  0
    9.6632  -15.0702   16.6962 N   0  0  0  0  0  0  0  0  0  0  0  0
    8.9072  -14.6962   21.3342 C   0  0  0  0  0  0  0  0  0  0  0  0
    8.0269  -13.7801   21.5026 O   0  0  0  0  0  0  0  0  0  0  0  0
    6.7980  -11.8211   29.0538 O   0  0  0  0  0  0  0  0  0  0  0  0
    7.0726  -12.4619   27.8491 C   0  0  0  0  0  0  0  0  0  0  0  0
    7.5418  -13.7541   27.7837 C   0  0  0  0  0  0  0  0  0  0  0  0
    7.8111  -14.3797   26.5732 C   0  0  0  0  0  0  0  0  0  0  0  0
    7.6123  -13.7104   25.3707 C   0  0  0  0  0  0  0  0  0  0  0  0
    7.9146  -14.3996   24.1146 C   0  0  0  0  0  0  0  0  0  0  0  0
    9.3866  -14.4258   23.7563 C   0  0  2  0  0  0  0  0  0  0  0  0
    9.5883  -15.1201   22.4865 N   0  0  0  0  0  0  0  0  0  0  0  0
   10.1800  -15.0721   24.8220 C   0  0  0  0  0  0  0  0  0  0  0  0
   10.6362  -14.4766   25.8108 O   0  0  0  0  0  0  0  0  0  0  0  0
    7.1419  -12.4155   25.4487 C   0  0  0  0  0  0  0  0  0  0  0  0
    6.8767  -11.8009   26.6549 C   0  0  0  0  0  0  0  0  0  0  0  0
   10.4490  -16.4429   24.7353 O   0  0  0  0  0  0  0  0  0  0  0  0
  2  3  2  0
  2  1  1  0
  4  2  1  0
  5  4  1  0
  5  6  1  6
  7  5  1  0
  8  7  2  0
  9  7  1  0
 10  9  1  0
 10 11  1  6
 12 11  1  0
 12 13  2  0
 14 13  1  0
 15 14  1  0
 16 15  2  0
 16 12  1  0
 17 10  1  0
 17 18  2  0
 20 21  2  0
 20 19  1  0
 22 21  1  0
 23 22  2  0
 24 23  1  0
 25 24  1  1
 25 26  1  0
 26 17  1  0
 27 25  1  0
 28 27  2  0
 29 23  1  0
 29 30  2  0
 30 20  1  0
 31 27  1  0
M  END
$$$$
