NHY.pdb
     RDKit          3D

 31 32  0  0  1  0  0  0  0  0999 V2000
    3.7890  -18.0761   19.8346 N   0  0  0  0  0  0  0  0  0  0  0  0
    5.1099  -18.2163   19.3663 C   0  0  0  0  0  0  0  0  0  0  0  0
    5.3887  -18.5205   18.1707 O   0  0  0  0  0  0  0  0  0  0  0  0
    6.2510  -18.0074   20.2810 C   0  0  0  0  0  0  0  0  0  0  0  0
    7.5114  -18.6008   19.6822 C   0  0  2  0  0  0  0  0  0  0  0  0
    7.3843  -19.9675   19.3048 N   0  0  0  0  0  0  0  0  0  0  0  0
    8.6598  -18.3199   20.5761 C   0  0  0  0  0  0  0  0  0  0  0  0
    8.7663  -18.9831   21.6545 O   0  0  0  0  0  0  0  0  0  0  0  0
    9.6524  -17.3672   20.3244 N   0  0  0  0  0  0  0  0  0  0  0  0
   10.8157  -17.1772   21.2734 C   0  0  1  0  0  0  0  0  0  0  0  0
   11.8575  -16.5216   20.4501 C   0  0  0  0  0  0  0  0  0  0  0  0
   12.7839  -17.3221   19.6787 C   0  0  0  0  0  0  0  0  0  0  0  0
   13.0626  -18.6449   20.0902 C   0  0  0  0  0  0  0  0  0  0  0  0
   13.9215  -19.2008   19.2616 N   0  0  0  0  0  0  0  0  0  0  0  0
   14.2105  -18.2811   18.3234 C   0  0  0  0  0  0  0  0  0  0  0  0
   13.5228  -17.1737   18.5926 N   0  0  0  0  0  0  0  0  0  0  0  0
   10.3260  -16.2207   22.3164 C   0  0  0  0  0  0  0  0  0  0  0  0
    9.8217  -15.1099   21.9236 O   0  0  0  0  0  0  0  0  0  0  0  0
    5.8809  -11.1995   27.5152 O   0  0  0  0  0  0  0  0  0  0  0  0
    6.4974  -12.1487   26.7051 C   0  0  0  0  0  0  0  0  0  0  0  0
    7.3255  -11.8096   25.6594 C   0  0  0  0  0  0  0  0  0  0  0  0
    7.9335  -12.7691   24.8601 C   0  0  0  0  0  0  0  0  0  0  0  0
    7.7217  -14.1232   25.0942 C   0  0  0  0  0  0  0  0  0  0  0  0
    8.3733  -15.1057   24.2257 C   0  0  0  0  0  0  0  0  0  0  0  0
    9.8026  -15.4283   24.6116 C   0  0  2  0  0  0  0  0  0  0  0  0
   10.3604  -16.4290   23.7045 N   0  0  0  0  0  0  0  0  0  0  0  0
    9.8796  -15.9065   26.0073 C   0  0  0  0  0  0  0  0  0  0  0  0
    9.7666  -17.0955   26.3447 O   0  0  0  0  0  0  0  0  0  0  0  0
    6.8895  -14.4512   26.1449 C   0  0  0  0  0  0  0  0  0  0  0  0
    6.2894  -13.4924   26.9346 C   0  0  0  0  0  0  0  0  0  0  0  0
   10.0930  -14.9799   27.0345 O   0  0  0  0  0  0  0  0  0  0  0  0
  2  3  2  0
  2  1  1  0
  4  2  1  0
  5  4  1  0
  5  6  1  1
  7  5  1  0
  8  7  2  0
  9  7  1  0
 10  9  1  0
 10 11  1  6
 12 11  1  0
 12 13  2  0
 14 13  1  0
 15 14  1  0
 16 15  2  0
 16 12  1  0
 17 10  1  0
 17 18  2  0
 20 21  2  0
 20 19  1  0
 22 21  1  0
 23 22  2  0
 24 23  1  0
 25 24  1  6
 25 26  1  0
 26 17  1  0
 27 25  1  0
 28 27  2  0
 29 23  1  0
 29 30  2  0
 30 20  1  0
 31 27  1  0
M  END
$$$$
