NHY.pdb
     RDKit          3D

 31 32  0  0  1  0  0  0  0  0999 V2000
    8.5909  -22.4519   22.1136 N   0  0  0  0  0  0  0  0  0  0  0  0
    8.1722  -21.2837   21.4477 C   0  0  0  0  0  0  0  0  0  0  0  0
    7.3539  -21.2957   20.4832 O   0  0  0  0  0  0  0  0  0  0  0  0
    8.6885  -19.9633   21.8630 C   0  0  0  0  0  0  0  0  0  0  0  0
    8.8225  -19.0554   20.6559 C   0  0  2  0  0  0  0  0  0  0  0  0
    9.5026  -19.6516   19.5566 N   0  0  0  0  0  0  0  0  0  0  0  0
    9.3806  -17.7501   21.0821 C   0  0  0  0  0  0  0  0  0  0  0  0
   10.6382  -17.5793   21.0239 O   0  0  0  0  0  0  0  0  0  0  0  0
    8.6219  -16.6731   21.5516 N   0  0  0  0  0  0  0  0  0  0  0  0
    9.2789  -15.3793   21.9814 C   0  0  1  0  0  0  0  0  0  0  0  0
    8.2955  -14.3317   21.6229 C   0  0  0  0  0  0  0  0  0  0  0  0
    8.1293  -13.9340   20.2416 C   0  0  0  0  0  0  0  0  0  0  0  0
    8.9190  -14.5508   19.2452 C   0  0  0  0  0  0  0  0  0  0  0  0
    8.6180  -14.0548   18.0634 N   0  0  0  0  0  0  0  0  0  0  0  0
    7.6568  -13.1343   18.2593 C   0  0  0  0  0  0  0  0  0  0  0  0
    7.3835  -13.0806   19.5609 N   0  0  0  0  0  0  0  0  0  0  0  0
    9.3951  -15.4683   23.4718 C   0  0  0  0  0  0  0  0  0  0  0  0
    9.9499  -14.4926   24.0905 O   0  0  0  0  0  0  0  0  0  0  0  0
    6.7317  -10.7817   26.9578 O   0  0  0  0  0  0  0  0  0  0  0  0
    7.0553  -12.1317   26.8577 C   0  0  0  0  0  0  0  0  0  0  0  0
    8.2162  -12.6591   27.3759 C   0  0  0  0  0  0  0  0  0  0  0  0
    8.5247  -14.0090   27.2677 C   0  0  0  0  0  0  0  0  0  0  0  0
    7.6576  -14.8839   26.6227 C   0  0  0  0  0  0  0  0  0  0  0  0
    8.0202  -16.2990   26.5213 C   0  0  0  0  0  0  0  0  0  0  0  0
    9.2620  -16.5669   25.6955 C   0  0  2  0  0  0  0  0  0  0  0  0
    8.9421  -16.5307   24.2702 N   0  0  0  0  0  0  0  0  0  0  0  0
    9.8633  -17.8690   26.0499 C   0  0  0  0  0  0  0  0  0  0  0  0
    9.9793  -18.8214   25.2625 O   0  0  0  0  0  0  0  0  0  0  0  0
    6.4971  -14.3440   26.1071 C   0  0  0  0  0  0  0  0  0  0  0  0
    6.1976  -13.0020   26.2187 C   0  0  0  0  0  0  0  0  0  0  0  0
   10.3408  -18.0679   27.3505 O   0  0  0  0  0  0  0  0  0  0  0  0
  2  3  2  0
  2  1  1  0
  4  2  1  0
  5  4  1  0
  5  6  1  6
  7  5  1  0
  8  7  2  0
  9  7  1  0
 10  9  1  0
 10 11  1  1
 12 11  1  0
 12 13  2  0
 14 13  1  0
 15 14  1  0
 16 15  2  0
 16 12  1  0
 17 10  1  0
 17 18  2  0
 20 21  2  0
 20 19  1  0
 22 21  1  0
 23 22  2  0
 24 23  1  0
 25 24  1  1
 25 26  1  0
 26 17  1  0
 27 25  1  0
 28 27  2  0
 29 23  1  0
 29 30  2  0
 30 20  1  0
 31 27  1  0
M  END
$$$$
