NHY.pdb
     RDKit          3D

 31 32  0  0  1  0  0  0  0  0999 V2000
    8.0214  -12.0861   18.5644 N   0  0  0  0  0  0  0  0  0  0  0  0
    8.5899  -13.2509   19.1156 C   0  0  0  0  0  0  0  0  0  0  0  0
    9.5499  -13.8718   18.5747 O   0  0  0  0  0  0  0  0  0  0  0  0
    8.0705  -13.8062   20.3823 C   0  0  0  0  0  0  0  0  0  0  0  0
    7.9703  -15.3160   20.2846 C   0  0  2  0  0  0  0  0  0  0  0  0
    7.1757  -15.7735   19.1957 N   0  0  0  0  0  0  0  0  0  0  0  0
    7.5750  -15.8687   21.6018 C   0  0  0  0  0  0  0  0  0  0  0  0
    6.6170  -15.3178   22.2287 O   0  0  0  0  0  0  0  0  0  0  0  0
    8.1818  -16.9661   22.2211 N   0  0  0  0  0  0  0  0  0  0  0  0
    7.6249  -17.5512   23.5009 C   0  0  1  0  0  0  0  0  0  0  0  0
    7.9762  -18.9880   23.4306 C   0  0  0  0  0  0  0  0  0  0  0  0
    7.7444  -19.8488   24.5705 C   0  0  0  0  0  0  0  0  0  0  0  0
    6.5062  -19.7797   25.2480 C   0  0  0  0  0  0  0  0  0  0  0  0
    6.4932  -20.6368   26.2472 N   0  0  0  0  0  0  0  0  0  0  0  0
    7.6844  -21.2618   26.2414 C   0  0  0  0  0  0  0  0  0  0  0  0
    8.4101  -20.7766   25.2366 N   0  0  0  0  0  0  0  0  0  0  0  0
    8.3984  -16.8999   24.6055 C   0  0  0  0  0  0  0  0  0  0  0  0
    9.6087  -16.5520   24.3675 O   0  0  0  0  0  0  0  0  0  0  0  0
    6.3771  -10.5422   24.9641 O   0  0  0  0  0  0  0  0  0  0  0  0
    6.8232  -11.6594   25.6641 C   0  0  0  0  0  0  0  0  0  0  0  0
    8.0935  -11.7524   26.1855 C   0  0  0  0  0  0  0  0  0  0  0  0
    8.5237  -12.8746   26.8819 C   0  0  0  0  0  0  0  0  0  0  0  0
    7.6720  -13.9561   27.0774 C   0  0  0  0  0  0  0  0  0  0  0  0
    8.1632  -15.1251   27.8097 C   0  0  0  0  0  0  0  0  0  0  0  0
    8.8320  -16.1701   26.9399 C   0  0  2  0  0  0  0  0  0  0  0  0
    7.9165  -16.6231   25.8949 N   0  0  0  0  0  0  0  0  0  0  0  0
    9.2903  -17.3184   27.7487 C   0  0  0  0  0  0  0  0  0  0  0  0
   10.1148  -17.2362   28.6726 O   0  0  0  0  0  0  0  0  0  0  0  0
    6.4011  -13.8517   26.5500 C   0  0  0  0  0  0  0  0  0  0  0  0
    5.9811  -12.7337   25.8595 C   0  0  0  0  0  0  0  0  0  0  0  0
    8.7775  -18.5919   27.4762 O   0  0  0  0  0  0  0  0  0  0  0  0
  2  3  2  0
  2  1  1  0
  4  2  1  0
  5  4  1  0
  5  6  1  6
  7  5  1  0
  8  7  2  0
  9  7  1  0
 10  9  1  0
 10 11  1  6
 12 11  1  0
 12 13  2  0
 14 13  1  0
 15 14  1  0
 16 15  2  0
 16 12  1  0
 17 10  1  0
 17 18  2  0
 20 21  2  0
 20 19  1  0
 22 21  1  0
 23 22  2  0
 24 23  1  0
 25 24  1  1
 25 26  1  0
 26 17  1  0
 27 25  1  0
 28 27  2  0
 29 23  1  0
 29 30  2  0
 30 20  1  0
 31 27  1  0
M  END
$$$$
