NHY.pdb
     RDKit          3D

 31 32  0  0  1  0  0  0  0  0999 V2000
   15.0593  -15.2097   19.3022 N   0  0  0  0  0  0  0  0  0  0  0  0
   14.1440  -14.1443   19.1986 C   0  0  0  0  0  0  0  0  0  0  0  0
   14.3954  -13.0787   18.5651 O   0  0  0  0  0  0  0  0  0  0  0  0
   12.8187  -14.2347   19.8449 C   0  0  0  0  0  0  0  0  0  0  0  0
   12.1214  -15.5131   19.4224 C   0  0  2  0  0  0  0  0  0  0  0  0
   11.8215  -15.5760   18.0323 N   0  0  0  0  0  0  0  0  0  0  0  0
   10.9577  -15.7542   20.3082 C   0  0  0  0  0  0  0  0  0  0  0  0
    9.8226  -15.3062   19.9549 O   0  0  0  0  0  0  0  0  0  0  0  0
   11.0092  -16.4465   21.5224 N   0  0  0  0  0  0  0  0  0  0  0  0
    9.7658  -17.0605   22.1283 C   0  0  1  0  0  0  0  0  0  0  0  0
    9.8989  -18.5089   21.8499 C   0  0  0  0  0  0  0  0  0  0  0  0
    8.9863  -19.4523   22.4592 C   0  0  0  0  0  0  0  0  0  0  0  0
    7.5948  -19.2784   22.2851 C   0  0  0  0  0  0  0  0  0  0  0  0
    6.9415  -20.2344   22.9114 N   0  0  0  0  0  0  0  0  0  0  0  0
    7.8643  -21.0255   23.4878 C   0  0  0  0  0  0  0  0  0  0  0  0
    9.0712  -20.5404   23.2051 N   0  0  0  0  0  0  0  0  0  0  0  0
    9.8817  -16.8210   23.6020 C   0  0  0  0  0  0  0  0  0  0  0  0
   11.0567  -16.7530   24.1091 O   0  0  0  0  0  0  0  0  0  0  0  0
    6.4478  -10.5731   25.6251 O   0  0  0  0  0  0  0  0  0  0  0  0
    6.7736  -11.9041   25.8696 C   0  0  0  0  0  0  0  0  0  0  0  0
    5.8222  -12.8815   26.0528 C   0  0  0  0  0  0  0  0  0  0  0  0
    6.1637  -14.2057   26.2959 C   0  0  0  0  0  0  0  0  0  0  0  0
    7.4978  -14.5919   26.3630 C   0  0  0  0  0  0  0  0  0  0  0  0
    7.8194  -15.9955   26.6289 C   0  0  0  0  0  0  0  0  0  0  0  0
    9.0652  -16.4939   25.9250 C   0  0  2  0  0  0  0  0  0  0  0  0
    8.8110  -16.6548   24.4950 N   0  0  0  0  0  0  0  0  0  0  0  0
    9.5278  -17.7706   26.5070 C   0  0  0  0  0  0  0  0  0  0  0  0
    9.4608  -18.8663   25.9279 O   0  0  0  0  0  0  0  0  0  0  0  0
    8.4427  -13.6035   26.1779 C   0  0  0  0  0  0  0  0  0  0  0  0
    8.0956  -12.2903   25.9367 C   0  0  0  0  0  0  0  0  0  0  0  0
   10.0812  -17.7727   27.7926 O   0  0  0  0  0  0  0  0  0  0  0  0
  2  3  2  0
  2  1  1  0
  4  2  1  0
  5  4  1  0
  5  6  1  6
  7  5  1  0
  8  7  2  0
  9  7  1  0
 10  9  1  0
 10 11  1  1
 12 11  1  0
 12 13  2  0
 14 13  1  0
 15 14  1  0
 16 15  2  0
 16 12  1  0
 17 10  1  0
 17 18  2  0
 20 21  2  0
 20 19  1  0
 22 21  1  0
 23 22  2  0
 24 23  1  0
 25 24  1  1
 25 26  1  0
 26 17  1  0
 27 25  1  0
 28 27  2  0
 29 23  1  0
 29 30  2  0
 30 20  1  0
 31 27  1  0
M  END
$$$$
