YAN.pdb
     RDKit          3D

 26 26  0  0  1  0  0  0  0  0999 V2000
    8.8948  -12.1183   17.7683 O   0  0  0  0  0  0  0  0  0  0  0  0
    8.3997  -12.7054   18.9256 C   0  0  0  0  0  0  0  0  0  0  0  0
    8.9620  -12.4580   20.1711 C   0  0  0  0  0  0  0  0  0  0  0  0
    8.4726  -13.0389   21.3202 C   0  0  0  0  0  0  0  0  0  0  0  0
    7.3950  -13.8964   21.2752 C   0  0  0  0  0  0  0  0  0  0  0  0
    6.8178  -14.5577   22.4858 C   0  0  0  0  0  0  0  0  0  0  0  0
    7.8724  -15.5296   22.9627 C   0  0  2  0  0  0  0  0  0  0  0  0
    8.4213  -16.2243   21.8205 N   0  0  0  0  0  0  0  0  0  0  0  0
    7.3757  -16.4922   23.9690 C   0  0  0  0  0  0  0  0  0  0  0  0
    6.8032  -16.0507   25.0001 O   0  0  0  0  0  0  0  0  0  0  0  0
    6.8430  -14.1338   20.0204 C   0  0  0  0  0  0  0  0  0  0  0  0
    7.3260  -13.5583   18.8736 C   0  0  0  0  0  0  0  0  0  0  0  0
    6.5722  -20.0792   24.0277 C   0  0  0  0  0  0  0  0  0  0  0  0
    7.1073  -18.8751   24.7907 C   0  0  2  0  0  0  0  0  0  0  0  0
    7.5105  -17.8955   23.8323 N   0  0  0  0  0  0  0  0  0  0  0  0
    8.2920  -19.3559   25.5918 C   0  0  0  0  0  0  0  0  0  0  0  0
    8.1653  -20.2756   26.4397 O   0  0  0  0  0  0  0  0  0  0  0  0
   12.3331  -18.4249   22.9379 N   0  0  0  0  0  0  0  0  0  0  0  0
   11.9717  -19.3032   23.9861 C   0  0  0  0  0  0  0  0  0  0  0  0
   11.6790  -20.5059   23.7551 O   0  0  0  0  0  0  0  0  0  0  0  0
   11.9332  -18.8197   25.3657 C   0  0  0  0  0  0  0  0  0  0  0  0
   10.7109  -19.2896   26.1448 C   0  0  2  0  0  0  0  0  0  0  0  0
    9.5725  -18.7895   25.4142 N   0  0  0  0  0  0  0  0  0  0  0  0
   10.7220  -18.8215   27.5455 C   0  0  0  0  0  0  0  0  0  0  0  0
    9.7813  -17.9318   28.0177 O   0  0  0  0  0  0  0  0  0  0  0  0
   11.6050  -19.2397   28.3275 O   0  0  0  0  0  0  0  0  0  0  0  0
  2  1  1  0
  3  2  2  0
  4  3  1  0
  5  4  2  0
  5 11  1  0
  6  5  1  0
  7  6  1  0
  7  9  1  0
  7  8  1  6
  9 10  2  0
 11 12  2  0
 12  2  1  0
 14 13  1  6
 15 14  1  0
 15  9  1  0
 16 14  1  0
 16 17  2  0
 18 19  1  0
 19 20  2  0
 19 21  1  0
 22 21  1  6
 22 23  1  0
 22 24  1  0
 23 16  1  0
 24 26  2  0
 24 25  1  0
M  END
$$$$
