YAN.pdb
     RDKit          3D

 26 26  0  0  1  0  0  0  0  0999 V2000
    7.9002  -12.9678   16.2070 O   0  0  0  0  0  0  0  0  0  0  0  0
    7.6826  -13.1659   17.5645 C   0  0  0  0  0  0  0  0  0  0  0  0
    8.2576  -12.3455   18.5262 C   0  0  0  0  0  0  0  0  0  0  0  0
    8.0431  -12.5400   19.8729 C   0  0  0  0  0  0  0  0  0  0  0  0
    7.2410  -13.5674   20.3199 C   0  0  0  0  0  0  0  0  0  0  0  0
    6.9695  -13.8302   21.7667 C   0  0  0  0  0  0  0  0  0  0  0  0
    8.1086  -14.7008   22.2448 C   0  0  2  0  0  0  0  0  0  0  0  0
    8.1395  -15.9097   21.4537 N   0  0  0  0  0  0  0  0  0  0  0  0
    8.0403  -15.0227   23.6862 C   0  0  0  0  0  0  0  0  0  0  0  0
    8.0465  -14.0787   24.5197 O   0  0  0  0  0  0  0  0  0  0  0  0
    6.6724  -14.3800   19.3443 C   0  0  0  0  0  0  0  0  0  0  0  0
    6.8825  -14.1910   18.0027 C   0  0  0  0  0  0  0  0  0  0  0  0
    6.8714  -17.7314   25.7858 C   0  0  0  0  0  0  0  0  0  0  0  0
    7.9972  -16.7319   25.5577 C   0  0  2  0  0  0  0  0  0  0  0  0
    7.9668  -16.3474   24.1822 N   0  0  0  0  0  0  0  0  0  0  0  0
    9.2870  -17.4438   25.8835 C   0  0  0  0  0  0  0  0  0  0  0  0
    9.5617  -17.7690   27.0666 O   0  0  0  0  0  0  0  0  0  0  0  0
    9.5479  -20.0969   26.0291 N   0  0  0  0  0  0  0  0  0  0  0  0
   10.4755  -20.5709   25.0721 C   0  0  0  0  0  0  0  0  0  0  0  0
   10.3980  -21.7418   24.6155 O   0  0  0  0  0  0  0  0  0  0  0  0
   11.5473  -19.6972   24.5963 C   0  0  0  0  0  0  0  0  0  0  0  0
   11.5159  -18.3018   25.2076 C   0  0  2  0  0  0  0  0  0  0  0  0
   10.2199  -17.7640   24.8742 N   0  0  0  0  0  0  0  0  0  0  0  0
   12.6156  -17.4472   24.7164 C   0  0  0  0  0  0  0  0  0  0  0  0
   12.6517  -16.0944   24.9775 O   0  0  0  0  0  0  0  0  0  0  0  0
   13.5405  -17.9585   24.0460 O   0  0  0  0  0  0  0  0  0  0  0  0
  2  1  1  0
  3  2  2  0
  4  3  1  0
  5  4  2  0
  5 11  1  0
  6  5  1  0
  7  6  1  0
  7  9  1  0
  7  8  1  6
  9 10  2  0
 11 12  2  0
 12  2  1  0
 14 13  1  6
 15 14  1  0
 15  9  1  0
 16 14  1  0
 16 17  2  0
 18 19  1  0
 19 20  2  0
 19 21  1  0
 22 21  1  6
 22 23  1  0
 22 24  1  0
 23 16  1  0
 24 26  2  0
 24 25  1  0
M  END
$$$$
