YAN.pdb
     RDKit          3D

 26 26  0  0  1  0  0  0  0  0999 V2000
    9.8517  -14.3405   30.2503 O   0  0  0  0  0  0  0  0  0  0  0  0
    9.8017  -14.4555   28.8670 C   0  0  0  0  0  0  0  0  0  0  0  0
   10.2725  -15.5836   28.2079 C   0  0  0  0  0  0  0  0  0  0  0  0
   10.2237  -15.6998   26.8361 C   0  0  0  0  0  0  0  0  0  0  0  0
    9.7002  -14.6895   26.0592 C   0  0  0  0  0  0  0  0  0  0  0  0
    9.6193  -14.7556   24.5675 C   0  0  0  0  0  0  0  0  0  0  0  0
    8.2482  -15.3099   24.2565 C   0  0  2  0  0  0  0  0  0  0  0  0
    8.1442  -16.6417   24.8078 N   0  0  0  0  0  0  0  0  0  0  0  0
    7.9281  -15.3168   22.8131 C   0  0  0  0  0  0  0  0  0  0  0  0
    7.8264  -16.4228   22.2196 O   0  0  0  0  0  0  0  0  0  0  0  0
    9.2329  -13.5664   26.7343 C   0  0  0  0  0  0  0  0  0  0  0  0
    9.2789  -13.4454   28.0992 C   0  0  0  0  0  0  0  0  0  0  0  0
    7.1994  -12.6145   20.2986 C   0  0  0  0  0  0  0  0  0  0  0  0
    7.4702  -14.0701   20.6541 C   0  0  2  0  0  0  0  0  0  0  0  0
    7.7274  -14.1356   22.0578 N   0  0  0  0  0  0  0  0  0  0  0  0
    8.6873  -14.4931   19.8691 C   0  0  0  0  0  0  0  0  0  0  0  0
    8.6176  -14.6891   18.6291 O   0  0  0  0  0  0  0  0  0  0  0  0
   14.0661  -14.0072   18.8249 N   0  0  0  0  0  0  0  0  0  0  0  0
   13.5811  -14.8001   19.8912 C   0  0  0  0  0  0  0  0  0  0  0  0
   14.2448  -15.7759   20.3302 O   0  0  0  0  0  0  0  0  0  0  0  0
   12.2891  -14.4926   20.5033 C   0  0  0  0  0  0  0  0  0  0  0  0
   11.0997  -15.0632   19.7408 C   0  0  2  0  0  0  0  0  0  0  0  0
    9.9352  -14.6810   20.5009 N   0  0  0  0  0  0  0  0  0  0  0  0
   11.1933  -16.5266   19.5652 C   0  0  0  0  0  0  0  0  0  0  0  0
   10.7053  -17.4009   20.5122 O   0  0  0  0  0  0  0  0  0  0  0  0
   11.7280  -16.9900   18.5329 O   0  0  0  0  0  0  0  0  0  0  0  0
  2  1  1  0
  3  2  2  0
  4  3  1  0
  5  4  2  0
  5 11  1  0
  6  5  1  0
  7  6  1  0
  7  9  1  0
  7  8  1  6
  9 10  2  0
 11 12  2  0
 12  2  1  0
 14 13  1  6
 15 14  1  0
 15  9  1  0
 16 14  1  0
 16 17  2  0
 18 19  1  0
 19 20  2  0
 19 21  1  0
 22 21  1  1
 22 23  1  0
 22 24  1  0
 23 16  1  0
 24 26  2  0
 24 25  1  0
M  END
$$$$
