YAN.pdb
     RDKit          3D

 26 26  0  0  1  0  0  0  0  0999 V2000
    8.9065  -12.8136   17.5548 O   0  0  0  0  0  0  0  0  0  0  0  0
    8.4776  -13.2454   18.8033 C   0  0  0  0  0  0  0  0  0  0  0  0
    9.1871  -14.1877   19.5363 C   0  0  0  0  0  0  0  0  0  0  0  0
    8.7638  -14.6173   20.7748 C   0  0  0  0  0  0  0  0  0  0  0  0
    7.6079  -14.1220   21.3378 C   0  0  0  0  0  0  0  0  0  0  0  0
    7.0963  -14.5478   22.6768 C   0  0  0  0  0  0  0  0  0  0  0  0
    7.1306  -16.0586   22.6662 C   0  0  2  0  0  0  0  0  0  0  0  0
    6.2162  -16.5418   21.6568 N   0  0  0  0  0  0  0  0  0  0  0  0
    6.8250  -16.6650   23.9795 C   0  0  0  0  0  0  0  0  0  0  0  0
    5.6208  -16.8609   24.2918 O   0  0  0  0  0  0  0  0  0  0  0  0
    6.9088  -13.1790   20.5912 C   0  0  0  0  0  0  0  0  0  0  0  0
    7.3254  -12.7479   19.3582 C   0  0  0  0  0  0  0  0  0  0  0  0
    7.2431  -19.3011   25.4019 C   0  0  0  0  0  0  0  0  0  0  0  0
    7.6598  -17.9607   25.9918 C   0  0  2  0  0  0  0  0  0  0  0  0
    7.8233  -17.0407   24.9113 N   0  0  0  0  0  0  0  0  0  0  0  0
    8.9710  -18.1847   26.7038 C   0  0  0  0  0  0  0  0  0  0  0  0
    9.0983  -19.1138   27.5414 O   0  0  0  0  0  0  0  0  0  0  0  0
   10.3966  -13.1689   28.5253 N   0  0  0  0  0  0  0  0  0  0  0  0
   10.0588  -14.5126   28.8103 C   0  0  0  0  0  0  0  0  0  0  0  0
   10.0813  -14.9527   29.9898 O   0  0  0  0  0  0  0  0  0  0  0  0
    9.6753  -15.4167   27.7267 C   0  0  0  0  0  0  0  0  0  0  0  0
   10.6642  -16.5534   27.4995 C   0  0  2  0  0  0  0  0  0  0  0  0
   10.0891  -17.3611   26.4523 N   0  0  0  0  0  0  0  0  0  0  0  0
   10.9171  -17.3334   28.7278 C   0  0  0  0  0  0  0  0  0  0  0  0
    9.8911  -17.7188   29.5634 O   0  0  0  0  0  0  0  0  0  0  0  0
   12.0901  -17.6552   29.0223 O   0  0  0  0  0  0  0  0  0  0  0  0
  2  1  1  0
  3  2  2  0
  4  3  1  0
  5  4  2  0
  5 11  1  0
  6  5  1  0
  7  6  1  0
  7  9  1  0
  7  8  1  6
  9 10  2  0
 11 12  2  0
 12  2  1  0
 14 13  1  6
 15 14  1  0
 15  9  1  0
 16 14  1  0
 16 17  2  0
 18 19  1  0
 19 20  2  0
 19 21  1  0
 22 21  1  1
 22 23  1  0
 22 24  1  0
 23 16  1  0
 24 26  2  0
 24 25  1  0
M  END
$$$$
