YAN.pdb
     RDKit          3D

 26 26  0  0  1  0  0  0  0  0999 V2000
    9.2425  -12.6621   17.4116 O   0  0  0  0  0  0  0  0  0  0  0  0
    8.6722  -13.1385   18.5851 C   0  0  0  0  0  0  0  0  0  0  0  0
    7.3295  -12.9416   18.8799 C   0  0  0  0  0  0  0  0  0  0  0  0
    6.7618  -13.4133   20.0430 C   0  0  0  0  0  0  0  0  0  0  0  0
    7.5142  -14.1055   20.9667 C   0  0  0  0  0  0  0  0  0  0  0  0
    6.9570  -14.6423   22.2463 C   0  0  0  0  0  0  0  0  0  0  0  0
    7.1497  -16.1398   22.1798 C   0  0  2  0  0  0  0  0  0  0  0  0
    6.3176  -16.6738   21.1259 N   0  0  0  0  0  0  0  0  0  0  0  0
    6.8752  -16.8274   23.4596 C   0  0  0  0  0  0  0  0  0  0  0  0
    5.7270  -16.7288   23.9671 O   0  0  0  0  0  0  0  0  0  0  0  0
    8.8572  -14.2945   20.6568 C   0  0  0  0  0  0  0  0  0  0  0  0
    9.4274  -13.8272   19.5007 C   0  0  0  0  0  0  0  0  0  0  0  0
    8.0225  -19.7111   25.2392 C   0  0  0  0  0  0  0  0  0  0  0  0
    7.6604  -18.2421   25.4109 C   0  0  2  0  0  0  0  0  0  0  0  0
    7.8434  -17.5977   24.1492 N   0  0  0  0  0  0  0  0  0  0  0  0
    8.6065  -17.6757   26.4407 C   0  0  0  0  0  0  0  0  0  0  0  0
    8.5841  -18.0847   27.6294 O   0  0  0  0  0  0  0  0  0  0  0  0
   11.0697  -13.3508   28.8928 N   0  0  0  0  0  0  0  0  0  0  0  0
   10.3949  -14.5863   29.0308 C   0  0  0  0  0  0  0  0  0  0  0  0
   10.4160  -15.2209   30.1182 O   0  0  0  0  0  0  0  0  0  0  0  0
    9.6568  -15.1476   27.9001 C   0  0  0  0  0  0  0  0  0  0  0  0
   10.4590  -16.1546   27.0851 C   0  0  2  0  0  0  0  0  0  0  0  0
    9.5406  -16.6736   26.1017 N   0  0  0  0  0  0  0  0  0  0  0  0
   11.0383  -17.2234   27.9236 C   0  0  0  0  0  0  0  0  0  0  0  0
   12.3248  -17.1423   28.4112 O   0  0  0  0  0  0  0  0  0  0  0  0
   10.3486  -18.2300   28.2016 O   0  0  0  0  0  0  0  0  0  0  0  0
  2  1  1  0
  3  2  2  0
  4  3  1  0
  5  4  2  0
  5 11  1  0
  6  5  1  0
  7  6  1  0
  7  9  1  0
  7  8  1  6
  9 10  2  0
 11 12  2  0
 12  2  1  0
 14 13  1  6
 15 14  1  0
 15  9  1  0
 16 14  1  0
 16 17  2  0
 18 19  1  0
 19 20  2  0
 19 21  1  0
 22 21  1  1
 22 23  1  0
 22 24  1  0
 23 16  1  0
 24 26  2  0
 24 25  1  0
M  END
$$$$
