YAN.pdb
     RDKit          3D

 26 26  0  0  1  0  0  0  0  0999 V2000
    5.2622  -10.3344   27.9415 O   0  0  0  0  0  0  0  0  0  0  0  0
    5.9271  -11.4433   27.4341 C   0  0  0  0  0  0  0  0  0  0  0  0
    5.4037  -12.1986   26.3928 C   0  0  0  0  0  0  0  0  0  0  0  0
    6.0614  -13.2986   25.8879 C   0  0  0  0  0  0  0  0  0  0  0  0
    7.2764  -13.6940   26.4036 C   0  0  0  0  0  0  0  0  0  0  0  0
    8.0389  -14.8774   25.8994 C   0  0  0  0  0  0  0  0  0  0  0  0
    7.0763  -15.6385   25.0173 C   0  0  2  0  0  0  0  0  0  0  0  0
    6.4808  -16.7079   25.7856 N   0  0  0  0  0  0  0  0  0  0  0  0
    7.6976  -16.1663   23.7839 C   0  0  0  0  0  0  0  0  0  0  0  0
    8.1317  -17.3484   23.7812 O   0  0  0  0  0  0  0  0  0  0  0  0
    7.7872  -12.9272   27.4460 C   0  0  0  0  0  0  0  0  0  0  0  0
    7.1370  -11.8315   27.9523 C   0  0  0  0  0  0  0  0  0  0  0  0
    8.4948  -14.6472   20.4353 C   0  0  0  0  0  0  0  0  0  0  0  0
    8.4946  -15.8235   21.4022 C   0  0  2  0  0  0  0  0  0  0  0  0
    7.8301  -15.4064   22.5960 N   0  0  0  0  0  0  0  0  0  0  0  0
    9.9385  -16.1576   21.6851 C   0  0  0  0  0  0  0  0  0  0  0  0
   10.6067  -15.4807   22.5075 O   0  0  0  0  0  0  0  0  0  0  0  0
   13.4906  -20.3920   22.5732 N   0  0  0  0  0  0  0  0  0  0  0  0
   13.2655  -19.7600   21.3278 C   0  0  0  0  0  0  0  0  0  0  0  0
   14.1658  -19.7160   20.4487 O   0  0  0  0  0  0  0  0  0  0  0  0
   11.9704  -19.1434   21.0434 C   0  0  0  0  0  0  0  0  0  0  0  0
   11.8862  -17.6791   21.4560 C   0  0  2  0  0  0  0  0  0  0  0  0
   10.5796  -17.2351   21.0372 N   0  0  0  0  0  0  0  0  0  0  0  0
   12.9665  -16.8644   20.8640 C   0  0  0  0  0  0  0  0  0  0  0  0
   12.8384  -16.2899   19.6178 O   0  0  0  0  0  0  0  0  0  0  0  0
   14.0266  -16.6880   21.5051 O   0  0  0  0  0  0  0  0  0  0  0  0
  2  1  1  0
  3  2  2  0
  4  3  1  0
  5  4  2  0
  5 11  1  0
  6  5  1  0
  7  6  1  0
  7  9  1  0
  7  8  1  1
  9 10  2  0
 11 12  2  0
 12  2  1  0
 14 13  1  6
 15 14  1  0
 15  9  1  0
 16 14  1  0
 16 17  2  0
 18 19  1  0
 19 20  2  0
 19 21  1  0
 22 21  1  6
 22 23  1  0
 22 24  1  0
 23 16  1  0
 24 26  2  0
 24 25  1  0
M  END
$$$$
