YAN.pdb
     RDKit          3D

 26 26  0  0  1  0  0  0  0  0999 V2000
    8.8585  -12.7340   17.2409 O   0  0  0  0  0  0  0  0  0  0  0  0
    8.4141  -13.1943   18.4737 C   0  0  0  0  0  0  0  0  0  0  0  0
    7.0987  -13.0283   18.8872 C   0  0  0  0  0  0  0  0  0  0  0  0
    6.6557  -13.4841   20.1093 C   0  0  0  0  0  0  0  0  0  0  0  0
    7.5114  -14.1287   20.9759 C   0  0  0  0  0  0  0  0  0  0  0  0
    7.0916  -14.6460   22.3146 C   0  0  0  0  0  0  0  0  0  0  0  0
    7.0142  -16.1481   22.1665 C   0  0  2  0  0  0  0  0  0  0  0  0
    5.8991  -16.4783   21.3087 N   0  0  0  0  0  0  0  0  0  0  0  0
    6.9095  -16.8634   23.4561 C   0  0  0  0  0  0  0  0  0  0  0  0
    5.8510  -16.7495   24.1289 O   0  0  0  0  0  0  0  0  0  0  0  0
    8.8254  -14.2871   20.5471 C   0  0  0  0  0  0  0  0  0  0  0  0
    9.2717  -13.8355   19.3320 C   0  0  0  0  0  0  0  0  0  0  0  0
    8.5431  -19.7701   24.9514 C   0  0  0  0  0  0  0  0  0  0  0  0
    7.8984  -18.4135   25.2011 C   0  0  2  0  0  0  0  0  0  0  0  0
    7.9449  -17.6770   23.9779 N   0  0  0  0  0  0  0  0  0  0  0  0
    8.7183  -17.7289   26.2666 C   0  0  0  0  0  0  0  0  0  0  0  0
    8.8134  -18.2196   27.4204 O   0  0  0  0  0  0  0  0  0  0  0  0
   10.4625  -13.2046   29.0394 N   0  0  0  0  0  0  0  0  0  0  0  0
   10.0140  -14.5459   29.0630 C   0  0  0  0  0  0  0  0  0  0  0  0
   10.1840  -15.2708   30.0785 O   0  0  0  0  0  0  0  0  0  0  0  0
    9.3402  -15.1131   27.8956 C   0  0  0  0  0  0  0  0  0  0  0  0
   10.2607  -15.9245   26.9922 C   0  0  2  0  0  0  0  0  0  0  0  0
    9.3998  -16.5218   26.0014 N   0  0  0  0  0  0  0  0  0  0  0  0
   11.0339  -16.9367   27.7398 C   0  0  0  0  0  0  0  0  0  0  0  0
   12.3002  -16.6727   28.2155 O   0  0  0  0  0  0  0  0  0  0  0  0
   10.5319  -18.0637   27.9496 O   0  0  0  0  0  0  0  0  0  0  0  0
  2  1  1  0
  3  2  2  0
  4  3  1  0
  5  4  2  0
  5 11  1  0
  6  5  1  0
  7  6  1  0
  7  9  1  0
  7  8  1  6
  9 10  2  0
 11 12  2  0
 12  2  1  0
 14 13  1  6
 15 14  1  0
 15  9  1  0
 16 14  1  0
 16 17  2  0
 18 19  1  0
 19 20  2  0
 19 21  1  0
 22 21  1  1
 22 23  1  0
 22 24  1  0
 23 16  1  0
 24 26  2  0
 24 25  1  0
M  END
$$$$
