YAN.pdb
     RDKit          3D

 26 26  0  0  1  0  0  0  0  0999 V2000
    9.1273  -21.6128   15.3894 O   0  0  0  0  0  0  0  0  0  0  0  0
    9.6901  -21.0587   16.5319 C   0  0  0  0  0  0  0  0  0  0  0  0
    8.9112  -20.6313   17.5992 C   0  0  0  0  0  0  0  0  0  0  0  0
    9.4672  -20.0817   18.7334 C   0  0  0  0  0  0  0  0  0  0  0  0
   10.8321  -19.9344   18.8515 C   0  0  0  0  0  0  0  0  0  0  0  0
   11.4956  -19.3460   20.0555 C   0  0  0  0  0  0  0  0  0  0  0  0
   11.0537  -17.9015   20.1008 C   0  0  2  0  0  0  0  0  0  0  0  0
   11.6439  -17.1949   18.9869 N   0  0  0  0  0  0  0  0  0  0  0  0
   11.3754  -17.2258   21.3759 C   0  0  0  0  0  0  0  0  0  0  0  0
   12.5662  -16.8800   21.5957 O   0  0  0  0  0  0  0  0  0  0  0  0
   11.5984  -20.3674   17.7741 C   0  0  0  0  0  0  0  0  0  0  0  0
   11.0503  -20.9151   16.6430 C   0  0  0  0  0  0  0  0  0  0  0  0
    9.3393  -16.0329   24.2982 C   0  0  0  0  0  0  0  0  0  0  0  0
   10.6704  -16.4390   23.6801 C   0  0  2  0  0  0  0  0  0  0  0  0
   10.4067  -16.9444   22.3702 N   0  0  0  0  0  0  0  0  0  0  0  0
   11.2506  -17.5180   24.5607 C   0  0  0  0  0  0  0  0  0  0  0  0
   11.5564  -18.6414   24.0858 O   0  0  0  0  0  0  0  0  0  0  0  0
   14.9204  -18.9808   27.6710 N   0  0  0  0  0  0  0  0  0  0  0  0
   14.9897  -18.3112   26.4269 C   0  0  0  0  0  0  0  0  0  0  0  0
   16.0680  -18.2513   25.7797 O   0  0  0  0  0  0  0  0  0  0  0  0
   13.7966  -17.6735   25.8715 C   0  0  0  0  0  0  0  0  0  0  0  0
   12.5199  -17.9887   26.6411 C   0  0  2  0  0  0  0  0  0  0  0  0
   11.4660  -17.2996   25.9383 N   0  0  0  0  0  0  0  0  0  0  0  0
   12.6020  -17.5813   28.0583 C   0  0  0  0  0  0  0  0  0  0  0  0
   12.8097  -18.5007   29.0638 O   0  0  0  0  0  0  0  0  0  0  0  0
   12.4806  -16.3727   28.3596 O   0  0  0  0  0  0  0  0  0  0  0  0
  2  1  1  0
  3  2  2  0
  4  3  1  0
  5  4  2  0
  5 11  1  0
  6  5  1  0
  7  6  1  0
  7  9  1  0
  7  8  1  6
  9 10  2  0
 11 12  2  0
 12  2  1  0
 14 13  1  1
 15 14  1  0
 15  9  1  0
 16 14  1  0
 16 17  2  0
 18 19  1  0
 19 20  2  0
 19 21  1  0
 22 21  1  6
 22 23  1  0
 22 24  1  0
 23 16  1  0
 24 26  2  0
 24 25  1  0
M  END
$$$$
