YAN.pdb
     RDKit          3D

 26 26  0  0  1  0  0  0  0  0999 V2000
    6.4155  -10.2094   27.3516 O   0  0  0  0  0  0  0  0  0  0  0  0
    6.7473  -11.4655   26.8601 C   0  0  0  0  0  0  0  0  0  0  0  0
    7.2965  -11.6361   25.5960 C   0  0  0  0  0  0  0  0  0  0  0  0
    7.6265  -12.8808   25.1066 C   0  0  0  0  0  0  0  0  0  0  0  0
    7.4213  -14.0147   25.8622 C   0  0  0  0  0  0  0  0  0  0  0  0
    7.7582  -15.3922   25.3879 C   0  0  0  0  0  0  0  0  0  0  0  0
    6.5788  -15.8375   24.5545 C   0  0  2  0  0  0  0  0  0  0  0  0
    5.9986  -17.0172   25.1548 N   0  0  0  0  0  0  0  0  0  0  0  0
    6.9183  -16.0872   23.1374 C   0  0  0  0  0  0  0  0  0  0  0  0
    6.9585  -17.2759   22.7235 O   0  0  0  0  0  0  0  0  0  0  0  0
    6.8707  -13.8269   27.1259 C   0  0  0  0  0  0  0  0  0  0  0  0
    6.5404  -12.5906   27.6180 C   0  0  0  0  0  0  0  0  0  0  0  0
    7.7521  -13.8416   20.2338 C   0  0  0  0  0  0  0  0  0  0  0  0
    7.5383  -15.2236   20.8363 C   0  0  2  0  0  0  0  0  0  0  0  0
    7.2021  -15.0514   22.2140 N   0  0  0  0  0  0  0  0  0  0  0  0
    8.8425  -15.9689   20.6953 C   0  0  0  0  0  0  0  0  0  0  0  0
    9.2435  -16.3574   19.5686 O   0  0  0  0  0  0  0  0  0  0  0  0
   12.8487  -17.8467   19.8812 N   0  0  0  0  0  0  0  0  0  0  0  0
   12.7692  -16.4389   19.9949 C   0  0  0  0  0  0  0  0  0  0  0  0
   13.5491  -15.6893   19.3505 O   0  0  0  0  0  0  0  0  0  0  0  0
   11.7694  -15.8308   20.8717 C   0  0  0  0  0  0  0  0  0  0  0  0
   10.9533  -16.8443   21.6644 C   0  0  2  0  0  0  0  0  0  0  0  0
    9.6478  -16.2515   21.8193 N   0  0  0  0  0  0  0  0  0  0  0  0
   11.5727  -17.1725   22.9644 C   0  0  0  0  0  0  0  0  0  0  0  0
   11.8965  -18.4683   23.3041 O   0  0  0  0  0  0  0  0  0  0  0  0
   11.8117  -16.2553   23.7816 O   0  0  0  0  0  0  0  0  0  0  0  0
  2  1  1  0
  3  2  2  0
  4  3  1  0
  5  4  2  0
  5 11  1  0
  6  5  1  0
  7  6  1  0
  7  9  1  0
  7  8  1  1
  9 10  2  0
 11 12  2  0
 12  2  1  0
 14 13  1  1
 15 14  1  0
 15  9  1  0
 16 14  1  0
 16 17  2  0
 18 19  1  0
 19 20  2  0
 19 21  1  0
 22 21  1  1
 22 23  1  0
 22 24  1  0
 23 16  1  0
 24 26  2  0
 24 25  1  0
M  END
$$$$
