YAN.pdb
     RDKit          3D

 26 26  0  0  1  0  0  0  0  0999 V2000
    5.5251  -10.3317   28.1477 O   0  0  0  0  0  0  0  0  0  0  0  0
    6.1815  -11.2954   27.3930 C   0  0  0  0  0  0  0  0  0  0  0  0
    6.2240  -11.2364   26.0061 C   0  0  0  0  0  0  0  0  0  0  0  0
    6.8745  -12.1909   25.2555 C   0  0  0  0  0  0  0  0  0  0  0  0
    7.5139  -13.2510   25.8604 C   0  0  0  0  0  0  0  0  0  0  0  0
    8.2364  -14.3181   25.1019 C   0  0  0  0  0  0  0  0  0  0  0  0
    7.1603  -15.1708   24.4703 C   0  0  2  0  0  0  0  0  0  0  0  0
    6.6890  -16.1291   25.4439 N   0  0  0  0  0  0  0  0  0  0  0  0
    7.5989  -15.8552   23.2353 C   0  0  0  0  0  0  0  0  0  0  0  0
    8.2498  -16.9287   23.3350 O   0  0  0  0  0  0  0  0  0  0  0  0
    7.4622  -13.2958   27.2499 C   0  0  0  0  0  0  0  0  0  0  0  0
    6.8163  -12.3486   28.0019 C   0  0  0  0  0  0  0  0  0  0  0  0
    7.5145  -14.8926   19.6062 C   0  0  0  0  0  0  0  0  0  0  0  0
    7.8398  -15.8874   20.7122 C   0  0  2  0  0  0  0  0  0  0  0  0
    7.3224  -15.3632   21.9362 N   0  0  0  0  0  0  0  0  0  0  0  0
    9.3433  -15.9977   20.7731 C   0  0  0  0  0  0  0  0  0  0  0  0
   10.0254  -15.1546   21.4094 O   0  0  0  0  0  0  0  0  0  0  0  0
   12.8802  -15.9939   22.3687 N   0  0  0  0  0  0  0  0  0  0  0  0
   12.0988  -17.0574   22.8780 C   0  0  0  0  0  0  0  0  0  0  0  0
   12.1193  -17.3512   24.1022 O   0  0  0  0  0  0  0  0  0  0  0  0
   11.2485  -17.8368   21.9791 C   0  0  0  0  0  0  0  0  0  0  0  0
   11.3606  -17.4211   20.5175 C   0  0  2  0  0  0  0  0  0  0  0  0
   10.0261  -17.0460   20.1199 N   0  0  0  0  0  0  0  0  0  0  0  0
   11.9127  -18.4953   19.6675 C   0  0  0  0  0  0  0  0  0  0  0  0
   11.4888  -19.8013   19.7868 O   0  0  0  0  0  0  0  0  0  0  0  0
   12.7873  -18.2188   18.8161 O   0  0  0  0  0  0  0  0  0  0  0  0
  2  1  1  0
  3  2  2  0
  4  3  1  0
  5  4  2  0
  5 11  1  0
  6  5  1  0
  7  6  1  0
  7  9  1  0
  7  8  1  1
  9 10  2  0
 11 12  2  0
 12  2  1  0
 14 13  1  6
 15 14  1  0
 15  9  1  0
 16 14  1  0
 16 17  2  0
 18 19  1  0
 19 20  2  0
 19 21  1  0
 22 21  1  1
 22 23  1  0
 22 24  1  0
 23 16  1  0
 24 26  2  0
 24 25  1  0
M  END
$$$$
