YAN.pdb
     RDKit          3D

 26 26  0  0  1  0  0  0  0  0999 V2000
    7.4160  -12.8185   16.0944 O   0  0  0  0  0  0  0  0  0  0  0  0
    7.4765  -13.5803   17.2542 C   0  0  0  0  0  0  0  0  0  0  0  0
    6.7792  -13.2252   18.4015 C   0  0  0  0  0  0  0  0  0  0  0  0
    6.8376  -13.9793   19.5528 C   0  0  0  0  0  0  0  0  0  0  0  0
    7.5987  -15.1265   19.6086 C   0  0  0  0  0  0  0  0  0  0  0  0
    7.7030  -15.9868   20.8271 C   0  0  0  0  0  0  0  0  0  0  0  0
    8.6350  -17.1159   20.4519 C   0  0  2  0  0  0  0  0  0  0  0  0
    8.0649  -17.8462   19.3428 N   0  0  0  0  0  0  0  0  0  0  0  0
    8.9392  -18.0279   21.5751 C   0  0  0  0  0  0  0  0  0  0  0  0
    9.3496  -17.5381   22.6602 O   0  0  0  0  0  0  0  0  0  0  0  0
    8.2911  -15.4686   18.4514 C   0  0  0  0  0  0  0  0  0  0  0  0
    8.2365  -14.7219   17.3028 C   0  0  0  0  0  0  0  0  0  0  0  0
    8.2522  -21.6073   22.3150 C   0  0  0  0  0  0  0  0  0  0  0  0
    9.1214  -20.3737   22.5181 C   0  0  2  0  0  0  0  0  0  0  0  0
    8.7910  -19.4342   21.4940 N   0  0  0  0  0  0  0  0  0  0  0  0
   10.5558  -20.8227   22.3867 C   0  0  0  0  0  0  0  0  0  0  0  0
   11.0308  -21.6944   23.1584 O   0  0  0  0  0  0  0  0  0  0  0  0
   15.1980  -20.2618   18.6311 N   0  0  0  0  0  0  0  0  0  0  0  0
   14.5067  -21.0787   19.5561 C   0  0  0  0  0  0  0  0  0  0  0  0
   15.0862  -22.0293   20.1442 O   0  0  0  0  0  0  0  0  0  0  0  0
   13.0953  -20.8261   19.8436 C   0  0  0  0  0  0  0  0  0  0  0  0
   12.7943  -20.6552   21.3275 C   0  0  2  0  0  0  0  0  0  0  0  0
   11.4038  -20.2794   21.3980 N   0  0  0  0  0  0  0  0  0  0  0  0
   13.6733  -19.6565   21.9687 C   0  0  0  0  0  0  0  0  0  0  0  0
   13.3744  -18.3113   21.9481 O   0  0  0  0  0  0  0  0  0  0  0  0
   14.7167  -20.0354   22.5467 O   0  0  0  0  0  0  0  0  0  0  0  0
  2  1  1  0
  3  2  2  0
  4  3  1  0
  5  4  2  0
  5 11  1  0
  6  5  1  0
  7  6  1  0
  7  9  1  0
  7  8  1  6
  9 10  2  0
 11 12  2  0
 12  2  1  0
 14 13  1  6
 15 14  1  0
 15  9  1  0
 16 14  1  0
 16 17  2  0
 18 19  1  0
 19 20  2  0
 19 21  1  0
 22 21  1  6
 22 23  1  0
 22 24  1  0
 23 16  1  0
 24 26  2  0
 24 25  1  0
M  END
$$$$
