YAN.pdb
     RDKit          3D

 26 26  0  0  1  0  0  0  0  0999 V2000
    8.9137  -12.2963   18.2606 O   0  0  0  0  0  0  0  0  0  0  0  0
    8.3584  -12.9476   19.3546 C   0  0  0  0  0  0  0  0  0  0  0  0
    7.1571  -13.6384   19.2640 C   0  0  0  0  0  0  0  0  0  0  0  0
    6.6047  -14.2851   20.3476 C   0  0  0  0  0  0  0  0  0  0  0  0
    7.2311  -14.2699   21.5748 C   0  0  0  0  0  0  0  0  0  0  0  0
    6.6830  -14.9518   22.7874 C   0  0  0  0  0  0  0  0  0  0  0  0
    7.0733  -16.4055   22.6506 C   0  0  2  0  0  0  0  0  0  0  0  0
    6.5046  -16.9313   21.4306 N   0  0  0  0  0  0  0  0  0  0  0  0
    6.6779  -17.2341   23.8094 C   0  0  0  0  0  0  0  0  0  0  0  0
    5.4696  -17.5662   23.9337 O   0  0  0  0  0  0  0  0  0  0  0  0
    8.4334  -13.5738   21.6491 C   0  0  0  0  0  0  0  0  0  0  0  0
    8.9877  -12.9285   20.5739 C   0  0  0  0  0  0  0  0  0  0  0  0
    7.0441  -19.9953   24.9141 C   0  0  0  0  0  0  0  0  0  0  0  0
    7.3820  -18.7468   25.7176 C   0  0  2  0  0  0  0  0  0  0  0  0
    7.5944  -17.6781   24.7939 N   0  0  0  0  0  0  0  0  0  0  0  0
    8.6466  -19.0484   26.4834 C   0  0  0  0  0  0  0  0  0  0  0  0
    8.6794  -19.9748   27.3329 O   0  0  0  0  0  0  0  0  0  0  0  0
   11.7507  -16.6648   24.1779 N   0  0  0  0  0  0  0  0  0  0  0  0
   12.2157  -17.7338   24.9790 C   0  0  0  0  0  0  0  0  0  0  0  0
   12.7387  -18.7552   24.4608 O   0  0  0  0  0  0  0  0  0  0  0  0
   12.0932  -17.6648   26.4346 C   0  0  0  0  0  0  0  0  0  0  0  0
   11.0312  -18.5973   27.0041 C   0  0  2  0  0  0  0  0  0  0  0  0
    9.8254  -18.3022   26.2701 N   0  0  0  0  0  0  0  0  0  0  0  0
   10.8524  -18.4244   28.4599 C   0  0  0  0  0  0  0  0  0  0  0  0
   11.8246  -18.8085   29.3581 O   0  0  0  0  0  0  0  0  0  0  0  0
    9.7941  -17.9172   28.8943 O   0  0  0  0  0  0  0  0  0  0  0  0
  2  1  1  0
  3  2  2  0
  4  3  1  0
  5  4  2  0
  5 11  1  0
  6  5  1  0
  7  6  1  0
  7  9  1  0
  7  8  1  6
  9 10  2  0
 11 12  2  0
 12  2  1  0
 14 13  1  6
 15 14  1  0
 15  9  1  0
 16 14  1  0
 16 17  2  0
 18 19  1  0
 19 20  2  0
 19 21  1  0
 22 21  1  6
 22 23  1  0
 22 24  1  0
 23 16  1  0
 24 26  2  0
 24 25  1  0
M  END
$$$$
