CPA.pdb
     RDKit          3D

 19 19  0  0  1  0  0  0  0  0999 V2000
    7.6754  -14.7193   21.3840 N   0  0  0  0  0  0  0  0  0  0  0  0
    7.1002  -14.9192   22.6894 C   0  0  1  0  0  0  0  0  0  0  0  0
    6.6338  -16.3805   22.7865 C   0  0  0  0  0  0  0  0  0  0  0  0
    6.1396  -16.7384   24.4883 S   0  0  0  0  0  0  0  0  0  0  0  0
    8.0148  -14.6004   23.8095 C   0  0  0  0  0  0  0  0  0  0  0  0
    9.2369  -14.9061   23.6599 O   0  0  0  0  0  0  0  0  0  0  0  0
    7.6363  -13.9844   25.0283 N   0  0  0  0  0  0  0  0  0  0  0  0
    6.2549  -13.6783   25.3940 C   0  0  0  0  0  0  0  0  0  0  0  0
    6.3007  -12.6518   26.4754 C   0  0  0  0  0  0  0  0  0  0  0  0
    7.7113  -12.6071   26.9608 C   0  0  0  0  0  0  0  0  0  0  0  0
    8.5244  -13.5614   26.0932 C   0  0  1  0  0  0  0  0  0  0  0  0
    8.9482  -14.7375   26.8778 C   0  0  0  0  0  0  0  0  0  0  0  0
    8.1271  -15.6561   27.0894 O   0  0  0  0  0  0  0  0  0  0  0  0
   12.0839  -16.4529   27.7936 C   0  0  0  0  0  0  0  0  0  0  0  0
   10.6250  -16.1504   28.0576 C   0  0  2  0  0  0  0  0  0  0  0  0
   10.2501  -14.8919   27.4147 N   0  0  0  0  0  0  0  0  0  0  0  0
   10.4543  -16.0243   29.5498 C   0  0  0  0  0  0  0  0  0  0  0  0
   10.1443  -14.9259   30.0745 O   0  0  0  0  0  0  0  0  0  0  0  0
   10.6297  -17.1043   30.4044 O   0  0  0  0  0  0  0  0  0  0  0  0
  2  1  1  6
  3  4  1  0
  3  2  1  0
  5  2  1  0
  5  6  2  0
  7  5  1  0
  8  7  1  0
  9 10  1  0
  9  8  1  0
 10 11  1  0
 11  7  1  0
 11 12  1  1
 13 12  2  0
 15 14  1  1
 15 16  1  0
 15 17  1  0
 16 12  1  0
 17 18  2  0
 17 19  1  0
M  END
$$$$
