CPA.pdb
     RDKit          3D

 19 19  0  0  1  0  0  0  0  0999 V2000
    5.5475  -13.8028   26.3381 N   0  0  0  0  0  0  0  0  0  0  0  0
    6.7050  -13.5312   25.5250 C   0  0  1  0  0  0  0  0  0  0  0  0
    7.9234  -13.4118   26.4542 C   0  0  0  0  0  0  0  0  0  0  0  0
    7.9966  -11.7372   27.1317 S   0  0  0  0  0  0  0  0  0  0  0  0
    6.9605  -14.5456   24.4769 C   0  0  0  0  0  0  0  0  0  0  0  0
    6.6557  -15.7462   24.7510 O   0  0  0  0  0  0  0  0  0  0  0  0
    7.5150  -14.2841   23.1992 N   0  0  0  0  0  0  0  0  0  0  0  0
    8.0323  -12.9817   22.7847 C   0  0  0  0  0  0  0  0  0  0  0  0
    8.0823  -12.9798   21.2938 C   0  0  0  0  0  0  0  0  0  0  0  0
    7.9045  -14.3967   20.8599 C   0  0  0  0  0  0  0  0  0  0  0  0
    7.6613  -15.2318   22.1121 C   0  0  1  0  0  0  0  0  0  0  0  0
    8.8163  -16.1117   22.3774 C   0  0  0  0  0  0  0  0  0  0  0  0
    8.9969  -17.1143   21.6528 O   0  0  0  0  0  0  0  0  0  0  0  0
   12.1513  -16.1928   23.1461 C   0  0  0  0  0  0  0  0  0  0  0  0
   10.8568  -16.8191   23.6168 C   0  0  2  0  0  0  0  0  0  0  0  0
    9.7484  -15.8860   23.4202 N   0  0  0  0  0  0  0  0  0  0  0  0
   11.0093  -17.1175   25.0863 C   0  0  0  0  0  0  0  0  0  0  0  0
   10.2695  -16.5656   25.9383 O   0  0  0  0  0  0  0  0  0  0  0  0
   11.9639  -18.0066   25.5613 O   0  0  0  0  0  0  0  0  0  0  0  0
  2  1  1  1
  3  4  1  0
  3  2  1  0
  5  2  1  0
  5  6  2  0
  7  5  1  0
  8  7  1  0
  9 10  1  0
  9  8  1  0
 10 11  1  0
 11  7  1  0
 11 12  1  1
 13 12  2  0
 15 14  1  1
 15 16  1  0
 15 17  1  0
 16 12  1  0
 17 18  2  0
 17 19  1  0
M  END
$$$$
