CPA.pdb
     RDKit          3D

 19 19  0  0  1  0  0  0  0  0999 V2000
    5.4887  -14.1105   26.5612 N   0  0  0  0  0  0  0  0  0  0  0  0
    6.5033  -13.6370   25.6549 C   0  0  1  0  0  0  0  0  0  0  0  0
    7.5829  -12.9193   26.4803 C   0  0  0  0  0  0  0  0  0  0  0  0
    6.9621  -11.3027   26.9998 S   0  0  0  0  0  0  0  0  0  0  0  0
    7.1175  -14.6987   24.8253 C   0  0  0  0  0  0  0  0  0  0  0  0
    7.2268  -15.8486   25.3498 O   0  0  0  0  0  0  0  0  0  0  0  0
    7.5902  -14.5340   23.4995 N   0  0  0  0  0  0  0  0  0  0  0  0
    7.5946  -13.2581   22.7868 C   0  0  0  0  0  0  0  0  0  0  0  0
    7.7092  -13.5650   21.3314 C   0  0  0  0  0  0  0  0  0  0  0  0
    8.1012  -15.0013   21.2284 C   0  0  0  0  0  0  0  0  0  0  0  0
    8.1346  -15.5692   22.6430 C   0  0  1  0  0  0  0  0  0  0  0  0
    9.5230  -15.8641   23.0476 C   0  0  0  0  0  0  0  0  0  0  0  0
   10.2695  -14.9224   23.3927 O   0  0  0  0  0  0  0  0  0  0  0  0
   11.5398  -18.7168   24.2500 C   0  0  0  0  0  0  0  0  0  0  0  0
   11.4345  -17.3770   23.5548 C   0  0  2  0  0  0  0  0  0  0  0  0
   10.0709  -17.1703   23.0694 N   0  0  0  0  0  0  0  0  0  0  0  0
   12.3869  -17.3998   22.3867 C   0  0  0  0  0  0  0  0  0  0  0  0
   13.6292  -17.4450   22.5663 O   0  0  0  0  0  0  0  0  0  0  0  0
   11.9402  -17.3723   21.0725 O   0  0  0  0  0  0  0  0  0  0  0  0
  2  1  1  1
  3  4  1  0
  3  2  1  0
  5  2  1  0
  5  6  2  0
  7  5  1  0
  8  7  1  0
  9 10  1  0
  9  8  1  0
 10 11  1  0
 11  7  1  0
 11 12  1  1
 13 12  2  0
 15 14  1  6
 15 16  1  0
 15 17  1  0
 16 12  1  0
 17 18  2  0
 17 19  1  0
M  END
$$$$
