CPA.pdb
     RDKit          3D

 19 19  0  0  1  0  0  0  0  0999 V2000
    7.7626  -13.9952   21.1581 N   0  0  0  0  0  0  0  0  0  0  0  0
    7.2352  -14.4229   22.4284 C   0  0  1  0  0  0  0  0  0  0  0  0
    6.9002  -15.9194   22.3264 C   0  0  0  0  0  0  0  0  0  0  0  0
    6.5160  -16.5596   23.9729 S   0  0  0  0  0  0  0  0  0  0  0  0
    8.1423  -14.1804   23.5734 C   0  0  0  0  0  0  0  0  0  0  0  0
    9.3755  -14.4160   23.3912 O   0  0  0  0  0  0  0  0  0  0  0  0
    7.7454  -13.7086   24.8495 N   0  0  0  0  0  0  0  0  0  0  0  0
    6.3722  -13.3480   25.1958 C   0  0  0  0  0  0  0  0  0  0  0  0
    6.4347  -12.4853   26.4112 C   0  0  0  0  0  0  0  0  0  0  0  0
    7.8173  -12.6181   26.9572 C   0  0  0  0  0  0  0  0  0  0  0  0
    8.6043  -13.5058   25.9996 C   0  0  1  0  0  0  0  0  0  0  0  0
    8.9006  -14.8076   26.6290 C   0  0  0  0  0  0  0  0  0  0  0  0
    8.0012  -15.6739   26.6881 O   0  0  0  0  0  0  0  0  0  0  0  0
   11.7372  -17.0014   27.2393 C   0  0  0  0  0  0  0  0  0  0  0  0
   10.3925  -16.4864   27.7041 C   0  0  2  0  0  0  0  0  0  0  0  0
   10.1627  -15.1413   27.1794 N   0  0  0  0  0  0  0  0  0  0  0  0
   10.4240  -16.4410   29.2103 C   0  0  0  0  0  0  0  0  0  0  0  0
   10.3000  -15.3537   29.8270 O   0  0  0  0  0  0  0  0  0  0  0  0
   10.5897  -17.5860   29.9777 O   0  0  0  0  0  0  0  0  0  0  0  0
  2  1  1  6
  3  4  1  0
  3  2  1  0
  5  2  1  0
  5  6  2  0
  7  5  1  0
  8  7  1  0
  9 10  1  0
  9  8  1  0
 10 11  1  0
 11  7  1  0
 11 12  1  1
 13 12  2  0
 15 14  1  6
 15 16  1  0
 15 17  1  0
 16 12  1  0
 17 18  2  0
 17 19  1  0
M  END
$$$$
