CPA.pdb
     RDKit          3D

 19 19  0  0  1  0  0  0  0  0999 V2000
    7.7033  -19.9235   23.6851 N   0  0  0  0  0  0  0  0  0  0  0  0
    7.1879  -18.5936   23.8870 C   0  0  1  0  0  0  0  0  0  0  0  0
    6.4415  -18.5701   25.2302 C   0  0  0  0  0  0  0  0  0  0  0  0
    7.6289  -18.3165   26.5696 S   0  0  0  0  0  0  0  0  0  0  0  0
    8.2210  -17.5331   23.8591 C   0  0  0  0  0  0  0  0  0  0  0  0
    9.4196  -17.8909   24.0702 O   0  0  0  0  0  0  0  0  0  0  0  0
    7.9793  -16.1579   23.6166 N   0  0  0  0  0  0  0  0  0  0  0  0
    6.6483  -15.5548   23.5920 C   0  0  0  0  0  0  0  0  0  0  0  0
    6.7644  -14.2566   22.8663 C   0  0  0  0  0  0  0  0  0  0  0  0
    8.2226  -13.9571   22.7597 C   0  0  0  0  0  0  0  0  0  0  0  0
    8.9775  -15.1393   23.3571 C   0  0  1  0  0  0  0  0  0  0  0  0
    9.6254  -14.7499   24.6249 C   0  0  0  0  0  0  0  0  0  0  0  0
   10.7131  -14.1348   24.5888 O   0  0  0  0  0  0  0  0  0  0  0  0
    8.9437  -13.4696   27.7650 C   0  0  0  0  0  0  0  0  0  0  0  0
    9.7621  -14.5569   27.1036 C   0  0  2  0  0  0  0  0  0  0  0  0
    9.0811  -15.0351   25.9014 N   0  0  0  0  0  0  0  0  0  0  0  0
    9.8918  -15.6871   28.0923 C   0  0  0  0  0  0  0  0  0  0  0  0
    9.3399  -16.7959   27.8829 O   0  0  0  0  0  0  0  0  0  0  0  0
   10.6194  -15.5567   29.2676 O   0  0  0  0  0  0  0  0  0  0  0  0
  2  1  1  1
  3  4  1  0
  3  2  1  0
  5  2  1  0
  5  6  2  0
  7  5  1  0
  8  7  1  0
  9 10  1  0
  9  8  1  0
 10 11  1  0
 11  7  1  0
 11 12  1  1
 13 12  2  0
 15 14  1  1
 15 16  1  0
 15 17  1  0
 16 12  1  0
 17 18  2  0
 17 19  1  0
M  END
$$$$
