CPA.pdb
     RDKit          3D

 19 19  0  0  1  0  0  0  0  0999 V2000
    9.5302  -15.2389   14.2724 N   0  0  0  0  0  0  0  0  0  0  0  0
    8.7126  -15.2548   15.4582 C   0  0  1  0  0  0  0  0  0  0  0  0
    8.1683  -16.6802   15.6431 C   0  0  0  0  0  0  0  0  0  0  0  0
    7.0549  -17.0771   14.2752 S   0  0  0  0  0  0  0  0  0  0  0  0
    9.4157  -14.8143   16.6846 C   0  0  0  0  0  0  0  0  0  0  0  0
   10.6762  -14.9559   16.7082 O   0  0  0  0  0  0  0  0  0  0  0  0
    8.7968  -14.2501   17.8278 N   0  0  0  0  0  0  0  0  0  0  0  0
    7.3544  -14.0588   17.9647 C   0  0  0  0  0  0  0  0  0  0  0  0
    7.1424  -13.0501   19.0430 C   0  0  0  0  0  0  0  0  0  0  0  0
    8.4475  -12.9037   19.7520 C   0  0  0  0  0  0  0  0  0  0  0  0
    9.4639  -13.7770   19.0248 C   0  0  1  0  0  0  0  0  0  0  0  0
    9.8472  -14.9295   19.8635 C   0  0  0  0  0  0  0  0  0  0  0  0
    9.1392  -15.9597   19.8426 O   0  0  0  0  0  0  0  0  0  0  0  0
   12.8334  -16.1860   21.6955 C   0  0  0  0  0  0  0  0  0  0  0  0
   11.3447  -16.1605   21.4262 C   0  0  2  0  0  0  0  0  0  0  0  0
   10.9870  -14.9402   20.7048 N   0  0  0  0  0  0  0  0  0  0  0  0
   10.6453  -16.1798   22.7612 C   0  0  0  0  0  0  0  0  0  0  0  0
   10.0184  -15.1740   23.1772 O   0  0  0  0  0  0  0  0  0  0  0  0
   10.6613  -17.2978   23.5842 O   0  0  0  0  0  0  0  0  0  0  0  0
  2  1  1  6
  3  4  1  0
  3  2  1  0
  5  2  1  0
  5  6  2  0
  7  5  1  0
  8  7  1  0
  9 10  1  0
  9  8  1  0
 10 11  1  0
 11  7  1  0
 11 12  1  1
 13 12  2  0
 15 14  1  1
 15 16  1  0
 15 17  1  0
 16 12  1  0
 17 18  2  0
 17 19  1  0
M  END
$$$$
