CPA.pdb
     RDKit          3D

 19 19  0  0  1  0  0  0  0  0999 V2000
    9.3976  -14.8375   15.2248 N   0  0  0  0  0  0  0  0  0  0  0  0
    8.6998  -15.3397   16.3806 C   0  0  1  0  0  0  0  0  0  0  0  0
    8.5945  -16.8672   16.2477 C   0  0  0  0  0  0  0  0  0  0  0  0
    7.9621  -17.5595   17.7935 S   0  0  0  0  0  0  0  0  0  0  0  0
    9.3308  -14.9824   17.6716 C   0  0  0  0  0  0  0  0  0  0  0  0
   10.5934  -15.0826   17.7428 O   0  0  0  0  0  0  0  0  0  0  0  0
    8.6410  -14.5398   18.8277 N   0  0  0  0  0  0  0  0  0  0  0  0
    7.1861  -14.4388   18.9218 C   0  0  0  0  0  0  0  0  0  0  0  0
    6.8789  -13.5263   20.0613 C   0  0  0  0  0  0  0  0  0  0  0  0
    8.1479  -13.3617   20.8293 C   0  0  0  0  0  0  0  0  0  0  0  0
    9.2376  -14.1213   20.0809 C   0  0  1  0  0  0  0  0  0  0  0  0
    9.6573  -15.3103   20.8482 C   0  0  0  0  0  0  0  0  0  0  0  0
    8.9899  -16.3631   20.7527 O   0  0  0  0  0  0  0  0  0  0  0  0
   12.7014  -16.5957   22.5299 C   0  0  0  0  0  0  0  0  0  0  0  0
   11.2023  -16.5876   22.3252 C   0  0  2  0  0  0  0  0  0  0  0  0
   10.7887  -15.3321   21.7005 N   0  0  0  0  0  0  0  0  0  0  0  0
   10.5617  -16.7091   23.6841 C   0  0  0  0  0  0  0  0  0  0  0  0
   10.7793  -17.7075   24.4145 O   0  0  0  0  0  0  0  0  0  0  0  0
    9.7106  -15.7339   24.1862 O   0  0  0  0  0  0  0  0  0  0  0  0
  2  1  1  6
  3  4  1  0
  3  2  1  0
  5  2  1  0
  5  6  2  0
  7  5  1  0
  8  7  1  0
  9 10  1  0
  9  8  1  0
 10 11  1  0
 11  7  1  0
 11 12  1  1
 13 12  2  0
 15 14  1  1
 15 16  1  0
 15 17  1  0
 16 12  1  0
 17 18  2  0
 17 19  1  0
M  END
$$$$
