CPA.pdb
     RDKit          3D

 19 19  0  0  1  0  0  0  0  0999 V2000
    8.0607  -17.5277   15.9386 N   0  0  0  0  0  0  0  0  0  0  0  0
    7.5033  -16.7882   17.0420 C   0  0  1  0  0  0  0  0  0  0  0  0
    6.5714  -17.7278   17.8237 C   0  0  0  0  0  0  0  0  0  0  0  0
    5.1525  -18.1586   16.7895 S   0  0  0  0  0  0  0  0  0  0  0  0
    8.5149  -16.2016   17.9505 C   0  0  0  0  0  0  0  0  0  0  0  0
    9.6400  -16.7844   18.0128 O   0  0  0  0  0  0  0  0  0  0  0  0
    8.3279  -15.0475   18.7514 N   0  0  0  0  0  0  0  0  0  0  0  0
    7.0676  -14.3135   18.8442 C   0  0  0  0  0  0  0  0  0  0  0  0
    7.3844  -12.9563   19.3761 C   0  0  0  0  0  0  0  0  0  0  0  0
    8.7808  -13.0190   19.8990 C   0  0  0  0  0  0  0  0  0  0  0  0
    9.3223  -14.4109   19.5924 C   0  0  1  0  0  0  0  0  0  0  0  0
    9.4845  -15.1868   20.8375 C   0  0  0  0  0  0  0  0  0  0  0  0
    8.4763  -15.4420   21.5314 O   0  0  0  0  0  0  0  0  0  0  0  0
   11.1673  -17.8935   22.1981 C   0  0  0  0  0  0  0  0  0  0  0  0
   10.7933  -16.4647   22.5269 C   0  0  2  0  0  0  0  0  0  0  0  0
   10.7332  -15.6682   21.3023 N   0  0  0  0  0  0  0  0  0  0  0  0
   11.8656  -15.9158   23.4327 C   0  0  0  0  0  0  0  0  0  0  0  0
   12.0392  -16.3826   24.5858 O   0  0  0  0  0  0  0  0  0  0  0  0
   12.7020  -14.8799   23.0391 O   0  0  0  0  0  0  0  0  0  0  0  0
  2  1  1  6
  3  4  1  0
  3  2  1  0
  5  2  1  0
  5  6  2  0
  7  5  1  0
  8  7  1  0
  9 10  1  0
  9  8  1  0
 10 11  1  0
 11  7  1  0
 11 12  1  1
 13 12  2  0
 15 14  1  6
 15 16  1  0
 15 17  1  0
 16 12  1  0
 17 18  2  0
 17 19  1  0
M  END
$$$$
