CPA.pdb
     RDKit          3D

 19 19  0  0  1  0  0  0  0  0999 V2000
    8.5487  -17.2044   17.8302 N   0  0  0  0  0  0  0  0  0  0  0  0
    7.8982  -17.1315   19.1134 C   0  0  1  0  0  0  0  0  0  0  0  0
    7.2987  -18.5123   19.4235 C   0  0  0  0  0  0  0  0  0  0  0  0
    6.6342  -18.5115   21.1048 S   0  0  0  0  0  0  0  0  0  0  0  0
    8.7850  -16.7007   20.2183 C   0  0  0  0  0  0  0  0  0  0  0  0
    9.9730  -17.1455   20.2100 O   0  0  0  0  0  0  0  0  0  0  0  0
    8.4149  -15.8360   21.2783 N   0  0  0  0  0  0  0  0  0  0  0  0
    7.0736  -15.2815   21.4492 C   0  0  0  0  0  0  0  0  0  0  0  0
    7.1953  -14.0996   22.3512 C   0  0  0  0  0  0  0  0  0  0  0  0
    8.5549  -14.1687   22.9628 C   0  0  0  0  0  0  0  0  0  0  0  0
    9.2742  -15.3629   22.3456 C   0  0  1  0  0  0  0  0  0  0  0  0
    9.4506  -16.4327   23.3472 C   0  0  0  0  0  0  0  0  0  0  0  0
    8.4927  -17.1961   23.5974 O   0  0  0  0  0  0  0  0  0  0  0  0
   12.0321  -18.6147   24.5023 C   0  0  0  0  0  0  0  0  0  0  0  0
   10.7993  -17.8338   24.9020 C   0  0  2  0  0  0  0  0  0  0  0  0
   10.6587  -16.6511   24.0541 N   0  0  0  0  0  0  0  0  0  0  0  0
   10.9822  -17.4068   26.3359 C   0  0  0  0  0  0  0  0  0  0  0  0
   11.0404  -16.1909   26.6459 O   0  0  0  0  0  0  0  0  0  0  0  0
   11.0936  -18.3272   27.3693 O   0  0  0  0  0  0  0  0  0  0  0  0
  2  1  1  6
  3  4  1  0
  3  2  1  0
  5  2  1  0
  5  6  2  0
  7  5  1  0
  8  7  1  0
  9 10  1  0
  9  8  1  0
 10 11  1  0
 11  7  1  0
 11 12  1  1
 13 12  2  0
 15 14  1  6
 15 16  1  0
 15 17  1  0
 16 12  1  0
 17 18  2  0
 17 19  1  0
M  END
$$$$
