CPA.pdb
     RDKit          3D

 19 19  0  0  1  0  0  0  0  0999 V2000
    0.3861  -21.3321   20.8731 N   0  0  0  0  0  0  0  0  0  0  0  0
    1.1296  -20.5387   21.8180 C   0  0  1  0  0  0  0  0  0  0  0  0
    0.4909  -20.7244   23.2036 C   0  0  0  0  0  0  0  0  0  0  0  0
   -0.5527  -19.2961   23.5770 S   0  0  0  0  0  0  0  0  0  0  0  0
    2.5739  -20.8604   21.8750 C   0  0  0  0  0  0  0  0  0  0  0  0
    2.8998  -22.0761   21.7162 O   0  0  0  0  0  0  0  0  0  0  0  0
    3.6154  -19.9242   22.0915 N   0  0  0  0  0  0  0  0  0  0  0  0
    3.3960  -18.4987   22.3272 C   0  0  0  0  0  0  0  0  0  0  0  0
    4.6830  -17.8001   22.0430 C   0  0  0  0  0  0  0  0  0  0  0  0
    5.7328  -18.8578   21.9612 C   0  0  0  0  0  0  0  0  0  0  0  0
    5.0373  -20.2058   22.1153 C   0  0  1  0  0  0  0  0  0  0  0  0
    5.3952  -20.8261   23.4060 C   0  0  0  0  0  0  0  0  0  0  0  0
    4.8572  -20.4058   24.4532 O   0  0  0  0  0  0  0  0  0  0  0  0
    6.7417  -23.9940   24.6850 C   0  0  0  0  0  0  0  0  0  0  0  0
    6.5519  -22.5009   24.8401 C   0  0  2  0  0  0  0  0  0  0  0  0
    6.3265  -21.8861   23.5329 N   0  0  0  0  0  0  0  0  0  0  0  0
    7.8160  -21.9470   25.4460 C   0  0  0  0  0  0  0  0  0  0  0  0
    8.1658  -22.2605   26.6110 O   0  0  0  0  0  0  0  0  0  0  0  0
    8.6434  -21.0743   24.7523 O   0  0  0  0  0  0  0  0  0  0  0  0
  2  1  1  6
  3  4  1  0
  3  2  1  0
  5  2  1  0
  5  6  2  0
  7  5  1  0
  8  7  1  0
  9 10  1  0
  9  8  1  0
 10 11  1  0
 11  7  1  0
 11 12  1  1
 13 12  2  0
 15 14  1  6
 15 16  1  0
 15 17  1  0
 16 12  1  0
 17 18  2  0
 17 19  1  0
M  END
$$$$
