CPA.pdb
     RDKit          3D

 19 19  0  0  1  0  0  0  0  0999 V2000
    8.1242  -14.2799   21.2394 N   0  0  0  0  0  0  0  0  0  0  0  0
    7.3914  -14.3734   22.4760 C   0  0  1  0  0  0  0  0  0  0  0  0
    6.6971  -15.7440   22.5165 C   0  0  0  0  0  0  0  0  0  0  0  0
    5.5864  -15.8935   21.0980 S   0  0  0  0  0  0  0  0  0  0  0  0
    8.2218  -14.1864   23.6877 C   0  0  0  0  0  0  0  0  0  0  0  0
    9.4545  -14.4696   23.5904 O   0  0  0  0  0  0  0  0  0  0  0  0
    7.7522  -13.7189   24.9404 N   0  0  0  0  0  0  0  0  0  0  0  0
    6.3549  -13.3940   25.2191 C   0  0  0  0  0  0  0  0  0  0  0  0
    6.3363  -12.5235   26.4304 C   0  0  0  0  0  0  0  0  0  0  0  0
    7.6946  -12.6156   27.0420 C   0  0  0  0  0  0  0  0  0  0  0  0
    8.5498  -13.4866   26.1285 C   0  0  1  0  0  0  0  0  0  0  0  0
    8.8510  -14.7764   26.7798 C   0  0  0  0  0  0  0  0  0  0  0  0
    7.9429  -15.6281   26.8925 O   0  0  0  0  0  0  0  0  0  0  0  0
   11.7174  -16.9619   27.3154 C   0  0  0  0  0  0  0  0  0  0  0  0
   10.3723  -16.4645   27.7977 C   0  0  2  0  0  0  0  0  0  0  0  0
   10.1274  -15.1141   27.2935 N   0  0  0  0  0  0  0  0  0  0  0  0
   10.4152  -16.4396   29.3041 C   0  0  0  0  0  0  0  0  0  0  0  0
   10.6166  -17.4902   29.9626 O   0  0  0  0  0  0  0  0  0  0  0  0
   10.2360  -15.2674   30.0261 O   0  0  0  0  0  0  0  0  0  0  0  0
  2  1  1  6
  3  4  1  0
  3  2  1  0
  5  2  1  0
  5  6  2  0
  7  5  1  0
  8  7  1  0
  9 10  1  0
  9  8  1  0
 10 11  1  0
 11  7  1  0
 11 12  1  1
 13 12  2  0
 15 14  1  6
 15 16  1  0
 15 17  1  0
 16 12  1  0
 17 18  2  0
 17 19  1  0
M  END
$$$$
