CPA.pdb
     RDKit          3D

 19 19  0  0  1  0  0  0  0  0999 V2000
    8.2438  -17.2505   16.2878 N   0  0  0  0  0  0  0  0  0  0  0  0
    7.6105  -16.4590   17.3112 C   0  0  1  0  0  0  0  0  0  0  0  0
    6.5398  -17.3270   17.9912 C   0  0  0  0  0  0  0  0  0  0  0  0
    7.3404  -18.4823   19.1282 S   0  0  0  0  0  0  0  0  0  0  0  0
    8.5458  -15.9170   18.3232 C   0  0  0  0  0  0  0  0  0  0  0  0
    9.7013  -16.4378   18.3769 O   0  0  0  0  0  0  0  0  0  0  0  0
    8.2551  -14.8686   19.2314 N   0  0  0  0  0  0  0  0  0  0  0  0
    6.9828  -14.1507   19.2695 C   0  0  0  0  0  0  0  0  0  0  0  0
    7.2201  -12.8683   19.9937 C   0  0  0  0  0  0  0  0  0  0  0  0
    8.5500  -12.9948   20.6593 C   0  0  0  0  0  0  0  0  0  0  0  0
    9.1406  -14.3394   20.2498 C   0  0  1  0  0  0  0  0  0  0  0  0
    9.1727  -15.2609   21.4024 C   0  0  0  0  0  0  0  0  0  0  0  0
    8.0989  -15.7352   21.8325 O   0  0  0  0  0  0  0  0  0  0  0  0
   10.6801  -17.9822   22.6885 C   0  0  0  0  0  0  0  0  0  0  0  0
   10.3053  -16.5980   23.1713 C   0  0  2  0  0  0  0  0  0  0  0  0
   10.3653  -15.6474   22.0621 N   0  0  0  0  0  0  0  0  0  0  0  0
   11.3056  -16.2035   24.2275 C   0  0  0  0  0  0  0  0  0  0  0  0
   12.1755  -15.3267   23.9988 O   0  0  0  0  0  0  0  0  0  0  0  0
   11.3119  -16.7844   25.4885 O   0  0  0  0  0  0  0  0  0  0  0  0
  2  1  1  6
  3  4  1  0
  3  2  1  0
  5  2  1  0
  5  6  2  0
  7  5  1  0
  8  7  1  0
  9 10  1  0
  9  8  1  0
 10 11  1  0
 11  7  1  0
 11 12  1  1
 13 12  2  0
 15 14  1  6
 15 16  1  0
 15 17  1  0
 16 12  1  0
 17 18  2  0
 17 19  1  0
M  END
$$$$
