CPA.pdb
     RDKit          3D

 19 19  0  0  1  0  0  0  0  0999 V2000
    6.2022  -18.3739   18.5772 N   0  0  0  0  0  0  0  0  0  0  0  0
    6.0739  -17.4809   19.7001 C   0  0  1  0  0  0  0  0  0  0  0  0
    5.2730  -18.2033   20.7950 C   0  0  0  0  0  0  0  0  0  0  0  0
    3.5100  -17.8807   20.5573 S   0  0  0  0  0  0  0  0  0  0  0  0
    7.3654  -17.0029   20.2444 C   0  0  0  0  0  0  0  0  0  0  0  0
    8.3945  -17.6949   19.9771 O   0  0  0  0  0  0  0  0  0  0  0  0
    7.5429  -15.8406   21.0356 N   0  0  0  0  0  0  0  0  0  0  0  0
    6.4453  -15.0011   21.5110 C   0  0  0  0  0  0  0  0  0  0  0  0
    7.0282  -13.6786   21.8809 C   0  0  0  0  0  0  0  0  0  0  0  0
    8.5083  -13.8639   21.9288 C   0  0  0  0  0  0  0  0  0  0  0  0
    8.8045  -15.2959   21.4973 C   0  0  1  0  0  0  0  0  0  0  0  0
    9.2940  -16.0886   22.6422 C   0  0  0  0  0  0  0  0  0  0  0  0
    8.4686  -16.5538   23.4577 O   0  0  0  0  0  0  0  0  0  0  0  0
   12.4081  -17.9063   23.5911 C   0  0  0  0  0  0  0  0  0  0  0  0
   11.0471  -17.3251   23.9062 C   0  0  2  0  0  0  0  0  0  0  0  0
   10.6646  -16.3591   22.8775 N   0  0  0  0  0  0  0  0  0  0  0  0
   11.1529  -16.6274   25.2380 C   0  0  0  0  0  0  0  0  0  0  0  0
   11.3781  -17.2745   26.2908 O   0  0  0  0  0  0  0  0  0  0  0  0
   11.0080  -15.2522   25.3618 O   0  0  0  0  0  0  0  0  0  0  0  0
  2  1  1  6
  3  4  1  0
  3  2  1  0
  5  2  1  0
  5  6  2  0
  7  5  1  0
  8  7  1  0
  9 10  1  0
  9  8  1  0
 10 11  1  0
 11  7  1  0
 11 12  1  1
 13 12  2  0
 15 14  1  6
 15 16  1  0
 15 17  1  0
 16 12  1  0
 17 18  2  0
 17 19  1  0
M  END
$$$$
