WVR.pdb
     RDKit          3D

 33 34  0  0  1  0  0  0  0  0999 V2000
    6.1896  -17.8315   24.1812 N   0  0  0  0  0  0  0  0  0  0  0  0
    6.6726  -16.4617   23.9495 C   0  0  1  0  0  0  0  0  0  0  0  0
    7.5845  -16.1746   25.1489 C   0  0  0  0  0  0  0  0  0  0  0  0
    6.9128  -15.1324   25.9559 C   0  0  0  0  0  0  0  0  0  0  0  0
    5.7332  -15.2713   26.6712 C   0  0  0  0  0  0  0  0  0  0  0  0
    5.4329  -14.1101   27.2747 N   0  0  0  0  0  0  0  0  0  0  0  0
    6.3707  -13.1977   26.9887 C   0  0  0  0  0  0  0  0  0  0  0  0
    6.5640  -11.8791   27.3290 C   0  0  0  0  0  0  0  0  0  0  0  0
    7.6682  -11.1960   26.8553 C   0  0  0  0  0  0  0  0  0  0  0  0
    8.6084  -11.7947   26.0354 C   0  0  0  0  0  0  0  0  0  0  0  0
    8.4018  -13.1301   25.6978 C   0  0  0  0  0  0  0  0  0  0  0  0
    7.3059  -13.8255   26.1618 C   0  0  0  0  0  0  0  0  0  0  0  0
    7.4300  -16.3868   22.6831 C   0  0  0  0  0  0  0  0  0  0  0  0
    7.9398  -17.4467   22.2392 O   0  0  0  0  0  0  0  0  0  0  0  0
    6.5106  -13.6745   19.7672 C   0  0  0  0  0  0  0  0  0  0  0  0
    7.9711  -13.8125   20.0358 C   0  0  2  0  0  0  0  0  0  0  0  0
    8.8207  -13.5026   18.8243 C   0  0  0  0  0  0  0  0  0  0  0  0
    8.3488  -15.1046   20.7048 C   0  0  2  0  0  0  0  0  0  0  0  0
    7.5881  -15.1706   21.9770 N   0  0  0  0  0  0  0  0  0  0  0  0
    9.7593  -15.2772   21.0235 C   0  0  0  0  0  0  0  0  0  0  0  0
   10.2214  -14.6101   22.0264 O   0  0  0  0  0  0  0  0  0  0  0  0
   10.8431  -20.8125   25.8211 N   0  0  0  0  0  0  0  0  0  0  0  0
   10.6344  -21.3133   24.5117 C   0  0  0  0  0  0  0  0  0  0  0  0
   10.2733  -22.5515   24.2824 N   0  0  0  0  0  0  0  0  0  0  0  0
   10.8045  -20.5005   23.3480 N   0  0  0  0  0  0  0  0  0  0  0  0
   11.2570  -19.1541   23.4704 C   0  0  0  0  0  0  0  0  0  0  0  0
   11.3696  -18.4235   22.1636 C   0  0  0  0  0  0  0  0  0  0  0  0
   11.7892  -16.9897   22.3060 C   0  0  0  0  0  0  0  0  0  0  0  0
   11.9512  -16.4452   20.8819 C   0  0  2  0  0  0  0  0  0  0  0  0
   10.6482  -16.1304   20.3031 N   0  0  0  0  0  0  0  0  0  0  0  0
   12.6848  -17.3905   20.0171 C   0  0  0  0  0  0  0  0  0  0  0  0
   12.0030  -18.0132   18.9678 O   0  0  0  0  0  0  0  0  0  0  0  0
   13.8837  -17.6471   20.1937 O   0  0  0  0  0  0  0  0  0  0  0  0
  2  1  1  1
  2 13  1  0
  2  3  1  0
  4  3  1  0
  4  5  2  0
  6  5  1  0
  7  6  1  0
  8  7  2  0
  9  8  1  0
 10  9  2  0
 10 11  1  0
 11 12  2  0
 12  7  1  0
 12  4  1  0
 13 14  2  0
 16 15  1  6
 17 16  1  0
 18 16  1  0
 18 19  1  1
 19 13  1  0
 20 18  1  0
 21 20  2  0
 22 23  1  0
 23 25  1  0
 23 24  2  0
 25 26  1  0
 27 26  1  0
 27 28  1  0
 29 28  1  1
 29 30  1  0
 30 20  1  0
 31 29  1  0
 31 32  1  0
 33 31  2  0
M  END
$$$$
