WVR.pdb
     RDKit          3D

 33 34  0  0  1  0  0  0  0  0999 V2000
    6.4526  -17.4870   23.6304 N   0  0  0  0  0  0  0  0  0  0  0  0
    7.0968  -16.1806   23.4264 C   0  0  1  0  0  0  0  0  0  0  0  0
    8.0617  -16.0460   24.6111 C   0  0  0  0  0  0  0  0  0  0  0  0
    7.3123  -15.3792   25.6984 C   0  0  0  0  0  0  0  0  0  0  0  0
    6.6115  -15.9989   26.7219 C   0  0  0  0  0  0  0  0  0  0  0  0
    6.0574  -15.0687   27.5160 N   0  0  0  0  0  0  0  0  0  0  0  0
    6.3628  -13.8470   27.0601 C   0  0  0  0  0  0  0  0  0  0  0  0
    6.0710  -12.5672   27.4713 C   0  0  0  0  0  0  0  0  0  0  0  0
    6.5536  -11.4843   26.7609 C   0  0  0  0  0  0  0  0  0  0  0  0
    7.3348  -11.6354   25.6289 C   0  0  0  0  0  0  0  0  0  0  0  0
    7.6234  -12.9359   25.2226 C   0  0  0  0  0  0  0  0  0  0  0  0
    7.1500  -14.0266   25.9197 C   0  0  0  0  0  0  0  0  0  0  0  0
    7.8316  -16.1598   22.1448 C   0  0  0  0  0  0  0  0  0  0  0  0
    8.4262  -17.2093   21.7907 O   0  0  0  0  0  0  0  0  0  0  0  0
    7.6113  -12.7385   19.8449 C   0  0  0  0  0  0  0  0  0  0  0  0
    8.9691  -13.3379   19.9912 C   0  0  2  0  0  0  0  0  0  0  0  0
    9.8831  -13.0057   18.8337 C   0  0  0  0  0  0  0  0  0  0  0  0
    8.9560  -14.8025   20.3294 C   0  0  2  0  0  0  0  0  0  0  0  0
    7.8767  -15.0056   21.3272 N   0  0  0  0  0  0  0  0  0  0  0  0
   10.1852  -15.3454   20.8909 C   0  0  0  0  0  0  0  0  0  0  0  0
   10.0759  -16.3780   21.6565 O   0  0  0  0  0  0  0  0  0  0  0  0
   13.6816  -15.1409   14.5791 N   0  0  0  0  0  0  0  0  0  0  0  0
   14.3252  -16.3945   14.7320 C   0  0  0  0  0  0  0  0  0  0  0  0
   15.4069  -16.7147   14.0661 N   0  0  0  0  0  0  0  0  0  0  0  0
   13.8371  -17.3986   15.6248 N   0  0  0  0  0  0  0  0  0  0  0  0
   12.6899  -17.1471   16.4331 C   0  0  0  0  0  0  0  0  0  0  0  0
   13.0091  -16.7678   17.8503 C   0  0  0  0  0  0  0  0  0  0  0  0
   11.9402  -15.9494   18.5132 C   0  0  0  0  0  0  0  0  0  0  0  0
   12.4582  -15.6217   19.9185 C   0  0  2  0  0  0  0  0  0  0  0  0
   11.4859  -14.8113   20.6463 N   0  0  0  0  0  0  0  0  0  0  0  0
   13.7665  -14.9392   19.8718 C   0  0  0  0  0  0  0  0  0  0  0  0
   14.6850  -15.1702   20.8997 O   0  0  0  0  0  0  0  0  0  0  0  0
   14.0731  -14.1698   18.9507 O   0  0  0  0  0  0  0  0  0  0  0  0
  2  1  1  1
  2 13  1  0
  2  3  1  0
  4  3  1  0
  4  5  2  0
  6  5  1  0
  7  6  1  0
  8  7  2  0
  9  8  1  0
 10  9  2  0
 10 11  1  0
 11 12  2  0
 12  7  1  0
 12  4  1  0
 13 14  2  0
 16 15  1  6
 17 16  1  0
 18 16  1  0
 18 19  1  1
 19 13  1  0
 20 18  1  0
 21 20  2  0
 22 23  1  0
 23 25  1  0
 23 24  2  0
 25 26  1  0
 27 26  1  0
 27 28  1  0
 29 28  1  6
 29 30  1  0
 30 20  1  0
 31 29  1  0
 31 32  1  0
 33 31  2  0
M  END
$$$$
