WVR.pdb
     RDKit          3D

 33 34  0  0  1  0  0  0  0  0999 V2000
    5.7075  -17.9491   24.1595 N   0  0  0  0  0  0  0  0  0  0  0  0
    6.2416  -16.5912   23.9748 C   0  0  1  0  0  0  0  0  0  0  0  0
    7.2306  -16.4132   25.1336 C   0  0  0  0  0  0  0  0  0  0  0  0
    6.6976  -15.3287   25.9870 C   0  0  0  0  0  0  0  0  0  0  0  0
    5.5247  -15.3571   26.7258 C   0  0  0  0  0  0  0  0  0  0  0  0
    5.3699  -14.1895   27.3705 N   0  0  0  0  0  0  0  0  0  0  0  0
    6.3988  -13.3795   27.0892 C   0  0  0  0  0  0  0  0  0  0  0  0
    6.7467  -12.1025   27.4636 C   0  0  0  0  0  0  0  0  0  0  0  0
    7.9111  -11.5328   26.9840 C   0  0  0  0  0  0  0  0  0  0  0  0
    8.7607  -12.2068   26.1245 C   0  0  0  0  0  0  0  0  0  0  0  0
    8.3977  -13.4990   25.7527 C   0  0  0  0  0  0  0  0  0  0  0  0
    7.2399  -14.0814   26.2219 C   0  0  0  0  0  0  0  0  0  0  0  0
    6.9311  -16.4784   22.6730 C   0  0  0  0  0  0  0  0  0  0  0  0
    7.1935  -17.5398   22.0525 O   0  0  0  0  0  0  0  0  0  0  0  0
    8.5016  -13.4041   19.0554 C   0  0  0  0  0  0  0  0  0  0  0  0
    7.8583  -13.6874   20.3708 C   0  0  2  0  0  0  0  0  0  0  0  0
    8.2640  -12.7035   21.4445 C   0  0  0  0  0  0  0  0  0  0  0  0
    7.9746  -15.1200   20.8106 C   0  0  2  0  0  0  0  0  0  0  0  0
    7.2931  -15.2250   22.1245 N   0  0  0  0  0  0  0  0  0  0  0  0
    9.3264  -15.6374   20.9711 C   0  0  0  0  0  0  0  0  0  0  0  0
    9.8804  -15.4864   22.1264 O   0  0  0  0  0  0  0  0  0  0  0  0
   12.0258  -21.3357   15.3725 N   0  0  0  0  0  0  0  0  0  0  0  0
   12.7061  -21.3530   16.6159 C   0  0  0  0  0  0  0  0  0  0  0  0
   13.6538  -22.2161   16.8863 N   0  0  0  0  0  0  0  0  0  0  0  0
   12.4042  -20.4283   17.6635 N   0  0  0  0  0  0  0  0  0  0  0  0
   11.4098  -19.4245   17.4731 C   0  0  0  0  0  0  0  0  0  0  0  0
   11.0545  -18.6685   18.7206 C   0  0  0  0  0  0  0  0  0  0  0  0
   11.9834  -17.5292   19.0230 C   0  0  0  0  0  0  0  0  0  0  0  0
   11.3970  -16.8079   20.2422 C   0  0  2  0  0  0  0  0  0  0  0  0
   10.0639  -16.2943   19.9407 N   0  0  0  0  0  0  0  0  0  0  0  0
   12.2773  -15.7169   20.7056 C   0  0  0  0  0  0  0  0  0  0  0  0
   13.1631  -15.9657   21.7578 O   0  0  0  0  0  0  0  0  0  0  0  0
   12.2538  -14.5907   20.1905 O   0  0  0  0  0  0  0  0  0  0  0  0
  2  1  1  1
  2 13  1  0
  2  3  1  0
  4  3  1  0
  4  5  2  0
  6  5  1  0
  7  6  1  0
  8  7  2  0
  9  8  1  0
 10  9  2  0
 10 11  1  0
 11 12  2  0
 12  7  1  0
 12  4  1  0
 13 14  2  0
 16 15  1  6
 17 16  1  0
 18 16  1  0
 18 19  1  1
 19 13  1  0
 20 18  1  0
 21 20  2  0
 22 23  1  0
 23 25  1  0
 23 24  2  0
 25 26  1  0
 27 26  1  0
 27 28  1  0
 29 28  1  6
 29 30  1  0
 30 20  1  0
 31 29  1  0
 31 32  1  0
 33 31  2  0
M  END
$$$$
