WVR.pdb
     RDKit          3D

 33 34  0  0  1  0  0  0  0  0999 V2000
    8.4894  -16.6506   24.8420 N   0  0  0  0  0  0  0  0  0  0  0  0
    7.1252  -16.7989   24.3127 C   0  0  1  0  0  0  0  0  0  0  0  0
    6.2694  -15.9030   25.2170 C   0  0  0  0  0  0  0  0  0  0  0  0
    7.2030  -15.1806   26.1087 C   0  0  0  0  0  0  0  0  0  0  0  0
    8.3317  -15.7015   26.7226 C   0  0  0  0  0  0  0  0  0  0  0  0
    8.9247  -14.7481   27.4590 N   0  0  0  0  0  0  0  0  0  0  0  0
    8.2322  -13.6060   27.3595 C   0  0  0  0  0  0  0  0  0  0  0  0
    8.3793  -12.3441   27.8868 C   0  0  0  0  0  0  0  0  0  0  0  0
    7.4649  -11.3541   27.5800 C   0  0  0  0  0  0  0  0  0  0  0  0
    6.3841  -11.5829   26.7467 C   0  0  0  0  0  0  0  0  0  0  0  0
    6.2460  -12.8643   26.2190 C   0  0  0  0  0  0  0  0  0  0  0  0
    7.1490  -13.8627   26.5152 C   0  0  0  0  0  0  0  0  0  0  0  0
    7.0618  -16.3428   22.9088 C   0  0  0  0  0  0  0  0  0  0  0  0
    6.0022  -15.7914   22.5169 O   0  0  0  0  0  0  0  0  0  0  0  0
    6.5451  -14.0809   21.4463 C   0  0  0  0  0  0  0  0  0  0  0  0
    7.9235  -14.3711   20.9564 C   0  0  2  0  0  0  0  0  0  0  0  0
    8.3329  -13.4847   19.8021 C   0  0  0  0  0  0  0  0  0  0  0  0
    8.1857  -15.8290   20.7009 C   0  0  2  0  0  0  0  0  0  0  0  0
    8.1482  -16.5118   22.0178 N   0  0  0  0  0  0  0  0  0  0  0  0
    9.4574  -16.1544   20.0702 C   0  0  0  0  0  0  0  0  0  0  0  0
   10.5054  -16.1485   20.8226 O   0  0  0  0  0  0  0  0  0  0  0  0
    9.5791  -14.2161   15.4523 N   0  0  0  0  0  0  0  0  0  0  0  0
    8.7499  -14.6646   14.3939 C   0  0  0  0  0  0  0  0  0  0  0  0
    8.0012  -13.8487   13.6939 N   0  0  0  0  0  0  0  0  0  0  0  0
    8.6722  -16.0412   14.0165 N   0  0  0  0  0  0  0  0  0  0  0  0
    9.4536  -17.0196   14.6982 C   0  0  0  0  0  0  0  0  0  0  0  0
    9.7405  -16.6845   16.1333 C   0  0  0  0  0  0  0  0  0  0  0  0
   10.6749  -17.6480   16.8047 C   0  0  0  0  0  0  0  0  0  0  0  0
   10.8218  -17.1667   18.2530 C   0  0  2  0  0  0  0  0  0  0  0  0
    9.6108  -16.4770   18.6884 N   0  0  0  0  0  0  0  0  0  0  0  0
   12.0008  -16.2941   18.4204 C   0  0  0  0  0  0  0  0  0  0  0  0
   13.2726  -16.8738   18.4347 O   0  0  0  0  0  0  0  0  0  0  0  0
   11.8961  -15.0665   18.5483 O   0  0  0  0  0  0  0  0  0  0  0  0
  2  1  1  1
  2 13  1  0
  2  3  1  0
  4  3  1  0
  4  5  2  0
  6  5  1  0
  7  6  1  0
  8  7  2  0
  9  8  1  0
 10  9  2  0
 10 11  1  0
 11 12  2  0
 12  7  1  0
 12  4  1  0
 13 14  2  0
 16 15  1  6
 17 16  1  0
 18 16  1  0
 18 19  1  1
 19 13  1  0
 20 18  1  0
 21 20  2  0
 22 23  1  0
 23 25  1  0
 23 24  2  0
 25 26  1  0
 27 26  1  0
 27 28  1  0
 29 28  1  6
 29 30  1  0
 30 20  1  0
 31 29  1  0
 31 32  1  0
 33 31  2  0
M  END
$$$$
