WVR.pdb
     RDKit          3D

 33 34  0  0  1  0  0  0  0  0999 V2000
    6.2571  -17.5575   24.5404 N   0  0  0  0  0  0  0  0  0  0  0  0
    6.7325  -16.2360   24.1033 C   0  0  1  0  0  0  0  0  0  0  0  0
    7.7098  -15.8031   25.2034 C   0  0  0  0  0  0  0  0  0  0  0  0
    6.9957  -14.8185   26.0454 C   0  0  0  0  0  0  0  0  0  0  0  0
    6.0503  -15.0947   27.0213 C   0  0  0  0  0  0  0  0  0  0  0  0
    5.6209  -13.9471   27.5703 N   0  0  0  0  0  0  0  0  0  0  0  0
    6.2461  -12.9111   26.9961 C   0  0  0  0  0  0  0  0  0  0  0  0
    6.1969  -11.5467   27.1628 C   0  0  0  0  0  0  0  0  0  0  0  0
    6.9948  -10.7249   26.3892 C   0  0  0  0  0  0  0  0  0  0  0  0
    7.8601  -11.2269   25.4332 C   0  0  0  0  0  0  0  0  0  0  0  0
    7.9011  -12.6099   25.2738 C   0  0  0  0  0  0  0  0  0  0  0  0
    7.1119  -13.4432   26.0371 C   0  0  0  0  0  0  0  0  0  0  0  0
    7.4200  -16.3381   22.7995 C   0  0  0  0  0  0  0  0  0  0  0  0
    7.7382  -17.4835   22.3905 O   0  0  0  0  0  0  0  0  0  0  0  0
    6.5551  -13.7463   19.9091 C   0  0  0  0  0  0  0  0  0  0  0  0
    8.0129  -14.0607   19.9262 C   0  0  2  0  0  0  0  0  0  0  0  0
    8.6380  -14.0122   18.5505 C   0  0  0  0  0  0  0  0  0  0  0  0
    8.3584  -15.3107   20.6862 C   0  0  2  0  0  0  0  0  0  0  0  0
    7.7197  -15.1953   22.0205 N   0  0  0  0  0  0  0  0  0  0  0  0
    9.7767  -15.5666   20.8954 C   0  0  0  0  0  0  0  0  0  0  0  0
   10.5128  -14.5607   21.2283 O   0  0  0  0  0  0  0  0  0  0  0  0
    9.5220  -18.2571   24.8269 N   0  0  0  0  0  0  0  0  0  0  0  0
   10.4342  -19.0502   25.5671 C   0  0  0  0  0  0  0  0  0  0  0  0
   10.0805  -19.7084   26.6431 N   0  0  0  0  0  0  0  0  0  0  0  0
   11.8065  -19.1865   25.1905 N   0  0  0  0  0  0  0  0  0  0  0  0
   12.1662  -19.3201   23.8174 C   0  0  0  0  0  0  0  0  0  0  0  0
   11.8648  -18.1085   22.9836 C   0  0  0  0  0  0  0  0  0  0  0  0
   12.2507  -18.2555   21.5408 C   0  0  0  0  0  0  0  0  0  0  0  0
   11.8456  -16.9473   20.8514 C   0  0  2  0  0  0  0  0  0  0  0  0
   10.3920  -16.8470   20.7578 N   0  0  0  0  0  0  0  0  0  0  0  0
   12.4583  -16.8236   19.5139 C   0  0  0  0  0  0  0  0  0  0  0  0
   13.6853  -16.1654   19.3923 O   0  0  0  0  0  0  0  0  0  0  0  0
   11.9181  -17.2847   18.4991 O   0  0  0  0  0  0  0  0  0  0  0  0
  2  1  1  1
  2 13  1  0
  2  3  1  0
  4  3  1  0
  4  5  2  0
  6  5  1  0
  7  6  1  0
  8  7  2  0
  9  8  1  0
 10  9  2  0
 10 11  1  0
 11 12  2  0
 12  7  1  0
 12  4  1  0
 13 14  2  0
 16 15  1  6
 17 16  1  0
 18 16  1  0
 18 19  1  1
 19 13  1  0
 20 18  1  0
 21 20  2  0
 22 23  1  0
 23 25  1  0
 23 24  2  0
 25 26  1  0
 27 26  1  0
 27 28  1  0
 29 28  1  6
 29 30  1  0
 30 20  1  0
 31 29  1  0
 31 32  1  0
 33 31  2  0
M  END
$$$$
