WVR.pdb
     RDKit          3D

 33 34  0  0  1  0  0  0  0  0999 V2000
    6.1706  -18.3343   24.3842 N   0  0  0  0  0  0  0  0  0  0  0  0
    6.5468  -16.9260   24.1884 C   0  0  1  0  0  0  0  0  0  0  0  0
    7.3929  -16.5858   25.4217 C   0  0  0  0  0  0  0  0  0  0  0  0
    6.7985  -15.3733   26.0259 C   0  0  0  0  0  0  0  0  0  0  0  0
    5.5630  -15.2788   26.6480 C   0  0  0  0  0  0  0  0  0  0  0  0
    5.3653  -14.0190   27.0681 N   0  0  0  0  0  0  0  0  0  0  0  0
    6.4258  -13.2658   26.7491 C   0  0  0  0  0  0  0  0  0  0  0  0
    6.7547  -11.9427   26.9317 C   0  0  0  0  0  0  0  0  0  0  0  0
    7.9651  -11.4598   26.4714 C   0  0  0  0  0  0  0  0  0  0  0  0
    8.8806  -12.2678   25.8205 C   0  0  0  0  0  0  0  0  0  0  0  0
    8.5363  -13.6054   25.6416 C   0  0  0  0  0  0  0  0  0  0  0  0
    7.3333  -14.1028   26.0946 C   0  0  0  0  0  0  0  0  0  0  0  0
    7.3361  -16.7680   22.9494 C   0  0  0  0  0  0  0  0  0  0  0  0
    7.9015  -17.7873   22.4784 O   0  0  0  0  0  0  0  0  0  0  0  0
    6.2531  -14.5534   19.8589 C   0  0  0  0  0  0  0  0  0  0  0  0
    7.6619  -14.2701   20.2579 C   0  0  2  0  0  0  0  0  0  0  0  0
    8.5221  -13.8298   19.0952 C   0  0  0  0  0  0  0  0  0  0  0  0
    8.2941  -15.3591   21.0787 C   0  0  2  0  0  0  0  0  0  0  0  0
    7.4638  -15.5181   22.2981 N   0  0  0  0  0  0  0  0  0  0  0  0
    9.6674  -15.1299   21.5057 C   0  0  0  0  0  0  0  0  0  0  0  0
   10.0490  -13.9033   21.6251 O   0  0  0  0  0  0  0  0  0  0  0  0
   11.4154  -18.2498   27.8890 N   0  0  0  0  0  0  0  0  0  0  0  0
   11.3197  -16.9670   28.4842 C   0  0  0  0  0  0  0  0  0  0  0  0
   10.8533  -16.7874   29.6951 N   0  0  0  0  0  0  0  0  0  0  0  0
   11.7256  -15.7777   27.8027 N   0  0  0  0  0  0  0  0  0  0  0  0
   10.9934  -15.3105   26.6721 C   0  0  0  0  0  0  0  0  0  0  0  0
   11.6289  -15.6376   25.3518 C   0  0  0  0  0  0  0  0  0  0  0  0
   10.6460  -15.7869   24.2276 C   0  0  0  0  0  0  0  0  0  0  0  0
   11.4748  -16.0275   22.9603 C   0  0  2  0  0  0  0  0  0  0  0  0
   10.6029  -16.1675   21.7975 N   0  0  0  0  0  0  0  0  0  0  0  0
   12.3472  -17.2108   23.0961 C   0  0  0  0  0  0  0  0  0  0  0  0
   11.7582  -18.4701   23.2412 O   0  0  0  0  0  0  0  0  0  0  0  0
   13.5825  -17.1205   23.0854 O   0  0  0  0  0  0  0  0  0  0  0  0
  2  1  1  1
  2 13  1  0
  2  3  1  0
  4  3  1  0
  4  5  2  0
  6  5  1  0
  7  6  1  0
  8  7  2  0
  9  8  1  0
 10  9  2  0
 10 11  1  0
 11 12  2  0
 12  7  1  0
 12  4  1  0
 13 14  2  0
 16 15  1  6
 17 16  1  0
 18 16  1  0
 18 19  1  1
 19 13  1  0
 20 18  1  0
 21 20  2  0
 22 23  1  0
 23 25  1  0
 23 24  2  0
 25 26  1  0
 27 26  1  0
 27 28  1  0
 29 28  1  1
 29 30  1  0
 30 20  1  0
 31 29  1  0
 31 32  1  0
 33 31  2  0
M  END
$$$$
