WVR.pdb
     RDKit          3D

 33 34  0  0  1  0  0  0  0  0999 V2000
    6.0196  -18.1060   24.7436 N   0  0  0  0  0  0  0  0  0  0  0  0
    6.4608  -16.7192   24.5306 C   0  0  1  0  0  0  0  0  0  0  0  0
    7.0654  -16.3037   25.8776 C   0  0  0  0  0  0  0  0  0  0  0  0
    6.4149  -15.0323   26.2635 C   0  0  0  0  0  0  0  0  0  0  0  0
    5.0595  -14.8248   26.4692 C   0  0  0  0  0  0  0  0  0  0  0  0
    4.8457  -13.5422   26.8037 N   0  0  0  0  0  0  0  0  0  0  0  0
    6.0113  -12.8829   26.8294 C   0  0  0  0  0  0  0  0  0  0  0  0
    6.3751  -11.5847   27.1022 C   0  0  0  0  0  0  0  0  0  0  0  0
    7.7042  -11.2102   27.0410 C   0  0  0  0  0  0  0  0  0  0  0  0
    8.7066  -12.1048   26.7099 C   0  0  0  0  0  0  0  0  0  0  0  0
    8.3257  -13.4161   26.4358 C   0  0  0  0  0  0  0  0  0  0  0  0
    7.0048  -13.8057   26.4924 C   0  0  0  0  0  0  0  0  0  0  0  0
    7.4746  -16.6571   23.4575 C   0  0  0  0  0  0  0  0  0  0  0  0
    8.3039  -17.5984   23.3769 O   0  0  0  0  0  0  0  0  0  0  0  0
    8.2974  -13.0930   20.9757 C   0  0  0  0  0  0  0  0  0  0  0  0
    8.0708  -14.4804   20.4776 C   0  0  2  0  0  0  0  0  0  0  0  0
    6.6664  -14.6943   19.9603 C   0  0  0  0  0  0  0  0  0  0  0  0
    8.5156  -15.5519   21.4335 C   0  0  2  0  0  0  0  0  0  0  0  0
    7.5272  -15.5812   22.5397 N   0  0  0  0  0  0  0  0  0  0  0  0
    9.8357  -15.3812   22.0243 C   0  0  0  0  0  0  0  0  0  0  0  0
    9.9730  -14.4385   22.8944 O   0  0  0  0  0  0  0  0  0  0  0  0
   12.8682  -20.1663   23.9625 N   0  0  0  0  0  0  0  0  0  0  0  0
   11.8293  -20.5141   24.8618 C   0  0  0  0  0  0  0  0  0  0  0  0
   11.3969  -21.7435   24.9942 N   0  0  0  0  0  0  0  0  0  0  0  0
   11.1795  -19.5451   25.6880 N   0  0  0  0  0  0  0  0  0  0  0  0
   11.4750  -18.1583   25.5395 C   0  0  0  0  0  0  0  0  0  0  0  0
   11.6503  -17.7176   24.1150 C   0  0  0  0  0  0  0  0  0  0  0  0
   11.9351  -16.2517   23.9657 C   0  0  0  0  0  0  0  0  0  0  0  0
   12.1991  -16.0142   22.4742 C   0  0  2  0  0  0  0  0  0  0  0  0
   10.9706  -16.1850   21.7037 N   0  0  0  0  0  0  0  0  0  0  0  0
   13.2585  -16.9044   21.9596 C   0  0  0  0  0  0  0  0  0  0  0  0
   12.9305  -17.8490   20.9830 O   0  0  0  0  0  0  0  0  0  0  0  0
   14.4264  -16.8388   22.3670 O   0  0  0  0  0  0  0  0  0  0  0  0
  2  1  1  1
  2 13  1  0
  2  3  1  0
  4  3  1  0
  4  5  2  0
  6  5  1  0
  7  6  1  0
  8  7  2  0
  9  8  1  0
 10  9  2  0
 10 11  1  0
 11 12  2  0
 12  7  1  0
 12  4  1  0
 13 14  2  0
 16 15  1  1
 17 16  1  0
 18 16  1  0
 18 19  1  1
 19 13  1  0
 20 18  1  0
 21 20  2  0
 22 23  1  0
 23 25  1  0
 23 24  2  0
 25 26  1  0
 27 26  1  0
 27 28  1  0
 29 28  1  1
 29 30  1  0
 30 20  1  0
 31 29  1  0
 31 32  1  0
 33 31  2  0
M  END
$$$$
