WVR.pdb
     RDKit          3D

 33 34  0  0  1  0  0  0  0  0999 V2000
    6.1324  -17.0430   24.8426 N   0  0  0  0  0  0  0  0  0  0  0  0
    6.8588  -16.0278   24.0649 C   0  0  1  0  0  0  0  0  0  0  0  0
    7.7838  -15.3578   25.0887 C   0  0  0  0  0  0  0  0  0  0  0  0
    6.9332  -14.4809   25.9229 C   0  0  0  0  0  0  0  0  0  0  0  0
    5.9655  -14.8855   26.8298 C   0  0  0  0  0  0  0  0  0  0  0  0
    5.3987  -13.8074   27.3948 N   0  0  0  0  0  0  0  0  0  0  0  0
    5.9533  -12.6941   26.8979 C   0  0  0  0  0  0  0  0  0  0  0  0
    5.7649  -11.3485   27.1123 C   0  0  0  0  0  0  0  0  0  0  0  0
    6.5226  -10.4237   26.4188 C   0  0  0  0  0  0  0  0  0  0  0  0
    7.4839  -10.8016   25.4980 C   0  0  0  0  0  0  0  0  0  0  0  0
    7.6654  -12.1666   25.2897 C   0  0  0  0  0  0  0  0  0  0  0  0
    6.9180  -13.1017   25.9730 C   0  0  0  0  0  0  0  0  0  0  0  0
    7.6421  -16.6643   22.9859 C   0  0  0  0  0  0  0  0  0  0  0  0
    7.1154  -17.6205   22.3624 O   0  0  0  0  0  0  0  0  0  0  0  0
    6.9487  -14.9462   20.8464 C   0  0  0  0  0  0  0  0  0  0  0  0
    8.3920  -14.5949   20.9786 C   0  0  2  0  0  0  0  0  0  0  0  0
    8.8957  -13.7487   19.8316 C   0  0  0  0  0  0  0  0  0  0  0  0
    9.2808  -15.7696   21.2782 C   0  0  2  0  0  0  0  0  0  0  0  0
    8.9451  -16.2265   22.6494 N   0  0  0  0  0  0  0  0  0  0  0  0
   10.7150  -15.5208   21.2337 C   0  0  0  0  0  0  0  0  0  0  0  0
   11.2994  -15.6528   20.0911 O   0  0  0  0  0  0  0  0  0  0  0  0
   11.8551  -17.1546   28.8754 N   0  0  0  0  0  0  0  0  0  0  0  0
   11.9106  -18.4504   28.3038 C   0  0  0  0  0  0  0  0  0  0  0  0
   12.0599  -19.5318   29.0279 N   0  0  0  0  0  0  0  0  0  0  0  0
   11.8079  -18.6676   26.8946 N   0  0  0  0  0  0  0  0  0  0  0  0
   12.4468  -17.7789   25.9810 C   0  0  0  0  0  0  0  0  0  0  0  0
   12.1993  -18.1023   24.5359 C   0  0  0  0  0  0  0  0  0  0  0  0
   11.3228  -17.1065   23.8344 C   0  0  0  0  0  0  0  0  0  0  0  0
   12.2639  -16.1684   23.0695 C   0  0  2  0  0  0  0  0  0  0  0  0
   11.5013  -15.1429   22.3632 N   0  0  0  0  0  0  0  0  0  0  0  0
   13.1259  -16.9100   22.1279 C   0  0  0  0  0  0  0  0  0  0  0  0
   12.5259  -17.6803   21.1276 O   0  0  0  0  0  0  0  0  0  0  0  0
   14.3618  -16.8698   22.1983 O   0  0  0  0  0  0  0  0  0  0  0  0
  2  1  1  1
  2 13  1  0
  2  3  1  0
  4  3  1  0
  4  5  2  0
  6  5  1  0
  7  6  1  0
  8  7  2  0
  9  8  1  0
 10  9  2  0
 10 11  1  0
 11 12  2  0
 12  7  1  0
 12  4  1  0
 13 14  2  0
 16 15  1  6
 17 16  1  0
 18 16  1  0
 18 19  1  1
 19 13  1  0
 20 18  1  0
 21 20  2  0
 22 23  1  0
 23 25  1  0
 23 24  2  0
 25 26  1  0
 27 26  1  0
 27 28  1  0
 29 28  1  6
 29 30  1  0
 30 20  1  0
 31 29  1  0
 31 32  1  0
 33 31  2  0
M  END
$$$$
