WVR.pdb
     RDKit          3D

 33 34  0  0  1  0  0  0  0  0999 V2000
   10.8283  -15.3553   25.1413 N   0  0  0  0  0  0  0  0  0  0  0  0
    9.9243  -16.4671   24.8100 C   0  0  1  0  0  0  0  0  0  0  0  0
    8.5424  -15.8107   24.6999 C   0  0  0  0  0  0  0  0  0  0  0  0
    8.3892  -14.9374   25.8841 C   0  0  0  0  0  0  0  0  0  0  0  0
    8.9381  -15.1424   27.1407 C   0  0  0  0  0  0  0  0  0  0  0  0
    8.5769  -14.1410   27.9590 N   0  0  0  0  0  0  0  0  0  0  0  0
    7.8049  -13.2717   27.2940 C   0  0  0  0  0  0  0  0  0  0  0  0
    7.1733  -12.0964   27.6282 C   0  0  0  0  0  0  0  0  0  0  0  0
    6.4287  -11.4169   26.6827 C   0  0  0  0  0  0  0  0  0  0  0  0
    6.2882  -11.8781   25.3857 C   0  0  0  0  0  0  0  0  0  0  0  0
    6.9324  -13.0690   25.0594 C   0  0  0  0  0  0  0  0  0  0  0  0
    7.6786  -13.7589   25.9905 C   0  0  0  0  0  0  0  0  0  0  0  0
   10.3152  -17.0880   23.5275 C   0  0  0  0  0  0  0  0  0  0  0  0
   10.6564  -16.3280   22.5861 O   0  0  0  0  0  0  0  0  0  0  0  0
   11.7546  -21.1935   21.1516 C   0  0  0  0  0  0  0  0  0  0  0  0
   11.2578  -20.4614   22.3522 C   0  0  2  0  0  0  0  0  0  0  0  0
   10.3508  -21.3055   23.2185 C   0  0  0  0  0  0  0  0  0  0  0  0
   10.6851  -19.1057   22.0462 C   0  0  2  0  0  0  0  0  0  0  0  0
   10.3125  -18.4913   23.3444 N   0  0  0  0  0  0  0  0  0  0  0  0
    9.5064  -19.0819   21.1912 C   0  0  0  0  0  0  0  0  0  0  0  0
    8.3616  -19.2447   21.7634 O   0  0  0  0  0  0  0  0  0  0  0  0
    8.1528  -13.5864   16.1115 N   0  0  0  0  0  0  0  0  0  0  0  0
    8.1306  -13.4105   17.5178 C   0  0  0  0  0  0  0  0  0  0  0  0
    7.8893  -12.2507   18.0770 N   0  0  0  0  0  0  0  0  0  0  0  0
    8.3712  -14.4886   18.4252 N   0  0  0  0  0  0  0  0  0  0  0  0
    9.1932  -15.5867   18.0366 C   0  0  0  0  0  0  0  0  0  0  0  0
    8.4317  -16.8414   17.7208 C   0  0  0  0  0  0  0  0  0  0  0  0
    7.7467  -17.4490   18.9098 C   0  0  0  0  0  0  0  0  0  0  0  0
    8.2859  -18.8790   19.0330 C   0  0  2  0  0  0  0  0  0  0  0  0
    9.5420  -18.8899   19.7774 N   0  0  0  0  0  0  0  0  0  0  0  0
    8.4649  -19.5099   17.7103 C   0  0  0  0  0  0  0  0  0  0  0  0
    7.3809  -20.1713   17.1262 O   0  0  0  0  0  0  0  0  0  0  0  0
    9.5447  -19.4704   17.1048 O   0  0  0  0  0  0  0  0  0  0  0  0
  2  1  1  6
  2 13  1  0
  2  3  1  0
  4  3  1  0
  4  5  2  0
  6  5  1  0
  7  6  1  0
  8  7  2  0
  9  8  1  0
 10  9  2  0
 10 11  1  0
 11 12  2  0
 12  7  1  0
 12  4  1  0
 13 14  2  0
 16 15  1  6
 17 16  1  0
 18 16  1  0
 18 19  1  1
 19 13  1  0
 20 18  1  0
 21 20  2  0
 22 23  1  0
 23 25  1  0
 23 24  2  0
 25 26  1  0
 27 26  1  0
 27 28  1  0
 29 28  1  6
 29 30  1  0
 30 20  1  0
 31 29  1  0
 31 32  1  0
 33 31  2  0
M  END
$$$$
