WVR.pdb
     RDKit          3D

 33 34  0  0  1  0  0  0  0  0999 V2000
    6.1153  -17.9624   24.3846 N   0  0  0  0  0  0  0  0  0  0  0  0
    6.5652  -16.5916   24.0986 C   0  0  1  0  0  0  0  0  0  0  0  0
    7.5120  -16.2550   25.2574 C   0  0  0  0  0  0  0  0  0  0  0  0
    6.8654  -15.1771   26.0375 C   0  0  0  0  0  0  0  0  0  0  0  0
    5.6732  -15.2643   26.7400 C   0  0  0  0  0  0  0  0  0  0  0  0
    5.4041  -14.0833   27.3193 N   0  0  0  0  0  0  0  0  0  0  0  0
    6.3751  -13.2075   27.0294 C   0  0  0  0  0  0  0  0  0  0  0  0
    6.6077  -11.8900   27.3490 C   0  0  0  0  0  0  0  0  0  0  0  0
    7.7396  -11.2521   26.8776 C   0  0  0  0  0  0  0  0  0  0  0  0
    8.6694  -11.8960   26.0803 C   0  0  0  0  0  0  0  0  0  0  0  0
    8.4228  -13.2297   25.7636 C   0  0  0  0  0  0  0  0  0  0  0  0
    7.2989  -13.8803   26.2255 C   0  0  0  0  0  0  0  0  0  0  0  0
    7.2778  -16.5395   22.8053 C   0  0  0  0  0  0  0  0  0  0  0  0
    7.7594  -17.6102   22.3557 O   0  0  0  0  0  0  0  0  0  0  0  0
    8.5460  -13.7251   18.8634 C   0  0  0  0  0  0  0  0  0  0  0  0
    7.9251  -13.9214   20.2052 C   0  0  2  0  0  0  0  0  0  0  0  0
    8.2473  -12.8016   21.1684 C   0  0  0  0  0  0  0  0  0  0  0  0
    8.1568  -15.2864   20.7906 C   0  0  2  0  0  0  0  0  0  0  0  0
    7.4243  -15.3332   22.0802 N   0  0  0  0  0  0  0  0  0  0  0  0
    9.5425  -15.6474   21.0557 C   0  0  0  0  0  0  0  0  0  0  0  0
   10.1694  -14.9577   21.9477 O   0  0  0  0  0  0  0  0  0  0  0  0
    8.1578  -20.4344   21.7636 N   0  0  0  0  0  0  0  0  0  0  0  0
    9.2105  -21.3026   21.3801 C   0  0  0  0  0  0  0  0  0  0  0  0
    8.9919  -22.4903   20.8723 N   0  0  0  0  0  0  0  0  0  0  0  0
   10.5865  -20.9421   21.5218 N   0  0  0  0  0  0  0  0  0  0  0  0
   11.0099  -20.1348   22.6181 C   0  0  0  0  0  0  0  0  0  0  0  0
   11.1266  -18.6734   22.2947 C   0  0  0  0  0  0  0  0  0  0  0  0
   11.9093  -18.3905   21.0460 C   0  0  0  0  0  0  0  0  0  0  0  0
   11.6505  -16.9195   20.6997 C   0  0  2  0  0  0  0  0  0  0  0  0
   10.2380  -16.7058   20.3976 N   0  0  0  0  0  0  0  0  0  0  0  0
   12.4926  -16.4681   19.5742 C   0  0  0  0  0  0  0  0  0  0  0  0
   11.8740  -16.0779   18.3831 O   0  0  0  0  0  0  0  0  0  0  0  0
   13.7279  -16.4254   19.6544 O   0  0  0  0  0  0  0  0  0  0  0  0
  2  1  1  1
  2 13  1  0
  2  3  1  0
  4  3  1  0
  4  5  2  0
  6  5  1  0
  7  6  1  0
  8  7  2  0
  9  8  1  0
 10  9  2  0
 10 11  1  0
 11 12  2  0
 12  7  1  0
 12  4  1  0
 13 14  2  0
 16 15  1  6
 17 16  1  0
 18 16  1  0
 18 19  1  1
 19 13  1  0
 20 18  1  0
 21 20  2  0
 22 23  1  0
 23 25  1  0
 23 24  2  0
 25 26  1  0
 27 26  1  0
 27 28  1  0
 29 28  1  6
 29 30  1  0
 30 20  1  0
 31 29  1  0
 31 32  1  0
 33 31  2  0
M  END
$$$$
