NYG.pdb
     RDKit          3D

 25 25  0  0  1  0  0  0  0  0999 V2000
   15.2770  -12.8504  -13.7919 N   0  0  0  0  0  0  0  0  0  0  0  0
   15.2470  -11.5384  -14.3088 C   0  0  0  0  0  0  0  0  0  0  0  0
   14.1656  -10.9382  -14.4635 O   0  0  0  0  0  0  0  0  0  0  0  0
   16.5097  -10.8684  -14.6709 C   0  0  0  0  0  0  0  0  0  0  0  0
   16.3555  -10.2596  -16.0529 C   0  0  2  0  0  0  0  0  0  0  0  0
   16.4952  -11.3505  -17.0033 N   0  0  0  0  0  0  0  0  0  0  0  0
   17.3586   -9.2133  -16.3068 C   0  0  0  0  0  0  0  0  0  0  0  0
   18.4967   -9.5449  -16.7318 O   0  0  0  0  0  0  0  0  0  0  0  0
   21.0451   -1.2813  -17.8667 O   0  0  0  0  0  0  0  0  0  0  0  0
   20.1894   -2.3590  -17.6675 C   0  0  0  0  0  0  0  0  0  0  0  0
   18.9666   -2.2291  -17.0426 C   0  0  0  0  0  0  0  0  0  0  0  0
   18.1133   -3.2828  -16.8399 C   0  0  0  0  0  0  0  0  0  0  0  0
   18.4579   -4.5517  -17.2673 C   0  0  0  0  0  0  0  0  0  0  0  0
   17.5412   -5.6881  -17.0427 C   0  0  0  0  0  0  0  0  0  0  0  0
   18.1778   -6.8424  -16.3083 C   0  0  2  0  0  0  0  0  0  0  0  0
   17.1119   -7.8331  -16.0969 N   0  0  0  0  0  0  0  0  0  0  0  0
   18.6924   -6.4136  -14.9906 C   0  0  0  0  0  0  0  0  0  0  0  0
   17.8867   -6.0254  -14.0956 O   0  0  0  0  0  0  0  0  0  0  0  0
   19.6910   -4.7003  -17.9008 C   0  0  0  0  0  0  0  0  0  0  0  0
   20.5361   -3.6233  -18.0949 C   0  0  0  0  0  0  0  0  0  0  0  0
   20.0586   -6.4125  -14.6673 N   0  0  0  0  0  0  0  0  0  0  0  0
   20.5139   -5.9141  -13.3896 C   0  0  0  0  0  0  0  0  0  0  0  0
   21.9788   -5.9322  -13.2733 C   0  0  0  0  0  0  0  0  0  0  0  0
   22.6606   -6.4815  -14.1727 O   0  0  0  0  0  0  0  0  0  0  0  0
   22.6149   -5.3550  -12.1915 O   0  0  0  0  0  0  0  0  0  0  0  0
  1  2  1  0
  2  4  1  0
  2  3  2  0
  4  5  1  0
  5  7  1  0
  5  6  1  6
  7  8  2  0
  9 10  1  0
 10 20  2  0
 10 11  1  0
 11 12  2  0
 12 13  1  0
 13 14  1  0
 15 14  1  1
 15 17  1  0
 16 15  1  0
 16  7  1  0
 17 18  2  0
 17 21  1  0
 19 13  2  0
 20 19  1  0
 21 22  1  0
 22 23  1  0
 23 24  2  0
 23 25  1  0
M  END
$$$$
