NYG.pdb
     RDKit          3D

 25 25  0  0  1  0  0  0  0  0999 V2000
   29.1573  -21.2633  -19.8127 N   0  0  0  0  0  0  0  0  0  0  0  0
   29.9953  -21.9584  -18.9158 C   0  0  0  0  0  0  0  0  0  0  0  0
   31.1871  -22.1849  -19.2017 O   0  0  0  0  0  0  0  0  0  0  0  0
   29.4553  -22.4227  -17.6247 C   0  0  0  0  0  0  0  0  0  0  0  0
   28.0109  -21.9692  -17.5130 C   0  0  2  0  0  0  0  0  0  0  0  0
   27.9952  -20.5538  -17.8438 N   0  0  0  0  0  0  0  0  0  0  0  0
   27.4666  -22.1970  -16.1649 C   0  0  0  0  0  0  0  0  0  0  0  0
   27.4722  -23.3634  -15.6903 O   0  0  0  0  0  0  0  0  0  0  0  0
   24.0731  -20.7961   -8.0666 O   0  0  0  0  0  0  0  0  0  0  0  0
   24.6705  -20.6705   -9.3158 C   0  0  0  0  0  0  0  0  0  0  0  0
   23.9927  -20.1897  -10.4168 C   0  0  0  0  0  0  0  0  0  0  0  0
   24.5694  -20.0605  -11.6538 C   0  0  0  0  0  0  0  0  0  0  0  0
   25.8906  -20.4181  -11.8484 C   0  0  0  0  0  0  0  0  0  0  0  0
   26.5096  -20.2851  -13.1830 C   0  0  0  0  0  0  0  0  0  0  0  0
   26.2720  -21.4742  -14.0810 C   0  0  2  0  0  0  0  0  0  0  0  0
   26.9288  -21.1621  -15.3591 N   0  0  0  0  0  0  0  0  0  0  0  0
   24.8281  -21.6723  -14.3278 C   0  0  0  0  0  0  0  0  0  0  0  0
   24.1019  -22.1944  -13.4330 O   0  0  0  0  0  0  0  0  0  0  0  0
   26.5902  -20.9063  -10.7456 C   0  0  0  0  0  0  0  0  0  0  0  0
   25.9885  -21.0282   -9.5066 C   0  0  0  0  0  0  0  0  0  0  0  0
   24.2007  -21.3049  -15.5288 N   0  0  0  0  0  0  0  0  0  0  0  0
   22.8085  -21.6165  -15.7592 C   0  0  0  0  0  0  0  0  0  0  0  0
   21.9106  -20.5722  -15.2466 C   0  0  0  0  0  0  0  0  0  0  0  0
   20.8514  -20.3120  -15.8680 O   0  0  0  0  0  0  0  0  0  0  0  0
   22.2141  -19.8743  -14.0938 O   0  0  0  0  0  0  0  0  0  0  0  0
  1  2  1  0
  2  4  1  0
  2  3  2  0
  4  5  1  0
  5  7  1  0
  5  6  1  1
  7  8  2  0
  9 10  1  0
 10 20  2  0
 10 11  1  0
 11 12  2  0
 12 13  1  0
 13 14  1  0
 15 14  1  1
 15 17  1  0
 16 15  1  0
 16  7  1  0
 17 18  2  0
 17 21  1  0
 19 13  2  0
 20 19  1  0
 21 22  1  0
 22 23  1  0
 23 24  2  0
 23 25  1  0
M  END
$$$$
