NYG.pdb
     RDKit          3D

 25 25  0  0  1  0  0  0  0  0999 V2000
   23.7171  -10.5542  -22.0739 N   0  0  0  0  0  0  0  0  0  0  0  0
   24.1468   -9.7453  -21.0013 C   0  0  0  0  0  0  0  0  0  0  0  0
   25.3502   -9.6980  -20.6802 O   0  0  0  0  0  0  0  0  0  0  0  0
   23.1610   -8.9459  -20.2506 C   0  0  0  0  0  0  0  0  0  0  0  0
   23.5746   -8.9147  -18.7903 C   0  0  2  0  0  0  0  0  0  0  0  0
   23.1539  -10.1813  -18.2143 N   0  0  0  0  0  0  0  0  0  0  0  0
   22.9646   -7.7851  -18.0710 C   0  0  0  0  0  0  0  0  0  0  0  0
   21.7184   -7.7739  -17.8905 O   0  0  0  0  0  0  0  0  0  0  0  0
   20.3967   -9.6027  -12.5510 O   0  0  0  0  0  0  0  0  0  0  0  0
   21.1450   -8.6584  -13.2448 C   0  0  0  0  0  0  0  0  0  0  0  0
   20.6360   -7.4279  -13.6048 C   0  0  0  0  0  0  0  0  0  0  0  0
   21.3626   -6.4877  -14.2885 C   0  0  0  0  0  0  0  0  0  0  0  0
   22.6709   -6.7465  -14.6530 C   0  0  0  0  0  0  0  0  0  0  0  0
   23.4513   -5.7358  -15.3957 C   0  0  0  0  0  0  0  0  0  0  0  0
   23.0432   -5.5998  -16.8420 C   0  0  2  0  0  0  0  0  0  0  0  0
   23.7122   -6.6931  -17.5626 N   0  0  0  0  0  0  0  0  0  0  0  0
   23.5032   -4.3124  -17.4040 C   0  0  0  0  0  0  0  0  0  0  0  0
   24.7361   -4.0285  -17.4013 O   0  0  0  0  0  0  0  0  0  0  0  0
   23.2008   -7.9860  -14.2969 C   0  0  0  0  0  0  0  0  0  0  0  0
   22.4497   -8.9197  -13.6069 C   0  0  0  0  0  0  0  0  0  0  0  0
   22.6280   -3.3627  -17.9547 N   0  0  0  0  0  0  0  0  0  0  0  0
   23.1332   -2.1256  -18.5048 C   0  0  0  0  0  0  0  0  0  0  0  0
   23.0081   -1.0040  -17.5635 C   0  0  0  0  0  0  0  0  0  0  0  0
   22.8957   -1.2406  -16.3359 O   0  0  0  0  0  0  0  0  0  0  0  0
   23.0126    0.3037  -18.0085 O   0  0  0  0  0  0  0  0  0  0  0  0
  1  2  1  0
  2  4  1  0
  2  3  2  0
  4  5  1  0
  5  7  1  0
  5  6  1  1
  7  8  2  0
  9 10  1  0
 10 20  2  0
 10 11  1  0
 11 12  2  0
 12 13  1  0
 13 14  1  0
 15 14  1  1
 15 17  1  0
 16 15  1  0
 16  7  1  0
 17 18  2  0
 17 21  1  0
 19 13  2  0
 20 19  1  0
 21 22  1  0
 22 23  1  0
 23 24  2  0
 23 25  1  0
M  END
$$$$
