NYG.pdb
     RDKit          3D

 25 25  0  0  1  0  0  0  0  0999 V2000
   20.8624  -32.0014  -15.2385 N   0  0  0  0  0  0  0  0  0  0  0  0
   21.6631  -31.9642  -14.0778 C   0  0  0  0  0  0  0  0  0  0  0  0
   21.9353  -33.0100  -13.4569 O   0  0  0  0  0  0  0  0  0  0  0  0
   22.1845  -30.6730  -13.5930 C   0  0  0  0  0  0  0  0  0  0  0  0
   21.7561  -29.5842  -14.5602 C   0  0  2  0  0  0  0  0  0  0  0  0
   22.7924  -29.5025  -15.5763 N   0  0  0  0  0  0  0  0  0  0  0  0
   21.5820  -28.2880  -13.8856 C   0  0  0  0  0  0  0  0  0  0  0  0
   22.6014  -27.6262  -13.5563 O   0  0  0  0  0  0  0  0  0  0  0  0
   22.1505  -23.7320  -18.4839 O   0  0  0  0  0  0  0  0  0  0  0  0
   21.4703  -24.1799  -17.3570 C   0  0  0  0  0  0  0  0  0  0  0  0
   20.9807  -25.4649  -17.2485 C   0  0  0  0  0  0  0  0  0  0  0  0
   20.3087  -25.9197  -16.1435 C   0  0  0  0  0  0  0  0  0  0  0  0
   20.0908  -25.0817  -15.0657 C   0  0  0  0  0  0  0  0  0  0  0  0
   19.3608  -25.5701  -13.8780 C   0  0  0  0  0  0  0  0  0  0  0  0
   20.2056  -26.4102  -12.9521 C   0  0  2  0  0  0  0  0  0  0  0  0
   20.3126  -27.7348  -13.5815 N   0  0  0  0  0  0  0  0  0  0  0  0
   19.5547  -26.5646  -11.6339 C   0  0  0  0  0  0  0  0  0  0  0  0
   18.7080  -27.4872  -11.4537 O   0  0  0  0  0  0  0  0  0  0  0  0
   20.5792  -23.7792  -15.1592 C   0  0  0  0  0  0  0  0  0  0  0  0
   21.2545  -23.3416  -16.2837 C   0  0  0  0  0  0  0  0  0  0  0  0
   19.8294  -25.7247  -10.5430 N   0  0  0  0  0  0  0  0  0  0  0  0
   19.1667  -25.9230   -9.2742 C   0  0  0  0  0  0  0  0  0  0  0  0
   17.7904  -25.4079   -9.2768 C   0  0  0  0  0  0  0  0  0  0  0  0
   17.3355  -24.8734  -10.3175 O   0  0  0  0  0  0  0  0  0  0  0  0
   16.9917  -25.5030   -8.1538 O   0  0  0  0  0  0  0  0  0  0  0  0
  1  2  1  0
  2  4  1  0
  2  3  2  0
  4  5  1  0
  5  7  1  0
  5  6  1  6
  7  8  2  0
  9 10  1  0
 10 20  2  0
 10 11  1  0
 11 12  2  0
 12 13  1  0
 13 14  1  0
 15 14  1  6
 15 17  1  0
 16 15  1  0
 16  7  1  0
 17 18  2  0
 17 21  1  0
 19 13  2  0
 20 19  1  0
 21 22  1  0
 22 23  1  0
 23 24  2  0
 23 25  1  0
M  END
$$$$
