NYG.pdb
     RDKit          3D

 25 25  0  0  1  0  0  0  0  0999 V2000
   20.8647  -22.2814  -14.6022 N   0  0  0  0  0  0  0  0  0  0  0  0
   20.8685  -21.4867  -13.4368 C   0  0  0  0  0  0  0  0  0  0  0  0
   19.8791  -21.4607  -12.6793 O   0  0  0  0  0  0  0  0  0  0  0  0
   22.0568  -20.6770  -13.1105 C   0  0  0  0  0  0  0  0  0  0  0  0
   23.0600  -20.8122  -14.2418 C   0  0  2  0  0  0  0  0  0  0  0  0
   23.3981  -22.2233  -14.3283 N   0  0  0  0  0  0  0  0  0  0  0  0
   24.2642  -19.9995  -14.0076 C   0  0  0  0  0  0  0  0  0  0  0  0
   24.1362  -18.7741  -13.7475 O   0  0  0  0  0  0  0  0  0  0  0  0
   24.7877  -20.5995   -7.7555 O   0  0  0  0  0  0  0  0  0  0  0  0
   25.4598  -20.5250   -8.9704 C   0  0  0  0  0  0  0  0  0  0  0  0
   25.5656  -21.6015   -9.8263 C   0  0  0  0  0  0  0  0  0  0  0  0
   26.2250  -21.5420  -11.0268 C   0  0  0  0  0  0  0  0  0  0  0  0
   26.8258  -20.3656  -11.4351 C   0  0  0  0  0  0  0  0  0  0  0  0
   27.5420  -20.3037  -12.7256 C   0  0  0  0  0  0  0  0  0  0  0  0
   26.7429  -19.6571  -13.8303 C   0  0  2  0  0  0  0  0  0  0  0  0
   25.5793  -20.5266  -14.0591 N   0  0  0  0  0  0  0  0  0  0  0  0
   27.5294  -19.5817  -15.0796 C   0  0  0  0  0  0  0  0  0  0  0  0
   27.5627  -20.5739  -15.8638 O   0  0  0  0  0  0  0  0  0  0  0  0
   26.7283  -19.2678  -10.5813 C   0  0  0  0  0  0  0  0  0  0  0  0
   26.0581  -19.3502   -9.3747 C   0  0  0  0  0  0  0  0  0  0  0  0
   28.2599  -18.4431  -15.4550 N   0  0  0  0  0  0  0  0  0  0  0  0
   27.7564  -17.5447  -16.4688 C   0  0  0  0  0  0  0  0  0  0  0  0
   27.8811  -18.1042  -17.8220 C   0  0  0  0  0  0  0  0  0  0  0  0
   27.0659  -18.9791  -18.2036 O   0  0  0  0  0  0  0  0  0  0  0  0
   28.8796  -17.6824  -18.6783 O   0  0  0  0  0  0  0  0  0  0  0  0
  1  2  1  0
  2  4  1  0
  2  3  2  0
  4  5  1  0
  5  7  1  0
  5  6  1  1
  7  8  2  0
  9 10  1  0
 10 20  2  0
 10 11  1  0
 11 12  2  0
 12 13  1  0
 13 14  1  0
 15 14  1  1
 15 17  1  0
 16 15  1  0
 16  7  1  0
 17 18  2  0
 17 21  1  0
 19 13  2  0
 20 19  1  0
 21 22  1  0
 22 23  1  0
 23 24  2  0
 23 25  1  0
M  END
$$$$
