NYG.pdb
     RDKit          3D

 25 25  0  0  1  0  0  0  0  0999 V2000
   20.4101  -22.7368  -12.5021 N   0  0  0  0  0  0  0  0  0  0  0  0
   20.5197  -21.5715  -13.2892 C   0  0  0  0  0  0  0  0  0  0  0  0
   19.6444  -21.2840  -14.1286 O   0  0  0  0  0  0  0  0  0  0  0  0
   21.6836  -20.6826  -13.1174 C   0  0  0  0  0  0  0  0  0  0  0  0
   22.4747  -21.1494  -11.9088 C   0  0  2  0  0  0  0  0  0  0  0  0
   21.7716  -20.6531  -10.7374 N   0  0  0  0  0  0  0  0  0  0  0  0
   23.8604  -20.6548  -11.9353 C   0  0  0  0  0  0  0  0  0  0  0  0
   24.0684  -19.4129  -11.9379 O   0  0  0  0  0  0  0  0  0  0  0  0
   27.1517  -19.1937   -5.8928 O   0  0  0  0  0  0  0  0  0  0  0  0
   27.1542  -19.8023   -7.1430 C   0  0  0  0  0  0  0  0  0  0  0  0
   28.2924  -20.3473   -7.7000 C   0  0  0  0  0  0  0  0  0  0  0  0
   28.3090  -20.9503   -8.9311 C   0  0  0  0  0  0  0  0  0  0  0  0
   27.1510  -21.0365   -9.6813 C   0  0  0  0  0  0  0  0  0  0  0  0
   27.1707  -21.6802  -11.0107 C   0  0  0  0  0  0  0  0  0  0  0  0
   26.3485  -20.9536  -12.0466 C   0  0  2  0  0  0  0  0  0  0  0  0
   24.9905  -21.5106  -11.9584 N   0  0  0  0  0  0  0  0  0  0  0  0
   26.8723  -21.1989  -13.4069 C   0  0  0  0  0  0  0  0  0  0  0  0
   27.6511  -22.1738  -13.6158 O   0  0  0  0  0  0  0  0  0  0  0  0
   25.9914  -20.4902   -9.1328 C   0  0  0  0  0  0  0  0  0  0  0  0
   25.9975  -19.8866   -7.8888 C   0  0  0  0  0  0  0  0  0  0  0  0
   26.5467  -20.3913  -14.5083 N   0  0  0  0  0  0  0  0  0  0  0  0
   27.0711  -20.6885  -15.8216 C   0  0  0  0  0  0  0  0  0  0  0  0
   26.5008  -19.8191  -16.8602 C   0  0  0  0  0  0  0  0  0  0  0  0
   25.6341  -20.2813  -17.6417 O   0  0  0  0  0  0  0  0  0  0  0  0
   26.9033  -18.5039  -16.9887 O   0  0  0  0  0  0  0  0  0  0  0  0
  1  2  1  0
  2  4  1  0
  2  3  2  0
  4  5  1  0
  5  7  1  0
  5  6  1  1
  7  8  2  0
  9 10  1  0
 10 20  2  0
 10 11  1  0
 11 12  2  0
 12 13  1  0
 13 14  1  0
 15 14  1  1
 15 17  1  0
 16 15  1  0
 16  7  1  0
 17 18  2  0
 17 21  1  0
 19 13  2  0
 20 19  1  0
 21 22  1  0
 22 23  1  0
 23 24  2  0
 23 25  1  0
M  END
$$$$
