NYG.pdb
     RDKit          3D

 25 25  0  0  1  0  0  0  0  0999 V2000
   19.6269   -8.9001  -20.7284 N   0  0  0  0  0  0  0  0  0  0  0  0
   20.4385   -8.4079  -19.6850 C   0  0  0  0  0  0  0  0  0  0  0  0
   21.6490   -8.6988  -19.6270 O   0  0  0  0  0  0  0  0  0  0  0  0
   19.8482   -7.5390  -18.6503 C   0  0  0  0  0  0  0  0  0  0  0  0
   20.4946   -7.8670  -17.3164 C   0  0  2  0  0  0  0  0  0  0  0  0
   19.8457   -9.0725  -16.8279 N   0  0  0  0  0  0  0  0  0  0  0  0
   20.3487   -6.7666  -16.3504 C   0  0  0  0  0  0  0  0  0  0  0  0
   19.2086   -6.5084  -15.8823 O   0  0  0  0  0  0  0  0  0  0  0  0
   18.6299   -9.4138  -10.9747 O   0  0  0  0  0  0  0  0  0  0  0  0
   19.4204   -8.4684  -11.6185 C   0  0  0  0  0  0  0  0  0  0  0  0
   20.5924   -8.7992  -12.2664 C   0  0  0  0  0  0  0  0  0  0  0  0
   21.3810   -7.8776  -12.9052 C   0  0  0  0  0  0  0  0  0  0  0  0
   21.0195   -6.5433  -12.9235 C   0  0  0  0  0  0  0  0  0  0  0  0
   21.8731   -5.5494  -13.6060 C   0  0  0  0  0  0  0  0  0  0  0  0
   21.2479   -4.9683  -14.8504 C   0  0  2  0  0  0  0  0  0  0  0  0
   21.4356   -5.9695  -15.9108 N   0  0  0  0  0  0  0  0  0  0  0  0
   21.9295   -3.7200  -15.2530 C   0  0  0  0  0  0  0  0  0  0  0  0
   23.1929   -3.6564  -15.2296 O   0  0  0  0  0  0  0  0  0  0  0  0
   19.8375   -6.1919  -12.2729 C   0  0  0  0  0  0  0  0  0  0  0  0
   19.0571   -7.1383  -11.6349 C   0  0  0  0  0  0  0  0  0  0  0  0
   21.2376   -2.5720  -15.6706 N   0  0  0  0  0  0  0  0  0  0  0  0
   21.9548   -1.3814  -16.0661 C   0  0  0  0  0  0  0  0  0  0  0  0
   21.0576   -0.3281  -16.5614 C   0  0  0  0  0  0  0  0  0  0  0  0
   20.7002   -0.3399  -17.7647 O   0  0  0  0  0  0  0  0  0  0  0  0
   20.6028    0.6723  -15.7245 O   0  0  0  0  0  0  0  0  0  0  0  0
  1  2  1  0
  2  4  1  0
  2  3  2  0
  4  5  1  0
  5  7  1  0
  5  6  1  1
  7  8  2  0
  9 10  1  0
 10 20  2  0
 10 11  1  0
 11 12  2  0
 12 13  1  0
 13 14  1  0
 15 14  1  1
 15 17  1  0
 16 15  1  0
 16  7  1  0
 17 18  2  0
 17 21  1  0
 19 13  2  0
 20 19  1  0
 21 22  1  0
 22 23  1  0
 23 24  2  0
 23 25  1  0
M  END
$$$$
