NYG.pdb
     RDKit          3D

 25 25  0  0  1  0  0  0  0  0999 V2000
   19.5392  -12.1900  -18.5386 N   0  0  0  0  0  0  0  0  0  0  0  0
   19.3187  -12.2134  -17.1456 C   0  0  0  0  0  0  0  0  0  0  0  0
   18.3050  -12.7602  -16.6693 O   0  0  0  0  0  0  0  0  0  0  0  0
   20.2989  -11.5837  -16.2417 C   0  0  0  0  0  0  0  0  0  0  0  0
   21.4044  -10.9679  -17.0802 C   0  0  2  0  0  0  0  0  0  0  0  0
   22.2608  -12.0632  -17.5042 N   0  0  0  0  0  0  0  0  0  0  0  0
   22.1728   -9.9656  -16.3249 C   0  0  0  0  0  0  0  0  0  0  0  0
   22.1838  -10.0215  -15.0670 O   0  0  0  0  0  0  0  0  0  0  0  0
   27.8631  -12.9214  -16.1689 O   0  0  0  0  0  0  0  0  0  0  0  0
   27.1871  -11.7149  -16.3131 C   0  0  0  0  0  0  0  0  0  0  0  0
   27.0861  -10.7948  -15.2904 C   0  0  0  0  0  0  0  0  0  0  0  0
   26.4231   -9.6018  -15.4190 C   0  0  0  0  0  0  0  0  0  0  0  0
   25.8135   -9.2677  -16.6140 C   0  0  0  0  0  0  0  0  0  0  0  0
   25.0934   -7.9851  -16.7500 C   0  0  0  0  0  0  0  0  0  0  0  0
   23.7157   -7.9969  -16.1346 C   0  0  2  0  0  0  0  0  0  0  0  0
   22.9121   -8.9258  -16.9431 N   0  0  0  0  0  0  0  0  0  0  0  0
   23.0949   -6.6569  -16.1980 C   0  0  0  0  0  0  0  0  0  0  0  0
   22.9252   -6.0936  -17.3180 O   0  0  0  0  0  0  0  0  0  0  0  0
   25.9060  -10.1870  -17.6581 C   0  0  0  0  0  0  0  0  0  0  0  0
   26.5800  -11.3847  -17.5064 C   0  0  0  0  0  0  0  0  0  0  0  0
   22.6723   -5.9559  -15.0573 N   0  0  0  0  0  0  0  0  0  0  0  0
   22.0796   -4.6433  -15.1757 C   0  0  0  0  0  0  0  0  0  0  0  0
   20.6427   -4.6499  -14.8676 C   0  0  0  0  0  0  0  0  0  0  0  0
   20.0594   -5.7448  -14.6767 O   0  0  0  0  0  0  0  0  0  0  0  0
   19.9261   -3.4718  -14.7851 O   0  0  0  0  0  0  0  0  0  0  0  0
  1  2  1  0
  2  4  1  0
  2  3  2  0
  4  5  1  0
  5  7  1  0
  5  6  1  1
  7  8  2  0
  9 10  1  0
 10 20  2  0
 10 11  1  0
 11 12  2  0
 12 13  1  0
 13 14  1  0
 15 14  1  6
 15 17  1  0
 16 15  1  0
 16  7  1  0
 17 18  2  0
 17 21  1  0
 19 13  2  0
 20 19  1  0
 21 22  1  0
 22 23  1  0
 23 24  2  0
 23 25  1  0
M  END
$$$$
