NYG.pdb
     RDKit          3D

 25 25  0  0  1  0  0  0  0  0999 V2000
   19.5772  -19.5922  -14.2095 N   0  0  0  0  0  0  0  0  0  0  0  0
   20.3928  -20.1953  -13.2295 C   0  0  0  0  0  0  0  0  0  0  0  0
   19.9397  -21.0820  -12.4799 O   0  0  0  0  0  0  0  0  0  0  0  0
   21.7983  -19.7720  -13.0896 C   0  0  0  0  0  0  0  0  0  0  0  0
   22.6358  -20.5326  -14.1018 C   0  0  2  0  0  0  0  0  0  0  0  0
   22.5042  -21.9421  -13.7717 N   0  0  0  0  0  0  0  0  0  0  0  0
   24.0473  -20.1177  -14.0692 C   0  0  0  0  0  0  0  0  0  0  0  0
   24.3273  -18.8911  -14.1216 O   0  0  0  0  0  0  0  0  0  0  0  0
   24.7825  -19.8523   -7.7638 O   0  0  0  0  0  0  0  0  0  0  0  0
   25.3623  -20.1856   -8.9828 C   0  0  0  0  0  0  0  0  0  0  0  0
   25.1125  -21.3833   -9.6199 C   0  0  0  0  0  0  0  0  0  0  0  0
   25.6769  -21.7244  -10.8217 C   0  0  0  0  0  0  0  0  0  0  0  0
   26.5430  -20.8545  -11.4577 C   0  0  0  0  0  0  0  0  0  0  0  0
   27.1563  -21.2253  -12.7494 C   0  0  0  0  0  0  0  0  0  0  0  0
   26.5139  -20.5544  -13.9385 C   0  0  2  0  0  0  0  0  0  0  0  0
   25.1248  -21.0347  -13.9808 N   0  0  0  0  0  0  0  0  0  0  0  0
   27.1872  -20.9445  -15.1953 C   0  0  0  0  0  0  0  0  0  0  0  0
   27.1172  -22.1402  -15.6026 O   0  0  0  0  0  0  0  0  0  0  0  0
   26.8065  -19.6393  -10.8270 C   0  0  0  0  0  0  0  0  0  0  0  0
   26.2258  -19.3156   -9.6145 C   0  0  0  0  0  0  0  0  0  0  0  0
   27.9184  -20.0409  -15.9828 N   0  0  0  0  0  0  0  0  0  0  0  0
   28.6357  -20.4946  -17.1524 C   0  0  0  0  0  0  0  0  0  0  0  0
   28.1253  -19.8885  -18.3900 C   0  0  0  0  0  0  0  0  0  0  0  0
   28.8732  -19.8207  -19.3959 O   0  0  0  0  0  0  0  0  0  0  0  0
   26.8377  -19.3937  -18.4628 O   0  0  0  0  0  0  0  0  0  0  0  0
  1  2  1  0
  2  4  1  0
  2  3  2  0
  4  5  1  0
  5  7  1  0
  5  6  1  1
  7  8  2  0
  9 10  1  0
 10 20  2  0
 10 11  1  0
 11 12  2  0
 12 13  1  0
 13 14  1  0
 15 14  1  1
 15 17  1  0
 16 15  1  0
 16  7  1  0
 17 18  2  0
 17 21  1  0
 19 13  2  0
 20 19  1  0
 21 22  1  0
 22 23  1  0
 23 24  2  0
 23 25  1  0
M  END
$$$$
