NYG.pdb
     RDKit          3D

 25 25  0  0  1  0  0  0  0  0999 V2000
   23.9059  -22.2659  -19.6279 N   0  0  0  0  0  0  0  0  0  0  0  0
   24.5275  -21.4437  -18.6651 C   0  0  0  0  0  0  0  0  0  0  0  0
   25.1849  -20.4425  -19.0099 O   0  0  0  0  0  0  0  0  0  0  0  0
   24.3983  -21.7720  -17.2334 C   0  0  0  0  0  0  0  0  0  0  0  0
   25.7799  -21.7477  -16.6047 C   0  0  2  0  0  0  0  0  0  0  0  0
   26.5108  -22.8702  -17.1692 N   0  0  0  0  0  0  0  0  0  0  0  0
   25.7174  -21.8491  -15.1380 C   0  0  0  0  0  0  0  0  0  0  0  0
   25.2117  -22.8770  -14.6152 O   0  0  0  0  0  0  0  0  0  0  0  0
   27.4306  -20.4479   -6.5365 O   0  0  0  0  0  0  0  0  0  0  0  0
   27.3616  -20.3612   -7.9225 C   0  0  0  0  0  0  0  0  0  0  0  0
   26.4386  -19.5672   -8.5707 C   0  0  0  0  0  0  0  0  0  0  0  0
   26.3597  -19.4722   -9.9360 C   0  0  0  0  0  0  0  0  0  0  0  0
   27.2284  -20.1904  -10.7366 C   0  0  0  0  0  0  0  0  0  0  0  0
   27.1387  -20.0931  -12.2079 C   0  0  0  0  0  0  0  0  0  0  0  0
   26.0852  -20.9900  -12.8101 C   0  0  2  0  0  0  0  0  0  0  0  0
   26.2018  -20.8398  -14.2682 N   0  0  0  0  0  0  0  0  0  0  0  0
   24.7300  -20.5670  -12.3983 C   0  0  0  0  0  0  0  0  0  0  0  0
   24.2205  -19.5189  -12.8906 O   0  0  0  0  0  0  0  0  0  0  0  0
   28.1677  -20.9983  -10.0972 C   0  0  0  0  0  0  0  0  0  0  0  0
   28.2295  -21.0789   -8.7182 C   0  0  0  0  0  0  0  0  0  0  0  0
   23.9564  -21.2800  -11.4686 N   0  0  0  0  0  0  0  0  0  0  0  0
   22.7104  -20.7386  -10.9761 C   0  0  0  0  0  0  0  0  0  0  0  0
   21.5593  -21.1612  -11.7861 C   0  0  0  0  0  0  0  0  0  0  0  0
   20.4021  -20.8288  -11.4312 O   0  0  0  0  0  0  0  0  0  0  0  0
   21.7315  -21.9169  -12.9295 O   0  0  0  0  0  0  0  0  0  0  0  0
  1  2  1  0
  2  4  1  0
  2  3  2  0
  4  5  1  0
  5  7  1  0
  5  6  1  6
  7  8  2  0
  9 10  1  0
 10 20  2  0
 10 11  1  0
 11 12  2  0
 12 13  1  0
 13 14  1  0
 15 14  1  1
 15 17  1  0
 16 15  1  0
 16  7  1  0
 17 18  2  0
 17 21  1  0
 19 13  2  0
 20 19  1  0
 21 22  1  0
 22 23  1  0
 23 24  2  0
 23 25  1  0
M  END
$$$$
