NYG.pdb
     RDKit          3D

 25 25  0  0  1  0  0  0  0  0999 V2000
   27.6072  -23.1173  -16.9044 N   0  0  0  0  0  0  0  0  0  0  0  0
   26.4685  -23.1336  -17.7366 C   0  0  0  0  0  0  0  0  0  0  0  0
   26.5815  -23.0396  -18.9742 O   0  0  0  0  0  0  0  0  0  0  0  0
   25.1283  -23.2635  -17.1357 C   0  0  0  0  0  0  0  0  0  0  0  0
   25.2808  -23.3560  -15.6281 C   0  0  2  0  0  0  0  0  0  0  0  0
   25.5254  -24.7559  -15.3224 N   0  0  0  0  0  0  0  0  0  0  0  0
   24.0839  -22.8686  -14.9243 C   0  0  0  0  0  0  0  0  0  0  0  0
   23.3332  -23.6970  -14.3447 O   0  0  0  0  0  0  0  0  0  0  0  0
   26.4196  -21.0662   -8.8877 O   0  0  0  0  0  0  0  0  0  0  0  0
   25.5883  -20.7704   -9.9622 C   0  0  0  0  0  0  0  0  0  0  0  0
   26.0508  -20.6990  -11.2598 C   0  0  0  0  0  0  0  0  0  0  0  0
   25.2424  -20.4086  -12.3283 C   0  0  0  0  0  0  0  0  0  0  0  0
   23.8941  -20.1696  -12.1383 C   0  0  0  0  0  0  0  0  0  0  0  0
   23.0246  -19.8500  -13.2890 C   0  0  0  0  0  0  0  0  0  0  0  0
   22.5700  -21.0653  -14.0592 C   0  0  2  0  0  0  0  0  0  0  0  0
   23.7235  -21.4989  -14.8614 N   0  0  0  0  0  0  0  0  0  0  0  0
   21.4584  -20.7285  -14.9735 C   0  0  0  0  0  0  0  0  0  0  0  0
   21.5772  -19.7609  -15.7799 O   0  0  0  0  0  0  0  0  0  0  0  0
   23.4102  -20.2375  -10.8325 C   0  0  0  0  0  0  0  0  0  0  0  0
   24.2438  -20.5323   -9.7693 C   0  0  0  0  0  0  0  0  0  0  0  0
   20.2478  -21.4390  -14.9988 N   0  0  0  0  0  0  0  0  0  0  0  0
   19.1346  -21.0294  -14.1733 C   0  0  0  0  0  0  0  0  0  0  0  0
   18.4202  -19.8736  -14.7331 C   0  0  0  0  0  0  0  0  0  0  0  0
   17.2187  -19.9992  -15.0742 O   0  0  0  0  0  0  0  0  0  0  0  0
   19.0497  -18.6540  -14.8891 O   0  0  0  0  0  0  0  0  0  0  0  0
  1  2  1  0
  2  4  1  0
  2  3  2  0
  4  5  1  0
  5  7  1  0
  5  6  1  6
  7  8  2  0
  9 10  1  0
 10 20  2  0
 10 11  1  0
 11 12  2  0
 12 13  1  0
 13 14  1  0
 15 14  1  6
 15 17  1  0
 16 15  1  0
 16  7  1  0
 17 18  2  0
 17 21  1  0
 19 13  2  0
 20 19  1  0
 21 22  1  0
 22 23  1  0
 23 24  2  0
 23 25  1  0
M  END
$$$$
