NYG.pdb
     RDKit          3D

 25 25  0  0  1  0  0  0  0  0999 V2000
   26.0668  -17.5581  -18.3252 N   0  0  0  0  0  0  0  0  0  0  0  0
   25.0215  -18.4718  -18.5747 C   0  0  0  0  0  0  0  0  0  0  0  0
   24.2799  -18.3370  -19.5673 O   0  0  0  0  0  0  0  0  0  0  0  0
   24.8033  -19.5998  -17.6506 C   0  0  0  0  0  0  0  0  0  0  0  0
   25.7689  -19.4659  -16.4869 C   0  0  2  0  0  0  0  0  0  0  0  0
   27.0555  -19.9499  -16.9595 N   0  0  0  0  0  0  0  0  0  0  0  0
   25.3220  -20.2309  -15.3119 C   0  0  0  0  0  0  0  0  0  0  0  0
   25.1887  -21.4794  -15.4073 O   0  0  0  0  0  0  0  0  0  0  0  0
   30.8662  -21.3610  -11.4323 O   0  0  0  0  0  0  0  0  0  0  0  0
   29.5266  -20.9953  -11.5017 C   0  0  0  0  0  0  0  0  0  0  0  0
   28.5458  -21.6300  -10.7683 C   0  0  0  0  0  0  0  0  0  0  0  0
   27.2217  -21.2797  -10.8269 C   0  0  0  0  0  0  0  0  0  0  0  0
   26.8091  -20.2467  -11.6479 C   0  0  0  0  0  0  0  0  0  0  0  0
   25.3813  -19.8739  -11.7159 C   0  0  0  0  0  0  0  0  0  0  0  0
   24.6591  -20.4610  -12.9036 C   0  0  2  0  0  0  0  0  0  0  0  0
   25.0291  -19.6323  -14.0606 N   0  0  0  0  0  0  0  0  0  0  0  0
   23.1939  -20.3906  -12.7213 C   0  0  0  0  0  0  0  0  0  0  0  0
   22.6124  -19.2670  -12.7209 O   0  0  0  0  0  0  0  0  0  0  0  0
   27.7880  -19.5946  -12.3964 C   0  0  0  0  0  0  0  0  0  0  0  0
   29.1182  -19.9645  -12.3217 C   0  0  0  0  0  0  0  0  0  0  0  0
   22.3904  -21.5281  -12.5441 N   0  0  0  0  0  0  0  0  0  0  0  0
   20.9699  -21.3991  -12.3118 C   0  0  0  0  0  0  0  0  0  0  0  0
   20.2020  -21.3486  -13.5638 C   0  0  0  0  0  0  0  0  0  0  0  0
   19.6663  -22.3968  -13.9997 O   0  0  0  0  0  0  0  0  0  0  0  0
   20.0611  -20.1676  -14.2663 O   0  0  0  0  0  0  0  0  0  0  0  0
  1  2  1  0
  2  4  1  0
  2  3  2  0
  4  5  1  0
  5  7  1  0
  5  6  1  6
  7  8  2  0
  9 10  1  0
 10 20  2  0
 10 11  1  0
 11 12  2  0
 12 13  1  0
 13 14  1  0
 15 14  1  1
 15 17  1  0
 16 15  1  0
 16  7  1  0
 17 18  2  0
 17 21  1  0
 19 13  2  0
 20 19  1  0
 21 22  1  0
 22 23  1  0
 23 24  2  0
 23 25  1  0
M  END
$$$$
