NYG.pdb
     RDKit          3D

 25 25  0  0  1  0  0  0  0  0999 V2000
   26.4588  -21.9513  -21.2695 N   0  0  0  0  0  0  0  0  0  0  0  0
   26.3532  -21.2665  -20.0409 C   0  0  0  0  0  0  0  0  0  0  0  0
   26.8408  -20.1281  -19.9011 O   0  0  0  0  0  0  0  0  0  0  0  0
   25.6577  -21.9047  -18.9081 C   0  0  0  0  0  0  0  0  0  0  0  0
   26.6800  -22.2308  -17.8343 C   0  0  2  0  0  0  0  0  0  0  0  0
   27.2947  -23.4911  -18.2176 N   0  0  0  0  0  0  0  0  0  0  0  0
   26.0632  -22.3338  -16.5022 C   0  0  0  0  0  0  0  0  0  0  0  0
   25.5159  -23.4156  -16.1617 O   0  0  0  0  0  0  0  0  0  0  0  0
   24.3672  -20.8139   -7.9237 O   0  0  0  0  0  0  0  0  0  0  0  0
   24.8169  -20.7463   -9.2376 C   0  0  0  0  0  0  0  0  0  0  0  0
   24.2040  -19.9607  -10.1915 C   0  0  0  0  0  0  0  0  0  0  0  0
   24.6369  -19.8846  -11.4901 C   0  0  0  0  0  0  0  0  0  0  0  0
   25.7362  -20.6143  -11.9029 C   0  0  0  0  0  0  0  0  0  0  0  0
   26.1983  -20.5372  -13.3039 C   0  0  0  0  0  0  0  0  0  0  0  0
   25.4393  -21.4435  -14.2416 C   0  0  2  0  0  0  0  0  0  0  0  0
   26.0504  -21.2680  -15.5675 N   0  0  0  0  0  0  0  0  0  0  0  0
   24.0162  -21.0518  -14.3217 C   0  0  0  0  0  0  0  0  0  0  0  0
   23.6904  -19.9774  -14.9049 O   0  0  0  0  0  0  0  0  0  0  0  0
   26.3674  -21.4138  -10.9509 C   0  0  0  0  0  0  0  0  0  0  0  0
   25.9137  -21.4755   -9.6462 C   0  0  0  0  0  0  0  0  0  0  0  0
   22.9792  -21.8236  -13.7738 N   0  0  0  0  0  0  0  0  0  0  0  0
   21.6498  -21.2761  -13.6285 C   0  0  0  0  0  0  0  0  0  0  0  0
   20.8669  -21.3751  -14.8682 C   0  0  0  0  0  0  0  0  0  0  0  0
   20.3603  -20.3375  -15.3606 O   0  0  0  0  0  0  0  0  0  0  0  0
   20.6807  -22.5902  -15.4983 O   0  0  0  0  0  0  0  0  0  0  0  0
  1  2  1  0
  2  4  1  0
  2  3  2  0
  4  5  1  0
  5  7  1  0
  5  6  1  6
  7  8  2  0
  9 10  1  0
 10 20  2  0
 10 11  1  0
 11 12  2  0
 12 13  1  0
 13 14  1  0
 15 14  1  1
 15 17  1  0
 16 15  1  0
 16  7  1  0
 17 18  2  0
 17 21  1  0
 19 13  2  0
 20 19  1  0
 21 22  1  0
 22 23  1  0
 23 24  2  0
 23 25  1  0
M  END
$$$$
