NYG.pdb
     RDKit          3D

 25 25  0  0  1  0  0  0  0  0999 V2000
   28.4426  -20.2896  -16.2117 N   0  0  0  0  0  0  0  0  0  0  0  0
   28.2042  -19.7103  -14.9478 C   0  0  0  0  0  0  0  0  0  0  0  0
   28.7608  -18.6446  -14.6193 O   0  0  0  0  0  0  0  0  0  0  0  0
   27.2857  -20.3731  -14.0038 C   0  0  0  0  0  0  0  0  0  0  0  0
   28.0200  -20.6033  -12.6952 C   0  0  2  0  0  0  0  0  0  0  0  0
   28.9391  -21.7057  -12.9252 N   0  0  0  0  0  0  0  0  0  0  0  0
   27.0949  -20.9150  -11.5941 C   0  0  0  0  0  0  0  0  0  0  0  0
   26.5101  -22.0302  -11.5813 O   0  0  0  0  0  0  0  0  0  0  0  0
   29.1277  -20.6280   -4.1634 O   0  0  0  0  0  0  0  0  0  0  0  0
   28.3117  -20.2824   -5.2348 C   0  0  0  0  0  0  0  0  0  0  0  0
   28.3162  -19.0213   -5.7936 C   0  0  0  0  0  0  0  0  0  0  0  0
   27.5174  -18.6672   -6.8499 C   0  0  0  0  0  0  0  0  0  0  0  0
   26.6525  -19.5888   -7.4101 C   0  0  0  0  0  0  0  0  0  0  0  0
   25.7869  -19.2049   -8.5440 C   0  0  0  0  0  0  0  0  0  0  0  0
   25.6945  -20.2603   -9.6185 C   0  0  2  0  0  0  0  0  0  0  0  0
   26.8213  -20.0172  -10.5316 N   0  0  0  0  0  0  0  0  0  0  0  0
   24.4338  -20.1333  -10.3797 C   0  0  0  0  0  0  0  0  0  0  0  0
   24.3752  -19.3563  -11.3764 O   0  0  0  0  0  0  0  0  0  0  0  0
   26.6354  -20.8685   -6.8570 C   0  0  0  0  0  0  0  0  0  0  0  0
   27.4500  -21.2040   -5.7913 C   0  0  0  0  0  0  0  0  0  0  0  0
   23.2682  -20.8438  -10.0514 N   0  0  0  0  0  0  0  0  0  0  0  0
   22.0807  -20.7301  -10.8670 C   0  0  0  0  0  0  0  0  0  0  0  0
   20.9128  -21.3691  -10.2446 C   0  0  0  0  0  0  0  0  0  0  0  0
   21.0424  -21.9385   -9.1334 O   0  0  0  0  0  0  0  0  0  0  0  0
   19.6775  -21.3523  -10.8626 O   0  0  0  0  0  0  0  0  0  0  0  0
  1  2  1  0
  2  4  1  0
  2  3  2  0
  4  5  1  0
  5  7  1  0
  5  6  1  6
  7  8  2  0
  9 10  1  0
 10 20  2  0
 10 11  1  0
 11 12  2  0
 12 13  1  0
 13 14  1  0
 15 14  1  1
 15 17  1  0
 16 15  1  0
 16  7  1  0
 17 18  2  0
 17 21  1  0
 19 13  2  0
 20 19  1  0
 21 22  1  0
 22 23  1  0
 23 24  2  0
 23 25  1  0
M  END
$$$$
