LAM.pdb
     RDKit          3D

 22 21  0  0  1  0  0  0  0  0999 V2000
   22.5721  -22.4911  -16.2288 C   0  0  0  0  0  0  0  0  0  0  0  0
   22.3235  -23.4061  -15.0655 C   0  0  2  0  0  0  0  0  0  0  0  0
   20.8903  -23.4019  -14.6132 C   0  0  0  0  0  0  0  0  0  0  0  0
   23.2845  -23.0772  -13.9586 C   0  0  0  0  0  0  0  0  0  0  0  0
   24.6973  -23.2918  -14.4983 C   0  0  2  0  0  0  0  0  0  0  0  0
   24.8565  -24.6773  -14.9082 N   0  0  0  0  0  0  0  0  0  0  0  0
   25.6713  -22.9193  -13.4414 C   0  0  0  0  0  0  0  0  0  0  0  0
   26.0397  -23.7987  -12.6405 O   0  0  0  0  0  0  0  0  0  0  0  0
   27.6581  -19.8324  -12.6185 C   0  0  0  0  0  0  0  0  0  0  0  0
   27.0810  -21.2134  -12.3754 C   0  0  2  0  0  0  0  0  0  0  0  0
   26.1286  -21.5841  -13.4014 N   0  0  0  0  0  0  0  0  0  0  0  0
   26.3416  -21.1393  -11.0824 C   0  0  0  0  0  0  0  0  0  0  0  0
   25.0938  -21.2719  -11.0598 O   0  0  0  0  0  0  0  0  0  0  0  0
   29.6287  -19.1877   -5.5559 C   0  0  0  0  0  0  0  0  0  0  0  0
   28.1624  -20.0004   -4.9441 S   0  0  0  0  0  0  0  0  0  0  0  0
   26.9111  -20.3276   -6.1458 C   0  0  0  0  0  0  0  0  0  0  0  0
   27.3149  -20.5172   -7.5368 C   0  0  0  0  0  0  0  0  0  0  0  0
   26.3905  -20.8095   -8.6308 C   0  0  2  0  0  0  0  0  0  0  0  0
   27.0763  -20.9184   -9.9001 N   0  0  0  0  0  0  0  0  0  0  0  0
   25.2131  -19.9704   -8.8269 C   0  0  0  0  0  0  0  0  0  0  0  0
   25.2774  -18.8564   -9.4410 O   0  0  0  0  0  0  0  0  0  0  0  0
   23.9711  -20.3513   -8.3519 O   0  0  0  0  0  0  0  0  0  0  0  0
  2  3  1  1
  2  1  1  0
  4  5  1  0
  4  2  1  0
  5  6  1  1
  7 11  1  0
  7  5  1  0
  8  7  2  0
 10  9  1  6
 10 12  1  0
 10 11  1  0
 12 19  1  0
 13 12  2  0
 14 15  1  0
 16 15  1  0
 17 16  1  0
 18 20  1  0
 18 17  1  1
 19 18  1  0
 20 22  1  0
 21 20  2  0
M  END
$$$$
