LAM.pdb
     RDKit          3D

 22 21  0  0  1  0  0  0  0  0999 V2000
   20.4960  -24.7282  -18.0590 C   0  0  0  0  0  0  0  0  0  0  0  0
   20.6479  -23.3471  -18.6264 C   0  0  2  0  0  0  0  0  0  0  0  0
   20.6599  -23.3296  -20.1292 C   0  0  0  0  0  0  0  0  0  0  0  0
   21.8598  -22.6925  -18.0267 C   0  0  0  0  0  0  0  0  0  0  0  0
   21.7367  -22.8021  -16.5081 C   0  0  2  0  0  0  0  0  0  0  0  0
   20.4674  -22.2370  -16.0807 N   0  0  0  0  0  0  0  0  0  0  0  0
   22.8858  -22.0970  -15.8862 C   0  0  0  0  0  0  0  0  0  0  0  0
   24.0369  -22.4780  -16.1696 O   0  0  0  0  0  0  0  0  0  0  0  0
   23.3108  -18.8636  -14.0874 C   0  0  0  0  0  0  0  0  0  0  0  0
   23.7240  -20.2706  -14.4735 C   0  0  2  0  0  0  0  0  0  0  0  0
   22.6105  -21.0292  -15.0043 N   0  0  0  0  0  0  0  0  0  0  0  0
   24.1646  -20.9404  -13.2160 C   0  0  0  0  0  0  0  0  0  0  0  0
   23.3725  -21.6804  -12.5835 O   0  0  0  0  0  0  0  0  0  0  0  0
   30.5990  -21.6142  -11.7480 C   0  0  0  0  0  0  0  0  0  0  0  0
   29.8357  -21.5683  -10.1355 S   0  0  0  0  0  0  0  0  0  0  0  0
   28.0707  -21.6087  -10.1230 C   0  0  0  0  0  0  0  0  0  0  0  0
   27.3571  -21.2088  -11.3332 C   0  0  0  0  0  0  0  0  0  0  0  0
   25.9033  -21.2428  -11.4820 C   0  0  2  0  0  0  0  0  0  0  0  0
   25.4812  -20.7207  -12.7636 N   0  0  0  0  0  0  0  0  0  0  0  0
   25.0567  -20.6477  -10.4535 C   0  0  0  0  0  0  0  0  0  0  0  0
   24.7323  -19.4163  -10.4807 O   0  0  0  0  0  0  0  0  0  0  0  0
   24.5678  -21.3995   -9.4003 O   0  0  0  0  0  0  0  0  0  0  0  0
  2  3  1  6
  2  1  1  0
  4  5  1  0
  4  2  1  0
  5  6  1  1
  7 11  1  0
  7  5  1  0
  8  7  2  0
 10  9  1  1
 10 12  1  0
 10 11  1  0
 12 19  1  0
 13 12  2  0
 14 15  1  0
 16 15  1  0
 17 16  1  0
 18 20  1  0
 18 17  1  1
 19 18  1  0
 20 22  1  0
 21 20  2  0
M  END
$$$$
