LAM.pdb
     RDKit          3D

 22 21  0  0  1  0  0  0  0  0999 V2000
   19.9239  -15.0987  -16.6103 C   0  0  0  0  0  0  0  0  0  0  0  0
   18.4664  -15.3101  -16.8989 C   0  0  2  0  0  0  0  0  0  0  0  0
   18.2203  -16.4053  -17.8984 C   0  0  0  0  0  0  0  0  0  0  0  0
   17.8435  -14.0037  -17.3013 C   0  0  0  0  0  0  0  0  0  0  0  0
   18.0851  -13.0108  -16.1658 C   0  0  2  0  0  0  0  0  0  0  0  0
   17.4111  -13.4729  -14.9636 N   0  0  0  0  0  0  0  0  0  0  0  0
   17.5926  -11.6757  -16.5893 C   0  0  0  0  0  0  0  0  0  0  0  0
   18.0346  -11.1910  -17.6477 O   0  0  0  0  0  0  0  0  0  0  0  0
   14.9328   -9.3185  -15.3565 C   0  0  0  0  0  0  0  0  0  0  0  0
   16.1101   -9.7548  -16.2068 C   0  0  2  0  0  0  0  0  0  0  0  0
   16.6467  -11.0258  -15.7667 N   0  0  0  0  0  0  0  0  0  0  0  0
   17.1735   -8.7273  -16.0130 C   0  0  0  0  0  0  0  0  0  0  0  0
   18.0464   -8.8815  -15.1246 O   0  0  0  0  0  0  0  0  0  0  0  0
   20.7686   -2.7148  -19.8109 C   0  0  0  0  0  0  0  0  0  0  0  0
   19.5131   -3.9762  -19.6781 S   0  0  0  0  0  0  0  0  0  0  0  0
   19.3902   -4.7710  -18.1064 C   0  0  0  0  0  0  0  0  0  0  0  0
   18.4378   -5.8680  -17.9543 C   0  0  0  0  0  0  0  0  0  0  0  0
   18.1973   -6.5830  -16.7021 C   0  0  2  0  0  0  0  0  0  0  0  0
   17.1697   -7.5911  -16.8470 N   0  0  0  0  0  0  0  0  0  0  0  0
   17.9215   -5.8323  -15.4818 C   0  0  0  0  0  0  0  0  0  0  0  0
   16.7390   -5.7011  -15.0272 O   0  0  0  0  0  0  0  0  0  0  0  0
   18.9377   -5.2287  -14.7633 O   0  0  0  0  0  0  0  0  0  0  0  0
  2  3  1  6
  2  1  1  0
  4  5  1  0
  4  2  1  0
  5  6  1  1
  7 11  1  0
  7  5  1  0
  8  7  2  0
 10  9  1  1
 10 12  1  0
 10 11  1  0
 12 19  1  0
 13 12  2  0
 14 15  1  0
 16 15  1  0
 17 16  1  0
 18 20  1  0
 18 17  1  6
 19 18  1  0
 20 22  1  0
 21 20  2  0
M  END
$$$$
