LAM.pdb
     RDKit          3D

 22 21  0  0  1  0  0  0  0  0999 V2000
   25.5984  -19.7450   -8.1922 C   0  0  0  0  0  0  0  0  0  0  0  0
   26.9078  -20.4729   -8.1024 C   0  0  2  0  0  0  0  0  0  0  0  0
   27.9261  -19.7456   -7.2699 C   0  0  0  0  0  0  0  0  0  0  0  0
   27.4015  -20.7828   -9.4869 C   0  0  0  0  0  0  0  0  0  0  0  0
   26.1814  -20.8625  -10.4025 C   0  0  2  0  0  0  0  0  0  0  0  0
   25.7366  -22.2429  -10.5015 N   0  0  0  0  0  0  0  0  0  0  0  0
   26.5473  -20.3096  -11.7309 C   0  0  0  0  0  0  0  0  0  0  0  0
   26.8463  -19.1033  -11.8073 O   0  0  0  0  0  0  0  0  0  0  0  0
   27.9075  -21.3560  -14.8671 C   0  0  0  0  0  0  0  0  0  0  0  0
   26.7822  -20.6309  -14.1549 C   0  0  2  0  0  0  0  0  0  0  0  0
   26.5365  -21.1842  -12.8394 N   0  0  0  0  0  0  0  0  0  0  0  0
   25.5544  -20.8531  -14.9717 C   0  0  0  0  0  0  0  0  0  0  0  0
   25.0405  -21.9959  -15.0418 O   0  0  0  0  0  0  0  0  0  0  0  0
   21.5789  -20.9316  -11.5608 C   0  0  0  0  0  0  0  0  0  0  0  0
   20.9660  -19.5078  -12.4452 S   0  0  0  0  0  0  0  0  0  0  0  0
   21.5536  -19.3236  -14.0998 C   0  0  0  0  0  0  0  0  0  0  0  0
   22.9564  -19.6219  -14.3772 C   0  0  0  0  0  0  0  0  0  0  0  0
   23.5577  -19.5919  -15.7093 C   0  0  2  0  0  0  0  0  0  0  0  0
   24.9943  -19.7549  -15.6550 N   0  0  0  0  0  0  0  0  0  0  0  0
   23.2652  -18.4823  -16.6103 C   0  0  0  0  0  0  0  0  0  0  0  0
   22.1449  -18.3801  -17.2078 O   0  0  0  0  0  0  0  0  0  0  0  0
   24.1965  -17.4892  -16.8547 O   0  0  0  0  0  0  0  0  0  0  0  0
  2  3  1  6
  2  1  1  0
  4  5  1  0
  4  2  1  0
  5  6  1  6
  7 11  1  0
  7  5  1  0
  8  7  2  0
 10  9  1  6
 10 12  1  0
 10 11  1  0
 12 19  1  0
 13 12  2  0
 14 15  1  0
 16 15  1  0
 17 16  1  0
 18 20  1  0
 18 17  1  1
 19 18  1  0
 20 22  1  0
 21 20  2  0
M  END
$$$$
