LAM.pdb
     RDKit          3D

 22 21  0  0  1  0  0  0  0  0999 V2000
   19.0222  -15.7571  -16.6563 C   0  0  0  0  0  0  0  0  0  0  0  0
   18.2761  -15.0155  -17.7267 C   0  0  2  0  0  0  0  0  0  0  0  0
   17.9807  -15.8655  -18.9305 C   0  0  0  0  0  0  0  0  0  0  0  0
   19.0194  -13.7563  -18.0711 C   0  0  0  0  0  0  0  0  0  0  0  0
   19.0174  -12.8675  -16.8288 C   0  0  2  0  0  0  0  0  0  0  0  0
   17.6836  -12.8410  -16.2516 N   0  0  0  0  0  0  0  0  0  0  0  0
   19.4724  -11.5084  -17.2162 C   0  0  0  0  0  0  0  0  0  0  0  0
   20.6171  -11.3806  -17.6892 O   0  0  0  0  0  0  0  0  0  0  0  0
   17.9696   -8.0549  -17.0832 C   0  0  0  0  0  0  0  0  0  0  0  0
   19.0724   -9.0848  -17.2331 C   0  0  2  0  0  0  0  0  0  0  0  0
   18.5797  -10.4309  -17.0269 N   0  0  0  0  0  0  0  0  0  0  0  0
   20.0641   -8.8000  -16.1563 C   0  0  0  0  0  0  0  0  0  0  0  0
   20.1436   -9.5530  -15.1555 O   0  0  0  0  0  0  0  0  0  0  0  0
   26.8128  -10.4253  -14.5733 C   0  0  0  0  0  0  0  0  0  0  0  0
   25.1734  -10.3730  -15.2765 S   0  0  0  0  0  0  0  0  0  0  0  0
   24.2918   -8.8601  -15.0507 C   0  0  0  0  0  0  0  0  0  0  0  0
   22.9647   -8.7326  -15.6476 C   0  0  0  0  0  0  0  0  0  0  0  0
   22.1021   -7.5620  -15.4967 C   0  0  2  0  0  0  0  0  0  0  0  0
   20.8997   -7.6734  -16.2937 N   0  0  0  0  0  0  0  0  0  0  0  0
   22.6532   -6.2264  -15.6990 C   0  0  0  0  0  0  0  0  0  0  0  0
   22.5990   -5.6419  -16.8294 O   0  0  0  0  0  0  0  0  0  0  0  0
   23.2606   -5.5347  -14.6665 O   0  0  0  0  0  0  0  0  0  0  0  0
  2  3  1  6
  2  1  1  0
  4  5  1  0
  4  2  1  0
  5  6  1  6
  7 11  1  0
  7  5  1  0
  8  7  2  0
 10  9  1  1
 10 12  1  0
 10 11  1  0
 12 19  1  0
 13 12  2  0
 14 15  1  0
 16 15  1  0
 17 16  1  0
 18 20  1  0
 18 17  1  6
 19 18  1  0
 20 22  1  0
 21 20  2  0
M  END
$$$$
