LAM.pdb
     RDKit          3D

 22 21  0  0  1  0  0  0  0  0999 V2000
   32.4398  -23.4057  -10.3690 C   0  0  0  0  0  0  0  0  0  0  0  0
   32.4360  -21.9066  -10.4379 C   0  0  2  0  0  0  0  0  0  0  0  0
   33.3570  -21.2720   -9.4339 C   0  0  0  0  0  0  0  0  0  0  0  0
   31.0236  -21.4063  -10.3301 C   0  0  0  0  0  0  0  0  0  0  0  0
   30.2465  -21.9652  -11.5206 C   0  0  2  0  0  0  0  0  0  0  0  0
   31.1393  -22.1136  -12.6581 N   0  0  0  0  0  0  0  0  0  0  0  0
   29.1203  -21.0473  -11.8260 C   0  0  0  0  0  0  0  0  0  0  0  0
   28.3621  -20.7121  -10.8968 O   0  0  0  0  0  0  0  0  0  0  0  0
   28.0427  -19.0830  -14.8467 C   0  0  0  0  0  0  0  0  0  0  0  0
   27.9053  -19.6656  -13.4535 C   0  0  2  0  0  0  0  0  0  0  0  0
   28.9692  -20.6026  -13.1575 N   0  0  0  0  0  0  0  0  0  0  0  0
   26.6218  -20.4249  -13.4391 C   0  0  0  0  0  0  0  0  0  0  0  0
   26.5964  -21.6295  -13.7900 O   0  0  0  0  0  0  0  0  0  0  0  0
   26.4224  -20.0180   -7.8895 C   0  0  0  0  0  0  0  0  0  0  0  0
   24.9062  -20.9475   -8.0389 S   0  0  0  0  0  0  0  0  0  0  0  0
   24.2033  -21.0099   -9.6572 C   0  0  0  0  0  0  0  0  0  0  0  0
   24.9753  -20.4676  -10.7724 C   0  0  0  0  0  0  0  0  0  0  0  0
   24.5062  -20.4253  -12.1563 C   0  0  2  0  0  0  0  0  0  0  0  0
   25.4514  -19.7578  -13.0247 N   0  0  0  0  0  0  0  0  0  0  0  0
   23.1766  -19.9036  -12.4538 C   0  0  0  0  0  0  0  0  0  0  0  0
   23.0078  -18.7541  -12.9759 O   0  0  0  0  0  0  0  0  0  0  0  0
   22.0374  -20.6390  -12.1805 O   0  0  0  0  0  0  0  0  0  0  0  0
  2  3  1  1
  2  1  1  0
  4  5  1  0
  4  2  1  0
  5  6  1  6
  7 11  1  0
  7  5  1  0
  8  7  2  0
 10  9  1  6
 10 12  1  0
 10 11  1  0
 12 19  1  0
 13 12  2  0
 14 15  1  0
 16 15  1  0
 17 16  1  0
 18 20  1  0
 18 17  1  1
 19 18  1  0
 20 22  1  0
 21 20  2  0
M  END
$$$$
