LAM.pdb
     RDKit          3D

 22 21  0  0  1  0  0  0  0  0999 V2000
   27.7292  -11.0303  -16.4099 C   0  0  0  0  0  0  0  0  0  0  0  0
   26.7786  -12.0520  -16.9620 C   0  0  2  0  0  0  0  0  0  0  0  0
   27.3489  -12.8142  -18.1250 C   0  0  0  0  0  0  0  0  0  0  0  0
   25.4688  -11.3909  -17.2850 C   0  0  0  0  0  0  0  0  0  0  0  0
   24.9863  -10.6850  -16.0191 C   0  0  2  0  0  0  0  0  0  0  0  0
   24.6863  -11.6727  -14.9956 N   0  0  0  0  0  0  0  0  0  0  0  0
   23.7936   -9.8677  -16.3562 C   0  0  0  0  0  0  0  0  0  0  0  0
   23.9170   -8.9625  -17.2023 O   0  0  0  0  0  0  0  0  0  0  0  0
   20.1391  -10.0149  -15.4929 C   0  0  0  0  0  0  0  0  0  0  0  0
   21.4063   -9.3846  -16.0373 C   0  0  2  0  0  0  0  0  0  0  0  0
   22.5799  -10.1619  -15.6973 N   0  0  0  0  0  0  0  0  0  0  0  0
   21.5376   -8.0579  -15.3689 C   0  0  0  0  0  0  0  0  0  0  0  0
   22.3375   -7.9083  -14.4135 O   0  0  0  0  0  0  0  0  0  0  0  0
   25.2406   -1.9646  -15.9916 C   0  0  0  0  0  0  0  0  0  0  0  0
   24.6425   -3.6345  -16.1877 S   0  0  0  0  0  0  0  0  0  0  0  0
   22.9865   -3.9226  -15.6476 C   0  0  0  0  0  0  0  0  0  0  0  0
   22.4250   -5.2614  -15.8093 C   0  0  0  0  0  0  0  0  0  0  0  0
   21.0587   -5.6317  -15.4446 C   0  0  2  0  0  0  0  0  0  0  0  0
   20.7464   -6.9891  -15.8361 N   0  0  0  0  0  0  0  0  0  0  0  0
   19.9457   -4.7799  -15.8498 C   0  0  0  0  0  0  0  0  0  0  0  0
   19.5824   -3.7750  -15.1566 O   0  0  0  0  0  0  0  0  0  0  0  0
   19.2345   -5.0286  -17.0098 O   0  0  0  0  0  0  0  0  0  0  0  0
  2  3  1  6
  2  1  1  0
  4  5  1  0
  4  2  1  0
  5  6  1  1
  7 11  1  0
  7  5  1  0
  8  7  2  0
 10  9  1  1
 10 12  1  0
 10 11  1  0
 12 19  1  0
 13 12  2  0
 14 15  1  0
 16 15  1  0
 17 16  1  0
 18 20  1  0
 18 17  1  6
 19 18  1  0
 20 22  1  0
 21 20  2  0
M  END
$$$$
