LAM.pdb
     RDKit          3D

 22 21  0  0  1  0  0  0  0  0999 V2000
   30.2397  -20.4493  -12.1689 C   0  0  0  0  0  0  0  0  0  0  0  0
   29.2286  -20.8562  -13.2006 C   0  0  2  0  0  0  0  0  0  0  0  0
   29.5748  -22.1508  -13.8811 C   0  0  0  0  0  0  0  0  0  0  0  0
   29.0224  -19.7263  -14.1690 C   0  0  0  0  0  0  0  0  0  0  0  0
   27.5467  -19.7233  -14.5636 C   0  0  2  0  0  0  0  0  0  0  0  0
   27.3188  -18.7165  -15.5870 N   0  0  0  0  0  0  0  0  0  0  0  0
   26.7311  -19.4637  -13.3505 C   0  0  0  0  0  0  0  0  0  0  0  0
   26.9261  -18.4066  -12.7220 O   0  0  0  0  0  0  0  0  0  0  0  0
   23.4369  -20.6255  -12.2556 C   0  0  0  0  0  0  0  0  0  0  0  0
   24.8204  -20.0912  -11.9398 C   0  0  2  0  0  0  0  0  0  0  0  0
   25.7752  -20.4323  -12.9739 N   0  0  0  0  0  0  0  0  0  0  0  0
   25.2571  -20.7681  -10.6848 C   0  0  0  0  0  0  0  0  0  0  0  0
   25.6102  -21.9722  -10.7064 O   0  0  0  0  0  0  0  0  0  0  0  0
   29.6368  -19.1367   -5.7407 C   0  0  0  0  0  0  0  0  0  0  0  0
   27.9417  -19.0804   -5.1855 S   0  0  0  0  0  0  0  0  0  0  0  0
   26.8249  -20.1592   -6.0257 C   0  0  0  0  0  0  0  0  0  0  0  0
   26.4588  -19.8448   -7.4045 C   0  0  0  0  0  0  0  0  0  0  0  0
   25.5847  -20.6720   -8.2343 C   0  0  2  0  0  0  0  0  0  0  0  0
   25.2618  -20.0247   -9.4873 N   0  0  0  0  0  0  0  0  0  0  0  0
   24.3487  -21.2071   -7.6733 C   0  0  0  0  0  0  0  0  0  0  0  0
   24.3530  -22.0147   -6.6884 O   0  0  0  0  0  0  0  0  0  0  0  0
   23.1139  -20.8581   -8.1898 O   0  0  0  0  0  0  0  0  0  0  0  0
  2  3  1  6
  2  1  1  0
  4  5  1  0
  4  2  1  0
  5  6  1  6
  7 11  1  0
  7  5  1  0
  8  7  2  0
 10  9  1  6
 10 12  1  0
 10 11  1  0
 12 19  1  0
 13 12  2  0
 14 15  1  0
 16 15  1  0
 17 16  1  0
 18 20  1  0
 18 17  1  1
 19 18  1  0
 20 22  1  0
 21 20  2  0
M  END
$$$$
