LAM.pdb
     RDKit          3D

 22 21  0  0  1  0  0  0  0  0999 V2000
   28.2256  -16.6201  -16.2535 C   0  0  0  0  0  0  0  0  0  0  0  0
   26.9584  -16.0267  -15.7110 C   0  0  2  0  0  0  0  0  0  0  0  0
   27.1296  -14.6091  -15.2419 C   0  0  0  0  0  0  0  0  0  0  0  0
   26.4013  -16.9289  -14.6470 C   0  0  0  0  0  0  0  0  0  0  0  0
   26.1680  -18.2984  -15.2821 C   0  0  2  0  0  0  0  0  0  0  0  0
   25.3810  -18.1448  -16.4946 N   0  0  0  0  0  0  0  0  0  0  0  0
   25.4843  -19.1703  -14.2937 C   0  0  0  0  0  0  0  0  0  0  0  0
   24.3202  -18.8833  -13.9576 O   0  0  0  0  0  0  0  0  0  0  0  0
   25.8123  -22.6444  -13.2472 C   0  0  0  0  0  0  0  0  0  0  0  0
   25.4970  -21.2000  -12.9102 C   0  0  2  0  0  0  0  0  0  0  0  0
   26.1932  -20.2813  -13.7868 N   0  0  0  0  0  0  0  0  0  0  0  0
   26.0029  -20.9702  -11.5262 C   0  0  0  0  0  0  0  0  0  0  0  0
   27.2340  -21.0186  -11.2875 O   0  0  0  0  0  0  0  0  0  0  0  0
   29.8513  -19.6591   -7.3154 C   0  0  0  0  0  0  0  0  0  0  0  0
   28.2845  -18.9071   -6.9094 S   0  0  0  0  0  0  0  0  0  0  0  0
   26.8537  -19.8741   -7.2762 C   0  0  0  0  0  0  0  0  0  0  0  0
   26.5317  -20.1365   -8.6767 C   0  0  0  0  0  0  0  0  0  0  0  0
   25.4102  -20.9605   -9.1242 C   0  0  2  0  0  0  0  0  0  0  0  0
   25.0689  -20.7002  -10.5058 N   0  0  0  0  0  0  0  0  0  0  0  0
   24.1728  -20.9794   -8.3515 C   0  0  0  0  0  0  0  0  0  0  0  0
   23.0462  -20.7109   -8.8816 O   0  0  0  0  0  0  0  0  0  0  0  0
   24.1706  -21.2915   -7.0039 O   0  0  0  0  0  0  0  0  0  0  0  0
  2  3  1  1
  2  1  1  0
  4  5  1  0
  4  2  1  0
  5  6  1  6
  7 11  1  0
  7  5  1  0
  8  7  2  0
 10  9  1  6
 10 12  1  0
 10 11  1  0
 12 19  1  0
 13 12  2  0
 14 15  1  0
 16 15  1  0
 17 16  1  0
 18 20  1  0
 18 17  1  1
 19 18  1  0
 20 22  1  0
 21 20  2  0
M  END
$$$$
