LAM.pdb
     RDKit          3D

 22 21  0  0  1  0  0  0  0  0999 V2000
   16.9717  -16.4014  -15.4514 C   0  0  0  0  0  0  0  0  0  0  0  0
   18.3184  -15.9234  -15.9099 C   0  0  2  0  0  0  0  0  0  0  0  0
   19.4053  -16.9384  -15.6922 C   0  0  0  0  0  0  0  0  0  0  0  0
   18.6217  -14.5989  -15.2693 C   0  0  0  0  0  0  0  0  0  0  0  0
   17.4731  -13.6508  -15.6089 C   0  0  2  0  0  0  0  0  0  0  0  0
   17.3833  -13.4922  -17.0510 N   0  0  0  0  0  0  0  0  0  0  0  0
   17.7125  -12.3522  -14.9302 C   0  0  0  0  0  0  0  0  0  0  0  0
   17.8150  -12.3436  -13.6893 O   0  0  0  0  0  0  0  0  0  0  0  0
   18.4294   -8.8402  -16.0494 C   0  0  0  0  0  0  0  0  0  0  0  0
   17.9946   -9.9162  -15.0734 C   0  0  2  0  0  0  0  0  0  0  0  0
   17.8115  -11.1934  -15.7310 N   0  0  0  0  0  0  0  0  0  0  0  0
   16.6678   -9.4910  -14.5414 C   0  0  0  0  0  0  0  0  0  0  0  0
   15.6199  -10.0650  -14.9253 O   0  0  0  0  0  0  0  0  0  0  0  0
   11.5308   -9.3601   -9.2943 C   0  0  0  0  0  0  0  0  0  0  0  0
   12.9348   -9.8292  -10.2911 S   0  0  0  0  0  0  0  0  0  0  0  0
   13.5581   -8.5795  -11.3713 C   0  0  0  0  0  0  0  0  0  0  0  0
   14.7327   -8.8852  -12.1841 C   0  0  0  0  0  0  0  0  0  0  0  0
   15.3524   -7.9501  -13.1214 C   0  0  2  0  0  0  0  0  0  0  0  0
   16.6255   -8.4380  -13.6055 N   0  0  0  0  0  0  0  0  0  0  0  0
   15.5220   -6.5515  -12.7422 C   0  0  0  0  0  0  0  0  0  0  0  0
   14.5354   -5.8271  -12.3897 O   0  0  0  0  0  0  0  0  0  0  0  0
   16.7677   -5.9501  -12.7491 O   0  0  0  0  0  0  0  0  0  0  0  0
  2  3  1  1
  2  1  1  0
  4  5  1  0
  4  2  1  0
  5  6  1  6
  7 11  1  0
  7  5  1  0
  8  7  2  0
 10  9  1  6
 10 12  1  0
 10 11  1  0
 12 19  1  0
 13 12  2  0
 14 15  1  0
 16 15  1  0
 17 16  1  0
 18 20  1  0
 18 17  1  1
 19 18  1  0
 20 22  1  0
 21 20  2  0
M  END
$$$$
