LAM.pdb
     RDKit          3D

 22 21  0  0  1  0  0  0  0  0999 V2000
   17.6107  -16.3036    2.2775 C   0  0  0  0  0  0  0  0  0  0  0  0
   17.8566  -14.8366    2.4766 C   0  0  2  0  0  0  0  0  0  0  0  0
   19.2123  -14.3998    1.9971 C   0  0  0  0  0  0  0  0  0  0  0  0
   17.6044  -14.4796    3.9139 C   0  0  0  0  0  0  0  0  0  0  0  0
   16.2132  -14.9951    4.2777 C   0  0  2  0  0  0  0  0  0  0  0  0
   15.3410  -13.8715    4.5776 N   0  0  0  0  0  0  0  0  0  0  0  0
   16.3356  -15.9160    5.4358 C   0  0  0  0  0  0  0  0  0  0  0  0
   16.6856  -15.4428    6.5331 O   0  0  0  0  0  0  0  0  0  0  0  0
   15.2843  -19.4385    6.1194 C   0  0  0  0  0  0  0  0  0  0  0  0
   16.0798  -18.1726    6.3721 C   0  0  2  0  0  0  0  0  0  0  0  0
   16.0476  -17.2829    5.2299 N   0  0  0  0  0  0  0  0  0  0  0  0
   17.4956  -18.5972    6.5703 C   0  0  0  0  0  0  0  0  0  0  0  0
   18.3255  -18.4851    5.6356 O   0  0  0  0  0  0  0  0  0  0  0  0
   24.0315  -16.7073    8.9290 C   0  0  0  0  0  0  0  0  0  0  0  0
   22.3403  -16.6670    8.3606 S   0  0  0  0  0  0  0  0  0  0  0  0
   21.2949  -17.9491    8.9773 C   0  0  0  0  0  0  0  0  0  0  0  0
   19.9371  -18.0542    8.4488 C   0  0  0  0  0  0  0  0  0  0  0  0
   19.2689  -19.3167    8.1384 C   0  0  2  0  0  0  0  0  0  0  0  0
   17.8703  -19.1221    7.8236 N   0  0  0  0  0  0  0  0  0  0  0  0
   19.3684  -20.4358    9.0692 C   0  0  0  0  0  0  0  0  0  0  0  0
   18.5596  -20.5725   10.0436 O   0  0  0  0  0  0  0  0  0  0  0  0
   20.3501  -21.4007    8.9320 O   0  0  0  0  0  0  0  0  0  0  0  0
  2  3  1  1
  2  1  1  0
  4  5  1  0
  4  2  1  0
  5  6  1  1
  7 11  1  0
  7  5  1  0
  8  7  2  0
 10  9  1  6
 10 12  1  0
 10 11  1  0
 12 19  1  0
 13 12  2  0
 14 15  1  0
 16 15  1  0
 17 16  1  0
 18 20  1  0
 18 17  1  1
 19 18  1  0
 20 22  1  0
 21 20  2  0
M  END
$$$$
