LAM.pdb
     RDKit          3D

 22 21  0  0  1  0  0  0  0  0999 V2000
   20.9315  -15.4670  -19.9521 C   0  0  0  0  0  0  0  0  0  0  0  0
   19.7691  -15.4755  -19.0029 C   0  0  2  0  0  0  0  0  0  0  0  0
   18.4429  -15.3578  -19.7002 C   0  0  0  0  0  0  0  0  0  0  0  0
   19.9727  -14.4173  -17.9562 C   0  0  0  0  0  0  0  0  0  0  0  0
   21.2872  -14.7253  -17.2415 C   0  0  2  0  0  0  0  0  0  0  0  0
   21.2050  -16.0340  -16.6143 N   0  0  0  0  0  0  0  0  0  0  0  0
   21.5473  -13.6567  -16.2441 C   0  0  0  0  0  0  0  0  0  0  0  0
   20.6601  -13.3982  -15.4096 O   0  0  0  0  0  0  0  0  0  0  0  0
   24.4489  -11.3974  -15.4376 C   0  0  0  0  0  0  0  0  0  0  0  0
   23.0087  -11.8706  -15.4025 C   0  0  2  0  0  0  0  0  0  0  0  0
   22.7906  -12.9894  -16.2958 N   0  0  0  0  0  0  0  0  0  0  0  0
   22.1796  -10.7337  -15.8965 C   0  0  0  0  0  0  0  0  0  0  0  0
   21.7123  -10.7519  -17.0611 O   0  0  0  0  0  0  0  0  0  0  0  0
   16.2246   -7.4488  -17.8482 C   0  0  0  0  0  0  0  0  0  0  0  0
   17.4055   -8.6517  -17.2621 S   0  0  0  0  0  0  0  0  0  0  0  0
   18.9454   -7.9994  -16.6962 C   0  0  0  0  0  0  0  0  0  0  0  0
   19.9339   -8.9252  -16.1488 C   0  0  0  0  0  0  0  0  0  0  0  0
   21.1685   -8.5138  -15.4831 C   0  0  2  0  0  0  0  0  0  0  0  0
   21.9387   -9.6506  -15.0274 N   0  0  0  0  0  0  0  0  0  0  0  0
   21.1151   -7.5423  -14.3958 C   0  0  0  0  0  0  0  0  0  0  0  0
   20.6500   -6.3689  -14.5663 O   0  0  0  0  0  0  0  0  0  0  0  0
   21.5692   -7.8562  -13.1275 O   0  0  0  0  0  0  0  0  0  0  0  0
  2  3  1  6
  2  1  1  0
  4  5  1  0
  4  2  1  0
  5  6  1  1
  7 11  1  0
  7  5  1  0
  8  7  2  0
 10  9  1  6
 10 12  1  0
 10 11  1  0
 12 19  1  0
 13 12  2  0
 14 15  1  0
 16 15  1  0
 17 16  1  0
 18 20  1  0
 18 17  1  1
 19 18  1  0
 20 22  1  0
 21 20  2  0
M  END
$$$$
