LAM.pdb
     RDKit          3D

 22 21  0  0  1  0  0  0  0  0999 V2000
   27.7067  -21.9074  -16.6475 C   0  0  0  0  0  0  0  0  0  0  0  0
   28.7290  -21.2413  -15.7738 C   0  0  2  0  0  0  0  0  0  0  0  0
   29.9433  -22.0950  -15.5380 C   0  0  0  0  0  0  0  0  0  0  0  0
   28.0767  -20.7913  -14.4976 C   0  0  0  0  0  0  0  0  0  0  0  0
   26.9142  -19.8747  -14.8744 C   0  0  2  0  0  0  0  0  0  0  0  0
   27.4325  -18.6259  -15.4080 N   0  0  0  0  0  0  0  0  0  0  0  0
   26.0776  -19.6484  -13.6690 C   0  0  0  0  0  0  0  0  0  0  0  0
   26.4903  -18.8540  -12.8035 O   0  0  0  0  0  0  0  0  0  0  0  0
   22.6591  -20.7658  -12.5573 C   0  0  0  0  0  0  0  0  0  0  0  0
   24.0174  -20.1075  -12.4124 C   0  0  2  0  0  0  0  0  0  0  0  0
   24.8553  -20.3482  -13.5688 N   0  0  0  0  0  0  0  0  0  0  0  0
   24.6751  -20.7525  -11.2396 C   0  0  0  0  0  0  0  0  0  0  0  0
   25.3726  -21.7842  -11.3949 O   0  0  0  0  0  0  0  0  0  0  0  0
   29.5741  -19.4848   -6.8780 C   0  0  0  0  0  0  0  0  0  0  0  0
   27.9238  -19.2729   -6.2326 S   0  0  0  0  0  0  0  0  0  0  0  0
   26.7021  -20.3706   -6.8802 C   0  0  0  0  0  0  0  0  0  0  0  0
   26.0875  -20.0472   -8.1654 C   0  0  0  0  0  0  0  0  0  0  0  0
   25.0251  -20.8321   -8.7916 C   0  0  2  0  0  0  0  0  0  0  0  0
   24.4928  -20.1763   -9.9663 N   0  0  0  0  0  0  0  0  0  0  0  0
   23.8998  -21.2975   -7.9881 C   0  0  0  0  0  0  0  0  0  0  0  0
   22.7072  -20.9136   -8.2170 O   0  0  0  0  0  0  0  0  0  0  0  0
   24.0815  -22.1801   -6.9385 O   0  0  0  0  0  0  0  0  0  0  0  0
  2  3  1  1
  2  1  1  0
  4  5  1  0
  4  2  1  0
  5  6  1  1
  7 11  1  0
  7  5  1  0
  8  7  2  0
 10  9  1  6
 10 12  1  0
 10 11  1  0
 12 19  1  0
 13 12  2  0
 14 15  1  0
 16 15  1  0
 17 16  1  0
 18 20  1  0
 18 17  1  1
 19 18  1  0
 20 22  1  0
 21 20  2  0
M  END
$$$$
