LAM.pdb
     RDKit          3D

 22 21  0  0  1  0  0  0  0  0999 V2000
   29.5320  -21.7118  -11.8804 C   0  0  0  0  0  0  0  0  0  0  0  0
   29.2222  -20.5733  -12.8079 C   0  0  2  0  0  0  0  0  0  0  0  0
   30.3829  -19.6368  -12.9934 C   0  0  0  0  0  0  0  0  0  0  0  0
   27.9782  -19.8734  -12.3395 C   0  0  0  0  0  0  0  0  0  0  0  0
   26.8438  -20.8963  -12.3511 C   0  0  2  0  0  0  0  0  0  0  0  0
   27.2010  -22.0094  -13.2150 N   0  0  0  0  0  0  0  0  0  0  0  0
   25.6025  -20.2240  -12.8111 C   0  0  0  0  0  0  0  0  0  0  0  0
   25.1083  -19.3374  -12.0899 O   0  0  0  0  0  0  0  0  0  0  0  0
   23.5459  -20.2395  -15.9465 C   0  0  0  0  0  0  0  0  0  0  0  0
   23.7976  -20.0300  -14.4659 C   0  0  2  0  0  0  0  0  0  0  0  0
   25.0479  -20.6274  -14.0454 N   0  0  0  0  0  0  0  0  0  0  0  0
   22.6984  -20.7370  -13.7476 C   0  0  0  0  0  0  0  0  0  0  0  0
   22.9003  -21.8662  -13.2385 O   0  0  0  0  0  0  0  0  0  0  0  0
   20.5435  -21.7917   -7.2406 C   0  0  0  0  0  0  0  0  0  0  0  0
   21.4205  -21.3655   -8.7353 S   0  0  0  0  0  0  0  0  0  0  0  0
   20.4319  -20.7054  -10.0406 C   0  0  0  0  0  0  0  0  0  0  0  0
   21.0922  -20.3137  -11.2834 C   0  0  0  0  0  0  0  0  0  0  0  0
   20.5133  -20.4870  -12.6144 C   0  0  2  0  0  0  0  0  0  0  0  0
   21.4405  -20.1075  -13.6581 N   0  0  0  0  0  0  0  0  0  0  0  0
   19.2190  -19.8889  -12.9239 C   0  0  0  0  0  0  0  0  0  0  0  0
   19.1230  -18.7724  -13.5292 O   0  0  0  0  0  0  0  0  0  0  0  0
   18.0356  -20.5124  -12.5716 O   0  0  0  0  0  0  0  0  0  0  0  0
  2  3  1  1
  2  1  1  0
  4  5  1  0
  4  2  1  0
  5  6  1  6
  7 11  1  0
  7  5  1  0
  8  7  2  0
 10  9  1  6
 10 12  1  0
 10 11  1  0
 12 19  1  0
 13 12  2  0
 14 15  1  0
 16 15  1  0
 17 16  1  0
 18 20  1  0
 18 17  1  1
 19 18  1  0
 20 22  1  0
 21 20  2  0
M  END
$$$$
