LAM.pdb
     RDKit          3D

 22 21  0  0  1  0  0  0  0  0999 V2000
   20.6859  -18.1196  -16.4608 C   0  0  0  0  0  0  0  0  0  0  0  0
   20.3849  -19.5252  -16.0297 C   0  0  2  0  0  0  0  0  0  0  0  0
   19.0277  -19.9955  -16.4725 C   0  0  0  0  0  0  0  0  0  0  0  0
   20.5875  -19.6457  -14.5461 C   0  0  0  0  0  0  0  0  0  0  0  0
   21.9894  -19.1273  -14.2306 C   0  0  2  0  0  0  0  0  0  0  0  0
   22.8178  -19.2084  -15.4223 N   0  0  0  0  0  0  0  0  0  0  0  0
   22.5537  -19.9311  -13.1171 C   0  0  0  0  0  0  0  0  0  0  0  0
   21.8758  -20.0640  -12.0812 O   0  0  0  0  0  0  0  0  0  0  0  0
   25.0078  -22.6166  -12.8777 C   0  0  0  0  0  0  0  0  0  0  0  0
   24.3310  -21.4019  -12.2732 C   0  0  2  0  0  0  0  0  0  0  0  0
   23.8325  -20.5032  -13.2936 N   0  0  0  0  0  0  0  0  0  0  0  0
   25.3817  -20.6720  -11.5068 C   0  0  0  0  0  0  0  0  0  0  0  0
   25.9870  -19.7044  -12.0289 O   0  0  0  0  0  0  0  0  0  0  0  0
   28.7575  -19.0838   -4.5912 C   0  0  0  0  0  0  0  0  0  0  0  0
   27.3948  -19.4870   -5.6706 S   0  0  0  0  0  0  0  0  0  0  0  0
   27.8168  -20.3757   -7.1366 C   0  0  0  0  0  0  0  0  0  0  0  0
   26.7496  -20.7205   -8.0726 C   0  0  0  0  0  0  0  0  0  0  0  0
   26.8638  -20.6192   -9.5264 C   0  0  2  0  0  0  0  0  0  0  0  0
   25.6720  -21.0955  -10.1942 N   0  0  0  0  0  0  0  0  0  0  0  0
   28.0197  -21.1975  -10.2034 C   0  0  0  0  0  0  0  0  0  0  0  0
   28.0508  -22.4226  -10.5506 O   0  0  0  0  0  0  0  0  0  0  0  0
   29.1360  -20.4359  -10.4985 O   0  0  0  0  0  0  0  0  0  0  0  0
  2  3  1  1
  2  1  1  0
  4  5  1  0
  4  2  1  0
  5  6  1  6
  7 11  1  0
  7  5  1  0
  8  7  2  0
 10  9  1  6
 10 12  1  0
 10 11  1  0
 12 19  1  0
 13 12  2  0
 14 15  1  0
 16 15  1  0
 17 16  1  0
 18 20  1  0
 18 17  1  1
 19 18  1  0
 20 22  1  0
 21 20  2  0
M  END
$$$$
