RKP.pdb
     RDKit          3D

 28 28  0  0  1  0  0  0  0  0999 V2000
   11.2074  -15.0784   20.3382 N   0  0  0  0  0  0  0  0  0  0  0  0
   11.9240  -14.1085   19.5740 C   0  0  0  0  0  0  0  0  0  0  0  0
   13.0960  -13.7049   19.8944 N   0  0  0  0  0  0  0  0  0  0  0  0
   11.2968  -13.5850   18.4208 N   0  0  0  0  0  0  0  0  0  0  0  0
    9.8369  -13.5533   18.3272 C   0  0  0  0  0  0  0  0  0  0  0  0
    9.3373  -13.1554   19.6854 C   0  0  0  0  0  0  0  0  0  0  0  0
    7.9393  -13.6497   19.8970 C   0  0  0  0  0  0  0  0  0  0  0  0
    7.8551  -15.1097   20.2514 C   0  0  2  0  0  0  0  0  0  0  0  0
    7.0354  -15.8589   19.3529 N   0  0  0  0  0  0  0  0  0  0  0  0
    7.3418  -15.1803   21.6599 C   0  0  0  0  0  0  0  0  0  0  0  0
    6.3273  -14.5583   22.0502 O   0  0  0  0  0  0  0  0  0  0  0  0
   13.6265  -13.0179   19.3310 N   0  0  0  0  0  0  0  0  0  0  0  0
    8.0085  -15.9891   22.6651 C   0  0  2  0  0  0  0  0  0  0  0  0
    7.5922  -15.9961   24.0150 C   0  0  0  0  0  0  0  0  0  0  0  0
    7.3147  -17.4089   24.5353 C   0  0  0  0  0  0  0  0  0  0  0  0
    6.2843  -18.1039   23.6869 C   0  0  0  0  0  0  0  0  0  0  0  0
    5.9824  -19.4968   24.1728 C   0  0  0  0  0  0  0  0  0  0  0  0
    5.0162  -20.2195   23.2372 N   0  0  0  0  0  0  0  0  0  0  0  0
    4.8061  -21.5740   23.7737 C   0  0  0  0  0  0  0  0  0  0  0  0
    8.4952  -15.3078   24.9296 O   0  0  0  0  0  0  0  0  0  0  0  0
    9.7828  -15.5226   24.7950 N   0  0  0  0  0  0  0  0  0  0  0  0
    8.1931  -14.4217   25.9671 C   0  0  0  0  0  0  0  0  0  0  0  0
    6.8197  -13.9455   26.3122 C   0  0  0  0  0  0  0  0  0  0  0  0
    6.9538  -13.0075   27.4535 C   0  0  0  0  0  0  0  0  0  0  0  0
    8.3544  -12.4948   27.3071 C   0  0  1  0  0  0  0  0  0  0  0  0
    9.0801  -13.7901   26.9007 C   0  0  0  0  0  0  0  0  0  0  0  0
    9.1202  -14.6409   28.1367 O   0  0  0  0  0  0  0  0  0  0  0  0
    8.2818  -15.5603   28.2824 O   0  0  0  0  0  0  0  0  0  0  0  0
  2  1  1  0
  3  2  2  0
  4  2  1  0
  5  4  1  0
  6  5  1  0
  7  6  1  0
  8  7  1  0
  8  9  1  6
 10 11  2  0
 10  8  1  0
 12 10  1  0
 13 12  1  0
 13 14  1  6
 14 15  1  0
 16 15  1  0
 17 16  1  0
 18 17  1  0
 19 20  2  0
 19 13  1  0
 21 19  1  0
 22 21  1  0
 23 22  1  0
 24 23  1  0
 24 25  1  0
 25 26  1  1
 25 21  1  0
 26 28  1  0
 27 26  2  0
M  END
$$$$
