RKP.pdb
     RDKit          3D

 28 28  0  0  1  0  0  0  0  0999 V2000
    9.7387  -13.3330   16.6528 N   0  0  0  0  0  0  0  0  0  0  0  0
    8.5827  -13.8594   16.0011 C   0  0  0  0  0  0  0  0  0  0  0  0
    8.6222  -14.3655   14.8257 N   0  0  0  0  0  0  0  0  0  0  0  0
    7.3544  -13.8104   16.6985 N   0  0  0  0  0  0  0  0  0  0  0  0
    7.3181  -13.3761   18.0954 C   0  0  0  0  0  0  0  0  0  0  0  0
    8.3230  -14.2197   18.8241 C   0  0  0  0  0  0  0  0  0  0  0  0
    8.3357  -13.8800   20.2828 C   0  0  0  0  0  0  0  0  0  0  0  0
    9.2270  -14.7676   21.1086 C   0  0  2  0  0  0  0  0  0  0  0  0
    9.4685  -16.0390   20.5038 N   0  0  0  0  0  0  0  0  0  0  0  0
    8.5687  -14.9079   22.4500 C   0  0  0  0  0  0  0  0  0  0  0  0
    8.2985  -13.9304   23.1848 O   0  0  0  0  0  0  0  0  0  0  0  0
    7.7985  -14.7982   14.3730 N   0  0  0  0  0  0  0  0  0  0  0  0
    8.2041  -16.2108   22.9776 C   0  0  1  0  0  0  0  0  0  0  0  0
    7.9282  -16.4111   24.3485 C   0  0  0  0  0  0  0  0  0  0  0  0
    7.5714  -17.8652   24.6680 C   0  0  0  0  0  0  0  0  0  0  0  0
    7.3822  -18.0620   26.1479 C   0  0  0  0  0  0  0  0  0  0  0  0
    7.0977  -19.4965   26.5065 C   0  0  0  0  0  0  0  0  0  0  0  0
    6.8553  -19.6620   28.0049 N   0  0  0  0  0  0  0  0  0  0  0  0
    6.7558  -21.1039   28.2834 C   0  0  0  0  0  0  0  0  0  0  0  0
    8.9810  -15.9577   25.2495 O   0  0  0  0  0  0  0  0  0  0  0  0
   10.1604  -16.5240   25.1462 N   0  0  0  0  0  0  0  0  0  0  0  0
    8.9291  -14.9775   26.2442 C   0  0  0  0  0  0  0  0  0  0  0  0
    7.7487  -14.1059   26.5250 C   0  0  0  0  0  0  0  0  0  0  0  0
    8.1265  -13.1992   27.6366 C   0  0  0  0  0  0  0  0  0  0  0  0
    9.6188  -13.1254   27.5203 C   0  0  1  0  0  0  0  0  0  0  0  0
    9.9413  -14.5928   27.1849 C   0  0  0  0  0  0  0  0  0  0  0  0
    9.7020  -15.3632   28.4507 O   0  0  0  0  0  0  0  0  0  0  0  0
    8.6371  -16.0080   28.5907 O   0  0  0  0  0  0  0  0  0  0  0  0
  2  1  1  0
  3  2  2  0
  4  2  1  0
  5  4  1  0
  6  5  1  0
  7  6  1  0
  8  7  1  0
  8  9  1  6
 10 11  2  0
 10  8  1  0
 12 10  1  0
 13 12  1  0
 13 14  1  1
 14 15  1  0
 16 15  1  0
 17 16  1  0
 18 17  1  0
 19 20  2  0
 19 13  1  0
 21 19  1  0
 22 21  1  0
 23 22  1  0
 24 23  1  0
 24 25  1  0
 25 26  1  1
 25 21  1  0
 26 28  1  0
 27 26  2  0
M  END
$$$$
