RKP.pdb
     RDKit          3D

 28 28  0  0  1  0  0  0  0  0999 V2000
    7.8495  -13.0907   16.1547 N   0  0  0  0  0  0  0  0  0  0  0  0
    8.7169  -14.1087   16.6541 C   0  0  0  0  0  0  0  0  0  0  0  0
    9.1856  -15.0418   15.9132 N   0  0  0  0  0  0  0  0  0  0  0  0
    9.0601  -14.0671   18.0244 N   0  0  0  0  0  0  0  0  0  0  0  0
    8.2602  -13.2755   18.9597 C   0  0  0  0  0  0  0  0  0  0  0  0
    7.2641  -14.2207   19.5652 C   0  0  0  0  0  0  0  0  0  0  0  0
    7.9640  -15.3232   20.2988 C   0  0  0  0  0  0  0  0  0  0  0  0
    7.0442  -16.4044   20.7981 C   0  0  2  0  0  0  0  0  0  0  0  0
    5.7710  -16.4012   20.1504 N   0  0  0  0  0  0  0  0  0  0  0  0
    6.9130  -16.2055   22.2798 C   0  0  0  0  0  0  0  0  0  0  0  0
    6.0883  -15.4152   22.7935 O   0  0  0  0  0  0  0  0  0  0  0  0
    9.8117  -15.7831   16.2730 N   0  0  0  0  0  0  0  0  0  0  0  0
    7.7530  -16.9328   23.2148 C   0  0  2  0  0  0  0  0  0  0  0  0
    7.6341  -16.7651   24.6125 C   0  0  0  0  0  0  0  0  0  0  0  0
    8.0391  -18.0204   25.3897 C   0  0  0  0  0  0  0  0  0  0  0  0
    8.0177  -17.7673   26.8730 C   0  0  0  0  0  0  0  0  0  0  0  0
    8.4611  -18.9664   27.6685 C   0  0  0  0  0  0  0  0  0  0  0  0
    8.3922  -18.6992   29.1702 N   0  0  0  0  0  0  0  0  0  0  0  0
    8.7882  -19.9369   29.8614 C   0  0  0  0  0  0  0  0  0  0  0  0
    8.3464  -15.6100   25.1454 O   0  0  0  0  0  0  0  0  0  0  0  0
    9.6174  -15.4828   24.8443 N   0  0  0  0  0  0  0  0  0  0  0  0
    7.8699  -14.5779   25.9583 C   0  0  0  0  0  0  0  0  0  0  0  0
    6.4604  -14.4471   26.4360 C   0  0  0  0  0  0  0  0  0  0  0  0
    6.3845  -13.2071   27.2465 C   0  0  0  0  0  0  0  0  0  0  0  0
    7.5026  -12.3745   26.6962 C   0  0  1  0  0  0  0  0  0  0  0  0
    8.5803  -13.4563   26.5009 C   0  0  0  0  0  0  0  0  0  0  0  0
    9.0370  -13.8316   27.8806 O   0  0  0  0  0  0  0  0  0  0  0  0
    8.5951  -14.8742   28.4164 O   0  0  0  0  0  0  0  0  0  0  0  0
  2  1  1  0
  3  2  2  0
  4  2  1  0
  5  4  1  0
  6  5  1  0
  7  6  1  0
  8  7  1  0
  8  9  1  6
 10 11  2  0
 10  8  1  0
 12 10  1  0
 13 12  1  0
 13 14  1  6
 14 15  1  0
 16 15  1  0
 17 16  1  0
 18 17  1  0
 19 20  2  0
 19 13  1  0
 21 19  1  0
 22 21  1  0
 23 22  1  0
 24 23  1  0
 24 25  1  0
 25 26  1  1
 25 21  1  0
 26 28  1  0
 27 26  2  0
M  END
$$$$
