RKP.pdb
     RDKit          3D

 28 28  0  0  1  0  0  0  0  0999 V2000
    8.2742  -13.0943   15.8470 N   0  0  0  0  0  0  0  0  0  0  0  0
    8.5915  -13.8420   17.0211 C   0  0  0  0  0  0  0  0  0  0  0  0
    9.0911  -15.0200   16.9762 N   0  0  0  0  0  0  0  0  0  0  0  0
    8.3365  -13.2398   18.2739 N   0  0  0  0  0  0  0  0  0  0  0  0
    8.7507  -13.9064   19.5089 C   0  0  0  0  0  0  0  0  0  0  0  0
    7.5404  -14.6311   20.0215 C   0  0  0  0  0  0  0  0  0  0  0  0
    7.8821  -16.0488   20.3631 C   0  0  0  0  0  0  0  0  0  0  0  0
    6.7397  -16.8252   20.9603 C   0  0  2  0  0  0  0  0  0  0  0  0
    5.4883  -16.5605   20.3243 N   0  0  0  0  0  0  0  0  0  0  0  0
    6.7035  -16.4801   22.4204 C   0  0  0  0  0  0  0  0  0  0  0  0
    6.0536  -15.5127   22.8787 O   0  0  0  0  0  0  0  0  0  0  0  0
    9.2245  -15.6056   17.8189 N   0  0  0  0  0  0  0  0  0  0  0  0
    7.4359  -17.2651   23.3984 C   0  0  2  0  0  0  0  0  0  0  0  0
    7.3444  -17.0062   24.7841 C   0  0  0  0  0  0  0  0  0  0  0  0
    7.5985  -18.2556   25.6316 C   0  0  0  0  0  0  0  0  0  0  0  0
    7.5959  -17.9222   27.0990 C   0  0  0  0  0  0  0  0  0  0  0  0
    7.8984  -19.1184   27.9621 C   0  0  0  0  0  0  0  0  0  0  0  0
    7.7992  -18.7774   29.4471 N   0  0  0  0  0  0  0  0  0  0  0  0
    8.2016  -19.9724   30.2063 C   0  0  0  0  0  0  0  0  0  0  0  0
    8.1934  -15.9175   25.2529 O   0  0  0  0  0  0  0  0  0  0  0  0
    9.4342  -15.8826   24.8271 N   0  0  0  0  0  0  0  0  0  0  0  0
    7.8811  -14.8654   26.1181 C   0  0  0  0  0  0  0  0  0  0  0  0
    6.5867  -14.7143   26.8484 C   0  0  0  0  0  0  0  0  0  0  0  0
    6.6682  -13.4573   27.6317 C   0  0  0  0  0  0  0  0  0  0  0  0
    7.6663  -12.6446   26.8640 C   0  0  1  0  0  0  0  0  0  0  0  0
    8.6846  -13.7382   26.4938 C   0  0  0  0  0  0  0  0  0  0  0  0
    9.3904  -14.0885   27.7714 O   0  0  0  0  0  0  0  0  0  0  0  0
   10.2234  -13.2890   28.2573 O   0  0  0  0  0  0  0  0  0  0  0  0
  2  1  1  0
  3  2  2  0
  4  2  1  0
  5  4  1  0
  6  5  1  0
  7  6  1  0
  8  7  1  0
  8  9  1  6
 10 11  2  0
 10  8  1  0
 12 10  1  0
 13 12  1  0
 13 14  1  6
 14 15  1  0
 16 15  1  0
 17 16  1  0
 18 17  1  0
 19 20  2  0
 19 13  1  0
 21 19  1  0
 22 21  1  0
 23 22  1  0
 24 23  1  0
 24 25  1  0
 25 26  1  1
 25 21  1  0
 26 28  1  0
 27 26  2  0
M  END
$$$$
