RKP.pdb
     RDKit          3D

 28 28  0  0  1  0  0  0  0  0999 V2000
    8.6138  -12.0211   18.9814 N   0  0  0  0  0  0  0  0  0  0  0  0
    8.5362  -13.2418   18.2452 C   0  0  0  0  0  0  0  0  0  0  0  0
    8.8118  -13.3149   16.9970 N   0  0  0  0  0  0  0  0  0  0  0  0
    8.1369  -14.4055   18.9407 N   0  0  0  0  0  0  0  0  0  0  0  0
    8.2343  -14.4608   20.3997 C   0  0  0  0  0  0  0  0  0  0  0  0
    6.8247  -14.4965   20.9138 C   0  0  0  0  0  0  0  0  0  0  0  0
    6.1071  -15.7056   20.3973 C   0  0  0  0  0  0  0  0  0  0  0  0
    6.5579  -16.9971   21.0241 C   0  0  2  0  0  0  0  0  0  0  0  0
    5.7148  -18.1033   20.6981 N   0  0  0  0  0  0  0  0  0  0  0  0
    6.6124  -16.7592   22.5049 C   0  0  0  0  0  0  0  0  0  0  0  0
    5.6165  -16.4087   23.1785 O   0  0  0  0  0  0  0  0  0  0  0  0
    8.8003  -14.2059   16.4709 N   0  0  0  0  0  0  0  0  0  0  0  0
    7.8481  -16.9251   23.2496 C   0  0  2  0  0  0  0  0  0  0  0  0
    7.9358  -16.6268   24.6276 C   0  0  0  0  0  0  0  0  0  0  0  0
    8.6710  -17.7133   25.4167 C   0  0  0  0  0  0  0  0  0  0  0  0
    8.7983  -17.3341   26.8674 C   0  0  0  0  0  0  0  0  0  0  0  0
    9.6239  -18.3204   27.6503 C   0  0  0  0  0  0  0  0  0  0  0  0
    9.8644  -17.8400   29.0795 N   0  0  0  0  0  0  0  0  0  0  0  0
   10.5096  -18.9390   29.8161 C   0  0  0  0  0  0  0  0  0  0  0  0
    8.5202  -15.3252   24.9282 O   0  0  0  0  0  0  0  0  0  0  0  0
    9.7077  -15.0597   24.4367 N   0  0  0  0  0  0  0  0  0  0  0  0
    7.9942  -14.2763   25.6871 C   0  0  0  0  0  0  0  0  0  0  0  0
    6.6433  -14.2760   26.3250 C   0  0  0  0  0  0  0  0  0  0  0  0
    6.4810  -12.9701   27.0097 C   0  0  0  0  0  0  0  0  0  0  0  0
    7.3985  -12.0687   26.2405 C   0  0  1  0  0  0  0  0  0  0  0  0
    8.5920  -13.0155   26.0193 C   0  0  0  0  0  0  0  0  0  0  0  0
    9.2501  -13.1635   27.3602 O   0  0  0  0  0  0  0  0  0  0  0  0
    9.0313  -14.1880   28.0471 O   0  0  0  0  0  0  0  0  0  0  0  0
  2  1  1  0
  3  2  2  0
  4  2  1  0
  5  4  1  0
  6  5  1  0
  7  6  1  0
  8  7  1  0
  8  9  1  1
 10 11  2  0
 10  8  1  0
 12 10  1  0
 13 12  1  0
 13 14  1  6
 14 15  1  0
 16 15  1  0
 17 16  1  0
 18 17  1  0
 19 20  2  0
 19 13  1  0
 21 19  1  0
 22 21  1  0
 23 22  1  0
 24 23  1  0
 24 25  1  0
 25 26  1  1
 25 21  1  0
 26 28  1  0
 27 26  2  0
M  END
$$$$
