RKP.pdb
     RDKit          3D

 28 28  0  0  1  0  0  0  0  0999 V2000
    8.4137  -21.9817   19.3131 N   0  0  0  0  0  0  0  0  0  0  0  0
    9.1048  -20.8208   18.8517 C   0  0  0  0  0  0  0  0  0  0  0  0
    8.6457  -20.0659   17.9252 N   0  0  0  0  0  0  0  0  0  0  0  0
   10.3443  -20.5095   19.4550 N   0  0  0  0  0  0  0  0  0  0  0  0
   10.4103  -20.1994   20.8836 C   0  0  0  0  0  0  0  0  0  0  0  0
   10.8899  -18.7807   20.9839 C   0  0  0  0  0  0  0  0  0  0  0  0
    9.9227  -17.9534   21.7736 C   0  0  0  0  0  0  0  0  0  0  0  0
    9.8016  -16.5322   21.2943 C   0  0  2  0  0  0  0  0  0  0  0  0
   10.8197  -16.1659   20.3617 N   0  0  0  0  0  0  0  0  0  0  0  0
    9.8315  -15.6630   22.5174 C   0  0  0  0  0  0  0  0  0  0  0  0
   10.8892  -15.3594   23.1151 O   0  0  0  0  0  0  0  0  0  0  0  0
    9.1828  -19.2760   17.5270 N   0  0  0  0  0  0  0  0  0  0  0  0
    8.6105  -15.1180   23.0842 C   0  0  2  0  0  0  0  0  0  0  0  0
    8.5660  -14.5882   24.3930 C   0  0  0  0  0  0  0  0  0  0  0  0
    7.1466  -14.2094   24.8238 C   0  0  0  0  0  0  0  0  0  0  0  0
    7.1438  -13.6056   26.2022 C   0  0  0  0  0  0  0  0  0  0  0  0
    6.3614  -12.3207   26.2667 C   0  0  0  0  0  0  0  0  0  0  0  0
    6.4355  -11.6887   27.6547 N   0  0  0  0  0  0  0  0  0  0  0  0
    5.6410  -10.4500   27.6229 C   0  0  0  0  0  0  0  0  0  0  0  0
    9.1743  -15.4377   25.4100 O   0  0  0  0  0  0  0  0  0  0  0  0
    9.2063  -16.7307   25.1878 N   0  0  0  0  0  0  0  0  0  0  0  0
    9.7502  -15.0771   26.6312 C   0  0  0  0  0  0  0  0  0  0  0  0
    9.5317  -13.7738   27.3280 C   0  0  0  0  0  0  0  0  0  0  0  0
   10.3419  -13.7984   28.5703 C   0  0  0  0  0  0  0  0  0  0  0  0
   11.4384  -14.7651   28.2397 C   0  0  1  0  0  0  0  0  0  0  0  0
   10.6413  -15.8304   27.4653 C   0  0  0  0  0  0  0  0  0  0  0  0
    9.8097  -16.5441   28.4910 O   0  0  0  0  0  0  0  0  0  0  0  0
    8.5735  -16.3458   28.5322 O   0  0  0  0  0  0  0  0  0  0  0  0
  2  1  1  0
  3  2  2  0
  4  2  1  0
  5  4  1  0
  6  5  1  0
  7  6  1  0
  8  7  1  0
  8  9  1  6
 10 11  2  0
 10  8  1  0
 12 10  1  0
 13 12  1  0
 13 14  1  6
 14 15  1  0
 16 15  1  0
 17 16  1  0
 18 17  1  0
 19 20  2  0
 19 13  1  0
 21 19  1  0
 22 21  1  0
 23 22  1  0
 24 23  1  0
 24 25  1  0
 25 26  1  1
 25 21  1  0
 26 28  1  0
 27 26  2  0
M  END
$$$$
