RKP.pdb
     RDKit          3D

 28 28  0  0  1  0  0  0  0  0999 V2000
    8.9672  -15.5207   15.7179 N   0  0  0  0  0  0  0  0  0  0  0  0
    8.8102  -14.1362   16.0289 C   0  0  0  0  0  0  0  0  0  0  0  0
    8.1011  -13.3438   15.3159 N   0  0  0  0  0  0  0  0  0  0  0  0
    9.4726  -13.6398   17.1744 N   0  0  0  0  0  0  0  0  0  0  0  0
    8.7005  -13.1256   18.3061 C   0  0  0  0  0  0  0  0  0  0  0  0
    7.4065  -13.8860   18.3120 C   0  0  0  0  0  0  0  0  0  0  0  0
    7.0638  -14.3298   19.7009 C   0  0  0  0  0  0  0  0  0  0  0  0
    8.2507  -14.7830   20.5073 C   0  0  2  0  0  0  0  0  0  0  0  0
    8.8380  -15.9876   20.0129 N   0  0  0  0  0  0  0  0  0  0  0  0
    7.7740  -14.9385   21.9219 C   0  0  0  0  0  0  0  0  0  0  0  0
    7.2228  -14.0150   22.5634 O   0  0  0  0  0  0  0  0  0  0  0  0
    7.9796  -12.3415   15.5427 N   0  0  0  0  0  0  0  0  0  0  0  0
    7.9310  -16.1933   22.6360 C   0  0  1  0  0  0  0  0  0  0  0  0
    7.5993  -16.3214   24.0031 C   0  0  0  0  0  0  0  0  0  0  0  0
    7.7211  -17.7633   24.5030 C   0  0  0  0  0  0  0  0  0  0  0  0
    7.4050  -17.8541   25.9715 C   0  0  0  0  0  0  0  0  0  0  0  0
    7.9002  -19.1349   26.5892 C   0  0  0  0  0  0  0  0  0  0  0  0
    7.5804  -19.1978   28.0809 N   0  0  0  0  0  0  0  0  0  0  0  0
    6.5853  -20.2642   28.2785 C   0  0  0  0  0  0  0  0  0  0  0  0
    8.3401  -15.4329   24.8907 O   0  0  0  0  0  0  0  0  0  0  0  0
    9.6486  -15.5323   24.9028 N   0  0  0  0  0  0  0  0  0  0  0  0
    7.8567  -14.4551   25.7642 C   0  0  0  0  0  0  0  0  0  0  0  0
    6.4167  -14.0943   25.9315 C   0  0  0  0  0  0  0  0  0  0  0  0
    6.3508  -13.0024   26.9334 C   0  0  0  0  0  0  0  0  0  0  0  0
    7.7001  -12.3598   26.8224 C   0  0  1  0  0  0  0  0  0  0  0  0
    8.5867  -13.6081   26.6627 C   0  0  0  0  0  0  0  0  0  0  0  0
    8.5991  -14.2751   28.0073 O   0  0  0  0  0  0  0  0  0  0  0  0
    7.8675  -15.2715   28.2105 O   0  0  0  0  0  0  0  0  0  0  0  0
  2  1  1  0
  3  2  2  0
  4  2  1  0
  5  4  1  0
  6  5  1  0
  7  6  1  0
  8  7  1  0
  8  9  1  6
 10 11  2  0
 10  8  1  0
 12 10  1  0
 13 12  1  0
 13 14  1  1
 14 15  1  0
 16 15  1  0
 17 16  1  0
 18 17  1  0
 19 20  2  0
 19 13  1  0
 21 19  1  0
 22 21  1  0
 23 22  1  0
 24 23  1  0
 24 25  1  0
 25 26  1  1
 25 21  1  0
 26 28  1  0
 27 26  2  0
M  END
$$$$
