RKP.pdb
     RDKit          3D

 28 28  0  0  1  0  0  0  0  0999 V2000
    9.2517  -13.5033   15.3403 N   0  0  0  0  0  0  0  0  0  0  0  0
    9.1021  -13.7239   16.7428 C   0  0  0  0  0  0  0  0  0  0  0  0
    9.7550  -14.6265   17.3739 N   0  0  0  0  0  0  0  0  0  0  0  0
    8.1916  -12.9021   17.4449 N   0  0  0  0  0  0  0  0  0  0  0  0
    8.0220  -13.0589   18.8899 C   0  0  0  0  0  0  0  0  0  0  0  0
    7.3871  -14.4033   19.0950 C   0  0  0  0  0  0  0  0  0  0  0  0
    7.0481  -14.6097   20.5393 C   0  0  0  0  0  0  0  0  0  0  0  0
    6.5643  -15.9979   20.8604 C   0  0  2  0  0  0  0  0  0  0  0  0
    5.3152  -16.3136   20.2436 N   0  0  0  0  0  0  0  0  0  0  0  0
    6.4825  -16.0884   22.3563 C   0  0  0  0  0  0  0  0  0  0  0  0
    5.5699  -15.5515   23.0250 O   0  0  0  0  0  0  0  0  0  0  0  0
    9.5752  -14.8589   18.3661 N   0  0  0  0  0  0  0  0  0  0  0  0
    7.4780  -16.8170   23.1225 C   0  0  2  0  0  0  0  0  0  0  0  0
    7.5046  -16.7848   24.5345 C   0  0  0  0  0  0  0  0  0  0  0  0
    7.8756  -18.1391   25.1446 C   0  0  0  0  0  0  0  0  0  0  0  0
    7.9680  -18.0486   26.6438 C   0  0  0  0  0  0  0  0  0  0  0  0
    8.3797  -19.3521   27.2753 C   0  0  0  0  0  0  0  0  0  0  0  0
    8.4983  -19.2270   28.7924 N   0  0  0  0  0  0  0  0  0  0  0  0
    8.7199  -20.5773   29.3347 C   0  0  0  0  0  0  0  0  0  0  0  0
    8.3566  -15.7452   25.0994 O   0  0  0  0  0  0  0  0  0  0  0  0
    9.6332  -15.7688   24.7963 N   0  0  0  0  0  0  0  0  0  0  0  0
    8.0139  -14.6874   25.9459 C   0  0  0  0  0  0  0  0  0  0  0  0
    6.6296  -14.3850   26.4193 C   0  0  0  0  0  0  0  0  0  0  0  0
    6.7117  -13.1749   27.2734 C   0  0  0  0  0  0  0  0  0  0  0  0
    7.9374  -12.4816   26.7604 C   0  0  1  0  0  0  0  0  0  0  0  0
    8.8623  -13.6910   26.5330 C   0  0  0  0  0  0  0  0  0  0  0  0
    9.2494  -14.1722   27.9011 O   0  0  0  0  0  0  0  0  0  0  0  0
    8.6789  -15.1753   28.3885 O   0  0  0  0  0  0  0  0  0  0  0  0
  2  1  1  0
  3  2  2  0
  4  2  1  0
  5  4  1  0
  6  5  1  0
  7  6  1  0
  8  7  1  0
  8  9  1  6
 10 11  2  0
 10  8  1  0
 12 10  1  0
 13 12  1  0
 13 14  1  6
 14 15  1  0
 16 15  1  0
 17 16  1  0
 18 17  1  0
 19 20  2  0
 19 13  1  0
 21 19  1  0
 22 21  1  0
 23 22  1  0
 24 23  1  0
 24 25  1  0
 25 26  1  1
 25 21  1  0
 26 28  1  0
 27 26  2  0
M  END
$$$$
