RKP.pdb
     RDKit          3D

 28 28  0  0  1  0  0  0  0  0999 V2000
    8.2187  -13.9825   14.4423 N   0  0  0  0  0  0  0  0  0  0  0  0
    8.8028  -13.8612   15.7393 C   0  0  0  0  0  0  0  0  0  0  0  0
    9.1076  -12.7305   16.2570 N   0  0  0  0  0  0  0  0  0  0  0  0
    9.0464  -15.0491   16.4652 N   0  0  0  0  0  0  0  0  0  0  0  0
    9.0553  -15.0289   17.9283 C   0  0  0  0  0  0  0  0  0  0  0  0
    7.6452  -14.7391   18.3531 C   0  0  0  0  0  0  0  0  0  0  0  0
    7.5609  -14.6103   19.8430 C   0  0  0  0  0  0  0  0  0  0  0  0
    7.7064  -15.9153   20.5778 C   0  0  2  0  0  0  0  0  0  0  0  0
    7.1195  -17.0179   19.8847 N   0  0  0  0  0  0  0  0  0  0  0  0
    7.0867  -15.7174   21.9303 C   0  0  0  0  0  0  0  0  0  0  0  0
    6.0567  -15.0299   22.1168 O   0  0  0  0  0  0  0  0  0  0  0  0
    9.4563  -12.6328   17.2263 N   0  0  0  0  0  0  0  0  0  0  0  0
    7.6611  -16.3241   23.1181 C   0  0  2  0  0  0  0  0  0  0  0  0
    7.1984  -16.0105   24.4154 C   0  0  0  0  0  0  0  0  0  0  0  0
    6.8379  -17.2580   25.2264 C   0  0  0  0  0  0  0  0  0  0  0  0
    7.9870  -18.2288   25.2631 C   0  0  0  0  0  0  0  0  0  0  0  0
    7.6878  -19.4444   26.0999 C   0  0  0  0  0  0  0  0  0  0  0  0
    8.9210  -20.3296   26.2633 N   0  0  0  0  0  0  0  0  0  0  0  0
    8.5825  -21.3920   27.2242 C   0  0  0  0  0  0  0  0  0  0  0  0
    8.1003  -15.1677   25.1915 O   0  0  0  0  0  0  0  0  0  0  0  0
    9.3866  -15.4161   25.1155 N   0  0  0  0  0  0  0  0  0  0  0  0
    7.7980  -14.0963   26.0362 C   0  0  0  0  0  0  0  0  0  0  0  0
    6.4416  -13.4916   26.1985 C   0  0  0  0  0  0  0  0  0  0  0  0
    6.5713  -12.3747   27.1661 C   0  0  0  0  0  0  0  0  0  0  0  0
    8.0089  -11.9739   27.0291 C   0  0  1  0  0  0  0  0  0  0  0  0
    8.6696  -13.3588   26.9045 C   0  0  0  0  0  0  0  0  0  0  0  0
    8.5818  -13.9775   28.2692 O   0  0  0  0  0  0  0  0  0  0  0  0
    9.3375  -13.5718   29.1822 O   0  0  0  0  0  0  0  0  0  0  0  0
  2  1  1  0
  3  2  2  0
  4  2  1  0
  5  4  1  0
  6  5  1  0
  7  6  1  0
  8  7  1  0
  8  9  1  6
 10 11  2  0
 10  8  1  0
 12 10  1  0
 13 12  1  0
 13 14  1  6
 14 15  1  0
 16 15  1  0
 17 16  1  0
 18 17  1  0
 19 20  2  0
 19 13  1  0
 21 19  1  0
 22 21  1  0
 23 22  1  0
 24 23  1  0
 24 25  1  0
 25 26  1  1
 25 21  1  0
 26 28  1  0
 27 26  2  0
M  END
$$$$
