RKP.pdb
     RDKit          3D

 28 28  0  0  1  0  0  0  0  0999 V2000
    9.3106  -13.8616   14.2995 N   0  0  0  0  0  0  0  0  0  0  0  0
    8.5676  -13.6836   15.5054 C   0  0  0  0  0  0  0  0  0  0  0  0
    8.2029  -12.5316   15.9288 N   0  0  0  0  0  0  0  0  0  0  0  0
    8.2308  -14.8382   16.2475 N   0  0  0  0  0  0  0  0  0  0  0  0
    7.3424  -14.7356   17.4057 C   0  0  0  0  0  0  0  0  0  0  0  0
    8.2092  -14.3444   18.5668 C   0  0  0  0  0  0  0  0  0  0  0  0
    7.4813  -14.5510   19.8595 C   0  0  0  0  0  0  0  0  0  0  0  0
    7.6016  -15.9455   20.4118 C   0  0  2  0  0  0  0  0  0  0  0  0
    6.7906  -16.8954   19.7186 N   0  0  0  0  0  0  0  0  0  0  0  0
    7.2395  -15.8637   21.8659 C   0  0  0  0  0  0  0  0  0  0  0  0
    6.3400  -15.1114   22.3055 O   0  0  0  0  0  0  0  0  0  0  0  0
    7.7075  -12.3947   16.8270 N   0  0  0  0  0  0  0  0  0  0  0  0
    7.9278  -16.6681   22.8600 C   0  0  1  0  0  0  0  0  0  0  0  0
    7.6382  -16.5611   24.2385 C   0  0  0  0  0  0  0  0  0  0  0  0
    7.8348  -17.8843   24.9830 C   0  0  0  0  0  0  0  0  0  0  0  0
    7.5342  -17.7286   26.4493 C   0  0  0  0  0  0  0  0  0  0  0  0
    7.7741  -18.9970   27.2244 C   0  0  0  0  0  0  0  0  0  0  0  0
    7.3641  -18.8457   28.6874 N   0  0  0  0  0  0  0  0  0  0  0  0
    7.6183  -20.1319   29.3564 C   0  0  0  0  0  0  0  0  0  0  0  0
    8.3636  -15.5007   24.9280 O   0  0  0  0  0  0  0  0  0  0  0  0
    9.6691  -15.4683   24.7983 N   0  0  0  0  0  0  0  0  0  0  0  0
    7.8676  -14.4745   25.7367 C   0  0  0  0  0  0  0  0  0  0  0  0
    6.4400  -14.3267   26.1512 C   0  0  0  0  0  0  0  0  0  0  0  0
    6.3479  -13.0998   26.9799 C   0  0  0  0  0  0  0  0  0  0  0  0
    7.5045  -12.2781   26.4971 C   0  0  1  0  0  0  0  0  0  0  0  0
    8.5713  -13.3755   26.3320 C   0  0  0  0  0  0  0  0  0  0  0  0
    8.9569  -13.7831   27.7242 O   0  0  0  0  0  0  0  0  0  0  0  0
    9.7020  -13.0391   28.4027 O   0  0  0  0  0  0  0  0  0  0  0  0
  2  1  1  0
  3  2  2  0
  4  2  1  0
  5  4  1  0
  6  5  1  0
  7  6  1  0
  8  7  1  0
  8  9  1  6
 10 11  2  0
 10  8  1  0
 12 10  1  0
 13 12  1  0
 13 14  1  1
 14 15  1  0
 16 15  1  0
 17 16  1  0
 18 17  1  0
 19 20  2  0
 19 13  1  0
 21 19  1  0
 22 21  1  0
 23 22  1  0
 24 23  1  0
 24 25  1  0
 25 26  1  1
 25 21  1  0
 26 28  1  0
 27 26  2  0
M  END
$$$$
