RKP.pdb
     RDKit          3D

 28 28  0  0  1  0  0  0  0  0999 V2000
   11.1322  -14.4664   20.5767 N   0  0  0  0  0  0  0  0  0  0  0  0
   11.7462  -13.8154   19.4644 C   0  0  0  0  0  0  0  0  0  0  0  0
   12.9671  -14.0150   19.1345 N   0  0  0  0  0  0  0  0  0  0  0  0
   10.9574  -12.9180   18.7095 N   0  0  0  0  0  0  0  0  0  0  0  0
    9.5900  -12.6084   19.1284 C   0  0  0  0  0  0  0  0  0  0  0  0
    8.8586  -13.9181   19.1765 C   0  0  0  0  0  0  0  0  0  0  0  0
    7.9881  -13.9898   20.3933 C   0  0  0  0  0  0  0  0  0  0  0  0
    7.3231  -15.3252   20.5903 C   0  0  2  0  0  0  0  0  0  0  0  0
    6.1725  -15.5065   19.7635 N   0  0  0  0  0  0  0  0  0  0  0  0
    6.9793  -15.4222   22.0480 C   0  0  0  0  0  0  0  0  0  0  0  0
    6.1630  -14.6571   22.6106 O   0  0  0  0  0  0  0  0  0  0  0  0
   13.4306  -13.5046   18.3629 N   0  0  0  0  0  0  0  0  0  0  0  0
    7.5882  -16.4281   22.9003 C   0  0  2  0  0  0  0  0  0  0  0  0
    7.4052  -16.4306   24.3010 C   0  0  0  0  0  0  0  0  0  0  0  0
    7.3735  -17.8454   24.8852 C   0  0  0  0  0  0  0  0  0  0  0  0
    6.2217  -18.6351   24.3248 C   0  0  0  0  0  0  0  0  0  0  0  0
    6.1660  -20.0379   24.8693 C   0  0  0  0  0  0  0  0  0  0  0  0
    5.0342  -20.8414   24.2330 N   0  0  0  0  0  0  0  0  0  0  0  0
    5.1682  -22.2354   24.6862 C   0  0  0  0  0  0  0  0  0  0  0  0
    8.3674  -15.6198   25.0377 O   0  0  0  0  0  0  0  0  0  0  0  0
    9.6383  -15.7595   24.7422 N   0  0  0  0  0  0  0  0  0  0  0  0
    8.1397  -14.6818   26.0482 C   0  0  0  0  0  0  0  0  0  0  0  0
    6.7934  -14.2912   26.5649 C   0  0  0  0  0  0  0  0  0  0  0  0
    7.0058  -13.2586   27.6084 C   0  0  0  0  0  0  0  0  0  0  0  0
    8.3180  -12.6486   27.2183 C   0  0  1  0  0  0  0  0  0  0  0  0
    9.0917  -13.9098   26.7932 C   0  0  0  0  0  0  0  0  0  0  0  0
    9.3876  -14.6546   28.0623 O   0  0  0  0  0  0  0  0  0  0  0  0
   10.2607  -14.2175   28.8471 O   0  0  0  0  0  0  0  0  0  0  0  0
  2  1  1  0
  3  2  2  0
  4  2  1  0
  5  4  1  0
  6  5  1  0
  7  6  1  0
  8  7  1  0
  8  9  1  6
 10 11  2  0
 10  8  1  0
 12 10  1  0
 13 12  1  0
 13 14  1  6
 14 15  1  0
 16 15  1  0
 17 16  1  0
 18 17  1  0
 19 20  2  0
 19 13  1  0
 21 19  1  0
 22 21  1  0
 23 22  1  0
 24 23  1  0
 24 25  1  0
 25 26  1  1
 25 21  1  0
 26 28  1  0
 27 26  2  0
M  END
$$$$
