RKP.pdb
     RDKit          3D

 28 28  0  0  1  0  0  0  0  0999 V2000
    9.2391  -11.6436   19.4960 N   0  0  0  0  0  0  0  0  0  0  0  0
    8.7939  -12.7070   18.6540 C   0  0  0  0  0  0  0  0  0  0  0  0
    9.2760  -12.9115   17.4856 N   0  0  0  0  0  0  0  0  0  0  0  0
    7.7791  -13.5572   19.1485 N   0  0  0  0  0  0  0  0  0  0  0  0
    7.2584  -14.6428   18.3168 C   0  0  0  0  0  0  0  0  0  0  0  0
    7.5508  -15.9158   19.0560 C   0  0  0  0  0  0  0  0  0  0  0  0
    7.1026  -15.8110   20.4813 C   0  0  0  0  0  0  0  0  0  0  0  0
    7.2500  -17.0882   21.2631 C   0  0  2  0  0  0  0  0  0  0  0  0
    6.4345  -18.1493   20.7634 N   0  0  0  0  0  0  0  0  0  0  0  0
    6.9186  -16.7588   22.6893 C   0  0  0  0  0  0  0  0  0  0  0  0
    5.8619  -16.1792   23.0297 O   0  0  0  0  0  0  0  0  0  0  0  0
    8.9289  -13.6573   16.8579 N   0  0  0  0  0  0  0  0  0  0  0  0
    7.8246  -17.1007   23.7715 C   0  0  1  0  0  0  0  0  0  0  0  0
    7.5778  -16.7061   25.1053 C   0  0  0  0  0  0  0  0  0  0  0  0
    7.6002  -17.8871   26.0794 C   0  0  0  0  0  0  0  0  0  0  0  0
    6.7293  -19.0106   25.5858 C   0  0  0  0  0  0  0  0  0  0  0  0
    6.7699  -20.2120   26.4926 C   0  0  0  0  0  0  0  0  0  0  0  0
    6.0771  -21.4160   25.8588 N   0  0  0  0  0  0  0  0  0  0  0  0
    6.3598  -22.5880   26.7033 C   0  0  0  0  0  0  0  0  0  0  0  0
    8.4571  -15.6517   25.5963 O   0  0  0  0  0  0  0  0  0  0  0  0
    9.7451  -15.7792   25.3798 N   0  0  0  0  0  0  0  0  0  0  0  0
    8.1308  -14.4822   26.2882 C   0  0  0  0  0  0  0  0  0  0  0  0
    6.7411  -13.9863   26.5217 C   0  0  0  0  0  0  0  0  0  0  0  0
    6.8498  -12.7110   27.2716 C   0  0  0  0  0  0  0  0  0  0  0  0
    8.2095  -12.2093   26.8900 C   0  0  1  0  0  0  0  0  0  0  0  0
    9.0039  -13.5278   26.9080 C   0  0  0  0  0  0  0  0  0  0  0  0
    9.1364  -13.9052   28.3547 O   0  0  0  0  0  0  0  0  0  0  0  0
    8.3841  -14.7833   28.8365 O   0  0  0  0  0  0  0  0  0  0  0  0
  2  1  1  0
  3  2  2  0
  4  2  1  0
  5  4  1  0
  6  5  1  0
  7  6  1  0
  8  7  1  0
  8  9  1  6
 10 11  2  0
 10  8  1  0
 12 10  1  0
 13 12  1  0
 13 14  1  6
 14 15  1  0
 16 15  1  0
 17 16  1  0
 18 17  1  0
 19 20  2  0
 19 13  1  0
 21 19  1  0
 22 21  1  0
 23 22  1  0
 24 23  1  0
 24 25  1  0
 25 26  1  1
 25 21  1  0
 26 28  1  0
 27 26  2  0
M  END
$$$$
