RKP.pdb
     RDKit          3D

 28 28  0  0  1  0  0  0  0  0999 V2000
    9.8585  -13.0901   20.5328 N   0  0  0  0  0  0  0  0  0  0  0  0
    8.9647  -12.3241   19.7251 C   0  0  0  0  0  0  0  0  0  0  0  0
    9.0871  -11.0594   19.5675 N   0  0  0  0  0  0  0  0  0  0  0  0
    7.9084  -13.0081   19.0819 N   0  0  0  0  0  0  0  0  0  0  0  0
    8.0659  -14.4116   18.6988 C   0  0  0  0  0  0  0  0  0  0  0  0
    7.9490  -15.2085   19.9653 C   0  0  0  0  0  0  0  0  0  0  0  0
    7.0280  -16.3735   19.7703 C   0  0  0  0  0  0  0  0  0  0  0  0
    7.2337  -17.4869   20.7613 C   0  0  2  0  0  0  0  0  0  0  0  0
    6.4810  -18.6606   20.4509 N   0  0  0  0  0  0  0  0  0  0  0  0
    6.8694  -16.9348   22.1085 C   0  0  0  0  0  0  0  0  0  0  0  0
    5.7682  -16.3890   22.3490 O   0  0  0  0  0  0  0  0  0  0  0  0
    8.4708  -10.5092   18.9444 N   0  0  0  0  0  0  0  0  0  0  0  0
    7.7936  -17.0050   23.2264 C   0  0  1  0  0  0  0  0  0  0  0  0
    7.4086  -16.6474   24.5377 C   0  0  0  0  0  0  0  0  0  0  0  0
    7.4609  -17.8312   25.5071 C   0  0  0  0  0  0  0  0  0  0  0  0
    6.7382  -19.0240   24.9420 C   0  0  0  0  0  0  0  0  0  0  0  0
    6.7871  -20.2158   25.8611 C   0  0  0  0  0  0  0  0  0  0  0  0
    6.1977  -21.4588   25.1986 N   0  0  0  0  0  0  0  0  0  0  0  0
    6.2722  -22.5601   26.1723 C   0  0  0  0  0  0  0  0  0  0  0  0
    8.1481  -15.5234   25.0995 O   0  0  0  0  0  0  0  0  0  0  0  0
    9.3978  -15.3677   24.7304 N   0  0  0  0  0  0  0  0  0  0  0  0
    7.7185  -14.5490   26.0045 C   0  0  0  0  0  0  0  0  0  0  0  0
    6.3752  -14.5215   26.6577 C   0  0  0  0  0  0  0  0  0  0  0  0
    6.3300  -13.3145   27.5188 C   0  0  0  0  0  0  0  0  0  0  0  0
    7.3197  -12.3970   26.8671 C   0  0  1  0  0  0  0  0  0  0  0  0
    8.4252  -13.4027   26.4982 C   0  0  0  0  0  0  0  0  0  0  0  0
    9.0730  -13.7917   27.7951 O   0  0  0  0  0  0  0  0  0  0  0  0
    8.7850  -14.8892   28.3259 O   0  0  0  0  0  0  0  0  0  0  0  0
  2  1  1  0
  3  2  2  0
  4  2  1  0
  5  4  1  0
  6  5  1  0
  7  6  1  0
  8  7  1  0
  8  9  1  6
 10 11  2  0
 10  8  1  0
 12 10  1  0
 13 12  1  0
 13 14  1  1
 14 15  1  0
 16 15  1  0
 17 16  1  0
 18 17  1  0
 19 20  2  0
 19 13  1  0
 21 19  1  0
 22 21  1  0
 23 22  1  0
 24 23  1  0
 24 25  1  0
 25 26  1  1
 25 21  1  0
 26 28  1  0
 27 26  2  0
M  END
$$$$
