RKP.pdb
     RDKit          3D

 28 28  0  0  1  0  0  0  0  0999 V2000
    7.5257  -12.4613   17.4854 N   0  0  0  0  0  0  0  0  0  0  0  0
    8.3537  -13.3752   16.7661 C   0  0  0  0  0  0  0  0  0  0  0  0
    8.6561  -13.2102   15.5329 N   0  0  0  0  0  0  0  0  0  0  0  0
    8.8496  -14.5012   17.4613 N   0  0  0  0  0  0  0  0  0  0  0  0
    7.9799  -15.2446   18.3736 C   0  0  0  0  0  0  0  0  0  0  0  0
    7.8563  -14.4066   19.6126 C   0  0  0  0  0  0  0  0  0  0  0  0
    9.0478  -14.6002   20.4993 C   0  0  0  0  0  0  0  0  0  0  0  0
    9.1588  -15.9844   21.0791 C   0  0  2  0  0  0  0  0  0  0  0  0
    8.4853  -16.9746   20.3003 N   0  0  0  0  0  0  0  0  0  0  0  0
    8.6117  -15.9100   22.4746 C   0  0  0  0  0  0  0  0  0  0  0  0
    7.7749  -15.0514   22.8364 O   0  0  0  0  0  0  0  0  0  0  0  0
    9.2003  -13.9037   14.9909 N   0  0  0  0  0  0  0  0  0  0  0  0
    9.0332  -16.8481   23.4999 C   0  0  1  0  0  0  0  0  0  0  0  0
    8.5830  -16.7476   24.8351 C   0  0  0  0  0  0  0  0  0  0  0  0
    8.0122  -18.0669   25.3620 C   0  0  0  0  0  0  0  0  0  0  0  0
    6.9387  -18.5936   24.4484 C   0  0  0  0  0  0  0  0  0  0  0  0
    6.4751  -19.9720   24.8391 C   0  0  0  0  0  0  0  0  0  0  0  0
    5.3634  -20.4709   23.9191 N   0  0  0  0  0  0  0  0  0  0  0  0
    5.0287  -21.8444   24.3293 C   0  0  0  0  0  0  0  0  0  0  0  0
    9.5774  -16.2375   25.7715 O   0  0  0  0  0  0  0  0  0  0  0  0
   10.8027  -16.6968   25.6728 N   0  0  0  0  0  0  0  0  0  0  0  0
    9.4242  -15.3008   26.7972 C   0  0  0  0  0  0  0  0  0  0  0  0
    8.1711  -14.5376   27.0782 C   0  0  0  0  0  0  0  0  0  0  0  0
    8.4496  -13.6437   28.2288 C   0  0  0  0  0  0  0  0  0  0  0  0
    9.9332  -13.4460   28.1519 C   0  0  1  0  0  0  0  0  0  0  0  0
   10.3810  -14.8698   27.7751 C   0  0  0  0  0  0  0  0  0  0  0  0
   10.1775  -15.7017   29.0078 O   0  0  0  0  0  0  0  0  0  0  0  0
   10.9674  -15.5817   29.9726 O   0  0  0  0  0  0  0  0  0  0  0  0
  2  1  1  0
  3  2  2  0
  4  2  1  0
  5  4  1  0
  6  5  1  0
  7  6  1  0
  8  7  1  0
  8  9  1  6
 10 11  2  0
 10  8  1  0
 12 10  1  0
 13 12  1  0
 13 14  1  1
 14 15  1  0
 16 15  1  0
 17 16  1  0
 18 17  1  0
 19 20  2  0
 19 13  1  0
 21 19  1  0
 22 21  1  0
 23 22  1  0
 24 23  1  0
 24 25  1  0
 25 26  1  1
 25 21  1  0
 26 28  1  0
 27 26  2  0
M  END
$$$$
