AEV.pdb
     RDKit          3D

 22 21  0  0  1  0  0  0  0  0999 V2000
   16.2421  -12.3608  -17.0991 C   0  0  0  0  0  0  0  0  0  0  0  0
   17.1811  -11.9977  -15.9661 C   0  0  2  0  0  0  0  0  0  0  0  0
   16.4624  -11.9849  -14.7083 N   0  0  0  0  0  0  0  0  0  0  0  0
   17.7489  -10.6468  -16.2362 C   0  0  0  0  0  0  0  0  0  0  0  0
   18.4508  -10.4773  -17.2617 O   0  0  0  0  0  0  0  0  0  0  0  0
   17.5281   -9.5487  -15.3825 N   0  0  0  0  0  0  0  0  0  0  0  0
   18.1978   -8.2538  -15.5792 C   0  0  1  0  0  0  0  0  0  0  0  0
   17.0952   -7.2306  -15.5703 C   0  0  0  0  0  0  0  0  0  0  0  0
   16.3313   -7.1709  -16.8735 C   0  0  0  0  0  0  0  0  0  0  0  0
   15.2807   -6.1082  -16.8026 C   0  0  0  0  0  0  0  0  0  0  0  0
   14.7444   -5.7682  -15.7297 O   0  0  0  0  0  0  0  0  0  0  0  0
   19.2360   -8.0446  -14.5650 C   0  0  0  0  0  0  0  0  0  0  0  0
   19.0733   -8.1852  -13.3471 O   0  0  0  0  0  0  0  0  0  0  0  0
   14.9095   -5.4976  -17.9809 O   0  0  0  0  0  0  0  0  0  0  0  0
   23.2752   -8.0710  -15.8596 C   0  0  0  0  0  0  0  0  0  0  0  0
   22.8731   -8.2378  -14.4284 C   0  0  2  0  0  0  0  0  0  0  0  0
   22.5981   -9.6969  -14.1523 C   0  0  0  0  0  0  0  0  0  0  0  0
   21.6311   -7.4595  -14.0606 C   0  0  2  0  0  0  0  0  0  0  0  0
   20.5532   -7.6447  -14.9974 N   0  0  0  0  0  0  0  0  0  0  0  0
   21.9514   -6.0201  -13.8797 C   0  0  0  0  0  0  0  0  0  0  0  0
   22.7143   -5.6496  -12.9571 O   0  0  0  0  0  0  0  0  0  0  0  0
   21.4221   -5.0557  -14.7163 O   0  0  0  0  0  0  0  0  0  0  0  0
  2  1  1  6
  2  3  1  0
  4  2  1  0
  4  6  1  0
  5  4  2  0
  7  6  1  0
  7 12  1  0
  7  8  1  1
  9  8  1  0
  9 10  1  0
 10 14  1  0
 11 10  2  0
 12 19  1  0
 12 13  2  0
 16 15  1  6
 17 16  1  0
 18 16  1  0
 18 20  1  0
 18 19  1  6
 20 22  1  0
 21 20  2  0
M  END
$$$$
