AEV.pdb
     RDKit          3D

 22 21  0  0  1  0  0  0  0  0999 V2000
   14.0517  -11.2502  -13.9550 C   0  0  0  0  0  0  0  0  0  0  0  0
   15.5441  -11.2064  -14.2158 C   0  0  2  0  0  0  0  0  0  0  0  0
   16.0743  -12.5518  -14.3017 N   0  0  0  0  0  0  0  0  0  0  0  0
   16.1995  -10.4767  -13.0942 C   0  0  0  0  0  0  0  0  0  0  0  0
   16.3333  -11.0553  -11.9895 O   0  0  0  0  0  0  0  0  0  0  0  0
   16.6767   -9.1581  -13.2256 N   0  0  0  0  0  0  0  0  0  0  0  0
   17.3112   -8.4377  -12.1111 C   0  0  1  0  0  0  0  0  0  0  0  0
   18.5767   -7.8582  -12.6816 C   0  0  0  0  0  0  0  0  0  0  0  0
   19.6919   -8.8719  -12.8008 C   0  0  0  0  0  0  0  0  0  0  0  0
   20.9490   -8.1989  -13.2533 C   0  0  0  0  0  0  0  0  0  0  0  0
   21.0081   -6.9742  -13.4793 O   0  0  0  0  0  0  0  0  0  0  0  0
   16.3905   -7.4518  -11.5363 C   0  0  0  0  0  0  0  0  0  0  0  0
   15.6170   -6.7415  -12.1896 O   0  0  0  0  0  0  0  0  0  0  0  0
   22.0695   -8.9837  -13.4190 O   0  0  0  0  0  0  0  0  0  0  0  0
   14.8753   -7.6473   -7.5251 C   0  0  0  0  0  0  0  0  0  0  0  0
   14.4403   -6.7750   -8.6598 C   0  0  2  0  0  0  0  0  0  0  0  0
   13.5466   -7.5659   -9.5853 C   0  0  0  0  0  0  0  0  0  0  0  0
   15.5915   -6.2407   -9.4800 C   0  0  2  0  0  0  0  0  0  0  0  0
   16.3682   -7.2806  -10.1037 N   0  0  0  0  0  0  0  0  0  0  0  0
   16.4455   -5.3440   -8.6591 C   0  0  0  0  0  0  0  0  0  0  0  0
   17.5704   -5.7266   -8.2607 O   0  0  0  0  0  0  0  0  0  0  0  0
   16.0282   -4.0724   -8.3137 O   0  0  0  0  0  0  0  0  0  0  0  0
  2  1  1  1
  2  3  1  0
  4  2  1  0
  4  6  1  0
  5  4  2  0
  7  6  1  0
  7 12  1  0
  7  8  1  6
  9  8  1  0
  9 10  1  0
 10 14  1  0
 11 10  2  0
 12 19  1  0
 12 13  2  0
 16 15  1  1
 17 16  1  0
 18 16  1  0
 18 20  1  0
 18 19  1  1
 20 22  1  0
 21 20  2  0
M  END
$$$$
