AEV.pdb
     RDKit          3D

 22 21  0  0  1  0  0  0  0  0999 V2000
   25.8706  -17.9073  -18.3006 C   0  0  0  0  0  0  0  0  0  0  0  0
   26.5705  -18.8527  -17.3447 C   0  0  2  0  0  0  0  0  0  0  0  0
   26.6665  -20.1735  -17.9318 N   0  0  0  0  0  0  0  0  0  0  0  0
   25.7825  -18.9182  -16.0818 C   0  0  0  0  0  0  0  0  0  0  0  0
   25.6037  -17.8664  -15.4226 O   0  0  0  0  0  0  0  0  0  0  0  0
   25.2285  -20.1189  -15.5971 N   0  0  0  0  0  0  0  0  0  0  0  0
   24.4383  -20.1751  -14.3576 C   0  0  1  0  0  0  0  0  0  0  0  0
   23.2138  -20.9777  -14.7029 C   0  0  0  0  0  0  0  0  0  0  0  0
   22.0417  -20.1200  -15.1225 C   0  0  0  0  0  0  0  0  0  0  0  0
   22.0063  -19.9955  -16.6129 C   0  0  0  0  0  0  0  0  0  0  0  0
   23.0389  -19.8546  -17.2971 O   0  0  0  0  0  0  0  0  0  0  0  0
   25.2367  -20.7195  -13.2547 C   0  0  0  0  0  0  0  0  0  0  0  0
   26.2113  -21.4688  -13.3900 O   0  0  0  0  0  0  0  0  0  0  0  0
   20.7743  -20.0414  -17.2285 O   0  0  0  0  0  0  0  0  0  0  0  0
   26.9307  -18.6658  -10.5078 C   0  0  0  0  0  0  0  0  0  0  0  0
   26.0547  -19.6857   -9.8519 C   0  0  2  0  0  0  0  0  0  0  0  0
   26.7851  -20.2924   -8.6775 C   0  0  0  0  0  0  0  0  0  0  0  0
   25.6538  -20.8133  -10.7746 C   0  0  2  0  0  0  0  0  0  0  0  0
   24.8768  -20.3680  -11.9024 N   0  0  0  0  0  0  0  0  0  0  0  0
   24.9502  -21.8814  -10.0188 C   0  0  0  0  0  0  0  0  0  0  0  0
   23.7041  -21.9947  -10.0892 O   0  0  0  0  0  0  0  0  0  0  0  0
   25.6431  -22.7738   -9.2227 O   0  0  0  0  0  0  0  0  0  0  0  0
  2  1  1  6
  2  3  1  0
  4  2  1  0
  4  6  1  0
  5  4  2  0
  7  6  1  0
  7 12  1  0
  7  8  1  6
  9  8  1  0
  9 10  1  0
 10 14  1  0
 11 10  2  0
 12 19  1  0
 12 13  2  0
 16 15  1  6
 17 16  1  0
 18 16  1  0
 18 20  1  0
 18 19  1  6
 20 22  1  0
 21 20  2  0
M  END
$$$$
