AEV.pdb
     RDKit          3D

 22 21  0  0  1  0  0  0  0  0999 V2000
   19.2964  -14.8476  -19.0085 C   0  0  0  0  0  0  0  0  0  0  0  0
   18.7290  -14.0786  -17.8321 C   0  0  2  0  0  0  0  0  0  0  0  0
   17.3248  -13.7978  -18.0514 N   0  0  0  0  0  0  0  0  0  0  0  0
   19.4831  -12.8011  -17.6934 C   0  0  0  0  0  0  0  0  0  0  0  0
   20.7213  -12.8451  -17.4988 O   0  0  0  0  0  0  0  0  0  0  0  0
   18.8585  -11.5412  -17.7724 N   0  0  0  0  0  0  0  0  0  0  0  0
   19.6172  -10.2828  -17.7053 C   0  0  1  0  0  0  0  0  0  0  0  0
   18.8196   -9.2943  -18.5111 C   0  0  0  0  0  0  0  0  0  0  0  0
   19.1576   -9.3206  -19.9845 C   0  0  0  0  0  0  0  0  0  0  0  0
   18.3433   -8.2998  -20.7145 C   0  0  0  0  0  0  0  0  0  0  0  0
   18.6635   -7.0957  -20.7588 O   0  0  0  0  0  0  0  0  0  0  0  0
   19.8525   -9.8898  -16.3123 C   0  0  0  0  0  0  0  0  0  0  0  0
   19.0070   -9.9398  -15.4110 O   0  0  0  0  0  0  0  0  0  0  0  0
   17.2014   -8.7318  -21.3535 O   0  0  0  0  0  0  0  0  0  0  0  0
   23.8764   -9.6050  -14.8381 C   0  0  0  0  0  0  0  0  0  0  0  0
   22.6416   -9.6948  -13.9986 C   0  0  2  0  0  0  0  0  0  0  0  0
   22.2594  -11.1453  -13.8235 C   0  0  0  0  0  0  0  0  0  0  0  0
   21.4551   -8.9775  -14.5998 C   0  0  2  0  0  0  0  0  0  0  0  0
   21.1605   -9.4055  -15.9428 N   0  0  0  0  0  0  0  0  0  0  0  0
   21.6438   -7.5056  -14.5285 C   0  0  0  0  0  0  0  0  0  0  0  0
   21.8132   -6.8350  -15.5736 O   0  0  0  0  0  0  0  0  0  0  0  0
   21.6382   -6.8383  -13.3182 O   0  0  0  0  0  0  0  0  0  0  0  0
  2  1  1  6
  2  3  1  0
  4  2  1  0
  4  6  1  0
  5  4  2  0
  7  6  1  0
  7 12  1  0
  7  8  1  6
  9  8  1  0
  9 10  1  0
 10 14  1  0
 11 10  2  0
 12 19  1  0
 12 13  2  0
 16 15  1  6
 17 16  1  0
 18 16  1  0
 18 20  1  0
 18 19  1  6
 20 22  1  0
 21 20  2  0
M  END
$$$$
