AEV.pdb
     RDKit          3D

 22 21  0  0  1  0  0  0  0  0999 V2000
   12.8829  -11.8070  -13.3118 C   0  0  0  0  0  0  0  0  0  0  0  0
   14.3530  -11.8373  -13.6793 C   0  0  2  0  0  0  0  0  0  0  0  0
   14.9155  -13.1374  -13.3762 N   0  0  0  0  0  0  0  0  0  0  0  0
   15.0592  -10.7866  -12.8934 C   0  0  0  0  0  0  0  0  0  0  0  0
   15.4255  -11.0476  -11.7227 O   0  0  0  0  0  0  0  0  0  0  0  0
   15.3328   -9.5073  -13.4150 N   0  0  0  0  0  0  0  0  0  0  0  0
   16.1315   -8.5141  -12.6805 C   0  0  1  0  0  0  0  0  0  0  0  0
   16.9867   -7.8438  -13.7208 C   0  0  0  0  0  0  0  0  0  0  0  0
   17.8948   -6.7803  -13.1463 C   0  0  0  0  0  0  0  0  0  0  0  0
   18.7470   -6.1962  -14.2283 C   0  0  0  0  0  0  0  0  0  0  0  0
   18.7932   -4.9713  -14.4555 O   0  0  0  0  0  0  0  0  0  0  0  0
   15.2651   -7.6064  -11.9219 C   0  0  0  0  0  0  0  0  0  0  0  0
   14.2266   -7.0931  -12.3554 O   0  0  0  0  0  0  0  0  0  0  0  0
   19.4995   -7.0656  -14.9878 O   0  0  0  0  0  0  0  0  0  0  0  0
   15.6912   -7.3182   -7.6163 C   0  0  0  0  0  0  0  0  0  0  0  0
   14.4989   -6.8956   -8.4147 C   0  0  2  0  0  0  0  0  0  0  0  0
   13.5859   -8.0815   -8.6172 C   0  0  0  0  0  0  0  0  0  0  0  0
   14.8538   -6.3520   -9.7793 C   0  0  2  0  0  0  0  0  0  0  0  0
   15.6317   -7.2731  -10.5668 N   0  0  0  0  0  0  0  0  0  0  0  0
   15.5320   -5.0358   -9.6567 C   0  0  0  0  0  0  0  0  0  0  0  0
   14.9265   -4.0513   -9.1723 O   0  0  0  0  0  0  0  0  0  0  0  0
   16.8391   -4.8600  -10.0698 O   0  0  0  0  0  0  0  0  0  0  0  0
  2  1  1  1
  2  3  1  0
  4  2  1  0
  4  6  1  0
  5  4  2  0
  7  6  1  0
  7 12  1  0
  7  8  1  6
  9  8  1  0
  9 10  1  0
 10 14  1  0
 11 10  2  0
 12 19  1  0
 12 13  2  0
 16 15  1  6
 17 16  1  0
 18 16  1  0
 18 20  1  0
 18 19  1  1
 20 22  1  0
 21 20  2  0
M  END
$$$$
