AEV.pdb
     RDKit          3D

 22 21  0  0  1  0  0  0  0  0999 V2000
   28.3024  -18.0750  -17.9133 C   0  0  0  0  0  0  0  0  0  0  0  0
   27.9245  -19.3008  -17.1059 C   0  0  2  0  0  0  0  0  0  0  0  0
   27.3629  -20.3153  -17.9742 N   0  0  0  0  0  0  0  0  0  0  0  0
   26.9194  -18.9013  -16.0811 C   0  0  0  0  0  0  0  0  0  0  0  0
   26.4400  -17.7431  -16.1201 O   0  0  0  0  0  0  0  0  0  0  0  0
   26.4846  -19.7761  -15.0665 N   0  0  0  0  0  0  0  0  0  0  0  0
   25.2094  -19.5854  -14.3584 C   0  0  1  0  0  0  0  0  0  0  0  0
   24.1525  -19.6129  -15.4284 C   0  0  0  0  0  0  0  0  0  0  0  0
   22.7512  -19.4617  -14.8816 C   0  0  0  0  0  0  0  0  0  0  0  0
   21.7541  -19.5744  -15.9912 C   0  0  0  0  0  0  0  0  0  0  0  0
   22.0407  -20.0649  -17.1009 O   0  0  0  0  0  0  0  0  0  0  0  0
   25.0421  -20.5926  -13.3059 C   0  0  0  0  0  0  0  0  0  0  0  0
   25.0476  -21.8156  -13.4902 O   0  0  0  0  0  0  0  0  0  0  0  0
   20.4782  -19.1116  -15.7526 O   0  0  0  0  0  0  0  0  0  0  0  0
   25.5581  -19.5530   -9.0608 C   0  0  0  0  0  0  0  0  0  0  0  0
   25.7021  -20.8717   -9.7522 C   0  0  2  0  0  0  0  0  0  0  0  0
   27.0813  -20.9707  -10.3595 C   0  0  0  0  0  0  0  0  0  0  0  0
   24.6968  -21.0796  -10.8611 C   0  0  2  0  0  0  0  0  0  0  0  0
   24.8556  -20.1466  -11.9464 N   0  0  0  0  0  0  0  0  0  0  0  0
   23.3125  -21.0548  -10.3223 C   0  0  0  0  0  0  0  0  0  0  0  0
   22.4990  -20.1794  -10.6998 O   0  0  0  0  0  0  0  0  0  0  0  0
   22.8848  -21.9881   -9.3970 O   0  0  0  0  0  0  0  0  0  0  0  0
  2  1  1  6
  2  3  1  0
  4  2  1  0
  4  6  1  0
  5  4  2  0
  7  6  1  0
  7 12  1  0
  7  8  1  6
  9  8  1  0
  9 10  1  0
 10 14  1  0
 11 10  2  0
 12 19  1  0
 12 13  2  0
 16 15  1  6
 17 16  1  0
 18 16  1  0
 18 20  1  0
 18 19  1  6
 20 22  1  0
 21 20  2  0
M  END
$$$$
