AEV.pdb
     RDKit          3D

 22 21  0  0  1  0  0  0  0  0999 V2000
   16.6494   -9.0286  -18.7270 C   0  0  0  0  0  0  0  0  0  0  0  0
   17.8416   -9.9641  -18.6992 C   0  0  2  0  0  0  0  0  0  0  0  0
   17.4281  -11.2853  -18.2724 N   0  0  0  0  0  0  0  0  0  0  0  0
   18.8493   -9.4187  -17.7467 C   0  0  0  0  0  0  0  0  0  0  0  0
   18.6132   -9.4732  -16.5161 O   0  0  0  0  0  0  0  0  0  0  0  0
   20.0609   -8.8423  -18.1748 N   0  0  0  0  0  0  0  0  0  0  0  0
   21.0749   -8.3519  -17.2287 C   0  0  1  0  0  0  0  0  0  0  0  0
   22.3802   -8.9192  -17.7155 C   0  0  0  0  0  0  0  0  0  0  0  0
   23.5616   -8.4963  -16.8723 C   0  0  0  0  0  0  0  0  0  0  0  0
   24.8199   -9.0936  -17.4182 C   0  0  0  0  0  0  0  0  0  0  0  0
   25.0422  -10.3202  -17.3968 O   0  0  0  0  0  0  0  0  0  0  0  0
   21.0386   -6.8888  -17.1379 C   0  0  0  0  0  0  0  0  0  0  0  0
   21.1188   -6.1183  -18.1021 O   0  0  0  0  0  0  0  0  0  0  0  0
   25.7519   -8.2350  -17.9595 O   0  0  0  0  0  0  0  0  0  0  0  0
   18.9227   -4.8410  -14.0986 C   0  0  0  0  0  0  0  0  0  0  0  0
   19.5058   -4.3070  -15.3685 C   0  0  2  0  0  0  0  0  0  0  0  0
   18.6058   -4.6719  -16.5251 C   0  0  0  0  0  0  0  0  0  0  0  0
   20.8832   -4.8504  -15.6701 C   0  0  2  0  0  0  0  0  0  0  0  0
   20.8994   -6.2807  -15.8369 N   0  0  0  0  0  0  0  0  0  0  0  0
   21.8550   -4.4138  -14.6347 C   0  0  0  0  0  0  0  0  0  0  0  0
   22.2833   -5.2262  -13.7820 O   0  0  0  0  0  0  0  0  0  0  0  0
   22.3115   -3.1103  -14.5819 O   0  0  0  0  0  0  0  0  0  0  0  0
  2  1  1  1
  2  3  1  0
  4  2  1  0
  4  6  1  0
  5  4  2  0
  7  6  1  0
  7 12  1  0
  7  8  1  6
  9  8  1  0
  9 10  1  0
 10 14  1  0
 11 10  2  0
 12 19  1  0
 12 13  2  0
 16 15  1  1
 17 16  1  0
 18 16  1  0
 18 20  1  0
 18 19  1  1
 20 22  1  0
 21 20  2  0
M  END
$$$$
