AEV.pdb
     RDKit          3D

 22 21  0  0  1  0  0  0  0  0999 V2000
   16.2526  -10.8855  -16.4163 C   0  0  0  0  0  0  0  0  0  0  0  0
   17.5955  -10.7737  -15.7225 C   0  0  2  0  0  0  0  0  0  0  0  0
   17.6793  -11.7349  -14.6420 N   0  0  0  0  0  0  0  0  0  0  0  0
   17.7350   -9.3926  -15.1809 C   0  0  0  0  0  0  0  0  0  0  0  0
   17.7188   -8.4238  -15.9771 O   0  0  0  0  0  0  0  0  0  0  0  0
   17.8849   -9.1310  -13.8051 N   0  0  0  0  0  0  0  0  0  0  0  0
   18.1144   -7.7746  -13.2841 C   0  0  1  0  0  0  0  0  0  0  0  0
   17.3800   -7.7232  -11.9723 C   0  0  0  0  0  0  0  0  0  0  0  0
   17.5849   -6.4229  -11.2287 C   0  0  0  0  0  0  0  0  0  0  0  0
   16.9382   -6.4964   -9.8817 C   0  0  0  0  0  0  0  0  0  0  0  0
   16.3861   -7.5317   -9.4603 O   0  0  0  0  0  0  0  0  0  0  0  0
   19.5494   -7.4866  -13.1945 C   0  0  0  0  0  0  0  0  0  0  0  0
   20.3817   -8.2082  -12.6322 O   0  0  0  0  0  0  0  0  0  0  0  0
   16.9673   -5.3641   -9.0968 O   0  0  0  0  0  0  0  0  0  0  0  0
   21.3268   -5.1336  -16.2202 C   0  0  0  0  0  0  0  0  0  0  0  0
   22.0150   -6.0577  -15.2662 C   0  0  2  0  0  0  0  0  0  0  0  0
   21.8653   -7.4802  -15.7511 C   0  0  0  0  0  0  0  0  0  0  0  0
   21.4603   -5.9911  -13.8622 C   0  0  2  0  0  0  0  0  0  0  0  0
   20.0501   -6.2766  -13.8004 N   0  0  0  0  0  0  0  0  0  0  0  0
   21.7764   -4.6808  -13.2375 C   0  0  0  0  0  0  0  0  0  0  0  0
   20.8667   -3.8500  -13.0077 O   0  0  0  0  0  0  0  0  0  0  0  0
   23.0718   -4.3424  -12.8942 O   0  0  0  0  0  0  0  0  0  0  0  0
  2  1  1  1
  2  3  1  0
  4  2  1  0
  4  6  1  0
  5  4  2  0
  7  6  1  0
  7 12  1  0
  7  8  1  1
  9  8  1  0
  9 10  1  0
 10 14  1  0
 11 10  2  0
 12 19  1  0
 12 13  2  0
 16 15  1  6
 17 16  1  0
 18 16  1  0
 18 20  1  0
 18 19  1  6
 20 22  1  0
 21 20  2  0
M  END
$$$$
