AEV.pdb
     RDKit          3D

 22 21  0  0  1  0  0  0  0  0999 V2000
   19.7727  -12.7152  -18.8261 C   0  0  0  0  0  0  0  0  0  0  0  0
   20.8201  -12.0759  -17.9364 C   0  0  2  0  0  0  0  0  0  0  0  0
   20.9519  -12.8261  -16.7041 N   0  0  0  0  0  0  0  0  0  0  0  0
   20.3962  -10.6798  -17.6340 C   0  0  0  0  0  0  0  0  0  0  0  0
   20.3023   -9.8565  -18.5754 O   0  0  0  0  0  0  0  0  0  0  0  0
   20.0956  -10.2463  -16.3281 N   0  0  0  0  0  0  0  0  0  0  0  0
   19.6771   -8.8669  -16.0353 C   0  0  1  0  0  0  0  0  0  0  0  0
   18.3681   -8.9951  -15.3054 C   0  0  0  0  0  0  0  0  0  0  0  0
   17.1673   -8.8795  -16.2167 C   0  0  0  0  0  0  0  0  0  0  0  0
   15.9092   -9.0872  -15.4343 C   0  0  0  0  0  0  0  0  0  0  0  0
   15.9133   -9.3074  -14.2071 O   0  0  0  0  0  0  0  0  0  0  0  0
   20.7224   -8.1505  -15.2976 C   0  0  0  0  0  0  0  0  0  0  0  0
   21.3868   -8.6279  -14.3700 O   0  0  0  0  0  0  0  0  0  0  0  0
   14.7146   -9.0282  -16.1185 O   0  0  0  0  0  0  0  0  0  0  0  0
   23.7300   -4.1742  -15.2194 C   0  0  0  0  0  0  0  0  0  0  0  0
   22.6858   -4.9956  -15.9068 C   0  0  2  0  0  0  0  0  0  0  0  0
   21.5842   -4.0904  -16.4047 C   0  0  0  0  0  0  0  0  0  0  0  0
   22.0548   -6.0350  -15.0097 C   0  0  2  0  0  0  0  0  0  0  0  0
   21.0145   -6.7858  -15.6638 N   0  0  0  0  0  0  0  0  0  0  0  0
   21.5658   -5.4123  -13.7526 C   0  0  0  0  0  0  0  0  0  0  0  0
   22.3729   -5.0677  -12.8580 O   0  0  0  0  0  0  0  0  0  0  0  0
   20.2181   -5.1965  -13.5346 O   0  0  0  0  0  0  0  0  0  0  0  0
  2  1  1  6
  2  3  1  0
  4  2  1  0
  4  6  1  0
  5  4  2  0
  7  6  1  0
  7 12  1  0
  7  8  1  1
  9  8  1  0
  9 10  1  0
 10 14  1  0
 11 10  2  0
 12 19  1  0
 12 13  2  0
 16 15  1  1
 17 16  1  0
 18 16  1  0
 18 20  1  0
 18 19  1  6
 20 22  1  0
 21 20  2  0
M  END
$$$$
