AEV.pdb
     RDKit          3D

 22 21  0  0  1  0  0  0  0  0999 V2000
   15.9805  -10.9039  -17.2344 C   0  0  0  0  0  0  0  0  0  0  0  0
   16.9019  -10.9279  -16.0312 C   0  0  2  0  0  0  0  0  0  0  0  0
   16.1293  -11.0806  -14.8153 N   0  0  0  0  0  0  0  0  0  0  0  0
   17.6597   -9.6456  -15.9895 C   0  0  0  0  0  0  0  0  0  0  0  0
   18.7723   -9.5791  -16.5644 O   0  0  0  0  0  0  0  0  0  0  0  0
   17.1744   -8.5011  -15.3276 N   0  0  0  0  0  0  0  0  0  0  0  0
   17.8796   -7.2109  -15.3704 C   0  0  1  0  0  0  0  0  0  0  0  0
   16.8074   -6.1666  -15.2205 C   0  0  0  0  0  0  0  0  0  0  0  0
   17.3570   -4.7609  -15.1334 C   0  0  0  0  0  0  0  0  0  0  0  0
   16.2333   -3.7745  -15.0814 C   0  0  0  0  0  0  0  0  0  0  0  0
   15.0807   -4.0526  -15.4667 O   0  0  0  0  0  0  0  0  0  0  0  0
   18.9327   -7.1585  -14.3513 C   0  0  0  0  0  0  0  0  0  0  0  0
   18.7783   -7.4501  -13.1593 O   0  0  0  0  0  0  0  0  0  0  0  0
   16.5084   -2.5188  -14.5851 O   0  0  0  0  0  0  0  0  0  0  0  0
   23.0244   -7.3531  -15.5007 C   0  0  0  0  0  0  0  0  0  0  0  0
   22.4959   -7.5365  -14.1134 C   0  0  2  0  0  0  0  0  0  0  0  0
   22.0308   -8.9627  -13.9392 C   0  0  0  0  0  0  0  0  0  0  0  0
   21.3292   -6.6314  -13.7923 C   0  0  2  0  0  0  0  0  0  0  0  0
   20.2554   -6.7382  -14.7459 N   0  0  0  0  0  0  0  0  0  0  0  0
   21.7847   -5.2251  -13.6435 C   0  0  0  0  0  0  0  0  0  0  0  0
   22.5813   -4.9082  -12.7294 O   0  0  0  0  0  0  0  0  0  0  0  0
   21.3473   -4.2336  -14.5014 O   0  0  0  0  0  0  0  0  0  0  0  0
  2  1  1  6
  2  3  1  0
  4  2  1  0
  4  6  1  0
  5  4  2  0
  7  6  1  0
  7 12  1  0
  7  8  1  1
  9  8  1  0
  9 10  1  0
 10 14  1  0
 11 10  2  0
 12 19  1  0
 12 13  2  0
 16 15  1  6
 17 16  1  0
 18 16  1  0
 18 20  1  0
 18 19  1  6
 20 22  1  0
 21 20  2  0
M  END
$$$$
