AEV.pdb
     RDKit          3D

 22 21  0  0  1  0  0  0  0  0999 V2000
   19.0648  -14.7826  -17.6672 C   0  0  0  0  0  0  0  0  0  0  0  0
   18.5923  -13.3432  -17.7119 C   0  0  2  0  0  0  0  0  0  0  0  0
   18.4244  -12.9165  -19.0861 N   0  0  0  0  0  0  0  0  0  0  0  0
   19.6116  -12.4892  -17.0396 C   0  0  0  0  0  0  0  0  0  0  0  0
   19.7941  -12.6192  -15.8056 O   0  0  0  0  0  0  0  0  0  0  0  0
   20.3811  -11.5381  -17.7374 N   0  0  0  0  0  0  0  0  0  0  0  0
   21.3826  -10.6941  -17.0678 C   0  0  1  0  0  0  0  0  0  0  0  0
   22.6113  -10.7737  -17.9319 C   0  0  0  0  0  0  0  0  0  0  0  0
   22.3086  -10.6371  -19.4068 C   0  0  0  0  0  0  0  0  0  0  0  0
   23.5719  -10.7467  -20.2007 C   0  0  0  0  0  0  0  0  0  0  0  0
   24.2702  -11.7794  -20.2074 O   0  0  0  0  0  0  0  0  0  0  0  0
   20.8662   -9.3375  -16.8605 C   0  0  0  0  0  0  0  0  0  0  0  0
   20.6461   -8.5192  -17.7615 O   0  0  0  0  0  0  0  0  0  0  0  0
   23.9561   -9.6517  -20.9439 O   0  0  0  0  0  0  0  0  0  0  0  0
   18.0014   -6.2336  -14.7511 C   0  0  0  0  0  0  0  0  0  0  0  0
   18.5539   -7.5807  -15.0943 C   0  0  2  0  0  0  0  0  0  0  0  0
   18.1891   -8.5634  -14.0072 C   0  0  0  0  0  0  0  0  0  0  0  0
   20.0582   -7.5924  -15.2371 C   0  0  2  0  0  0  0  0  0  0  0  0
   20.5868   -8.9032  -15.5132 N   0  0  0  0  0  0  0  0  0  0  0  0
   20.7009   -6.9891  -14.0412 C   0  0  0  0  0  0  0  0  0  0  0  0
   20.6030   -5.7596  -13.8190 O   0  0  0  0  0  0  0  0  0  0  0  0
   21.4195   -7.7593  -13.1463 O   0  0  0  0  0  0  0  0  0  0  0  0
  2  1  1  6
  2  3  1  0
  4  2  1  0
  4  6  1  0
  5  4  2  0
  7  6  1  0
  7 12  1  0
  7  8  1  6
  9  8  1  0
  9 10  1  0
 10 14  1  0
 11 10  2  0
 12 19  1  0
 12 13  2  0
 16 15  1  1
 17 16  1  0
 18 16  1  0
 18 20  1  0
 18 19  1  1
 20 22  1  0
 21 20  2  0
M  END
$$$$
