AEV.pdb
     RDKit          3D

 22 21  0  0  1  0  0  0  0  0999 V2000
   18.6750  -13.5580  -18.8467 C   0  0  0  0  0  0  0  0  0  0  0  0
   19.9730  -12.8041  -19.0567 C   0  0  2  0  0  0  0  0  0  0  0  0
   21.0223  -13.3826  -18.2426 N   0  0  0  0  0  0  0  0  0  0  0  0
   19.7616  -11.3807  -18.6703 C   0  0  0  0  0  0  0  0  0  0  0  0
   18.9161  -10.7001  -19.2987 O   0  0  0  0  0  0  0  0  0  0  0  0
   20.4762  -10.7667  -17.6234 N   0  0  0  0  0  0  0  0  0  0  0  0
   20.2868   -9.3521  -17.2671 C   0  0  1  0  0  0  0  0  0  0  0  0
   20.3960   -9.3018  -15.7677 C   0  0  0  0  0  0  0  0  0  0  0  0
   20.3509   -7.8946  -15.2169 C   0  0  0  0  0  0  0  0  0  0  0  0
   20.4832   -7.9239  -13.7270 C   0  0  0  0  0  0  0  0  0  0  0  0
   21.5424   -7.6210  -13.1434 O   0  0  0  0  0  0  0  0  0  0  0  0
   21.2457   -8.5021  -17.9801 C   0  0  0  0  0  0  0  0  0  0  0  0
   22.4707   -8.6721  -17.9895 O   0  0  0  0  0  0  0  0  0  0  0  0
   19.3788   -8.3031  -12.9952 O   0  0  0  0  0  0  0  0  0  0  0  0
   19.7142   -5.2412  -20.5227 C   0  0  0  0  0  0  0  0  0  0  0  0
   20.9307   -6.0641  -20.8063 C   0  0  2  0  0  0  0  0  0  0  0  0
   20.5420   -7.2615  -21.6405 C   0  0  0  0  0  0  0  0  0  0  0  0
   21.6117   -6.5763  -19.5584 C   0  0  2  0  0  0  0  0  0  0  0  0
   20.7452   -7.3779  -18.7334 N   0  0  0  0  0  0  0  0  0  0  0  0
   22.2061   -5.4528  -18.7893 C   0  0  0  0  0  0  0  0  0  0  0  0
   23.1588   -4.7912  -19.2640 O   0  0  0  0  0  0  0  0  0  0  0  0
   21.7302   -5.1071  -17.5386 O   0  0  0  0  0  0  0  0  0  0  0  0
  2  1  1  1
  2  3  1  0
  4  2  1  0
  4  6  1  0
  5  4  2  0
  7  6  1  0
  7 12  1  0
  7  8  1  1
  9  8  1  0
  9 10  1  0
 10 14  1  0
 11 10  2  0
 12 19  1  0
 12 13  2  0
 16 15  1  1
 17 16  1  0
 18 16  1  0
 18 20  1  0
 18 19  1  1
 20 22  1  0
 21 20  2  0
M  END
$$$$
