AEV.pdb
     RDKit          3D

 22 21  0  0  1  0  0  0  0  0999 V2000
   16.9518  -10.4564  -18.1242 C   0  0  0  0  0  0  0  0  0  0  0  0
   17.9948  -10.7829  -17.0741 C   0  0  2  0  0  0  0  0  0  0  0  0
   17.5982  -11.9591  -16.3271 N   0  0  0  0  0  0  0  0  0  0  0  0
   18.1197   -9.6187  -16.1527 C   0  0  0  0  0  0  0  0  0  0  0  0
   17.4192   -9.5895  -15.1129 O   0  0  0  0  0  0  0  0  0  0  0  0
   18.9965   -8.5455  -16.4041 N   0  0  0  0  0  0  0  0  0  0  0  0
   19.0091   -7.3308  -15.5745 C   0  0  1  0  0  0  0  0  0  0  0  0
   20.4341   -7.1758  -15.1183 C   0  0  0  0  0  0  0  0  0  0  0  0
   20.6759   -5.8936  -14.3546 C   0  0  0  0  0  0  0  0  0  0  0  0
   22.1186   -5.7901  -13.9722 C   0  0  0  0  0  0  0  0  0  0  0  0
   22.9447   -6.6877  -14.2292 O   0  0  0  0  0  0  0  0  0  0  0  0
   18.4762   -6.1855  -16.3192 C   0  0  0  0  0  0  0  0  0  0  0  0
   18.8265   -5.8586  -17.4594 O   0  0  0  0  0  0  0  0  0  0  0  0
   22.5240   -4.6505  -13.3122 O   0  0  0  0  0  0  0  0  0  0  0  0
   14.7366   -4.3962  -15.0846 C   0  0  0  0  0  0  0  0  0  0  0  0
   15.3786   -4.2912  -16.4317 C   0  0  2  0  0  0  0  0  0  0  0  0
   14.9970   -5.4928  -17.2632 C   0  0  0  0  0  0  0  0  0  0  0  0
   16.8875   -4.2345  -16.3734 C   0  0  2  0  0  0  0  0  0  0  0  0
   17.4670   -5.3648  -15.6949 N   0  0  0  0  0  0  0  0  0  0  0  0
   17.3391   -2.9522  -15.7744 C   0  0  0  0  0  0  0  0  0  0  0  0
   17.7707   -2.9169  -14.5984 O   0  0  0  0  0  0  0  0  0  0  0  0
   17.2968   -1.7706  -16.4902 O   0  0  0  0  0  0  0  0  0  0  0  0
  2  1  1  6
  2  3  1  0
  4  2  1  0
  4  6  1  0
  5  4  2  0
  7  6  1  0
  7 12  1  0
  7  8  1  6
  9  8  1  0
  9 10  1  0
 10 14  1  0
 11 10  2  0
 12 19  1  0
 12 13  2  0
 16 15  1  1
 17 16  1  0
 18 16  1  0
 18 20  1  0
 18 19  1  1
 20 22  1  0
 21 20  2  0
M  END
$$$$
