KCE.pdb
     RDKit          3D

 25 24  0  0  1  0  0  0  0  0999 V2000
   27.9798  -19.9652  -15.6826 N   0  0  0  0  0  0  0  0  0  0  0  0
   27.0298  -20.9242  -16.0248 C   0  0  1  0  0  0  0  0  0  0  0  0
   27.4853  -22.0437  -16.8593 C   0  0  0  0  0  0  0  0  0  0  0  0
   28.8266  -22.2066  -17.3400 C   0  0  0  0  0  0  0  0  0  0  0  0
   29.6442  -21.5230  -18.2877 C   0  0  0  0  0  0  0  0  0  0  0  0
   30.6033  -22.0521  -19.2470 C   0  0  0  0  0  0  0  0  0  0  0  0
   31.4276  -21.1137  -19.9235 N   0  0  0  0  0  0  0  0  0  0  0  0
   26.2202  -21.3976  -14.8445 C   0  0  0  0  0  0  0  0  0  0  0  0
   25.6706  -22.5231  -14.9140 O   0  0  0  0  0  0  0  0  0  0  0  0
   26.0333  -20.6672  -13.6632 N   0  0  0  0  0  0  0  0  0  0  0  0
   25.2229  -21.0559  -12.5580 C   0  0  1  0  0  0  0  0  0  0  0  0
   25.7338  -20.6209  -11.2203 C   0  0  0  0  0  0  0  0  0  0  0  0
   24.6221  -20.9872   -9.8703 S   0  0  0  0  0  0  0  0  0  0  0  0
   23.8219  -20.6424  -12.8017 C   0  0  0  0  0  0  0  0  0  0  0  0
   23.5235  -19.4256  -12.9321 O   0  0  0  0  0  0  0  0  0  0  0  0
   22.7405  -21.5701  -12.9031 N   0  0  0  0  0  0  0  0  0  0  0  0
   21.3833  -21.1823  -13.1336 C   0  0  1  0  0  0  0  0  0  0  0  0
   20.5637  -22.4045  -13.5593 C   0  0  0  0  0  0  0  0  0  0  0  0
   19.1350  -22.0110  -13.8619 C   0  0  0  0  0  0  0  0  0  0  0  0
   18.4413  -23.2403  -14.3334 C   0  0  0  0  0  0  0  0  0  0  0  0
   18.9919  -24.3711  -14.3692 O   0  0  0  0  0  0  0  0  0  0  0  0
   20.7664  -20.5241  -11.9553 C   0  0  0  0  0  0  0  0  0  0  0  0
   21.1495  -20.8703  -10.8118 O   0  0  0  0  0  0  0  0  0  0  0  0
   17.1068  -23.1978  -14.7719 O   0  0  0  0  0  0  0  0  0  0  0  0
   19.7905  -19.5477  -12.0359 O   0  0  0  0  0  0  0  0  0  0  0  0
  2  8  1  0
  2  1  1  1
  3  2  1  0
  4  3  1  0
  5  4  1  0
  6  5  1  0
  6  7  1  0
  8  9  2  0
 10 11  1  0
 10  8  1  0
 12 13  1  0
 11 12  1  1
 14 15  2  0
 14 11  1  0
 16 14  1  0
 17 16  1  0
 17 22  1  0
 17 18  1  1
 19 20  1  0
 19 18  1  0
 20 21  2  0
 22 25  1  0
 23 22  2  0
 24 20  1  0
M  END
$$$$
