KCE.pdb
     RDKit          3D

 25 24  0  0  1  0  0  0  0  0999 V2000
   28.7320  -25.8530  -16.2193 N   0  0  0  0  0  0  0  0  0  0  0  0
   27.8124  -25.0681  -16.9104 C   0  0  1  0  0  0  0  0  0  0  0  0
   26.6828  -25.7648  -17.5393 C   0  0  0  0  0  0  0  0  0  0  0  0
   26.7470  -27.0886  -18.0873 C   0  0  0  0  0  0  0  0  0  0  0  0
   27.7313  -27.8336  -18.8016 C   0  0  0  0  0  0  0  0  0  0  0  0
   27.6590  -29.1728  -19.3686 C   0  0  0  0  0  0  0  0  0  0  0  0
   28.7945  -29.6343  -20.0865 N   0  0  0  0  0  0  0  0  0  0  0  0
   27.3613  -23.8623  -16.1262 C   0  0  0  0  0  0  0  0  0  0  0  0
   27.3946  -23.9216  -14.8736 O   0  0  0  0  0  0  0  0  0  0  0  0
   26.9027  -22.6675  -16.6972 N   0  0  0  0  0  0  0  0  0  0  0  0
   26.5726  -21.4749  -15.9913 C   0  0  1  0  0  0  0  0  0  0  0  0
   27.4714  -20.3110  -16.2690 C   0  0  0  0  0  0  0  0  0  0  0  0
   27.1900  -18.9108  -15.1953 S   0  0  0  0  0  0  0  0  0  0  0  0
   25.1405  -21.1584  -16.1964 C   0  0  0  0  0  0  0  0  0  0  0  0
   24.6496  -21.1202  -17.3558 O   0  0  0  0  0  0  0  0  0  0  0  0
   24.2404  -20.8820  -15.1223 N   0  0  0  0  0  0  0  0  0  0  0  0
   22.8514  -20.5958  -15.3067 C   0  0  1  0  0  0  0  0  0  0  0  0
   22.1664  -20.4675  -13.9425 C   0  0  0  0  0  0  0  0  0  0  0  0
   20.6721  -20.3023  -14.1079 C   0  0  0  0  0  0  0  0  0  0  0  0
   20.0293  -21.1013  -13.0295 C   0  0  0  0  0  0  0  0  0  0  0  0
   20.3076  -22.3082  -12.8075 O   0  0  0  0  0  0  0  0  0  0  0  0
   22.6197  -19.3791  -16.1241 C   0  0  0  0  0  0  0  0  0  0  0  0
   23.4233  -18.4224  -16.0084 O   0  0  0  0  0  0  0  0  0  0  0  0
   19.0578  -20.5346  -12.1870 O   0  0  0  0  0  0  0  0  0  0  0  0
   21.5691  -19.2298  -17.0108 O   0  0  0  0  0  0  0  0  0  0  0  0
  2  8  1  0
  2  1  1  1
  3  2  1  0
  4  3  1  0
  5  4  1  0
  6  5  1  0
  6  7  1  0
  8  9  2  0
 10 11  1  0
 10  8  1  0
 12 13  1  0
 11 12  1  6
 14 15  2  0
 14 11  1  0
 16 14  1  0
 17 16  1  0
 17 22  1  0
 17 18  1  1
 19 20  1  0
 19 18  1  0
 20 21  2  0
 22 25  1  0
 23 22  2  0
 24 20  1  0
M  END
$$$$
