KCE.pdb
     RDKit          3D

 25 24  0  0  1  0  0  0  0  0999 V2000
   24.3333  -14.3873  -19.3231 N   0  0  0  0  0  0  0  0  0  0  0  0
   23.2152  -14.1071  -18.5417 C   0  0  1  0  0  0  0  0  0  0  0  0
   22.5243  -15.2519  -17.9341 C   0  0  0  0  0  0  0  0  0  0  0  0
   22.1845  -16.4593  -18.6295 C   0  0  0  0  0  0  0  0  0  0  0  0
   21.3310  -16.7811  -19.7259 C   0  0  0  0  0  0  0  0  0  0  0  0
   21.0082  -18.0755  -20.3093 C   0  0  0  0  0  0  0  0  0  0  0  0
   22.0773  -18.9959  -20.4748 N   0  0  0  0  0  0  0  0  0  0  0  0
   23.4566  -13.0035  -17.5435 C   0  0  0  0  0  0  0  0  0  0  0  0
   22.5855  -12.7957  -16.6651 O   0  0  0  0  0  0  0  0  0  0  0  0
   24.5929  -12.1836  -17.5229 N   0  0  0  0  0  0  0  0  0  0  0  0
   24.8552  -11.1396  -16.5898 C   0  0  1  0  0  0  0  0  0  0  0  0
   26.3040  -10.8176  -16.3977 C   0  0  0  0  0  0  0  0  0  0  0  0
   26.5950   -9.4121  -15.3336 S   0  0  0  0  0  0  0  0  0  0  0  0
   24.0418   -9.9511  -16.9349 C   0  0  0  0  0  0  0  0  0  0  0  0
   24.0706   -9.4672  -18.0975 O   0  0  0  0  0  0  0  0  0  0  0  0
   23.1908   -9.2887  -15.9983 N   0  0  0  0  0  0  0  0  0  0  0  0
   22.4876   -8.0771  -16.2863 C   0  0  1  0  0  0  0  0  0  0  0  0
   21.0241   -8.2160  -15.8551 C   0  0  0  0  0  0  0  0  0  0  0  0
   20.2389   -6.9764  -16.2214 C   0  0  0  0  0  0  0  0  0  0  0  0
   18.8188   -7.2472  -15.8685 C   0  0  0  0  0  0  0  0  0  0  0  0
   18.1831   -8.2479  -16.2902 O   0  0  0  0  0  0  0  0  0  0  0  0
   23.1087   -6.8883  -15.6514 C   0  0  0  0  0  0  0  0  0  0  0  0
   22.7884   -5.7516  -16.0752 O   0  0  0  0  0  0  0  0  0  0  0  0
   18.1015   -6.3791  -15.0279 O   0  0  0  0  0  0  0  0  0  0  0  0
   24.0235   -6.9519  -14.6162 O   0  0  0  0  0  0  0  0  0  0  0  0
  2  8  1  0
  2  1  1  1
  3  2  1  0
  4  3  1  0
  5  4  1  0
  6  5  1  0
  6  7  1  0
  8  9  2  0
 10 11  1  0
 10  8  1  0
 12 13  1  0
 11 12  1  6
 14 15  2  0
 14 11  1  0
 16 14  1  0
 17 16  1  0
 17 22  1  0
 17 18  1  1
 19 20  1  0
 19 18  1  0
 20 21  2  0
 22 25  1  0
 23 22  2  0
 24 20  1  0
M  END
$$$$
