KCE.pdb
     RDKit          3D

 25 24  0  0  1  0  0  0  0  0999 V2000
   19.4133  -13.5950  -17.0892 N   0  0  0  0  0  0  0  0  0  0  0  0
   20.4328  -12.6477  -17.0396 C   0  0  1  0  0  0  0  0  0  0  0  0
   21.5239  -12.7930  -18.0119 C   0  0  0  0  0  0  0  0  0  0  0  0
   21.9202  -14.0348  -18.6101 C   0  0  0  0  0  0  0  0  0  0  0  0
   22.9435  -14.4294  -19.5218 C   0  0  0  0  0  0  0  0  0  0  0  0
   23.2372  -15.7394  -20.0856 C   0  0  0  0  0  0  0  0  0  0  0  0
   24.3041  -15.8177  -21.0201 N   0  0  0  0  0  0  0  0  0  0  0  0
   19.9181  -11.2319  -16.9817 C   0  0  0  0  0  0  0  0  0  0  0  0
   19.1624  -10.8363  -17.9015 O   0  0  0  0  0  0  0  0  0  0  0  0
   20.2235  -10.3150  -15.9669 N   0  0  0  0  0  0  0  0  0  0  0  0
   19.7650   -8.9684  -15.8895 C   0  0  1  0  0  0  0  0  0  0  0  0
   18.3910   -8.8041  -15.3197 C   0  0  0  0  0  0  0  0  0  0  0  0
   17.9702   -7.1120  -14.9293 S   0  0  0  0  0  0  0  0  0  0  0  0
   20.7784   -8.1393  -15.1975 C   0  0  0  0  0  0  0  0  0  0  0  0
   21.2826   -8.5166  -14.1067 O   0  0  0  0  0  0  0  0  0  0  0  0
   21.2420   -6.8874  -15.7057 N   0  0  0  0  0  0  0  0  0  0  0  0
   22.1965   -6.0635  -15.0309 C   0  0  1  0  0  0  0  0  0  0  0  0
   22.7006   -4.9740  -15.9827 C   0  0  0  0  0  0  0  0  0  0  0  0
   23.3781   -5.5882  -17.1874 C   0  0  0  0  0  0  0  0  0  0  0  0
   23.8582   -4.4607  -18.0318 C   0  0  0  0  0  0  0  0  0  0  0  0
   23.1634   -3.9364  -18.9404 O   0  0  0  0  0  0  0  0  0  0  0  0
   21.6569   -5.4613  -13.7866 C   0  0  0  0  0  0  0  0  0  0  0  0
   20.4228   -5.2458  -13.7161 O   0  0  0  0  0  0  0  0  0  0  0  0
   25.1401   -3.9138  -17.8520 O   0  0  0  0  0  0  0  0  0  0  0  0
   22.4305   -5.1198  -12.6923 O   0  0  0  0  0  0  0  0  0  0  0  0
  2  8  1  0
  2  1  1  6
  3  2  1  0
  4  3  1  0
  5  4  1  0
  6  5  1  0
  6  7  1  0
  8  9  2  0
 10 11  1  0
 10  8  1  0
 12 13  1  0
 11 12  1  1
 14 15  2  0
 14 11  1  0
 16 14  1  0
 17 16  1  0
 17 22  1  0
 17 18  1  6
 19 20  1  0
 19 18  1  0
 20 21  2  0
 22 25  1  0
 23 22  2  0
 24 20  1  0
M  END
$$$$
