KCE.pdb
     RDKit          3D

 25 24  0  0  1  0  0  0  0  0999 V2000
   18.2349  -12.6413  -17.6723 N   0  0  0  0  0  0  0  0  0  0  0  0
   19.3770  -11.8982  -17.3844 C   0  0  1  0  0  0  0  0  0  0  0  0
   20.2699  -11.5883  -18.5086 C   0  0  0  0  0  0  0  0  0  0  0  0
   20.9931  -12.5676  -19.2667 C   0  0  0  0  0  0  0  0  0  0  0  0
   20.8627  -13.9722  -19.4773 C   0  0  0  0  0  0  0  0  0  0  0  0
   21.6947  -14.8812  -20.2529 C   0  0  0  0  0  0  0  0  0  0  0  0
   21.3233  -16.2522  -20.2601 N   0  0  0  0  0  0  0  0  0  0  0  0
   19.0901  -10.6802  -16.5438 C   0  0  0  0  0  0  0  0  0  0  0  0
   18.2092   -9.8794  -16.9392 O   0  0  0  0  0  0  0  0  0  0  0  0
   19.7401  -10.3721  -15.3412 N   0  0  0  0  0  0  0  0  0  0  0  0
   19.4317   -9.2812  -14.4784 C   0  0  1  0  0  0  0  0  0  0  0  0
   18.7594   -9.6637  -13.1973 C   0  0  0  0  0  0  0  0  0  0  0  0
   18.9818   -8.4735  -11.8833 S   0  0  0  0  0  0  0  0  0  0  0  0
   20.6444   -8.4574  -14.2689 C   0  0  0  0  0  0  0  0  0  0  0  0
   21.7301   -8.9890  -13.9147 O   0  0  0  0  0  0  0  0  0  0  0  0
   20.6666   -7.0406  -14.4491 N   0  0  0  0  0  0  0  0  0  0  0  0
   21.8294   -6.2341  -14.2424 C   0  0  1  0  0  0  0  0  0  0  0  0
   22.2913   -5.6444  -15.5788 C   0  0  0  0  0  0  0  0  0  0  0  0
   21.3858   -4.5100  -16.0040 C   0  0  0  0  0  0  0  0  0  0  0  0
   21.8855   -4.0322  -17.3219 C   0  0  0  0  0  0  0  0  0  0  0  0
   21.2634   -3.2026  -18.0346 O   0  0  0  0  0  0  0  0  0  0  0  0
   21.6115   -5.1580  -13.2441 C   0  0  0  0  0  0  0  0  0  0  0  0
   20.4327   -4.8812  -12.9150 O   0  0  0  0  0  0  0  0  0  0  0  0
   23.1042   -4.4944  -17.8471 O   0  0  0  0  0  0  0  0  0  0  0  0
   22.6294   -4.4357  -12.6487 O   0  0  0  0  0  0  0  0  0  0  0  0
  2  8  1  0
  2  1  1  6
  3  2  1  0
  4  3  1  0
  5  4  1  0
  6  5  1  0
  6  7  1  0
  8  9  2  0
 10 11  1  0
 10  8  1  0
 12 13  1  0
 11 12  1  1
 14 15  2  0
 14 11  1  0
 16 14  1  0
 17 16  1  0
 17 22  1  0
 17 18  1  6
 19 20  1  0
 19 18  1  0
 20 21  2  0
 22 25  1  0
 23 22  2  0
 24 20  1  0
M  END
$$$$
