KCE.pdb
     RDKit          3D

 25 24  0  0  1  0  0  0  0  0999 V2000
   20.0410  -15.1195  -18.8688 N   0  0  0  0  0  0  0  0  0  0  0  0
   20.7948  -14.0370  -18.4223 C   0  0  1  0  0  0  0  0  0  0  0  0
   22.0267  -13.7337  -19.1624 C   0  0  0  0  0  0  0  0  0  0  0  0
   23.1318  -14.6363  -19.3067 C   0  0  0  0  0  0  0  0  0  0  0  0
   23.2610  -16.0425  -19.5066 C   0  0  0  0  0  0  0  0  0  0  0  0
   24.4501  -16.8444  -19.7580 C   0  0  0  0  0  0  0  0  0  0  0  0
   24.2764  -18.2518  -19.8409 N   0  0  0  0  0  0  0  0  0  0  0  0
   19.9654  -12.8011  -18.1833 C   0  0  0  0  0  0  0  0  0  0  0  0
   19.1039  -12.4887  -19.0400 O   0  0  0  0  0  0  0  0  0  0  0  0
   20.0856  -11.9660  -17.0643 N   0  0  0  0  0  0  0  0  0  0  0  0
   19.2743  -10.8312  -16.7755 C   0  0  1  0  0  0  0  0  0  0  0  0
   17.8143  -11.1239  -16.6266 C   0  0  0  0  0  0  0  0  0  0  0  0
   17.4487  -12.3514  -15.3807 S   0  0  0  0  0  0  0  0  0  0  0  0
   19.8369  -10.1026  -15.6154 C   0  0  0  0  0  0  0  0  0  0  0  0
   20.3431  -10.7284  -14.6465 O   0  0  0  0  0  0  0  0  0  0  0  0
   19.8444   -8.6776  -15.5173 N   0  0  0  0  0  0  0  0  0  0  0  0
   20.3163   -7.9652  -14.3705 C   0  0  1  0  0  0  0  0  0  0  0  0
   20.9732   -6.6539  -14.8131 C   0  0  0  0  0  0  0  0  0  0  0  0
   21.5877   -5.9382  -13.6310 C   0  0  0  0  0  0  0  0  0  0  0  0
   22.1858   -4.6797  -14.1539 C   0  0  0  0  0  0  0  0  0  0  0  0
   22.3585   -4.4569  -15.3802 O   0  0  0  0  0  0  0  0  0  0  0  0
   19.2458   -7.7038  -13.3766 C   0  0  0  0  0  0  0  0  0  0  0  0
   18.1112   -7.3722  -13.7972 O   0  0  0  0  0  0  0  0  0  0  0  0
   22.5964   -3.6551  -13.2842 O   0  0  0  0  0  0  0  0  0  0  0  0
   19.4183   -7.8025  -12.0081 O   0  0  0  0  0  0  0  0  0  0  0  0
  2  8  1  0
  2  1  1  6
  3  2  1  0
  4  3  1  0
  5  4  1  0
  6  5  1  0
  6  7  1  0
  8  9  2  0
 10 11  1  0
 10  8  1  0
 12 13  1  0
 11 12  1  1
 14 15  2  0
 14 11  1  0
 16 14  1  0
 17 16  1  0
 17 22  1  0
 17 18  1  6
 19 20  1  0
 19 18  1  0
 20 21  2  0
 22 25  1  0
 23 22  2  0
 24 20  1  0
M  END
$$$$
