KCE.pdb
     RDKit          3D

 25 24  0  0  1  0  0  0  0  0999 V2000
   20.1695  -15.7753  -16.5991 N   0  0  0  0  0  0  0  0  0  0  0  0
   19.6111  -14.5312  -16.8819 C   0  0  1  0  0  0  0  0  0  0  0  0
   18.1477  -14.4677  -16.9889 C   0  0  0  0  0  0  0  0  0  0  0  0
   17.3516  -15.3524  -17.7891 C   0  0  0  0  0  0  0  0  0  0  0  0
   15.9550  -15.4989  -18.0383 C   0  0  0  0  0  0  0  0  0  0  0  0
   15.2530  -16.4502  -18.8882 C   0  0  0  0  0  0  0  0  0  0  0  0
   13.8385  -16.3380  -18.9549 N   0  0  0  0  0  0  0  0  0  0  0  0
   20.1582  -13.4291  -16.0109 C   0  0  0  0  0  0  0  0  0  0  0  0
   19.9983  -13.5177  -14.7699 O   0  0  0  0  0  0  0  0  0  0  0  0
   20.8392  -12.3012  -16.4884 N   0  0  0  0  0  0  0  0  0  0  0  0
   21.3757  -11.2483  -15.6929 C   0  0  1  0  0  0  0  0  0  0  0  0
   22.8178  -11.4093  -15.3267 C   0  0  0  0  0  0  0  0  0  0  0  0
   23.5000  -10.0089  -14.4515 S   0  0  0  0  0  0  0  0  0  0  0  0
   21.0867   -9.9456  -16.3355 C   0  0  0  0  0  0  0  0  0  0  0  0
   21.3427   -9.7587  -17.5546 O   0  0  0  0  0  0  0  0  0  0  0  0
   20.5129   -8.8403  -15.6361 N   0  0  0  0  0  0  0  0  0  0  0  0
   20.2956   -7.5560  -16.2267 C   0  0  1  0  0  0  0  0  0  0  0  0
   18.9639   -6.9811  -15.7337 C   0  0  0  0  0  0  0  0  0  0  0  0
   18.6955   -5.6346  -16.3679 C   0  0  0  0  0  0  0  0  0  0  0  0
   17.4061   -5.1454  -15.8085 C   0  0  0  0  0  0  0  0  0  0  0  0
   16.7578   -5.7668  -14.9271 O   0  0  0  0  0  0  0  0  0  0  0  0
   21.4048   -6.6068  -15.9605 C   0  0  0  0  0  0  0  0  0  0  0  0
   22.0734   -6.7525  -14.9088 O   0  0  0  0  0  0  0  0  0  0  0  0
   16.8361   -3.9381  -16.2470 O   0  0  0  0  0  0  0  0  0  0  0  0
   21.7520   -5.5654  -16.8015 O   0  0  0  0  0  0  0  0  0  0  0  0
  2  8  1  0
  2  1  1  1
  3  2  1  0
  4  3  1  0
  5  4  1  0
  6  5  1  0
  6  7  1  0
  8  9  2  0
 10 11  1  0
 10  8  1  0
 12 13  1  0
 11 12  1  6
 14 15  2  0
 14 11  1  0
 16 14  1  0
 17 16  1  0
 17 22  1  0
 17 18  1  1
 19 20  1  0
 19 18  1  0
 20 21  2  0
 22 25  1  0
 23 22  2  0
 24 20  1  0
M  END
$$$$
