KCE.pdb
     RDKit          3D

 25 24  0  0  1  0  0  0  0  0999 V2000
   20.3425  -20.1787  -14.7457 N   0  0  0  0  0  0  0  0  0  0  0  0
   20.8834  -21.4480  -14.5563 C   0  0  1  0  0  0  0  0  0  0  0  0
   22.1499  -21.7402  -15.2401 C   0  0  0  0  0  0  0  0  0  0  0  0
   22.3337  -21.7039  -16.6620 C   0  0  0  0  0  0  0  0  0  0  0  0
   21.4606  -21.6093  -17.7858 C   0  0  0  0  0  0  0  0  0  0  0  0
   21.7645  -21.6409  -19.2094 C   0  0  0  0  0  0  0  0  0  0  0  0
   23.0363  -21.1521  -19.6111 N   0  0  0  0  0  0  0  0  0  0  0  0
   20.9199  -21.8617  -13.1072 C   0  0  0  0  0  0  0  0  0  0  0  0
   21.5327  -22.9137  -12.8048 O   0  0  0  0  0  0  0  0  0  0  0  0
   20.3145  -21.1520  -12.0614 N   0  0  0  0  0  0  0  0  0  0  0  0
   20.4280  -21.4484  -10.6726 C   0  0  1  0  0  0  0  0  0  0  0  0
   20.6697  -20.2612   -9.7942 C   0  0  0  0  0  0  0  0  0  0  0  0
   22.3572  -19.6746   -9.8234 S   0  0  0  0  0  0  0  0  0  0  0  0
   19.2637  -22.2560  -10.2420 C   0  0  0  0  0  0  0  0  0  0  0  0
   18.1365  -22.0986  -10.7816 O   0  0  0  0  0  0  0  0  0  0  0  0
   19.3363  -23.2433   -9.2123 N   0  0  0  0  0  0  0  0  0  0  0  0
   18.1941  -23.9249   -8.6867 C   0  0  1  0  0  0  0  0  0  0  0  0
   18.5210  -24.4827   -7.2979 C   0  0  0  0  0  0  0  0  0  0  0  0
   17.3758  -25.3210   -6.7753 C   0  0  0  0  0  0  0  0  0  0  0  0
   17.8294  -25.9132   -5.4875 C   0  0  0  0  0  0  0  0  0  0  0  0
   18.8498  -25.5154   -4.8681 O   0  0  0  0  0  0  0  0  0  0  0  0
   16.9865  -23.0640   -8.6329 C   0  0  0  0  0  0  0  0  0  0  0  0
   15.8747  -23.5809   -8.8993 O   0  0  0  0  0  0  0  0  0  0  0  0
   17.1245  -26.9698   -4.8863 O   0  0  0  0  0  0  0  0  0  0  0  0
   17.0068  -21.7204   -8.3062 O   0  0  0  0  0  0  0  0  0  0  0  0
  2  8  1  0
  2  1  1  1
  3  2  1  0
  4  3  1  0
  5  4  1  0
  6  5  1  0
  6  7  1  0
  8  9  2  0
 10 11  1  0
 10  8  1  0
 12 13  1  0
 11 12  1  1
 14 15  2  0
 14 11  1  0
 16 14  1  0
 17 16  1  0
 17 22  1  0
 17 18  1  1
 19 20  1  0
 19 18  1  0
 20 21  2  0
 22 25  1  0
 23 22  2  0
 24 20  1  0
M  END
$$$$
