KCE.pdb
     RDKit          3D

 25 24  0  0  1  0  0  0  0  0999 V2000
   20.9466  -15.2980  -16.8952 N   0  0  0  0  0  0  0  0  0  0  0  0
   20.2649  -14.0986  -16.7051 C   0  0  1  0  0  0  0  0  0  0  0  0
   18.9313  -14.1808  -16.0952 C   0  0  0  0  0  0  0  0  0  0  0  0
   17.8844  -15.0526  -16.5433 C   0  0  0  0  0  0  0  0  0  0  0  0
   16.5580  -15.3384  -16.1041 C   0  0  0  0  0  0  0  0  0  0  0  0
   15.5681  -16.2523  -16.6563 C   0  0  0  0  0  0  0  0  0  0  0  0
   14.3201  -16.3388  -15.9835 N   0  0  0  0  0  0  0  0  0  0  0  0
   21.1141  -13.0358  -16.0556 C   0  0  0  0  0  0  0  0  0  0  0  0
   21.2803  -13.0850  -14.8132 O   0  0  0  0  0  0  0  0  0  0  0  0
   21.7383  -11.9859  -16.7426 N   0  0  0  0  0  0  0  0  0  0  0  0
   22.6673  -11.0585  -16.1890 C   0  0  1  0  0  0  0  0  0  0  0  0
   24.0845  -11.2495  -16.6300 C   0  0  0  0  0  0  0  0  0  0  0  0
   24.9295  -12.5779  -15.7851 S   0  0  0  0  0  0  0  0  0  0  0  0
   22.1776   -9.6778  -16.4061 C   0  0  0  0  0  0  0  0  0  0  0  0
   21.4846   -9.3926  -17.4185 O   0  0  0  0  0  0  0  0  0  0  0  0
   22.4500   -8.6023  -15.5064 N   0  0  0  0  0  0  0  0  0  0  0  0
   21.9519   -7.2738  -15.6863 C   0  0  1  0  0  0  0  0  0  0  0  0
   22.3320   -6.4131  -14.4774 C   0  0  0  0  0  0  0  0  0  0  0  0
   21.7483   -5.0238  -14.6055 C   0  0  0  0  0  0  0  0  0  0  0  0
   22.1465   -4.2757  -13.3822 C   0  0  0  0  0  0  0  0  0  0  0  0
   22.8734   -4.7673  -12.4804 O   0  0  0  0  0  0  0  0  0  0  0  0
   22.4290   -6.6475  -16.9442 C   0  0  0  0  0  0  0  0  0  0  0  0
   21.6482   -5.8845  -17.5627 O   0  0  0  0  0  0  0  0  0  0  0  0
   21.7208   -2.9535  -13.1691 O   0  0  0  0  0  0  0  0  0  0  0  0
   23.6863   -6.8511  -17.4828 O   0  0  0  0  0  0  0  0  0  0  0  0
  2  8  1  0
  2  1  1  1
  3  2  1  0
  4  3  1  0
  5  4  1  0
  6  5  1  0
  6  7  1  0
  8  9  2  0
 10 11  1  0
 10  8  1  0
 12 13  1  0
 11 12  1  6
 14 15  2  0
 14 11  1  0
 16 14  1  0
 17 16  1  0
 17 22  1  0
 17 18  1  1
 19 20  1  0
 19 18  1  0
 20 21  2  0
 22 25  1  0
 23 22  2  0
 24 20  1  0
M  END
$$$$
