KCE.pdb
     RDKit          3D

 25 24  0  0  1  0  0  0  0  0999 V2000
   20.9337  -13.6354  -16.4882 N   0  0  0  0  0  0  0  0  0  0  0  0
   20.3997  -12.3507  -16.5509 C   0  0  1  0  0  0  0  0  0  0  0  0
   18.9859  -12.1993  -16.1831 C   0  0  0  0  0  0  0  0  0  0  0  0
   17.9208  -13.0117  -16.6953 C   0  0  0  0  0  0  0  0  0  0  0  0
   16.5016  -13.0145  -16.5529 C   0  0  0  0  0  0  0  0  0  0  0  0
   15.5031  -13.8757  -17.1703 C   0  0  0  0  0  0  0  0  0  0  0  0
   14.1403  -13.5971  -16.8821 N   0  0  0  0  0  0  0  0  0  0  0  0
   21.2682  -11.3191  -15.8772 C   0  0  0  0  0  0  0  0  0  0  0  0
   21.3131  -11.3073  -14.6236 O   0  0  0  0  0  0  0  0  0  0  0  0
   22.0371  -10.3621  -16.5530 N   0  0  0  0  0  0  0  0  0  0  0  0
   22.8900   -9.3944  -15.9483 C   0  0  1  0  0  0  0  0  0  0  0  0
   24.3394   -9.5295  -16.2954 C   0  0  0  0  0  0  0  0  0  0  0  0
   25.3379   -8.1428  -15.7733 S   0  0  0  0  0  0  0  0  0  0  0  0
   22.3598   -8.0361  -16.2079 C   0  0  0  0  0  0  0  0  0  0  0  0
   22.1618   -7.6370  -17.3861 O   0  0  0  0  0  0  0  0  0  0  0  0
   22.0446   -7.1091  -15.1679 N   0  0  0  0  0  0  0  0  0  0  0  0
   21.5797   -5.7780  -15.4076 C   0  0  1  0  0  0  0  0  0  0  0  0
   20.0639   -5.7158  -15.1947 C   0  0  0  0  0  0  0  0  0  0  0  0
   19.5298   -4.3465  -15.5513 C   0  0  0  0  0  0  0  0  0  0  0  0
   18.0571   -4.3915  -15.3415 C   0  0  0  0  0  0  0  0  0  0  0  0
   17.5261   -4.4926  -14.2053 O   0  0  0  0  0  0  0  0  0  0  0  0
   22.2675   -4.7693  -14.5641 C   0  0  0  0  0  0  0  0  0  0  0  0
   22.8427   -5.1594  -13.5194 O   0  0  0  0  0  0  0  0  0  0  0  0
   17.1669   -4.3218  -16.4267 O   0  0  0  0  0  0  0  0  0  0  0  0
   22.3163   -3.4185  -14.8561 O   0  0  0  0  0  0  0  0  0  0  0  0
  2  8  1  0
  2  1  1  1
  3  2  1  0
  4  3  1  0
  5  4  1  0
  6  5  1  0
  6  7  1  0
  8  9  2  0
 10 11  1  0
 10  8  1  0
 12 13  1  0
 11 12  1  6
 14 15  2  0
 14 11  1  0
 16 14  1  0
 17 16  1  0
 17 22  1  0
 17 18  1  1
 19 20  1  0
 19 18  1  0
 20 21  2  0
 22 25  1  0
 23 22  2  0
 24 20  1  0
M  END
$$$$
