KCE.pdb
     RDKit          3D

 25 24  0  0  1  0  0  0  0  0999 V2000
   27.6767  -22.6734  -16.2213 N   0  0  0  0  0  0  0  0  0  0  0  0
   27.3645  -21.4847  -15.5664 C   0  0  1  0  0  0  0  0  0  0  0  0
   27.0467  -20.3245  -16.4091 C   0  0  0  0  0  0  0  0  0  0  0  0
   27.8978  -19.8138  -17.4443 C   0  0  0  0  0  0  0  0  0  0  0  0
   28.9502  -20.3570  -18.2390 C   0  0  0  0  0  0  0  0  0  0  0  0
   29.7737  -19.7220  -19.2581 C   0  0  0  0  0  0  0  0  0  0  0  0
   30.8746  -20.4674  -19.7582 N   0  0  0  0  0  0  0  0  0  0  0  0
   26.3551  -21.6689  -14.4620 C   0  0  0  0  0  0  0  0  0  0  0  0
   25.3276  -22.3470  -14.7031 O   0  0  0  0  0  0  0  0  0  0  0  0
   26.4796  -21.1342  -13.1726 N   0  0  0  0  0  0  0  0  0  0  0  0
   25.4977  -21.1957  -12.1423 C   0  0  1  0  0  0  0  0  0  0  0  0
   25.9897  -20.8139  -10.7816 C   0  0  0  0  0  0  0  0  0  0  0  0
   24.7042  -20.7496   -9.5422 S   0  0  0  0  0  0  0  0  0  0  0  0
   24.2976  -20.4328  -12.5559 C   0  0  0  0  0  0  0  0  0  0  0  0
   24.4006  -19.2504  -12.9777 O   0  0  0  0  0  0  0  0  0  0  0  0
   22.9753  -20.9706  -12.5065 N   0  0  0  0  0  0  0  0  0  0  0  0
   21.8000  -20.2116  -12.8031 C   0  0  1  0  0  0  0  0  0  0  0  0
   21.7837  -19.8478  -14.2911 C   0  0  0  0  0  0  0  0  0  0  0  0
   21.7105  -21.0938  -15.1453 C   0  0  0  0  0  0  0  0  0  0  0  0
   21.6552  -20.6411  -16.5619 C   0  0  0  0  0  0  0  0  0  0  0  0
   21.6395  -21.4345  -17.5383 O   0  0  0  0  0  0  0  0  0  0  0  0
   20.5506  -20.9167  -12.4239 C   0  0  0  0  0  0  0  0  0  0  0  0
   20.6416  -22.0714  -11.9416 O   0  0  0  0  0  0  0  0  0  0  0  0
   21.6171  -19.2743  -16.8862 O   0  0  0  0  0  0  0  0  0  0  0  0
   19.2840  -20.3807  -12.5685 O   0  0  0  0  0  0  0  0  0  0  0  0
  2  8  1  0
  2  1  1  6
  3  2  1  0
  4  3  1  0
  5  4  1  0
  6  5  1  0
  6  7  1  0
  8  9  2  0
 10 11  1  0
 10  8  1  0
 12 13  1  0
 11 12  1  1
 14 15  2  0
 14 11  1  0
 16 14  1  0
 17 16  1  0
 17 22  1  0
 17 18  1  6
 19 20  1  0
 19 18  1  0
 20 21  2  0
 22 25  1  0
 23 22  2  0
 24 20  1  0
M  END
$$$$
