KCE.pdb
     RDKit          3D

 25 24  0  0  1  0  0  0  0  0999 V2000
   17.8644  -12.3744  -15.7833 N   0  0  0  0  0  0  0  0  0  0  0  0
   18.5332  -11.4317  -16.5601 C   0  0  1  0  0  0  0  0  0  0  0  0
   17.8796  -11.0127  -17.8069 C   0  0  0  0  0  0  0  0  0  0  0  0
   17.6206  -11.8789  -18.9202 C   0  0  0  0  0  0  0  0  0  0  0  0
   18.1910  -13.0942  -19.4017 C   0  0  0  0  0  0  0  0  0  0  0  0
   17.8731  -13.8665  -20.5943 C   0  0  0  0  0  0  0  0  0  0  0  0
   18.6194  -15.0550  -20.8141 N   0  0  0  0  0  0  0  0  0  0  0  0
   19.0243  -10.2519  -15.7604 C   0  0  0  0  0  0  0  0  0  0  0  0
   18.1939   -9.6170  -15.0669 O   0  0  0  0  0  0  0  0  0  0  0  0
   20.3527   -9.8065  -15.7331 N   0  0  0  0  0  0  0  0  0  0  0  0
   20.8623   -8.7412  -14.9363 C   0  0  1  0  0  0  0  0  0  0  0  0
   22.1423   -9.0462  -14.2235 C   0  0  0  0  0  0  0  0  0  0  0  0
   22.7218   -7.7154  -13.1815 S   0  0  0  0  0  0  0  0  0  0  0  0
   20.9363   -7.5059  -15.7498 C   0  0  0  0  0  0  0  0  0  0  0  0
   20.9594   -7.5644  -17.0078 O   0  0  0  0  0  0  0  0  0  0  0  0
   20.9854   -6.1973  -15.1795 N   0  0  0  0  0  0  0  0  0  0  0  0
   21.0988   -4.9999  -15.9533 C   0  0  1  0  0  0  0  0  0  0  0  0
   19.9299   -4.9114  -16.9396 C   0  0  0  0  0  0  0  0  0  0  0  0
   18.6504   -4.5457  -16.2208 C   0  0  0  0  0  0  0  0  0  0  0  0
   17.5970   -4.4058  -17.2627 C   0  0  0  0  0  0  0  0  0  0  0  0
   16.7027   -5.2691  -17.4582 O   0  0  0  0  0  0  0  0  0  0  0  0
   21.1673   -3.7783  -15.1136 C   0  0  0  0  0  0  0  0  0  0  0  0
   21.4613   -2.6913  -15.6671 O   0  0  0  0  0  0  0  0  0  0  0  0
   17.5482   -3.2772  -18.0986 O   0  0  0  0  0  0  0  0  0  0  0  0
   20.9268   -3.7595  -13.7519 O   0  0  0  0  0  0  0  0  0  0  0  0
  2  8  1  0
  2  1  1  1
  3  2  1  0
  4  3  1  0
  5  4  1  0
  6  5  1  0
  6  7  1  0
  8  9  2  0
 10 11  1  0
 10  8  1  0
 12 13  1  0
 11 12  1  6
 14 15  2  0
 14 11  1  0
 16 14  1  0
 17 16  1  0
 17 22  1  0
 17 18  1  6
 19 20  1  0
 19 18  1  0
 20 21  2  0
 22 25  1  0
 23 22  2  0
 24 20  1  0
M  END
$$$$
