KCE.pdb
     RDKit          3D

 25 24  0  0  1  0  0  0  0  0999 V2000
   18.6976  -11.3018  -17.7691 N   0  0  0  0  0  0  0  0  0  0  0  0
   18.0925  -10.8211  -16.6106 C   0  0  1  0  0  0  0  0  0  0  0  0
   17.1693  -11.7283  -15.9165 C   0  0  0  0  0  0  0  0  0  0  0  0
   16.4622  -12.8062  -16.5451 C   0  0  0  0  0  0  0  0  0  0  0  0
   15.4350  -13.7073  -16.1365 C   0  0  0  0  0  0  0  0  0  0  0  0
   14.8517  -14.8397  -16.8418 C   0  0  0  0  0  0  0  0  0  0  0  0
   14.0176  -14.5498  -17.9545 N   0  0  0  0  0  0  0  0  0  0  0  0
   19.0702  -10.1800  -15.6589 C   0  0  0  0  0  0  0  0  0  0  0  0
   18.6502   -9.8074  -14.5371 O   0  0  0  0  0  0  0  0  0  0  0  0
   20.4272   -9.9666  -15.9360 N   0  0  0  0  0  0  0  0  0  0  0  0
   21.3695   -9.3384  -15.0717 C   0  0  1  0  0  0  0  0  0  0  0  0
   22.6933  -10.0299  -14.9764 C   0  0  0  0  0  0  0  0  0  0  0  0
   23.8138   -9.2828  -13.8022 S   0  0  0  0  0  0  0  0  0  0  0  0
   21.4921   -7.9067  -15.4299 C   0  0  0  0  0  0  0  0  0  0  0  0
   22.0130   -7.5590  -16.5227 O   0  0  0  0  0  0  0  0  0  0  0  0
   21.0400   -6.8487  -14.5833 N   0  0  0  0  0  0  0  0  0  0  0  0
   21.2880   -5.4646  -14.8444 C   0  0  1  0  0  0  0  0  0  0  0  0
   19.9724   -4.6830  -14.7719 C   0  0  0  0  0  0  0  0  0  0  0  0
   19.0156   -5.1459  -15.8478 C   0  0  0  0  0  0  0  0  0  0  0  0
   17.6511   -5.1082  -15.2548 C   0  0  0  0  0  0  0  0  0  0  0  0
   17.3007   -5.8313  -14.2866 O   0  0  0  0  0  0  0  0  0  0  0  0
   22.2950   -4.8787  -13.9254 C   0  0  0  0  0  0  0  0  0  0  0  0
   22.6592   -3.6937  -14.1188 O   0  0  0  0  0  0  0  0  0  0  0  0
   16.6645   -4.2434  -15.7584 O   0  0  0  0  0  0  0  0  0  0  0  0
   22.8621   -5.5580  -12.8626 O   0  0  0  0  0  0  0  0  0  0  0  0
  2  8  1  0
  2  1  1  6
  3  2  1  0
  4  3  1  0
  5  4  1  0
  6  5  1  0
  6  7  1  0
  8  9  2  0
 10 11  1  0
 10  8  1  0
 12 13  1  0
 11 12  1  6
 14 15  2  0
 14 11  1  0
 16 14  1  0
 17 16  1  0
 17 22  1  0
 17 18  1  1
 19 20  1  0
 19 18  1  0
 20 21  2  0
 22 25  1  0
 23 22  2  0
 24 20  1  0
M  END
$$$$
