KCE.pdb
     RDKit          3D

 25 24  0  0  1  0  0  0  0  0999 V2000
   19.9216  -13.0485  -17.0617 N   0  0  0  0  0  0  0  0  0  0  0  0
   19.4733  -11.7500  -17.2905 C   0  0  1  0  0  0  0  0  0  0  0  0
   18.0595  -11.5886  -17.6542 C   0  0  0  0  0  0  0  0  0  0  0  0
   17.2005  -12.6578  -18.0734 C   0  0  0  0  0  0  0  0  0  0  0  0
   17.3865  -13.8686  -18.8039 C   0  0  0  0  0  0  0  0  0  0  0  0
   16.4257  -14.9054  -19.1529 C   0  0  0  0  0  0  0  0  0  0  0  0
   15.4886  -14.6020  -20.1763 N   0  0  0  0  0  0  0  0  0  0  0  0
   19.8877  -10.7853  -16.2087 C   0  0  0  0  0  0  0  0  0  0  0  0
   19.5303  -11.0247  -15.0303 O   0  0  0  0  0  0  0  0  0  0  0  0
   20.6502   -9.6292  -16.4227 N   0  0  0  0  0  0  0  0  0  0  0  0
   21.0833   -8.7144  -15.4201 C   0  0  1  0  0  0  0  0  0  0  0  0
   22.2979   -9.1447  -14.6592 C   0  0  0  0  0  0  0  0  0  0  0  0
   22.8690   -7.9384  -13.4712 S   0  0  0  0  0  0  0  0  0  0  0  0
   21.2217   -7.3629  -16.0095 C   0  0  0  0  0  0  0  0  0  0  0  0
   21.8812   -7.1870  -17.0682 O   0  0  0  0  0  0  0  0  0  0  0  0
   20.6325   -6.1960  -15.4337 N   0  0  0  0  0  0  0  0  0  0  0  0
   20.7661   -4.8850  -15.9893 C   0  0  1  0  0  0  0  0  0  0  0  0
   19.4023   -4.1872  -15.9963 C   0  0  0  0  0  0  0  0  0  0  0  0
   19.5071   -2.8148  -16.6232 C   0  0  0  0  0  0  0  0  0  0  0  0
   18.1343   -2.2403  -16.6322 C   0  0  0  0  0  0  0  0  0  0  0  0
   17.4347   -2.1442  -17.6736 O   0  0  0  0  0  0  0  0  0  0  0  0
   21.7718   -4.0591  -15.2762 C   0  0  0  0  0  0  0  0  0  0  0  0
   22.0352   -4.3413  -14.0823 O   0  0  0  0  0  0  0  0  0  0  0  0
   17.5383   -1.7660  -15.4512 O   0  0  0  0  0  0  0  0  0  0  0  0
   22.4421   -2.9917  -15.8452 O   0  0  0  0  0  0  0  0  0  0  0  0
  2  8  1  0
  2  1  1  1
  3  2  1  0
  4  3  1  0
  5  4  1  0
  6  5  1  0
  6  7  1  0
  8  9  2  0
 10 11  1  0
 10  8  1  0
 12 13  1  0
 11 12  1  6
 14 15  2  0
 14 11  1  0
 16 14  1  0
 17 16  1  0
 17 22  1  0
 17 18  1  1
 19 20  1  0
 19 18  1  0
 20 21  2  0
 22 25  1  0
 23 22  2  0
 24 20  1  0
M  END
$$$$
