KCE.pdb
     RDKit          3D

 25 24  0  0  1  0  0  0  0  0999 V2000
   20.4796  -14.2075  -17.0818 N   0  0  0  0  0  0  0  0  0  0  0  0
   19.8979  -13.0480  -16.5752 C   0  0  1  0  0  0  0  0  0  0  0  0
   18.8120  -13.2192  -15.6013 C   0  0  0  0  0  0  0  0  0  0  0  0
   17.7372  -14.1589  -15.7384 C   0  0  0  0  0  0  0  0  0  0  0  0
   16.9057  -14.5839  -16.8164 C   0  0  0  0  0  0  0  0  0  0  0  0
   15.8245  -15.5590  -16.8331 C   0  0  0  0  0  0  0  0  0  0  0  0
   15.2124  -15.8258  -18.0868 N   0  0  0  0  0  0  0  0  0  0  0  0
   20.9131  -12.0348  -16.1110 C   0  0  0  0  0  0  0  0  0  0  0  0
   20.6617  -11.3733  -15.0752 O   0  0  0  0  0  0  0  0  0  0  0  0
   22.1293  -11.7736  -16.7563 N   0  0  0  0  0  0  0  0  0  0  0  0
   23.0840  -10.7871  -16.3758 C   0  0  1  0  0  0  0  0  0  0  0  0
   24.5111  -11.1675  -16.6167 C   0  0  0  0  0  0  0  0  0  0  0  0
   25.0495  -12.5831  -15.6686 S   0  0  0  0  0  0  0  0  0  0  0  0
   22.7234   -9.4873  -16.9872 C   0  0  0  0  0  0  0  0  0  0  0  0
   22.3100   -9.4278  -18.1755 O   0  0  0  0  0  0  0  0  0  0  0  0
   22.8168   -8.2440  -16.2902 N   0  0  0  0  0  0  0  0  0  0  0  0
   22.3765   -6.9965  -16.8336 C   0  0  1  0  0  0  0  0  0  0  0  0
   21.8367   -6.1068  -15.7093 C   0  0  0  0  0  0  0  0  0  0  0  0
   22.9641   -5.6131  -14.8302 C   0  0  0  0  0  0  0  0  0  0  0  0
   22.3457   -4.7701  -13.7711 C   0  0  0  0  0  0  0  0  0  0  0  0
   22.0631   -3.5550  -13.9355 O   0  0  0  0  0  0  0  0  0  0  0  0
   23.4410   -6.2928  -17.5911 C   0  0  0  0  0  0  0  0  0  0  0  0
   24.6307   -6.6532  -17.4201 O   0  0  0  0  0  0  0  0  0  0  0  0
   22.0399   -5.3015  -12.5067 O   0  0  0  0  0  0  0  0  0  0  0  0
   23.2060   -5.2590  -18.4790 O   0  0  0  0  0  0  0  0  0  0  0  0
  2  8  1  0
  2  1  1  1
  3  2  1  0
  4  3  1  0
  5  4  1  0
  6  5  1  0
  6  7  1  0
  8  9  2  0
 10 11  1  0
 10  8  1  0
 12 13  1  0
 11 12  1  6
 14 15  2  0
 14 11  1  0
 16 14  1  0
 17 16  1  0
 17 22  1  0
 17 18  1  1
 19 20  1  0
 19 18  1  0
 20 21  2  0
 22 25  1  0
 23 22  2  0
 24 20  1  0
M  END
$$$$
