KCE.pdb
     RDKit          3D

 25 24  0  0  1  0  0  0  0  0999 V2000
   18.9501  -11.9185  -18.7818 N   0  0  0  0  0  0  0  0  0  0  0  0
   20.1217  -11.1688  -18.7138 C   0  0  1  0  0  0  0  0  0  0  0  0
   20.3840  -10.2423  -19.8228 C   0  0  0  0  0  0  0  0  0  0  0  0
   20.7194  -10.6458  -21.1576 C   0  0  0  0  0  0  0  0  0  0  0  0
   20.9340  -11.8987  -21.8044 C   0  0  0  0  0  0  0  0  0  0  0  0
   21.2871  -12.1870  -23.1873 C   0  0  0  0  0  0  0  0  0  0  0  0
   21.4481  -13.5526  -23.5433 N   0  0  0  0  0  0  0  0  0  0  0  0
   20.3213  -10.5094  -17.3729 C   0  0  0  0  0  0  0  0  0  0  0  0
   19.3190  -10.0270  -16.7929 O   0  0  0  0  0  0  0  0  0  0  0  0
   21.5551  -10.3936  -16.7187 N   0  0  0  0  0  0  0  0  0  0  0  0
   21.7767   -9.7814  -15.4516 C   0  0  1  0  0  0  0  0  0  0  0  0
   22.7348  -10.5086  -14.5612 C   0  0  0  0  0  0  0  0  0  0  0  0
   22.9585   -9.7407  -12.9634 S   0  0  0  0  0  0  0  0  0  0  0  0
   22.1375   -8.3582  -15.6456 C   0  0  0  0  0  0  0  0  0  0  0  0
   22.6480   -7.9656  -16.7280 O   0  0  0  0  0  0  0  0  0  0  0  0
   21.9369   -7.3586  -14.6452 N   0  0  0  0  0  0  0  0  0  0  0  0
   22.2127   -5.9699  -14.8468 C   0  0  1  0  0  0  0  0  0  0  0  0
   21.4030   -5.4519  -16.0396 C   0  0  0  0  0  0  0  0  0  0  0  0
   21.6467   -3.9741  -16.2500 C   0  0  0  0  0  0  0  0  0  0  0  0
   20.7967   -3.5574  -17.3982 C   0  0  0  0  0  0  0  0  0  0  0  0
   20.8428   -4.1125  -18.5264 O   0  0  0  0  0  0  0  0  0  0  0  0
   21.9456   -5.1505  -13.6387 C   0  0  0  0  0  0  0  0  0  0  0  0
   21.2209   -5.6373  -12.7375 O   0  0  0  0  0  0  0  0  0  0  0  0
   19.8798   -2.4994  -17.2762 O   0  0  0  0  0  0  0  0  0  0  0  0
   22.4465   -3.8769  -13.4401 O   0  0  0  0  0  0  0  0  0  0  0  0
  2  8  1  0
  2  1  1  1
  3  2  1  0
  4  3  1  0
  5  4  1  0
  6  5  1  0
  6  7  1  0
  8  9  2  0
 10 11  1  0
 10  8  1  0
 12 13  1  0
 11 12  1  6
 14 15  2  0
 14 11  1  0
 16 14  1  0
 17 16  1  0
 17 22  1  0
 17 18  1  6
 19 20  1  0
 19 18  1  0
 20 21  2  0
 22 25  1  0
 23 22  2  0
 24 20  1  0
M  END
$$$$
