PGN.pdb
     RDKit          3D

 20 20  0  0  1  0  0  0  0  0999 V2000
    8.0497  -14.8419   20.1697 N   0  0  0  0  0  0  0  0  0  0  0  0
    7.7030  -14.1189   18.9774 C   0  0  0  0  0  0  0  0  0  0  0  0
    7.5834  -12.6502   19.4174 C   0  0  0  0  0  0  0  0  0  0  0  0
    7.0137  -12.8940   20.8217 C   0  0  0  0  0  0  0  0  0  0  0  0
    7.9643  -13.9724   21.2990 C   0  0  1  0  0  0  0  0  0  0  0  0
    7.4775  -14.6152   22.5188 C   0  0  0  0  0  0  0  0  0  0  0  0
    7.4215  -13.9597   23.5826 O   0  0  0  0  0  0  0  0  0  0  0  0
    7.0677  -15.9677   22.5206 N   0  0  0  0  0  0  0  0  0  0  0  0
    6.5044  -16.6319   23.6911 C   0  0  0  0  0  0  0  0  0  0  0  0
    7.5861  -17.2433   24.5158 C   0  0  0  0  0  0  0  0  0  0  0  0
    7.2869  -18.2337   25.2330 O   0  0  0  0  0  0  0  0  0  0  0  0
   11.1930  -18.3594   22.8698 N   0  0  0  0  0  0  0  0  0  0  0  0
   11.5779  -17.1561   23.5166 C   0  0  0  0  0  0  0  0  0  0  0  0
   12.1700  -16.2445   22.8852 O   0  0  0  0  0  0  0  0  0  0  0  0
   11.2671  -17.0098   24.9281 C   0  0  0  0  0  0  0  0  0  0  0  0
    9.9025  -17.4804   25.3608 C   0  0  2  0  0  0  0  0  0  0  0  0
    8.9038  -16.7721   24.5295 N   0  0  0  0  0  0  0  0  0  0  0  0
    9.6221  -17.1688   26.7900 C   0  0  0  0  0  0  0  0  0  0  0  0
    9.8192  -18.0602   27.6458 O   0  0  0  0  0  0  0  0  0  0  0  0
    9.1606  -15.9512   27.2022 O   0  0  0  0  0  0  0  0  0  0  0  0
  1  2  1  0
  2  3  1  0
  4  3  1  0
  5  1  1  0
  5  4  1  0
  5  6  1  1
  7  6  2  0
  8  6  1  0
  9  8  1  0
 10  9  1  0
 10 17  1  0
 11 10  2  0
 13 12  1  0
 14 13  2  0
 15 13  1  0
 16 17  1  0
 16 15  1  6
 18 16  1  0
 19 18  2  0
 20 18  1  0
M  END
$$$$
