PGN.pdb
     RDKit          3D

 20 20  0  0  1  0  0  0  0  0999 V2000
    8.7344  -13.4418   20.1561 N   0  0  0  0  0  0  0  0  0  0  0  0
    7.7192  -12.4622   19.8834 C   0  0  0  0  0  0  0  0  0  0  0  0
    7.0829  -12.9010   18.5539 C   0  0  0  0  0  0  0  0  0  0  0  0
    8.3463  -13.4646   17.8887 C   0  0  0  0  0  0  0  0  0  0  0  0
    8.8815  -14.3057   19.0290 C   0  0  1  0  0  0  0  0  0  0  0  0
   10.2552  -14.7390   18.7773 C   0  0  0  0  0  0  0  0  0  0  0  0
   10.4684  -15.6998   18.0053 O   0  0  0  0  0  0  0  0  0  0  0  0
   11.3514  -14.0921   19.3911 N   0  0  0  0  0  0  0  0  0  0  0  0
   12.7401  -14.4714   19.1540 C   0  0  0  0  0  0  0  0  0  0  0  0
   13.1930  -15.4604   20.1741 C   0  0  0  0  0  0  0  0  0  0  0  0
   14.3961  -15.8293   20.1384 O   0  0  0  0  0  0  0  0  0  0  0  0
   14.9353  -15.5036   23.0291 N   0  0  0  0  0  0  0  0  0  0  0  0
   13.8922  -15.8179   23.9387 C   0  0  0  0  0  0  0  0  0  0  0  0
   13.9368  -15.4266   25.1325 O   0  0  0  0  0  0  0  0  0  0  0  0
   12.7729  -16.6039   23.4492 C   0  0  0  0  0  0  0  0  0  0  0  0
   12.8668  -17.0777   22.0218 C   0  0  2  0  0  0  0  0  0  0  0  0
   12.3518  -15.9918   21.1583 N   0  0  0  0  0  0  0  0  0  0  0  0
   12.0473  -18.2965   21.7738 C   0  0  0  0  0  0  0  0  0  0  0  0
   12.5555  -19.4160   22.0069 O   0  0  0  0  0  0  0  0  0  0  0  0
   10.7659  -18.2403   21.3043 O   0  0  0  0  0  0  0  0  0  0  0  0
  1  2  1  0
  2  3  1  0
  4  3  1  0
  5  1  1  0
  5  4  1  0
  5  6  1  6
  7  6  2  0
  8  6  1  0
  9  8  1  0
 10  9  1  0
 10 17  1  0
 11 10  2  0
 13 12  1  0
 14 13  2  0
 15 13  1  0
 16 17  1  0
 16 15  1  1
 18 16  1  0
 19 18  2  0
 20 18  1  0
M  END
$$$$
