PGN.pdb
     RDKit          3D

 20 20  0  0  1  0  0  0  0  0999 V2000
    5.5456  -20.2368   18.2097 N   0  0  0  0  0  0  0  0  0  0  0  0
    6.5463  -20.2341   17.1786 C   0  0  0  0  0  0  0  0  0  0  0  0
    7.6366  -21.1995   17.6728 C   0  0  0  0  0  0  0  0  0  0  0  0
    7.5294  -20.8922   19.1730 C   0  0  0  0  0  0  0  0  0  0  0  0
    6.0257  -20.9634   19.3412 C   0  0  1  0  0  0  0  0  0  0  0  0
    5.6037  -20.4181   20.6306 C   0  0  0  0  0  0  0  0  0  0  0  0
    5.9791  -20.9709   21.6879 O   0  0  0  0  0  0  0  0  0  0  0  0
    4.7766  -19.2748   20.7071 N   0  0  0  0  0  0  0  0  0  0  0  0
    4.3436  -18.6829   21.9683 C   0  0  0  0  0  0  0  0  0  0  0  0
    5.5214  -18.2475   22.7727 C   0  0  0  0  0  0  0  0  0  0  0  0
    6.1645  -17.2420   22.3724 O   0  0  0  0  0  0  0  0  0  0  0  0
    8.7828  -16.6069   26.1013 N   0  0  0  0  0  0  0  0  0  0  0  0
    7.4190  -16.2140   26.0939 C   0  0  0  0  0  0  0  0  0  0  0  0
    7.0531  -15.1413   26.6378 O   0  0  0  0  0  0  0  0  0  0  0  0
    6.4601  -17.0874   25.4397 C   0  0  0  0  0  0  0  0  0  0  0  0
    7.0299  -18.2925   24.7370 C   0  0  2  0  0  0  0  0  0  0  0  0
    5.9405  -18.8979   23.9388 N   0  0  0  0  0  0  0  0  0  0  0  0
    7.5328  -19.3200   25.6909 C   0  0  0  0  0  0  0  0  0  0  0  0
    6.7177  -19.8614   26.4707 O   0  0  0  0  0  0  0  0  0  0  0  0
    8.8453  -19.6940   25.7470 O   0  0  0  0  0  0  0  0  0  0  0  0
  1  2  1  0
  2  3  1  0
  4  3  1  0
  5  1  1  0
  5  4  1  0
  5  6  1  1
  7  6  2  0
  8  6  1  0
  9  8  1  0
 10  9  1  0
 10 17  1  0
 11 10  2  0
 13 12  1  0
 14 13  2  0
 15 13  1  0
 16 17  1  0
 16 15  1  1
 18 16  1  0
 19 18  2  0
 20 18  1  0
M  END
$$$$
