PGN.pdb
     RDKit          3D

 20 20  0  0  1  0  0  0  0  0999 V2000
    7.7002  -15.1460   20.4851 N   0  0  0  0  0  0  0  0  0  0  0  0
    6.9955  -13.9409   20.8253 C   0  0  0  0  0  0  0  0  0  0  0  0
    7.2564  -12.9777   19.6552 C   0  0  0  0  0  0  0  0  0  0  0  0
    8.6903  -13.4196   19.3310 C   0  0  0  0  0  0  0  0  0  0  0  0
    8.4984  -14.9221   19.3227 C   0  0  1  0  0  0  0  0  0  0  0  0
    9.7798  -15.6266   19.3270 C   0  0  0  0  0  0  0  0  0  0  0  0
   10.5670  -15.4831   18.3657 O   0  0  0  0  0  0  0  0  0  0  0  0
   10.1483  -16.4700   20.3993 N   0  0  0  0  0  0  0  0  0  0  0  0
   11.4310  -16.3752   21.0880 C   0  0  0  0  0  0  0  0  0  0  0  0
   11.2301  -16.3514   22.5655 C   0  0  0  0  0  0  0  0  0  0  0  0
   12.2445  -16.1830   23.2918 O   0  0  0  0  0  0  0  0  0  0  0  0
    8.9490  -14.0166   23.9059 N   0  0  0  0  0  0  0  0  0  0  0  0
    8.0302  -14.8591   24.5843 C   0  0  0  0  0  0  0  0  0  0  0  0
    6.8433  -14.4942   24.7808 O   0  0  0  0  0  0  0  0  0  0  0  0
    8.5017  -16.1540   25.0438 C   0  0  0  0  0  0  0  0  0  0  0  0
    9.9088  -16.5261   24.6535 C   0  0  2  0  0  0  0  0  0  0  0  0
    9.9801  -16.5062   23.1754 N   0  0  0  0  0  0  0  0  0  0  0  0
   10.2842  -17.8905   25.1182 C   0  0  0  0  0  0  0  0  0  0  0  0
   10.3592  -18.8102   24.2730 O   0  0  0  0  0  0  0  0  0  0  0  0
   10.5503  -18.1762   26.4271 O   0  0  0  0  0  0  0  0  0  0  0  0
  1  2  1  0
  2  3  1  0
  4  3  1  0
  5  1  1  0
  5  4  1  0
  5  6  1  1
  7  6  2  0
  8  6  1  0
  9  8  1  0
 10  9  1  0
 10 17  1  0
 11 10  2  0
 13 12  1  0
 14 13  2  0
 15 13  1  0
 16 17  1  0
 16 15  1  6
 18 16  1  0
 19 18  2  0
 20 18  1  0
M  END
$$$$
