PGN.pdb
     RDKit          3D

 20 20  0  0  1  0  0  0  0  0999 V2000
    6.3028  -18.2677   18.2969 N   0  0  0  0  0  0  0  0  0  0  0  0
    5.9634  -18.6514   16.9544 C   0  0  0  0  0  0  0  0  0  0  0  0
    7.3082  -18.9352   16.2644 C   0  0  0  0  0  0  0  0  0  0  0  0
    8.1444  -17.8641   16.9785 C   0  0  0  0  0  0  0  0  0  0  0  0
    7.7184  -18.1198   18.4094 C   0  0  1  0  0  0  0  0  0  0  0  0
    8.1424  -17.0377   19.2968 C   0  0  0  0  0  0  0  0  0  0  0  0
    9.3623  -16.8214   19.4684 O   0  0  0  0  0  0  0  0  0  0  0  0
    7.1981  -16.2283   19.9679 N   0  0  0  0  0  0  0  0  0  0  0  0
    7.5490  -14.9880   20.6513 C   0  0  0  0  0  0  0  0  0  0  0  0
    8.2658  -15.2788   21.9263 C   0  0  0  0  0  0  0  0  0  0  0  0
    8.6501  -14.3000   22.6185 O   0  0  0  0  0  0  0  0  0  0  0  0
    6.3905  -18.3725   24.8660 N   0  0  0  0  0  0  0  0  0  0  0  0
    7.5894  -17.6822   25.1831 C   0  0  0  0  0  0  0  0  0  0  0  0
    7.6356  -16.8785   26.1486 O   0  0  0  0  0  0  0  0  0  0  0  0
    8.7598  -17.9324   24.3598 C   0  0  0  0  0  0  0  0  0  0  0  0
    9.3206  -16.7439   23.6224 C   0  0  2  0  0  0  0  0  0  0  0  0
    8.5284  -16.5751   22.3838 N   0  0  0  0  0  0  0  0  0  0  0  0
   10.7470  -16.9359   23.2389 C   0  0  0  0  0  0  0  0  0  0  0  0
   11.6353  -16.4879   23.9978 O   0  0  0  0  0  0  0  0  0  0  0  0
   11.1223  -17.5811   22.0951 O   0  0  0  0  0  0  0  0  0  0  0  0
  1  2  1  0
  2  3  1  0
  4  3  1  0
  5  1  1  0
  5  4  1  0
  5  6  1  1
  7  6  2  0
  8  6  1  0
  9  8  1  0
 10  9  1  0
 10 17  1  0
 11 10  2  0
 13 12  1  0
 14 13  2  0
 15 13  1  0
 16 17  1  0
 16 15  1  6
 18 16  1  0
 19 18  2  0
 20 18  1  0
M  END
$$$$
