PGN.pdb
     RDKit          3D

 20 20  0  0  1  0  0  0  0  0999 V2000
    7.1860  -14.5817   19.9066 N   0  0  0  0  0  0  0  0  0  0  0  0
    6.7704  -13.3633   19.2683 C   0  0  0  0  0  0  0  0  0  0  0  0
    8.0461  -12.5116   19.1568 C   0  0  0  0  0  0  0  0  0  0  0  0
    8.7136  -12.9550   20.4661 C   0  0  0  0  0  0  0  0  0  0  0  0
    8.5383  -14.4548   20.3467 C   0  0  1  0  0  0  0  0  0  0  0  0
    8.8264  -15.1309   21.6108 C   0  0  0  0  0  0  0  0  0  0  0  0
   10.0016  -15.1688   22.0374 O   0  0  0  0  0  0  0  0  0  0  0  0
    7.8002  -15.7454   22.3633 N   0  0  0  0  0  0  0  0  0  0  0  0
    8.0355  -16.4241   23.6332 C   0  0  0  0  0  0  0  0  0  0  0  0
    8.6026  -15.4762   24.6350 C   0  0  0  0  0  0  0  0  0  0  0  0
    9.7991  -15.1141   24.4867 O   0  0  0  0  0  0  0  0  0  0  0  0
    5.3340  -12.5260   26.7712 N   0  0  0  0  0  0  0  0  0  0  0  0
    6.7487  -12.4197   26.7308 C   0  0  0  0  0  0  0  0  0  0  0  0
    7.3095  -11.5191   26.0563 O   0  0  0  0  0  0  0  0  0  0  0  0
    7.5280  -13.3812   27.4914 C   0  0  0  0  0  0  0  0  0  0  0  0
    8.5761  -14.1441   26.7233 C   0  0  2  0  0  0  0  0  0  0  0  0
    7.8745  -14.9763   25.7206 N   0  0  0  0  0  0  0  0  0  0  0  0
    9.3757  -15.0463   27.5980 C   0  0  0  0  0  0  0  0  0  0  0  0
    9.2257  -16.2827   27.4776 O   0  0  0  0  0  0  0  0  0  0  0  0
   10.2647  -14.5782   28.5233 O   0  0  0  0  0  0  0  0  0  0  0  0
  1  2  1  0
  2  3  1  0
  4  3  1  0
  5  1  1  0
  5  4  1  0
  5  6  1  1
  7  6  2  0
  8  6  1  0
  9  8  1  0
 10  9  1  0
 10 17  1  0
 11 10  2  0
 13 12  1  0
 14 13  2  0
 15 13  1  0
 16 17  1  0
 16 15  1  1
 18 16  1  0
 19 18  2  0
 20 18  1  0
M  END
$$$$
