PGN.pdb
     RDKit          3D

 20 20  0  0  1  0  0  0  0  0999 V2000
    7.3479  -15.1841   19.7288 N   0  0  0  0  0  0  0  0  0  0  0  0
    6.9256  -14.8370   18.3999 C   0  0  0  0  0  0  0  0  0  0  0  0
    7.8409  -13.6759   17.9767 C   0  0  0  0  0  0  0  0  0  0  0  0
    7.9842  -13.0059   19.3504 C   0  0  0  0  0  0  0  0  0  0  0  0
    8.2944  -14.2231   20.1969 C   0  0  1  0  0  0  0  0  0  0  0  0
    8.1930  -13.9236   21.6245 C   0  0  0  0  0  0  0  0  0  0  0  0
    9.1218  -13.3096   22.1945 O   0  0  0  0  0  0  0  0  0  0  0  0
    7.0628  -14.3157   22.3767 N   0  0  0  0  0  0  0  0  0  0  0  0
    6.8716  -13.9601   23.7787 C   0  0  0  0  0  0  0  0  0  0  0  0
    7.4803  -14.9918   24.6670 C   0  0  0  0  0  0  0  0  0  0  0  0
    7.3265  -14.8593   25.9094 O   0  0  0  0  0  0  0  0  0  0  0  0
    6.3404  -19.4324   25.9351 N   0  0  0  0  0  0  0  0  0  0  0  0
    6.7600  -18.7551   24.7605 C   0  0  0  0  0  0  0  0  0  0  0  0
    5.9308  -18.4216   23.8765 O   0  0  0  0  0  0  0  0  0  0  0  0
    8.1743  -18.4590   24.6111 C   0  0  0  0  0  0  0  0  0  0  0  0
    8.6357  -17.1292   25.1492 C   0  0  2  0  0  0  0  0  0  0  0  0
    8.2069  -16.0882   24.1888 N   0  0  0  0  0  0  0  0  0  0  0  0
   10.1172  -17.0552   25.2836 C   0  0  0  0  0  0  0  0  0  0  0  0
   10.6614  -17.6537   26.2383 O   0  0  0  0  0  0  0  0  0  0  0  0
   10.9032  -16.3623   24.4074 O   0  0  0  0  0  0  0  0  0  0  0  0
  1  2  1  0
  2  3  1  0
  4  3  1  0
  5  1  1  0
  5  4  1  0
  5  6  1  1
  7  6  2  0
  8  6  1  0
  9  8  1  0
 10  9  1  0
 10 17  1  0
 11 10  2  0
 13 12  1  0
 14 13  2  0
 15 13  1  0
 16 17  1  0
 16 15  1  6
 18 16  1  0
 19 18  2  0
 20 18  1  0
M  END
$$$$
