PGN.pdb
     RDKit          3D

 20 20  0  0  1  0  0  0  0  0999 V2000
    9.0736  -14.2037   18.3264 N   0  0  0  0  0  0  0  0  0  0  0  0
    8.2301  -13.4873   17.4100 C   0  0  0  0  0  0  0  0  0  0  0  0
    7.5119  -12.4305   18.2657 C   0  0  0  0  0  0  0  0  0  0  0  0
    7.3728  -13.2564   19.5521 C   0  0  0  0  0  0  0  0  0  0  0  0
    8.7842  -13.7949   19.6634 C   0  0  1  0  0  0  0  0  0  0  0  0
    8.8728  -14.8670   20.6538 C   0  0  0  0  0  0  0  0  0  0  0  0
    8.6571  -14.6137   21.8595 O   0  0  0  0  0  0  0  0  0  0  0  0
    9.1988  -16.1889   20.2751 N   0  0  0  0  0  0  0  0  0  0  0  0
    9.3682  -17.2770   21.2320 C   0  0  0  0  0  0  0  0  0  0  0  0
   10.7588  -17.2875   21.7705 C   0  0  0  0  0  0  0  0  0  0  0  0
   11.1230  -18.2947   22.4322 O   0  0  0  0  0  0  0  0  0  0  0  0
   13.5586  -14.2041   19.3135 N   0  0  0  0  0  0  0  0  0  0  0  0
   13.9825  -15.3476   20.0395 C   0  0  0  0  0  0  0  0  0  0  0  0
   14.4274  -16.3617   19.4445 O   0  0  0  0  0  0  0  0  0  0  0  0
   13.8873  -15.3108   21.4885 C   0  0  0  0  0  0  0  0  0  0  0  0
   13.0350  -16.3773   22.1263 C   0  0  2  0  0  0  0  0  0  0  0  0
   11.6676  -16.2410   21.5768 N   0  0  0  0  0  0  0  0  0  0  0  0
   12.9573  -16.2313   23.6065 C   0  0  0  0  0  0  0  0  0  0  0  0
   13.9703  -16.5056   24.2880 O   0  0  0  0  0  0  0  0  0  0  0  0
   11.8272  -15.8099   24.2474 O   0  0  0  0  0  0  0  0  0  0  0  0
  1  2  1  0
  2  3  1  0
  4  3  1  0
  5  1  1  0
  5  4  1  0
  5  6  1  1
  7  6  2  0
  8  6  1  0
  9  8  1  0
 10  9  1  0
 10 17  1  0
 11 10  2  0
 13 12  1  0
 14 13  2  0
 15 13  1  0
 16 17  1  0
 16 15  1  6
 18 16  1  0
 19 18  2  0
 20 18  1  0
M  END
$$$$
