PGN.pdb
     RDKit          3D

 20 20  0  0  1  0  0  0  0  0999 V2000
    8.9245  -14.8397   19.6181 N   0  0  0  0  0  0  0  0  0  0  0  0
    8.5031  -14.6157   18.2628 C   0  0  0  0  0  0  0  0  0  0  0  0
    7.7919  -13.2523   18.2822 C   0  0  0  0  0  0  0  0  0  0  0  0
    7.1651  -13.3587   19.6794 C   0  0  0  0  0  0  0  0  0  0  0  0
    8.3708  -13.8321   20.4646 C   0  0  1  0  0  0  0  0  0  0  0  0
    7.9924  -14.3046   21.7957 C   0  0  0  0  0  0  0  0  0  0  0  0
    7.3633  -13.5452   22.5652 O   0  0  0  0  0  0  0  0  0  0  0  0
    8.3246  -15.6068   22.2325 N   0  0  0  0  0  0  0  0  0  0  0  0
    7.9389  -16.1367   23.5359 C   0  0  0  0  0  0  0  0  0  0  0  0
    8.4253  -15.2445   24.6273 C   0  0  0  0  0  0  0  0  0  0  0  0
    9.6164  -14.8415   24.5673 O   0  0  0  0  0  0  0  0  0  0  0  0
    6.7685  -12.1150   25.2956 N   0  0  0  0  0  0  0  0  0  0  0  0
    6.3399  -12.3401   26.6298 C   0  0  0  0  0  0  0  0  0  0  0  0
    5.3241  -11.7587   27.0884 O   0  0  0  0  0  0  0  0  0  0  0  0
    7.1091  -13.2615   27.4479 C   0  0  0  0  0  0  0  0  0  0  0  0
    8.2315  -13.9891   26.7540 C   0  0  2  0  0  0  0  0  0  0  0  0
    7.6278  -14.8391   25.7036 N   0  0  0  0  0  0  0  0  0  0  0  0
    8.9957  -14.8692   27.6813 C   0  0  0  0  0  0  0  0  0  0  0  0
    9.7441  -14.3359   28.5306 O   0  0  0  0  0  0  0  0  0  0  0  0
    8.9109  -16.2319   27.6419 O   0  0  0  0  0  0  0  0  0  0  0  0
  1  2  1  0
  2  3  1  0
  4  3  1  0
  5  1  1  0
  5  4  1  0
  5  6  1  1
  7  6  2  0
  8  6  1  0
  9  8  1  0
 10  9  1  0
 10 17  1  0
 11 10  2  0
 13 12  1  0
 14 13  2  0
 15 13  1  0
 16 17  1  0
 16 15  1  1
 18 16  1  0
 19 18  2  0
 20 18  1  0
M  END
$$$$
