PGN.pdb
     RDKit          3D

 20 20  0  0  1  0  0  0  0  0999 V2000
    8.5257  -15.1169   19.2960 N   0  0  0  0  0  0  0  0  0  0  0  0
    8.1911  -14.6591   17.9758 C   0  0  0  0  0  0  0  0  0  0  0  0
    7.9807  -13.1422   18.1168 C   0  0  0  0  0  0  0  0  0  0  0  0
    7.3684  -13.1418   19.5244 C   0  0  0  0  0  0  0  0  0  0  0  0
    8.3520  -14.0518   20.2308 C   0  0  1  0  0  0  0  0  0  0  0  0
    7.8497  -14.4731   21.5378 C   0  0  0  0  0  0  0  0  0  0  0  0
    7.5724  -13.6110   22.4005 O   0  0  0  0  0  0  0  0  0  0  0  0
    7.6707  -15.8403   21.8477 N   0  0  0  0  0  0  0  0  0  0  0  0
    7.0812  -16.3071   23.0979 C   0  0  0  0  0  0  0  0  0  0  0  0
    7.8919  -15.8466   24.2618 C   0  0  0  0  0  0  0  0  0  0  0  0
    9.1396  -16.0041   24.2054 O   0  0  0  0  0  0  0  0  0  0  0  0
    5.5589  -12.4463   26.5668 N   0  0  0  0  0  0  0  0  0  0  0  0
    6.9647  -12.6183   26.6596 C   0  0  0  0  0  0  0  0  0  0  0  0
    7.7527  -11.7639   26.1807 O   0  0  0  0  0  0  0  0  0  0  0  0
    7.4647  -13.8095   27.3240 C   0  0  0  0  0  0  0  0  0  0  0  0
    8.2442  -14.7720   26.4656 C   0  0  2  0  0  0  0  0  0  0  0  0
    7.3360  -15.2544   25.4014 N   0  0  0  0  0  0  0  0  0  0  0  0
    8.7281  -15.9528   27.2338 C   0  0  0  0  0  0  0  0  0  0  0  0
    8.1056  -17.0328   27.1244 O   0  0  0  0  0  0  0  0  0  0  0  0
    9.8223  -15.9034   28.0498 O   0  0  0  0  0  0  0  0  0  0  0  0
  1  2  1  0
  2  3  1  0
  4  3  1  0
  5  1  1  0
  5  4  1  0
  5  6  1  1
  7  6  2  0
  8  6  1  0
  9  8  1  0
 10  9  1  0
 10 17  1  0
 11 10  2  0
 13 12  1  0
 14 13  2  0
 15 13  1  0
 16 17  1  0
 16 15  1  1
 18 16  1  0
 19 18  2  0
 20 18  1  0
M  END
$$$$
