PGN.pdb
     RDKit          3D

 20 20  0  0  1  0  0  0  0  0999 V2000
    8.7427  -14.6074   18.4140 N   0  0  0  0  0  0  0  0  0  0  0  0
    7.4066  -14.3307   18.8645 C   0  0  0  0  0  0  0  0  0  0  0  0
    7.3487  -12.8039   19.0395 C   0  0  0  0  0  0  0  0  0  0  0  0
    8.7916  -12.5892   19.5172 C   0  0  0  0  0  0  0  0  0  0  0  0
    9.5281  -13.4172   18.4846 C   0  0  1  0  0  0  0  0  0  0  0  0
   10.9219  -13.6370   18.8681 C   0  0  0  0  0  0  0  0  0  0  0  0
   11.6612  -12.6551   19.1002 O   0  0  0  0  0  0  0  0  0  0  0  0
   11.4533  -14.9415   18.9818 N   0  0  0  0  0  0  0  0  0  0  0  0
   12.8372  -15.2124   19.3562 C   0  0  0  0  0  0  0  0  0  0  0  0
   12.9358  -15.5064   20.8149 C   0  0  0  0  0  0  0  0  0  0  0  0
   14.0829  -15.6948   21.2981 O   0  0  0  0  0  0  0  0  0  0  0  0
   11.9352  -16.5300   25.8047 N   0  0  0  0  0  0  0  0  0  0  0  0
   10.7391  -16.0293   25.2276 C   0  0  0  0  0  0  0  0  0  0  0  0
    9.6963  -15.8960   25.9168 O   0  0  0  0  0  0  0  0  0  0  0  0
   10.7564  -15.6756   23.8187 C   0  0  0  0  0  0  0  0  0  0  0  0
   12.0341  -15.9683   23.0753 C   0  0  2  0  0  0  0  0  0  0  0  0
   11.8245  -15.5820   21.6622 N   0  0  0  0  0  0  0  0  0  0  0  0
   12.3939  -17.4132   23.1133 C   0  0  0  0  0  0  0  0  0  0  0  0
   13.2498  -17.7943   23.9427 O   0  0  0  0  0  0  0  0  0  0  0  0
   11.8269  -18.3362   22.2813 O   0  0  0  0  0  0  0  0  0  0  0  0
  1  2  1  0
  2  3  1  0
  4  3  1  0
  5  1  1  0
  5  4  1  0
  5  6  1  1
  7  6  2  0
  8  6  1  0
  9  8  1  0
 10  9  1  0
 10 17  1  0
 11 10  2  0
 13 12  1  0
 14 13  2  0
 15 13  1  0
 16 17  1  0
 16 15  1  1
 18 16  1  0
 19 18  2  0
 20 18  1  0
M  END
$$$$
