PGN.pdb
     RDKit          3D

 20 20  0  0  1  0  0  0  0  0999 V2000
    7.1543  -14.6785   20.0097 N   0  0  0  0  0  0  0  0  0  0  0  0
    6.3434  -13.5436   19.6647 C   0  0  0  0  0  0  0  0  0  0  0  0
    7.3402  -12.4068   19.3838 C   0  0  0  0  0  0  0  0  0  0  0  0
    8.3996  -12.7896   20.4266 C   0  0  0  0  0  0  0  0  0  0  0  0
    8.5169  -14.2721   20.1389 C   0  0  1  0  0  0  0  0  0  0  0  0
    9.2554  -14.9663   21.1927 C   0  0  0  0  0  0  0  0  0  0  0  0
   10.4688  -14.7162   21.3646 O   0  0  0  0  0  0  0  0  0  0  0  0
    8.6238  -15.9185   22.0243 N   0  0  0  0  0  0  0  0  0  0  0  0
    9.3359  -16.7031   23.0272 C   0  0  0  0  0  0  0  0  0  0  0  0
    9.5307  -15.9061   24.2724 C   0  0  0  0  0  0  0  0  0  0  0  0
   10.7117  -15.6470   24.6232 O   0  0  0  0  0  0  0  0  0  0  0  0
    5.7119  -12.6188   26.3422 N   0  0  0  0  0  0  0  0  0  0  0  0
    7.0804  -12.9818   26.2432 C   0  0  0  0  0  0  0  0  0  0  0  0
    7.8950  -12.2626   25.6112 O   0  0  0  0  0  0  0  0  0  0  0  0
    7.5107  -14.2074   26.8935 C   0  0  0  0  0  0  0  0  0  0  0  0
    8.7821  -14.8258   26.3721 C   0  0  2  0  0  0  0  0  0  0  0  0
    8.4733  -15.4382   25.0607 N   0  0  0  0  0  0  0  0  0  0  0  0
    9.3042  -15.8924   27.2712 C   0  0  0  0  0  0  0  0  0  0  0  0
    9.7002  -15.5701   28.4136 O   0  0  0  0  0  0  0  0  0  0  0  0
    9.3664  -17.2051   26.8991 O   0  0  0  0  0  0  0  0  0  0  0  0
  1  2  1  0
  2  3  1  0
  4  3  1  0
  5  1  1  0
  5  4  1  0
  5  6  1  1
  7  6  2  0
  8  6  1  0
  9  8  1  0
 10  9  1  0
 10 17  1  0
 11 10  2  0
 13 12  1  0
 14 13  2  0
 15 13  1  0
 16 17  1  0
 16 15  1  1
 18 16  1  0
 19 18  2  0
 20 18  1  0
M  END
$$$$
