PGN.pdb
     RDKit          3D

 20 20  0  0  1  0  0  0  0  0999 V2000
    7.5752  -15.5647   19.9474 N   0  0  0  0  0  0  0  0  0  0  0  0
    6.4333  -14.6945   20.0061 C   0  0  0  0  0  0  0  0  0  0  0  0
    6.9312  -13.3401   19.4744 C   0  0  0  0  0  0  0  0  0  0  0  0
    8.3594  -13.4036   20.0334 C   0  0  0  0  0  0  0  0  0  0  0  0
    8.7374  -14.8076   19.6088 C   0  0  1  0  0  0  0  0  0  0  0  0
    9.9623  -15.2563   20.2694 C   0  0  0  0  0  0  0  0  0  0  0  0
   11.0094  -14.5819   20.1537 O   0  0  0  0  0  0  0  0  0  0  0  0
    9.9876  -16.4415   21.0386 N   0  0  0  0  0  0  0  0  0  0  0  0
   11.1305  -16.8441   21.8512 C   0  0  0  0  0  0  0  0  0  0  0  0
   10.8419  -16.6340   23.2991 C   0  0  0  0  0  0  0  0  0  0  0  0
   11.8102  -16.6821   24.1022 O   0  0  0  0  0  0  0  0  0  0  0  0
    8.9861  -13.7343   24.3126 N   0  0  0  0  0  0  0  0  0  0  0  0
    7.8687  -14.3391   24.9452 C   0  0  0  0  0  0  0  0  0  0  0  0
    6.7603  -13.7487   25.0003 O   0  0  0  0  0  0  0  0  0  0  0  0
    8.0443  -15.6591   25.5257 C   0  0  0  0  0  0  0  0  0  0  0  0
    9.3696  -16.3282   25.2676 C   0  0  2  0  0  0  0  0  0  0  0  0
    9.5587  -16.3888   23.8011 N   0  0  0  0  0  0  0  0  0  0  0  0
    9.4160  -17.7186   25.7997 C   0  0  0  0  0  0  0  0  0  0  0  0
    9.5250  -17.8822   27.0355 O   0  0  0  0  0  0  0  0  0  0  0  0
    9.3434  -18.8191   24.9939 O   0  0  0  0  0  0  0  0  0  0  0  0
  1  2  1  0
  2  3  1  0
  4  3  1  0
  5  1  1  0
  5  4  1  0
  5  6  1  1
  7  6  2  0
  8  6  1  0
  9  8  1  0
 10  9  1  0
 10 17  1  0
 11 10  2  0
 13 12  1  0
 14 13  2  0
 15 13  1  0
 16 17  1  0
 16 15  1  6
 18 16  1  0
 19 18  2  0
 20 18  1  0
M  END
$$$$
