DWW.pdb
     RDKit          3D

 37 40  0  0  1  0  0  0  0  0999 V2000
   10.0713  -19.0833   21.1491 N   0  0  0  0  0  0  0  0  0  0  0  0
   10.9833  -18.0505   20.6778 C   0  0  1  0  0  0  0  0  0  0  0  0
   10.7505  -17.9880   19.1706 C   0  0  0  0  0  0  0  0  0  0  0  0
   11.6572  -18.9204   18.4613 C   0  0  0  0  0  0  0  0  0  0  0  0
   12.4578  -19.6597   19.0951 O   0  0  0  0  0  0  0  0  0  0  0  0
   10.6582  -16.7907   21.3400 C   0  0  0  0  0  0  0  0  0  0  0  0
   11.2767  -15.7538   21.1410 O   0  0  0  0  0  0  0  0  0  0  0  0
   11.6944  -19.0462   17.0739 O   0  0  0  0  0  0  0  0  0  0  0  0
    9.5647  -16.6777   22.2940 N   0  0  0  0  0  0  0  0  0  0  0  0
    9.2143  -15.4656   22.9313 C   0  0  1  0  0  0  0  0  0  0  0  0
    7.7708  -15.0466   22.8022 C   0  0  0  0  0  0  0  0  0  0  0  0
    7.3557  -14.9264   21.3861 C   0  0  0  0  0  0  0  0  0  0  0  0
    6.5789  -15.7970   20.6550 C   0  0  0  0  0  0  0  0  0  0  0  0
    6.4389  -15.3289   19.4179 N   0  0  0  0  0  0  0  0  0  0  0  0
    7.1052  -14.1660   19.3113 C   0  0  0  0  0  0  0  0  0  0  0  0
    7.2604  -13.2954   18.2287 C   0  0  0  0  0  0  0  0  0  0  0  0
    8.0164  -12.1644   18.4404 C   0  0  0  0  0  0  0  0  0  0  0  0
    8.6045  -11.8788   19.6521 C   0  0  0  0  0  0  0  0  0  0  0  0
    8.4537  -12.7280   20.7120 C   0  0  0  0  0  0  0  0  0  0  0  0
    7.6904  -13.8848   20.5260 C   0  0  0  0  0  0  0  0  0  0  0  0
    9.6709  -15.3967   24.3565 C   0  0  0  0  0  0  0  0  0  0  0  0
    9.8797  -14.3237   24.9750 O   0  0  0  0  0  0  0  0  0  0  0  0
    9.8985  -16.5865   25.1076 N   0  0  0  0  0  0  0  0  0  0  0  0
   10.3443  -16.6101   26.4828 C   0  0  1  0  0  0  0  0  0  0  0  0
    9.1562  -16.6646   27.4246 C   0  0  0  0  0  0  0  0  0  0  0  0
    7.9927  -15.9424   26.8951 C   0  0  0  0  0  0  0  0  0  0  0  0
    6.8784  -16.5114   26.2702 C   0  0  0  0  0  0  0  0  0  0  0  0
    6.0507  -15.5250   25.9367 N   0  0  0  0  0  0  0  0  0  0  0  0
    6.5472  -14.3105   26.3052 C   0  0  0  0  0  0  0  0  0  0  0  0
    6.0730  -13.0276   26.1742 C   0  0  0  0  0  0  0  0  0  0  0  0
    6.8282  -11.9610   26.6539 C   0  0  0  0  0  0  0  0  0  0  0  0
    8.0355  -12.2293   27.2487 C   0  0  0  0  0  0  0  0  0  0  0  0
    8.4930  -13.5282   27.3686 C   0  0  0  0  0  0  0  0  0  0  0  0
    7.7671  -14.5899   26.9052 C   0  0  0  0  0  0  0  0  0  0  0  0
   11.2579  -17.7690   26.7193 C   0  0  0  0  0  0  0  0  0  0  0  0
   11.8116  -17.9257   27.8145 O   0  0  0  0  0  0  0  0  0  0  0  0
   11.4833  -18.6772   25.6899 O   0  0  0  0  0  0  0  0  0  0  0  0
  2  1  1  1
  3  2  1  0
  4  8  1  0
  4  3  1  0
  5  4  2  0
  6  2  1  0
  7  6  2  0
  9  6  1  0
 10 11  1  1
 10  9  1  0
 12 11  1  0
 13 12  2  0
 14 15  1  0
 14 13  1  0
 15 20  2  0
 16 15  1  0
 16 17  2  0
 17 18  1  0
 18 19  2  0
 20 12  1  0
 20 19  1  0
 21 22  2  0
 21 10  1  0
 23 21  1  0
 24 23  1  0
 24 25  1  1
 25 26  1  0
 26 27  2  0
 26 34  1  0
 27 28  1  0
 28 29  1  0
 29 30  2  0
 30 31  1  0
 32 31  2  0
 33 32  1  0
 34 33  2  0
 34 29  1  0
 35 37  1  0
 35 24  1  0
 36 35  2  0
M  END
$$$$
