DWW.pdb
     RDKit          3D

 37 40  0  0  1  0  0  0  0  0999 V2000
    9.5005  -18.2269   18.7252 N   0  0  0  0  0  0  0  0  0  0  0  0
   10.6613  -17.4927   19.2091 C   0  0  1  0  0  0  0  0  0  0  0  0
   11.1012  -16.6398   18.0222 C   0  0  0  0  0  0  0  0  0  0  0  0
   11.5763  -17.4950   16.9098 C   0  0  0  0  0  0  0  0  0  0  0  0
   11.7348  -18.7362   17.0636 O   0  0  0  0  0  0  0  0  0  0  0  0
   10.2664  -16.6814   20.3566 C   0  0  0  0  0  0  0  0  0  0  0  0
   10.9985  -15.8421   20.8635 O   0  0  0  0  0  0  0  0  0  0  0  0
   11.8786  -17.0040   15.6411 O   0  0  0  0  0  0  0  0  0  0  0  0
    8.9608  -16.8151   20.9862 N   0  0  0  0  0  0  0  0  0  0  0  0
    8.6151  -16.1737   22.1975 C   0  0  1  0  0  0  0  0  0  0  0  0
    7.1429  -16.1315   22.5239 C   0  0  0  0  0  0  0  0  0  0  0  0
    6.8962  -15.6346   23.8967 C   0  0  0  0  0  0  0  0  0  0  0  0
    6.5826  -16.3684   25.0188 C   0  0  0  0  0  0  0  0  0  0  0  0
    6.4370  -15.5471   26.0549 N   0  0  0  0  0  0  0  0  0  0  0  0
    6.6477  -14.2838   25.6457 C   0  0  0  0  0  0  0  0  0  0  0  0
    6.6126  -13.0758   26.3484 C   0  0  0  0  0  0  0  0  0  0  0  0
    6.8782  -11.9297   25.6333 C   0  0  0  0  0  0  0  0  0  0  0  0
    7.1678  -11.9430   24.2873 C   0  0  0  0  0  0  0  0  0  0  0  0
    7.2034  -13.1226   23.5985 C   0  0  0  0  0  0  0  0  0  0  0  0
    6.9379  -14.3032   24.2995 C   0  0  0  0  0  0  0  0  0  0  0  0
    9.4139  -16.6581   23.3687 C   0  0  0  0  0  0  0  0  0  0  0  0
    9.3206  -17.8138   23.8515 O   0  0  0  0  0  0  0  0  0  0  0  0
   10.3525  -15.8022   24.0153 N   0  0  0  0  0  0  0  0  0  0  0  0
   11.2764  -16.2320   25.0409 C   0  0  1  0  0  0  0  0  0  0  0  0
   10.6305  -17.2751   25.9333 C   0  0  0  0  0  0  0  0  0  0  0  0
   10.0522  -16.6873   27.1480 C   0  0  0  0  0  0  0  0  0  0  0  0
    9.0051  -17.2183   27.9080 C   0  0  0  0  0  0  0  0  0  0  0  0
    8.7777  -16.3896   28.9232 N   0  0  0  0  0  0  0  0  0  0  0  0
    9.6206  -15.3191   28.8922 C   0  0  0  0  0  0  0  0  0  0  0  0
    9.7648  -14.2187   29.7024 C   0  0  0  0  0  0  0  0  0  0  0  0
   10.7341  -13.2651   29.4041 C   0  0  0  0  0  0  0  0  0  0  0  0
   11.5229  -13.4578   28.2976 C   0  0  0  0  0  0  0  0  0  0  0  0
   11.3591  -14.5722   27.4963 C   0  0  0  0  0  0  0  0  0  0  0  0
   10.4141  -15.5208   27.7715 C   0  0  0  0  0  0  0  0  0  0  0  0
   12.5306  -16.7663   24.4281 C   0  0  0  0  0  0  0  0  0  0  0  0
   13.4522  -17.1879   25.1376 O   0  0  0  0  0  0  0  0  0  0  0  0
   12.6549  -16.7854   23.0427 O   0  0  0  0  0  0  0  0  0  0  0  0
  2  1  1  6
  3  2  1  0
  4  8  1  0
  4  3  1  0
  5  4  2  0
  6  2  1  0
  7  6  2  0
  9  6  1  0
 10 11  1  1
 10  9  1  0
 12 11  1  0
 13 12  2  0
 14 15  1  0
 14 13  1  0
 15 20  2  0
 16 15  1  0
 16 17  2  0
 17 18  1  0
 18 19  2  0
 20 12  1  0
 20 19  1  0
 21 22  2  0
 21 10  1  0
 23 21  1  0
 24 23  1  0
 24 25  1  6
 25 26  1  0
 26 27  2  0
 26 34  1  0
 27 28  1  0
 28 29  1  0
 29 30  2  0
 30 31  1  0
 32 31  2  0
 33 32  1  0
 34 33  2  0
 34 29  1  0
 35 37  1  0
 35 24  1  0
 36 35  2  0
M  END
$$$$
