DWW.pdb
     RDKit          3D

 37 40  0  0  1  0  0  0  0  0999 V2000
    9.9414  -18.7393   20.5434 N   0  0  0  0  0  0  0  0  0  0  0  0
   11.1023  -17.8602   20.5404 C   0  0  1  0  0  0  0  0  0  0  0  0
   11.2548  -17.4266   19.0849 C   0  0  0  0  0  0  0  0  0  0  0  0
   11.8782  -18.5028   18.2801 C   0  0  0  0  0  0  0  0  0  0  0  0
   11.2421  -19.0769   17.3552 O   0  0  0  0  0  0  0  0  0  0  0  0
   10.8462  -16.7311   21.4296 C   0  0  0  0  0  0  0  0  0  0  0  0
   11.6096  -15.7809   21.5377 O   0  0  0  0  0  0  0  0  0  0  0  0
   13.1817  -18.9528   18.4809 O   0  0  0  0  0  0  0  0  0  0  0  0
    9.6528  -16.6549   22.2595 N   0  0  0  0  0  0  0  0  0  0  0  0
    9.3553  -15.5503   23.0897 C   0  0  1  0  0  0  0  0  0  0  0  0
    7.9127  -15.1096   23.1083 C   0  0  0  0  0  0  0  0  0  0  0  0
    7.3281  -15.0771   21.7483 C   0  0  0  0  0  0  0  0  0  0  0  0
    6.5063  -16.0107   21.1578 C   0  0  0  0  0  0  0  0  0  0  0  0
    6.2018  -15.6122   19.9259 N   0  0  0  0  0  0  0  0  0  0  0  0
    6.8029  -14.4339   19.6853 C   0  0  0  0  0  0  0  0  0  0  0  0
    6.7932  -13.6154   18.5521 C   0  0  0  0  0  0  0  0  0  0  0  0
    7.5223  -12.4494   18.6178 C   0  0  0  0  0  0  0  0  0  0  0  0
    8.2377  -12.0814   19.7352 C   0  0  0  0  0  0  0  0  0  0  0  0
    8.2482  -12.8794   20.8443 C   0  0  0  0  0  0  0  0  0  0  0  0
    7.5160  -14.0702   20.8062 C   0  0  0  0  0  0  0  0  0  0  0  0
    9.8925  -15.6979   24.4805 C   0  0  0  0  0  0  0  0  0  0  0  0
   10.7310  -14.9171   24.9950 O   0  0  0  0  0  0  0  0  0  0  0  0
    9.4635  -16.7683   25.3181 N   0  0  0  0  0  0  0  0  0  0  0  0
   10.0114  -17.0505   26.6259 C   0  0  1  0  0  0  0  0  0  0  0  0
    9.0389  -16.6276   27.7109 C   0  0  0  0  0  0  0  0  0  0  0  0
    7.9972  -15.7258   27.2038 C   0  0  0  0  0  0  0  0  0  0  0  0
    6.8261  -16.1034   26.5389 C   0  0  0  0  0  0  0  0  0  0  0  0
    6.1501  -14.9963   26.2444 N   0  0  0  0  0  0  0  0  0  0  0  0
    6.8040  -13.8819   26.6775 C   0  0  0  0  0  0  0  0  0  0  0  0
    6.5155  -12.5405   26.6039 C   0  0  0  0  0  0  0  0  0  0  0  0
    7.4029  -11.6137   27.1439 C   0  0  0  0  0  0  0  0  0  0  0  0
    8.5500  -12.0758   27.7390 C   0  0  0  0  0  0  0  0  0  0  0  0
    8.8199  -13.4302   27.8005 C   0  0  0  0  0  0  0  0  0  0  0  0
    7.9620  -14.3569   27.2774 C   0  0  0  0  0  0  0  0  0  0  0  0
   10.3455  -18.5016   26.7540 C   0  0  0  0  0  0  0  0  0  0  0  0
   10.0222  -19.3061   25.8715 O   0  0  0  0  0  0  0  0  0  0  0  0
   11.0278  -18.9444   27.8825 O   0  0  0  0  0  0  0  0  0  0  0  0
  2  1  1  6
  3  2  1  0
  4  8  1  0
  4  3  1  0
  5  4  2  0
  6  2  1  0
  7  6  2  0
  9  6  1  0
 10 11  1  1
 10  9  1  0
 12 11  1  0
 13 12  2  0
 14 15  1  0
 14 13  1  0
 15 20  2  0
 16 15  1  0
 16 17  2  0
 17 18  1  0
 18 19  2  0
 20 12  1  0
 20 19  1  0
 21 22  2  0
 21 10  1  0
 23 21  1  0
 24 23  1  0
 24 25  1  1
 25 26  1  0
 26 27  2  0
 26 34  1  0
 27 28  1  0
 28 29  1  0
 29 30  2  0
 30 31  1  0
 32 31  2  0
 33 32  1  0
 34 33  2  0
 34 29  1  0
 35 37  1  0
 35 24  1  0
 36 35  2  0
M  END
$$$$
