DWW.pdb
     RDKit          3D

 37 40  0  0  1  0  0  0  0  0999 V2000
   10.6245  -15.8449   17.5167 N   0  0  0  0  0  0  0  0  0  0  0  0
   10.2712  -16.9776   18.3609 C   0  0  1  0  0  0  0  0  0  0  0  0
   11.4706  -17.9170   18.2689 C   0  0  0  0  0  0  0  0  0  0  0  0
   11.1081  -19.1611   17.5509 C   0  0  0  0  0  0  0  0  0  0  0  0
   10.2242  -19.1609   16.6520 O   0  0  0  0  0  0  0  0  0  0  0  0
   10.0438  -16.5032   19.7227 C   0  0  0  0  0  0  0  0  0  0  0  0
   10.8061  -15.7383   20.2983 O   0  0  0  0  0  0  0  0  0  0  0  0
   11.7002  -20.3956   17.8101 O   0  0  0  0  0  0  0  0  0  0  0  0
    8.8830  -16.9109   20.5005 N   0  0  0  0  0  0  0  0  0  0  0  0
    8.6264  -16.4475   21.8110 C   0  0  1  0  0  0  0  0  0  0  0  0
    7.1784  -16.1921   22.1479 C   0  0  0  0  0  0  0  0  0  0  0  0
    6.9963  -15.8508   23.5771 C   0  0  0  0  0  0  0  0  0  0  0  0
    6.5121  -16.6551   24.5843 C   0  0  0  0  0  0  0  0  0  0  0  0
    6.5029  -15.9728   25.7261 N   0  0  0  0  0  0  0  0  0  0  0  0
    6.9710  -14.7329   25.4994 C   0  0  0  0  0  0  0  0  0  0  0  0
    7.1560  -13.6514   26.3656 C   0  0  0  0  0  0  0  0  0  0  0  0
    7.6634  -12.4939   25.8196 C   0  0  0  0  0  0  0  0  0  0  0  0
    7.9825  -12.3785   24.4852 C   0  0  0  0  0  0  0  0  0  0  0  0
    7.8032  -13.4344   23.6367 C   0  0  0  0  0  0  0  0  0  0  0  0
    7.2895  -14.6234   24.1639 C   0  0  0  0  0  0  0  0  0  0  0  0
    9.2885  -17.2768   22.8686 C   0  0  0  0  0  0  0  0  0  0  0  0
    9.1418  -18.5192   22.9797 O   0  0  0  0  0  0  0  0  0  0  0  0
   10.1479  -16.6765   23.8343 N   0  0  0  0  0  0  0  0  0  0  0  0
   10.9999  -17.4153   24.7390 C   0  0  1  0  0  0  0  0  0  0  0  0
   11.7917  -16.4646   25.6171 C   0  0  0  0  0  0  0  0  0  0  0  0
   11.1855  -16.2969   26.9437 C   0  0  0  0  0  0  0  0  0  0  0  0
   10.9114  -17.3137   27.8641 C   0  0  0  0  0  0  0  0  0  0  0  0
   10.3642  -16.7532   28.9391 N   0  0  0  0  0  0  0  0  0  0  0  0
   10.2529  -15.4025   28.7960 C   0  0  0  0  0  0  0  0  0  0  0  0
    9.7583  -14.4134   29.6115 C   0  0  0  0  0  0  0  0  0  0  0  0
    9.7715  -13.0908   29.1771 C   0  0  0  0  0  0  0  0  0  0  0  0
   10.2840  -12.8154   27.9341 C   0  0  0  0  0  0  0  0  0  0  0  0
   10.7754  -13.8271   27.1304 C   0  0  0  0  0  0  0  0  0  0  0  0
   10.7725  -15.1320   27.5378 C   0  0  0  0  0  0  0  0  0  0  0  0
   10.1909  -18.3541   25.5743 C   0  0  0  0  0  0  0  0  0  0  0  0
    8.9807  -18.1648   25.7480 O   0  0  0  0  0  0  0  0  0  0  0  0
   10.8142  -19.4511   26.1603 O   0  0  0  0  0  0  0  0  0  0  0  0
  2  1  1  6
  3  2  1  0
  4  8  1  0
  4  3  1  0
  5  4  2  0
  6  2  1  0
  7  6  2  0
  9  6  1  0
 10 11  1  1
 10  9  1  0
 12 11  1  0
 13 12  2  0
 14 15  1  0
 14 13  1  0
 15 20  2  0
 16 15  1  0
 16 17  2  0
 17 18  1  0
 18 19  2  0
 20 12  1  0
 20 19  1  0
 21 22  2  0
 21 10  1  0
 23 21  1  0
 24 23  1  0
 24 25  1  1
 25 26  1  0
 26 27  2  0
 26 34  1  0
 27 28  1  0
 28 29  1  0
 29 30  2  0
 30 31  1  0
 32 31  2  0
 33 32  1  0
 34 33  2  0
 34 29  1  0
 35 37  1  0
 35 24  1  0
 36 35  2  0
M  END
$$$$
