DWW.pdb
     RDKit          3D

 37 40  0  0  1  0  0  0  0  0999 V2000
   10.1709  -18.0307   18.7623 N   0  0  0  0  0  0  0  0  0  0  0  0
   11.2951  -17.4167   19.4549 C   0  0  1  0  0  0  0  0  0  0  0  0
   11.6044  -16.1578   18.6492 C   0  0  0  0  0  0  0  0  0  0  0  0
   12.2665  -16.5038   17.3700 C   0  0  0  0  0  0  0  0  0  0  0  0
   13.4469  -16.1342   17.1261 O   0  0  0  0  0  0  0  0  0  0  0  0
   10.8995  -17.1118   20.8266 C   0  0  0  0  0  0  0  0  0  0  0  0
   11.6070  -16.4805   21.6000 O   0  0  0  0  0  0  0  0  0  0  0  0
   11.6493  -17.2437   16.3633 O   0  0  0  0  0  0  0  0  0  0  0  0
    9.6227  -17.5422   21.3776 N   0  0  0  0  0  0  0  0  0  0  0  0
    9.2539  -17.3417   22.7273 C   0  0  1  0  0  0  0  0  0  0  0  0
    7.8192  -16.9415   22.9659 C   0  0  0  0  0  0  0  0  0  0  0  0
    7.6356  -15.4742   22.8895 C   0  0  0  0  0  0  0  0  0  0  0  0
    7.6736  -14.6737   21.7699 C   0  0  0  0  0  0  0  0  0  0  0  0
    7.4644  -13.4094   22.1259 N   0  0  0  0  0  0  0  0  0  0  0  0
    7.2875  -13.3525   23.4575 C   0  0  0  0  0  0  0  0  0  0  0  0
    7.0385  -12.2673   24.3027 C   0  0  0  0  0  0  0  0  0  0  0  0
    6.9031  -12.5398   25.6454 C   0  0  0  0  0  0  0  0  0  0  0  0
    7.0038  -13.8130   26.1598 C   0  0  0  0  0  0  0  0  0  0  0  0
    7.2465  -14.8755   25.3356 C   0  0  0  0  0  0  0  0  0  0  0  0
    7.3882  -14.6284   23.9665 C   0  0  0  0  0  0  0  0  0  0  0  0
    9.6538  -18.4755   23.6212 C   0  0  0  0  0  0  0  0  0  0  0  0
    8.9078  -19.4473   23.8978 O   0  0  0  0  0  0  0  0  0  0  0  0
   10.9456  -18.5093   24.2226 N   0  0  0  0  0  0  0  0  0  0  0  0
   11.1939  -18.3125   25.6333 C   0  0  1  0  0  0  0  0  0  0  0  0
   10.9705  -16.8609   26.0136 C   0  0  0  0  0  0  0  0  0  0  0  0
   10.9057  -16.6702   27.4679 C   0  0  0  0  0  0  0  0  0  0  0  0
   11.2179  -17.6229   28.4432 C   0  0  0  0  0  0  0  0  0  0  0  0
   11.0307  -17.0621   29.6347 N   0  0  0  0  0  0  0  0  0  0  0  0
   10.6066  -15.7722   29.5184 C   0  0  0  0  0  0  0  0  0  0  0  0
   10.2809  -14.8081   30.4417 C   0  0  0  0  0  0  0  0  0  0  0  0
    9.8615  -13.5531   30.0093 C   0  0  0  0  0  0  0  0  0  0  0  0
    9.7863  -13.3174   28.6593 C   0  0  0  0  0  0  0  0  0  0  0  0
   10.1181  -14.3031   27.7487 C   0  0  0  0  0  0  0  0  0  0  0  0
   10.5328  -15.5417   28.1518 C   0  0  0  0  0  0  0  0  0  0  0  0
   10.3235  -19.2114   26.4506 C   0  0  0  0  0  0  0  0  0  0  0  0
    9.1131  -19.3077   26.2136 O   0  0  0  0  0  0  0  0  0  0  0  0
   10.8892  -19.9445   27.4887 O   0  0  0  0  0  0  0  0  0  0  0  0
  2  1  1  6
  3  2  1  0
  4  8  1  0
  4  3  1  0
  5  4  2  0
  6  2  1  0
  7  6  2  0
  9  6  1  0
 10 11  1  6
 10  9  1  0
 12 11  1  0
 13 12  2  0
 14 15  1  0
 14 13  1  0
 15 20  2  0
 16 15  1  0
 16 17  2  0
 17 18  1  0
 18 19  2  0
 20 12  1  0
 20 19  1  0
 21 22  2  0
 21 10  1  0
 23 21  1  0
 24 23  1  0
 24 25  1  1
 25 26  1  0
 26 27  2  0
 26 34  1  0
 27 28  1  0
 28 29  1  0
 29 30  2  0
 30 31  1  0
 32 31  2  0
 33 32  1  0
 34 33  2  0
 34 29  1  0
 35 37  1  0
 35 24  1  0
 36 35  2  0
M  END
$$$$
