DWW.pdb
     RDKit          3D

 37 40  0  0  1  0  0  0  0  0999 V2000
    9.7133  -18.9403   20.7317 N   0  0  0  0  0  0  0  0  0  0  0  0
   10.7233  -17.9973   20.2720 C   0  0  1  0  0  0  0  0  0  0  0  0
   10.3519  -17.7110   18.8195 C   0  0  0  0  0  0  0  0  0  0  0  0
   11.3282  -18.3347   17.8963 C   0  0  0  0  0  0  0  0  0  0  0  0
   11.8599  -19.4461   18.1635 O   0  0  0  0  0  0  0  0  0  0  0  0
   10.6680  -16.7986   21.1033 C   0  0  0  0  0  0  0  0  0  0  0  0
   11.5115  -15.9134   21.0540 O   0  0  0  0  0  0  0  0  0  0  0  0
   11.7247  -17.7535   16.6934 O   0  0  0  0  0  0  0  0  0  0  0  0
    9.5953  -16.5692   22.0601 N   0  0  0  0  0  0  0  0  0  0  0  0
    9.4340  -15.3562   22.7676 C   0  0  1  0  0  0  0  0  0  0  0  0
    8.0737  -14.7116   22.6689 C   0  0  0  0  0  0  0  0  0  0  0  0
    7.5455  -14.7468   21.2861 C   0  0  0  0  0  0  0  0  0  0  0  0
    6.7083  -15.6841   20.7235 C   0  0  0  0  0  0  0  0  0  0  0  0
    6.4703  -15.3571   19.4564 N   0  0  0  0  0  0  0  0  0  0  0  0
    7.1306  -14.2227   19.1651 C   0  0  0  0  0  0  0  0  0  0  0  0
    7.2009  -13.4823   17.9815 C   0  0  0  0  0  0  0  0  0  0  0  0
    7.9762  -12.3448   18.0018 C   0  0  0  0  0  0  0  0  0  0  0  0
    8.6619  -11.9318   19.1221 C   0  0  0  0  0  0  0  0  0  0  0  0
    8.5941  -12.6535   20.2804 C   0  0  0  0  0  0  0  0  0  0  0  0
    7.8136  -13.8137   20.2891 C   0  0  0  0  0  0  0  0  0  0  0  0
    9.8889  -15.4411   24.1925 C   0  0  0  0  0  0  0  0  0  0  0  0
   10.3292  -14.4641   24.8477 O   0  0  0  0  0  0  0  0  0  0  0  0
    9.8426  -16.6774   24.9003 N   0  0  0  0  0  0  0  0  0  0  0  0
   10.1899  -16.8321   26.2952 C   0  0  1  0  0  0  0  0  0  0  0  0
    8.9407  -17.0233   27.1347 C   0  0  0  0  0  0  0  0  0  0  0  0
    7.8909  -16.0532   26.7994 C   0  0  0  0  0  0  0  0  0  0  0  0
    6.6287  -16.3468   26.2735 C   0  0  0  0  0  0  0  0  0  0  0  0
    5.9781  -15.1982   26.1107 N   0  0  0  0  0  0  0  0  0  0  0  0
    6.7363  -14.1352   26.5013 C   0  0  0  0  0  0  0  0  0  0  0  0
    6.5090  -12.7802   26.5177 C   0  0  0  0  0  0  0  0  0  0  0  0
    7.5024  -11.9200   26.9774 C   0  0  0  0  0  0  0  0  0  0  0  0
    8.6898  -12.4601   27.4039 C   0  0  0  0  0  0  0  0  0  0  0  0
    8.8964  -13.8266   27.3774 C   0  0  0  0  0  0  0  0  0  0  0  0
    7.9344  -14.6890   26.9307 C   0  0  0  0  0  0  0  0  0  0  0  0
   11.1291  -17.9801   26.4789 C   0  0  0  0  0  0  0  0  0  0  0  0
   11.4301  -18.7105   25.5268 O   0  0  0  0  0  0  0  0  0  0  0  0
   11.6661  -18.2233   27.7389 O   0  0  0  0  0  0  0  0  0  0  0  0
  2  1  1  1
  3  2  1  0
  4  8  1  0
  4  3  1  0
  5  4  2  0
  6  2  1  0
  7  6  2  0
  9  6  1  0
 10 11  1  1
 10  9  1  0
 12 11  1  0
 13 12  2  0
 14 15  1  0
 14 13  1  0
 15 20  2  0
 16 15  1  0
 16 17  2  0
 17 18  1  0
 18 19  2  0
 20 12  1  0
 20 19  1  0
 21 22  2  0
 21 10  1  0
 23 21  1  0
 24 23  1  0
 24 25  1  1
 25 26  1  0
 26 27  2  0
 26 34  1  0
 27 28  1  0
 28 29  1  0
 29 30  2  0
 30 31  1  0
 32 31  2  0
 33 32  1  0
 34 33  2  0
 34 29  1  0
 35 37  1  0
 35 24  1  0
 36 35  2  0
M  END
$$$$
