DWW.pdb
     RDKit          3D

 37 40  0  0  1  0  0  0  0  0999 V2000
    7.1943  -14.7738   18.6202 N   0  0  0  0  0  0  0  0  0  0  0  0
    7.9972  -15.9529   18.9131 C   0  0  1  0  0  0  0  0  0  0  0  0
    8.8136  -16.1890   17.6452 C   0  0  0  0  0  0  0  0  0  0  0  0
    7.9376  -16.6178   16.5302 C   0  0  0  0  0  0  0  0  0  0  0  0
    6.6892  -16.7092   16.6800 O   0  0  0  0  0  0  0  0  0  0  0  0
    8.8421  -15.6773   20.0713 C   0  0  0  0  0  0  0  0  0  0  0  0
    9.5595  -14.6894   20.1533 O   0  0  0  0  0  0  0  0  0  0  0  0
    8.4156  -16.9467   15.2632 O   0  0  0  0  0  0  0  0  0  0  0  0
    8.8921  -16.5673   21.2219 N   0  0  0  0  0  0  0  0  0  0  0  0
    9.6585  -16.2968   22.3783 C   0  0  1  0  0  0  0  0  0  0  0  0
    9.3995  -14.9683   23.0446 C   0  0  0  0  0  0  0  0  0  0  0  0
    8.2535  -15.0342   23.9798 C   0  0  0  0  0  0  0  0  0  0  0  0
    7.5162  -16.1404   24.3382 C   0  0  0  0  0  0  0  0  0  0  0  0
    6.5708  -15.7782   25.2010 N   0  0  0  0  0  0  0  0  0  0  0  0
    6.6645  -14.4557   25.4240 C   0  0  0  0  0  0  0  0  0  0  0  0
    5.9093  -13.6090   26.2407 C   0  0  0  0  0  0  0  0  0  0  0  0
    6.2599  -12.2777   26.2534 C   0  0  0  0  0  0  0  0  0  0  0  0
    7.3015  -11.7756   25.5060 C   0  0  0  0  0  0  0  0  0  0  0  0
    8.0416  -12.6014   24.7074 C   0  0  0  0  0  0  0  0  0  0  0  0
    7.7082  -13.9591   24.6750 C   0  0  0  0  0  0  0  0  0  0  0  0
    9.6338  -17.4146   23.3755 C   0  0  0  0  0  0  0  0  0  0  0  0
    8.6068  -17.7703   24.0051 O   0  0  0  0  0  0  0  0  0  0  0  0
   10.8151  -18.1561   23.6692 N   0  0  0  0  0  0  0  0  0  0  0  0
   11.6409  -17.9456   24.8371 C   0  0  1  0  0  0  0  0  0  0  0  0
   11.3856  -16.5711   25.4264 C   0  0  0  0  0  0  0  0  0  0  0  0
   10.9914  -16.6358   26.8392 C   0  0  0  0  0  0  0  0  0  0  0  0
   11.1866  -17.7166   27.7052 C   0  0  0  0  0  0  0  0  0  0  0  0
   10.6907  -17.3812   28.8930 N   0  0  0  0  0  0  0  0  0  0  0  0
   10.1674  -16.1230   28.8784 C   0  0  0  0  0  0  0  0  0  0  0  0
    9.5517  -15.3551   29.8373 C   0  0  0  0  0  0  0  0  0  0  0  0
    9.1044  -14.0770   29.5145 C   0  0  0  0  0  0  0  0  0  0  0  0
    9.2952  -13.6208   28.2342 C   0  0  0  0  0  0  0  0  0  0  0  0
    9.9164  -14.4115   27.2857 C   0  0  0  0  0  0  0  0  0  0  0  0
   10.3638  -15.6689   27.5817 C   0  0  0  0  0  0  0  0  0  0  0  0
   11.3919  -19.0104   25.8558 C   0  0  0  0  0  0  0  0  0  0  0  0
   12.2640  -19.3162   26.6783 O   0  0  0  0  0  0  0  0  0  0  0  0
   10.1623  -19.6608   25.8718 O   0  0  0  0  0  0  0  0  0  0  0  0
  2  1  1  6
  3  2  1  0
  4  8  1  0
  4  3  1  0
  5  4  2  0
  6  2  1  0
  7  6  2  0
  9  6  1  0
 10 11  1  1
 10  9  1  0
 12 11  1  0
 13 12  2  0
 14 15  1  0
 14 13  1  0
 15 20  2  0
 16 15  1  0
 16 17  2  0
 17 18  1  0
 18 19  2  0
 20 12  1  0
 20 19  1  0
 21 22  2  0
 21 10  1  0
 23 21  1  0
 24 23  1  0
 24 25  1  1
 25 26  1  0
 26 27  2  0
 26 34  1  0
 27 28  1  0
 28 29  1  0
 29 30  2  0
 30 31  1  0
 32 31  2  0
 33 32  1  0
 34 33  2  0
 34 29  1  0
 35 37  1  0
 35 24  1  0
 36 35  2  0
M  END
$$$$
