DWW.pdb
     RDKit          3D

 37 40  0  0  1  0  0  0  0  0999 V2000
    9.3534  -18.4434   18.0726 N   0  0  0  0  0  0  0  0  0  0  0  0
   10.4793  -17.5934   18.4335 C   0  0  1  0  0  0  0  0  0  0  0  0
   10.5685  -16.5701   17.3044 C   0  0  0  0  0  0  0  0  0  0  0  0
   11.6160  -16.9549   16.3301 C   0  0  0  0  0  0  0  0  0  0  0  0
   12.2529  -18.0361   16.4507 O   0  0  0  0  0  0  0  0  0  0  0  0
   10.2090  -16.9691   19.7252 C   0  0  0  0  0  0  0  0  0  0  0  0
   11.0489  -16.3324   20.3468 O   0  0  0  0  0  0  0  0  0  0  0  0
   11.9695  -16.1691   15.2349 O   0  0  0  0  0  0  0  0  0  0  0  0
    8.9083  -17.0613   20.3721 N   0  0  0  0  0  0  0  0  0  0  0  0
    8.6490  -16.5561   21.6665 C   0  0  1  0  0  0  0  0  0  0  0  0
    7.1953  -16.3570   22.0172 C   0  0  0  0  0  0  0  0  0  0  0  0
    7.0252  -15.8498   23.3978 C   0  0  0  0  0  0  0  0  0  0  0  0
    6.6461  -16.5551   24.5179 C   0  0  0  0  0  0  0  0  0  0  0  0
    6.6085  -15.7335   25.5632 N   0  0  0  0  0  0  0  0  0  0  0  0
    6.9551  -14.4979   25.1622 C   0  0  0  0  0  0  0  0  0  0  0  0
    7.0665  -13.3011   25.8758 C   0  0  0  0  0  0  0  0  0  0  0  0
    7.4502  -12.1849   25.1671 C   0  0  0  0  0  0  0  0  0  0  0  0
    7.7181  -12.2168   23.8169 C   0  0  0  0  0  0  0  0  0  0  0  0
    7.6105  -13.3857   23.1172 C   0  0  0  0  0  0  0  0  0  0  0  0
    7.2228  -14.5359   23.8116 C   0  0  0  0  0  0  0  0  0  0  0  0
    9.3666  -17.3073   22.7460 C   0  0  0  0  0  0  0  0  0  0  0  0
    9.4465  -18.5598   22.7948 O   0  0  0  0  0  0  0  0  0  0  0  0
   10.0173  -16.6141   23.8079 N   0  0  0  0  0  0  0  0  0  0  0  0
   10.9368  -17.2277   24.7397 C   0  0  1  0  0  0  0  0  0  0  0  0
   11.4858  -16.1919   25.7028 C   0  0  0  0  0  0  0  0  0  0  0  0
   10.8761  -16.2918   27.0346 C   0  0  0  0  0  0  0  0  0  0  0  0
   10.9621  -17.3828   27.9055 C   0  0  0  0  0  0  0  0  0  0  0  0
   10.2764  -17.0813   29.0047 N   0  0  0  0  0  0  0  0  0  0  0  0
    9.7275  -15.8365   28.9251 C   0  0  0  0  0  0  0  0  0  0  0  0
    8.9477  -15.1015   29.7852 C   0  0  0  0  0  0  0  0  0  0  0  0
    8.5218  -13.8294   29.4135 C   0  0  0  0  0  0  0  0  0  0  0  0
    8.8992  -13.3456   28.1859 C   0  0  0  0  0  0  0  0  0  0  0  0
    9.6834  -14.1034   27.3365 C   0  0  0  0  0  0  0  0  0  0  0  0
   10.1130  -15.3543   27.6820 C   0  0  0  0  0  0  0  0  0  0  0  0
   10.2680  -18.3376   25.4844 C   0  0  0  0  0  0  0  0  0  0  0  0
    9.0430  -18.3360   25.6575 O   0  0  0  0  0  0  0  0  0  0  0  0
   11.0398  -19.3805   25.9861 O   0  0  0  0  0  0  0  0  0  0  0  0
  2  1  1  6
  3  2  1  0
  4  8  1  0
  4  3  1  0
  5  4  2  0
  6  2  1  0
  7  6  2  0
  9  6  1  0
 10 11  1  1
 10  9  1  0
 12 11  1  0
 13 12  2  0
 14 15  1  0
 14 13  1  0
 15 20  2  0
 16 15  1  0
 16 17  2  0
 17 18  1  0
 18 19  2  0
 20 12  1  0
 20 19  1  0
 21 22  2  0
 21 10  1  0
 23 21  1  0
 24 23  1  0
 24 25  1  1
 25 26  1  0
 26 27  2  0
 26 34  1  0
 27 28  1  0
 28 29  1  0
 29 30  2  0
 30 31  1  0
 32 31  2  0
 33 32  1  0
 34 33  2  0
 34 29  1  0
 35 37  1  0
 35 24  1  0
 36 35  2  0
M  END
$$$$
