DWW.pdb
     RDKit          3D

 37 40  0  0  1  0  0  0  0  0999 V2000
   10.0367  -18.9857   21.2289 N   0  0  0  0  0  0  0  0  0  0  0  0
   11.0521  -18.0065   20.8673 C   0  0  1  0  0  0  0  0  0  0  0  0
   10.8651  -17.7918   19.3678 C   0  0  0  0  0  0  0  0  0  0  0  0
   11.7675  -18.6768   18.5951 C   0  0  0  0  0  0  0  0  0  0  0  0
   11.6412  -18.8076   17.3476 O   0  0  0  0  0  0  0  0  0  0  0  0
   10.8279  -16.7840   21.6330 C   0  0  0  0  0  0  0  0  0  0  0  0
   11.6082  -15.8414   21.6278 O   0  0  0  0  0  0  0  0  0  0  0  0
   12.7974  -19.4152   19.1747 O   0  0  0  0  0  0  0  0  0  0  0  0
    9.6488  -16.5979   22.4660 N   0  0  0  0  0  0  0  0  0  0  0  0
    9.3770  -15.4017   23.1683 C   0  0  1  0  0  0  0  0  0  0  0  0
    7.9443  -14.9304   23.1372 C   0  0  0  0  0  0  0  0  0  0  0  0
    7.4240  -14.8373   21.7541 C   0  0  0  0  0  0  0  0  0  0  0  0
    6.5858  -15.7153   21.1042 C   0  0  0  0  0  0  0  0  0  0  0  0
    6.3568  -15.2735   19.8707 N   0  0  0  0  0  0  0  0  0  0  0  0
    7.0240  -14.1208   19.6872 C   0  0  0  0  0  0  0  0  0  0  0  0
    7.1047  -13.2764   18.5760 C   0  0  0  0  0  0  0  0  0  0  0  0
    7.8851  -12.1494   18.7036 C   0  0  0  0  0  0  0  0  0  0  0  0
    8.5661  -11.8433   19.8605 C   0  0  0  0  0  0  0  0  0  0  0  0
    8.4883  -12.6667   20.9481 C   0  0  0  0  0  0  0  0  0  0  0  0
    7.7023  -13.8190   20.8473 C   0  0  0  0  0  0  0  0  0  0  0  0
    9.9136  -15.4057   24.5671 C   0  0  0  0  0  0  0  0  0  0  0  0
   10.3589  -14.3865   25.1504 O   0  0  0  0  0  0  0  0  0  0  0  0
    9.9460  -16.6078   25.3322 N   0  0  0  0  0  0  0  0  0  0  0  0
   10.4437  -16.6995   26.6865 C   0  0  1  0  0  0  0  0  0  0  0  0
    9.4419  -16.1088   27.6608 C   0  0  0  0  0  0  0  0  0  0  0  0
    8.1985  -15.6956   26.9984 C   0  0  0  0  0  0  0  0  0  0  0  0
    7.2752  -16.5375   26.3699 C   0  0  0  0  0  0  0  0  0  0  0  0
    6.2904  -15.7797   25.8955 N   0  0  0  0  0  0  0  0  0  0  0  0
    6.4977  -14.4612   26.1712 C   0  0  0  0  0  0  0  0  0  0  0  0
    5.7816  -13.3230   25.8891 C   0  0  0  0  0  0  0  0  0  0  0  0
    6.2633  -12.0847   26.3044 C   0  0  0  0  0  0  0  0  0  0  0  0
    7.4514  -12.0411   26.9900 C   0  0  0  0  0  0  0  0  0  0  0  0
    8.1553  -13.1993   27.2617 C   0  0  0  0  0  0  0  0  0  0  0  0
    7.7000  -14.4253   26.8637 C   0  0  0  0  0  0  0  0  0  0  0  0
   10.7481  -18.1194   27.0397 C   0  0  0  0  0  0  0  0  0  0  0  0
   11.2866  -18.4025   28.1169 O   0  0  0  0  0  0  0  0  0  0  0  0
   10.4192  -19.1285   26.1404 O   0  0  0  0  0  0  0  0  0  0  0  0
  2  1  1  1
  3  2  1  0
  4  8  1  0
  4  3  1  0
  5  4  2  0
  6  2  1  0
  7  6  2  0
  9  6  1  0
 10 11  1  1
 10  9  1  0
 12 11  1  0
 13 12  2  0
 14 15  1  0
 14 13  1  0
 15 20  2  0
 16 15  1  0
 16 17  2  0
 17 18  1  0
 18 19  2  0
 20 12  1  0
 20 19  1  0
 21 22  2  0
 21 10  1  0
 23 21  1  0
 24 23  1  0
 24 25  1  1
 25 26  1  0
 26 27  2  0
 26 34  1  0
 27 28  1  0
 28 29  1  0
 29 30  2  0
 30 31  1  0
 32 31  2  0
 33 32  1  0
 34 33  2  0
 34 29  1  0
 35 37  1  0
 35 24  1  0
 36 35  2  0
M  END
$$$$
