DWW.pdb
     RDKit          3D

 37 40  0  0  1  0  0  0  0  0999 V2000
    9.4094  -16.8123   17.4841 N   0  0  0  0  0  0  0  0  0  0  0  0
   10.2249  -17.4688   18.4963 C   0  0  1  0  0  0  0  0  0  0  0  0
   11.6641  -17.2318   18.0464 C   0  0  0  0  0  0  0  0  0  0  0  0
   11.9640  -18.0066   16.8200 C   0  0  0  0  0  0  0  0  0  0  0  0
   13.1527  -18.2209   16.4587 O   0  0  0  0  0  0  0  0  0  0  0  0
    9.9458  -16.8660   19.7963 C   0  0  0  0  0  0  0  0  0  0  0  0
   10.2657  -15.7201   20.0825 O   0  0  0  0  0  0  0  0  0  0  0  0
   10.9794  -18.5421   15.9919 O   0  0  0  0  0  0  0  0  0  0  0  0
    9.2609  -17.5929   20.8552 N   0  0  0  0  0  0  0  0  0  0  0  0
    8.8787  -17.0002   22.0802 C   0  0  1  0  0  0  0  0  0  0  0  0
    7.3945  -16.8510   22.3053 C   0  0  0  0  0  0  0  0  0  0  0  0
    7.0947  -16.2368   23.6188 C   0  0  0  0  0  0  0  0  0  0  0  0
    6.7064  -16.8678   24.7793 C   0  0  0  0  0  0  0  0  0  0  0  0
    6.5330  -15.9606   25.7364 N   0  0  0  0  0  0  0  0  0  0  0  0
    6.7982  -14.7408   25.2372 C   0  0  0  0  0  0  0  0  0  0  0  0
    6.7621  -13.4784   25.8366 C   0  0  0  0  0  0  0  0  0  0  0  0
    7.0939  -12.4018   25.0452 C   0  0  0  0  0  0  0  0  0  0  0  0
    7.4486  -12.5330   23.7213 C   0  0  0  0  0  0  0  0  0  0  0  0
    7.4853  -13.7660   23.1334 C   0  0  0  0  0  0  0  0  0  0  0  0
    7.1533  -14.8780   23.9136 C   0  0  0  0  0  0  0  0  0  0  0  0
    9.5449  -17.6236   23.2686 C   0  0  0  0  0  0  0  0  0  0  0  0
    9.4533  -18.8404   23.5659 O   0  0  0  0  0  0  0  0  0  0  0  0
   10.3438  -16.8397   24.1511 N   0  0  0  0  0  0  0  0  0  0  0  0
   11.2005  -17.3873   25.1790 C   0  0  1  0  0  0  0  0  0  0  0  0
   11.8909  -16.2731   25.9430 C   0  0  0  0  0  0  0  0  0  0  0  0
   11.1898  -15.9342   27.1876 C   0  0  0  0  0  0  0  0  0  0  0  0
   11.2113  -16.6693   28.3773 C   0  0  0  0  0  0  0  0  0  0  0  0
   10.4519  -16.0315   29.2638 N   0  0  0  0  0  0  0  0  0  0  0  0
    9.9143  -14.8961   28.7355 C   0  0  0  0  0  0  0  0  0  0  0  0
    9.0792  -13.9316   29.2459 C   0  0  0  0  0  0  0  0  0  0  0  0
    8.6846  -12.8657   28.4422 C   0  0  0  0  0  0  0  0  0  0  0  0
    9.1480  -12.8127   27.1514 C   0  0  0  0  0  0  0  0  0  0  0  0
    9.9867  -13.7950   26.6591 C   0  0  0  0  0  0  0  0  0  0  0  0
   10.3869  -14.8496   27.4313 C   0  0  0  0  0  0  0  0  0  0  0  0
   10.4167  -18.2565   26.1085 C   0  0  0  0  0  0  0  0  0  0  0  0
    9.1904  -18.1295   26.2114 O   0  0  0  0  0  0  0  0  0  0  0  0
   11.0822  -19.2169   26.8635 O   0  0  0  0  0  0  0  0  0  0  0  0
  2  1  1  6
  3  2  1  0
  4  8  1  0
  4  3  1  0
  5  4  2  0
  6  2  1  0
  7  6  2  0
  9  6  1  0
 10 11  1  1
 10  9  1  0
 12 11  1  0
 13 12  2  0
 14 15  1  0
 14 13  1  0
 15 20  2  0
 16 15  1  0
 16 17  2  0
 17 18  1  0
 18 19  2  0
 20 12  1  0
 20 19  1  0
 21 22  2  0
 21 10  1  0
 23 21  1  0
 24 23  1  0
 24 25  1  1
 25 26  1  0
 26 27  2  0
 26 34  1  0
 27 28  1  0
 28 29  1  0
 29 30  2  0
 30 31  1  0
 32 31  2  0
 33 32  1  0
 34 33  2  0
 34 29  1  0
 35 37  1  0
 35 24  1  0
 36 35  2  0
M  END
$$$$
