DWW.pdb
     RDKit          3D

 37 40  0  0  1  0  0  0  0  0999 V2000
   10.8001  -18.2719   18.4726 N   0  0  0  0  0  0  0  0  0  0  0  0
   11.8935  -17.5838   19.1445 C   0  0  1  0  0  0  0  0  0  0  0  0
   12.4393  -16.6137   18.1001 C   0  0  0  0  0  0  0  0  0  0  0  0
   13.1524  -17.3454   17.0274 C   0  0  0  0  0  0  0  0  0  0  0  0
   12.7880  -17.2557   15.8239 O   0  0  0  0  0  0  0  0  0  0  0  0
   11.3703  -16.8937   20.3199 C   0  0  0  0  0  0  0  0  0  0  0  0
   11.9343  -15.9400   20.8392 O   0  0  0  0  0  0  0  0  0  0  0  0
   14.2513  -18.1696   17.2619 O   0  0  0  0  0  0  0  0  0  0  0  0
   10.1286  -17.2957   20.9643 N   0  0  0  0  0  0  0  0  0  0  0  0
    9.8053  -16.9632   22.2995 C   0  0  1  0  0  0  0  0  0  0  0  0
    8.4042  -17.3038   22.7428 C   0  0  0  0  0  0  0  0  0  0  0  0
    7.4506  -16.2106   22.4462 C   0  0  0  0  0  0  0  0  0  0  0  0
    6.1457  -16.0881   22.8683 C   0  0  0  0  0  0  0  0  0  0  0  0
    5.6300  -14.9626   22.3820 N   0  0  0  0  0  0  0  0  0  0  0  0
    6.5640  -14.3344   21.6467 C   0  0  0  0  0  0  0  0  0  0  0  0
    6.5142  -13.1310   20.9372 C   0  0  0  0  0  0  0  0  0  0  0  0
    7.6580  -12.7505   20.2721 C   0  0  0  0  0  0  0  0  0  0  0  0
    8.8121  -13.5014   20.2875 C   0  0  0  0  0  0  0  0  0  0  0  0
    8.8634  -14.6777   20.9808 C   0  0  0  0  0  0  0  0  0  0  0  0
    7.7161  -15.0890   21.6664 C   0  0  0  0  0  0  0  0  0  0  0  0
   10.8183  -17.4518   23.2894 C   0  0  0  0  0  0  0  0  0  0  0  0
   12.0178  -17.6922   23.0048 O   0  0  0  0  0  0  0  0  0  0  0  0
   10.4590  -17.6753   24.6504 N   0  0  0  0  0  0  0  0  0  0  0  0
   11.0636  -16.9976   25.7754 C   0  0  1  0  0  0  0  0  0  0  0  0
   10.9374  -15.4938   25.6189 C   0  0  0  0  0  0  0  0  0  0  0  0
    9.7568  -14.9597   26.3092 C   0  0  0  0  0  0  0  0  0  0  0  0
    9.1065  -15.5359   27.4052 C   0  0  0  0  0  0  0  0  0  0  0  0
    8.0858  -14.7486   27.7331 N   0  0  0  0  0  0  0  0  0  0  0  0
    8.0096  -13.6625   26.9133 C   0  0  0  0  0  0  0  0  0  0  0  0
    7.1455  -12.5959   26.8522 C   0  0  0  0  0  0  0  0  0  0  0  0
    7.3208  -11.6218   25.8732 C   0  0  0  0  0  0  0  0  0  0  0  0
    8.3629  -11.7607   24.9910 C   0  0  0  0  0  0  0  0  0  0  0  0
    9.2191  -12.8430   25.0710 C   0  0  0  0  0  0  0  0  0  0  0  0
    9.0655  -13.8102   26.0248 C   0  0  0  0  0  0  0  0  0  0  0  0
   10.4409  -17.4483   27.0571 C   0  0  0  0  0  0  0  0  0  0  0  0
    9.2736  -17.8571   27.0846 O   0  0  0  0  0  0  0  0  0  0  0  0
   11.1898  -17.4036   28.2286 O   0  0  0  0  0  0  0  0  0  0  0  0
  2  1  1  6
  3  2  1  0
  4  8  1  0
  4  3  1  0
  5  4  2  0
  6  2  1  0
  7  6  2  0
  9  6  1  0
 10 11  1  1
 10  9  1  0
 12 11  1  0
 13 12  2  0
 14 15  1  0
 14 13  1  0
 15 20  2  0
 16 15  1  0
 16 17  2  0
 17 18  1  0
 18 19  2  0
 20 12  1  0
 20 19  1  0
 21 22  2  0
 21 10  1  0
 23 21  1  0
 24 23  1  0
 24 25  1  6
 25 26  1  0
 26 27  2  0
 26 34  1  0
 27 28  1  0
 28 29  1  0
 29 30  2  0
 30 31  1  0
 32 31  2  0
 33 32  1  0
 34 33  2  0
 34 29  1  0
 35 37  1  0
 35 24  1  0
 36 35  2  0
M  END
$$$$
