DWW.pdb
     RDKit          3D

 37 40  0  0  1  0  0  0  0  0999 V2000
   10.3084  -18.9766   20.8793 N   0  0  0  0  0  0  0  0  0  0  0  0
   11.3164  -17.9603   20.6118 C   0  0  1  0  0  0  0  0  0  0  0  0
   11.2518  -17.7398   19.1028 C   0  0  0  0  0  0  0  0  0  0  0  0
   12.2861  -18.5437   18.4110 C   0  0  0  0  0  0  0  0  0  0  0  0
   13.0645  -19.2977   19.0551 O   0  0  0  0  0  0  0  0  0  0  0  0
   10.9847  -16.7525   21.3616 C   0  0  0  0  0  0  0  0  0  0  0  0
   11.6411  -15.7222   21.2906 O   0  0  0  0  0  0  0  0  0  0  0  0
   12.4739  -18.5259   17.0303 O   0  0  0  0  0  0  0  0  0  0  0  0
    9.8386  -16.6875   22.2565 N   0  0  0  0  0  0  0  0  0  0  0  0
    9.5110  -15.5402   23.0144 C   0  0  1  0  0  0  0  0  0  0  0  0
    8.0489  -15.1710   23.0524 C   0  0  0  0  0  0  0  0  0  0  0  0
    7.5176  -14.8813   21.7010 C   0  0  0  0  0  0  0  0  0  0  0  0
    6.6389  -15.6365   20.9573 C   0  0  0  0  0  0  0  0  0  0  0  0
    6.4138  -15.0313   19.7944 N   0  0  0  0  0  0  0  0  0  0  0  0
    7.1234  -13.8902   19.7497 C   0  0  0  0  0  0  0  0  0  0  0  0
    7.2249  -12.9134   18.7548 C   0  0  0  0  0  0  0  0  0  0  0  0
    8.0500  -11.8421   19.0136 C   0  0  0  0  0  0  0  0  0  0  0  0
    8.7549  -11.7130   20.1893 C   0  0  0  0  0  0  0  0  0  0  0  0
    8.6568  -12.6662   21.1635 C   0  0  0  0  0  0  0  0  0  0  0  0
    7.8255  -13.7658   20.9281 C   0  0  0  0  0  0  0  0  0  0  0  0
   10.0994  -15.5574   24.3921 C   0  0  0  0  0  0  0  0  0  0  0  0
   10.6689  -14.5723   24.9239 O   0  0  0  0  0  0  0  0  0  0  0  0
   10.0395  -16.7329   25.1960 N   0  0  0  0  0  0  0  0  0  0  0  0
   10.3629  -16.7750   26.6045 C   0  0  1  0  0  0  0  0  0  0  0  0
    9.1074  -16.9807   27.4310 C   0  0  0  0  0  0  0  0  0  0  0  0
    7.9994  -16.1287   26.9815 C   0  0  0  0  0  0  0  0  0  0  0  0
    6.9188  -16.5252   26.1871 C   0  0  0  0  0  0  0  0  0  0  0  0
    6.1380  -15.4642   26.0029 N   0  0  0  0  0  0  0  0  0  0  0  0
    6.6343  -14.3633   26.6345 C   0  0  0  0  0  0  0  0  0  0  0  0
    6.1985  -13.0637   26.7293 C   0  0  0  0  0  0  0  0  0  0  0  0
    6.9418  -12.1385   27.4570 C   0  0  0  0  0  0  0  0  0  0  0  0
    8.0990  -12.5601   28.0627 C   0  0  0  0  0  0  0  0  0  0  0  0
    8.5185  -13.8726   27.9528 C   0  0  0  0  0  0  0  0  0  0  0  0
    7.8034  -14.7971   27.2439 C   0  0  0  0  0  0  0  0  0  0  0  0
   11.3597  -17.8533   26.8829 C   0  0  0  0  0  0  0  0  0  0  0  0
   11.6896  -18.6541   25.9995 O   0  0  0  0  0  0  0  0  0  0  0  0
   11.9178  -17.9507   28.1534 O   0  0  0  0  0  0  0  0  0  0  0  0
  2  1  1  1
  3  2  1  0
  4  8  1  0
  4  3  1  0
  5  4  2  0
  6  2  1  0
  7  6  2  0
  9  6  1  0
 10 11  1  1
 10  9  1  0
 12 11  1  0
 13 12  2  0
 14 15  1  0
 14 13  1  0
 15 20  2  0
 16 15  1  0
 16 17  2  0
 17 18  1  0
 18 19  2  0
 20 12  1  0
 20 19  1  0
 21 22  2  0
 21 10  1  0
 23 21  1  0
 24 23  1  0
 24 25  1  1
 25 26  1  0
 26 27  2  0
 26 34  1  0
 27 28  1  0
 28 29  1  0
 29 30  2  0
 30 31  1  0
 32 31  2  0
 33 32  1  0
 34 33  2  0
 34 29  1  0
 35 37  1  0
 35 24  1  0
 36 35  2  0
M  END
$$$$
