NSW.pdb
     RDKit          3D

 29 30  0  0  1  0  0  0  0  0999 V2000
    7.5077  -13.9273   15.1877 N   0  0  0  0  0  0  0  0  0  0  0  0
    8.5151  -13.7801   16.1736 C   0  0  0  0  0  0  0  0  0  0  0  0
    9.7273  -13.7451   15.8846 O   0  0  0  0  0  0  0  0  0  0  0  0
    8.0977  -13.6655   17.5934 C   0  0  0  0  0  0  0  0  0  0  0  0
    9.0002  -14.6006   18.4000 C   0  0  2  0  0  0  0  0  0  0  0  0
    9.0858  -15.8985   17.7623 N   0  0  0  0  0  0  0  0  0  0  0  0
    8.3851  -14.7545   19.7260 C   0  0  0  0  0  0  0  0  0  0  0  0
    8.2795  -13.7356   20.4715 O   0  0  0  0  0  0  0  0  0  0  0  0
    7.8555  -18.4613   21.4492 O   0  0  0  0  0  0  0  0  0  0  0  0
    6.9282  -17.5097   21.8264 C   0  0  0  0  0  0  0  0  0  0  0  0
    7.5714  -16.1352   21.5928 C   0  0  2  0  0  0  0  0  0  0  0  0
    7.8978  -16.0161   20.2120 N   0  0  0  0  0  0  0  0  0  0  0  0
    8.7548  -16.0763   22.4842 C   0  0  0  0  0  0  0  0  0  0  0  0
    9.9149  -16.1508   21.9804 O   0  0  0  0  0  0  0  0  0  0  0  0
    8.6430  -15.9381   23.8917 N   0  0  0  0  0  0  0  0  0  0  0  0
    9.8039  -16.0244   24.7843 C   0  0  1  0  0  0  0  0  0  0  0  0
    9.4859  -15.1308   25.9470 C   0  0  0  0  0  0  0  0  0  0  0  0
    8.0937  -14.6983   26.0749 C   0  0  0  0  0  0  0  0  0  0  0  0
    6.9788  -15.5451   25.9891 C   0  0  0  0  0  0  0  0  0  0  0  0
    5.9009  -14.7802   26.1176 N   0  0  0  0  0  0  0  0  0  0  0  0
    6.2469  -13.4913   26.2825 C   0  0  0  0  0  0  0  0  0  0  0  0
    5.5218  -12.3420   26.4718 C   0  0  0  0  0  0  0  0  0  0  0  0
    6.1080  -11.1087   26.6422 C   0  0  0  0  0  0  0  0  0  0  0  0
    7.4861  -11.0555   26.6169 C   0  0  0  0  0  0  0  0  0  0  0  0
    8.2460  -12.1849   26.4289 C   0  0  0  0  0  0  0  0  0  0  0  0
    7.6334  -13.4163   26.2587 C   0  0  0  0  0  0  0  0  0  0  0  0
   10.1210  -17.3836   25.2088 C   0  0  0  0  0  0  0  0  0  0  0  0
    9.2612  -18.4577   24.9733 O   0  0  0  0  0  0  0  0  0  0  0  0
   11.1931  -17.6220   25.8057 O   0  0  0  0  0  0  0  0  0  0  0  0
  1  2  1  0
  2  4  1  0
  3  2  2  0
  4  5  1  0
  5  6  1  6
  7  5  1  0
  8  7  2  0
  9 10  1  0
 11 10  1  6
 11 13  1  0
 11 12  1  0
 12  7  1  0
 13 14  2  0
 15 16  1  0
 15 13  1  0
 16 17  1  1
 17 18  1  0
 18 26  1  0
 19 20  1  0
 19 18  2  0
 20 21  1  0
 21 26  2  0
 21 22  1  0
 22 23  2  0
 24 23  1  0
 25 24  2  0
 26 25  1  0
 27 28  1  0
 27 16  1  0
 29 27  2  0
M  END
$$$$
