NSW.pdb
     RDKit          3D

 29 30  0  0  1  0  0  0  0  0999 V2000
    7.2073  -13.9902   16.6836 N   0  0  0  0  0  0  0  0  0  0  0  0
    7.8682  -13.4234   17.8018 C   0  0  0  0  0  0  0  0  0  0  0  0
    8.7432  -12.5436   17.6806 O   0  0  0  0  0  0  0  0  0  0  0  0
    7.4961  -13.9037   19.1560 C   0  0  0  0  0  0  0  0  0  0  0  0
    8.8002  -14.1283   19.9231 C   0  0  2  0  0  0  0  0  0  0  0  0
    9.8034  -14.7149   19.0583 N   0  0  0  0  0  0  0  0  0  0  0  0
    8.5006  -15.0629   21.0171 C   0  0  0  0  0  0  0  0  0  0  0  0
    7.5884  -14.7626   21.8435 O   0  0  0  0  0  0  0  0  0  0  0  0
   10.7877  -18.2962   21.5610 O   0  0  0  0  0  0  0  0  0  0  0  0
    9.5564  -18.4748   22.1609 C   0  0  0  0  0  0  0  0  0  0  0  0
    8.9419  -17.0810   22.3536 C   0  0  2  0  0  0  0  0  0  0  0  0
    9.2016  -16.3058   21.1879 N   0  0  0  0  0  0  0  0  0  0  0  0
    9.5599  -16.5232   23.5806 C   0  0  0  0  0  0  0  0  0  0  0  0
   10.4896  -15.6692   23.4735 O   0  0  0  0  0  0  0  0  0  0  0  0
    9.1505  -16.9085   24.8832 N   0  0  0  0  0  0  0  0  0  0  0  0
    9.8200  -16.4202   26.0937 C   0  0  1  0  0  0  0  0  0  0  0  0
    8.7181  -16.0250   27.0324 C   0  0  0  0  0  0  0  0  0  0  0  0
    7.6270  -15.2350   26.4607 C   0  0  0  0  0  0  0  0  0  0  0  0
    6.4656  -15.7694   25.8835 C   0  0  0  0  0  0  0  0  0  0  0  0
    5.7415  -14.7439   25.4503 N   0  0  0  0  0  0  0  0  0  0  0  0
    6.3598  -13.5786   25.7114 C   0  0  0  0  0  0  0  0  0  0  0  0
    6.0244  -12.2674   25.4859 C   0  0  0  0  0  0  0  0  0  0  0  0
    6.8245  -11.2155   25.8691 C   0  0  0  0  0  0  0  0  0  0  0  0
    8.0093  -11.5222   26.5054 C   0  0  0  0  0  0  0  0  0  0  0  0
    8.3795  -12.8231   26.7480 C   0  0  0  0  0  0  0  0  0  0  0  0
    7.5577  -13.8665   26.3523 C   0  0  0  0  0  0  0  0  0  0  0  0
   10.7306  -17.3886   26.6947 C   0  0  0  0  0  0  0  0  0  0  0  0
   11.5746  -17.0588   27.7564 O   0  0  0  0  0  0  0  0  0  0  0  0
   10.7762  -18.5608   26.2632 O   0  0  0  0  0  0  0  0  0  0  0  0
  1  2  1  0
  2  4  1  0
  3  2  2  0
  4  5  1  0
  5  6  1  6
  7  5  1  0
  8  7  2  0
  9 10  1  0
 11 10  1  6
 11 13  1  0
 11 12  1  0
 12  7  1  0
 13 14  2  0
 15 16  1  0
 15 13  1  0
 16 17  1  1
 17 18  1  0
 18 26  1  0
 19 20  1  0
 19 18  2  0
 20 21  1  0
 21 26  2  0
 21 22  1  0
 22 23  2  0
 24 23  1  0
 25 24  2  0
 26 25  1  0
 27 28  1  0
 27 16  1  0
 29 27  2  0
M  END
$$$$
