NSW.pdb
     RDKit          3D

 29 30  0  0  1  0  0  0  0  0999 V2000
    7.8424  -12.9746   14.9059 N   0  0  0  0  0  0  0  0  0  0  0  0
    7.9659  -14.2872   15.4257 C   0  0  0  0  0  0  0  0  0  0  0  0
    8.4140  -15.2314   14.7461 O   0  0  0  0  0  0  0  0  0  0  0  0
    7.5428  -14.5307   16.8274 C   0  0  0  0  0  0  0  0  0  0  0  0
    8.8110  -14.5275   17.6826 C   0  0  2  0  0  0  0  0  0  0  0  0
    9.7997  -15.4293   17.1278 N   0  0  0  0  0  0  0  0  0  0  0  0
    8.4283  -14.9966   19.0219 C   0  0  0  0  0  0  0  0  0  0  0  0
    7.4612  -14.4307   19.6132 O   0  0  0  0  0  0  0  0  0  0  0  0
    8.3701  -18.6072   20.5197 O   0  0  0  0  0  0  0  0  0  0  0  0
    7.7518  -17.5004   21.0679 C   0  0  0  0  0  0  0  0  0  0  0  0
    8.7737  -16.3546   21.0442 C   0  0  2  0  0  0  0  0  0  0  0  0
    9.1077  -16.0729   19.6890 N   0  0  0  0  0  0  0  0  0  0  0  0
    9.9292  -16.8151   21.8513 C   0  0  0  0  0  0  0  0  0  0  0  0
   10.4025  -17.9733   21.6520 O   0  0  0  0  0  0  0  0  0  0  0  0
   10.5343  -16.0060   22.8472 N   0  0  0  0  0  0  0  0  0  0  0  0
    9.8346  -15.6193   24.0772 C   0  0  1  0  0  0  0  0  0  0  0  0
    8.4844  -15.1346   23.6376 C   0  0  0  0  0  0  0  0  0  0  0  0
    7.5878  -14.6586   24.6917 C   0  0  0  0  0  0  0  0  0  0  0  0
    6.6916  -15.4653   25.4084 C   0  0  0  0  0  0  0  0  0  0  0  0
    6.0352  -14.6677   26.2429 N   0  0  0  0  0  0  0  0  0  0  0  0
    6.4502  -13.3953   26.1131 C   0  0  0  0  0  0  0  0  0  0  0  0
    6.1052  -12.2268   26.7443 C   0  0  0  0  0  0  0  0  0  0  0  0
    6.6948  -11.0182   26.4523 C   0  0  0  0  0  0  0  0  0  0  0  0
    7.6717  -11.0108   25.4786 C   0  0  0  0  0  0  0  0  0  0  0  0
    8.0434  -12.1605   24.8242 C   0  0  0  0  0  0  0  0  0  0  0  0
    7.4351  -13.3664   25.1345 C   0  0  0  0  0  0  0  0  0  0  0  0
    9.7379  -16.6913   25.0619 C   0  0  0  0  0  0  0  0  0  0  0  0
   10.1896  -16.5411   26.3740 O   0  0  0  0  0  0  0  0  0  0  0  0
    9.2373  -17.7922   24.7458 O   0  0  0  0  0  0  0  0  0  0  0  0
  1  2  1  0
  2  4  1  0
  3  2  2  0
  4  5  1  0
  5  6  1  6
  7  5  1  0
  8  7  2  0
  9 10  1  0
 11 10  1  6
 11 13  1  0
 11 12  1  0
 12  7  1  0
 13 14  2  0
 15 16  1  0
 15 13  1  0
 16 17  1  6
 17 18  1  0
 18 26  1  0
 19 20  1  0
 19 18  2  0
 20 21  1  0
 21 26  2  0
 21 22  1  0
 22 23  2  0
 24 23  1  0
 25 24  2  0
 26 25  1  0
 27 28  1  0
 27 16  1  0
 29 27  2  0
M  END
$$$$
