NSW.pdb
     RDKit          3D

 29 30  0  0  1  0  0  0  0  0999 V2000
    7.7011  -16.4467   14.6880 N   0  0  0  0  0  0  0  0  0  0  0  0
    8.2112  -15.4441   15.5499 C   0  0  0  0  0  0  0  0  0  0  0  0
    9.0411  -14.5969   15.1655 O   0  0  0  0  0  0  0  0  0  0  0  0
    7.7327  -15.4146   16.9546 C   0  0  0  0  0  0  0  0  0  0  0  0
    8.8502  -16.0016   17.8185 C   0  0  2  0  0  0  0  0  0  0  0  0
    9.1465  -17.3597   17.4112 N   0  0  0  0  0  0  0  0  0  0  0  0
    8.3631  -16.0095   19.2052 C   0  0  0  0  0  0  0  0  0  0  0  0
    8.2644  -14.9080   19.8235 O   0  0  0  0  0  0  0  0  0  0  0  0
    8.0938  -19.4353   21.5083 O   0  0  0  0  0  0  0  0  0  0  0  0
    7.0929  -18.5049   21.7088 C   0  0  0  0  0  0  0  0  0  0  0  0
    7.6483  -17.1427   21.2688 C   0  0  2  0  0  0  0  0  0  0  0  0
    7.9938  -17.2180   19.8895 N   0  0  0  0  0  0  0  0  0  0  0  0
    8.8071  -16.8647   22.1511 C   0  0  0  0  0  0  0  0  0  0  0  0
    9.9784  -17.0975   21.7281 O   0  0  0  0  0  0  0  0  0  0  0  0
    8.6592  -16.3433   23.4622 N   0  0  0  0  0  0  0  0  0  0  0  0
    9.7999  -16.1501   24.3641 C   0  0  1  0  0  0  0  0  0  0  0  0
    9.5434  -14.8485   25.0654 C   0  0  0  0  0  0  0  0  0  0  0  0
    8.1567  -14.5744   25.4441 C   0  0  0  0  0  0  0  0  0  0  0  0
    7.1542  -15.5462   25.5793 C   0  0  0  0  0  0  0  0  0  0  0  0
    6.0346  -14.9059   25.8955 N   0  0  0  0  0  0  0  0  0  0  0  0
    6.2484  -13.5807   25.9747 C   0  0  0  0  0  0  0  0  0  0  0  0
    5.4381  -12.5162   26.2795 C   0  0  0  0  0  0  0  0  0  0  0  0
    5.8940  -11.2184   26.3203 C   0  0  0  0  0  0  0  0  0  0  0  0
    7.2278  -11.0083   26.0381 C   0  0  0  0  0  0  0  0  0  0  0  0
    8.0698  -12.0490   25.7280 C   0  0  0  0  0  0  0  0  0  0  0  0
    7.5881  -13.3479   25.6923 C   0  0  0  0  0  0  0  0  0  0  0  0
   10.0009  -17.2480   25.3034 C   0  0  0  0  0  0  0  0  0  0  0  0
   11.1951  -17.4190   26.0056 O   0  0  0  0  0  0  0  0  0  0  0  0
    9.0884  -18.0781   25.5051 O   0  0  0  0  0  0  0  0  0  0  0  0
  1  2  1  0
  2  4  1  0
  3  2  2  0
  4  5  1  0
  5  6  1  6
  7  5  1  0
  8  7  2  0
  9 10  1  0
 11 10  1  1
 11 13  1  0
 11 12  1  0
 12  7  1  0
 13 14  2  0
 15 16  1  0
 15 13  1  0
 16 17  1  1
 17 18  1  0
 18 26  1  0
 19 20  1  0
 19 18  2  0
 20 21  1  0
 21 26  2  0
 21 22  1  0
 22 23  2  0
 24 23  1  0
 25 24  2  0
 26 25  1  0
 27 28  1  0
 27 16  1  0
 29 27  2  0
M  END
$$$$
