NSW.pdb
     RDKit          3D

 29 30  0  0  1  0  0  0  0  0999 V2000
    7.3567  -12.2716   17.3154 N   0  0  0  0  0  0  0  0  0  0  0  0
    7.6522  -13.6260   17.6097 C   0  0  0  0  0  0  0  0  0  0  0  0
    8.2488  -14.3662   16.8033 O   0  0  0  0  0  0  0  0  0  0  0  0
    7.2305  -14.1674   18.9259 C   0  0  0  0  0  0  0  0  0  0  0  0
    8.4198  -14.0092   19.8746 C   0  0  2  0  0  0  0  0  0  0  0  0
    9.6676  -14.1422   19.1510 N   0  0  0  0  0  0  0  0  0  0  0  0
    8.3225  -15.0860   20.8702 C   0  0  0  0  0  0  0  0  0  0  0  0
    7.2948  -15.1429   21.6089 O   0  0  0  0  0  0  0  0  0  0  0  0
   11.1623  -17.8694   21.1045 O   0  0  0  0  0  0  0  0  0  0  0  0
   10.0210  -18.2665   21.7733 C   0  0  0  0  0  0  0  0  0  0  0  0
    9.2385  -16.9933   22.1258 C   0  0  2  0  0  0  0  0  0  0  0  0
    9.3476  -16.0788   21.0400 N   0  0  0  0  0  0  0  0  0  0  0  0
    9.8278  -16.4822   23.3868 C   0  0  0  0  0  0  0  0  0  0  0  0
   10.7940  -15.6645   23.3329 O   0  0  0  0  0  0  0  0  0  0  0  0
    9.3511  -16.8732   24.6645 N   0  0  0  0  0  0  0  0  0  0  0  0
   10.0127  -16.4651   25.9086 C   0  0  1  0  0  0  0  0  0  0  0  0
    8.9049  -16.1780   26.8790 C   0  0  0  0  0  0  0  0  0  0  0  0
    7.7854  -15.3826   26.3734 C   0  0  0  0  0  0  0  0  0  0  0  0
    6.6064  -15.9116   25.8279 C   0  0  0  0  0  0  0  0  0  0  0  0
    5.8572  -14.8813   25.4527 N   0  0  0  0  0  0  0  0  0  0  0  0
    6.4758  -13.7181   25.7216 C   0  0  0  0  0  0  0  0  0  0  0  0
    6.1209  -12.4043   25.5464 C   0  0  0  0  0  0  0  0  0  0  0  0
    6.9270  -11.3559   25.9269 C   0  0  0  0  0  0  0  0  0  0  0  0
    8.1387  -11.6691   26.5069 C   0  0  0  0  0  0  0  0  0  0  0  0
    8.5289  -12.9727   26.6981 C   0  0  0  0  0  0  0  0  0  0  0  0
    7.7007  -14.0123   26.3062 C   0  0  0  0  0  0  0  0  0  0  0  0
   10.9530  -17.4526   26.4272 C   0  0  0  0  0  0  0  0  0  0  0  0
   11.1266  -18.7021   25.8297 O   0  0  0  0  0  0  0  0  0  0  0  0
   11.6392  -17.1963   27.4400 O   0  0  0  0  0  0  0  0  0  0  0  0
  1  2  1  0
  2  4  1  0
  3  2  2  0
  4  5  1  0
  5  6  1  6
  7  5  1  0
  8  7  2  0
  9 10  1  0
 11 10  1  6
 11 13  1  0
 11 12  1  0
 12  7  1  0
 13 14  2  0
 15 16  1  0
 15 13  1  0
 16 17  1  1
 17 18  1  0
 18 26  1  0
 19 20  1  0
 19 18  2  0
 20 21  1  0
 21 26  2  0
 21 22  1  0
 22 23  2  0
 24 23  1  0
 25 24  2  0
 26 25  1  0
 27 28  1  0
 27 16  1  0
 29 27  2  0
M  END
$$$$
