NSW.pdb
     RDKit          3D

 29 30  0  0  1  0  0  0  0  0999 V2000
   10.8597  -15.5463   14.5993 N   0  0  0  0  0  0  0  0  0  0  0  0
   10.3094  -16.1651   15.7493 C   0  0  0  0  0  0  0  0  0  0  0  0
    9.9269  -17.3516   15.7465 O   0  0  0  0  0  0  0  0  0  0  0  0
   10.1902  -15.3608   16.9912 C   0  0  0  0  0  0  0  0  0  0  0  0
    8.7021  -15.0702   17.1928 C   0  0  2  0  0  0  0  0  0  0  0  0
    8.2931  -13.9359   16.3899 N   0  0  0  0  0  0  0  0  0  0  0  0
    8.5154  -14.7471   18.6144 C   0  0  0  0  0  0  0  0  0  0  0  0
    8.6970  -13.5533   18.9977 O   0  0  0  0  0  0  0  0  0  0  0  0
    6.6092  -17.2754   21.0863 O   0  0  0  0  0  0  0  0  0  0  0  0
    6.5559  -15.9292   21.3908 C   0  0  0  0  0  0  0  0  0  0  0  0
    7.8804  -15.3083   20.9242 C   0  0  2  0  0  0  0  0  0  0  0  0
    8.1344  -15.7322   19.5889 N   0  0  0  0  0  0  0  0  0  0  0  0
    8.9108  -15.7589   21.8905 C   0  0  0  0  0  0  0  0  0  0  0  0
    9.7622  -16.6251   21.5301 O   0  0  0  0  0  0  0  0  0  0  0  0
    8.9855  -15.2563   23.2152 N   0  0  0  0  0  0  0  0  0  0  0  0
   10.0023  -15.7087   24.1709 C   0  0  1  0  0  0  0  0  0  0  0  0
    9.8132  -14.8590   25.3931 C   0  0  0  0  0  0  0  0  0  0  0  0
    8.4314  -14.5997   25.7992 C   0  0  0  0  0  0  0  0  0  0  0  0
    7.4726  -15.5892   26.0620 C   0  0  0  0  0  0  0  0  0  0  0  0
    6.3411  -14.9620   26.3618 N   0  0  0  0  0  0  0  0  0  0  0  0
    6.5065  -13.6285   26.3111 C   0  0  0  0  0  0  0  0  0  0  0  0
    5.6672  -12.5693   26.5487 C   0  0  0  0  0  0  0  0  0  0  0  0
    6.0740  -11.2582   26.4527 C   0  0  0  0  0  0  0  0  0  0  0  0
    7.3877  -11.0286   26.1004 C   0  0  0  0  0  0  0  0  0  0  0  0
    8.2575  -12.0635   25.8540 C   0  0  0  0  0  0  0  0  0  0  0  0
    7.8252  -13.3761   25.9562 C   0  0  0  0  0  0  0  0  0  0  0  0
    9.9302  -17.1331   24.4776 C   0  0  0  0  0  0  0  0  0  0  0  0
   10.9968  -17.8268   25.0518 O   0  0  0  0  0  0  0  0  0  0  0  0
    8.8891  -17.7783   24.2280 O   0  0  0  0  0  0  0  0  0  0  0  0
  1  2  1  0
  2  4  1  0
  3  2  2  0
  4  5  1  0
  5  6  1  6
  7  5  1  0
  8  7  2  0
  9 10  1  0
 11 10  1  1
 11 13  1  0
 11 12  1  0
 12  7  1  0
 13 14  2  0
 15 16  1  0
 15 13  1  0
 16 17  1  1
 17 18  1  0
 18 26  1  0
 19 20  1  0
 19 18  2  0
 20 21  1  0
 21 26  2  0
 21 22  1  0
 22 23  2  0
 24 23  1  0
 25 24  2  0
 26 25  1  0
 27 28  1  0
 27 16  1  0
 29 27  2  0
M  END
$$$$
