NSW.pdb
     RDKit          3D

 29 30  0  0  1  0  0  0  0  0999 V2000
    8.4371  -16.2442   14.0317 N   0  0  0  0  0  0  0  0  0  0  0  0
    9.3806  -16.1992   15.0881 C   0  0  0  0  0  0  0  0  0  0  0  0
   10.5753  -16.5163   14.9258 O   0  0  0  0  0  0  0  0  0  0  0  0
    8.9160  -15.7584   16.4272 C   0  0  0  0  0  0  0  0  0  0  0  0
    9.3624  -16.8260   17.4275 C   0  0  2  0  0  0  0  0  0  0  0  0
    8.8304  -18.1218   17.0583 N   0  0  0  0  0  0  0  0  0  0  0  0
    8.8234  -16.4393   18.7390 C   0  0  0  0  0  0  0  0  0  0  0  0
    8.9459  -15.2367   19.1185 O   0  0  0  0  0  0  0  0  0  0  0  0
    7.2053  -19.1488   21.4165 O   0  0  0  0  0  0  0  0  0  0  0  0
    6.6547  -17.8822   21.4113 C   0  0  0  0  0  0  0  0  0  0  0  0
    7.7349  -16.9226   20.8919 C   0  0  2  0  0  0  0  0  0  0  0  0
    8.1618  -17.3715   19.6099 N   0  0  0  0  0  0  0  0  0  0  0  0
    8.8156  -16.9288   21.9072 C   0  0  0  0  0  0  0  0  0  0  0  0
    9.7967  -17.7174   21.7637 O   0  0  0  0  0  0  0  0  0  0  0  0
    8.7983  -16.0804   23.0442 N   0  0  0  0  0  0  0  0  0  0  0  0
    9.7937  -16.1838   24.1168 C   0  0  1  0  0  0  0  0  0  0  0  0
    9.6318  -14.9389   24.9385 C   0  0  0  0  0  0  0  0  0  0  0  0
    8.2697  -14.6081   25.3591 C   0  0  0  0  0  0  0  0  0  0  0  0
    7.2275  -15.5352   25.5065 C   0  0  0  0  0  0  0  0  0  0  0  0
    6.1473  -14.8499   25.8630 N   0  0  0  0  0  0  0  0  0  0  0  0
    6.4241  -13.5374   25.9571 C   0  0  0  0  0  0  0  0  0  0  0  0
    5.6721  -12.4422   26.3005 C   0  0  0  0  0  0  0  0  0  0  0  0
    6.1883  -11.1675   26.3491 C   0  0  0  0  0  0  0  0  0  0  0  0
    7.5224  -11.0138   26.0340 C   0  0  0  0  0  0  0  0  0  0  0  0
    8.3070  -12.0865   25.6848 C   0  0  0  0  0  0  0  0  0  0  0  0
    7.7651  -13.3613   25.6419 C   0  0  0  0  0  0  0  0  0  0  0  0
    9.6673  -17.3928   24.9233 C   0  0  0  0  0  0  0  0  0  0  0  0
   10.7181  -17.8840   25.6998 O   0  0  0  0  0  0  0  0  0  0  0  0
    8.5918  -18.0296   24.9377 O   0  0  0  0  0  0  0  0  0  0  0  0
  1  2  1  0
  2  4  1  0
  3  2  2  0
  4  5  1  0
  5  6  1  6
  7  5  1  0
  8  7  2  0
  9 10  1  0
 11 10  1  1
 11 13  1  0
 11 12  1  0
 12  7  1  0
 13 14  2  0
 15 16  1  0
 15 13  1  0
 16 17  1  1
 17 18  1  0
 18 26  1  0
 19 20  1  0
 19 18  2  0
 20 21  1  0
 21 26  2  0
 21 22  1  0
 22 23  2  0
 24 23  1  0
 25 24  2  0
 26 25  1  0
 27 28  1  0
 27 16  1  0
 29 27  2  0
M  END
$$$$
