NSW.pdb
     RDKit          3D

 29 30  0  0  1  0  0  0  0  0999 V2000
   12.9394  -19.7027   17.3906 N   0  0  0  0  0  0  0  0  0  0  0  0
   11.6520  -19.5894   17.9722 C   0  0  0  0  0  0  0  0  0  0  0  0
   10.7137  -20.3492   17.6619 O   0  0  0  0  0  0  0  0  0  0  0  0
   11.4284  -18.5252   18.9825 C   0  0  0  0  0  0  0  0  0  0  0  0
   10.3354  -17.6088   18.4301 C   0  0  2  0  0  0  0  0  0  0  0  0
   10.8456  -16.8158   17.3305 N   0  0  0  0  0  0  0  0  0  0  0  0
    9.9311  -16.7136   19.5234 C   0  0  0  0  0  0  0  0  0  0  0  0
   10.7293  -15.8012   19.8917 O   0  0  0  0  0  0  0  0  0  0  0  0
    6.5413  -17.3816   21.6352 O   0  0  0  0  0  0  0  0  0  0  0  0
    6.9015  -16.0483   21.6262 C   0  0  0  0  0  0  0  0  0  0  0  0
    8.4028  -15.9884   21.3100 C   0  0  2  0  0  0  0  0  0  0  0  0
    8.6649  -16.8313   20.1927 N   0  0  0  0  0  0  0  0  0  0  0  0
    9.1024  -16.4153   22.5457 C   0  0  0  0  0  0  0  0  0  0  0  0
    9.6343  -17.5643   22.5917 O   0  0  0  0  0  0  0  0  0  0  0  0
    9.2031  -15.5838   23.6907 N   0  0  0  0  0  0  0  0  0  0  0  0
    9.8012  -16.0467   24.9477 C   0  0  1  0  0  0  0  0  0  0  0  0
    9.4366  -15.0130   25.9724 C   0  0  0  0  0  0  0  0  0  0  0  0
    8.0395  -14.5777   25.9905 C   0  0  0  0  0  0  0  0  0  0  0  0
    6.9326  -15.4242   25.8300 C   0  0  0  0  0  0  0  0  0  0  0  0
    5.8496  -14.6567   25.8689 N   0  0  0  0  0  0  0  0  0  0  0  0
    6.1847  -13.3665   26.0457 C   0  0  0  0  0  0  0  0  0  0  0  0
    5.4495  -12.2145   26.1678 C   0  0  0  0  0  0  0  0  0  0  0  0
    6.0236  -10.9801   26.3687 C   0  0  0  0  0  0  0  0  0  0  0  0
    7.3998  -10.9287   26.4467 C   0  0  0  0  0  0  0  0  0  0  0  0
    8.1695  -12.0608   26.3284 C   0  0  0  0  0  0  0  0  0  0  0  0
    7.5692  -13.2933   26.1257 C   0  0  0  0  0  0  0  0  0  0  0  0
    9.3767  -17.3848   25.3444 C   0  0  0  0  0  0  0  0  0  0  0  0
    8.3144  -18.0444   24.7239 O   0  0  0  0  0  0  0  0  0  0  0  0
    9.9676  -17.9838   26.2688 O   0  0  0  0  0  0  0  0  0  0  0  0
  1  2  1  0
  2  4  1  0
  3  2  2  0
  4  5  1  0
  5  6  1  6
  7  5  1  0
  8  7  2  0
  9 10  1  0
 11 10  1  1
 11 13  1  0
 11 12  1  0
 12  7  1  0
 13 14  2  0
 15 16  1  0
 15 13  1  0
 16 17  1  1
 17 18  1  0
 18 26  1  0
 19 20  1  0
 19 18  2  0
 20 21  1  0
 21 26  2  0
 21 22  1  0
 22 23  2  0
 24 23  1  0
 25 24  2  0
 26 25  1  0
 27 28  1  0
 27 16  1  0
 29 27  2  0
M  END
$$$$
