NSW.pdb
     RDKit          3D

 29 30  0  0  1  0  0  0  0  0999 V2000
    9.2810  -13.9048   16.3295 N   0  0  0  0  0  0  0  0  0  0  0  0
    7.9252  -13.6719   16.6699 C   0  0  0  0  0  0  0  0  0  0  0  0
    7.0576  -13.4234   15.8100 O   0  0  0  0  0  0  0  0  0  0  0  0
    7.5406  -13.7284   18.1024 C   0  0  0  0  0  0  0  0  0  0  0  0
    8.7975  -14.1090   18.8867 C   0  0  2  0  0  0  0  0  0  0  0  0
    9.6572  -14.9575   18.0871 N   0  0  0  0  0  0  0  0  0  0  0  0
    8.3550  -14.8533   20.0743 C   0  0  0  0  0  0  0  0  0  0  0  0
    7.6043  -14.2725   20.9136 O   0  0  0  0  0  0  0  0  0  0  0  0
    9.6814  -18.5544   20.6794 O   0  0  0  0  0  0  0  0  0  0  0  0
    8.5630  -18.3269   21.4573 C   0  0  0  0  0  0  0  0  0  0  0  0
    8.3948  -16.8050   21.5718 C   0  0  2  0  0  0  0  0  0  0  0  0
    8.7399  -16.2154   20.3226 N   0  0  0  0  0  0  0  0  0  0  0  0
    9.2721  -16.3754   22.6874 C   0  0  0  0  0  0  0  0  0  0  0  0
   10.3450  -15.7533   22.4282 O   0  0  0  0  0  0  0  0  0  0  0  0
    8.9584  -16.6332   24.0467 N   0  0  0  0  0  0  0  0  0  0  0  0
    9.8817  -16.3122   25.1406 C   0  0  1  0  0  0  0  0  0  0  0  0
    9.0137  -16.0378   26.3334 C   0  0  0  0  0  0  0  0  0  0  0  0
    7.8166  -15.2301   26.0962 C   0  0  0  0  0  0  0  0  0  0  0  0
    6.5520  -15.7444   25.7737 C   0  0  0  0  0  0  0  0  0  0  0  0
    5.7440  -14.7048   25.6008 N   0  0  0  0  0  0  0  0  0  0  0  0
    6.4048  -13.5494   25.7921 C   0  0  0  0  0  0  0  0  0  0  0  0
    6.0233  -12.2321   25.7490 C   0  0  0  0  0  0  0  0  0  0  0  0
    6.8900  -11.1948   26.0072 C   0  0  0  0  0  0  0  0  0  0  0  0
    8.1927  -11.5232   26.3199 C   0  0  0  0  0  0  0  0  0  0  0  0
    8.6120  -12.8308   26.3721 C   0  0  0  0  0  0  0  0  0  0  0  0
    7.7213  -13.8590   26.1076 C   0  0  0  0  0  0  0  0  0  0  0  0
   10.8648  -17.3565   25.4073 C   0  0  0  0  0  0  0  0  0  0  0  0
   11.9863  -17.1371   26.2088 O   0  0  0  0  0  0  0  0  0  0  0  0
   10.7218  -18.4958   24.9135 O   0  0  0  0  0  0  0  0  0  0  0  0
  1  2  1  0
  2  4  1  0
  3  2  2  0
  4  5  1  0
  5  6  1  6
  7  5  1  0
  8  7  2  0
  9 10  1  0
 11 10  1  6
 11 13  1  0
 11 12  1  0
 12  7  1  0
 13 14  2  0
 15 16  1  0
 15 13  1  0
 16 17  1  1
 17 18  1  0
 18 26  1  0
 19 20  1  0
 19 18  2  0
 20 21  1  0
 21 26  2  0
 21 22  1  0
 22 23  2  0
 24 23  1  0
 25 24  2  0
 26 25  1  0
 27 28  1  0
 27 16  1  0
 29 27  2  0
M  END
$$$$
