NSW.pdb
     RDKit          3D

 29 30  0  0  1  0  0  0  0  0999 V2000
    7.8756  -12.3656   17.1861 N   0  0  0  0  0  0  0  0  0  0  0  0
    7.8754  -13.7800   17.2759 C   0  0  0  0  0  0  0  0  0  0  0  0
    8.2092  -14.5064   16.3193 O   0  0  0  0  0  0  0  0  0  0  0  0
    7.4611  -14.4028   18.5579 C   0  0  0  0  0  0  0  0  0  0  0  0
    8.5544  -14.0880   19.5802 C   0  0  2  0  0  0  0  0  0  0  0  0
    9.8639  -14.1809   18.9679 N   0  0  0  0  0  0  0  0  0  0  0  0
    8.4485  -15.0934   20.6471 C   0  0  0  0  0  0  0  0  0  0  0  0
    7.3358  -15.2459   21.2334 O   0  0  0  0  0  0  0  0  0  0  0  0
   11.4666  -17.6337   21.4237 O   0  0  0  0  0  0  0  0  0  0  0  0
   10.2280  -18.0822   21.8389 C   0  0  0  0  0  0  0  0  0  0  0  0
    9.3678  -16.8407   22.1152 C   0  0  2  0  0  0  0  0  0  0  0  0
    9.5579  -15.9118   21.0529 N   0  0  0  0  0  0  0  0  0  0  0  0
    9.8025  -16.3224   23.4346 C   0  0  0  0  0  0  0  0  0  0  0  0
   10.6610  -15.3919   23.4830 O   0  0  0  0  0  0  0  0  0  0  0  0
    9.2929  -16.8285   24.6581 N   0  0  0  0  0  0  0  0  0  0  0  0
    9.8002  -16.3886   25.9624 C   0  0  1  0  0  0  0  0  0  0  0  0
    8.5879  -16.2175   26.8297 C   0  0  0  0  0  0  0  0  0  0  0  0
    7.5577  -15.3024   26.3367 C   0  0  0  0  0  0  0  0  0  0  0  0
    6.3490  -15.6978   25.7449 C   0  0  0  0  0  0  0  0  0  0  0  0
    5.7058  -14.5884   25.3999 N   0  0  0  0  0  0  0  0  0  0  0  0
    6.4208  -13.4990   25.7319 C   0  0  0  0  0  0  0  0  0  0  0  0
    6.1910  -12.1521   25.6071 C   0  0  0  0  0  0  0  0  0  0  0  0
    7.0795  -11.1989   26.0493 C   0  0  0  0  0  0  0  0  0  0  0  0
    8.2434  -11.6457   26.6395 C   0  0  0  0  0  0  0  0  0  0  0  0
    8.5089  -12.9865   26.7814 C   0  0  0  0  0  0  0  0  0  0  0  0
    7.5994  -13.9285   26.3278 C   0  0  0  0  0  0  0  0  0  0  0  0
   10.7729  -17.3006   26.5543 C   0  0  0  0  0  0  0  0  0  0  0  0
   11.1207  -18.5117   25.9537 O   0  0  0  0  0  0  0  0  0  0  0  0
   11.3288  -17.0116   27.6359 O   0  0  0  0  0  0  0  0  0  0  0  0
  1  2  1  0
  2  4  1  0
  3  2  2  0
  4  5  1  0
  5  6  1  6
  7  5  1  0
  8  7  2  0
  9 10  1  0
 11 10  1  6
 11 13  1  0
 11 12  1  0
 12  7  1  0
 13 14  2  0
 15 16  1  0
 15 13  1  0
 16 17  1  1
 17 18  1  0
 18 26  1  0
 19 20  1  0
 19 18  2  0
 20 21  1  0
 21 26  2  0
 21 22  1  0
 22 23  2  0
 24 23  1  0
 25 24  2  0
 26 25  1  0
 27 28  1  0
 27 16  1  0
 29 27  2  0
M  END
$$$$
