NSW.pdb
     RDKit          3D

 29 30  0  0  1  0  0  0  0  0999 V2000
   10.8476  -17.6666   14.6772 N   0  0  0  0  0  0  0  0  0  0  0  0
   11.4410  -17.2001   15.8766 C   0  0  0  0  0  0  0  0  0  0  0  0
   12.6475  -17.3794   16.1344 O   0  0  0  0  0  0  0  0  0  0  0  0
   10.5848  -16.4760   16.8492 C   0  0  0  0  0  0  0  0  0  0  0  0
   10.5100  -17.3418   18.1079 C   0  0  2  0  0  0  0  0  0  0  0  0
    9.5881  -18.4420   17.9133 N   0  0  0  0  0  0  0  0  0  0  0  0
   10.0135  -16.4827   19.1923 C   0  0  0  0  0  0  0  0  0  0  0  0
   10.7554  -15.5485   19.6188 O   0  0  0  0  0  0  0  0  0  0  0  0
    6.6663  -17.4554   21.3076 O   0  0  0  0  0  0  0  0  0  0  0  0
    6.9024  -16.0954   21.2595 C   0  0  0  0  0  0  0  0  0  0  0  0
    8.3953  -15.9071   20.9540 C   0  0  2  0  0  0  0  0  0  0  0  0
    8.7184  -16.6598   19.7894 N   0  0  0  0  0  0  0  0  0  0  0  0
    9.1243  -16.3552   22.1650 C   0  0  0  0  0  0  0  0  0  0  0  0
    9.7220  -17.4722   22.1510 O   0  0  0  0  0  0  0  0  0  0  0  0
    9.1824  -15.5786   23.3509 N   0  0  0  0  0  0  0  0  0  0  0  0
    9.9121  -16.0205   24.5443 C   0  0  1  0  0  0  0  0  0  0  0  0
    9.7169  -14.9346   25.5613 C   0  0  0  0  0  0  0  0  0  0  0  0
    8.3337  -14.5591   25.8565 C   0  0  0  0  0  0  0  0  0  0  0  0
    7.2556  -15.4540   25.9231 C   0  0  0  0  0  0  0  0  0  0  0  0
    6.1691  -14.7331   26.1749 N   0  0  0  0  0  0  0  0  0  0  0  0
    6.4752  -13.4277   26.2770 C   0  0  0  0  0  0  0  0  0  0  0  0
    5.7289  -12.3068   26.5396 C   0  0  0  0  0  0  0  0  0  0  0  0
    6.2763  -11.0466   26.6178 C   0  0  0  0  0  0  0  0  0  0  0  0
    7.6368  -10.9355   26.4193 C   0  0  0  0  0  0  0  0  0  0  0  0
    8.4168  -12.0351   26.1534 C   0  0  0  0  0  0  0  0  0  0  0  0
    7.8433  -13.2944   26.0786 C   0  0  0  0  0  0  0  0  0  0  0  0
    9.4878  -17.3231   25.0456 C   0  0  0  0  0  0  0  0  0  0  0  0
    8.3146  -17.9426   24.6119 O   0  0  0  0  0  0  0  0  0  0  0  0
   10.1805  -17.9268   25.8931 O   0  0  0  0  0  0  0  0  0  0  0  0
  1  2  1  0
  2  4  1  0
  3  2  2  0
  4  5  1  0
  5  6  1  6
  7  5  1  0
  8  7  2  0
  9 10  1  0
 11 10  1  1
 11 13  1  0
 11 12  1  0
 12  7  1  0
 13 14  2  0
 15 16  1  0
 15 13  1  0
 16 17  1  1
 17 18  1  0
 18 26  1  0
 19 20  1  0
 19 18  2  0
 20 21  1  0
 21 26  2  0
 21 22  1  0
 22 23  2  0
 24 23  1  0
 25 24  2  0
 26 25  1  0
 27 28  1  0
 27 16  1  0
 29 27  2  0
M  END
$$$$
