NSW.pdb
     RDKit          3D

 29 30  0  0  1  0  0  0  0  0999 V2000
    7.0611  -13.0548   16.9121 N   0  0  0  0  0  0  0  0  0  0  0  0
    8.0922  -13.1331   17.8811 C   0  0  0  0  0  0  0  0  0  0  0  0
    9.2463  -12.7176   17.6582 O   0  0  0  0  0  0  0  0  0  0  0  0
    7.7726  -13.7329   19.2007 C   0  0  0  0  0  0  0  0  0  0  0  0
    9.0485  -14.4109   19.7027 C   0  0  2  0  0  0  0  0  0  0  0  0
    9.5111  -15.3946   18.7453 N   0  0  0  0  0  0  0  0  0  0  0  0
    8.7093  -15.0869   20.9630 C   0  0  0  0  0  0  0  0  0  0  0  0
    8.1746  -14.4122   21.8925 O   0  0  0  0  0  0  0  0  0  0  0  0
    9.9825  -18.8064   21.6531 O   0  0  0  0  0  0  0  0  0  0  0  0
    8.8420  -18.5593   22.3920 C   0  0  0  0  0  0  0  0  0  0  0  0
    8.6735  -17.0349   22.4655 C   0  0  2  0  0  0  0  0  0  0  0  0
    8.9601  -16.4846   21.1840 N   0  0  0  0  0  0  0  0  0  0  0  0
    9.5982  -16.5679   23.5264 C   0  0  0  0  0  0  0  0  0  0  0  0
   10.7526  -16.1561   23.2055 O   0  0  0  0  0  0  0  0  0  0  0  0
    9.2422  -16.5618   24.8997 N   0  0  0  0  0  0  0  0  0  0  0  0
   10.2248  -16.3348   25.9650 C   0  0  1  0  0  0  0  0  0  0  0  0
    9.5411  -15.4452   26.9613 C   0  0  0  0  0  0  0  0  0  0  0  0
    8.2042  -14.9708   26.6017 C   0  0  0  0  0  0  0  0  0  0  0  0
    7.0885  -15.7953   26.3945 C   0  0  0  0  0  0  0  0  0  0  0  0
    6.0798  -15.0027   26.0512 N   0  0  0  0  0  0  0  0  0  0  0  0
    6.4711  -13.7164   26.0240 C   0  0  0  0  0  0  0  0  0  0  0  0
    5.8158  -12.5419   25.7527 C   0  0  0  0  0  0  0  0  0  0  0  0
    6.4319  -11.3128   25.8094 C   0  0  0  0  0  0  0  0  0  0  0  0
    7.7667  -11.2907   26.1565 C   0  0  0  0  0  0  0  0  0  0  0  0
    8.4567  -12.4461   26.4344 C   0  0  0  0  0  0  0  0  0  0  0  0
    7.8153  -13.6729   26.3703 C   0  0  0  0  0  0  0  0  0  0  0  0
   10.7237  -17.5612   26.5775 C   0  0  0  0  0  0  0  0  0  0  0  0
   11.7876  -17.5637   27.4812 O   0  0  0  0  0  0  0  0  0  0  0  0
   10.1981  -18.6611   26.3011 O   0  0  0  0  0  0  0  0  0  0  0  0
  1  2  1  0
  2  4  1  0
  3  2  2  0
  4  5  1  0
  5  6  1  6
  7  5  1  0
  8  7  2  0
  9 10  1  0
 11 10  1  6
 11 13  1  0
 11 12  1  0
 12  7  1  0
 13 14  2  0
 15 16  1  0
 15 13  1  0
 16 17  1  1
 17 18  1  0
 18 26  1  0
 19 20  1  0
 19 18  2  0
 20 21  1  0
 21 26  2  0
 21 22  1  0
 22 23  2  0
 24 23  1  0
 25 24  2  0
 26 25  1  0
 27 28  1  0
 27 16  1  0
 29 27  2  0
M  END
$$$$
