NSW.pdb
     RDKit          3D

 29 30  0  0  1  0  0  0  0  0999 V2000
    7.7548  -12.1839   17.9890 N   0  0  0  0  0  0  0  0  0  0  0  0
    7.8505  -13.5960   18.0602 C   0  0  0  0  0  0  0  0  0  0  0  0
    8.1898  -14.2891   17.0811 O   0  0  0  0  0  0  0  0  0  0  0  0
    7.5325  -14.2579   19.3502 C   0  0  0  0  0  0  0  0  0  0  0  0
    8.8037  -14.2126   20.1996 C   0  0  2  0  0  0  0  0  0  0  0  0
    9.9697  -14.4814   19.3832 N   0  0  0  0  0  0  0  0  0  0  0  0
    8.6771  -15.2627   21.2201 C   0  0  0  0  0  0  0  0  0  0  0  0
    7.6644  -15.2548   21.9813 O   0  0  0  0  0  0  0  0  0  0  0  0
   11.6291  -17.8690   21.7058 O   0  0  0  0  0  0  0  0  0  0  0  0
   10.4805  -18.3739   22.2832 C   0  0  0  0  0  0  0  0  0  0  0  0
    9.5229  -17.1919   22.4915 C   0  0  2  0  0  0  0  0  0  0  0  0
    9.6573  -16.2999   21.3899 N   0  0  0  0  0  0  0  0  0  0  0  0
    9.8958  -16.5823   23.7908 C   0  0  0  0  0  0  0  0  0  0  0  0
   10.6692  -15.5790   23.8057 O   0  0  0  0  0  0  0  0  0  0  0  0
    9.4186  -17.0793   25.0310 N   0  0  0  0  0  0  0  0  0  0  0  0
    9.8959  -16.5652   26.3193 C   0  0  1  0  0  0  0  0  0  0  0  0
    8.6622  -16.3197   27.1374 C   0  0  0  0  0  0  0  0  0  0  0  0
    7.6504  -15.4445   26.5443 C   0  0  0  0  0  0  0  0  0  0  0  0
    6.5141  -15.8859   25.8503 C   0  0  0  0  0  0  0  0  0  0  0  0
    5.8674  -14.8020   25.4374 N   0  0  0  0  0  0  0  0  0  0  0  0
    6.5122  -13.6861   25.8210 C   0  0  0  0  0  0  0  0  0  0  0  0
    6.2491  -12.3489   25.6621 C   0  0  0  0  0  0  0  0  0  0  0  0
    7.0613  -11.3622   26.1726 C   0  0  0  0  0  0  0  0  0  0  0  0
    8.1816  -11.7641   26.8697 C   0  0  0  0  0  0  0  0  0  0  0  0
    8.4785  -13.0938   27.0488 C   0  0  0  0  0  0  0  0  0  0  0  0
    7.6461  -14.0701   26.5249 C   0  0  0  0  0  0  0  0  0  0  0  0
   10.8346  -17.4530   26.9966 C   0  0  0  0  0  0  0  0  0  0  0  0
   11.5263  -17.0689   28.1467 O   0  0  0  0  0  0  0  0  0  0  0  0
   11.0450  -18.6024   26.5529 O   0  0  0  0  0  0  0  0  0  0  0  0
  1  2  1  0
  2  4  1  0
  3  2  2  0
  4  5  1  0
  5  6  1  6
  7  5  1  0
  8  7  2  0
  9 10  1  0
 11 10  1  6
 11 13  1  0
 11 12  1  0
 12  7  1  0
 13 14  2  0
 15 16  1  0
 15 13  1  0
 16 17  1  1
 17 18  1  0
 18 26  1  0
 19 20  1  0
 19 18  2  0
 20 21  1  0
 21 26  2  0
 21 22  1  0
 22 23  2  0
 24 23  1  0
 25 24  2  0
 26 25  1  0
 27 28  1  0
 27 16  1  0
 29 27  2  0
M  END
$$$$
