FPY.pdb
     RDKit          3D

 31 33  0  0  1  0  0  0  0  0999 V2000
   26.6738  -22.4922  -17.2189 N   0  0  0  0  0  0  0  0  0  0  0  0
   26.4351  -23.7464  -17.9248 C   0  0  1  0  0  0  0  0  0  0  0  0
   26.2035  -23.4644  -19.4015 C   0  0  0  0  0  0  0  0  0  0  0  0
   24.9923  -22.6587  -19.6235 C   0  0  0  0  0  0  0  0  0  0  0  0
   23.7747  -23.0131  -19.0887 C   0  0  0  0  0  0  0  0  0  0  0  0
   22.6539  -22.2354  -19.3166 C   0  0  0  0  0  0  0  0  0  0  0  0
   22.7379  -21.0834  -20.0892 C   0  0  0  0  0  0  0  0  0  0  0  0
   23.9534  -20.7192  -20.6299 C   0  0  0  0  0  0  0  0  0  0  0  0
   25.0534  -21.5161  -20.3842 C   0  0  0  0  0  0  0  0  0  0  0  0
   27.5581  -24.6791  -17.7671 C   0  0  0  0  0  0  0  0  0  0  0  0
   28.7220  -24.3407  -18.0953 O   0  0  0  0  0  0  0  0  0  0  0  0
   27.4131  -26.0223  -17.2341 N   0  0  0  0  0  0  0  0  0  0  0  0
   26.2092  -26.5550  -16.6282 C   0  0  0  0  0  0  0  0  0  0  0  0
   26.2014  -27.9731  -17.2178 C   0  0  0  0  0  0  0  0  0  0  0  0
   27.6730  -28.3293  -16.9345 C   0  0  0  0  0  0  0  0  0  0  0  0
   28.4213  -27.0347  -17.1452 C   0  0  1  0  0  0  0  0  0  0  0  0
   29.3086  -27.1357  -18.3326 C   0  0  0  0  0  0  0  0  0  0  0  0
   28.9929  -26.7581  -19.4635 O   0  0  0  0  0  0  0  0  0  0  0  0
   36.0049  -26.1394  -23.5459 O   0  0  0  0  0  0  0  0  0  0  0  0
   35.0806  -26.1913  -22.5360 C   0  0  0  0  0  0  0  0  0  0  0  0
   33.8868  -26.8319  -22.7329 C   0  0  0  0  0  0  0  0  0  0  0  0
   32.9378  -26.8987  -21.7320 C   0  0  0  0  0  0  0  0  0  0  0  0
   33.1439  -26.3304  -20.5008 C   0  0  0  0  0  0  0  0  0  0  0  0
   32.1454  -26.3848  -19.4105 C   0  0  0  0  0  0  0  0  0  0  0  0
   31.5587  -27.7906  -19.2550 C   0  0  2  0  0  0  0  0  0  0  0  0
   30.6026  -27.7016  -18.1605 N   0  0  0  0  0  0  0  0  0  0  0  0
   32.6646  -28.6737  -18.8037 C   0  0  0  0  0  0  0  0  0  0  0  0
   33.4324  -29.2178  -19.6509 O   0  0  0  0  0  0  0  0  0  0  0  0
   34.3605  -25.6790  -20.3035 C   0  0  0  0  0  0  0  0  0  0  0  0
   35.3067  -25.6134  -21.3041 C   0  0  0  0  0  0  0  0  0  0  0  0
   32.9194  -28.9506  -17.4680 O   0  0  0  0  0  0  0  0  0  0  0  0
  2 10  1  0
  2  1  1  1
  3  2  1  0
  4  3  1  0
  4  5  2  0
  6  5  1  0
  7  6  2  0
  8  9  2  0
  8  7  1  0
  9  4  1  0
 10 12  1  0
 11 10  2  0
 12 16  1  0
 12 13  1  0
 13 14  1  0
 15 14  1  0
 16 15  1  0
 16 17  1  6
 18 17  2  0
 20 21  2  0
 20 19  1  0
 22 21  1  0
 23 22  2  0
 24 23  1  0
 25 24  1  1
 25 27  1  0
 25 26  1  0
 26 17  1  0
 27 31  1  0
 28 27  2  0
 29 23  1  0
 29 30  2  0
 30 20  1  0
M  END
$$$$
