FPY.pdb
     RDKit          3D

 31 33  0  0  1  0  0  0  0  0999 V2000
   21.5334  -21.0477  -13.0934 N   0  0  0  0  0  0  0  0  0  0  0  0
   20.9505  -20.5339  -11.8587 C   0  0  1  0  0  0  0  0  0  0  0  0
   19.5330  -20.0512  -12.1263 C   0  0  0  0  0  0  0  0  0  0  0  0
   19.5024  -18.9515  -13.1036 C   0  0  0  0  0  0  0  0  0  0  0  0
   18.8157  -19.0534  -14.2920 C   0  0  0  0  0  0  0  0  0  0  0  0
   18.8070  -18.0023  -15.1909 C   0  0  0  0  0  0  0  0  0  0  0  0
   19.4911  -16.8259  -14.9098 C   0  0  0  0  0  0  0  0  0  0  0  0
   20.1825  -16.7134  -13.7216 C   0  0  0  0  0  0  0  0  0  0  0  0
   20.1720  -17.7798  -12.8452 C   0  0  0  0  0  0  0  0  0  0  0  0
   20.9374  -21.5521  -10.8010 C   0  0  0  0  0  0  0  0  0  0  0  0
   20.3576  -22.6517  -10.9783 O   0  0  0  0  0  0  0  0  0  0  0  0
   21.5764  -21.3714   -9.5093 N   0  0  0  0  0  0  0  0  0  0  0  0
   22.6269  -20.4148   -9.2236 C   0  0  0  0  0  0  0  0  0  0  0  0
   22.1824  -19.9133   -7.8416 C   0  0  0  0  0  0  0  0  0  0  0  0
   21.9128  -21.2849   -7.1943 C   0  0  0  0  0  0  0  0  0  0  0  0
   21.3472  -22.1254   -8.3142 C   0  0  1  0  0  0  0  0  0  0  0  0
   19.9227  -22.4530   -8.0482 C   0  0  0  0  0  0  0  0  0  0  0  0
   18.9828  -21.6931   -8.2940 O   0  0  0  0  0  0  0  0  0  0  0  0
   17.3937  -24.3621  -13.5075 O   0  0  0  0  0  0  0  0  0  0  0  0
   17.5321  -24.6126  -12.1677 C   0  0  0  0  0  0  0  0  0  0  0  0
   18.7253  -25.0703  -11.6766 C   0  0  0  0  0  0  0  0  0  0  0  0
   18.8915  -25.3308  -10.3307 C   0  0  0  0  0  0  0  0  0  0  0  0
   17.8763  -25.1452   -9.4273 C   0  0  0  0  0  0  0  0  0  0  0  0
   18.0249  -25.4172   -7.9807 C   0  0  0  0  0  0  0  0  0  0  0  0
   18.2507  -24.1277   -7.1863 C   0  0  2  0  0  0  0  0  0  0  0  0
   19.6180  -23.7192   -7.4754 N   0  0  0  0  0  0  0  0  0  0  0  0
   18.1938  -24.4903   -5.7470 C   0  0  0  0  0  0  0  0  0  0  0  0
   19.2549  -24.7800   -5.1199 O   0  0  0  0  0  0  0  0  0  0  0  0
   16.6627  -24.6791   -9.9305 C   0  0  0  0  0  0  0  0  0  0  0  0
   16.4987  -24.4194  -11.2746 C   0  0  0  0  0  0  0  0  0  0  0  0
   17.0123  -24.5338   -5.0202 O   0  0  0  0  0  0  0  0  0  0  0  0
  2 10  1  0
  2  1  1  6
  3  2  1  0
  4  3  1  0
  4  5  2  0
  6  5  1  0
  7  6  2  0
  8  9  2  0
  8  7  1  0
  9  4  1  0
 10 12  1  0
 11 10  2  0
 12 16  1  0
 12 13  1  0
 13 14  1  0
 15 14  1  0
 16 15  1  0
 16 17  1  1
 18 17  2  0
 20 21  2  0
 20 19  1  0
 22 21  1  0
 23 22  2  0
 24 23  1  0
 25 24  1  6
 25 27  1  0
 25 26  1  0
 26 17  1  0
 27 31  1  0
 28 27  2  0
 29 23  1  0
 29 30  2  0
 30 20  1  0
M  END
$$$$
