FPY.pdb
     RDKit          3D

 31 33  0  0  1  0  0  0  0  0999 V2000
   26.5058  -20.1622  -16.7195 N   0  0  0  0  0  0  0  0  0  0  0  0
   26.7429  -19.9063  -15.3030 C   0  0  1  0  0  0  0  0  0  0  0  0
   26.8693  -18.4085  -15.0696 C   0  0  0  0  0  0  0  0  0  0  0  0
   28.0025  -17.8309  -15.8095 C   0  0  0  0  0  0  0  0  0  0  0  0
   29.3038  -18.1943  -15.5470 C   0  0  0  0  0  0  0  0  0  0  0  0
   30.3477  -17.6322  -16.2592 C   0  0  0  0  0  0  0  0  0  0  0  0
   30.1008  -16.6913  -17.2515 C   0  0  0  0  0  0  0  0  0  0  0  0
   28.8004  -16.3200  -17.5226 C   0  0  0  0  0  0  0  0  0  0  0  0
   27.7805  -16.8991  -16.7946 C   0  0  0  0  0  0  0  0  0  0  0  0
   25.6659  -20.4505  -14.4664 C   0  0  0  0  0  0  0  0  0  0  0  0
   24.4668  -20.3607  -14.8283 O   0  0  0  0  0  0  0  0  0  0  0  0
   25.8985  -21.1158  -13.1965 N   0  0  0  0  0  0  0  0  0  0  0  0
   27.1888  -21.5643  -12.7126 C   0  0  0  0  0  0  0  0  0  0  0  0
   27.0878  -21.1668  -11.2325 C   0  0  0  0  0  0  0  0  0  0  0  0
   25.6883  -21.7459  -10.9519 C   0  0  0  0  0  0  0  0  0  0  0  0
   24.9186  -21.5071  -12.2290 C   0  0  1  0  0  0  0  0  0  0  0  0
   23.8352  -20.5157  -12.0041 C   0  0  0  0  0  0  0  0  0  0  0  0
   24.0257  -19.3653  -11.6021 O   0  0  0  0  0  0  0  0  0  0  0  0
   20.4078  -20.7177  -18.2074 O   0  0  0  0  0  0  0  0  0  0  0  0
   20.6592  -20.2854  -16.9320 C   0  0  0  0  0  0  0  0  0  0  0  0
   19.6628  -19.6981  -16.1994 C   0  0  0  0  0  0  0  0  0  0  0  0
   19.8894  -19.2534  -14.9118 C   0  0  0  0  0  0  0  0  0  0  0  0
   21.1151  -19.3777  -14.3089 C   0  0  0  0  0  0  0  0  0  0  0  0
   21.3874  -18.9095  -12.9322 C   0  0  0  0  0  0  0  0  0  0  0  0
   21.3583  -20.0660  -11.9289 C   0  0  2  0  0  0  0  0  0  0  0  0
   22.4942  -20.9118  -12.2670 N   0  0  0  0  0  0  0  0  0  0  0  0
   20.1271  -20.8492  -12.2068 C   0  0  0  0  0  0  0  0  0  0  0  0
   20.2089  -22.0102  -12.7054 O   0  0  0  0  0  0  0  0  0  0  0  0
   22.1275  -19.9762  -15.0574 C   0  0  0  0  0  0  0  0  0  0  0  0
   21.8993  -20.4196  -16.3428 C   0  0  0  0  0  0  0  0  0  0  0  0
   18.8493  -20.3746  -11.9464 O   0  0  0  0  0  0  0  0  0  0  0  0
  2 10  1  0
  2  1  1  6
  3  2  1  0
  4  3  1  0
  4  5  2  0
  6  5  1  0
  7  6  2  0
  8  9  2  0
  8  7  1  0
  9  4  1  0
 10 12  1  0
 11 10  2  0
 12 16  1  0
 12 13  1  0
 13 14  1  0
 15 14  1  0
 16 15  1  0
 16 17  1  1
 18 17  2  0
 20 21  2  0
 20 19  1  0
 22 21  1  0
 23 22  2  0
 24 23  1  0
 25 24  1  6
 25 27  1  0
 25 26  1  0
 26 17  1  0
 27 31  1  0
 28 27  2  0
 29 23  1  0
 29 30  2  0
 30 20  1  0
M  END
$$$$
