FPY.pdb
     RDKit          3D

 31 33  0  0  1  0  0  0  0  0999 V2000
   25.8089  -20.7834  -14.0029 N   0  0  0  0  0  0  0  0  0  0  0  0
   26.9580  -20.2182  -13.3043 C   0  0  1  0  0  0  0  0  0  0  0  0
   26.8440  -18.7015  -13.2788 C   0  0  0  0  0  0  0  0  0  0  0  0
   27.0299  -18.1142  -14.6151 C   0  0  0  0  0  0  0  0  0  0  0  0
   26.0090  -17.4679  -15.2742 C   0  0  0  0  0  0  0  0  0  0  0  0
   26.2149  -16.9272  -16.5305 C   0  0  0  0  0  0  0  0  0  0  0  0
   27.4554  -17.0271  -17.1485 C   0  0  0  0  0  0  0  0  0  0  0  0
   28.4854  -17.6727  -16.4968 C   0  0  0  0  0  0  0  0  0  0  0  0
   28.2484  -18.2017  -15.2440 C   0  0  0  0  0  0  0  0  0  0  0  0
   27.0647  -20.7316  -11.9328 C   0  0  0  0  0  0  0  0  0  0  0  0
   26.0977  -20.6375  -11.1372 O   0  0  0  0  0  0  0  0  0  0  0  0
   28.2594  -21.3697  -11.4085 N   0  0  0  0  0  0  0  0  0  0  0  0
   29.2798  -22.0173  -12.2083 C   0  0  0  0  0  0  0  0  0  0  0  0
   30.5482  -21.5421  -11.4844 C   0  0  0  0  0  0  0  0  0  0  0  0
   30.0993  -21.8510  -10.0437 C   0  0  0  0  0  0  0  0  0  0  0  0
   28.6221  -21.5374  -10.0339 C   0  0  1  0  0  0  0  0  0  0  0  0
   28.3473  -20.3608   -9.1694 C   0  0  0  0  0  0  0  0  0  0  0  0
   28.3018  -19.1988   -9.5803 O   0  0  0  0  0  0  0  0  0  0  0  0
   22.5910  -22.7063   -6.2753 O   0  0  0  0  0  0  0  0  0  0  0  0
   23.5834  -21.7748   -6.4303 C   0  0  0  0  0  0  0  0  0  0  0  0
   23.9185  -21.3335   -7.6824 C   0  0  0  0  0  0  0  0  0  0  0  0
   24.9149  -20.3954   -7.8667 C   0  0  0  0  0  0  0  0  0  0  0  0
   25.6123  -19.8641   -6.8118 C   0  0  0  0  0  0  0  0  0  0  0  0
   26.6852  -18.8593   -6.9791 C   0  0  0  0  0  0  0  0  0  0  0  0
   28.0730  -19.4874   -6.8232 C   0  0  2  0  0  0  0  0  0  0  0  0
   28.1220  -20.5819   -7.7821 N   0  0  0  0  0  0  0  0  0  0  0  0
   28.1264  -20.0878   -5.4656 C   0  0  0  0  0  0  0  0  0  0  0  0
   28.1475  -19.3452   -4.4402 O   0  0  0  0  0  0  0  0  0  0  0  0
   25.2687  -20.3154   -5.5384 C   0  0  0  0  0  0  0  0  0  0  0  0
   24.2735  -21.2521   -5.3564 C   0  0  0  0  0  0  0  0  0  0  0  0
   28.1559  -21.4569   -5.2405 O   0  0  0  0  0  0  0  0  0  0  0  0
  2 10  1  0
  2  1  1  1
  3  2  1  0
  4  3  1  0
  4  5  2  0
  6  5  1  0
  7  6  2  0
  8  9  2  0
  8  7  1  0
  9  4  1  0
 10 12  1  0
 11 10  2  0
 12 16  1  0
 12 13  1  0
 13 14  1  0
 15 14  1  0
 16 15  1  0
 16 17  1  1
 18 17  2  0
 20 21  2  0
 20 19  1  0
 22 21  1  0
 23 22  2  0
 24 23  1  0
 25 24  1  1
 25 27  1  0
 25 26  1  0
 26 17  1  0
 27 31  1  0
 28 27  2  0
 29 23  1  0
 29 30  2  0
 30 20  1  0
M  END
$$$$
