FPY.pdb
     RDKit          3D

 31 33  0  0  1  0  0  0  0  0999 V2000
   23.3019  -20.3757  -17.0996 N   0  0  0  0  0  0  0  0  0  0  0  0
   23.9526  -19.4184  -16.2117 C   0  0  1  0  0  0  0  0  0  0  0  0
   22.9008  -18.5469  -15.5425 C   0  0  0  0  0  0  0  0  0  0  0  0
   22.2487  -17.6398  -16.5002 C   0  0  0  0  0  0  0  0  0  0  0  0
   22.8595  -16.4890  -16.9439 C   0  0  0  0  0  0  0  0  0  0  0  0
   22.2198  -15.6558  -17.8436 C   0  0  0  0  0  0  0  0  0  0  0  0
   20.9500  -15.9661  -18.3149 C   0  0  0  0  0  0  0  0  0  0  0  0
   20.3288  -17.1170  -17.8767 C   0  0  0  0  0  0  0  0  0  0  0  0
   20.9933  -17.9279  -16.9787 C   0  0  0  0  0  0  0  0  0  0  0  0
   24.7635  -20.0920  -15.1896 C   0  0  0  0  0  0  0  0  0  0  0  0
   24.2220  -20.8135  -14.3161 O   0  0  0  0  0  0  0  0  0  0  0  0
   26.2096  -19.9801  -15.1145 N   0  0  0  0  0  0  0  0  0  0  0  0
   27.0756  -19.5955  -16.2111 C   0  0  0  0  0  0  0  0  0  0  0  0
   28.0675  -18.6800  -15.4782 C   0  0  0  0  0  0  0  0  0  0  0  0
   28.3644  -19.6030  -14.2813 C   0  0  0  0  0  0  0  0  0  0  0  0
   27.0468  -20.2823  -13.9933 C   0  0  1  0  0  0  0  0  0  0  0  0
   26.5117  -19.8403  -12.6797 C   0  0  0  0  0  0  0  0  0  0  0  0
   26.0455  -18.7184  -12.4671 O   0  0  0  0  0  0  0  0  0  0  0  0
   20.2517  -20.0589  -12.7081 O   0  0  0  0  0  0  0  0  0  0  0  0
   21.3939  -20.3551  -12.0121 C   0  0  0  0  0  0  0  0  0  0  0  0
   22.2781  -21.2756  -12.5074 C   0  0  0  0  0  0  0  0  0  0  0  0
   23.4365  -21.5926  -11.8260 C   0  0  0  0  0  0  0  0  0  0  0  0
   23.7551  -21.0049  -10.6283 C   0  0  0  0  0  0  0  0  0  0  0  0
   24.9876  -21.3258   -9.8756 C   0  0  0  0  0  0  0  0  0  0  0  0
   26.1360  -20.3844  -10.2495 C   0  0  2  0  0  0  0  0  0  0  0  0
   26.5355  -20.7634  -11.5973 N   0  0  0  0  0  0  0  0  0  0  0  0
   27.2707  -20.7057   -9.3464 C   0  0  0  0  0  0  0  0  0  0  0  0
   27.2402  -20.3483   -8.1321 O   0  0  0  0  0  0  0  0  0  0  0  0
   22.8528  -20.0681  -10.1267 C   0  0  0  0  0  0  0  0  0  0  0  0
   21.6967  -19.7528  -10.8086 C   0  0  0  0  0  0  0  0  0  0  0  0
   28.4008  -21.3957   -9.7616 O   0  0  0  0  0  0  0  0  0  0  0  0
  2 10  1  0
  2  1  1  6
  3  2  1  0
  4  3  1  0
  4  5  2  0
  6  5  1  0
  7  6  2  0
  8  9  2  0
  8  7  1  0
  9  4  1  0
 10 12  1  0
 11 10  2  0
 12 16  1  0
 12 13  1  0
 13 14  1  0
 15 14  1  0
 16 15  1  0
 16 17  1  1
 18 17  2  0
 20 21  2  0
 20 19  1  0
 22 21  1  0
 23 22  2  0
 24 23  1  0
 25 24  1  1
 25 27  1  0
 25 26  1  0
 26 17  1  0
 27 31  1  0
 28 27  2  0
 29 23  1  0
 29 30  2  0
 30 20  1  0
M  END
$$$$
