FPY.pdb
     RDKit          3D

 31 33  0  0  1  0  0  0  0  0999 V2000
   24.9255  -19.0288  -16.9089 N   0  0  0  0  0  0  0  0  0  0  0  0
   25.8863  -18.6926  -15.8639 C   0  0  1  0  0  0  0  0  0  0  0  0
   25.6700  -17.2553  -15.4155 C   0  0  0  0  0  0  0  0  0  0  0  0
   26.1288  -16.2894  -16.4263 C   0  0  0  0  0  0  0  0  0  0  0  0
   25.2464  -15.5927  -17.2202 C   0  0  0  0  0  0  0  0  0  0  0  0
   25.7090  -14.6923  -18.1626 C   0  0  0  0  0  0  0  0  0  0  0  0
   27.0721  -14.4757  -18.3241 C   0  0  0  0  0  0  0  0  0  0  0  0
   27.9651  -15.1687  -17.5336 C   0  0  0  0  0  0  0  0  0  0  0  0
   27.4722  -16.0603  -16.6022 C   0  0  0  0  0  0  0  0  0  0  0  0
   25.7716  -19.5954  -14.7117 C   0  0  0  0  0  0  0  0  0  0  0  0
   24.6573  -19.8064  -14.1724 O   0  0  0  0  0  0  0  0  0  0  0  0
   26.9031  -20.2934  -14.1270 N   0  0  0  0  0  0  0  0  0  0  0  0
   28.1518  -20.5758  -14.8061 C   0  0  0  0  0  0  0  0  0  0  0  0
   29.1559  -20.2858  -13.6806 C   0  0  0  0  0  0  0  0  0  0  0  0
   28.4557  -21.0793  -12.5613 C   0  0  0  0  0  0  0  0  0  0  0  0
   26.9819  -20.8807  -12.8239 C   0  0  1  0  0  0  0  0  0  0  0  0
   26.3659  -20.0739  -11.7390 C   0  0  0  0  0  0  0  0  0  0  0  0
   26.4575  -18.8469  -11.6551 O   0  0  0  0  0  0  0  0  0  0  0  0
   19.9520  -22.4578  -12.3632 O   0  0  0  0  0  0  0  0  0  0  0  0
   20.9283  -21.6815  -11.7968 C   0  0  0  0  0  0  0  0  0  0  0  0
   20.7208  -21.1064  -10.5718 C   0  0  0  0  0  0  0  0  0  0  0  0
   21.6882  -20.3195   -9.9785 C   0  0  0  0  0  0  0  0  0  0  0  0
   22.8951  -20.0776  -10.5836 C   0  0  0  0  0  0  0  0  0  0  0  0
   23.9490  -19.2380   -9.9729 C   0  0  0  0  0  0  0  0  0  0  0  0
   25.1517  -20.0773   -9.5325 C   0  0  2  0  0  0  0  0  0  0  0  0
   25.6236  -20.7529  -10.7329 N   0  0  0  0  0  0  0  0  0  0  0  0
   24.6362  -21.1228   -8.6119 C   0  0  0  0  0  0  0  0  0  0  0  0
   24.6356  -22.3389   -8.9643 O   0  0  0  0  0  0  0  0  0  0  0  0
   23.1032  -20.6646  -11.8307 C   0  0  0  0  0  0  0  0  0  0  0  0
   22.1362  -21.4501  -12.4215 C   0  0  0  0  0  0  0  0  0  0  0  0
   24.1379  -20.8434   -7.3472 O   0  0  0  0  0  0  0  0  0  0  0  0
  2 10  1  0
  2  1  1  6
  3  2  1  0
  4  3  1  0
  4  5  2  0
  6  5  1  0
  7  6  2  0
  8  9  2  0
  8  7  1  0
  9  4  1  0
 10 12  1  0
 11 10  2  0
 12 16  1  0
 12 13  1  0
 13 14  1  0
 15 14  1  0
 16 15  1  0
 16 17  1  1
 18 17  2  0
 20 21  2  0
 20 19  1  0
 22 21  1  0
 23 22  2  0
 24 23  1  0
 25 24  1  6
 25 27  1  0
 25 26  1  0
 26 17  1  0
 27 31  1  0
 28 27  2  0
 29 23  1  0
 29 30  2  0
 30 20  1  0
M  END
$$$$
