FPY.pdb
     RDKit          3D

 31 33  0  0  1  0  0  0  0  0999 V2000
   23.7042  -18.8674  -17.3293 N   0  0  0  0  0  0  0  0  0  0  0  0
   24.7770  -18.3072  -16.5148 C   0  0  1  0  0  0  0  0  0  0  0  0
   24.3658  -16.9349  -16.0035 C   0  0  0  0  0  0  0  0  0  0  0  0
   24.2200  -15.9620  -17.0978 C   0  0  0  0  0  0  0  0  0  0  0  0
   22.9861  -15.5272  -17.5252 C   0  0  0  0  0  0  0  0  0  0  0  0
   22.8820  -14.6127  -18.5575 C   0  0  0  0  0  0  0  0  0  0  0  0
   24.0209  -14.1173  -19.1806 C   0  0  0  0  0  0  0  0  0  0  0  0
   25.2625  -14.5464  -18.7600 C   0  0  0  0  0  0  0  0  0  0  0  0
   25.3332  -15.4596  -17.7274 C   0  0  0  0  0  0  0  0  0  0  0  0
   25.1098  -19.1804  -15.3822 C   0  0  0  0  0  0  0  0  0  0  0  0
   24.2451  -19.4633  -14.5166 O   0  0  0  0  0  0  0  0  0  0  0  0
   26.4235  -19.7670  -15.1838 N   0  0  0  0  0  0  0  0  0  0  0  0
   27.4594  -19.8563  -16.1934 C   0  0  0  0  0  0  0  0  0  0  0  0
   28.6992  -19.5099  -15.3556 C   0  0  0  0  0  0  0  0  0  0  0  0
   28.4185  -20.4448  -14.1639 C   0  0  0  0  0  0  0  0  0  0  0  0
   26.9171  -20.4129  -14.0055 C   0  0  1  0  0  0  0  0  0  0  0  0
   26.5441  -19.7497  -12.7294 C   0  0  0  0  0  0  0  0  0  0  0  0
   26.6310  -18.5353  -12.5322 O   0  0  0  0  0  0  0  0  0  0  0  0
   20.1738  -22.3030  -12.3051 O   0  0  0  0  0  0  0  0  0  0  0  0
   21.2319  -21.5470  -11.8743 C   0  0  0  0  0  0  0  0  0  0  0  0
   21.4069  -21.3139  -10.5365 C   0  0  0  0  0  0  0  0  0  0  0  0
   22.4647  -20.5552  -10.0756 C   0  0  0  0  0  0  0  0  0  0  0  0
   23.3846  -20.0023  -10.9296 C   0  0  0  0  0  0  0  0  0  0  0  0
   24.5263  -19.1844  -10.4648 C   0  0  0  0  0  0  0  0  0  0  0  0
   25.8025  -20.0210  -10.3379 C   0  0  2  0  0  0  0  0  0  0  0  0
   26.0562  -20.5599  -11.6665 N   0  0  0  0  0  0  0  0  0  0  0  0
   25.4816  -21.1683   -9.4505 C   0  0  0  0  0  0  0  0  0  0  0  0
   25.4696  -22.3474   -9.9118 O   0  0  0  0  0  0  0  0  0  0  0  0
   23.2036  -20.2416  -12.2910 C   0  0  0  0  0  0  0  0  0  0  0  0
   22.1469  -20.9994  -12.7493 C   0  0  0  0  0  0  0  0  0  0  0  0
   25.1838  -21.0266   -8.1026 O   0  0  0  0  0  0  0  0  0  0  0  0
  2 10  1  0
  2  1  1  1
  3  2  1  0
  4  3  1  0
  4  5  2  0
  6  5  1  0
  7  6  2  0
  8  9  2  0
  8  7  1  0
  9  4  1  0
 10 12  1  0
 11 10  2  0
 12 16  1  0
 12 13  1  0
 13 14  1  0
 15 14  1  0
 16 15  1  0
 16 17  1  1
 18 17  2  0
 20 21  2  0
 20 19  1  0
 22 21  1  0
 23 22  2  0
 24 23  1  0
 25 24  1  6
 25 27  1  0
 25 26  1  0
 26 17  1  0
 27 31  1  0
 28 27  2  0
 29 23  1  0
 29 30  2  0
 30 20  1  0
M  END
$$$$
