FPY.pdb
     RDKit          3D

 31 33  0  0  1  0  0  0  0  0999 V2000
   16.2592  -14.8735    4.7947 N   0  0  0  0  0  0  0  0  0  0  0  0
   17.1704  -15.9672    5.1135 C   0  0  1  0  0  0  0  0  0  0  0  0
   18.3940  -15.8905    4.2131 C   0  0  0  0  0  0  0  0  0  0  0  0
   18.0403  -16.0353    2.7921 C   0  0  0  0  0  0  0  0  0  0  0  0
   17.5406  -14.9850    2.0561 C   0  0  0  0  0  0  0  0  0  0  0  0
   17.2163  -15.1532    0.7222 C   0  0  0  0  0  0  0  0  0  0  0  0
   17.3893  -16.3848    0.1023 C   0  0  0  0  0  0  0  0  0  0  0  0
   17.8894  -17.4439    0.8307 C   0  0  0  0  0  0  0  0  0  0  0  0
   18.2037  -17.2443    2.1600 C   0  0  0  0  0  0  0  0  0  0  0  0
   17.5863  -15.9332    6.5212 C   0  0  0  0  0  0  0  0  0  0  0  0
   18.0286  -14.8750    7.0324 O   0  0  0  0  0  0  0  0  0  0  0  0
   17.5179  -17.0850    7.4032 N   0  0  0  0  0  0  0  0  0  0  0  0
   16.5632  -18.1693    7.2885 C   0  0  0  0  0  0  0  0  0  0  0  0
   17.4675  -19.3733    7.5909 C   0  0  0  0  0  0  0  0  0  0  0  0
   18.1557  -18.8117    8.8494 C   0  0  0  0  0  0  0  0  0  0  0  0
   18.3146  -17.3370    8.5656 C   0  0  1  0  0  0  0  0  0  0  0  0
   19.7517  -16.9882    8.4229 C   0  0  0  0  0  0  0  0  0  0  0  0
   20.3885  -17.1036    7.3730 O   0  0  0  0  0  0  0  0  0  0  0  0
   19.7838  -10.6701    6.8193 O   0  0  0  0  0  0  0  0  0  0  0  0
   20.2820  -11.6490    7.6379 C   0  0  0  0  0  0  0  0  0  0  0  0
   21.6088  -11.9818    7.5781 C   0  0  0  0  0  0  0  0  0  0  0  0
   22.1365  -12.9648    8.3918 C   0  0  0  0  0  0  0  0  0  0  0  0
   21.3626  -13.6505    9.2929 C   0  0  0  0  0  0  0  0  0  0  0  0
   21.9000  -14.7089   10.1760 C   0  0  0  0  0  0  0  0  0  0  0  0
   21.8379  -16.0847    9.5067 C   0  0  2  0  0  0  0  0  0  0  0  0
   20.4406  -16.4898    9.5638 N   0  0  0  0  0  0  0  0  0  0  0  0
   22.6039  -17.0206   10.3692 C   0  0  0  0  0  0  0  0  0  0  0  0
   22.0160  -17.6744   11.2802 O   0  0  0  0  0  0  0  0  0  0  0  0
   20.0122  -13.3093    9.3515 C   0  0  0  0  0  0  0  0  0  0  0  0
   19.4871  -12.3275    8.5382 C   0  0  0  0  0  0  0  0  0  0  0  0
   23.9691  -17.2318   10.2366 O   0  0  0  0  0  0  0  0  0  0  0  0
  2 10  1  0
  2  1  1  6
  3  2  1  0
  4  3  1  0
  4  5  2  0
  6  5  1  0
  7  6  2  0
  8  9  2  0
  8  7  1  0
  9  4  1  0
 10 12  1  0
 11 10  2  0
 12 16  1  0
 12 13  1  0
 13 14  1  0
 15 14  1  0
 16 15  1  0
 16 17  1  6
 18 17  2  0
 20 21  2  0
 20 19  1  0
 22 21  1  0
 23 22  2  0
 24 23  1  0
 25 24  1  1
 25 27  1  0
 25 26  1  0
 26 17  1  0
 27 31  1  0
 28 27  2  0
 29 23  1  0
 29 30  2  0
 30 20  1  0
M  END
$$$$
