FPY.pdb
     RDKit          3D

 31 33  0  0  1  0  0  0  0  0999 V2000
   14.9606  -19.6817    2.7129 N   0  0  0  0  0  0  0  0  0  0  0  0
   15.8398  -20.2420    3.7333 C   0  0  1  0  0  0  0  0  0  0  0  0
   16.8637  -21.1566    3.0781 C   0  0  0  0  0  0  0  0  0  0  0  0
   16.2410  -22.3669    2.5191 C   0  0  0  0  0  0  0  0  0  0  0  0
   15.8662  -23.4259    3.3144 C   0  0  0  0  0  0  0  0  0  0  0  0
   15.2843  -24.5507    2.7586 C   0  0  0  0  0  0  0  0  0  0  0  0
   15.0680  -24.6310    1.3883 C   0  0  0  0  0  0  0  0  0  0  0  0
   15.4398  -23.5754    0.5822 C   0  0  0  0  0  0  0  0  0  0  0  0
   16.0182  -22.4668    1.1669 C   0  0  0  0  0  0  0  0  0  0  0  0
   16.5271  -19.1903    4.4932 C   0  0  0  0  0  0  0  0  0  0  0  0
   17.4108  -18.4822    3.9505 O   0  0  0  0  0  0  0  0  0  0  0  0
   16.2444  -18.8965    5.8871 N   0  0  0  0  0  0  0  0  0  0  0  0
   15.0636  -19.3269    6.6086 C   0  0  0  0  0  0  0  0  0  0  0  0
   15.6848  -19.7156    7.9584 C   0  0  0  0  0  0  0  0  0  0  0  0
   16.5470  -18.4562    8.1662 C   0  0  0  0  0  0  0  0  0  0  0  0
   17.0222  -18.0918    6.7799 C   0  0  1  0  0  0  0  0  0  0  0  0
   18.4916  -18.2812    6.6688 C   0  0  0  0  0  0  0  0  0  0  0  0
   19.0258  -19.3292    6.2980 O   0  0  0  0  0  0  0  0  0  0  0  0
   20.0338  -11.0798    8.1898 O   0  0  0  0  0  0  0  0  0  0  0  0
   20.3499  -12.3136    7.6851 C   0  0  0  0  0  0  0  0  0  0  0  0
   19.4779  -12.9537    6.8458 C   0  0  0  0  0  0  0  0  0  0  0  0
   19.7718  -14.1977    6.3233 C   0  0  0  0  0  0  0  0  0  0  0  0
   20.9432  -14.8476    6.6179 C   0  0  0  0  0  0  0  0  0  0  0  0
   21.2841  -16.1807    6.0744 C   0  0  0  0  0  0  0  0  0  0  0  0
   20.7906  -17.3043    6.9902 C   0  0  2  0  0  0  0  0  0  0  0  0
   19.3392  -17.1904    7.0095 N   0  0  0  0  0  0  0  0  0  0  0  0
   21.2757  -16.9917    8.3589 C   0  0  0  0  0  0  0  0  0  0  0  0
   20.5049  -16.4394    9.1980 O   0  0  0  0  0  0  0  0  0  0  0  0
   21.8288  -14.1932    7.4727 C   0  0  0  0  0  0  0  0  0  0  0  0
   21.5336  -12.9511    7.9933 C   0  0  0  0  0  0  0  0  0  0  0  0
   22.5631  -17.2754    8.7923 O   0  0  0  0  0  0  0  0  0  0  0  0
  2 10  1  0
  2  1  1  6
  3  2  1  0
  4  3  1  0
  4  5  2  0
  6  5  1  0
  7  6  2  0
  8  9  2  0
  8  7  1  0
  9  4  1  0
 10 12  1  0
 11 10  2  0
 12 16  1  0
 12 13  1  0
 13 14  1  0
 15 14  1  0
 16 15  1  0
 16 17  1  1
 18 17  2  0
 20 21  2  0
 20 19  1  0
 22 21  1  0
 23 22  2  0
 24 23  1  0
 25 24  1  6
 25 27  1  0
 25 26  1  0
 26 17  1  0
 27 31  1  0
 28 27  2  0
 29 23  1  0
 29 30  2  0
 30 20  1  0
M  END
$$$$
