CGN.pdb
     RDKit          3D

 19 18  0  0  1  0  0  0  0  0999 V2000
   -1.7702  -23.7224   24.0594 N   0  0  0  0  0  0  0  0  0  0  0  0
   -2.8714  -22.8261   24.2225 C   0  0  1  0  0  0  0  0  0  0  0  0
   -2.9218  -21.8499   23.0668 C   0  0  0  0  0  0  0  0  0  0  0  0
   -1.3690  -20.9170   23.0838 S   0  0  0  0  0  0  0  0  0  0  0  0
   -4.1724  -23.5379   24.3621 C   0  0  0  0  0  0  0  0  0  0  0  0
   -4.3181  -24.6921   23.8870 O   0  0  0  0  0  0  0  0  0  0  0  0
   -5.2808  -22.9533   25.0251 N   0  0  0  0  0  0  0  0  0  0  0  0
   -6.4930  -23.6531   25.3256 C   0  0  0  0  0  0  0  0  0  0  0  0
   -6.7918  -23.6748   26.7797 C   0  0  0  0  0  0  0  0  0  0  0  0
   -7.8763  -23.1706   27.1622 O   0  0  0  0  0  0  0  0  0  0  0  0
   -4.6547  -27.6242   29.5253 N   0  0  0  0  0  0  0  0  0  0  0  0
   -5.6615  -26.5976   29.5314 C   0  0  0  0  0  0  0  0  0  0  0  0
   -6.8336  -26.9303   29.2852 O   0  0  0  0  0  0  0  0  0  0  0  0
   -5.2714  -25.2155   29.8239 C   0  0  0  0  0  0  0  0  0  0  0  0
   -6.2257  -24.2429   29.1655 C   0  0  2  0  0  0  0  0  0  0  0  0
   -5.9317  -24.2264   27.7496 N   0  0  0  0  0  0  0  0  0  0  0  0
   -6.1437  -22.9272   29.8180 C   0  0  0  0  0  0  0  0  0  0  0  0
   -6.4853  -22.8147   31.0136 O   0  0  0  0  0  0  0  0  0  0  0  0
   -5.6971  -21.8384   29.1191 O   0  0  0  0  0  0  0  0  0  0  0  0
  2  1  1  6
  2  3  1  0
  4  3  1  0
  5  2  1  0
  6  5  2  0
  7  5  1  0
  8  7  1  0
  9 16  1  0
  9  8  1  0
 10  9  2  0
 11 12  1  0
 12 13  2  0
 12 14  1  0
 15 14  1  1
 15 17  1  0
 15 16  1  0
 17 19  1  0
 18 17  2  0
M  END
$$$$
