CGN.pdb
     RDKit          3D

 19 18  0  0  1  0  0  0  0  0999 V2000
    5.3380  -14.0070   25.9604 N   0  0  0  0  0  0  0  0  0  0  0  0
    6.4480  -13.4707   25.2374 C   0  0  1  0  0  0  0  0  0  0  0  0
    7.1893  -12.4667   26.0940 C   0  0  0  0  0  0  0  0  0  0  0  0
    5.9534  -11.3440   26.7965 S   0  0  0  0  0  0  0  0  0  0  0  0
    7.3772  -14.5276   24.7492 C   0  0  0  0  0  0  0  0  0  0  0  0
    7.3909  -15.6605   25.2928 O   0  0  0  0  0  0  0  0  0  0  0  0
    8.2689  -14.3035   23.6701 N   0  0  0  0  0  0  0  0  0  0  0  0
    9.1428  -15.3028   23.1341 C   0  0  0  0  0  0  0  0  0  0  0  0
   10.0446  -15.8805   24.1623 C   0  0  0  0  0  0  0  0  0  0  0  0
   10.9021  -16.7168   23.7857 O   0  0  0  0  0  0  0  0  0  0  0  0
   10.7795  -15.9981   30.3273 N   0  0  0  0  0  0  0  0  0  0  0  0
   11.1774  -16.2229   28.9639 C   0  0  0  0  0  0  0  0  0  0  0  0
   12.1656  -16.9485   28.7580 O   0  0  0  0  0  0  0  0  0  0  0  0
   10.4119  -15.5956   27.8831 C   0  0  0  0  0  0  0  0  0  0  0  0
   10.7725  -16.2119   26.5488 C   0  0  2  0  0  0  0  0  0  0  0  0
    9.9928  -15.5450   25.5296 N   0  0  0  0  0  0  0  0  0  0  0  0
   10.5905  -17.6708   26.5951 C   0  0  0  0  0  0  0  0  0  0  0  0
    9.4378  -18.1461   26.5306 O   0  0  0  0  0  0  0  0  0  0  0  0
   11.6759  -18.4971   26.7080 O   0  0  0  0  0  0  0  0  0  0  0  0
  2  1  1  1
  2  3  1  0
  4  3  1  0
  5  2  1  0
  6  5  2  0
  7  5  1  0
  8  7  1  0
  9 16  1  0
  9  8  1  0
 10  9  2  0
 11 12  1  0
 12 13  2  0
 12 14  1  0
 15 14  1  1
 15 17  1  0
 15 16  1  0
 17 19  1  0
 18 17  2  0
M  END
$$$$
