CGN.pdb
     RDKit          3D

 19 18  0  0  1  0  0  0  0  0999 V2000
    8.8495  -12.2140   19.4111 N   0  0  0  0  0  0  0  0  0  0  0  0
    7.7480  -13.1246   19.4065 C   0  0  1  0  0  0  0  0  0  0  0  0
    7.5574  -13.7019   18.0203 C   0  0  0  0  0  0  0  0  0  0  0  0
    6.2444  -14.9450   18.1321 S   0  0  0  0  0  0  0  0  0  0  0  0
    7.9029  -14.2148   20.4096 C   0  0  0  0  0  0  0  0  0  0  0  0
    9.0238  -14.7518   20.5948 O   0  0  0  0  0  0  0  0  0  0  0  0
    6.8115  -14.6837   21.1835 N   0  0  0  0  0  0  0  0  0  0  0  0
    6.8713  -15.8313   22.0373 C   0  0  0  0  0  0  0  0  0  0  0  0
    7.5642  -15.5506   23.3200 C   0  0  0  0  0  0  0  0  0  0  0  0
    7.8330  -14.3543   23.5906 O   0  0  0  0  0  0  0  0  0  0  0  0
    8.0102  -18.8918   25.2759 N   0  0  0  0  0  0  0  0  0  0  0  0
    7.5113  -18.2132   26.4413 C   0  0  0  0  0  0  0  0  0  0  0  0
    6.8421  -18.8714   27.2563 O   0  0  0  0  0  0  0  0  0  0  0  0
    7.8074  -16.7892   26.6210 C   0  0  0  0  0  0  0  0  0  0  0  0
    8.6483  -16.2721   25.4739 C   0  0  2  0  0  0  0  0  0  0  0  0
    7.9352  -16.5456   24.2458 N   0  0  0  0  0  0  0  0  0  0  0  0
   10.0003  -16.8484   25.5323 C   0  0  0  0  0  0  0  0  0  0  0  0
   10.3539  -17.6692   24.6605 O   0  0  0  0  0  0  0  0  0  0  0  0
   10.8605  -16.4869   26.5338 O   0  0  0  0  0  0  0  0  0  0  0  0
  2  1  1  6
  2  3  1  0
  4  3  1  0
  5  2  1  0
  6  5  2  0
  7  5  1  0
  8  7  1  0
  9 16  1  0
  9  8  1  0
 10  9  2  0
 11 12  1  0
 12 13  2  0
 12 14  1  0
 15 14  1  1
 15 17  1  0
 15 16  1  0
 17 19  1  0
 18 17  2  0
M  END
$$$$
