CGN.pdb
     RDKit          3D

 19 18  0  0  1  0  0  0  0  0999 V2000
    8.6403  -15.2387   17.9436 N   0  0  0  0  0  0  0  0  0  0  0  0
    8.7907  -14.2850   18.9974 C   0  0  1  0  0  0  0  0  0  0  0  0
    7.4983  -13.5225   19.1959 C   0  0  0  0  0  0  0  0  0  0  0  0
    7.1087  -12.7079   17.6255 S   0  0  0  0  0  0  0  0  0  0  0  0
    9.2302  -14.9100   20.2760 C   0  0  0  0  0  0  0  0  0  0  0  0
    9.5790  -14.1915   21.2463 O   0  0  0  0  0  0  0  0  0  0  0  0
    9.2724  -16.3165   20.4488 N   0  0  0  0  0  0  0  0  0  0  0  0
    9.7564  -16.9628   21.6310 C   0  0  0  0  0  0  0  0  0  0  0  0
   11.2373  -17.0651   21.6576 C   0  0  0  0  0  0  0  0  0  0  0  0
   11.7438  -18.2117   21.7304 O   0  0  0  0  0  0  0  0  0  0  0  0
   12.8099  -13.8525   19.1856 N   0  0  0  0  0  0  0  0  0  0  0  0
   13.8896  -14.6688   19.6710 C   0  0  0  0  0  0  0  0  0  0  0  0
   14.5910  -15.2637   18.8348 O   0  0  0  0  0  0  0  0  0  0  0  0
   14.1184  -14.7666   21.1153 C   0  0  0  0  0  0  0  0  0  0  0  0
   13.5435  -16.0567   21.6586 C   0  0  2  0  0  0  0  0  0  0  0  0
   12.1019  -15.9539   21.6061 N   0  0  0  0  0  0  0  0  0  0  0  0
   14.0842  -16.3315   22.9987 C   0  0  0  0  0  0  0  0  0  0  0  0
   13.3427  -16.2062   23.9953 O   0  0  0  0  0  0  0  0  0  0  0  0
   15.3879  -16.7205   23.1488 O   0  0  0  0  0  0  0  0  0  0  0  0
  2  1  1  6
  2  3  1  0
  4  3  1  0
  5  2  1  0
  6  5  2  0
  7  5  1  0
  8  7  1  0
  9 16  1  0
  9  8  1  0
 10  9  2  0
 11 12  1  0
 12 13  2  0
 12 14  1  0
 15 14  1  1
 15 17  1  0
 15 16  1  0
 17 19  1  0
 18 17  2  0
M  END
$$$$
