CGN.pdb
     RDKit          3D

 19 18  0  0  1  0  0  0  0  0999 V2000
    7.1379  -18.2456   19.7658 N   0  0  0  0  0  0  0  0  0  0  0  0
    7.6981  -17.1147   19.0952 C   0  0  1  0  0  0  0  0  0  0  0  0
    7.0318  -16.9267   17.7491 C   0  0  0  0  0  0  0  0  0  0  0  0
    6.2053  -18.4851   17.3368 S   0  0  0  0  0  0  0  0  0  0  0  0
    7.6048  -15.8667   19.9029 C   0  0  0  0  0  0  0  0  0  0  0  0
    8.1978  -14.8235   19.5293 O   0  0  0  0  0  0  0  0  0  0  0  0
    6.8565  -15.8046   21.1054 N   0  0  0  0  0  0  0  0  0  0  0  0
    6.7456  -14.6317   21.9187 C   0  0  0  0  0  0  0  0  0  0  0  0
    7.5956  -14.6997   23.1340 C   0  0  0  0  0  0  0  0  0  0  0  0
    7.5494  -13.7343   23.9356 O   0  0  0  0  0  0  0  0  0  0  0  0
    6.4947  -17.6603   25.2157 N   0  0  0  0  0  0  0  0  0  0  0  0
    7.5675  -17.0032   25.9121 C   0  0  0  0  0  0  0  0  0  0  0  0
    7.2911  -16.3792   26.9511 O   0  0  0  0  0  0  0  0  0  0  0  0
    8.9287  -17.0936   25.3765 C   0  0  0  0  0  0  0  0  0  0  0  0
    9.2848  -15.8356   24.6144 C   0  0  2  0  0  0  0  0  0  0  0  0
    8.4467  -15.7807   23.4371 N   0  0  0  0  0  0  0  0  0  0  0  0
   10.7284  -15.8005   24.3342 C   0  0  0  0  0  0  0  0  0  0  0  0
   11.1219  -15.7977   23.1493 O   0  0  0  0  0  0  0  0  0  0  0  0
   11.6294  -15.7714   25.3642 O   0  0  0  0  0  0  0  0  0  0  0  0
  2  1  1  1
  2  3  1  0
  4  3  1  0
  5  2  1  0
  6  5  2  0
  7  5  1  0
  8  7  1  0
  9 16  1  0
  9  8  1  0
 10  9  2  0
 11 12  1  0
 12 13  2  0
 12 14  1  0
 15 14  1  6
 15 17  1  0
 15 16  1  0
 17 19  1  0
 18 17  2  0
M  END
$$$$
