CGN.pdb
     RDKit          3D

 19 18  0  0  1  0  0  0  0  0999 V2000
    5.6237  -14.4293   25.5223 N   0  0  0  0  0  0  0  0  0  0  0  0
    6.4671  -13.3871   25.0274 C   0  0  1  0  0  0  0  0  0  0  0  0
    6.7123  -12.3590   26.1110 C   0  0  0  0  0  0  0  0  0  0  0  0
    5.0959  -11.8861   26.7782 S   0  0  0  0  0  0  0  0  0  0  0  0
    7.7590  -13.9016   24.4935 C   0  0  0  0  0  0  0  0  0  0  0  0
    8.6707  -13.1033   24.1608 O   0  0  0  0  0  0  0  0  0  0  0  0
    8.0094  -15.2886   24.3413 N   0  0  0  0  0  0  0  0  0  0  0  0
    9.1934  -15.8265   23.7426 C   0  0  0  0  0  0  0  0  0  0  0  0
   10.2134  -16.2153   24.7488 C   0  0  0  0  0  0  0  0  0  0  0  0
   11.3484  -16.5532   24.3316 O   0  0  0  0  0  0  0  0  0  0  0  0
   10.8501  -14.0956   27.2651 N   0  0  0  0  0  0  0  0  0  0  0  0
   10.5054  -14.8020   28.4693 C   0  0  0  0  0  0  0  0  0  0  0  0
   10.2065  -14.1312   29.4723 O   0  0  0  0  0  0  0  0  0  0  0  0
   10.5198  -16.2674   28.4674 C   0  0  0  0  0  0  0  0  0  0  0  0
   10.8996  -16.7938   27.1004 C   0  0  2  0  0  0  0  0  0  0  0  0
    9.9809  -16.2265   26.1383 N   0  0  0  0  0  0  0  0  0  0  0  0
   10.9353  -18.2642   27.1119 C   0  0  0  0  0  0  0  0  0  0  0  0
   10.0680  -18.9025   26.4801 O   0  0  0  0  0  0  0  0  0  0  0  0
   11.9109  -18.9240   27.8094 O   0  0  0  0  0  0  0  0  0  0  0  0
  2  1  1  1
  2  3  1  0
  4  3  1  0
  5  2  1  0
  6  5  2  0
  7  5  1  0
  8  7  1  0
  9 16  1  0
  9  8  1  0
 10  9  2  0
 11 12  1  0
 12 13  2  0
 12 14  1  0
 15 14  1  1
 15 17  1  0
 15 16  1  0
 17 19  1  0
 18 17  2  0
M  END
$$$$
