CGN.pdb
     RDKit          3D

 19 18  0  0  1  0  0  0  0  0999 V2000
    8.2080  -12.9387   17.8984 N   0  0  0  0  0  0  0  0  0  0  0  0
    8.9894  -13.5055   18.9523 C   0  0  1  0  0  0  0  0  0  0  0  0
    8.1011  -13.8544   20.1273 C   0  0  0  0  0  0  0  0  0  0  0  0
    7.3833  -12.3066   20.7360 S   0  0  0  0  0  0  0  0  0  0  0  0
    9.7649  -14.6984   18.5115 C   0  0  0  0  0  0  0  0  0  0  0  0
    9.8759  -14.9665   17.2888 O   0  0  0  0  0  0  0  0  0  0  0  0
   10.3989  -15.5657   19.4366 N   0  0  0  0  0  0  0  0  0  0  0  0
   11.4121  -16.5123   19.0803 C   0  0  0  0  0  0  0  0  0  0  0  0
   12.7249  -16.2006   19.6996 C   0  0  0  0  0  0  0  0  0  0  0  0
   13.3432  -15.1900   19.2839 O   0  0  0  0  0  0  0  0  0  0  0  0
   12.7469  -16.1351   23.9967 N   0  0  0  0  0  0  0  0  0  0  0  0
   14.0279  -15.9145   23.3820 C   0  0  0  0  0  0  0  0  0  0  0  0
   14.5298  -14.7808   23.4731 O   0  0  0  0  0  0  0  0  0  0  0  0
   14.6842  -17.0211   22.6803 C   0  0  0  0  0  0  0  0  0  0  0  0
   14.6705  -16.7858   21.1855 C   0  0  2  0  0  0  0  0  0  0  0  0
   13.3131  -16.9709   20.7221 N   0  0  0  0  0  0  0  0  0  0  0  0
   15.6609  -17.6490   20.5241 C   0  0  0  0  0  0  0  0  0  0  0  0
   15.2688  -18.5695   19.7773 O   0  0  0  0  0  0  0  0  0  0  0  0
   16.9988  -17.4432   20.7272 O   0  0  0  0  0  0  0  0  0  0  0  0
  2  1  1  6
  2  3  1  0
  4  3  1  0
  5  2  1  0
  6  5  2  0
  7  5  1  0
  8  7  1  0
  9 16  1  0
  9  8  1  0
 10  9  2  0
 11 12  1  0
 12 13  2  0
 12 14  1  0
 15 14  1  1
 15 17  1  0
 15 16  1  0
 17 19  1  0
 18 17  2  0
M  END
$$$$
