MRY.pdb
     RDKit          3D

 32 32  0  0  1  0  0  0  0  0999 V2000
   28.6415  -19.4726   -5.2124 C   0  0  0  0  0  0  0  0  0  0  0  0
   28.3560  -20.4492   -6.7319 S   0  0  0  0  0  0  0  0  0  0  0  0
   26.6033  -20.8034   -6.8186 C   0  0  0  0  0  0  0  0  0  0  0  0
   26.0946  -20.9813   -8.2407 C   0  0  0  0  0  0  0  0  0  0  0  0
   26.8191  -19.9299   -9.0656 C   0  0  2  0  0  0  0  0  0  0  0  0
   26.4943  -18.6608   -8.4164 N   0  0  0  0  0  0  0  0  0  0  0  0
   26.3584  -19.8706  -10.4535 C   0  0  0  0  0  0  0  0  0  0  0  0
   25.2002  -19.4449  -10.6793 O   0  0  0  0  0  0  0  0  0  0  0  0
   30.4045  -23.9889  -15.1332 N   0  0  0  0  0  0  0  0  0  0  0  0
   29.5347  -23.2205  -15.9694 C   0  0  0  0  0  0  0  0  0  0  0  0
   28.8477  -23.7704  -16.9322 N   0  0  0  0  0  0  0  0  0  0  0  0
   29.3546  -21.8264  -15.8189 N   0  0  0  0  0  0  0  0  0  0  0  0
   29.8033  -21.1218  -14.6582 C   0  0  0  0  0  0  0  0  0  0  0  0
   28.8083  -21.0746  -13.5496 C   0  0  0  0  0  0  0  0  0  0  0  0
   27.6539  -20.2116  -13.9343 C   0  0  0  0  0  0  0  0  0  0  0  0
   26.5605  -20.1436  -12.9107 C   0  0  2  0  0  0  0  0  0  0  0  0
   27.1415  -20.2657  -11.5692 N   0  0  0  0  0  0  0  0  0  0  0  0
   25.5531  -21.1973  -13.1317 C   0  0  0  0  0  0  0  0  0  0  0  0
   25.5977  -22.2766  -12.4999 O   0  0  0  0  0  0  0  0  0  0  0  0
   28.2897  -23.1192  -17.5262 O   0  0  0  0  0  0  0  0  0  0  0  0
   17.4667  -22.1788  -11.2317 C   0  0  0  0  0  0  0  0  0  0  0  0
   18.7703  -21.7880  -11.5510 C   0  0  0  0  0  0  0  0  0  0  0  0
   19.8266  -22.4949  -11.0237 C   0  0  0  0  0  0  0  0  0  0  0  0
   21.0999  -22.1021  -11.3446 C   0  0  0  0  0  0  0  0  0  0  0  0
   21.3412  -21.0207  -12.1791 C   0  0  0  0  0  0  0  0  0  0  0  0
   22.7326  -20.6145  -12.5171 C   0  0  2  0  0  0  0  0  0  0  0  0
   23.1545  -21.3821  -13.7735 N   0  0  0  0  0  0  0  0  0  0  0  0
   24.5173  -20.9728  -14.0810 C   0  0  0  0  0  0  0  0  0  0  0  0
   22.2868  -21.0370  -14.9075 O   0  0  0  0  0  0  0  0  0  0  0  0
   21.4776  -21.8694  -15.3631 C   0  0  0  0  0  0  0  0  0  0  0  0
   20.2842  -20.3163  -12.7043 C   0  0  0  0  0  0  0  0  0  0  0  0
   19.0060  -20.7125  -12.3809 O   0  0  0  0  0  0  0  0  0  0  0  0
  2  1  1  0
  3  2  1  0
  4  3  1  0
  5  4  1  0
  5  7  1  0
  5  6  1  1
  7  8  2  0
  9 10  1  0
 10 11  2  0
 10 12  1  0
 12 13  1  0
 14 13  1  0
 14 15  1  0
 16 15  1  6
 17  7  1  0
 17 16  1  0
 18 16  1  0
 18 27  1  0
 19 18  2  0
 20 21  1  0
 21 31  2  0
 22 23  2  0
 22 21  1  0
 23 24  1  0
 24 25  1  0
 24 30  2  0
 26 28  1  0
 26 27  1  0
 26 25  1  1
 28 32  1  0
 29 28  2  0
 31 30  1  0
M  END
$$$$
