MRY.pdb
     RDKit          3D

 32 32  0  0  1  0  0  0  0  0999 V2000
   27.6273  -25.1469  -21.6673 C   0  0  0  0  0  0  0  0  0  0  0  0
   27.1400  -24.4144  -20.0642 S   0  0  0  0  0  0  0  0  0  0  0  0
   28.1854  -25.1400  -18.8049 C   0  0  0  0  0  0  0  0  0  0  0  0
   27.9063  -24.6050  -17.4090 C   0  0  0  0  0  0  0  0  0  0  0  0
   28.4350  -23.1797  -17.4072 C   0  0  2  0  0  0  0  0  0  0  0  0
   29.8496  -23.3096  -17.0613 N   0  0  0  0  0  0  0  0  0  0  0  0
   27.7903  -22.3290  -16.4058 C   0  0  0  0  0  0  0  0  0  0  0  0
   28.0467  -22.5345  -15.1952 O   0  0  0  0  0  0  0  0  0  0  0  0
   27.6478  -14.5567  -18.3097 N   0  0  0  0  0  0  0  0  0  0  0  0
   27.0347  -15.7746  -18.7420 C   0  0  0  0  0  0  0  0  0  0  0  0
   26.4077  -15.8588  -19.8827 N   0  0  0  0  0  0  0  0  0  0  0  0
   27.0609  -16.9638  -17.9779 N   0  0  0  0  0  0  0  0  0  0  0  0
   27.6739  -17.0261  -16.6874 C   0  0  0  0  0  0  0  0  0  0  0  0
   27.7570  -18.4002  -16.1163 C   0  0  0  0  0  0  0  0  0  0  0  0
   26.3962  -19.0068  -16.0419 C   0  0  0  0  0  0  0  0  0  0  0  0
   26.3794  -20.4457  -15.6212 C   0  0  2  0  0  0  0  0  0  0  0  0
   26.8875  -21.2790  -16.7164 N   0  0  0  0  0  0  0  0  0  0  0  0
   25.0226  -20.8758  -15.2360 C   0  0  0  0  0  0  0  0  0  0  0  0
   24.0967  -20.9228  -16.0765 O   0  0  0  0  0  0  0  0  0  0  0  0
   25.9726  -16.7819  -20.0989 O   0  0  0  0  0  0  0  0  0  0  0  0
   26.1644  -19.5179   -8.2964 C   0  0  0  0  0  0  0  0  0  0  0  0
   25.5522  -20.2963   -9.2831 C   0  0  0  0  0  0  0  0  0  0  0  0
   24.1787  -20.3095   -9.3652 C   0  0  0  0  0  0  0  0  0  0  0  0
   23.5903  -21.0762  -10.3371 C   0  0  0  0  0  0  0  0  0  0  0  0
   24.3422  -21.8289  -11.2272 C   0  0  0  0  0  0  0  0  0  0  0  0
   23.6817  -22.6512  -12.2773 C   0  0  1  0  0  0  0  0  0  0  0  0
   23.4671  -21.7617  -13.5055 N   0  0  0  0  0  0  0  0  0  0  0  0
   24.7730  -21.2413  -13.8838 C   0  0  0  0  0  0  0  0  0  0  0  0
   22.5817  -20.6352  -13.1813 O   0  0  0  0  0  0  0  0  0  0  0  0
   23.0530  -19.5035  -12.9532 C   0  0  0  0  0  0  0  0  0  0  0  0
   25.7140  -21.8139  -11.1427 C   0  0  0  0  0  0  0  0  0  0  0  0
   26.3031  -21.0431  -10.1659 O   0  0  0  0  0  0  0  0  0  0  0  0
  2  1  1  0
  3  2  1  0
  4  3  1  0
  5  4  1  0
  5  7  1  0
  5  6  1  1
  7  8  2  0
  9 10  1  0
 10 11  2  0
 10 12  1  0
 12 13  1  0
 14 13  1  0
 14 15  1  0
 16 15  1  6
 17  7  1  0
 17 16  1  0
 18 16  1  0
 18 27  1  0
 19 18  2  0
 20 21  1  0
 21 31  2  0
 22 23  2  0
 22 21  1  0
 23 24  1  0
 24 25  1  0
 24 30  2  0
 26 28  1  0
 26 27  1  0
 26 25  1  6
 28 32  1  0
 29 28  2  0
 31 30  1  0
M  END
$$$$
