MRY.pdb
     RDKit          3D

 32 32  0  0  1  0  0  0  0  0999 V2000
   21.3853  -19.3630  -13.7869 C   0  0  0  0  0  0  0  0  0  0  0  0
   20.4218  -20.3798  -12.6114 S   0  0  0  0  0  0  0  0  0  0  0  0
   20.4309  -22.0611  -13.2263 C   0  0  0  0  0  0  0  0  0  0  0  0
   19.5777  -23.0096  -12.3986 C   0  0  0  0  0  0  0  0  0  0  0  0
   19.7971  -24.3865  -13.0042 C   0  0  2  0  0  0  0  0  0  0  0  0
   19.0497  -24.3623  -14.2606 N   0  0  0  0  0  0  0  0  0  0  0  0
   19.2702  -25.4702  -12.1735 C   0  0  0  0  0  0  0  0  0  0  0  0
   18.0457  -25.4710  -11.9013 O   0  0  0  0  0  0  0  0  0  0  0  0
   23.0968  -30.9666  -13.4721 N   0  0  0  0  0  0  0  0  0  0  0  0
   22.1103  -31.9636  -13.1910 C   0  0  0  0  0  0  0  0  0  0  0  0
   21.9648  -33.0160  -13.9478 N   0  0  0  0  0  0  0  0  0  0  0  0
   21.2300  -31.8868  -12.0874 N   0  0  0  0  0  0  0  0  0  0  0  0
   21.2517  -30.7890  -11.1713 C   0  0  0  0  0  0  0  0  0  0  0  0
   20.2344  -29.7372  -11.4541 C   0  0  0  0  0  0  0  0  0  0  0  0
   20.3667  -28.6204  -10.4739 C   0  0  0  0  0  0  0  0  0  0  0  0
   19.4367  -27.4692  -10.7143 C   0  0  2  0  0  0  0  0  0  0  0  0
   20.0593  -26.5282  -11.6518 N   0  0  0  0  0  0  0  0  0  0  0  0
   19.0926  -26.7860   -9.4538 C   0  0  0  0  0  0  0  0  0  0  0  0
   19.7715  -25.8217   -9.0353 O   0  0  0  0  0  0  0  0  0  0  0  0
   21.2103  -33.6800  -13.6685 O   0  0  0  0  0  0  0  0  0  0  0  0
   13.2920  -23.3564   -4.1450 C   0  0  0  0  0  0  0  0  0  0  0  0
   14.2066  -23.8041   -5.1029 C   0  0  0  0  0  0  0  0  0  0  0  0
   15.5483  -23.5736   -4.9027 C   0  0  0  0  0  0  0  0  0  0  0  0
   16.4350  -24.0178   -5.8489 C   0  0  0  0  0  0  0  0  0  0  0  0
   16.0119  -24.6859   -6.9885 C   0  0  0  0  0  0  0  0  0  0  0  0
   16.9933  -25.1628   -8.0008 C   0  0  1  0  0  0  0  0  0  0  0  0
   17.5464  -26.5084   -7.5221 N   0  0  0  0  0  0  0  0  0  0  0  0
   17.9678  -27.2384   -8.7090 C   0  0  0  0  0  0  0  0  0  0  0  0
   16.5045  -27.2815   -6.8330 O   0  0  0  0  0  0  0  0  0  0  0  0
   16.2884  -27.1111   -5.6167 C   0  0  0  0  0  0  0  0  0  0  0  0
   14.6710  -24.9146   -7.1858 C   0  0  0  0  0  0  0  0  0  0  0  0
   13.7820  -24.4677   -6.2343 O   0  0  0  0  0  0  0  0  0  0  0  0
  2  1  1  0
  3  2  1  0
  4  3  1  0
  5  4  1  0
  5  7  1  0
  5  6  1  6
  7  8  2  0
  9 10  1  0
 10 11  2  0
 10 12  1  0
 12 13  1  0
 14 13  1  0
 14 15  1  0
 16 15  1  1
 17  7  1  0
 17 16  1  0
 18 16  1  0
 18 27  1  0
 19 18  2  0
 20 21  1  0
 21 31  2  0
 22 23  2  0
 22 21  1  0
 23 24  1  0
 24 25  1  0
 24 30  2  0
 26 28  1  0
 26 27  1  0
 26 25  1  1
 28 32  1  0
 29 28  2  0
 31 30  1  0
M  END
$$$$
