MRY.pdb
     RDKit          3D

 32 32  0  0  1  0  0  0  0  0999 V2000
   28.0375  -18.5516   -6.2867 C   0  0  0  0  0  0  0  0  0  0  0  0
   28.7123  -20.2250   -5.9893 S   0  0  0  0  0  0  0  0  0  0  0  0
   28.8157  -21.0496   -7.5750 C   0  0  0  0  0  0  0  0  0  0  0  0
   27.8052  -20.5350   -8.5882 C   0  0  0  0  0  0  0  0  0  0  0  0
   28.0053  -21.3881   -9.8304 C   0  0  2  0  0  0  0  0  0  0  0  0
   29.3461  -21.0463  -10.3028 N   0  0  0  0  0  0  0  0  0  0  0  0
   27.0485  -21.0853  -10.8957 C   0  0  0  0  0  0  0  0  0  0  0  0
   26.9795  -19.9058  -11.3172 O   0  0  0  0  0  0  0  0  0  0  0  0
   27.1361  -24.2458  -17.6158 N   0  0  0  0  0  0  0  0  0  0  0  0
   26.7395  -24.8696  -16.3912 C   0  0  0  0  0  0  0  0  0  0  0  0
   27.3473  -25.9291  -15.9336 N   0  0  0  0  0  0  0  0  0  0  0  0
   25.6739  -24.3929  -15.5937 N   0  0  0  0  0  0  0  0  0  0  0  0
   24.8573  -23.2896  -15.9948 C   0  0  0  0  0  0  0  0  0  0  0  0
   24.6247  -22.2803  -14.9231 C   0  0  0  0  0  0  0  0  0  0  0  0
   25.4800  -22.5844  -13.7392 C   0  0  0  0  0  0  0  0  0  0  0  0
   25.3271  -21.6233  -12.5988 C   0  0  2  0  0  0  0  0  0  0  0  0
   26.1872  -22.0453  -11.4879 N   0  0  0  0  0  0  0  0  0  0  0  0
   23.9233  -21.5355  -12.1563 C   0  0  0  0  0  0  0  0  0  0  0  0
   23.4293  -22.4003  -11.3987 O   0  0  0  0  0  0  0  0  0  0  0  0
   27.0209  -26.2798  -15.0069 O   0  0  0  0  0  0  0  0  0  0  0  0
   15.6709  -18.7311  -11.7780 C   0  0  0  0  0  0  0  0  0  0  0  0
   17.0567  -18.7831  -11.9544 C   0  0  0  0  0  0  0  0  0  0  0  0
   17.5613  -18.9666  -13.2213 C   0  0  0  0  0  0  0  0  0  0  0  0
   18.9217  -19.0153  -13.3813 C   0  0  0  0  0  0  0  0  0  0  0  0
   19.7877  -18.8850  -12.3056 C   0  0  0  0  0  0  0  0  0  0  0  0
   21.2620  -18.9371  -12.5036 C   0  0  1  0  0  0  0  0  0  0  0  0
   21.7245  -20.3691  -12.2183 N   0  0  0  0  0  0  0  0  0  0  0  0
   23.1262  -20.4452  -12.6039 C   0  0  0  0  0  0  0  0  0  0  0  0
   20.9573  -21.3311  -13.0208 O   0  0  0  0  0  0  0  0  0  0  0  0
   20.0042  -21.9587  -12.5181 C   0  0  0  0  0  0  0  0  0  0  0  0
   19.2808  -18.7019  -11.0412 C   0  0  0  0  0  0  0  0  0  0  0  0
   17.9142  -18.6532  -10.8826 O   0  0  0  0  0  0  0  0  0  0  0  0
  2  1  1  0
  3  2  1  0
  4  3  1  0
  5  4  1  0
  5  7  1  0
  5  6  1  6
  7  8  2  0
  9 10  1  0
 10 11  2  0
 10 12  1  0
 12 13  1  0
 14 13  1  0
 14 15  1  0
 16 15  1  6
 17  7  1  0
 17 16  1  0
 18 16  1  0
 18 27  1  0
 19 18  2  0
 20 21  1  0
 21 31  2  0
 22 23  2  0
 22 21  1  0
 23 24  1  0
 24 25  1  0
 24 30  2  0
 26 28  1  0
 26 27  1  0
 26 25  1  1
 28 32  1  0
 29 28  2  0
 31 30  1  0
M  END
$$$$
