MRY.pdb
     RDKit          3D

 32 32  0  0  1  0  0  0  0  0999 V2000
   34.0980  -24.1629  -12.7297 C   0  0  0  0  0  0  0  0  0  0  0  0
   34.6951  -25.6088  -13.6767 S   0  0  0  0  0  0  0  0  0  0  0  0
   34.1018  -25.4301  -15.3564 C   0  0  0  0  0  0  0  0  0  0  0  0
   32.9429  -24.4538  -15.4849 C   0  0  0  0  0  0  0  0  0  0  0  0
   32.4670  -24.5758  -16.9235 C   0  0  2  0  0  0  0  0  0  0  0  0
   33.4812  -23.8756  -17.7101 N   0  0  0  0  0  0  0  0  0  0  0  0
   31.1740  -23.9313  -17.1575 C   0  0  0  0  0  0  0  0  0  0  0  0
   31.1439  -22.6835  -17.2822 O   0  0  0  0  0  0  0  0  0  0  0  0
   24.0274  -25.9828  -19.9347 N   0  0  0  0  0  0  0  0  0  0  0  0
   25.3430  -26.0754  -20.4886 C   0  0  0  0  0  0  0  0  0  0  0  0
   25.8353  -27.2115  -20.8988 N   0  0  0  0  0  0  0  0  0  0  0  0
   26.1985  -24.9592  -20.6326 N   0  0  0  0  0  0  0  0  0  0  0  0
   27.6011  -25.1011  -20.8727 C   0  0  0  0  0  0  0  0  0  0  0  0
   28.4643  -24.3824  -19.8931 C   0  0  0  0  0  0  0  0  0  0  0  0
   27.8858  -24.4940  -18.5226 C   0  0  0  0  0  0  0  0  0  0  0  0
   28.7113  -23.8563  -17.4458 C   0  0  2  0  0  0  0  0  0  0  0  0
   29.9426  -24.6303  -17.2536 N   0  0  0  0  0  0  0  0  0  0  0  0
   27.9611  -23.7625  -16.1799 C   0  0  0  0  0  0  0  0  0  0  0  0
   27.8513  -24.7501  -15.4192 O   0  0  0  0  0  0  0  0  0  0  0  0
   26.8294  -27.1924  -21.2145 O   0  0  0  0  0  0  0  0  0  0  0  0
   23.4785  -20.3277   -9.5519 C   0  0  0  0  0  0  0  0  0  0  0  0
   24.2562  -20.4731  -10.7043 C   0  0  0  0  0  0  0  0  0  0  0  0
   25.5937  -20.7688  -10.5733 C   0  0  0  0  0  0  0  0  0  0  0  0
   26.3455  -20.9092  -11.7108 C   0  0  0  0  0  0  0  0  0  0  0  0
   25.7919  -20.7611  -12.9740 C   0  0  0  0  0  0  0  0  0  0  0  0
   26.6268  -20.9221  -14.1955 C   0  0  1  0  0  0  0  0  0  0  0  0
   26.6295  -22.4070  -14.5710 N   0  0  0  0  0  0  0  0  0  0  0  0
   27.3562  -22.5240  -15.8270 C   0  0  0  0  0  0  0  0  0  0  0  0
   25.2578  -22.8944  -14.7678 O   0  0  0  0  0  0  0  0  0  0  0  0
   24.6106  -22.5737  -15.7843 C   0  0  0  0  0  0  0  0  0  0  0  0
   24.4556  -20.4656  -13.1017 C   0  0  0  0  0  0  0  0  0  0  0  0
   23.7022  -20.3250  -11.9581 O   0  0  0  0  0  0  0  0  0  0  0  0
  2  1  1  0
  3  2  1  0
  4  3  1  0
  5  4  1  0
  5  7  1  0
  5  6  1  6
  7  8  2  0
  9 10  1  0
 10 11  2  0
 10 12  1  0
 12 13  1  0
 14 13  1  0
 14 15  1  0
 16 15  1  6
 17  7  1  0
 17 16  1  0
 18 16  1  0
 18 27  1  0
 19 18  2  0
 20 21  1  0
 21 31  2  0
 22 23  2  0
 22 21  1  0
 23 24  1  0
 24 25  1  0
 24 30  2  0
 26 28  1  0
 26 27  1  0
 26 25  1  1
 28 32  1  0
 29 28  2  0
 31 30  1  0
M  END
$$$$
