MRY.pdb
     RDKit          3D

 32 32  0  0  1  0  0  0  0  0999 V2000
   22.2065  -20.1112   -8.6138 C   0  0  0  0  0  0  0  0  0  0  0  0
   23.7247  -20.4823   -7.6643 S   0  0  0  0  0  0  0  0  0  0  0  0
   25.0374  -20.7725   -8.8466 C   0  0  0  0  0  0  0  0  0  0  0  0
   24.7057  -20.2815  -10.2471 C   0  0  0  0  0  0  0  0  0  0  0  0
   25.8078  -20.8278  -11.1405 C   0  0  2  0  0  0  0  0  0  0  0  0
   27.0409  -20.2617  -10.5960 N   0  0  0  0  0  0  0  0  0  0  0  0
   25.6803  -20.4029  -12.5352 C   0  0  0  0  0  0  0  0  0  0  0  0
   25.9931  -19.2245  -12.8302 O   0  0  0  0  0  0  0  0  0  0  0  0
   29.3937  -23.7301  -18.7587 N   0  0  0  0  0  0  0  0  0  0  0  0
   28.7881  -24.1341  -17.5274 C   0  0  0  0  0  0  0  0  0  0  0  0
   28.7966  -25.3782  -17.1355 N   0  0  0  0  0  0  0  0  0  0  0  0
   28.1433  -23.2297  -16.6528 N   0  0  0  0  0  0  0  0  0  0  0  0
   28.1304  -21.8195  -16.8901 C   0  0  0  0  0  0  0  0  0  0  0  0
   27.3748  -21.0357  -15.8722 C   0  0  0  0  0  0  0  0  0  0  0  0
   25.9354  -21.4272  -15.8898 C   0  0  0  0  0  0  0  0  0  0  0  0
   25.0734  -20.6688  -14.9256 C   0  0  2  0  0  0  0  0  0  0  0  0
   25.2228  -21.2427  -13.5839 N   0  0  0  0  0  0  0  0  0  0  0  0
   23.6583  -20.6919  -15.3392 C   0  0  0  0  0  0  0  0  0  0  0  0
   22.8648  -21.5440  -14.8804 O   0  0  0  0  0  0  0  0  0  0  0  0
   28.3142  -25.5769  -16.2321 O   0  0  0  0  0  0  0  0  0  0  0  0
   17.4264  -15.2825  -13.7652 C   0  0  0  0  0  0  0  0  0  0  0  0
   18.6029  -15.9945  -14.0163 C   0  0  0  0  0  0  0  0  0  0  0  0
   19.5069  -15.4904  -14.9230 C   0  0  0  0  0  0  0  0  0  0  0  0
   20.6568  -16.1976  -15.1602 C   0  0  0  0  0  0  0  0  0  0  0  0
   20.9232  -17.3952  -14.5129 C   0  0  0  0  0  0  0  0  0  0  0  0
   22.1806  -18.1442  -14.7834 C   0  0  1  0  0  0  0  0  0  0  0  0
   21.9535  -19.0118  -16.0249 N   0  0  0  0  0  0  0  0  0  0  0  0
   23.1977  -19.7248  -16.2757 C   0  0  0  0  0  0  0  0  0  0  0  0
   21.6408  -18.1755  -17.1915 O   0  0  0  0  0  0  0  0  0  0  0  0
   22.5288  -17.4909  -17.7371 C   0  0  0  0  0  0  0  0  0  0  0  0
   20.0183  -17.8964  -13.6079 C   0  0  0  0  0  0  0  0  0  0  0  0
   18.8640  -17.1846  -13.3710 O   0  0  0  0  0  0  0  0  0  0  0  0
  2  1  1  0
  3  2  1  0
  4  3  1  0
  5  4  1  0
  5  7  1  0
  5  6  1  1
  7  8  2  0
  9 10  1  0
 10 11  2  0
 10 12  1  0
 12 13  1  0
 14 13  1  0
 14 15  1  0
 16 15  1  6
 17  7  1  0
 17 16  1  0
 18 16  1  0
 18 27  1  0
 19 18  2  0
 20 21  1  0
 21 31  2  0
 22 23  2  0
 22 21  1  0
 23 24  1  0
 24 25  1  0
 24 30  2  0
 26 28  1  0
 26 27  1  0
 26 25  1  1
 28 32  1  0
 29 28  2  0
 31 30  1  0
M  END
$$$$
