MRY.pdb
     RDKit          3D

 32 32  0  0  1  0  0  0  0  0999 V2000
   28.6580  -21.1539   -4.9694 C   0  0  0  0  0  0  0  0  0  0  0  0
   27.4371  -20.3379   -6.0591 S   0  0  0  0  0  0  0  0  0  0  0  0
   27.6578  -21.0070   -7.7049 C   0  0  0  0  0  0  0  0  0  0  0  0
   26.7748  -20.3414   -8.7489 C   0  0  0  0  0  0  0  0  0  0  0  0
   26.9751  -21.1463  -10.0229 C   0  0  2  0  0  0  0  0  0  0  0  0
   28.3849  -20.9588  -10.3620 N   0  0  0  0  0  0  0  0  0  0  0  0
   26.1626  -20.6643  -11.1407 C   0  0  0  0  0  0  0  0  0  0  0  0
   26.2773  -19.4641  -11.4870 O   0  0  0  0  0  0  0  0  0  0  0  0
   28.1414  -24.3701  -15.2711 N   0  0  0  0  0  0  0  0  0  0  0  0
   26.9508  -25.0392  -15.6963 C   0  0  0  0  0  0  0  0  0  0  0  0
   26.8845  -26.3399  -15.7689 N   0  0  0  0  0  0  0  0  0  0  0  0
   25.7711  -24.3528  -16.0650 N   0  0  0  0  0  0  0  0  0  0  0  0
   25.5774  -22.9649  -15.7802 C   0  0  0  0  0  0  0  0  0  0  0  0
   25.0843  -22.6873  -14.4014 C   0  0  0  0  0  0  0  0  0  0  0  0
   24.8234  -21.2279  -14.2352 C   0  0  0  0  0  0  0  0  0  0  0  0
   24.3814  -20.8284  -12.8594 C   0  0  2  0  0  0  0  0  0  0  0  0
   25.2465  -21.4714  -11.8644 N   0  0  0  0  0  0  0  0  0  0  0  0
   22.9714  -21.1892  -12.6234 C   0  0  0  0  0  0  0  0  0  0  0  0
   22.6456  -22.3593  -12.3220 O   0  0  0  0  0  0  0  0  0  0  0  0
   25.9723  -26.7349  -16.0853 O   0  0  0  0  0  0  0  0  0  0  0  0
   14.4934  -20.2717  -10.9203 C   0  0  0  0  0  0  0  0  0  0  0  0
   15.8162  -19.9952  -11.2779 C   0  0  0  0  0  0  0  0  0  0  0  0
   16.7718  -19.9188  -10.2907 C   0  0  0  0  0  0  0  0  0  0  0  0
   18.0653  -19.6475  -10.6541 C   0  0  0  0  0  0  0  0  0  0  0  0
   18.4248  -19.4512  -11.9794 C   0  0  0  0  0  0  0  0  0  0  0  0
   19.8366  -19.1616  -12.3511 C   0  0  2  0  0  0  0  0  0  0  0  0
   20.5904  -20.4936  -12.4088 N   0  0  0  0  0  0  0  0  0  0  0  0
   21.9728  -20.1828  -12.7429 C   0  0  0  0  0  0  0  0  0  0  0  0
   20.0314  -21.3606  -13.4547 O   0  0  0  0  0  0  0  0  0  0  0  0
   20.3716  -21.2173  -14.6459 C   0  0  0  0  0  0  0  0  0  0  0  0
   17.4680  -19.5279  -12.9633 C   0  0  0  0  0  0  0  0  0  0  0  0
   16.1695  -19.8005  -12.5963 O   0  0  0  0  0  0  0  0  0  0  0  0
  2  1  1  0
  3  2  1  0
  4  3  1  0
  5  4  1  0
  5  7  1  0
  5  6  1  6
  7  8  2  0
  9 10  1  0
 10 11  2  0
 10 12  1  0
 12 13  1  0
 14 13  1  0
 14 15  1  0
 16 15  1  6
 17  7  1  0
 17 16  1  0
 18 16  1  0
 18 27  1  0
 19 18  2  0
 20 21  1  0
 21 31  2  0
 22 23  2  0
 22 21  1  0
 23 24  1  0
 24 25  1  0
 24 30  2  0
 26 28  1  0
 26 27  1  0
 26 25  1  1
 28 32  1  0
 29 28  2  0
 31 30  1  0
M  END
$$$$
