MRY.pdb
     RDKit          3D

 32 32  0  0  1  0  0  0  0  0999 V2000
   25.0163  -30.0288  -21.2101 C   0  0  0  0  0  0  0  0  0  0  0  0
   26.5865  -30.9660  -21.2141 S   0  0  0  0  0  0  0  0  0  0  0  0
   27.0224  -31.2866  -19.5076 C   0  0  0  0  0  0  0  0  0  0  0  0
   26.5924  -30.1792  -18.5581 C   0  0  0  0  0  0  0  0  0  0  0  0
   27.8711  -29.6945  -17.8939 C   0  0  2  0  0  0  0  0  0  0  0  0
   28.2680  -30.7898  -17.0104 N   0  0  0  0  0  0  0  0  0  0  0  0
   27.6768  -28.4926  -17.0819 C   0  0  0  0  0  0  0  0  0  0  0  0
   27.3640  -28.6327  -15.8752 O   0  0  0  0  0  0  0  0  0  0  0  0
   32.7529  -25.1480  -14.7084 N   0  0  0  0  0  0  0  0  0  0  0  0
   33.0910  -25.1229  -16.0981 C   0  0  0  0  0  0  0  0  0  0  0  0
   34.1802  -25.6816  -16.5485 N   0  0  0  0  0  0  0  0  0  0  0  0
   32.2825  -24.5001  -17.0765 N   0  0  0  0  0  0  0  0  0  0  0  0
   30.9513  -24.0594  -16.7960 C   0  0  0  0  0  0  0  0  0  0  0  0
   30.0338  -25.1408  -16.3377 C   0  0  0  0  0  0  0  0  0  0  0  0
   28.7002  -24.9909  -16.9892 C   0  0  0  0  0  0  0  0  0  0  0  0
   27.7080  -26.0545  -16.6258 C   0  0  2  0  0  0  0  0  0  0  0  0
   27.8201  -27.1689  -17.5733 N   0  0  0  0  0  0  0  0  0  0  0  0
   26.3323  -25.5239  -16.6179 C   0  0  0  0  0  0  0  0  0  0  0  0
   25.7190  -25.3024  -17.6860 O   0  0  0  0  0  0  0  0  0  0  0  0
   34.3168  -25.6507  -17.5822 O   0  0  0  0  0  0  0  0  0  0  0  0
   18.7870  -22.3334  -13.6710 C   0  0  0  0  0  0  0  0  0  0  0  0
   20.0544  -22.9210  -13.7220 C   0  0  0  0  0  0  0  0  0  0  0  0
   20.1577  -24.2577  -14.0316 C   0  0  0  0  0  0  0  0  0  0  0  0
   21.4059  -24.8221  -14.0789 C   0  0  0  0  0  0  0  0  0  0  0  0
   22.5511  -24.0821  -13.8242 C   0  0  0  0  0  0  0  0  0  0  0  0
   23.8968  -24.7152  -13.8851 C   0  0  1  0  0  0  0  0  0  0  0  0
   24.3661  -24.6830  -15.3426 N   0  0  0  0  0  0  0  0  0  0  0  0
   25.7010  -25.2633  -15.3697 C   0  0  0  0  0  0  0  0  0  0  0  0
   24.4383  -23.3003  -15.8335 O   0  0  0  0  0  0  0  0  0  0  0  0
   25.4259  -22.5853  -15.5719 C   0  0  0  0  0  0  0  0  0  0  0  0
   22.4448  -22.7470  -13.5150 C   0  0  0  0  0  0  0  0  0  0  0  0
   21.1903  -22.1820  -13.4681 O   0  0  0  0  0  0  0  0  0  0  0  0
  2  1  1  0
  3  2  1  0
  4  3  1  0
  5  4  1  0
  5  7  1  0
  5  6  1  1
  7  8  2  0
  9 10  1  0
 10 11  2  0
 10 12  1  0
 12 13  1  0
 14 13  1  0
 14 15  1  0
 16 15  1  6
 17  7  1  0
 17 16  1  0
 18 16  1  0
 18 27  1  0
 19 18  2  0
 20 21  1  0
 21 31  2  0
 22 23  2  0
 22 21  1  0
 23 24  1  0
 24 25  1  0
 24 30  2  0
 26 28  1  0
 26 27  1  0
 26 25  1  6
 28 32  1  0
 29 28  2  0
 31 30  1  0
M  END
$$$$
