MRY.pdb
     RDKit          3D

 32 32  0  0  1  0  0  0  0  0999 V2000
   27.3243  -17.9153   -5.7597 C   0  0  0  0  0  0  0  0  0  0  0  0
   28.5469  -19.2635   -5.9382 S   0  0  0  0  0  0  0  0  0  0  0  0
   27.8830  -20.4348   -7.1182 C   0  0  0  0  0  0  0  0  0  0  0  0
   27.0141  -19.7876   -8.1854 C   0  0  0  0  0  0  0  0  0  0  0  0
   26.5123  -20.9328   -9.0499 C   0  0  2  0  0  0  0  0  0  0  0  0
   27.7214  -21.5223   -9.6226 N   0  0  0  0  0  0  0  0  0  0  0  0
   25.6498  -20.4899  -10.1463 C   0  0  0  0  0  0  0  0  0  0  0  0
   25.1006  -19.3657  -10.0556 O   0  0  0  0  0  0  0  0  0  0  0  0
   28.1253  -21.9808  -17.7376 N   0  0  0  0  0  0  0  0  0  0  0  0
   27.6520  -22.7517  -16.6295 C   0  0  0  0  0  0  0  0  0  0  0  0
   27.6170  -24.0551  -16.6667 N   0  0  0  0  0  0  0  0  0  0  0  0
   27.1928  -22.1692  -15.4260 N   0  0  0  0  0  0  0  0  0  0  0  0
   27.2105  -20.7558  -15.2091 C   0  0  0  0  0  0  0  0  0  0  0  0
   26.6295  -20.3307  -13.9041 C   0  0  0  0  0  0  0  0  0  0  0  0
   25.2877  -20.9543  -13.7138 C   0  0  0  0  0  0  0  0  0  0  0  0
   24.6327  -20.6319  -12.4043 C   0  0  2  0  0  0  0  0  0  0  0  0
   25.3921  -21.2540  -11.3142 N   0  0  0  0  0  0  0  0  0  0  0  0
   23.2310  -21.0886  -12.3792 C   0  0  0  0  0  0  0  0  0  0  0  0
   22.9363  -22.2503  -12.0193 O   0  0  0  0  0  0  0  0  0  0  0  0
   27.2014  -24.5258  -15.8336 O   0  0  0  0  0  0  0  0  0  0  0  0
   21.2472  -17.2163  -17.9949 C   0  0  0  0  0  0  0  0  0  0  0  0
   20.9292  -17.7437  -16.7399 C   0  0  0  0  0  0  0  0  0  0  0  0
   19.9251  -18.6797  -16.6448 C   0  0  0  0  0  0  0  0  0  0  0  0
   19.6231  -19.1896  -15.4089 C   0  0  0  0  0  0  0  0  0  0  0  0
   20.3006  -18.7859  -14.2678 C   0  0  0  0  0  0  0  0  0  0  0  0
   19.9582  -19.3562  -12.9364 C   0  0  1  0  0  0  0  0  0  0  0  0
   20.8126  -20.6101  -12.7280 N   0  0  0  0  0  0  0  0  0  0  0  0
   22.2043  -20.1854  -12.7726 C   0  0  0  0  0  0  0  0  0  0  0  0
   20.5771  -21.5824  -13.8038 O   0  0  0  0  0  0  0  0  0  0  0  0
   19.4854  -22.1784  -13.8921 C   0  0  0  0  0  0  0  0  0  0  0  0
   21.3031  -17.8506  -14.3658 C   0  0  0  0  0  0  0  0  0  0  0  0
   21.6050  -17.3398  -15.6081 O   0  0  0  0  0  0  0  0  0  0  0  0
  2  1  1  0
  3  2  1  0
  4  3  1  0
  5  4  1  0
  5  7  1  0
  5  6  1  6
  7  8  2  0
  9 10  1  0
 10 11  2  0
 10 12  1  0
 12 13  1  0
 14 13  1  0
 14 15  1  0
 16 15  1  6
 17  7  1  0
 17 16  1  0
 18 16  1  0
 18 27  1  0
 19 18  2  0
 20 21  1  0
 21 31  2  0
 22 23  2  0
 22 21  1  0
 23 24  1  0
 24 25  1  0
 24 30  2  0
 26 28  1  0
 26 27  1  0
 26 25  1  1
 28 32  1  0
 29 28  2  0
 31 30  1  0
M  END
$$$$
