MRY.pdb
     RDKit          3D

 32 32  0  0  1  0  0  0  0  0999 V2000
   22.3139  -31.4939  -17.2606 C   0  0  0  0  0  0  0  0  0  0  0  0
   24.0134  -31.1861  -17.8615 S   0  0  0  0  0  0  0  0  0  0  0  0
   24.2188  -29.4131  -18.0000 C   0  0  0  0  0  0  0  0  0  0  0  0
   23.4225  -28.6321  -16.9661 C   0  0  0  0  0  0  0  0  0  0  0  0
   23.0682  -27.3148  -17.6369 C   0  0  2  0  0  0  0  0  0  0  0  0
   24.3324  -26.5838  -17.7090 N   0  0  0  0  0  0  0  0  0  0  0  0
   22.1152  -26.5155  -16.8657 C   0  0  0  0  0  0  0  0  0  0  0  0
   22.4085  -26.2149  -15.6836 O   0  0  0  0  0  0  0  0  0  0  0  0
   21.6674  -22.9849  -20.9026 N   0  0  0  0  0  0  0  0  0  0  0  0
   20.3786  -23.1867  -21.4893 C   0  0  0  0  0  0  0  0  0  0  0  0
   20.2426  -23.6104  -22.7154 N   0  0  0  0  0  0  0  0  0  0  0  0
   19.1703  -22.9464  -20.7957 N   0  0  0  0  0  0  0  0  0  0  0  0
   19.1026  -22.9305  -19.3674 C   0  0  0  0  0  0  0  0  0  0  0  0
   19.7223  -24.1177  -18.7133 C   0  0  0  0  0  0  0  0  0  0  0  0
   19.5011  -24.0635  -17.2390 C   0  0  0  0  0  0  0  0  0  0  0  0
   20.0101  -25.2583  -16.4899 C   0  0  2  0  0  0  0  0  0  0  0  0
   20.8717  -26.0543  -17.3708 N   0  0  0  0  0  0  0  0  0  0  0  0
   18.9000  -26.0819  -15.9765 C   0  0  0  0  0  0  0  0  0  0  0  0
   18.5272  -27.1126  -16.5804 O   0  0  0  0  0  0  0  0  0  0  0  0
   19.2626  -23.7198  -23.0559 O   0  0  0  0  0  0  0  0  0  0  0  0
   12.2997  -28.7357  -10.9439 C   0  0  0  0  0  0  0  0  0  0  0  0
   13.4023  -28.0284  -11.4320 C   0  0  0  0  0  0  0  0  0  0  0  0
   13.1884  -26.9211  -12.2204 C   0  0  0  0  0  0  0  0  0  0  0  0
   14.2776  -26.2357  -12.6924 C   0  0  0  0  0  0  0  0  0  0  0  0
   15.5733  -26.6313  -12.3949 C   0  0  0  0  0  0  0  0  0  0  0  0
   16.7412  -25.8694  -12.9154 C   0  0  1  0  0  0  0  0  0  0  0  0
   17.1353  -26.4767  -14.2651 N   0  0  0  0  0  0  0  0  0  0  0  0
   18.2491  -25.6894  -14.7737 C   0  0  0  0  0  0  0  0  0  0  0  0
   16.0194  -26.3929  -15.2168 O   0  0  0  0  0  0  0  0  0  0  0  0
   15.8102  -25.3438  -15.8578 C   0  0  0  0  0  0  0  0  0  0  0  0
   15.7839  -27.7379  -11.6073 C   0  0  0  0  0  0  0  0  0  0  0  0
   14.6887  -28.4248  -11.1341 O   0  0  0  0  0  0  0  0  0  0  0  0
  2  1  1  0
  3  2  1  0
  4  3  1  0
  5  4  1  0
  5  7  1  0
  5  6  1  1
  7  8  2  0
  9 10  1  0
 10 11  2  0
 10 12  1  0
 12 13  1  0
 14 13  1  0
 14 15  1  0
 16 15  1  6
 17  7  1  0
 17 16  1  0
 18 16  1  0
 18 27  1  0
 19 18  2  0
 20 21  1  0
 21 31  2  0
 22 23  2  0
 22 21  1  0
 23 24  1  0
 24 25  1  0
 24 30  2  0
 26 28  1  0
 26 27  1  0
 26 25  1  1
 28 32  1  0
 29 28  2  0
 31 30  1  0
M  END
$$$$
