CDA.pdb
     RDKit          3D

 20 19  0  0  1  0  0  0  0  0999 V2000
    9.6138  -14.5308   19.6426 N   0  0  0  0  0  0  0  0  0  0  0  0
    8.4402  -13.8070   20.0987 C   0  0  1  0  0  0  0  0  0  0  0  0
    7.3985  -13.8549   19.0163 C   0  0  0  0  0  0  0  0  0  0  0  0
    8.0100  -12.9543   17.5675 S   0  0  0  0  0  0  0  0  0  0  0  0
    7.8945  -14.3741   21.3466 C   0  0  0  0  0  0  0  0  0  0  0  0
    6.7635  -14.0404   21.7662 O   0  0  0  0  0  0  0  0  0  0  0  0
    8.6801  -15.3095   22.0653 N   0  0  0  0  0  0  0  0  0  0  0  0
    8.2594  -15.8428   23.3434 C   0  0  1  0  0  0  0  0  0  0  0  0
    8.9495  -17.1088   23.7313 C   0  0  0  0  0  0  0  0  0  0  0  0
   10.3550  -17.1612   23.3136 C   0  0  0  0  0  0  0  0  0  0  0  0
   11.2719  -17.0136   24.1824 O   0  0  0  0  0  0  0  0  0  0  0  0
    8.5940  -14.8160   24.3943 C   0  0  0  0  0  0  0  0  0  0  0  0
    9.7488  -14.3287   24.5027 O   0  0  0  0  0  0  0  0  0  0  0  0
   10.7688  -17.3634   22.0182 O   0  0  0  0  0  0  0  0  0  0  0  0
    6.5137  -12.6665   26.6098 C   0  0  0  0  0  0  0  0  0  0  0  0
    7.8444  -13.3145   26.2854 C   0  0  2  0  0  0  0  0  0  0  0  0
    7.6059  -14.3573   25.3094 N   0  0  0  0  0  0  0  0  0  0  0  0
    8.3970  -13.8589   27.5492 C   0  0  0  0  0  0  0  0  0  0  0  0
    8.3651  -15.1042   27.7019 O   0  0  0  0  0  0  0  0  0  0  0  0
    8.9360  -13.0633   28.5476 O   0  0  0  0  0  0  0  0  0  0  0  0
  2  5  1  0
  2  1  1  6
  3  2  1  0
  4  3  1  0
  5  6  2  0
  7  8  1  0
  7  5  1  0
  8  9  1  1
  9 10  1  0
 10 14  1  0
 11 10  2  0
 12 13  2  0
 12  8  1  0
 16 15  1  1
 16 18  1  0
 16 17  1  0
 17 12  1  0
 18 20  1  0
 19 18  2  0
M  END
$$$$
