CDA.pdb
     RDKit          3D

 20 19  0  0  1  0  0  0  0  0999 V2000
    7.9491  -14.6341   16.0615 N   0  0  0  0  0  0  0  0  0  0  0  0
    9.0395  -14.3107   16.9648 C   0  0  1  0  0  0  0  0  0  0  0  0
    8.7684  -12.9661   17.5791 C   0  0  0  0  0  0  0  0  0  0  0  0
    7.2959  -13.0819   18.6289 S   0  0  0  0  0  0  0  0  0  0  0  0
    9.1953  -15.3251   18.0246 C   0  0  0  0  0  0  0  0  0  0  0  0
    8.3153  -16.1933   18.2208 O   0  0  0  0  0  0  0  0  0  0  0  0
   10.3673  -15.2975   18.8211 N   0  0  0  0  0  0  0  0  0  0  0  0
   10.5947  -16.2530   19.8843 C   0  0  1  0  0  0  0  0  0  0  0  0
   11.9473  -16.8845   19.8557 C   0  0  0  0  0  0  0  0  0  0  0  0
   12.1360  -17.9114   20.8865 C   0  0  0  0  0  0  0  0  0  0  0  0
   13.2942  -18.1013   21.3761 O   0  0  0  0  0  0  0  0  0  0  0  0
   10.4795  -15.5115   21.1911 C   0  0  0  0  0  0  0  0  0  0  0  0
   11.3484  -14.6806   21.5620 O   0  0  0  0  0  0  0  0  0  0  0  0
   11.1282  -18.7071   21.3778 O   0  0  0  0  0  0  0  0  0  0  0  0
    7.8072  -14.5838   23.4674 C   0  0  0  0  0  0  0  0  0  0  0  0
    9.2330  -15.0830   23.3487 C   0  0  2  0  0  0  0  0  0  0  0  0
    9.3734  -15.7274   22.0595 N   0  0  0  0  0  0  0  0  0  0  0  0
    9.4704  -16.0287   24.4659 C   0  0  0  0  0  0  0  0  0  0  0  0
    9.3857  -15.5739   25.6326 O   0  0  0  0  0  0  0  0  0  0  0  0
    9.7759  -17.3670   24.2765 O   0  0  0  0  0  0  0  0  0  0  0  0
  2  5  1  0
  2  1  1  6
  3  2  1  0
  4  3  1  0
  5  6  2  0
  7  8  1  0
  7  5  1  0
  8  9  1  6
  9 10  1  0
 10 14  1  0
 11 10  2  0
 12 13  2  0
 12  8  1  0
 16 15  1  1
 16 18  1  0
 16 17  1  0
 17 12  1  0
 18 20  1  0
 19 18  2  0
M  END
$$$$
