CDA.pdb
     RDKit          3D

 20 19  0  0  1  0  0  0  0  0999 V2000
   -2.8709  -21.2676   22.1810 N   0  0  0  0  0  0  0  0  0  0  0  0
   -3.3708  -21.0293   23.5236 C   0  0  1  0  0  0  0  0  0  0  0  0
   -3.8236  -19.5993   23.6182 C   0  0  0  0  0  0  0  0  0  0  0  0
   -2.4157  -18.5099   23.2790 S   0  0  0  0  0  0  0  0  0  0  0  0
   -4.4860  -21.9330   23.8640 C   0  0  0  0  0  0  0  0  0  0  0  0
   -4.9877  -22.6909   23.0034 O   0  0  0  0  0  0  0  0  0  0  0  0
   -4.9814  -21.9267   25.1919 N   0  0  0  0  0  0  0  0  0  0  0  0
   -5.9118  -22.9279   25.6681 C   0  0  1  0  0  0  0  0  0  0  0  0
   -5.3740  -24.3205   25.6400 C   0  0  0  0  0  0  0  0  0  0  0  0
   -6.3491  -25.3334   26.0594 C   0  0  0  0  0  0  0  0  0  0  0  0
   -7.4999  -25.3559   25.5188 O   0  0  0  0  0  0  0  0  0  0  0  0
   -6.2283  -22.6042   27.1054 C   0  0  0  0  0  0  0  0  0  0  0  0
   -5.3231  -22.4145   27.9583 O   0  0  0  0  0  0  0  0  0  0  0  0
   -6.1074  -26.2874   27.0195 O   0  0  0  0  0  0  0  0  0  0  0  0
   -9.4405  -21.9050   28.9337 C   0  0  0  0  0  0  0  0  0  0  0  0
   -7.9417  -22.1256   28.9021 C   0  0  2  0  0  0  0  0  0  0  0  0
   -7.5751  -22.5008   27.5523 N   0  0  0  0  0  0  0  0  0  0  0  0
   -7.6265  -23.1978   29.8767 C   0  0  0  0  0  0  0  0  0  0  0  0
   -7.3996  -24.3438   29.4180 O   0  0  0  0  0  0  0  0  0  0  0  0
   -7.5736  -22.9887   31.2455 O   0  0  0  0  0  0  0  0  0  0  0  0
  2  5  1  0
  2  1  1  6
  3  2  1  0
  4  3  1  0
  5  6  2  0
  7  8  1  0
  7  5  1  0
  8  9  1  1
  9 10  1  0
 10 14  1  0
 11 10  2  0
 12 13  2  0
 12  8  1  0
 16 15  1  6
 16 18  1  0
 16 17  1  0
 17 12  1  0
 18 20  1  0
 19 18  2  0
M  END
$$$$
