CDA.pdb
     RDKit          3D

 20 19  0  0  1  0  0  0  0  0999 V2000
    7.5417  -18.8718   13.3571 N   0  0  0  0  0  0  0  0  0  0  0  0
    8.5755  -18.1270   14.0542 C   0  0  1  0  0  0  0  0  0  0  0  0
    7.9157  -17.1826   15.0194 C   0  0  0  0  0  0  0  0  0  0  0  0
    6.9274  -18.1389   16.1996 S   0  0  0  0  0  0  0  0  0  0  0  0
    9.5027  -19.0179   14.7774 C   0  0  0  0  0  0  0  0  0  0  0  0
    9.1702  -20.1860   15.0804 O   0  0  0  0  0  0  0  0  0  0  0  0
   10.7846  -18.5231   15.1246 N   0  0  0  0  0  0  0  0  0  0  0  0
   11.7439  -19.3239   15.8549 C   0  0  1  0  0  0  0  0  0  0  0  0
   13.1681  -18.9975   15.5479 C   0  0  0  0  0  0  0  0  0  0  0  0
   13.5796  -19.3872   14.1946 C   0  0  0  0  0  0  0  0  0  0  0  0
   13.0429  -20.4005   13.6448 O   0  0  0  0  0  0  0  0  0  0  0  0
   11.5340  -19.0542   17.3226 C   0  0  0  0  0  0  0  0  0  0  0  0
   11.5412  -17.8865   17.7910 O   0  0  0  0  0  0  0  0  0  0  0  0
   14.5280  -18.7222   13.4540 O   0  0  0  0  0  0  0  0  0  0  0  0
   10.3675  -21.2036   20.1536 C   0  0  0  0  0  0  0  0  0  0  0  0
   10.9832  -19.9206   19.6331 C   0  0  2  0  0  0  0  0  0  0  0  0
   11.3185  -20.1212   18.2387 N   0  0  0  0  0  0  0  0  0  0  0  0
   12.1854  -19.6363   20.4533 C   0  0  0  0  0  0  0  0  0  0  0  0
   13.3048  -19.8089   19.9127 O   0  0  0  0  0  0  0  0  0  0  0  0
   12.1230  -19.1967   21.7660 O   0  0  0  0  0  0  0  0  0  0  0  0
  2  5  1  0
  2  1  1  1
  3  2  1  0
  4  3  1  0
  5  6  2  0
  7  8  1  0
  7  5  1  0
  8  9  1  6
  9 10  1  0
 10 14  1  0
 11 10  2  0
 12 13  2  0
 12  8  1  0
 16 15  1  1
 16 18  1  0
 16 17  1  0
 17 12  1  0
 18 20  1  0
 19 18  2  0
M  END
$$$$
