CDA.pdb
     RDKit          3D

 20 19  0  0  1  0  0  0  0  0999 V2000
    7.0182  -16.1581   20.6762 N   0  0  0  0  0  0  0  0  0  0  0  0
    7.8073  -15.2725   21.5144 C   0  0  1  0  0  0  0  0  0  0  0  0
    6.9342  -14.1339   21.9615 C   0  0  0  0  0  0  0  0  0  0  0  0
    7.9378  -12.9530   22.9007 S   0  0  0  0  0  0  0  0  0  0  0  0
    8.3592  -15.9738   22.6891 C   0  0  0  0  0  0  0  0  0  0  0  0
    7.6167  -16.6203   23.4620 O   0  0  0  0  0  0  0  0  0  0  0  0
    9.7545  -15.9010   22.9272 N   0  0  0  0  0  0  0  0  0  0  0  0
   10.3719  -16.5400   24.0698 C   0  0  1  0  0  0  0  0  0  0  0  0
   11.7307  -17.0948   23.7960 C   0  0  0  0  0  0  0  0  0  0  0  0
   11.7264  -18.2121   22.8451 C   0  0  0  0  0  0  0  0  0  0  0  0
   10.8353  -19.1140   22.9434 O   0  0  0  0  0  0  0  0  0  0  0  0
   10.5285  -15.4939   25.1431 C   0  0  0  0  0  0  0  0  0  0  0  0
   11.2449  -14.4732   24.9763 O   0  0  0  0  0  0  0  0  0  0  0  0
   12.6378  -18.3635   21.8270 O   0  0  0  0  0  0  0  0  0  0  0  0
    8.8470  -13.9664   27.7926 C   0  0  0  0  0  0  0  0  0  0  0  0
   10.1130  -14.7548   27.5251 C   0  0  2  0  0  0  0  0  0  0  0  0
    9.8652  -15.6256   26.3949 N   0  0  0  0  0  0  0  0  0  0  0  0
   10.4296  -15.5231   28.7533 C   0  0  0  0  0  0  0  0  0  0  0  0
   10.2869  -16.7691   28.7054 O   0  0  0  0  0  0  0  0  0  0  0  0
   10.8676  -14.9318   29.9275 O   0  0  0  0  0  0  0  0  0  0  0  0
  2  5  1  0
  2  1  1  1
  3  2  1  0
  4  3  1  0
  5  6  2  0
  7  8  1  0
  7  5  1  0
  8  9  1  6
  9 10  1  0
 10 14  1  0
 11 10  2  0
 12 13  2  0
 12  8  1  0
 16 15  1  1
 16 18  1  0
 16 17  1  0
 17 12  1  0
 18 20  1  0
 19 18  2  0
M  END
$$$$
