CDA.pdb
     RDKit          3D

 20 19  0  0  1  0  0  0  0  0999 V2000
    8.8699  -15.2946   20.3396 N   0  0  0  0  0  0  0  0  0  0  0  0
    8.3301  -14.1580   21.0651 C   0  0  1  0  0  0  0  0  0  0  0  0
    7.1907  -13.5822   20.2720 C   0  0  0  0  0  0  0  0  0  0  0  0
    7.8181  -12.9967   18.6759 S   0  0  0  0  0  0  0  0  0  0  0  0
    7.8637  -14.5366   22.4125 C   0  0  0  0  0  0  0  0  0  0  0  0
    7.1193  -13.7783   23.0740 O   0  0  0  0  0  0  0  0  0  0  0  0
    8.2770  -15.7826   22.9468 N   0  0  0  0  0  0  0  0  0  0  0  0
    7.9352  -16.1913   24.2925 C   0  0  1  0  0  0  0  0  0  0  0  0
    7.9827  -17.6676   24.5105 C   0  0  0  0  0  0  0  0  0  0  0  0
    6.9112  -18.3960   23.8220 C   0  0  0  0  0  0  0  0  0  0  0  0
    6.7515  -18.2384   22.5703 O   0  0  0  0  0  0  0  0  0  0  0  0
    8.9461  -15.5733   25.2235 C   0  0  0  0  0  0  0  0  0  0  0  0
   10.1838  -15.6739   25.0213 O   0  0  0  0  0  0  0  0  0  0  0  0
    6.0417  -19.2606   24.4438 O   0  0  0  0  0  0  0  0  0  0  0  0
    8.7734  -13.1134   28.0114 C   0  0  0  0  0  0  0  0  0  0  0  0
    9.4549  -14.2891   27.3412 C   0  0  2  0  0  0  0  0  0  0  0  0
    8.5321  -14.8474   26.3750 N   0  0  0  0  0  0  0  0  0  0  0  0
    9.8028  -15.2676   28.3998 C   0  0  0  0  0  0  0  0  0  0  0  0
   10.5691  -14.8779   29.3142 O   0  0  0  0  0  0  0  0  0  0  0  0
    9.3251  -16.5682   28.4188 O   0  0  0  0  0  0  0  0  0  0  0  0
  2  5  1  0
  2  1  1  6
  3  2  1  0
  4  3  1  0
  5  6  2  0
  7  8  1  0
  7  5  1  0
  8  9  1  6
  9 10  1  0
 10 14  1  0
 11 10  2  0
 12 13  2  0
 12  8  1  0
 16 15  1  1
 16 18  1  0
 16 17  1  0
 17 12  1  0
 18 20  1  0
 19 18  2  0
M  END
$$$$
