CDA.pdb
     RDKit          3D

 20 19  0  0  1  0  0  0  0  0999 V2000
   -5.0580  -20.6146   22.4515 N   0  0  0  0  0  0  0  0  0  0  0  0
   -4.6672  -20.9698   23.8045 C   0  0  1  0  0  0  0  0  0  0  0  0
   -4.2293  -19.7219   24.5186 C   0  0  0  0  0  0  0  0  0  0  0  0
   -2.6818  -19.1322   23.7830 S   0  0  0  0  0  0  0  0  0  0  0  0
   -5.7698  -21.6118   24.5450 C   0  0  0  0  0  0  0  0  0  0  0  0
   -6.9309  -21.1461   24.5048 O   0  0  0  0  0  0  0  0  0  0  0  0
   -5.4876  -22.7729   25.3072 N   0  0  0  0  0  0  0  0  0  0  0  0
   -6.5324  -23.5408   25.9504 C   0  0  1  0  0  0  0  0  0  0  0  0
   -6.4237  -25.0144   25.7367 C   0  0  0  0  0  0  0  0  0  0  0  0
   -7.4904  -25.7812   26.3900 C   0  0  0  0  0  0  0  0  0  0  0  0
   -8.7034  -25.4442   26.2104 O   0  0  0  0  0  0  0  0  0  0  0  0
   -6.4236  -23.2990   27.4338 C   0  0  0  0  0  0  0  0  0  0  0  0
   -5.3166  -23.3239   28.0313 O   0  0  0  0  0  0  0  0  0  0  0  0
   -7.2732  -26.8670   27.2049 O   0  0  0  0  0  0  0  0  0  0  0  0
   -8.6241  -21.7082   29.9215 C   0  0  0  0  0  0  0  0  0  0  0  0
   -7.5315  -22.7171   29.6307 C   0  0  2  0  0  0  0  0  0  0  0  0
   -7.5801  -23.0316   28.2180 N   0  0  0  0  0  0  0  0  0  0  0  0
   -7.7907  -23.9117   30.4702 C   0  0  0  0  0  0  0  0  0  0  0  0
   -8.2062  -24.9439   29.8895 O   0  0  0  0  0  0  0  0  0  0  0  0
   -7.5961  -23.9330   31.8420 O   0  0  0  0  0  0  0  0  0  0  0  0
  2  5  1  0
  2  1  1  6
  3  2  1  0
  4  3  1  0
  5  6  2  0
  7  8  1  0
  7  5  1  0
  8  9  1  1
  9 10  1  0
 10 14  1  0
 11 10  2  0
 12 13  2  0
 12  8  1  0
 16 15  1  6
 16 18  1  0
 16 17  1  0
 17 12  1  0
 18 20  1  0
 19 18  2  0
M  END
$$$$
