CDA.pdb
     RDKit          3D

 20 19  0  0  1  0  0  0  0  0999 V2000
    7.4818  -13.9806   17.9460 N   0  0  0  0  0  0  0  0  0  0  0  0
    8.8205  -13.9499   18.5087 C   0  0  1  0  0  0  0  0  0  0  0  0
    9.0721  -12.5781   19.0688 C   0  0  0  0  0  0  0  0  0  0  0  0
    7.9065  -12.2691   20.4215 S   0  0  0  0  0  0  0  0  0  0  0  0
    8.9965  -14.9641   19.5655 C   0  0  0  0  0  0  0  0  0  0  0  0
    8.0107  -15.4451   20.1684 O   0  0  0  0  0  0  0  0  0  0  0  0
   10.3109  -15.3859   19.8868 N   0  0  0  0  0  0  0  0  0  0  0  0
   10.5635  -16.4789   20.8013 C   0  0  1  0  0  0  0  0  0  0  0  0
   11.9212  -17.0849   20.6649 C   0  0  0  0  0  0  0  0  0  0  0  0
   12.0753  -18.3472   21.3967 C   0  0  0  0  0  0  0  0  0  0  0  0
   11.1101  -18.7852   22.0992 O   0  0  0  0  0  0  0  0  0  0  0  0
   10.4619  -15.9302   22.2011 C   0  0  0  0  0  0  0  0  0  0  0  0
   11.3413  -15.1696   22.6817 O   0  0  0  0  0  0  0  0  0  0  0  0
   13.2158  -19.1149   21.3809 O   0  0  0  0  0  0  0  0  0  0  0  0
    7.6954  -15.6406   24.6493 C   0  0  0  0  0  0  0  0  0  0  0  0
    9.1827  -15.7265   24.3724 C   0  0  2  0  0  0  0  0  0  0  0  0
    9.3572  -16.2565   23.0362 N   0  0  0  0  0  0  0  0  0  0  0  0
    9.7785  -16.6148   25.3995 C   0  0  0  0  0  0  0  0  0  0  0  0
   10.1992  -17.7341   25.0181 O   0  0  0  0  0  0  0  0  0  0  0  0
    9.8868  -16.2652   26.7360 O   0  0  0  0  0  0  0  0  0  0  0  0
  2  5  1  0
  2  1  1  1
  3  2  1  0
  4  3  1  0
  5  6  2  0
  7  8  1  0
  7  5  1  0
  8  9  1  6
  9 10  1  0
 10 14  1  0
 11 10  2  0
 12 13  2  0
 12  8  1  0
 16 15  1  1
 16 18  1  0
 16 17  1  0
 17 12  1  0
 18 20  1  0
 19 18  2  0
M  END
$$$$
