CDA.pdb
     RDKit          3D

 20 19  0  0  1  0  0  0  0  0999 V2000
    7.0394  -15.5641   19.8513 N   0  0  0  0  0  0  0  0  0  0  0  0
    7.9016  -14.8261   20.7576 C   0  0  1  0  0  0  0  0  0  0  0  0
    7.2320  -13.5252   21.1011 C   0  0  0  0  0  0  0  0  0  0  0  0
    8.2814  -12.6082   22.2596 S   0  0  0  0  0  0  0  0  0  0  0  0
    8.1840  -15.5866   21.9898 C   0  0  0  0  0  0  0  0  0  0  0  0
    7.2693  -16.1768   22.6075 O   0  0  0  0  0  0  0  0  0  0  0  0
    9.5189  -15.6364   22.4637 N   0  0  0  0  0  0  0  0  0  0  0  0
    9.8834  -16.3762   23.6531 C   0  0  1  0  0  0  0  0  0  0  0  0
   11.0617  -17.2752   23.4731 C   0  0  0  0  0  0  0  0  0  0  0  0
   11.2203  -18.2560   24.5527 C   0  0  0  0  0  0  0  0  0  0  0  0
   10.3811  -18.2765   25.5079 O   0  0  0  0  0  0  0  0  0  0  0  0
   10.2502  -15.3724   24.7155 C   0  0  0  0  0  0  0  0  0  0  0  0
   11.3242  -14.7188   24.6691 O   0  0  0  0  0  0  0  0  0  0  0  0
   12.2356  -19.1811   24.6129 O   0  0  0  0  0  0  0  0  0  0  0  0
    8.5244  -13.3209   27.1379 C   0  0  0  0  0  0  0  0  0  0  0  0
    9.7156  -14.2283   26.9059 C   0  0  2  0  0  0  0  0  0  0  0  0
    9.3863  -15.1266   25.8188 N   0  0  0  0  0  0  0  0  0  0  0  0
    9.9716  -14.9624   28.1687 C   0  0  0  0  0  0  0  0  0  0  0  0
    9.7266  -16.1933   28.1784 O   0  0  0  0  0  0  0  0  0  0  0  0
   10.4604  -14.3555   29.3145 O   0  0  0  0  0  0  0  0  0  0  0  0
  2  5  1  0
  2  1  1  6
  3  2  1  0
  4  3  1  0
  5  6  2  0
  7  8  1  0
  7  5  1  0
  8  9  1  6
  9 10  1  0
 10 14  1  0
 11 10  2  0
 12 13  2  0
 12  8  1  0
 16 15  1  1
 16 18  1  0
 16 17  1  0
 17 12  1  0
 18 20  1  0
 19 18  2  0
M  END
$$$$
