GFP.pdb
     RDKit          3D

 23 24  0  0  1  0  0  0  0  0999 V2000
   27.6159  -17.5247  -18.9713 N   0  0  0  0  0  0  0  0  0  0  0  0
   26.5508  -17.1888  -18.0447 C   0  0  0  0  0  0  0  0  0  0  0  0
   26.5443  -18.2403  -16.9821 C   0  0  0  0  0  0  0  0  0  0  0  0
   26.8331  -19.4579  -17.2434 O   0  0  0  0  0  0  0  0  0  0  0  0
   26.2233  -17.9648  -15.6364 N   0  0  0  0  0  0  0  0  0  0  0  0
   26.0876  -18.9763  -14.5988 C   0  0  1  0  0  0  0  0  0  0  0  0
   26.7675  -18.5094  -13.3400 C   0  0  0  0  0  0  0  0  0  0  0  0
   26.6970  -19.4515  -12.2211 C   0  0  0  0  0  0  0  0  0  0  0  0
   27.5353  -20.5402  -12.0598 C   0  0  0  0  0  0  0  0  0  0  0  0
   27.3881  -21.3625  -10.9848 C   0  0  0  0  0  0  0  0  0  0  0  0
   26.4113  -21.1695  -10.0020 C   0  0  0  0  0  0  0  0  0  0  0  0
   25.5827  -20.0809  -10.1748 C   0  0  0  0  0  0  0  0  0  0  0  0
   25.7291  -19.2490  -11.2593 C   0  0  0  0  0  0  0  0  0  0  0  0
   24.6848  -19.3896  -14.4325 C   0  0  0  0  0  0  0  0  0  0  0  0
   23.8094  -18.4966  -14.3292 O   0  0  0  0  0  0  0  0  0  0  0  0
   24.2402  -20.7525  -14.3820 N   0  0  0  0  0  0  0  0  0  0  0  0
   25.1052  -21.9210  -14.5557 C   0  0  0  0  0  0  0  0  0  0  0  0
   24.1326  -23.0260  -14.9682 C   0  0  0  0  0  0  0  0  0  0  0  0
   22.9818  -22.6930  -14.0165 C   0  0  0  0  0  0  0  0  0  0  0  0
   22.8867  -21.2085  -14.1720 C   0  0  1  0  0  0  0  0  0  0  0  0
   22.3174  -20.6316  -12.9112 C   0  0  0  0  0  0  0  0  0  0  0  0
   20.9641  -20.4466  -12.7434 O   0  0  0  0  0  0  0  0  0  0  0  0
   23.0928  -20.3090  -11.9854 O   0  0  0  0  0  0  0  0  0  0  0  0
  1  2  1  0
  2  3  1  0
  3  4  2  0
  5  6  1  0
  5  3  1  0
  6 14  1  0
  6  7  1  1
  8  9  2  0
  8  7  1  0
 10  9  1  0
 11 10  2  0
 12 11  1  0
 12 13  2  0
 13  8  1  0
 14 15  2  0
 14 16  1  0
 16 20  1  0
 16 17  1  0
 17 18  1  0
 19 18  1  0
 20 19  1  0
 21 22  1  0
 20 21  1  1
 23 21  2  0
M  END
$$$$
