GFP.pdb
     RDKit          3D

 23 24  0  0  1  0  0  0  0  0999 V2000
   29.4196  -24.9270  -16.7655 N   0  0  0  0  0  0  0  0  0  0  0  0
   28.0984  -24.3780  -17.0081 C   0  0  0  0  0  0  0  0  0  0  0  0
   27.9725  -23.1474  -16.1688 C   0  0  0  0  0  0  0  0  0  0  0  0
   28.9999  -22.4897  -15.7867 O   0  0  0  0  0  0  0  0  0  0  0  0
   26.7281  -22.6344  -15.7465 N   0  0  0  0  0  0  0  0  0  0  0  0
   26.5449  -21.3371  -15.1127 C   0  0  1  0  0  0  0  0  0  0  0  0
   26.2746  -20.2916  -16.1608 C   0  0  0  0  0  0  0  0  0  0  0  0
   26.2242  -18.9179  -15.6559 C   0  0  0  0  0  0  0  0  0  0  0  0
   27.3187  -18.0767  -15.5634 C   0  0  0  0  0  0  0  0  0  0  0  0
   27.1708  -16.8142  -15.0758 C   0  0  0  0  0  0  0  0  0  0  0  0
   25.9426  -16.2979  -14.6490 C   0  0  0  0  0  0  0  0  0  0  0  0
   24.8601  -17.1466  -14.7465 C   0  0  0  0  0  0  0  0  0  0  0  0
   25.0066  -18.4218  -15.2384 C   0  0  0  0  0  0  0  0  0  0  0  0
   25.5506  -21.4049  -14.0295 C   0  0  0  0  0  0  0  0  0  0  0  0
   24.4073  -21.8465  -14.2978 O   0  0  0  0  0  0  0  0  0  0  0  0
   25.7965  -21.0013  -12.6751 N   0  0  0  0  0  0  0  0  0  0  0  0
   27.0920  -20.5569  -12.1572 C   0  0  0  0  0  0  0  0  0  0  0  0
   26.9714  -20.7878  -10.6508 C   0  0  0  0  0  0  0  0  0  0  0  0
   25.5319  -20.3079  -10.4544 C   0  0  0  0  0  0  0  0  0  0  0  0
   24.8364  -20.9765  -11.5973 C   0  0  1  0  0  0  0  0  0  0  0  0
   23.6356  -20.1602  -11.9692 C   0  0  0  0  0  0  0  0  0  0  0  0
   22.4426  -20.2734  -11.2927 O   0  0  0  0  0  0  0  0  0  0  0  0
   23.7190  -19.3537  -12.9205 O   0  0  0  0  0  0  0  0  0  0  0  0
  1  2  1  0
  2  3  1  0
  3  4  2  0
  5  6  1  0
  5  3  1  0
  6 14  1  0
  6  7  1  6
  8  9  2  0
  8  7  1  0
 10  9  1  0
 11 10  2  0
 12 11  1  0
 12 13  2  0
 13  8  1  0
 14 15  2  0
 14 16  1  0
 16 20  1  0
 16 17  1  0
 17 18  1  0
 19 18  1  0
 20 19  1  0
 21 22  1  0
 20 21  1  6
 23 21  2  0
M  END
$$$$
