GFP.pdb
     RDKit          3D

 23 24  0  0  1  0  0  0  0  0999 V2000
   26.1192  -21.3993  -12.9469 N   0  0  0  0  0  0  0  0  0  0  0  0
   25.4204  -20.5825  -11.9721 C   0  0  0  0  0  0  0  0  0  0  0  0
   25.9912  -20.9134  -10.6307 C   0  0  0  0  0  0  0  0  0  0  0  0
   26.3044  -22.1115  -10.3135 O   0  0  0  0  0  0  0  0  0  0  0  0
   26.2202  -19.9394   -9.6363 N   0  0  0  0  0  0  0  0  0  0  0  0
   26.6940  -20.2316   -8.2915 C   0  0  1  0  0  0  0  0  0  0  0  0
   27.7224  -19.2125   -7.8810 C   0  0  0  0  0  0  0  0  0  0  0  0
   28.2635  -19.3982   -6.5330 C   0  0  0  0  0  0  0  0  0  0  0  0
   27.9106  -18.6339   -5.4351 C   0  0  0  0  0  0  0  0  0  0  0  0
   28.4733  -18.8821   -4.2205 C   0  0  0  0  0  0  0  0  0  0  0  0
   29.4158  -19.8935   -4.0062 C   0  0  0  0  0  0  0  0  0  0  0  0
   29.7585  -20.6477   -5.1086 C   0  0  0  0  0  0  0  0  0  0  0  0
   29.1920  -20.3993   -6.3362 C   0  0  0  0  0  0  0  0  0  0  0  0
   25.5732  -20.3988   -7.3523 C   0  0  0  0  0  0  0  0  0  0  0  0
   24.6957  -19.5031   -7.3072 O   0  0  0  0  0  0  0  0  0  0  0  0
   25.4076  -21.5236   -6.4776 N   0  0  0  0  0  0  0  0  0  0  0  0
   26.2931  -22.6889   -6.4373 C   0  0  0  0  0  0  0  0  0  0  0  0
   25.4220  -23.7767   -5.8090 C   0  0  0  0  0  0  0  0  0  0  0  0
   24.7324  -22.9336   -4.7345 C   0  0  0  0  0  0  0  0  0  0  0  0
   24.3517  -21.7138   -5.5117 C   0  0  1  0  0  0  0  0  0  0  0  0
   24.2736  -20.5515   -4.5686 C   0  0  0  0  0  0  0  0  0  0  0  0
   23.1587  -20.3156   -3.7972 O   0  0  0  0  0  0  0  0  0  0  0  0
   25.2482  -19.7738   -4.4794 O   0  0  0  0  0  0  0  0  0  0  0  0
  1  2  1  0
  2  3  1  0
  3  4  2  0
  5  6  1  0
  5  3  1  0
  6 14  1  0
  6  7  1  1
  8  9  2  0
  8  7  1  0
 10  9  1  0
 11 10  2  0
 12 11  1  0
 12 13  2  0
 13  8  1  0
 14 15  2  0
 14 16  1  0
 16 20  1  0
 16 17  1  0
 17 18  1  0
 19 18  1  0
 20 19  1  0
 21 22  1  0
 20 21  1  1
 23 21  2  0
M  END
$$$$
