GFP.pdb
     RDKit          3D

 23 24  0  0  1  0  0  0  0  0999 V2000
   26.4867  -23.2400  -18.1733 N   0  0  0  0  0  0  0  0  0  0  0  0
   25.5272  -22.4649  -17.4090 C   0  0  0  0  0  0  0  0  0  0  0  0
   26.2634  -21.8717  -16.2511 C   0  0  0  0  0  0  0  0  0  0  0  0
   27.4734  -22.1923  -15.9919 O   0  0  0  0  0  0  0  0  0  0  0  0
   25.6812  -20.9302  -15.3767 N   0  0  0  0  0  0  0  0  0  0  0  0
   26.4032  -20.2230  -14.3294 C   0  0  1  0  0  0  0  0  0  0  0  0
   26.1866  -18.7407  -14.4728 C   0  0  0  0  0  0  0  0  0  0  0  0
   26.8053  -18.1440  -15.6584 C   0  0  0  0  0  0  0  0  0  0  0  0
   28.1695  -18.0679  -15.8757 C   0  0  0  0  0  0  0  0  0  0  0  0
   28.6493  -17.4893  -17.0108 C   0  0  0  0  0  0  0  0  0  0  0  0
   27.8232  -16.9500  -18.0027 C   0  0  0  0  0  0  0  0  0  0  0  0
   26.4659  -17.0324  -17.7737 C   0  0  0  0  0  0  0  0  0  0  0  0
   25.9787  -17.6160  -16.6284 C   0  0  0  0  0  0  0  0  0  0  0  0
   26.0932  -20.7721  -12.9994 C   0  0  0  0  0  0  0  0  0  0  0  0
   24.9311  -21.1942  -12.7858 O   0  0  0  0  0  0  0  0  0  0  0  0
   27.0327  -20.8632  -11.9193 N   0  0  0  0  0  0  0  0  0  0  0  0
   28.4701  -20.6107  -12.0380 C   0  0  0  0  0  0  0  0  0  0  0  0
   29.0624  -21.3541  -10.8406 C   0  0  0  0  0  0  0  0  0  0  0  0
   28.0069  -20.9917   -9.7940 C   0  0  0  0  0  0  0  0  0  0  0  0
   26.7404  -21.2285  -10.5536 C   0  0  1  0  0  0  0  0  0  0  0  0
   25.6692  -20.3494   -9.9823 C   0  0  0  0  0  0  0  0  0  0  0  0
   24.9375  -20.7207   -8.8776 O   0  0  0  0  0  0  0  0  0  0  0  0
   25.4331  -19.2478  -10.5237 O   0  0  0  0  0  0  0  0  0  0  0  0
  1  2  1  0
  2  3  1  0
  3  4  2  0
  5  6  1  0
  5  3  1  0
  6 14  1  0
  6  7  1  1
  8  9  2  0
  8  7  1  0
 10  9  1  0
 11 10  2  0
 12 11  1  0
 12 13  2  0
 13  8  1  0
 14 15  2  0
 14 16  1  0
 16 20  1  0
 16 17  1  0
 17 18  1  0
 19 18  1  0
 20 19  1  0
 21 22  1  0
 20 21  1  1
 23 21  2  0
M  END
$$$$
