GFP.pdb
     RDKit          3D

 23 24  0  0  1  0  0  0  0  0999 V2000
   23.5820  -11.0440  -19.2239 N   0  0  0  0  0  0  0  0  0  0  0  0
   23.0040   -9.7583  -19.5681 C   0  0  0  0  0  0  0  0  0  0  0  0
   22.4972   -9.1501  -18.3001 C   0  0  0  0  0  0  0  0  0  0  0  0
   21.7829   -9.8175  -17.4763 O   0  0  0  0  0  0  0  0  0  0  0  0
   22.7686   -7.8160  -17.9306 N   0  0  0  0  0  0  0  0  0  0  0  0
   22.3502   -7.2079  -16.6762 C   0  0  1  0  0  0  0  0  0  0  0  0
   23.5594   -6.8559  -15.8524 C   0  0  0  0  0  0  0  0  0  0  0  0
   24.4328   -7.9871  -15.5336 C   0  0  0  0  0  0  0  0  0  0  0  0
   24.1678   -8.9305  -14.5569 C   0  0  0  0  0  0  0  0  0  0  0  0
   25.0458   -9.9464  -14.3321 C   0  0  0  0  0  0  0  0  0  0  0  0
   26.2369  -10.1011  -15.0493 C   0  0  0  0  0  0  0  0  0  0  0  0
   26.4888   -9.1542  -16.0197 C   0  0  0  0  0  0  0  0  0  0  0  0
   25.6041   -8.1274  -16.2488 C   0  0  0  0  0  0  0  0  0  0  0  0
   21.4082   -6.1003  -16.9049 C   0  0  0  0  0  0  0  0  0  0  0  0
   21.7100   -5.2282  -17.7550 O   0  0  0  0  0  0  0  0  0  0  0  0
   20.1564   -5.9448  -16.2219 N   0  0  0  0  0  0  0  0  0  0  0  0
   19.5837   -6.9213  -15.2934 C   0  0  0  0  0  0  0  0  0  0  0  0
   18.0928   -6.5829  -15.2954 C   0  0  0  0  0  0  0  0  0  0  0  0
   18.1987   -5.0566  -15.2941 C   0  0  0  0  0  0  0  0  0  0  0  0
   19.2468   -4.8297  -16.3367 C   0  0  1  0  0  0  0  0  0  0  0  0
   19.9448   -3.5371  -16.0390 C   0  0  0  0  0  0  0  0  0  0  0  0
   19.3392   -2.3195  -16.2491 O   0  0  0  0  0  0  0  0  0  0  0  0
   21.1100   -3.5648  -15.5872 O   0  0  0  0  0  0  0  0  0  0  0  0
  1  2  1  0
  2  3  1  0
  3  4  2  0
  5  6  1  0
  5  3  1  0
  6 14  1  0
  6  7  1  6
  8  9  2  0
  8  7  1  0
 10  9  1  0
 11 10  2  0
 12 11  1  0
 12 13  2  0
 13  8  1  0
 14 15  2  0
 14 16  1  0
 16 20  1  0
 16 17  1  0
 17 18  1  0
 19 18  1  0
 20 19  1  0
 21 22  1  0
 20 21  1  1
 23 21  2  0
M  END
$$$$
