GFP.pdb
     RDKit          3D

 23 24  0  0  1  0  0  0  0  0999 V2000
   26.2725  -21.3030  -12.4218 N   0  0  0  0  0  0  0  0  0  0  0  0
   25.5646  -20.5859  -11.3776 C   0  0  0  0  0  0  0  0  0  0  0  0
   26.2874  -20.8487  -10.0957 C   0  0  0  0  0  0  0  0  0  0  0  0
   26.9046  -21.9489   -9.8886 O   0  0  0  0  0  0  0  0  0  0  0  0
   26.3375  -19.9133   -9.0410 N   0  0  0  0  0  0  0  0  0  0  0  0
   27.0178  -20.1370   -7.7739 C   0  0  1  0  0  0  0  0  0  0  0  0
   27.8096  -18.9138   -7.3979 C   0  0  0  0  0  0  0  0  0  0  0  0
   28.5623  -19.0329   -6.1474 C   0  0  0  0  0  0  0  0  0  0  0  0
   28.2169  -18.4074   -4.9626 C   0  0  0  0  0  0  0  0  0  0  0  0
   28.9846  -18.5775   -3.8512 C   0  0  0  0  0  0  0  0  0  0  0  0
   30.1372  -19.3701   -3.8314 C   0  0  0  0  0  0  0  0  0  0  0  0
   30.4700  -19.9877   -5.0186 C   0  0  0  0  0  0  0  0  0  0  0  0
   29.6967  -19.8178   -6.1422 C   0  0  0  0  0  0  0  0  0  0  0  0
   26.0849  -20.6169   -6.7415 C   0  0  0  0  0  0  0  0  0  0  0  0
   24.9308  -20.1258   -6.7075 O   0  0  0  0  0  0  0  0  0  0  0  0
   26.4010  -21.6171   -5.7630 N   0  0  0  0  0  0  0  0  0  0  0  0
   27.6834  -22.3171   -5.6672 C   0  0  0  0  0  0  0  0  0  0  0  0
   27.3364  -23.5926   -4.8992 C   0  0  0  0  0  0  0  0  0  0  0  0
   26.3785  -22.9924   -3.8682 C   0  0  0  0  0  0  0  0  0  0  0  0
   25.5257  -22.1155   -4.7289 C   0  0  1  0  0  0  0  0  0  0  0  0
   24.9956  -20.9925   -3.8896 C   0  0  0  0  0  0  0  0  0  0  0  0
   23.8697  -21.1361   -3.1114 O   0  0  0  0  0  0  0  0  0  0  0  0
   25.5921  -19.8941   -3.8959 O   0  0  0  0  0  0  0  0  0  0  0  0
  1  2  1  0
  2  3  1  0
  3  4  2  0
  5  6  1  0
  5  3  1  0
  6 14  1  0
  6  7  1  1
  8  9  2  0
  8  7  1  0
 10  9  1  0
 11 10  2  0
 12 11  1  0
 12 13  2  0
 13  8  1  0
 14 15  2  0
 14 16  1  0
 16 20  1  0
 16 17  1  0
 17 18  1  0
 19 18  1  0
 20 19  1  0
 21 22  1  0
 20 21  1  1
 23 21  2  0
M  END
$$$$
