GFP.pdb
     RDKit          3D

 23 24  0  0  1  0  0  0  0  0999 V2000
   24.7005  -19.5196  -13.2208 N   0  0  0  0  0  0  0  0  0  0  0  0
   24.3257  -19.9624  -11.8907 C   0  0  0  0  0  0  0  0  0  0  0  0
   25.5313  -19.8094  -11.0202 C   0  0  0  0  0  0  0  0  0  0  0  0
   26.6564  -19.4316  -11.4951 O   0  0  0  0  0  0  0  0  0  0  0  0
   25.5104  -20.0680   -9.6335 N   0  0  0  0  0  0  0  0  0  0  0  0
   26.6917  -20.0986   -8.7840 C   0  0  1  0  0  0  0  0  0  0  0  0
   26.2950  -19.8667   -7.3510 C   0  0  0  0  0  0  0  0  0  0  0  0
   27.4167  -19.6853   -6.4274 C   0  0  0  0  0  0  0  0  0  0  0  0
   28.1327  -18.5100   -6.2858 C   0  0  0  0  0  0  0  0  0  0  0  0
   29.1644  -18.4409   -5.4002 C   0  0  0  0  0  0  0  0  0  0  0  0
   29.5584  -19.5179   -4.5989 C   0  0  0  0  0  0  0  0  0  0  0  0
   28.8365  -20.6831   -4.7499 C   0  0  0  0  0  0  0  0  0  0  0  0
   27.7944  -20.7557   -5.6433 C   0  0  0  0  0  0  0  0  0  0  0  0
   27.4913  -21.3115   -9.0205 C   0  0  0  0  0  0  0  0  0  0  0  0
   26.9141  -22.4244   -8.9689 O   0  0  0  0  0  0  0  0  0  0  0  0
   28.8960  -21.3143   -9.3111 N   0  0  0  0  0  0  0  0  0  0  0  0
   29.7302  -20.1157   -9.4172 C   0  0  0  0  0  0  0  0  0  0  0  0
   30.9212  -20.5835  -10.2537 C   0  0  0  0  0  0  0  0  0  0  0  0
   31.1245  -21.9621   -9.6220 C   0  0  0  0  0  0  0  0  0  0  0  0
   29.7200  -22.4727   -9.5627 C   0  0  1  0  0  0  0  0  0  0  0  0
   29.6166  -23.4572   -8.4372 C   0  0  0  0  0  0  0  0  0  0  0  0
   30.1372  -24.7274   -8.5332 O   0  0  0  0  0  0  0  0  0  0  0  0
   29.0416  -23.1159   -7.3811 O   0  0  0  0  0  0  0  0  0  0  0  0
  1  2  1  0
  2  3  1  0
  3  4  2  0
  5  6  1  0
  5  3  1  0
  6 14  1  0
  6  7  1  1
  8  9  2  0
  8  7  1  0
 10  9  1  0
 11 10  2  0
 12 11  1  0
 12 13  2  0
 13  8  1  0
 14 15  2  0
 14 16  1  0
 16 20  1  0
 16 17  1  0
 17 18  1  0
 19 18  1  0
 20 19  1  0
 21 22  1  0
 20 21  1  1
 23 21  2  0
M  END
$$$$
