GFP.pdb
     RDKit          3D

 23 24  0  0  1  0  0  0  0  0999 V2000
   19.6354  -18.2227  -15.5076 N   0  0  0  0  0  0  0  0  0  0  0  0
   20.5874  -19.1886  -16.0237 C   0  0  0  0  0  0  0  0  0  0  0  0
   21.8034  -19.1139  -15.1574 C   0  0  0  0  0  0  0  0  0  0  0  0
   22.4597  -18.0259  -15.0173 O   0  0  0  0  0  0  0  0  0  0  0  0
   22.3033  -20.2240  -14.4448 N   0  0  0  0  0  0  0  0  0  0  0  0
   23.5491  -20.2259  -13.6923 C   0  0  1  0  0  0  0  0  0  0  0  0
   23.4204  -21.1299  -12.4961 C   0  0  0  0  0  0  0  0  0  0  0  0
   24.5436  -21.0676  -11.5586 C   0  0  0  0  0  0  0  0  0  0  0  0
   25.7867  -21.6302  -11.7870 C   0  0  0  0  0  0  0  0  0  0  0  0
   26.7685  -21.5215  -10.8501 C   0  0  0  0  0  0  0  0  0  0  0  0
   26.5936  -20.8556   -9.6323 C   0  0  0  0  0  0  0  0  0  0  0  0
   25.3501  -20.2995   -9.4174 C   0  0  0  0  0  0  0  0  0  0  0  0
   24.3570  -20.4078  -10.3616 C   0  0  0  0  0  0  0  0  0  0  0  0
   24.7018  -20.5060  -14.5636 C   0  0  0  0  0  0  0  0  0  0  0  0
   24.6453  -21.5030  -15.3233 O   0  0  0  0  0  0  0  0  0  0  0  0
   25.8962  -19.7130  -14.6102 N   0  0  0  0  0  0  0  0  0  0  0  0
   26.1742  -18.5683  -13.7405 C   0  0  0  0  0  0  0  0  0  0  0  0
   27.2220  -17.7743  -14.5209 C   0  0  0  0  0  0  0  0  0  0  0  0
   28.0658  -18.9421  -15.0358 C   0  0  0  0  0  0  0  0  0  0  0  0
   27.0084  -19.8855  -15.5142 C   0  0  1  0  0  0  0  0  0  0  0  0
   27.5460  -21.2828  -15.4404 C   0  0  0  0  0  0  0  0  0  0  0  0
   27.1320  -22.1700  -14.4734 O   0  0  0  0  0  0  0  0  0  0  0  0
   28.3942  -21.6536  -16.2803 O   0  0  0  0  0  0  0  0  0  0  0  0
  1  2  1  0
  2  3  1  0
  3  4  2  0
  5  6  1  0
  5  3  1  0
  6 14  1  0
  6  7  1  1
  8  9  2  0
  8  7  1  0
 10  9  1  0
 11 10  2  0
 12 11  1  0
 12 13  2  0
 13  8  1  0
 14 15  2  0
 14 16  1  0
 16 20  1  0
 16 17  1  0
 17 18  1  0
 19 18  1  0
 20 19  1  0
 21 22  1  0
 20 21  1  1
 23 21  2  0
M  END
$$$$
