GFP.pdb
     RDKit          3D

 23 24  0  0  1  0  0  0  0  0999 V2000
   28.3985  -17.2357  -17.9195 N   0  0  0  0  0  0  0  0  0  0  0  0
   26.9812  -17.5151  -17.7820 C   0  0  0  0  0  0  0  0  0  0  0  0
   26.8394  -18.5603  -16.7228 C   0  0  0  0  0  0  0  0  0  0  0  0
   27.0959  -19.7904  -16.9575 O   0  0  0  0  0  0  0  0  0  0  0  0
   26.4186  -18.2649  -15.4091 N   0  0  0  0  0  0  0  0  0  0  0  0
   26.2265  -19.2586  -14.3632 C   0  0  1  0  0  0  0  0  0  0  0  0
   26.8283  -18.7655  -13.0751 C   0  0  0  0  0  0  0  0  0  0  0  0
   26.6695  -19.6747  -11.9382 C   0  0  0  0  0  0  0  0  0  0  0  0
   27.4498  -20.7955  -11.7166 C   0  0  0  0  0  0  0  0  0  0  0  0
   27.2217  -21.5827  -10.6295 C   0  0  0  0  0  0  0  0  0  0  0  0
   26.2159  -21.3211   -9.6929 C   0  0  0  0  0  0  0  0  0  0  0  0
   25.4457  -20.2012   -9.9256 C   0  0  0  0  0  0  0  0  0  0  0  0
   25.6739  -19.4046  -11.0224 C   0  0  0  0  0  0  0  0  0  0  0  0
   24.8182  -19.6769  -14.2729 C   0  0  0  0  0  0  0  0  0  0  0  0
   23.9339  -18.7873  -14.2409 O   0  0  0  0  0  0  0  0  0  0  0  0
   24.3781  -21.0412  -14.2208 N   0  0  0  0  0  0  0  0  0  0  0  0
   25.2649  -22.2063  -14.2175 C   0  0  0  0  0  0  0  0  0  0  0  0
   24.3650  -23.3402  -14.7090 C   0  0  0  0  0  0  0  0  0  0  0  0
   23.0911  -22.9775  -13.9432 C   0  0  0  0  0  0  0  0  0  0  0  0
   23.0108  -21.5028  -14.1800 C   0  0  1  0  0  0  0  0  0  0  0  0
   22.2683  -20.8756  -13.0390 C   0  0  0  0  0  0  0  0  0  0  0  0
   20.8958  -20.7764  -13.0327 O   0  0  0  0  0  0  0  0  0  0  0  0
   22.9129  -20.4296  -12.0653 O   0  0  0  0  0  0  0  0  0  0  0  0
  1  2  1  0
  2  3  1  0
  3  4  2  0
  5  6  1  0
  5  3  1  0
  6 14  1  0
  6  7  1  1
  8  9  2  0
  8  7  1  0
 10  9  1  0
 11 10  2  0
 12 11  1  0
 12 13  2  0
 13  8  1  0
 14 15  2  0
 14 16  1  0
 16 20  1  0
 16 17  1  0
 17 18  1  0
 19 18  1  0
 20 19  1  0
 21 22  1  0
 20 21  1  1
 23 21  2  0
M  END
$$$$
