DAA.pdb
     RDKit          3D

 19 18  0  0  1  0  0  0  0  0999 V2000
   10.2301  -17.1761   20.3855 N   0  0  0  0  0  0  0  0  0  0  0  0
   10.9833  -17.0153   21.5969 C   0  0  1  0  0  0  0  0  0  0  0  0
   12.1314  -16.0894   21.3197 C   0  0  0  0  0  0  0  0  0  0  0  0
   13.2595  -16.7421   20.6497 C   0  0  0  0  0  0  0  0  0  0  0  0
   13.2336  -17.9705   20.4303 O   0  0  0  0  0  0  0  0  0  0  0  0
   10.1433  -16.5698   22.7218 C   0  0  0  0  0  0  0  0  0  0  0  0
    9.4511  -15.5353   22.6356 O   0  0  0  0  0  0  0  0  0  0  0  0
   14.3539  -15.9978   20.2598 O   0  0  0  0  0  0  0  0  0  0  0  0
    9.0028  -18.2390   25.8474 C   0  0  0  0  0  0  0  0  0  0  0  0
    9.1890  -16.9695   25.0110 C   0  0  2  0  0  0  0  0  0  0  0  0
   10.1011  -17.3094   23.9351 N   0  0  0  0  0  0  0  0  0  0  0  0
    9.8243  -15.9766   25.9023 C   0  0  0  0  0  0  0  0  0  0  0  0
   11.0852  -15.9861   26.0080 O   0  0  0  0  0  0  0  0  0  0  0  0
    8.8821  -12.9661   27.8343 C   0  0  0  0  0  0  0  0  0  0  0  0
    9.7555  -14.1739   27.5743 C   0  0  2  0  0  0  0  0  0  0  0  0
    9.0653  -15.0181   26.6388 N   0  0  0  0  0  0  0  0  0  0  0  0
   10.0596  -14.9065   28.8301 C   0  0  0  0  0  0  0  0  0  0  0  0
    9.4952  -16.0126   29.0262 O   0  0  0  0  0  0  0  0  0  0  0  0
   10.9203  -14.4515   29.7934 O   0  0  0  0  0  0  0  0  0  0  0  0
  2  1  1  6
  3  2  1  0
  3  4  1  0
  4  8  1  0
  4  5  2  0
  6  7  2  0
  6  2  1  0
 10  9  1  1
 10 12  1  0
 10 11  1  0
 11  6  1  0
 12 16  1  0
 13 12  2  0
 15 14  1  1
 15 17  1  0
 16 15  1  0
 17 18  2  0
 17 19  1  0
M  END
$$$$
