DAA.pdb
     RDKit          3D

 19 18  0  0  1  0  0  0  0  0999 V2000
    9.6050  -15.7191   15.1099 N   0  0  0  0  0  0  0  0  0  0  0  0
    8.6540  -15.9484   16.1604 C   0  0  1  0  0  0  0  0  0  0  0  0
    8.3676  -17.4201   16.2252 C   0  0  0  0  0  0  0  0  0  0  0  0
    7.7015  -17.9388   15.0274 C   0  0  0  0  0  0  0  0  0  0  0  0
    8.3502  -18.5842   14.1784 O   0  0  0  0  0  0  0  0  0  0  0  0
    9.1003  -15.3916   17.4490 C   0  0  0  0  0  0  0  0  0  0  0  0
   10.2328  -15.6524   17.9031 O   0  0  0  0  0  0  0  0  0  0  0  0
    6.3537  -17.7139   14.8362 O   0  0  0  0  0  0  0  0  0  0  0  0
    7.5510  -13.0050   19.9037 C   0  0  0  0  0  0  0  0  0  0  0  0
    8.6836  -13.9308   19.4498 C   0  0  2  0  0  0  0  0  0  0  0  0
    8.2496  -14.5421   18.2076 N   0  0  0  0  0  0  0  0  0  0  0  0
    8.8120  -14.9695   20.4933 C   0  0  0  0  0  0  0  0  0  0  0  0
    8.0123  -15.9497   20.4648 O   0  0  0  0  0  0  0  0  0  0  0  0
   11.2753  -16.3011   22.7590 C   0  0  0  0  0  0  0  0  0  0  0  0
    9.8273  -15.9371   22.5138 C   0  0  2  0  0  0  0  0  0  0  0  0
    9.8006  -14.8995   21.5204 N   0  0  0  0  0  0  0  0  0  0  0  0
    9.1575  -15.4959   23.7640 C   0  0  0  0  0  0  0  0  0  0  0  0
    8.7844  -14.2984   23.8493 O   0  0  0  0  0  0  0  0  0  0  0  0
    8.9191  -16.3146   24.8356 O   0  0  0  0  0  0  0  0  0  0  0  0
  2  1  1  6
  3  2  1  0
  3  4  1  0
  4  8  1  0
  4  5  2  0
  6  7  2  0
  6  2  1  0
 10  9  1  1
 10 12  1  0
 10 11  1  0
 11  6  1  0
 12 16  1  0
 13 12  2  0
 15 14  1  1
 15 17  1  0
 16 15  1  0
 17 18  2  0
 17 19  1  0
M  END
$$$$
