DAA.pdb
     RDKit          3D

 19 18  0  0  1  0  0  0  0  0999 V2000
    8.7929  -17.4642   20.7587 N   0  0  0  0  0  0  0  0  0  0  0  0
    8.3123  -16.1117   20.7354 C   0  0  1  0  0  0  0  0  0  0  0  0
    7.5915  -15.8890   19.4380 C   0  0  0  0  0  0  0  0  0  0  0  0
    8.4620  -15.9818   18.2628 C   0  0  0  0  0  0  0  0  0  0  0  0
    9.6373  -16.3847   18.3827 O   0  0  0  0  0  0  0  0  0  0  0  0
    7.4887  -15.7913   21.9137 C   0  0  0  0  0  0  0  0  0  0  0  0
    6.6829  -14.8388   21.8938 O   0  0  0  0  0  0  0  0  0  0  0  0
    7.9825  -15.6233   17.0197 O   0  0  0  0  0  0  0  0  0  0  0  0
    7.0042  -17.3996   25.2672 C   0  0  0  0  0  0  0  0  0  0  0  0
    6.8687  -16.2102   24.3119 C   0  0  2  0  0  0  0  0  0  0  0  0
    7.5923  -16.5612   23.1042 N   0  0  0  0  0  0  0  0  0  0  0  0
    7.5358  -15.0698   24.9739 C   0  0  0  0  0  0  0  0  0  0  0  0
    8.7936  -14.9717   24.8754 O   0  0  0  0  0  0  0  0  0  0  0  0
    6.5977  -11.9795   26.8016 C   0  0  0  0  0  0  0  0  0  0  0  0
    7.5529  -13.0964   26.4420 C   0  0  2  0  0  0  0  0  0  0  0  0
    6.8108  -14.0871   25.7127 N   0  0  0  0  0  0  0  0  0  0  0  0
    8.1826  -13.6850   27.6516 C   0  0  0  0  0  0  0  0  0  0  0  0
    7.7822  -14.8103   28.0440 O   0  0  0  0  0  0  0  0  0  0  0  0
    9.1769  -13.0770   28.3708 O   0  0  0  0  0  0  0  0  0  0  0  0
  2  1  1  1
  3  2  1  0
  3  4  1  0
  4  8  1  0
  4  5  2  0
  6  7  2  0
  6  2  1  0
 10  9  1  1
 10 12  1  0
 10 11  1  0
 11  6  1  0
 12 16  1  0
 13 12  2  0
 15 14  1  1
 15 17  1  0
 16 15  1  0
 17 18  2  0
 17 19  1  0
M  END
$$$$
