DAA.pdb
     RDKit          3D

 19 18  0  0  1  0  0  0  0  0999 V2000
    6.9667  -16.6216   16.5459 N   0  0  0  0  0  0  0  0  0  0  0  0
    8.3342  -16.9571   16.8253 C   0  0  1  0  0  0  0  0  0  0  0  0
    9.1103  -16.8821   15.5430 C   0  0  0  0  0  0  0  0  0  0  0  0
    8.4604  -17.5727   14.4257 C   0  0  0  0  0  0  0  0  0  0  0  0
    7.4778  -17.0563   13.8550 O   0  0  0  0  0  0  0  0  0  0  0  0
    8.9070  -16.1213   17.8944 C   0  0  0  0  0  0  0  0  0  0  0  0
   10.0644  -16.3218   18.3153 O   0  0  0  0  0  0  0  0  0  0  0  0
    8.9349  -18.7972   14.0025 O   0  0  0  0  0  0  0  0  0  0  0  0
    7.6352  -13.1592   19.8262 C   0  0  0  0  0  0  0  0  0  0  0  0
    8.6794  -14.2449   19.5491 C   0  0  2  0  0  0  0  0  0  0  0  0
    8.1534  -15.0641   18.4733 N   0  0  0  0  0  0  0  0  0  0  0  0
    8.7748  -15.0517   20.7835 C   0  0  0  0  0  0  0  0  0  0  0  0
    7.7015  -15.4285   21.3377 O   0  0  0  0  0  0  0  0  0  0  0  0
   10.1336  -17.6296   22.2302 C   0  0  0  0  0  0  0  0  0  0  0  0
   10.0233  -16.1636   22.5877 C   0  0  2  0  0  0  0  0  0  0  0  0
   10.0283  -15.4141   21.3619 N   0  0  0  0  0  0  0  0  0  0  0  0
   11.1316  -15.7355   23.4791 C   0  0  0  0  0  0  0  0  0  0  0  0
   12.0406  -15.0143   22.9954 O   0  0  0  0  0  0  0  0  0  0  0  0
   11.2270  -16.0781   24.8017 O   0  0  0  0  0  0  0  0  0  0  0  0
  2  1  1  6
  3  2  1  0
  3  4  1  0
  4  8  1  0
  4  5  2  0
  6  7  2  0
  6  2  1  0
 10  9  1  1
 10 12  1  0
 10 11  1  0
 11  6  1  0
 12 16  1  0
 13 12  2  0
 15 14  1  6
 15 17  1  0
 16 15  1  0
 17 18  2  0
 17 19  1  0
M  END
$$$$
