DAA.pdb
     RDKit          3D

 19 18  0  0  1  0  0  0  0  0999 V2000
    8.3098  -15.0806   20.6286 N   0  0  0  0  0  0  0  0  0  0  0  0
    7.8315  -15.5251   21.9070 C   0  0  1  0  0  0  0  0  0  0  0  0
    8.2358  -16.9588   22.0900 C   0  0  0  0  0  0  0  0  0  0  0  0
    8.0621  -17.7731   20.8840 C   0  0  0  0  0  0  0  0  0  0  0  0
    7.0273  -17.6613   20.1951 O   0  0  0  0  0  0  0  0  0  0  0  0
    8.2838  -14.6549   23.0059 C   0  0  0  0  0  0  0  0  0  0  0  0
    9.4764  -14.2987   23.0933 O   0  0  0  0  0  0  0  0  0  0  0  0
    9.0443  -18.6662   20.5080 O   0  0  0  0  0  0  0  0  0  0  0  0
    6.5321  -12.9332   25.8452 C   0  0  0  0  0  0  0  0  0  0  0  0
    7.8020  -13.4117   25.1351 C   0  0  2  0  0  0  0  0  0  0  0  0
    7.3705  -14.1990   23.9953 N   0  0  0  0  0  0  0  0  0  0  0  0
    8.5109  -14.2815   26.0967 C   0  0  0  0  0  0  0  0  0  0  0  0
    8.2239  -15.5138   26.1147 O   0  0  0  0  0  0  0  0  0  0  0  0
   11.3206  -13.9652   28.5179 C   0  0  0  0  0  0  0  0  0  0  0  0
   10.1899  -14.7097   27.8425 C   0  0  2  0  0  0  0  0  0  0  0  0
    9.4985  -13.7776   26.9954 N   0  0  0  0  0  0  0  0  0  0  0  0
    9.2659  -15.3144   28.8358 C   0  0  0  0  0  0  0  0  0  0  0  0
    8.1770  -14.7308   29.0691 O   0  0  0  0  0  0  0  0  0  0  0  0
    9.5256  -16.4733   29.5176 O   0  0  0  0  0  0  0  0  0  0  0  0
  2  1  1  6
  3  2  1  0
  3  4  1  0
  4  8  1  0
  4  5  2  0
  6  7  2  0
  6  2  1  0
 10  9  1  1
 10 12  1  0
 10 11  1  0
 11  6  1  0
 12 16  1  0
 13 12  2  0
 15 14  1  1
 15 17  1  0
 16 15  1  0
 17 18  2  0
 17 19  1  0
M  END
$$$$
