DAA.pdb
     RDKit          3D

 19 18  0  0  1  0  0  0  0  0999 V2000
   -2.5031  -27.2947   31.6568 N   0  0  0  0  0  0  0  0  0  0  0  0
   -2.4492  -26.0579   30.9301 C   0  0  1  0  0  0  0  0  0  0  0  0
   -1.3631  -26.1627   29.8997 C   0  0  0  0  0  0  0  0  0  0  0  0
   -0.0188  -26.2574   30.4756 C   0  0  0  0  0  0  0  0  0  0  0  0
    0.1422  -26.1734   31.7105 O   0  0  0  0  0  0  0  0  0  0  0  0
   -3.7545  -25.6907   30.3550 C   0  0  0  0  0  0  0  0  0  0  0  0
   -3.8621  -24.7257   29.5714 O   0  0  0  0  0  0  0  0  0  0  0  0
    1.0727  -26.4398   29.6516 O   0  0  0  0  0  0  0  0  0  0  0  0
   -7.2150  -27.1251   30.6715 C   0  0  0  0  0  0  0  0  0  0  0  0
   -6.2220  -26.0986   30.1183 C   0  0  2  0  0  0  0  0  0  0  0  0
   -4.9255  -26.4284   30.6798 N   0  0  0  0  0  0  0  0  0  0  0  0
   -6.6608  -24.7825   30.6274 C   0  0  0  0  0  0  0  0  0  0  0  0
   -6.4825  -24.5244   31.8533 O   0  0  0  0  0  0  0  0  0  0  0  0
   -7.4448  -21.4806   29.2975 C   0  0  0  0  0  0  0  0  0  0  0  0
   -7.6347  -22.5396   30.3612 C   0  0  2  0  0  0  0  0  0  0  0  0
   -7.2729  -23.8055   29.7861 N   0  0  0  0  0  0  0  0  0  0  0  0
   -9.0322  -22.5621   30.8640 C   0  0  0  0  0  0  0  0  0  0  0  0
   -9.4619  -21.5509   31.4750 O   0  0  0  0  0  0  0  0  0  0  0  0
   -9.8872  -23.6198   30.7036 O   0  0  0  0  0  0  0  0  0  0  0  0
  2  1  1  6
  3  2  1  0
  3  4  1  0
  4  8  1  0
  4  5  2  0
  6  7  2  0
  6  2  1  0
 10  9  1  1
 10 12  1  0
 10 11  1  0
 11  6  1  0
 12 16  1  0
 13 12  2  0
 15 14  1  6
 15 17  1  0
 16 15  1  0
 17 18  2  0
 17 19  1  0
M  END
$$$$
