DAA.pdb
     RDKit          3D

 19 18  0  0  1  0  0  0  0  0999 V2000
    9.5996  -15.7013   15.3131 N   0  0  0  0  0  0  0  0  0  0  0  0
    8.9623  -15.9604   16.5730 C   0  0  1  0  0  0  0  0  0  0  0  0
    9.3645  -17.3313   17.0325 C   0  0  0  0  0  0  0  0  0  0  0  0
    8.8916  -18.4041   16.1533 C   0  0  0  0  0  0  0  0  0  0  0  0
    9.6158  -18.8204   15.2259 O   0  0  0  0  0  0  0  0  0  0  0  0
    9.2470  -14.9130   17.5687 C   0  0  0  0  0  0  0  0  0  0  0  0
   10.4202  -14.5799   17.8323 O   0  0  0  0  0  0  0  0  0  0  0  0
    7.6426  -18.9565   16.3502 O   0  0  0  0  0  0  0  0  0  0  0  0
    7.0759  -12.6551   19.6423 C   0  0  0  0  0  0  0  0  0  0  0  0
    8.4402  -13.2303   19.2505 C   0  0  2  0  0  0  0  0  0  0  0  0
    8.1898  -14.2553   18.2546 N   0  0  0  0  0  0  0  0  0  0  0  0
    8.9930  -13.8523   20.4717 C   0  0  0  0  0  0  0  0  0  0  0  0
    9.3618  -13.0949   21.4158 O   0  0  0  0  0  0  0  0  0  0  0  0
    8.9957  -17.0141   22.2288 C   0  0  0  0  0  0  0  0  0  0  0  0
    9.7548  -15.7778   21.7992 C   0  0  2  0  0  0  0  0  0  0  0  0
    9.1215  -15.2666   20.6152 N   0  0  0  0  0  0  0  0  0  0  0  0
   11.1880  -16.0778   21.5502 C   0  0  0  0  0  0  0  0  0  0  0  0
   11.8778  -16.5225   22.5026 O   0  0  0  0  0  0  0  0  0  0  0  0
   11.8096  -15.9001   20.3429 O   0  0  0  0  0  0  0  0  0  0  0  0
  2  1  1  6
  3  2  1  0
  3  4  1  0
  4  8  1  0
  4  5  2  0
  6  7  2  0
  6  2  1  0
 10  9  1  1
 10 12  1  0
 10 11  1  0
 11  6  1  0
 12 16  1  0
 13 12  2  0
 15 14  1  6
 15 17  1  0
 16 15  1  0
 17 18  2  0
 17 19  1  0
M  END
$$$$
