DAA.pdb
     RDKit          3D

 19 18  0  0  1  0  0  0  0  0999 V2000
    9.8496  -16.8960   20.3559 N   0  0  0  0  0  0  0  0  0  0  0  0
   10.6404  -16.9647   21.5520 C   0  0  1  0  0  0  0  0  0  0  0  0
   11.9597  -16.3011   21.2846 C   0  0  0  0  0  0  0  0  0  0  0  0
   12.7671  -16.9921   20.2756 C   0  0  0  0  0  0  0  0  0  0  0  0
   12.9133  -18.2306   20.3293 O   0  0  0  0  0  0  0  0  0  0  0  0
    9.9389  -16.4017   22.7184 C   0  0  0  0  0  0  0  0  0  0  0  0
    9.7096  -15.1780   22.8003 O   0  0  0  0  0  0  0  0  0  0  0  0
   13.3679  -16.2730   19.2628 O   0  0  0  0  0  0  0  0  0  0  0  0
    8.0459  -17.9670   25.5329 C   0  0  0  0  0  0  0  0  0  0  0  0
    8.6805  -16.7431   24.8657 C   0  0  2  0  0  0  0  0  0  0  0  0
    9.5054  -17.2408   23.7808 N   0  0  0  0  0  0  0  0  0  0  0  0
    9.5389  -16.1123   25.8900 C   0  0  0  0  0  0  0  0  0  0  0  0
   10.7538  -16.4608   25.9513 O   0  0  0  0  0  0  0  0  0  0  0  0
    9.3684  -13.2583   28.2351 C   0  0  0  0  0  0  0  0  0  0  0  0
    9.9520  -14.5717   27.7624 C   0  0  2  0  0  0  0  0  0  0  0  0
    9.0428  -15.1325   26.8016 N   0  0  0  0  0  0  0  0  0  0  0  0
   10.1755  -15.5071   28.8943 C   0  0  0  0  0  0  0  0  0  0  0  0
   10.9683  -15.1601   29.8063 O   0  0  0  0  0  0  0  0  0  0  0  0
    9.5700  -16.7301   29.0087 O   0  0  0  0  0  0  0  0  0  0  0  0
  2  1  1  6
  3  2  1  0
  3  4  1  0
  4  8  1  0
  4  5  2  0
  6  7  2  0
  6  2  1  0
 10  9  1  1
 10 12  1  0
 10 11  1  0
 11  6  1  0
 12 16  1  0
 13 12  2  0
 15 14  1  1
 15 17  1  0
 16 15  1  0
 17 18  2  0
 17 19  1  0
M  END
$$$$
