DAA.pdb
     RDKit          3D

 19 18  0  0  1  0  0  0  0  0999 V2000
   -2.8466  -26.0993   27.5731 N   0  0  0  0  0  0  0  0  0  0  0  0
   -2.7305  -25.9142   28.9919 C   0  0  1  0  0  0  0  0  0  0  0  0
   -1.2783  -25.7400   29.3280 C   0  0  0  0  0  0  0  0  0  0  0  0
   -0.4902  -26.9648   29.1658 C   0  0  0  0  0  0  0  0  0  0  0  0
    0.7559  -26.9215   29.2243 O   0  0  0  0  0  0  0  0  0  0  0  0
   -3.5713  -24.8084   29.4815 C   0  0  0  0  0  0  0  0  0  0  0  0
   -3.6913  -24.5857   30.7033 O   0  0  0  0  0  0  0  0  0  0  0  0
   -1.1260  -28.1697   28.9476 O   0  0  0  0  0  0  0  0  0  0  0  0
   -5.3941  -22.0054   27.7896 C   0  0  0  0  0  0  0  0  0  0  0  0
   -5.0885  -22.8591   29.0240 C   0  0  2  0  0  0  0  0  0  0  0  0
   -4.2675  -23.9667   28.5718 N   0  0  0  0  0  0  0  0  0  0  0  0
   -6.3886  -23.3716   29.5046 C   0  0  0  0  0  0  0  0  0  0  0  0
   -6.9215  -24.3342   28.8796 O   0  0  0  0  0  0  0  0  0  0  0  0
   -8.2805  -23.6850   32.4884 C   0  0  0  0  0  0  0  0  0  0  0  0
   -8.3319  -23.3568   31.0124 C   0  0  2  0  0  0  0  0  0  0  0  0
   -7.0528  -22.8184   30.6404 N   0  0  0  0  0  0  0  0  0  0  0  0
   -9.4239  -22.3979   30.7054 C   0  0  0  0  0  0  0  0  0  0  0  0
   -9.1314  -21.1814   30.5821 O   0  0  0  0  0  0  0  0  0  0  0  0
  -10.7362  -22.7561   30.5473 O   0  0  0  0  0  0  0  0  0  0  0  0
  2  1  1  6
  3  2  1  0
  3  4  1  0
  4  8  1  0
  4  5  2  0
  6  7  2  0
  6  2  1  0
 10  9  1  6
 10 12  1  0
 10 11  1  0
 11  6  1  0
 12 16  1  0
 13 12  2  0
 15 14  1  1
 15 17  1  0
 16 15  1  0
 17 18  2  0
 17 19  1  0
M  END
$$$$
