DAA.pdb
     RDKit          3D

 19 18  0  0  1  0  0  0  0  0999 V2000
   10.9933  -16.6114   20.2461 N   0  0  0  0  0  0  0  0  0  0  0  0
   11.2417  -17.1513   21.5528 C   0  0  1  0  0  0  0  0  0  0  0  0
   12.7264  -17.2253   21.7588 C   0  0  0  0  0  0  0  0  0  0  0  0
   13.3912  -18.1877   20.8760 C   0  0  0  0  0  0  0  0  0  0  0  0
   13.8798  -17.8106   19.7910 O   0  0  0  0  0  0  0  0  0  0  0  0
   10.5509  -16.3939   22.6105 C   0  0  0  0  0  0  0  0  0  0  0  0
   10.6300  -15.1499   22.6651 O   0  0  0  0  0  0  0  0  0  0  0  0
   13.4782  -19.5147   21.2439 O   0  0  0  0  0  0  0  0  0  0  0  0
    7.8842  -17.3000   25.0429 C   0  0  0  0  0  0  0  0  0  0  0  0
    8.9804  -16.3402   24.5704 C   0  0  2  0  0  0  0  0  0  0  0  0
    9.7761  -17.0635   23.5964 N   0  0  0  0  0  0  0  0  0  0  0  0
    9.8066  -16.0392   25.7581 C   0  0  0  0  0  0  0  0  0  0  0  0
   10.8632  -16.7115   25.9392 O   0  0  0  0  0  0  0  0  0  0  0  0
    9.9552  -13.4007   28.3650 C   0  0  0  0  0  0  0  0  0  0  0  0
   10.3720  -14.7220   27.7569 C   0  0  2  0  0  0  0  0  0  0  0  0
    9.4513  -15.0237   26.6960 N   0  0  0  0  0  0  0  0  0  0  0  0
   10.3906  -15.8066   28.7715 C   0  0  0  0  0  0  0  0  0  0  0  0
    9.4595  -16.6513   28.7578 O   0  0  0  0  0  0  0  0  0  0  0  0
   11.3625  -15.9463   29.7262 O   0  0  0  0  0  0  0  0  0  0  0  0
  2  1  1  6
  3  2  1  0
  3  4  1  0
  4  8  1  0
  4  5  2  0
  6  7  2  0
  6  2  1  0
 10  9  1  1
 10 12  1  0
 10 11  1  0
 11  6  1  0
 12 16  1  0
 13 12  2  0
 15 14  1  1
 15 17  1  0
 16 15  1  0
 17 18  2  0
 17 19  1  0
M  END
$$$$
