DAA.pdb
     RDKit          3D

 19 18  0  0  1  0  0  0  0  0999 V2000
    7.8997  -17.6521   16.7228 N   0  0  0  0  0  0  0  0  0  0  0  0
    7.3319  -17.6549   18.0412 C   0  0  1  0  0  0  0  0  0  0  0  0
    7.1609  -19.0802   18.4787 C   0  0  0  0  0  0  0  0  0  0  0  0
    6.1776  -19.8212   17.6839 C   0  0  0  0  0  0  0  0  0  0  0  0
    5.0404  -19.3447   17.4896 O   0  0  0  0  0  0  0  0  0  0  0  0
    8.1212  -16.8521   18.9909 C   0  0  0  0  0  0  0  0  0  0  0  0
    9.3635  -16.9558   19.0415 O   0  0  0  0  0  0  0  0  0  0  0  0
    6.5084  -21.0490   17.1483 O   0  0  0  0  0  0  0  0  0  0  0  0
    7.2319  -14.1488   21.4435 C   0  0  0  0  0  0  0  0  0  0  0  0
    8.2404  -15.0888   20.7763 C   0  0  2  0  0  0  0  0  0  0  0  0
    7.4850  -15.9380   19.8745 N   0  0  0  0  0  0  0  0  0  0  0  0
    8.8197  -15.9102   21.8596 C   0  0  0  0  0  0  0  0  0  0  0  0
    8.1563  -16.9026   22.2796 O   0  0  0  0  0  0  0  0  0  0  0  0
   12.1233  -16.5266   23.2890 C   0  0  0  0  0  0  0  0  0  0  0  0
   10.6162  -16.5262   23.4227 C   0  0  2  0  0  0  0  0  0  0  0  0
   10.0913  -15.6198   22.4393 N   0  0  0  0  0  0  0  0  0  0  0  0
   10.1909  -16.1337   24.7906 C   0  0  0  0  0  0  0  0  0  0  0  0
    9.5942  -15.0369   24.9373 O   0  0  0  0  0  0  0  0  0  0  0  0
   10.4084  -16.8943   25.9085 O   0  0  0  0  0  0  0  0  0  0  0  0
  2  1  1  6
  3  2  1  0
  3  4  1  0
  4  8  1  0
  4  5  2  0
  6  7  2  0
  6  2  1  0
 10  9  1  1
 10 12  1  0
 10 11  1  0
 11  6  1  0
 12 16  1  0
 13 12  2  0
 15 14  1  1
 15 17  1  0
 16 15  1  0
 17 18  2  0
 17 19  1  0
M  END
$$$$
