DAA.pdb
     RDKit          3D

 19 18  0  0  1  0  0  0  0  0999 V2000
    7.6523  -17.3004   18.7272 N   0  0  0  0  0  0  0  0  0  0  0  0
    9.0442  -16.9496   18.7447 C   0  0  1  0  0  0  0  0  0  0  0  0
    9.6225  -17.2443   17.3916 C   0  0  0  0  0  0  0  0  0  0  0  0
    9.9581  -18.6573   17.1950 C   0  0  0  0  0  0  0  0  0  0  0  0
    9.7789  -19.4790   18.1173 O   0  0  0  0  0  0  0  0  0  0  0  0
    9.2640  -15.5578   19.1738 C   0  0  0  0  0  0  0  0  0  0  0  0
   10.4169  -15.1164   19.3547 O   0  0  0  0  0  0  0  0  0  0  0  0
   10.4737  -19.0817   15.9876 O   0  0  0  0  0  0  0  0  0  0  0  0
    7.0262  -12.6139   19.7808 C   0  0  0  0  0  0  0  0  0  0  0  0
    8.3316  -13.3810   20.0122 C   0  0  2  0  0  0  0  0  0  0  0  0
    8.1656  -14.6824   19.3926 N   0  0  0  0  0  0  0  0  0  0  0  0
    8.4623  -13.5432   21.4752 C   0  0  0  0  0  0  0  0  0  0  0  0
    8.6344  -12.5065   22.1801 O   0  0  0  0  0  0  0  0  0  0  0  0
    7.4100  -15.4849   24.1705 C   0  0  0  0  0  0  0  0  0  0  0  0
    8.6430  -14.8936   23.5230 C   0  0  2  0  0  0  0  0  0  0  0  0
    8.4007  -14.8206   22.1088 N   0  0  0  0  0  0  0  0  0  0  0  0
    9.8533  -15.7035   23.8156 C   0  0  0  0  0  0  0  0  0  0  0  0
   10.3916  -16.3334   22.8701 O   0  0  0  0  0  0  0  0  0  0  0  0
   10.4235  -15.8085   25.0564 O   0  0  0  0  0  0  0  0  0  0  0  0
  2  1  1  6
  3  2  1  0
  3  4  1  0
  4  8  1  0
  4  5  2  0
  6  7  2  0
  6  2  1  0
 10  9  1  1
 10 12  1  0
 10 11  1  0
 11  6  1  0
 12 16  1  0
 13 12  2  0
 15 14  1  1
 15 17  1  0
 16 15  1  0
 17 18  2  0
 17 19  1  0
M  END
$$$$
