DAA.pdb
     RDKit          3D

 19 18  0  0  1  0  0  0  0  0999 V2000
    7.7316  -17.1230   17.9959 N   0  0  0  0  0  0  0  0  0  0  0  0
    9.0641  -16.6432   17.7616 C   0  0  1  0  0  0  0  0  0  0  0  0
    9.3423  -16.7220   16.2890 C   0  0  0  0  0  0  0  0  0  0  0  0
    9.2886  -18.0862   15.7566 C   0  0  0  0  0  0  0  0  0  0  0  0
    8.3880  -18.8684   16.1242 O   0  0  0  0  0  0  0  0  0  0  0  0
    9.2781  -15.2957   18.3165 C   0  0  0  0  0  0  0  0  0  0  0  0
   10.4206  -14.7967   18.3679 O   0  0  0  0  0  0  0  0  0  0  0  0
   10.2357  -18.5086   14.8464 O   0  0  0  0  0  0  0  0  0  0  0  0
    7.0154  -12.5961   19.5938 C   0  0  0  0  0  0  0  0  0  0  0  0
    8.3818  -13.2847   19.5262 C   0  0  2  0  0  0  0  0  0  0  0  0
    8.1859  -14.5299   18.8077 N   0  0  0  0  0  0  0  0  0  0  0  0
    8.7680  -13.5754   20.9228 C   0  0  0  0  0  0  0  0  0  0  0  0
    8.9719  -12.6007   21.7035 O   0  0  0  0  0  0  0  0  0  0  0  0
    8.1983  -15.9568   23.4255 C   0  0  0  0  0  0  0  0  0  0  0  0
    9.2679  -15.0952   22.7910 C   0  0  2  0  0  0  0  0  0  0  0  0
    8.9159  -14.9085   21.4107 N   0  0  0  0  0  0  0  0  0  0  0  0
   10.6124  -15.7132   22.9197 C   0  0  0  0  0  0  0  0  0  0  0  0
   11.1593  -16.1707   21.8843 O   0  0  0  0  0  0  0  0  0  0  0  0
   11.2981  -15.8172   24.1006 O   0  0  0  0  0  0  0  0  0  0  0  0
  2  1  1  6
  3  2  1  0
  3  4  1  0
  4  8  1  0
  4  5  2  0
  6  7  2  0
  6  2  1  0
 10  9  1  1
 10 12  1  0
 10 11  1  0
 11  6  1  0
 12 16  1  0
 13 12  2  0
 15 14  1  6
 15 17  1  0
 16 15  1  0
 17 18  2  0
 17 19  1  0
M  END
$$$$
