DAA.pdb
     RDKit          3D

 19 18  0  0  1  0  0  0  0  0999 V2000
    8.7893  -16.4121   15.6524 N   0  0  0  0  0  0  0  0  0  0  0  0
    8.3473  -16.2827   17.0120 C   0  0  1  0  0  0  0  0  0  0  0  0
    8.7294  -17.5303   17.7535 C   0  0  0  0  0  0  0  0  0  0  0  0
    8.2564  -18.7596   17.1110 C   0  0  0  0  0  0  0  0  0  0  0  0
    7.0965  -18.8226   16.6541 O   0  0  0  0  0  0  0  0  0  0  0  0
    8.8548  -15.0559   17.6499 C   0  0  0  0  0  0  0  0  0  0  0  0
   10.0698  -14.7733   17.6217 O   0  0  0  0  0  0  0  0  0  0  0  0
    9.0944  -19.8511   17.0102 O   0  0  0  0  0  0  0  0  0  0  0  0
    7.2131  -12.2124   19.4760 C   0  0  0  0  0  0  0  0  0  0  0  0
    8.4514  -12.9942   19.0273 C   0  0  2  0  0  0  0  0  0  0  0  0
    7.9707  -14.1628   18.3143 N   0  0  0  0  0  0  0  0  0  0  0  0
    9.1426  -13.4186   20.2626 C   0  0  0  0  0  0  0  0  0  0  0  0
    9.7272  -12.5359   20.9558 O   0  0  0  0  0  0  0  0  0  0  0  0
    9.1481  -16.1535   22.6371 C   0  0  0  0  0  0  0  0  0  0  0  0
    9.9272  -15.1103   21.8666 C   0  0  2  0  0  0  0  0  0  0  0  0
    9.1695  -14.7797   20.6915 N   0  0  0  0  0  0  0  0  0  0  0  0
   11.2831  -15.5986   21.5071 C   0  0  0  0  0  0  0  0  0  0  0  0
   12.0870  -15.8631   22.4367 O   0  0  0  0  0  0  0  0  0  0  0  0
   11.7159  -15.7801   20.2205 O   0  0  0  0  0  0  0  0  0  0  0  0
  2  1  1  6
  3  2  1  0
  3  4  1  0
  4  8  1  0
  4  5  2  0
  6  7  2  0
  6  2  1  0
 10  9  1  1
 10 12  1  0
 10 11  1  0
 11  6  1  0
 12 16  1  0
 13 12  2  0
 15 14  1  6
 15 17  1  0
 16 15  1  0
 17 18  2  0
 17 19  1  0
M  END
$$$$
