DAA.pdb
     RDKit          3D

 19 18  0  0  1  0  0  0  0  0999 V2000
    7.3808  -17.3422   18.7288 N   0  0  0  0  0  0  0  0  0  0  0  0
    8.7753  -17.1050   18.9733 C   0  0  1  0  0  0  0  0  0  0  0  0
    9.5062  -17.1966   17.6657 C   0  0  0  0  0  0  0  0  0  0  0  0
    9.2351  -18.4350   16.9305 C   0  0  0  0  0  0  0  0  0  0  0  0
    9.1549  -19.5216   17.5396 O   0  0  0  0  0  0  0  0  0  0  0  0
    9.0104  -15.8321   19.6760 C   0  0  0  0  0  0  0  0  0  0  0  0
   10.1673  -15.4577   19.9561 O   0  0  0  0  0  0  0  0  0  0  0  0
    9.0676  -18.4012   15.5614 O   0  0  0  0  0  0  0  0  0  0  0  0
    6.8517  -12.9294   20.6016 C   0  0  0  0  0  0  0  0  0  0  0  0
    8.1195  -13.7668   20.7948 C   0  0  2  0  0  0  0  0  0  0  0  0
    7.9227  -14.9980   20.0529 N   0  0  0  0  0  0  0  0  0  0  0  0
    8.2003  -14.0678   22.2393 C   0  0  0  0  0  0  0  0  0  0  0  0
    8.4310  -13.1140   23.0383 O   0  0  0  0  0  0  0  0  0  0  0  0
    7.0075  -16.6522   24.4954 C   0  0  0  0  0  0  0  0  0  0  0  0
    8.0157  -15.5695   24.1786 C   0  0  2  0  0  0  0  0  0  0  0  0
    8.0276  -15.3880   22.7534 N   0  0  0  0  0  0  0  0  0  0  0  0
    9.3681  -15.9202   24.6828 C   0  0  0  0  0  0  0  0  0  0  0  0
   10.2785  -16.1391   23.8439 O   0  0  0  0  0  0  0  0  0  0  0  0
    9.6884  -16.0210   26.0105 O   0  0  0  0  0  0  0  0  0  0  0  0
  2  1  1  6
  3  2  1  0
  3  4  1  0
  4  8  1  0
  4  5  2  0
  6  7  2  0
  6  2  1  0
 10  9  1  1
 10 12  1  0
 10 11  1  0
 11  6  1  0
 12 16  1  0
 13 12  2  0
 15 14  1  6
 15 17  1  0
 16 15  1  0
 17 18  2  0
 17 19  1  0
M  END
$$$$
