FVD.pdb
     RDKit          3D

 27 27  0  0  1  0  0  0  0  0999 V2000
   25.5886  -20.8896   -7.0949 N   0  0  0  0  0  0  0  0  0  0  0  0
   26.2892  -20.4024   -8.2702 C   0  0  1  0  0  0  0  0  0  0  0  0
   27.7696  -20.6553   -8.0846 C   0  0  0  0  0  0  0  0  0  0  0  0
   28.2137  -20.0003   -6.8315 C   0  0  0  0  0  0  0  0  0  0  0  0
   28.8341  -20.7530   -5.8641 C   0  0  0  0  0  0  0  0  0  0  0  0
   29.2382  -20.1206   -4.7049 C   0  0  0  0  0  0  0  0  0  0  0  0
   29.0262  -18.7610   -4.5158 C   0  0  0  0  0  0  0  0  0  0  0  0
   28.4032  -18.0211   -5.4945 C   0  0  0  0  0  0  0  0  0  0  0  0
   27.9990  -18.6673   -6.6608 C   0  0  0  0  0  0  0  0  0  0  0  0
   25.8566  -21.0834   -9.4995 C   0  0  0  0  0  0  0  0  0  0  0  0
   25.6788  -22.3169   -9.4662 O   0  0  0  0  0  0  0  0  0  0  0  0
   22.5304  -21.6151  -12.5462 C   0  0  0  0  0  0  0  0  0  0  0  0
   23.3450  -21.0218  -11.4138 C   0  0  2  0  0  0  0  0  0  0  0  0
   22.7005  -19.7552  -10.8768 C   0  0  0  0  0  0  0  0  0  0  0  0
   24.7793  -20.8361  -11.7719 C   0  0  2  0  0  0  0  0  0  0  0  0
   25.6338  -20.4099  -10.7108 N   0  0  0  0  0  0  0  0  0  0  0  0
   24.8602  -19.9203  -12.9490 C   0  0  0  0  0  0  0  0  0  0  0  0
   24.6102  -18.6980  -12.7479 O   0  0  0  0  0  0  0  0  0  0  0  0
   25.1920  -20.3260  -14.2455 N   0  0  0  0  0  0  0  0  0  0  0  0
   25.2649  -19.4331  -15.3918 C   0  0  1  0  0  0  0  0  0  0  0  0
   25.9858  -20.0002  -16.5637 C   0  0  0  0  0  0  0  0  0  0  0  0
   27.4237  -19.7244  -16.4568 C   0  0  0  0  0  0  0  0  0  0  0  0
   27.8942  -19.0476  -15.5162 O   0  0  0  0  0  0  0  0  0  0  0  0
   23.9246  -18.9710  -15.8048 C   0  0  0  0  0  0  0  0  0  0  0  0
   23.7526  -17.6707  -16.2195 O   0  0  0  0  0  0  0  0  0  0  0  0
   28.3487  -20.2040  -17.4024 O   0  0  0  0  0  0  0  0  0  0  0  0
   22.9526  -19.7463  -15.7807 O   0  0  0  0  0  0  0  0  0  0  0  0
  2  1  1  1
  3  2  1  0
  4  3  1  0
  4  5  2  0
  6  5  1  0
  7  6  2  0
  8  9  2  0
  8  7  1  0
  9  4  1  0
 10  2  1  0
 11 10  2  0
 13 15  1  0
 13 12  1  6
 14 13  1  0
 15 16  1  1
 16 10  1  0
 17 19  1  0
 17 15  1  0
 18 17  2  0
 20 19  1  0
 21 22  1  0
 20 21  1  6
 22 23  2  0
 22 26  1  0
 24 25  1  0
 24 20  1  0
 27 24  2  0
M  END
$$$$
