FVD.pdb
     RDKit          3D

 27 27  0  0  1  0  0  0  0  0999 V2000
   28.3052  -21.7745  -15.8499 N   0  0  0  0  0  0  0  0  0  0  0  0
   27.4026  -20.7461  -15.3629 C   0  0  1  0  0  0  0  0  0  0  0  0
   26.6559  -20.1655  -16.5441 C   0  0  0  0  0  0  0  0  0  0  0  0
   27.5769  -19.2937  -17.3110 C   0  0  0  0  0  0  0  0  0  0  0  0
   27.9861  -19.6859  -18.5625 C   0  0  0  0  0  0  0  0  0  0  0  0
   28.8449  -18.8572  -19.2574 C   0  0  0  0  0  0  0  0  0  0  0  0
   29.2868  -17.6588  -18.7118 C   0  0  0  0  0  0  0  0  0  0  0  0
   28.8677  -17.2803  -17.4569 C   0  0  0  0  0  0  0  0  0  0  0  0
   28.0012  -18.1224  -16.7631 C   0  0  0  0  0  0  0  0  0  0  0  0
   26.4160  -21.2758  -14.4100 C   0  0  0  0  0  0  0  0  0  0  0  0
   25.9296  -22.4041  -14.6215 O   0  0  0  0  0  0  0  0  0  0  0  0
   26.6782  -21.1528  -10.4069 C   0  0  0  0  0  0  0  0  0  0  0  0
   25.3377  -20.6359  -10.8902 C   0  0  2  0  0  0  0  0  0  0  0  0
   24.2221  -21.0193   -9.9327 C   0  0  0  0  0  0  0  0  0  0  0  0
   25.0480  -21.0173  -12.3011 C   0  0  2  0  0  0  0  0  0  0  0  0
   25.9948  -20.5707  -13.2716 N   0  0  0  0  0  0  0  0  0  0  0  0
   23.6613  -20.5759  -12.6373 C   0  0  0  0  0  0  0  0  0  0  0  0
   23.4701  -19.3356  -12.7858 O   0  0  0  0  0  0  0  0  0  0  0  0
   22.5730  -21.4396  -12.7966 N   0  0  0  0  0  0  0  0  0  0  0  0
   21.2372  -21.0140  -13.1851 C   0  0  1  0  0  0  0  0  0  0  0  0
   20.5621  -21.9238  -14.1501 C   0  0  0  0  0  0  0  0  0  0  0  0
   19.2564  -21.3752  -14.5362 C   0  0  0  0  0  0  0  0  0  0  0  0
   19.1464  -20.5139  -15.4364 O   0  0  0  0  0  0  0  0  0  0  0  0
   20.3717  -20.8030  -12.0074 C   0  0  0  0  0  0  0  0  0  0  0  0
   19.4402  -19.7910  -12.0219 O   0  0  0  0  0  0  0  0  0  0  0  0
   18.0611  -21.7860  -13.9179 O   0  0  0  0  0  0  0  0  0  0  0  0
   20.4783  -21.5314  -11.0051 O   0  0  0  0  0  0  0  0  0  0  0  0
  2  1  1  6
  3  2  1  0
  4  3  1  0
  4  5  2  0
  6  5  1  0
  7  6  2  0
  8  9  2  0
  8  7  1  0
  9  4  1  0
 10  2  1  0
 11 10  2  0
 13 15  1  0
 13 12  1  1
 14 13  1  0
 15 16  1  6
 16 10  1  0
 17 19  1  0
 17 15  1  0
 18 17  2  0
 20 19  1  0
 21 22  1  0
 20 21  1  6
 22 23  2  0
 22 26  1  0
 24 25  1  0
 24 20  1  0
 27 24  2  0
M  END
$$$$
