FVD.pdb
     RDKit          3D

 27 27  0  0  1  0  0  0  0  0999 V2000
   19.8417  -10.0267  -17.2120 N   0  0  0  0  0  0  0  0  0  0  0  0
   19.4900   -8.7139  -16.6999 C   0  0  1  0  0  0  0  0  0  0  0  0
   18.1584   -8.3089  -17.2940 C   0  0  0  0  0  0  0  0  0  0  0  0
   18.3585   -7.9526  -18.7186 C   0  0  0  0  0  0  0  0  0  0  0  0
   18.8359   -6.7046  -19.0377 C   0  0  0  0  0  0  0  0  0  0  0  0
   19.0133   -6.3955  -20.3719 C   0  0  0  0  0  0  0  0  0  0  0  0
   18.7190   -7.3166  -21.3690 C   0  0  0  0  0  0  0  0  0  0  0  0
   18.2415   -8.5626  -21.0328 C   0  0  0  0  0  0  0  0  0  0  0  0
   18.0656   -8.8658  -19.6843 C   0  0  0  0  0  0  0  0  0  0  0  0
   19.3629   -8.7024  -15.2351 C   0  0  0  0  0  0  0  0  0  0  0  0
   18.7057   -9.6090  -14.6870 O   0  0  0  0  0  0  0  0  0  0  0  0
   21.9795   -6.2728  -12.6900 C   0  0  0  0  0  0  0  0  0  0  0  0
   21.2620   -7.5604  -12.3364 C   0  0  2  0  0  0  0  0  0  0  0  0
   22.1502   -8.7694  -12.5762 C   0  0  0  0  0  0  0  0  0  0  0  0
   19.9312   -7.6780  -12.9961 C   0  0  2  0  0  0  0  0  0  0  0  0
   19.9472   -7.7178  -14.4229 N   0  0  0  0  0  0  0  0  0  0  0  0
   19.0488   -6.5878  -12.4830 C   0  0  0  0  0  0  0  0  0  0  0  0
   19.0542   -5.4942  -13.1164 O   0  0  0  0  0  0  0  0  0  0  0  0
   18.2255   -6.6998  -11.3581 N   0  0  0  0  0  0  0  0  0  0  0  0
   17.3979   -5.6233  -10.8359 C   0  0  1  0  0  0  0  0  0  0  0  0
   15.9824   -5.6632  -11.2937 C   0  0  0  0  0  0  0  0  0  0  0  0
   15.2371   -4.5276  -10.7370 C   0  0  0  0  0  0  0  0  0  0  0  0
   15.1239   -3.4484  -11.3589 O   0  0  0  0  0  0  0  0  0  0  0  0
   17.4452   -5.5702   -9.3609 C   0  0  0  0  0  0  0  0  0  0  0  0
   16.9979   -4.4454   -8.7074 O   0  0  0  0  0  0  0  0  0  0  0  0
   14.6113   -4.5897   -9.4783 O   0  0  0  0  0  0  0  0  0  0  0  0
   17.8851   -6.5320   -8.7068 O   0  0  0  0  0  0  0  0  0  0  0  0
  2  1  1  6
  3  2  1  0
  4  3  1  0
  4  5  2  0
  6  5  1  0
  7  6  2  0
  8  9  2  0
  8  7  1  0
  9  4  1  0
 10  2  1  0
 11 10  2  0
 13 15  1  0
 13 12  1  6
 14 13  1  0
 15 16  1  6
 16 10  1  0
 17 19  1  0
 17 15  1  0
 18 17  2  0
 20 19  1  0
 21 22  1  0
 20 21  1  1
 22 23  2  0
 22 26  1  0
 24 25  1  0
 24 20  1  0
 27 24  2  0
M  END
$$$$
