FVD.pdb
     RDKit          3D

 27 27  0  0  1  0  0  0  0  0999 V2000
   23.0603  -20.7089  -15.2120 N   0  0  0  0  0  0  0  0  0  0  0  0
   22.2661  -20.1108  -14.1532 C   0  0  1  0  0  0  0  0  0  0  0  0
   20.8477  -19.9447  -14.6539 C   0  0  0  0  0  0  0  0  0  0  0  0
   20.8350  -18.9203  -15.7248 C   0  0  0  0  0  0  0  0  0  0  0  0
   20.7724  -19.3219  -17.0371 C   0  0  0  0  0  0  0  0  0  0  0  0
   20.7625  -18.3491  -18.0172 C   0  0  0  0  0  0  0  0  0  0  0  0
   20.8143  -16.9997  -17.6920 C   0  0  0  0  0  0  0  0  0  0  0  0
   20.8769  -16.6139  -16.3726 C   0  0  0  0  0  0  0  0  0  0  0  0
   20.8863  -17.6020  -15.3905 C   0  0  0  0  0  0  0  0  0  0  0  0
   22.2322  -20.9447  -12.9427 C   0  0  0  0  0  0  0  0  0  0  0  0
   22.0631  -22.1733  -13.0702 O   0  0  0  0  0  0  0  0  0  0  0  0
   23.2474  -21.5506   -8.1200 C   0  0  0  0  0  0  0  0  0  0  0  0
   23.2863  -20.6847   -9.3636 C   0  0  2  0  0  0  0  0  0  0  0  0
   23.0838  -19.2186   -9.0202 C   0  0  0  0  0  0  0  0  0  0  0  0
   22.3614  -21.1644  -10.4286 C   0  0  2  0  0  0  0  0  0  0  0  0
   22.3811  -20.4227  -11.6481 N   0  0  0  0  0  0  0  0  0  0  0  0
   20.9842  -21.2526   -9.8572 C   0  0  0  0  0  0  0  0  0  0  0  0
   20.2331  -20.2468  -10.0026 O   0  0  0  0  0  0  0  0  0  0  0  0
   20.4791  -22.3664   -9.1790 N   0  0  0  0  0  0  0  0  0  0  0  0
   19.0663  -22.5998   -8.9218 C   0  0  1  0  0  0  0  0  0  0  0  0
   18.3313  -23.2155  -10.0599 C   0  0  0  0  0  0  0  0  0  0  0  0
   16.9284  -23.4446   -9.6932 C   0  0  0  0  0  0  0  0  0  0  0  0
   16.4638  -24.5985   -9.5629 O   0  0  0  0  0  0  0  0  0  0  0  0
   18.8637  -23.4056   -7.7010 C   0  0  0  0  0  0  0  0  0  0  0  0
   19.9491  -23.9704   -7.0724 O   0  0  0  0  0  0  0  0  0  0  0  0
   16.0320  -22.3834   -9.4688 O   0  0  0  0  0  0  0  0  0  0  0  0
   17.7223  -23.5771   -7.2381 O   0  0  0  0  0  0  0  0  0  0  0  0
  2  1  1  6
  3  2  1  0
  4  3  1  0
  4  5  2  0
  6  5  1  0
  7  6  2  0
  8  9  2  0
  8  7  1  0
  9  4  1  0
 10  2  1  0
 11 10  2  0
 13 15  1  0
 13 12  1  1
 14 13  1  0
 15 16  1  6
 16 10  1  0
 17 19  1  0
 17 15  1  0
 18 17  2  0
 20 19  1  0
 21 22  1  0
 20 21  1  6
 22 23  2  0
 22 26  1  0
 24 25  1  0
 24 20  1  0
 27 24  2  0
M  END
$$$$
