FVD.pdb
     RDKit          3D

 27 27  0  0  1  0  0  0  0  0999 V2000
   28.0096  -19.7340  -16.0973 N   0  0  0  0  0  0  0  0  0  0  0  0
   27.1831  -19.2094  -15.0243 C   0  0  1  0  0  0  0  0  0  0  0  0
   26.2193  -18.2011  -15.6112 C   0  0  0  0  0  0  0  0  0  0  0  0
   26.9225  -16.9070  -15.7767 C   0  0  0  0  0  0  0  0  0  0  0  0
   27.0407  -16.0646  -14.6979 C   0  0  0  0  0  0  0  0  0  0  0  0
   27.6994  -14.8641  -14.8769 C   0  0  0  0  0  0  0  0  0  0  0  0
   28.2302  -14.5119  -16.1111 C   0  0  0  0  0  0  0  0  0  0  0  0
   28.1033  -15.3668  -17.1818 C   0  0  0  0  0  0  0  0  0  0  0  0
   27.4373  -16.5758  -16.9922 C   0  0  0  0  0  0  0  0  0  0  0  0
   26.4001  -20.2610  -14.3585 C   0  0  0  0  0  0  0  0  0  0  0  0
   26.1072  -21.2855  -15.0056 O   0  0  0  0  0  0  0  0  0  0  0  0
   25.1406  -20.1381  -10.0238 C   0  0  0  0  0  0  0  0  0  0  0  0
   25.5230  -21.3229  -10.8886 C   0  0  2  0  0  0  0  0  0  0  0  0
   26.9772  -21.7103  -10.6800 C   0  0  0  0  0  0  0  0  0  0  0  0
   25.1755  -21.1244  -12.3238 C   0  0  2  0  0  0  0  0  0  0  0  0
   25.9660  -20.1661  -13.0270 N   0  0  0  0  0  0  0  0  0  0  0  0
   23.7172  -20.8168  -12.4212 C   0  0  0  0  0  0  0  0  0  0  0  0
   23.3640  -19.6214  -12.2134 O   0  0  0  0  0  0  0  0  0  0  0  0
   22.7287  -21.7583  -12.7250 N   0  0  0  0  0  0  0  0  0  0  0  0
   21.4103  -21.4264  -13.2431 C   0  0  1  0  0  0  0  0  0  0  0  0
   21.1857  -21.8417  -14.6544 C   0  0  0  0  0  0  0  0  0  0  0  0
   19.8086  -21.5353  -15.0603 C   0  0  0  0  0  0  0  0  0  0  0  0
   19.3198  -20.3934  -14.9143 O   0  0  0  0  0  0  0  0  0  0  0  0
   20.3384  -21.9700  -12.3852 C   0  0  0  0  0  0  0  0  0  0  0  0
   20.6569  -22.8463  -11.3738 O   0  0  0  0  0  0  0  0  0  0  0  0
   18.9655  -22.5050  -15.6336 O   0  0  0  0  0  0  0  0  0  0  0  0
   19.1530  -21.6425  -12.5695 O   0  0  0  0  0  0  0  0  0  0  0  0
  2  1  1  6
  3  2  1  0
  4  3  1  0
  4  5  2  0
  6  5  1  0
  7  6  2  0
  8  9  2  0
  8  7  1  0
  9  4  1  0
 10  2  1  0
 11 10  2  0
 13 15  1  0
 13 12  1  1
 14 13  1  0
 15 16  1  1
 16 10  1  0
 17 19  1  0
 17 15  1  0
 18 17  2  0
 20 19  1  0
 21 22  1  0
 20 21  1  6
 22 23  2  0
 22 26  1  0
 24 25  1  0
 24 20  1  0
 27 24  2  0
M  END
$$$$
