FVD.pdb
     RDKit          3D

 27 27  0  0  1  0  0  0  0  0999 V2000
   17.9888  -12.0784  -17.6585 N   0  0  0  0  0  0  0  0  0  0  0  0
   19.0078  -11.0727  -17.9027 C   0  0  1  0  0  0  0  0  0  0  0  0
   18.4067   -9.9798  -18.7596 C   0  0  0  0  0  0  0  0  0  0  0  0
   18.1254  -10.5284  -20.1072 C   0  0  0  0  0  0  0  0  0  0  0  0
   19.1690  -10.7512  -20.9725 C   0  0  0  0  0  0  0  0  0  0  0  0
   18.8819  -11.2622  -22.2229 C   0  0  0  0  0  0  0  0  0  0  0  0
   17.5759  -11.5453  -22.6018 C   0  0  0  0  0  0  0  0  0  0  0  0
   16.5417  -11.3164  -21.7234 C   0  0  0  0  0  0  0  0  0  0  0  0
   16.8406  -10.8008  -20.4641 C   0  0  0  0  0  0  0  0  0  0  0  0
   19.4997  -10.4636  -16.6581 C   0  0  0  0  0  0  0  0  0  0  0  0
   18.7044  -10.3245  -15.7081 O   0  0  0  0  0  0  0  0  0  0  0  0
   23.0004   -9.4769  -13.4178 C   0  0  0  0  0  0  0  0  0  0  0  0
   22.5113  -10.1476  -14.6862 C   0  0  2  0  0  0  0  0  0  0  0  0
   23.6572  -10.4049  -15.6500 C   0  0  0  0  0  0  0  0  0  0  0  0
   21.3729   -9.4235  -15.3185 C   0  0  2  0  0  0  0  0  0  0  0  0
   20.8241  -10.0305  -16.4881 N   0  0  0  0  0  0  0  0  0  0  0  0
   21.7899   -8.0118  -15.5717 C   0  0  0  0  0  0  0  0  0  0  0  0
   22.0571   -7.6939  -16.7652 O   0  0  0  0  0  0  0  0  0  0  0  0
   21.9016   -7.0303  -14.5819 N   0  0  0  0  0  0  0  0  0  0  0  0
   21.9414   -5.6000  -14.8447 C   0  0  1  0  0  0  0  0  0  0  0  0
   20.7492   -5.0776  -15.5662 C   0  0  0  0  0  0  0  0  0  0  0  0
   20.8690   -3.6274  -15.7604 C   0  0  0  0  0  0  0  0  0  0  0  0
   20.2389   -2.8154  -15.0478 O   0  0  0  0  0  0  0  0  0  0  0  0
   22.1542   -4.8268  -13.6048 C   0  0  0  0  0  0  0  0  0  0  0  0
   21.9379   -5.4260  -12.3855 O   0  0  0  0  0  0  0  0  0  0  0  0
   21.6957   -3.0726  -16.7547 O   0  0  0  0  0  0  0  0  0  0  0  0
   22.5264   -3.6413  -13.6542 O   0  0  0  0  0  0  0  0  0  0  0  0
  2  1  1  1
  3  2  1  0
  4  3  1  0
  4  5  2  0
  6  5  1  0
  7  6  2  0
  8  9  2  0
  8  7  1  0
  9  4  1  0
 10  2  1  0
 11 10  2  0
 13 15  1  0
 13 12  1  1
 14 13  1  0
 15 16  1  6
 16 10  1  0
 17 19  1  0
 17 15  1  0
 18 17  2  0
 20 19  1  0
 21 22  1  0
 20 21  1  1
 22 23  2  0
 22 26  1  0
 24 25  1  0
 24 20  1  0
 27 24  2  0
M  END
$$$$
