FVD.pdb
     RDKit          3D

 27 27  0  0  1  0  0  0  0  0999 V2000
   18.0756   -9.8284  -13.4136 N   0  0  0  0  0  0  0  0  0  0  0  0
   18.2118   -8.9144  -12.2931 C   0  0  1  0  0  0  0  0  0  0  0  0
   19.3219   -7.9347  -12.6062 C   0  0  0  0  0  0  0  0  0  0  0  0
   20.6087   -8.6684  -12.6526 C   0  0  0  0  0  0  0  0  0  0  0  0
   21.1422   -9.1623  -11.4869 C   0  0  0  0  0  0  0  0  0  0  0  0
   22.3425   -9.8417  -11.5554 C   0  0  0  0  0  0  0  0  0  0  0  0
   22.9978  -10.0242  -12.7664 C   0  0  0  0  0  0  0  0  0  0  0  0
   22.4502   -9.5232  -13.9251 C   0  0  0  0  0  0  0  0  0  0  0  0
   21.2390   -8.8392  -13.8467 C   0  0  0  0  0  0  0  0  0  0  0  0
   16.9805   -8.1503  -12.0439 C   0  0  0  0  0  0  0  0  0  0  0  0
   16.2927   -7.7937  -13.0207 O   0  0  0  0  0  0  0  0  0  0  0  0
   15.1576   -7.9057   -8.0448 C   0  0  0  0  0  0  0  0  0  0  0  0
   14.4778   -7.8344   -9.3978 C   0  0  2  0  0  0  0  0  0  0  0  0
   13.9899   -9.2030   -9.8416 C   0  0  0  0  0  0  0  0  0  0  0  0
   15.3133   -7.1544  -10.4271 C   0  0  2  0  0  0  0  0  0  0  0  0
   16.5417   -7.8026  -10.7566 N   0  0  0  0  0  0  0  0  0  0  0  0
   15.5314   -5.7391  -10.0026 C   0  0  0  0  0  0  0  0  0  0  0  0
   16.5446   -5.5007   -9.2860 O   0  0  0  0  0  0  0  0  0  0  0  0
   14.6940   -4.6727  -10.3447 N   0  0  0  0  0  0  0  0  0  0  0  0
   14.8943   -3.2991   -9.9093 C   0  0  1  0  0  0  0  0  0  0  0  0
   14.2215   -2.2827  -10.7632 C   0  0  0  0  0  0  0  0  0  0  0  0
   15.0179   -2.0264  -11.9695 C   0  0  0  0  0  0  0  0  0  0  0  0
   16.1228   -2.5816  -12.1570 O   0  0  0  0  0  0  0  0  0  0  0  0
   14.4929   -3.1133   -8.5004 C   0  0  0  0  0  0  0  0  0  0  0  0
   14.9985   -2.0529   -7.7846 O   0  0  0  0  0  0  0  0  0  0  0  0
   14.5845   -1.1456  -12.9776 O   0  0  0  0  0  0  0  0  0  0  0  0
   13.7035   -3.9060   -7.9574 O   0  0  0  0  0  0  0  0  0  0  0  0
  2  1  1  6
  3  2  1  0
  4  3  1  0
  4  5  2  0
  6  5  1  0
  7  6  2  0
  8  9  2  0
  8  7  1  0
  9  4  1  0
 10  2  1  0
 11 10  2  0
 13 15  1  0
 13 12  1  1
 14 13  1  0
 15 16  1  1
 16 10  1  0
 17 19  1  0
 17 15  1  0
 18 17  2  0
 20 19  1  0
 21 22  1  0
 20 21  1  6
 22 23  2  0
 22 26  1  0
 24 25  1  0
 24 20  1  0
 27 24  2  0
M  END
$$$$
