FVD.pdb
     RDKit          3D

 27 27  0  0  1  0  0  0  0  0999 V2000
   19.5160  -12.3729  -18.9470 N   0  0  0  0  0  0  0  0  0  0  0  0
   20.1796  -11.0812  -18.9200 C   0  0  1  0  0  0  0  0  0  0  0  0
   19.3392  -10.0944  -19.7010 C   0  0  0  0  0  0  0  0  0  0  0  0
   19.5371  -10.3382  -21.1494 C   0  0  0  0  0  0  0  0  0  0  0  0
   20.6490   -9.8234  -21.7708 C   0  0  0  0  0  0  0  0  0  0  0  0
   20.8113  -10.0632  -23.1211 C   0  0  0  0  0  0  0  0  0  0  0  0
   19.8796  -10.8037  -23.8373 C   0  0  0  0  0  0  0  0  0  0  0  0
   18.7712  -11.3124  -23.2001 C   0  0  0  0  0  0  0  0  0  0  0  0
   18.6156  -11.0656  -21.8377 C   0  0  0  0  0  0  0  0  0  0  0  0
   20.3420  -10.5662  -17.5524 C   0  0  0  0  0  0  0  0  0  0  0  0
   19.4109  -10.7299  -16.7397 O   0  0  0  0  0  0  0  0  0  0  0  0
   22.9873  -11.2856  -14.8679 C   0  0  0  0  0  0  0  0  0  0  0  0
   22.9644   -9.7930  -15.1315 C   0  0  2  0  0  0  0  0  0  0  0  0
   23.2545   -9.0057  -13.8649 C   0  0  0  0  0  0  0  0  0  0  0  0
   21.7193   -9.3485  -15.8187 C   0  0  2  0  0  0  0  0  0  0  0  0
   21.4973   -9.8979  -17.1174 N   0  0  0  0  0  0  0  0  0  0  0  0
   21.6948   -7.8553  -15.8382 C   0  0  0  0  0  0  0  0  0  0  0  0
   22.4461   -7.2763  -16.6731 O   0  0  0  0  0  0  0  0  0  0  0  0
   20.9010   -7.0662  -14.9998 N   0  0  0  0  0  0  0  0  0  0  0  0
   20.8970   -5.6114  -15.0035 C   0  0  1  0  0  0  0  0  0  0  0  0
   19.5388   -5.0037  -14.9767 C   0  0  0  0  0  0  0  0  0  0  0  0
   19.6358   -3.5410  -15.0563 C   0  0  0  0  0  0  0  0  0  0  0  0
   19.9515   -2.9609  -16.1185 O   0  0  0  0  0  0  0  0  0  0  0  0
   21.7115   -5.0644  -13.8999 C   0  0  0  0  0  0  0  0  0  0  0  0
   22.4276   -3.9060  -14.0940 O   0  0  0  0  0  0  0  0  0  0  0  0
   19.3803   -2.7139  -13.9471 O   0  0  0  0  0  0  0  0  0  0  0  0
   21.7549   -5.6415  -12.7991 O   0  0  0  0  0  0  0  0  0  0  0  0
  2  1  1  1
  3  2  1  0
  4  3  1  0
  4  5  2  0
  6  5  1  0
  7  6  2  0
  8  9  2  0
  8  7  1  0
  9  4  1  0
 10  2  1  0
 11 10  2  0
 13 15  1  0
 13 12  1  1
 14 13  1  0
 15 16  1  6
 16 10  1  0
 17 19  1  0
 17 15  1  0
 18 17  2  0
 20 19  1  0
 21 22  1  0
 20 21  1  1
 22 23  2  0
 22 26  1  0
 24 25  1  0
 24 20  1  0
 27 24  2  0
M  END
$$$$
