FVD.pdb
     RDKit          3D

 27 27  0  0  1  0  0  0  0  0999 V2000
   24.1521  -19.1937  -16.2534 N   0  0  0  0  0  0  0  0  0  0  0  0
   22.9779  -18.9562  -15.4321 C   0  0  1  0  0  0  0  0  0  0  0  0
   21.7925  -18.7295  -16.3450 C   0  0  0  0  0  0  0  0  0  0  0  0
   21.9498  -17.4179  -17.0169 C   0  0  0  0  0  0  0  0  0  0  0  0
   22.2797  -17.3819  -18.3500 C   0  0  0  0  0  0  0  0  0  0  0  0
   22.4214  -16.1480  -18.9538 C   0  0  0  0  0  0  0  0  0  0  0  0
   22.2369  -14.9717  -18.2386 C   0  0  0  0  0  0  0  0  0  0  0  0
   21.9067  -15.0249  -16.9039 C   0  0  0  0  0  0  0  0  0  0  0  0
   21.7657  -16.2740  -16.3029 C   0  0  0  0  0  0  0  0  0  0  0  0
   22.6716  -20.0954  -14.5544 C   0  0  0  0  0  0  0  0  0  0  0  0
   22.6935  -21.2437  -15.0393 O   0  0  0  0  0  0  0  0  0  0  0  0
   22.6321  -19.7469  -10.1453 C   0  0  0  0  0  0  0  0  0  0  0  0
   22.9842  -20.9362  -11.0168 C   0  0  2  0  0  0  0  0  0  0  0  0
   24.4763  -20.9907  -11.2974 C   0  0  0  0  0  0  0  0  0  0  0  0
   22.1579  -21.0078  -12.2546 C   0  0  2  0  0  0  0  0  0  0  0  0
   22.3551  -19.9516  -13.1944 N   0  0  0  0  0  0  0  0  0  0  0  0
   20.7230  -21.1372  -11.8610 C   0  0  0  0  0  0  0  0  0  0  0  0
   20.1083  -20.0745  -11.5612 O   0  0  0  0  0  0  0  0  0  0  0  0
   20.0243  -22.3473  -11.8042 N   0  0  0  0  0  0  0  0  0  0  0  0
   18.6322  -22.4734  -11.4012 C   0  0  1  0  0  0  0  0  0  0  0  0
   17.7665  -23.1588  -12.3990 C   0  0  0  0  0  0  0  0  0  0  0  0
   18.3842  -24.4206  -12.8247 C   0  0  0  0  0  0  0  0  0  0  0  0
   19.4442  -24.8393  -12.3096 O   0  0  0  0  0  0  0  0  0  0  0  0
   18.5060  -23.1386  -10.0889 C   0  0  0  0  0  0  0  0  0  0  0  0
   17.2857  -23.1631   -9.4546 O   0  0  0  0  0  0  0  0  0  0  0  0
   17.8207  -25.2258  -13.8316 O   0  0  0  0  0  0  0  0  0  0  0  0
   19.4921  -23.6756   -9.5542 O   0  0  0  0  0  0  0  0  0  0  0  0
  2  1  1  6
  3  2  1  0
  4  3  1  0
  4  5  2  0
  6  5  1  0
  7  6  2  0
  8  9  2  0
  8  7  1  0
  9  4  1  0
 10  2  1  0
 11 10  2  0
 13 15  1  0
 13 12  1  6
 14 13  1  0
 15 16  1  1
 16 10  1  0
 17 19  1  0
 17 15  1  0
 18 17  2  0
 20 19  1  0
 21 22  1  0
 20 21  1  6
 22 23  2  0
 22 26  1  0
 24 25  1  0
 24 20  1  0
 27 24  2  0
M  END
$$$$
