FVD.pdb
     RDKit          3D

 27 27  0  0  1  0  0  0  0  0999 V2000
   20.2882  -12.9805  -18.4487 N   0  0  0  0  0  0  0  0  0  0  0  0
   20.7886  -11.6180  -18.5007 C   0  0  1  0  0  0  0  0  0  0  0  0
   19.8988  -10.8158  -19.4252 C   0  0  0  0  0  0  0  0  0  0  0  0
   20.0662  -11.3212  -20.8083 C   0  0  0  0  0  0  0  0  0  0  0  0
   19.0587  -12.0601  -21.3795 C   0  0  0  0  0  0  0  0  0  0  0  0
   19.2381  -12.5207  -22.6690 C   0  0  0  0  0  0  0  0  0  0  0  0
   20.4028  -12.2480  -23.3748 C   0  0  0  0  0  0  0  0  0  0  0  0
   21.4027  -11.5064  -22.7884 C   0  0  0  0  0  0  0  0  0  0  0  0
   21.2132  -11.0458  -21.4872 C   0  0  0  0  0  0  0  0  0  0  0  0
   20.7828  -10.9710  -17.1804 C   0  0  0  0  0  0  0  0  0  0  0  0
   19.8590  -11.2419  -16.3883 O   0  0  0  0  0  0  0  0  0  0  0  0
   24.3004   -9.4023  -15.1795 C   0  0  0  0  0  0  0  0  0  0  0  0
   22.9411   -9.7623  -14.6133 C   0  0  2  0  0  0  0  0  0  0  0  0
   22.8882  -11.2217  -14.1941 C   0  0  0  0  0  0  0  0  0  0  0  0
   21.8206   -9.3771  -15.5166 C   0  0  2  0  0  0  0  0  0  0  0  0
   21.7693  -10.0612  -16.7685 N   0  0  0  0  0  0  0  0  0  0  0  0
   21.8441   -7.8947  -15.6971 C   0  0  0  0  0  0  0  0  0  0  0  0
   22.5934   -7.4353  -16.6051 O   0  0  0  0  0  0  0  0  0  0  0  0
   21.0970   -6.9928  -14.9328 N   0  0  0  0  0  0  0  0  0  0  0  0
   21.1481   -5.5470  -15.0867 C   0  0  1  0  0  0  0  0  0  0  0  0
   19.8144   -4.8973  -15.2048 C   0  0  0  0  0  0  0  0  0  0  0  0
   19.9709   -3.4681  -15.5014 C   0  0  0  0  0  0  0  0  0  0  0  0
   19.8742   -2.5978  -14.6083 O   0  0  0  0  0  0  0  0  0  0  0  0
   21.9186   -4.9131  -13.9981 C   0  0  0  0  0  0  0  0  0  0  0  0
   22.5565   -3.7158  -14.2258 O   0  0  0  0  0  0  0  0  0  0  0  0
   20.2373   -2.9997  -16.8012 O   0  0  0  0  0  0  0  0  0  0  0  0
   21.9950   -5.4519  -12.8799 O   0  0  0  0  0  0  0  0  0  0  0  0
  2  1  1  1
  3  2  1  0
  4  3  1  0
  4  5  2  0
  6  5  1  0
  7  6  2  0
  8  9  2  0
  8  7  1  0
  9  4  1  0
 10  2  1  0
 11 10  2  0
 13 15  1  0
 13 12  1  6
 14 13  1  0
 15 16  1  6
 16 10  1  0
 17 19  1  0
 17 15  1  0
 18 17  2  0
 20 19  1  0
 21 22  1  0
 20 21  1  1
 22 23  2  0
 22 26  1  0
 24 25  1  0
 24 20  1  0
 27 24  2  0
M  END
$$$$
