FVD.pdb
     RDKit          3D

 27 27  0  0  1  0  0  0  0  0999 V2000
   27.2256  -22.4201   -9.6533 N   0  0  0  0  0  0  0  0  0  0  0  0
   26.7223  -21.1130  -10.0373 C   0  0  1  0  0  0  0  0  0  0  0  0
   27.8164  -20.0925   -9.8098 C   0  0  0  0  0  0  0  0  0  0  0  0
   28.0248  -19.9314   -8.3513 C   0  0  0  0  0  0  0  0  0  0  0  0
   27.2187  -19.0682   -7.6494 C   0  0  0  0  0  0  0  0  0  0  0  0
   27.4326  -18.9344   -6.2917 C   0  0  0  0  0  0  0  0  0  0  0  0
   28.4335  -19.6499   -5.6472 C   0  0  0  0  0  0  0  0  0  0  0  0
   29.2324  -20.5105   -6.3645 C   0  0  0  0  0  0  0  0  0  0  0  0
   29.0095  -20.6393   -7.7338 C   0  0  0  0  0  0  0  0  0  0  0  0
   26.3310  -21.0601  -11.4537 C   0  0  0  0  0  0  0  0  0  0  0  0
   27.2044  -21.2592  -12.3208 O   0  0  0  0  0  0  0  0  0  0  0  0
   22.7857  -22.5572  -12.8204 C   0  0  0  0  0  0  0  0  0  0  0  0
   23.9536  -22.1109  -13.6776 C   0  0  2  0  0  0  0  0  0  0  0  0
   24.9873  -23.2155  -13.8180 C   0  0  0  0  0  0  0  0  0  0  0  0
   24.5421  -20.8201  -13.2222 C   0  0  2  0  0  0  0  0  0  0  0  0
   25.0190  -20.7956  -11.8769 N   0  0  0  0  0  0  0  0  0  0  0  0
   23.5530  -19.7306  -13.4782 C   0  0  0  0  0  0  0  0  0  0  0  0
   23.0240  -19.1822  -12.4700 O   0  0  0  0  0  0  0  0  0  0  0  0
   23.1797  -19.2839  -14.7497 N   0  0  0  0  0  0  0  0  0  0  0  0
   22.1459  -18.2915  -15.0005 C   0  0  1  0  0  0  0  0  0  0  0  0
   22.1634  -17.7248  -16.3765 C   0  0  0  0  0  0  0  0  0  0  0  0
   21.1038  -16.7196  -16.5246 C   0  0  0  0  0  0  0  0  0  0  0  0
   19.9263  -17.0421  -16.7964 O   0  0  0  0  0  0  0  0  0  0  0  0
   20.8015  -18.8201  -14.6944 C   0  0  0  0  0  0  0  0  0  0  0  0
   19.8811  -18.0127  -14.0674 O   0  0  0  0  0  0  0  0  0  0  0  0
   21.3526  -15.3434  -16.3696 O   0  0  0  0  0  0  0  0  0  0  0  0
   20.4959  -19.9866  -14.9982 O   0  0  0  0  0  0  0  0  0  0  0  0
  2  1  1  6
  3  2  1  0
  4  3  1  0
  4  5  2  0
  6  5  1  0
  7  6  2  0
  8  9  2  0
  8  7  1  0
  9  4  1  0
 10  2  1  0
 11 10  2  0
 13 15  1  0
 13 12  1  1
 14 13  1  0
 15 16  1  1
 16 10  1  0
 17 19  1  0
 17 15  1  0
 18 17  2  0
 20 19  1  0
 21 22  1  0
 20 21  1  6
 22 23  2  0
 22 26  1  0
 24 25  1  0
 24 20  1  0
 27 24  2  0
M  END
$$$$
