FVD.pdb
     RDKit          3D

 27 27  0  0  1  0  0  0  0  0999 V2000
   23.6178  -16.8714  -15.7880 N   0  0  0  0  0  0  0  0  0  0  0  0
   23.5941  -15.6507  -16.5747 C   0  0  1  0  0  0  0  0  0  0  0  0
   22.1798  -15.4226  -17.0625 C   0  0  0  0  0  0  0  0  0  0  0  0
   21.8331  -16.4831  -18.0379 C   0  0  0  0  0  0  0  0  0  0  0  0
   21.0607  -17.5436  -17.6301 C   0  0  0  0  0  0  0  0  0  0  0  0
   20.7514  -18.5197  -18.5568 C   0  0  0  0  0  0  0  0  0  0  0  0
   21.2056  -18.4377  -19.8668 C   0  0  0  0  0  0  0  0  0  0  0  0
   21.9785  -17.3690  -20.2594 C   0  0  0  0  0  0  0  0  0  0  0  0
   22.2856  -16.3889  -19.3180 C   0  0  0  0  0  0  0  0  0  0  0  0
   24.0064  -14.4755  -15.7931 C   0  0  0  0  0  0  0  0  0  0  0  0
   23.7539  -14.4533  -14.5725 O   0  0  0  0  0  0  0  0  0  0  0  0
   27.5159  -12.9981  -15.4926 C   0  0  0  0  0  0  0  0  0  0  0  0
   26.5745  -11.8734  -15.8758 C   0  0  2  0  0  0  0  0  0  0  0  0
   26.9738  -10.5692  -15.2066 C   0  0  0  0  0  0  0  0  0  0  0  0
   25.1423  -12.2222  -15.6591 C   0  0  2  0  0  0  0  0  0  0  0  0
   24.6719  -13.3754  -16.3566 N   0  0  0  0  0  0  0  0  0  0  0  0
   24.3101  -11.0182  -15.9567 C   0  0  0  0  0  0  0  0  0  0  0  0
   24.1427  -10.7180  -17.1728 O   0  0  0  0  0  0  0  0  0  0  0  0
   23.7106  -10.2110  -14.9847 N   0  0  0  0  0  0  0  0  0  0  0  0
   22.8616   -9.0665  -15.2776 C   0  0  1  0  0  0  0  0  0  0  0  0
   22.0758   -8.5744  -14.1135 C   0  0  0  0  0  0  0  0  0  0  0  0
   21.1874   -7.4813  -14.5268 C   0  0  0  0  0  0  0  0  0  0  0  0
   21.4448   -6.2878  -14.2555 O   0  0  0  0  0  0  0  0  0  0  0  0
   23.6352   -7.9542  -15.8650 C   0  0  0  0  0  0  0  0  0  0  0  0
   24.9701   -7.8207  -15.5609 O   0  0  0  0  0  0  0  0  0  0  0  0
   20.0019   -7.7142  -15.2480 O   0  0  0  0  0  0  0  0  0  0  0  0
   23.0905   -7.1395  -16.6304 O   0  0  0  0  0  0  0  0  0  0  0  0
  2  1  1  1
  3  2  1  0
  4  3  1  0
  4  5  2  0
  6  5  1  0
  7  6  2  0
  8  9  2  0
  8  7  1  0
  9  4  1  0
 10  2  1  0
 11 10  2  0
 13 15  1  0
 13 12  1  1
 14 13  1  0
 15 16  1  6
 16 10  1  0
 17 19  1  0
 17 15  1  0
 18 17  2  0
 20 19  1  0
 21 22  1  0
 20 21  1  1
 22 23  2  0
 22 26  1  0
 24 25  1  0
 24 20  1  0
 27 24  2  0
M  END
$$$$
