FVD.pdb
     RDKit          3D

 27 27  0  0  1  0  0  0  0  0999 V2000
   24.5651  -13.9210  -17.1823 N   0  0  0  0  0  0  0  0  0  0  0  0
   24.4344  -12.6573  -16.4783 C   0  0  1  0  0  0  0  0  0  0  0  0
   25.5096  -11.7170  -16.9781 C   0  0  0  0  0  0  0  0  0  0  0  0
   26.8366  -12.3012  -16.6713 C   0  0  0  0  0  0  0  0  0  0  0  0
   27.1081  -12.7142  -15.3895 C   0  0  0  0  0  0  0  0  0  0  0  0
   28.3517  -13.2546  -15.1279 C   0  0  0  0  0  0  0  0  0  0  0  0
   29.3066  -13.3799  -16.1287 C   0  0  0  0  0  0  0  0  0  0  0  0
   29.0191  -12.9613  -17.4076 C   0  0  0  0  0  0  0  0  0  0  0  0
   27.7619  -12.4174  -17.6625 C   0  0  0  0  0  0  0  0  0  0  0  0
   23.1270  -12.0244  -16.7068 C   0  0  0  0  0  0  0  0  0  0  0  0
   22.5785  -12.1740  -17.8163 O   0  0  0  0  0  0  0  0  0  0  0  0
   18.7953  -10.5002  -15.0856 C   0  0  0  0  0  0  0  0  0  0  0  0
   20.1231  -11.2184  -14.9483 C   0  0  2  0  0  0  0  0  0  0  0  0
   20.5691  -11.2784  -13.4971 C   0  0  0  0  0  0  0  0  0  0  0  0
   21.1708  -10.6705  -15.8550 C   0  0  2  0  0  0  0  0  0  0  0  0
   22.4659  -11.2584  -15.7338 N   0  0  0  0  0  0  0  0  0  0  0  0
   21.2185   -9.1875  -15.6842 C   0  0  0  0  0  0  0  0  0  0  0  0
   21.9344   -8.7370  -14.7453 O   0  0  0  0  0  0  0  0  0  0  0  0
   20.5283   -8.2759  -16.4895 N   0  0  0  0  0  0  0  0  0  0  0  0
   20.6133   -6.8301  -16.3514 C   0  0  1  0  0  0  0  0  0  0  0  0
   20.5932   -6.0904  -17.6426 C   0  0  0  0  0  0  0  0  0  0  0  0
   20.7400   -4.6494  -17.4040 C   0  0  0  0  0  0  0  0  0  0  0  0
   21.8556   -4.1319  -17.1765 O   0  0  0  0  0  0  0  0  0  0  0  0
   19.5585   -6.3081  -15.4595 C   0  0  0  0  0  0  0  0  0  0  0  0
   19.8617   -5.3129  -14.5594 O   0  0  0  0  0  0  0  0  0  0  0  0
   19.6385   -3.7739  -17.4178 O   0  0  0  0  0  0  0  0  0  0  0  0
   18.4013   -6.7600  -15.5156 O   0  0  0  0  0  0  0  0  0  0  0  0
  2  1  1  6
  3  2  1  0
  4  3  1  0
  4  5  2  0
  6  5  1  0
  7  6  2  0
  8  9  2  0
  8  7  1  0
  9  4  1  0
 10  2  1  0
 11 10  2  0
 13 15  1  0
 13 12  1  1
 14 13  1  0
 15 16  1  1
 16 10  1  0
 17 19  1  0
 17 15  1  0
 18 17  2  0
 20 19  1  0
 21 22  1  0
 20 21  1  6
 22 23  2  0
 22 26  1  0
 24 25  1  0
 24 20  1  0
 27 24  2  0
M  END
$$$$
