FVD.pdb
     RDKit          3D

 27 27  0  0  1  0  0  0  0  0999 V2000
   18.4483  -12.4587  -17.8332 N   0  0  0  0  0  0  0  0  0  0  0  0
   19.1087  -11.1876  -18.0729 C   0  0  1  0  0  0  0  0  0  0  0  0
   18.0653  -10.1789  -18.5016 C   0  0  0  0  0  0  0  0  0  0  0  0
   17.5990  -10.5228  -19.8657 C   0  0  0  0  0  0  0  0  0  0  0  0
   18.2261  -11.5326  -20.5547 C   0  0  0  0  0  0  0  0  0  0  0  0
   17.7744  -11.8343  -21.8243 C   0  0  0  0  0  0  0  0  0  0  0  0
   16.7155  -11.1399  -22.3950 C   0  0  0  0  0  0  0  0  0  0  0  0
   16.0980  -10.1311  -21.6918 C   0  0  0  0  0  0  0  0  0  0  0  0
   16.5603   -9.8335  -20.4116 C   0  0  0  0  0  0  0  0  0  0  0  0
   19.7800  -10.6725  -16.8704 C   0  0  0  0  0  0  0  0  0  0  0  0
   19.2256  -10.8300  -15.7650 O   0  0  0  0  0  0  0  0  0  0  0  0
   22.9022  -11.8115  -15.5112 C   0  0  0  0  0  0  0  0  0  0  0  0
   23.0736  -10.3065  -15.5693 C   0  0  2  0  0  0  0  0  0  0  0  0
   23.8462   -9.7936  -14.3658 C   0  0  0  0  0  0  0  0  0  0  0  0
   21.7858   -9.5879  -15.7814 C   0  0  2  0  0  0  0  0  0  0  0  0
   21.0174  -10.0106  -16.9077 N   0  0  0  0  0  0  0  0  0  0  0  0
   22.0614   -8.1205  -15.8192 C   0  0  0  0  0  0  0  0  0  0  0  0
   22.3325   -7.6126  -16.9442 O   0  0  0  0  0  0  0  0  0  0  0  0
   22.0382   -7.2821  -14.7001 N   0  0  0  0  0  0  0  0  0  0  0  0
   22.1280   -5.8313  -14.7592 C   0  0  1  0  0  0  0  0  0  0  0  0
   21.0688   -5.1862  -15.5817 C   0  0  0  0  0  0  0  0  0  0  0  0
   21.2460   -3.7289  -15.5849 C   0  0  0  0  0  0  0  0  0  0  0  0
   22.2322   -3.1887  -16.1325 O   0  0  0  0  0  0  0  0  0  0  0  0
   22.1458   -5.2341  -13.4088 C   0  0  0  0  0  0  0  0  0  0  0  0
   21.6611   -5.9541  -12.3416 O   0  0  0  0  0  0  0  0  0  0  0  0
   20.3205   -2.8625  -14.9746 O   0  0  0  0  0  0  0  0  0  0  0  0
   22.5943   -4.0882  -13.2295 O   0  0  0  0  0  0  0  0  0  0  0  0
  2  1  1  1
  3  2  1  0
  4  3  1  0
  4  5  2  0
  6  5  1  0
  7  6  2  0
  8  9  2  0
  8  7  1  0
  9  4  1  0
 10  2  1  0
 11 10  2  0
 13 15  1  0
 13 12  1  1
 14 13  1  0
 15 16  1  6
 16 10  1  0
 17 19  1  0
 17 15  1  0
 18 17  2  0
 20 19  1  0
 21 22  1  0
 20 21  1  6
 22 23  2  0
 22 26  1  0
 24 25  1  0
 24 20  1  0
 27 24  2  0
M  END
$$$$
