RVT.pdb
     RDKit          3D

 26 25  0  0  1  0  0  0  0  0999 V2000
   28.1030  -19.8811  -20.1549 N   0  0  0  0  0  0  0  0  0  0  0  0
   29.3282  -19.1692  -19.9102 C   0  0  0  0  0  0  0  0  0  0  0  0
   30.0208  -18.7539  -20.9056 N   0  0  0  0  0  0  0  0  0  0  0  0
   29.8049  -18.9068  -18.5959 N   0  0  0  0  0  0  0  0  0  0  0  0
   29.0684  -19.2847  -17.4135 C   0  0  0  0  0  0  0  0  0  0  0  0
   27.6821  -19.7325  -17.6619 C   0  0  0  0  0  0  0  0  0  0  0  0
   26.8538  -20.1820  -16.5315 C   0  0  0  0  0  0  0  0  0  0  0  0
   27.4015  -21.1160  -15.5264 C   0  0  2  0  0  0  0  0  0  0  0  0
   27.5884  -22.4534  -16.0989 N   0  0  0  0  0  0  0  0  0  0  0  0
   26.2896  -21.3482  -14.5130 C   0  0  0  0  0  0  0  0  0  0  0  0
   25.4383  -22.2334  -14.7914 O   0  0  0  0  0  0  0  0  0  0  0  0
   30.9031  -18.2170  -20.8200 C   0  0  0  0  0  0  0  0  0  0  0  0
   26.7635  -21.1989  -10.5090 C   0  0  1  0  0  0  0  0  0  0  0  0
   25.4649  -20.6152  -10.9592 C   0  0  0  0  0  0  0  0  0  0  0  0
   24.3246  -20.9938  -10.0269 C   0  0  2  0  0  0  0  0  0  0  0  0
   25.1134  -20.9308  -12.3982 N   0  0  0  0  0  0  0  0  0  0  0  0
   26.1732  -20.6363  -13.3073 C   0  0  0  0  0  0  0  0  0  0  0  0
   23.8338  -20.2399  -12.6998 O   0  0  0  0  0  0  0  0  0  0  0  0
   23.8400  -18.9912  -12.6023 C   0  0  0  0  0  0  0  0  0  0  0  0
   21.8954  -19.5127  -15.7038 C   0  0  2  0  0  0  0  0  0  0  0  0
   20.9762  -20.3322  -14.8109 O   0  0  0  0  0  0  0  0  0  0  0  0
   20.7604  -21.6070  -15.3225 C   0  0  2  0  0  0  0  0  0  0  0  0
   21.3846  -20.3294  -13.3849 N   0  0  0  0  0  0  0  0  0  0  0  0
   22.6475  -20.9241  -13.0817 C   0  0  0  0  0  0  0  0  0  0  0  0
   20.2481  -20.8157  -12.5444 O   0  0  0  0  0  0  0  0  0  0  0  0
   19.0429  -20.1484  -12.4271 O   0  0  0  0  0  0  0  0  0  0  0  0
  1  2  1  0
  2  3  2  0
  4  2  1  0
  5  4  1  0
  6  7  1  0
  6  5  1  0
  7  8  1  0
  8 10  1  0
  8  9  1  6
 10 11  2  0
 13 14  1  6
 13 12  1  0
 15 13  1  0
 15 16  1  6
 16 10  1  0
 17 15  1  0
 18 17  2  0
 20 19  1  6
 20 21  1  0
 20 22  1  0
 22 23  1  1
 23 17  1  0
 24 22  1  0
 24 25  1  0
 26 24  2  0
M  END
$$$$
