RVT.pdb
     RDKit          3D

 26 25  0  0  1  0  0  0  0  0999 V2000
42554.2656-4706822.00005197931.0000 N   0  0  0  0  0  0  0  0  0  0  0  0
42555.2305-4706822.50005197931.0000 C   0  0  0  0  0  0  0  0  0  0  0  0
42555.6875-4706821.00005197934.0000 N   0  0  0  0  0  0  0  0  0  0  0  0
42556.0977-4706821.50005197929.5000 N   0  0  0  0  0  0  0  0  0  0  0  0
42557.1914-4706822.00005197930.0000 C   0  0  0  0  0  0  0  0  0  0  0  0
42557.0820-4706823.00005197928.0000 C   0  0  0  0  0  0  0  0  0  0  0  0
42557.5547-4706822.50005197928.0000 C   0  0  0  0  0  0  0  0  0  0  0  0
42559.2695-4706821.00005197927.5000 C   0  0  2  0  0  0  0  0  0  0  0  0
42559.0898-4706819.50005197928.0000 N   0  0  0  0  0  0  0  0  0  0  0  0
42559.5195-4706820.50005197927.0000 C   0  0  0  0  0  0  0  0  0  0  0  0
42560.0977-4706819.50005197927.0000 O   0  0  0  0  0  0  0  0  0  0  0  0
42557.3828-4706820.50005197932.5000 C   0  0  0  0  0  0  0  0  0  0  0  0
42561.8516-4706822.50005197926.5000 C   0  0  2  0  0  0  0  0  0  0  0  0
42561.0703-4706823.00005197926.5000 C   0  0  0  0  0  0  0  0  0  0  0  0
42561.8398-4706824.50005197924.5000 C   0  0  1  0  0  0  0  0  0  0  0  0
42559.6172-4706823.50005197925.0000 N   0  0  0  0  0  0  0  0  0  0  0  0
42559.1016-4706822.00005197926.0000 C   0  0  0  0  0  0  0  0  0  0  0  0
42558.7812-4706825.00005197927.0000 O   0  0  0  0  0  0  0  0  0  0  0  0
42558.4688-4706824.00005197927.5000 C   0  0  0  0  0  0  0  0  0  0  0  0
42559.2070-4706828.50005197925.5000 C   0  0  1  0  0  0  0  0  0  0  0  0
42559.0352-4706828.50005197926.5000 O   0  0  0  0  0  0  0  0  0  0  0  0
42558.6016-4706829.00005197927.5000 C   0  0  1  0  0  0  0  0  0  0  0  0
42558.7305-4706827.00005197928.0000 N   0  0  0  0  0  0  0  0  0  0  0  0
42559.1094-4706826.00005197926.0000 C   0  0  0  0  0  0  0  0  0  0  0  0
42560.3086-4706828.00005197929.0000 O   0  0  0  0  0  0  0  0  0  0  0  0
42559.4141-4706827.00005197930.0000 O   0  0  0  0  0  0  0  0  0  0  0  0
  1  2  1  0
  2  3  2  0
  4  2  1  0
  5  4  1  0
  6  7  1  0
  6  5  1  0
  7  8  1  0
  8 10  1  0
  8  9  1  1
 10 11  2  0
 13 14  1  6
 13 12  1  0
 15 13  1  0
 15 16  1  6
 16 10  1  0
 17 15  1  0
 18 17  2  0
 20 19  1  6
 20 21  1  0
 20 22  1  0
 22 23  1  6
 23 17  1  0
 24 22  1  0
 24 25  1  0
 26 24  2  0
M  END
$$$$
