RVT.pdb
     RDKit          3D

 26 25  0  0  1  0  0  0  0  0999 V2000
   28.0324  -18.9657  -20.1408 N   0  0  0  0  0  0  0  0  0  0  0  0
   28.4030  -17.7102  -19.5455 C   0  0  0  0  0  0  0  0  0  0  0  0
   28.1993  -16.6244  -20.1955 N   0  0  0  0  0  0  0  0  0  0  0  0
   28.9921  -17.6266  -18.2534 N   0  0  0  0  0  0  0  0  0  0  0  0
   29.1633  -18.7800  -17.4025 C   0  0  0  0  0  0  0  0  0  0  0  0
   27.9286  -19.5500  -17.1443 C   0  0  0  0  0  0  0  0  0  0  0  0
   27.4288  -19.6740  -15.7655 C   0  0  0  0  0  0  0  0  0  0  0  0
   27.8513  -20.8053  -14.9146 C   0  0  2  0  0  0  0  0  0  0  0  0
   27.9759  -22.0368  -15.7015 N   0  0  0  0  0  0  0  0  0  0  0  0
   26.6700  -21.1173  -14.0067 C   0  0  0  0  0  0  0  0  0  0  0  0
   25.8385  -21.9669  -14.4224 O   0  0  0  0  0  0  0  0  0  0  0  0
   28.4873  -15.6845  -19.8676 C   0  0  0  0  0  0  0  0  0  0  0  0
   26.7658  -21.0348   -9.8621 C   0  0  1  0  0  0  0  0  0  0  0  0
   25.5211  -20.5018  -10.4916 C   0  0  0  0  0  0  0  0  0  0  0  0
   24.2830  -20.8674   -9.6877 C   0  0  2  0  0  0  0  0  0  0  0  0
   25.3532  -20.8868  -11.9469 N   0  0  0  0  0  0  0  0  0  0  0  0
   26.4701  -20.5148  -12.7534 C   0  0  0  0  0  0  0  0  0  0  0  0
   24.0532  -20.3308  -12.4014 O   0  0  0  0  0  0  0  0  0  0  0  0
   23.9894  -19.0847  -12.5102 C   0  0  0  0  0  0  0  0  0  0  0  0
   22.1771  -20.4933  -15.6046 C   0  0  2  0  0  0  0  0  0  0  0  0
   21.2543  -21.0575  -14.5350 O   0  0  0  0  0  0  0  0  0  0  0  0
   21.0525  -22.4239  -14.6948 C   0  0  2  0  0  0  0  0  0  0  0  0
   21.6477  -20.6756  -13.1567 N   0  0  0  0  0  0  0  0  0  0  0  0
   22.9224  -21.1368  -12.7061 C   0  0  0  0  0  0  0  0  0  0  0  0
   20.5155  -20.9599  -12.2230 O   0  0  0  0  0  0  0  0  0  0  0  0
   19.2795  -20.3465  -12.3099 O   0  0  0  0  0  0  0  0  0  0  0  0
  1  2  1  0
  2  3  2  0
  4  2  1  0
  5  4  1  0
  6  7  1  0
  6  5  1  0
  7  8  1  0
  8 10  1  0
  8  9  1  6
 10 11  2  0
 13 14  1  6
 13 12  1  0
 15 13  1  0
 15 16  1  6
 16 10  1  0
 17 15  1  0
 18 17  2  0
 20 19  1  6
 20 21  1  0
 20 22  1  0
 22 23  1  1
 23 17  1  0
 24 22  1  0
 24 25  1  0
 26 24  2  0
M  END
$$$$
