RVT.pdb
     RDKit          3D

 26 25  0  0  1  0  0  0  0  0999 V2000
   28.5036  -34.9981  -13.8695 N   0  0  0  0  0  0  0  0  0  0  0  0
   28.8487  -35.7659  -15.0354 C   0  0  0  0  0  0  0  0  0  0  0  0
   29.7249  -36.6960  -14.9361 N   0  0  0  0  0  0  0  0  0  0  0  0
   28.2508  -35.5304  -16.3045 N   0  0  0  0  0  0  0  0  0  0  0  0
   27.4382  -34.3687  -16.5758 C   0  0  0  0  0  0  0  0  0  0  0  0
   27.8825  -33.1294  -15.9046 C   0  0  0  0  0  0  0  0  0  0  0  0
   28.3950  -32.0123  -16.7142 C   0  0  0  0  0  0  0  0  0  0  0  0
   29.7278  -32.0949  -17.3460 C   0  0  2  0  0  0  0  0  0  0  0  0
   30.7790  -31.6786  -16.4116 N   0  0  0  0  0  0  0  0  0  0  0  0
   29.7690  -30.9923  -18.3946 C   0  0  0  0  0  0  0  0  0  0  0  0
   30.1716  -29.8601  -18.0178 O   0  0  0  0  0  0  0  0  0  0  0  0
   30.0282  -37.2994  -15.7222 C   0  0  0  0  0  0  0  0  0  0  0  0
   30.1758  -31.7137  -22.5512 C   0  0  1  0  0  0  0  0  0  0  0  0
   30.5511  -30.4903  -21.7819 C   0  0  0  0  0  0  0  0  0  0  0  0
   31.9676  -30.5815  -21.2360 C   0  0  1  0  0  0  0  0  0  0  0  0
   29.5719  -30.1279  -20.6846 N   0  0  0  0  0  0  0  0  0  0  0  0
   29.3880  -31.1764  -19.7343 C   0  0  0  0  0  0  0  0  0  0  0  0
   28.3229  -29.6687  -21.3441 O   0  0  0  0  0  0  0  0  0  0  0  0
   27.5542  -30.5643  -21.7633 C   0  0  0  0  0  0  0  0  0  0  0  0
   26.2241  -26.3934  -20.0777 C   0  0  1  0  0  0  0  0  0  0  0  0
   25.7252  -27.3474  -21.1523 O   0  0  0  0  0  0  0  0  0  0  0  0
   24.5883  -26.8609  -21.7879 C   0  0  1  0  0  0  0  0  0  0  0  0
   26.7869  -27.7827  -22.0923 N   0  0  0  0  0  0  0  0  0  0  0  0
   27.9845  -28.2977  -21.5081 C   0  0  0  0  0  0  0  0  0  0  0  0
   27.0016  -26.7203  -23.1216 O   0  0  0  0  0  0  0  0  0  0  0  0
   26.1175  -26.4646  -24.1534 O   0  0  0  0  0  0  0  0  0  0  0  0
  1  2  1  0
  2  3  2  0
  4  2  1  0
  5  4  1  0
  6  7  1  0
  6  5  1  0
  7  8  1  0
  8 10  1  0
  8  9  1  1
 10 11  2  0
 13 14  1  6
 13 12  1  0
 15 13  1  0
 15 16  1  1
 16 10  1  0
 17 15  1  0
 18 17  2  0
 20 19  1  1
 20 21  1  0
 20 22  1  0
 22 23  1  1
 23 17  1  0
 24 22  1  0
 24 25  1  0
 26 24  2  0
M  END
$$$$
