RVT.pdb
     RDKit          3D

 26 25  0  0  1  0  0  0  0  0999 V2000
   26.1849  -19.6113  -20.8598 N   0  0  0  0  0  0  0  0  0  0  0  0
   26.6604  -18.2935  -21.1844 C   0  0  0  0  0  0  0  0  0  0  0  0
   27.0237  -18.0372  -22.3866 N   0  0  0  0  0  0  0  0  0  0  0  0
   26.7442  -17.2559  -20.2149 N   0  0  0  0  0  0  0  0  0  0  0  0
   26.3179  -17.4353  -18.8476 C   0  0  0  0  0  0  0  0  0  0  0  0
   24.8680  -17.6621  -18.6737 C   0  0  0  0  0  0  0  0  0  0  0  0
   24.2906  -17.6448  -17.3201 C   0  0  0  0  0  0  0  0  0  0  0  0
   22.8661  -17.9747  -17.1091 C   0  0  2  0  0  0  0  0  0  0  0  0
   22.0467  -16.7592  -17.0615 N   0  0  0  0  0  0  0  0  0  0  0  0
   22.7584  -18.4960  -15.6830 C   0  0  0  0  0  0  0  0  0  0  0  0
   22.8132  -17.6438  -14.7574 O   0  0  0  0  0  0  0  0  0  0  0  0
   27.3881  -17.1204  -22.7038 C   0  0  0  0  0  0  0  0  0  0  0  0
   20.0992  -20.3942  -13.8979 C   0  0  1  0  0  0  0  0  0  0  0  0
   21.3938  -21.0820  -13.6140 C   0  0  0  0  0  0  0  0  0  0  0  0
   21.4795  -21.5449  -12.1679 C   0  0  2  0  0  0  0  0  0  0  0  0
   22.6171  -20.2747  -13.9959 N   0  0  0  0  0  0  0  0  0  0  0  0
   22.6028  -19.8543  -15.3595 C   0  0  0  0  0  0  0  0  0  0  0  0
   23.8086  -21.0731  -13.6103 O   0  0  0  0  0  0  0  0  0  0  0  0
   24.2888  -21.8177  -14.4956 C   0  0  0  0  0  0  0  0  0  0  0  0
   26.7910  -19.2101  -12.7923 C   0  0  1  0  0  0  0  0  0  0  0  0
   26.8059  -20.7308  -12.8267 O   0  0  0  0  0  0  0  0  0  0  0  0
   28.0761  -21.2409  -12.5828 C   0  0  1  0  0  0  0  0  0  0  0  0
   25.7499  -21.3491  -11.9883 N   0  0  0  0  0  0  0  0  0  0  0  0
   24.3994  -21.0208  -12.3183 C   0  0  0  0  0  0  0  0  0  0  0  0
   26.0996  -21.1752  -10.5454 O   0  0  0  0  0  0  0  0  0  0  0  0
   25.3424  -20.4324   -9.6587 O   0  0  0  0  0  0  0  0  0  0  0  0
  1  2  1  0
  2  3  2  0
  4  2  1  0
  5  4  1  0
  6  7  1  0
  6  5  1  0
  7  8  1  0
  8 10  1  0
  8  9  1  1
 10 11  2  0
 13 14  1  1
 13 12  1  0
 15 13  1  0
 15 16  1  1
 16 10  1  0
 17 15  1  0
 18 17  2  0
 20 19  1  6
 20 21  1  0
 20 22  1  0
 22 23  1  6
 23 17  1  0
 24 22  1  0
 24 25  1  0
 26 24  2  0
M  END
$$$$
