RVT.pdb
     RDKit          3D

 26 25  0  0  1  0  0  0  0  0999 V2000
   27.6539  -28.1674  -16.2630 N   0  0  0  0  0  0  0  0  0  0  0  0
   28.5106  -27.9378  -17.3949 C   0  0  0  0  0  0  0  0  0  0  0  0
   29.2724  -28.8832  -17.8057 N   0  0  0  0  0  0  0  0  0  0  0  0
   28.5457  -26.6921  -18.0809 N   0  0  0  0  0  0  0  0  0  0  0  0
   27.6802  -25.5904  -17.7337 C   0  0  0  0  0  0  0  0  0  0  0  0
   27.9880  -24.9420  -16.4418 C   0  0  0  0  0  0  0  0  0  0  0  0
   27.1400  -23.8366  -15.9674 C   0  0  0  0  0  0  0  0  0  0  0  0
   27.2622  -22.4901  -16.5628 C   0  0  2  0  0  0  0  0  0  0  0  0
   28.4917  -21.8273  -16.1154 N   0  0  0  0  0  0  0  0  0  0  0  0
   26.1793  -21.6397  -15.9139 C   0  0  0  0  0  0  0  0  0  0  0  0
   26.3438  -21.3305  -14.7042 O   0  0  0  0  0  0  0  0  0  0  0  0
   29.8724  -28.8254  -18.6488 C   0  0  0  0  0  0  0  0  0  0  0  0
   23.4649  -19.0020  -17.9388 C   0  0  1  0  0  0  0  0  0  0  0  0
   23.9374  -18.9983  -16.5223 C   0  0  0  0  0  0  0  0  0  0  0  0
   25.2260  -18.2068  -16.3612 C   0  0  1  0  0  0  0  0  0  0  0  0
   24.0721  -20.3788  -15.9141 N   0  0  0  0  0  0  0  0  0  0  0  0
   25.0307  -21.1929  -16.5884 C   0  0  0  0  0  0  0  0  0  0  0  0
   22.7085  -20.9632  -15.8441 O   0  0  0  0  0  0  0  0  0  0  0  0
   22.3030  -21.5524  -16.8723 C   0  0  0  0  0  0  0  0  0  0  0  0
   21.3177  -23.7049  -13.6901 C   0  0  2  0  0  0  0  0  0  0  0  0
   20.4395  -22.4822  -13.4718 O   0  0  0  0  0  0  0  0  0  0  0  0
   20.5758  -21.9708  -12.1861 C   0  0  2  0  0  0  0  0  0  0  0  0
   20.5835  -21.4566  -14.5338 N   0  0  0  0  0  0  0  0  0  0  0  0
   21.8806  -20.8792  -14.6915 C   0  0  0  0  0  0  0  0  0  0  0  0
   19.4696  -20.4665  -14.4190 O   0  0  0  0  0  0  0  0  0  0  0  0
   18.1321  -20.8063  -14.5038 O   0  0  0  0  0  0  0  0  0  0  0  0
  1  2  1  0
  2  3  2  0
  4  2  1  0
  5  4  1  0
  6  7  1  0
  6  5  1  0
  7  8  1  0
  8 10  1  0
  8  9  1  1
 10 11  2  0
 13 14  1  6
 13 12  1  0
 15 13  1  0
 15 16  1  6
 16 10  1  0
 17 15  1  0
 18 17  2  0
 20 19  1  1
 20 21  1  0
 20 22  1  0
 22 23  1  6
 23 17  1  0
 24 22  1  0
 24 25  1  0
 26 24  2  0
M  END
$$$$
