RVT.pdb
     RDKit          3D

 26 25  0  0  1  0  0  0  0  0999 V2000
   26.5992  -21.6098  -11.3601 N   0  0  0  0  0  0  0  0  0  0  0  0
   27.9896  -21.2971  -11.5525 C   0  0  0  0  0  0  0  0  0  0  0  0
   28.8748  -22.1810  -11.2735 N   0  0  0  0  0  0  0  0  0  0  0  0
   28.4233  -20.0345  -12.0438 N   0  0  0  0  0  0  0  0  0  0  0  0
   27.5052  -19.0394  -12.5439 C   0  0  0  0  0  0  0  0  0  0  0  0
   27.4171  -18.9599  -14.0170 C   0  0  0  0  0  0  0  0  0  0  0  0
   26.1551  -18.5356  -14.6441 C   0  0  0  0  0  0  0  0  0  0  0  0
   25.0781  -19.5147  -14.8971 C   0  0  2  0  0  0  0  0  0  0  0  0
   25.5593  -20.6213  -15.7309 N   0  0  0  0  0  0  0  0  0  0  0  0
   24.0832  -18.8221  -15.8178 C   0  0  0  0  0  0  0  0  0  0  0  0
   24.3020  -18.8974  -17.0557 O   0  0  0  0  0  0  0  0  0  0  0  0
   29.8957  -22.0406  -11.3840 C   0  0  0  0  0  0  0  0  0  0  0  0
   20.3067  -19.3597  -15.9784 C   0  0  1  0  0  0  0  0  0  0  0  0
   20.5943  -17.8944  -15.9813 C   0  0  0  0  0  0  0  0  0  0  0  0
   19.6474  -17.1371  -16.8993 C   0  0  2  0  0  0  0  0  0  0  0  0
   22.0365  -17.5502  -16.2905 N   0  0  0  0  0  0  0  0  0  0  0  0
   22.9563  -18.1193  -15.3596 C   0  0  0  0  0  0  0  0  0  0  0  0
   22.1193  -16.0723  -16.4124 O   0  0  0  0  0  0  0  0  0  0  0  0
   21.9373  -15.4169  -15.3608 C   0  0  0  0  0  0  0  0  0  0  0  0
   23.6477  -14.0975  -20.0651 C   0  0  2  0  0  0  0  0  0  0  0  0
   23.6642  -13.5378  -18.6508 O   0  0  0  0  0  0  0  0  0  0  0  0
   23.8387  -12.1584  -18.6429 C   0  0  1  0  0  0  0  0  0  0  0  0
   22.5200  -13.9932  -17.8239 N   0  0  0  0  0  0  0  0  0  0  0  0
   22.3888  -15.4034  -17.6375 C   0  0  0  0  0  0  0  0  0  0  0  0
   21.2744  -13.3058  -18.2825 O   0  0  0  0  0  0  0  0  0  0  0  0
   20.1329  -13.9763  -18.6813 O   0  0  0  0  0  0  0  0  0  0  0  0
  1  2  1  0
  2  3  2  0
  4  2  1  0
  5  4  1  0
  6  7  1  0
  6  5  1  0
  7  8  1  0
  8 10  1  0
  8  9  1  6
 10 11  2  0
 13 14  1  6
 13 12  1  0
 15 13  1  0
 15 16  1  6
 16 10  1  0
 17 15  1  0
 18 17  2  0
 20 19  1  1
 20 21  1  0
 20 22  1  0
 22 23  1  1
 23 17  1  0
 24 22  1  0
 24 25  1  0
 26 24  2  0
M  END
$$$$
