RVT.pdb
     RDKit          3D

 26 25  0  0  1  0  0  0  0  0999 V2000
   19.0617  -23.1994   -6.5598 N   0  0  0  0  0  0  0  0  0  0  0  0
   19.1246  -23.6948   -7.9083 C   0  0  0  0  0  0  0  0  0  0  0  0
   18.0435  -24.0571   -8.4936 N   0  0  0  0  0  0  0  0  0  0  0  0
   20.3503  -23.7993   -8.6228 N   0  0  0  0  0  0  0  0  0  0  0  0
   21.5033  -22.9900   -8.3082 C   0  0  0  0  0  0  0  0  0  0  0  0
   21.3019  -21.5343   -8.4650 C   0  0  0  0  0  0  0  0  0  0  0  0
   22.3482  -20.7249   -9.1102 C   0  0  0  0  0  0  0  0  0  0  0  0
   23.7663  -21.1307   -9.0281 C   0  0  2  0  0  0  0  0  0  0  0  0
   24.4528  -20.4244   -7.9413 N   0  0  0  0  0  0  0  0  0  0  0  0
   24.4430  -20.5595  -10.2662 C   0  0  0  0  0  0  0  0  0  0  0  0
   24.6124  -19.3121  -10.3007 O   0  0  0  0  0  0  0  0  0  0  0  0
   18.0002  -24.4416   -9.4550 C   0  0  0  0  0  0  0  0  0  0  0  0
   27.8245  -20.9700  -11.4193 C   0  0  1  0  0  0  0  0  0  0  0  0
   26.9696  -21.1993  -12.6219 C   0  0  0  0  0  0  0  0  0  0  0  0
   27.5918  -20.6052  -13.8759 C   0  0  2  0  0  0  0  0  0  0  0  0
   25.5375  -20.7346  -12.4575 N   0  0  0  0  0  0  0  0  0  0  0  0
   24.8788  -21.3435  -11.3476 C   0  0  0  0  0  0  0  0  0  0  0  0
   24.8576  -20.9353  -13.7626 O   0  0  0  0  0  0  0  0  0  0  0  0
   24.7214  -22.1213  -14.1416 C   0  0  0  0  0  0  0  0  0  0  0  0
   21.5191  -20.9560  -14.5069 C   0  0  2  0  0  0  0  0  0  0  0  0
   22.0502  -19.8615  -15.4201 O   0  0  0  0  0  0  0  0  0  0  0  0
   21.6649  -18.5969  -14.9894 C   0  0  2  0  0  0  0  0  0  0  0  0
   23.5040  -19.9755  -15.6919 N   0  0  0  0  0  0  0  0  0  0  0  0
   24.3744  -19.8656  -14.5645 C   0  0  0  0  0  0  0  0  0  0  0  0
   23.8618  -19.0938  -16.8447 O   0  0  0  0  0  0  0  0  0  0  0  0
   23.3307  -19.2392  -18.1129 O   0  0  0  0  0  0  0  0  0  0  0  0
  1  2  1  0
  2  3  2  0
  4  2  1  0
  5  4  1  0
  6  7  1  0
  6  5  1  0
  7  8  1  0
  8 10  1  0
  8  9  1  1
 10 11  2  0
 13 14  1  1
 13 12  1  0
 15 13  1  0
 15 16  1  1
 16 10  1  0
 17 15  1  0
 18 17  2  0
 20 19  1  6
 20 21  1  0
 20 22  1  0
 22 23  1  6
 23 17  1  0
 24 22  1  0
 24 25  1  0
 26 24  2  0
M  END
$$$$
