RVT.pdb
     RDKit          3D

 26 25  0  0  1  0  0  0  0  0999 V2000
   18.7045   -5.3032  -18.4144 N   0  0  0  0  0  0  0  0  0  0  0  0
   18.3412   -3.9992  -17.9291 C   0  0  0  0  0  0  0  0  0  0  0  0
   17.8702   -3.1344  -18.7495 N   0  0  0  0  0  0  0  0  0  0  0  0
   18.4862   -3.6293  -16.5632 N   0  0  0  0  0  0  0  0  0  0  0  0
   18.7018   -4.5985  -15.5155 C   0  0  0  0  0  0  0  0  0  0  0  0
   17.4914   -4.9675  -14.7521 C   0  0  0  0  0  0  0  0  0  0  0  0
   17.5546   -6.0788  -13.7892 C   0  0  0  0  0  0  0  0  0  0  0  0
   17.9047   -5.8267  -12.3763 C   0  0  2  0  0  0  0  0  0  0  0  0
   19.3095   -6.1586  -12.1157 N   0  0  0  0  0  0  0  0  0  0  0  0
   17.1652   -6.8789  -11.5620 C   0  0  0  0  0  0  0  0  0  0  0  0
   17.8081   -7.9156  -11.2495 O   0  0  0  0  0  0  0  0  0  0  0  0
   17.5041   -2.2052  -18.4726 C   0  0  0  0  0  0  0  0  0  0  0  0
   15.5364   -6.3563   -8.1960 C   0  0  1  0  0  0  0  0  0  0  0  0
   14.5935   -7.1216   -9.0649 C   0  0  0  0  0  0  0  0  0  0  0  0
   13.8339   -8.1777   -8.2772 C   0  0  2  0  0  0  0  0  0  0  0  0
   15.2407   -7.7261  -10.2936 N   0  0  0  0  0  0  0  0  0  0  0  0
   15.8280   -6.7483  -11.1512 C   0  0  0  0  0  0  0  0  0  0  0  0
   14.2228   -8.5871  -10.9480 O   0  0  0  0  0  0  0  0  0  0  0  0
   13.0686   -8.1098  -11.0420 C   0  0  0  0  0  0  0  0  0  0  0  0
   13.4832   -9.5410  -14.3531 C   0  0  2  0  0  0  0  0  0  0  0  0
   13.7799  -10.8402  -13.6196 O   0  0  0  0  0  0  0  0  0  0  0  0
   15.0082  -11.3751  -13.9919 C   0  0  2  0  0  0  0  0  0  0  0  0
   13.5995  -10.7415  -12.1506 N   0  0  0  0  0  0  0  0  0  0  0  0
   14.5057   -9.8858  -11.4525 C   0  0  0  0  0  0  0  0  0  0  0  0
   13.4697  -12.1150  -11.5752 O   0  0  0  0  0  0  0  0  0  0  0  0
   12.4077  -12.9591  -11.8419 O   0  0  0  0  0  0  0  0  0  0  0  0
  1  2  1  0
  2  3  2  0
  4  2  1  0
  5  4  1  0
  6  7  1  0
  6  5  1  0
  7  8  1  0
  8 10  1  0
  8  9  1  6
 10 11  2  0
 13 14  1  6
 13 12  1  0
 15 13  1  0
 15 16  1  1
 16 10  1  0
 17 15  1  0
 18 17  2  0
 20 19  1  6
 20 21  1  0
 20 22  1  0
 22 23  1  1
 23 17  1  0
 24 22  1  0
 24 25  1  0
 26 24  2  0
M  END
$$$$
