RVT.pdb
     RDKit          3D

 26 25  0  0  1  0  0  0  0  0999 V2000
   22.0959  -26.7312  -11.6131 N   0  0  0  0  0  0  0  0  0  0  0  0
   22.1630  -26.8171  -13.0470 C   0  0  0  0  0  0  0  0  0  0  0  0
   22.6869  -27.8540  -13.5885 N   0  0  0  0  0  0  0  0  0  0  0  0
   21.6670  -25.7873  -13.8938 N   0  0  0  0  0  0  0  0  0  0  0  0
   22.3151  -24.5033  -14.0156 C   0  0  0  0  0  0  0  0  0  0  0  0
   22.3054  -23.6835  -12.7860 C   0  0  0  0  0  0  0  0  0  0  0  0
   22.9631  -22.3669  -12.7896 C   0  0  0  0  0  0  0  0  0  0  0  0
   24.4298  -22.2627  -12.9322 C   0  0  2  0  0  0  0  0  0  0  0  0
   25.0615  -21.9444  -11.6473 N   0  0  0  0  0  0  0  0  0  0  0  0
   24.6883  -21.0010  -13.7436 C   0  0  0  0  0  0  0  0  0  0  0  0
   24.4109  -19.9019  -13.1949 O   0  0  0  0  0  0  0  0  0  0  0  0
   22.7316  -28.0198  -14.6105 C   0  0  0  0  0  0  0  0  0  0  0  0
   27.9586  -20.0025  -15.4709 C   0  0  2  0  0  0  0  0  0  0  0  0
   26.8177  -19.7347  -16.3963 C   0  0  0  0  0  0  0  0  0  0  0  0
   27.0061  -18.4329  -17.1596 C   0  0  2  0  0  0  0  0  0  0  0  0
   25.4593  -19.7769  -15.7278 N   0  0  0  0  0  0  0  0  0  0  0  0
   25.2120  -21.0065  -15.0473 C   0  0  0  0  0  0  0  0  0  0  0  0
   24.4500  -19.4313  -16.7611 O   0  0  0  0  0  0  0  0  0  0  0  0
   24.2273  -20.3021  -17.6335 C   0  0  0  0  0  0  0  0  0  0  0  0
   21.5076  -20.1254  -16.5271 C   0  0  2  0  0  0  0  0  0  0  0  0
   21.3183  -18.6249  -16.6899 O   0  0  0  0  0  0  0  0  0  0  0  0
   20.9387  -18.0194  -15.4972 C   0  0  2  0  0  0  0  0  0  0  0  0
   22.4634  -17.9556  -17.3539 N   0  0  0  0  0  0  0  0  0  0  0  0
   23.7547  -18.1917  -16.7904 C   0  0  0  0  0  0  0  0  0  0  0  0
   22.1331  -16.5145  -17.5749 O   0  0  0  0  0  0  0  0  0  0  0  0
   21.0789  -16.0825  -18.3582 O   0  0  0  0  0  0  0  0  0  0  0  0
  1  2  1  0
  2  3  2  0
  4  2  1  0
  5  4  1  0
  6  7  1  0
  6  5  1  0
  7  8  1  0
  8 10  1  0
  8  9  1  1
 10 11  2  0
 13 14  1  1
 13 12  1  0
 15 13  1  0
 15 16  1  1
 16 10  1  0
 17 15  1  0
 18 17  2  0
 20 19  1  6
 20 21  1  0
 20 22  1  0
 22 23  1  6
 23 17  1  0
 24 22  1  0
 24 25  1  0
 26 24  2  0
M  END
$$$$
