RVT.pdb
     RDKit          3D

 26 25  0  0  1  0  0  0  0  0999 V2000
   18.5194  -19.9571  -17.1696 N   0  0  0  0  0  0  0  0  0  0  0  0
   18.4569  -20.0735  -15.7377 C   0  0  0  0  0  0  0  0  0  0  0  0
   17.5613  -20.8224  -15.2086 N   0  0  0  0  0  0  0  0  0  0  0  0
   19.3576  -19.3839  -14.8793 N   0  0  0  0  0  0  0  0  0  0  0  0
   20.3725  -18.4872  -15.3788 C   0  0  0  0  0  0  0  0  0  0  0  0
   21.4850  -19.1455  -16.0949 C   0  0  0  0  0  0  0  0  0  0  0  0
   22.5090  -19.8729  -15.3278 C   0  0  0  0  0  0  0  0  0  0  0  0
   23.6988  -20.4279  -16.0051 C   0  0  2  0  0  0  0  0  0  0  0  0
   23.3830  -21.6997  -16.6638 N   0  0  0  0  0  0  0  0  0  0  0  0
   24.6520  -20.8613  -14.9002 C   0  0  0  0  0  0  0  0  0  0  0  0
   24.4149  -21.9646  -14.3412 O   0  0  0  0  0  0  0  0  0  0  0  0
   17.4640  -20.9863  -14.1899 C   0  0  0  0  0  0  0  0  0  0  0  0
   28.5688  -20.9706  -14.9321 C   0  0  1  0  0  0  0  0  0  0  0  0
   28.0645  -20.3365  -13.6778 C   0  0  0  0  0  0  0  0  0  0  0  0
   28.8950  -20.7409  -12.4697 C   0  0  2  0  0  0  0  0  0  0  0  0
   26.5897  -20.5670  -13.4208 N   0  0  0  0  0  0  0  0  0  0  0  0
   25.7603  -20.1039  -14.4858 C   0  0  0  0  0  0  0  0  0  0  0  0
   26.2768  -19.9753  -12.0950 O   0  0  0  0  0  0  0  0  0  0  0  0
   26.1935  -18.7265  -12.0494 C   0  0  0  0  0  0  0  0  0  0  0  0
   23.2548  -20.3637   -9.7967 C   0  0  2  0  0  0  0  0  0  0  0  0
   24.4985  -20.7517   -9.0116 O   0  0  0  0  0  0  0  0  0  0  0  0
   24.5225  -22.1109   -8.7200 C   0  0  2  0  0  0  0  0  0  0  0  0
   25.7573  -20.2557   -9.6196 N   0  0  0  0  0  0  0  0  0  0  0  0
   26.0759  -20.7514  -10.9209 C   0  0  0  0  0  0  0  0  0  0  0  0
   26.8648  -20.3652   -8.6218 O   0  0  0  0  0  0  0  0  0  0  0  0
   26.8643  -19.7121   -7.4032 O   0  0  0  0  0  0  0  0  0  0  0  0
  1  2  1  0
  2  3  2  0
  4  2  1  0
  5  4  1  0
  6  7  1  0
  6  5  1  0
  7  8  1  0
  8 10  1  0
  8  9  1  1
 10 11  2  0
 13 14  1  1
 13 12  1  0
 15 13  1  0
 15 16  1  1
 16 10  1  0
 17 15  1  0
 18 17  2  0
 20 19  1  1
 20 21  1  0
 20 22  1  0
 22 23  1  1
 23 17  1  0
 24 22  1  0
 24 25  1  0
 26 24  2  0
M  END
$$$$
