RVT.pdb
     RDKit          3D

 26 25  0  0  1  0  0  0  0  0999 V2000
   23.3449  -27.3547  -16.6051 N   0  0  0  0  0  0  0  0  0  0  0  0
   22.9587  -28.7347  -16.4856 C   0  0  0  0  0  0  0  0  0  0  0  0
   23.6312  -29.6296  -17.1099 N   0  0  0  0  0  0  0  0  0  0  0  0
   21.8501  -29.1477  -15.6956 N   0  0  0  0  0  0  0  0  0  0  0  0
   21.0785  -28.2243  -14.8985 C   0  0  0  0  0  0  0  0  0  0  0  0
   21.8268  -27.5745  -13.8022 C   0  0  0  0  0  0  0  0  0  0  0  0
   21.1418  -26.6004  -12.9373 C   0  0  0  0  0  0  0  0  0  0  0  0
   20.1945  -25.6237  -13.5128 C   0  0  2  0  0  0  0  0  0  0  0  0
   20.9081  -24.5030  -14.1342 N   0  0  0  0  0  0  0  0  0  0  0  0
   19.5045  -24.9558  -12.3319 C   0  0  0  0  0  0  0  0  0  0  0  0
   20.1681  -24.0965  -11.6936 O   0  0  0  0  0  0  0  0  0  0  0  0
   23.4154  -30.6430  -17.0891 C   0  0  0  0  0  0  0  0  0  0  0  0
   16.9233  -22.5808  -12.4576 C   0  0  1  0  0  0  0  0  0  0  0  0
   16.4599  -23.5769  -11.4463 C   0  0  0  0  0  0  0  0  0  0  0  0
   15.7016  -22.9119  -10.3081 C   0  0  2  0  0  0  0  0  0  0  0  0
   17.5602  -24.4705  -10.9126 N   0  0  0  0  0  0  0  0  0  0  0  0
   18.1898  -25.2468  -11.9311 C   0  0  0  0  0  0  0  0  0  0  0  0
   16.9795  -25.2671   -9.8018 O   0  0  0  0  0  0  0  0  0  0  0  0
   16.0513  -26.0511  -10.1062 C   0  0  0  0  0  0  0  0  0  0  0  0
   17.9756  -24.4340   -5.6018 C   0  0  2  0  0  0  0  0  0  0  0  0
   17.7235  -25.8516   -6.0924 O   0  0  0  0  0  0  0  0  0  0  0  0
   17.2317  -26.6689   -5.0808 C   0  0  1  0  0  0  0  0  0  0  0  0
   16.9233  -25.9094   -7.3400 N   0  0  0  0  0  0  0  0  0  0  0  0
   17.4266  -25.1726   -8.4556 C   0  0  0  0  0  0  0  0  0  0  0  0
   15.4867  -25.6505   -7.0181 O   0  0  0  0  0  0  0  0  0  0  0  0
   14.9249  -24.3876   -6.9881 O   0  0  0  0  0  0  0  0  0  0  0  0
  1  2  1  0
  2  3  2  0
  4  2  1  0
  5  4  1  0
  6  7  1  0
  6  5  1  0
  7  8  1  0
  8 10  1  0
  8  9  1  1
 10 11  2  0
 13 14  1  1
 13 12  1  0
 15 13  1  0
 15 16  1  1
 16 10  1  0
 17 15  1  0
 18 17  2  0
 20 19  1  1
 20 21  1  0
 20 22  1  0
 22 23  1  6
 23 17  1  0
 24 22  1  0
 24 25  1  0
 26 24  2  0
M  END
$$$$
