RVT.pdb
     RDKit          3D

 26 25  0  0  1  0  0  0  0  0999 V2000
   19.8419  -22.2088  -15.5124 N   0  0  0  0  0  0  0  0  0  0  0  0
   19.4032  -21.3911  -14.4138 C   0  0  0  0  0  0  0  0  0  0  0  0
   18.1891  -21.4800  -14.0127 N   0  0  0  0  0  0  0  0  0  0  0  0
   20.2715  -20.4802  -13.7506 N   0  0  0  0  0  0  0  0  0  0  0  0
   21.6680  -20.3510  -14.0921 C   0  0  0  0  0  0  0  0  0  0  0  0
   22.3723  -21.6299  -14.3208 C   0  0  0  0  0  0  0  0  0  0  0  0
   23.6225  -21.9067  -13.5953 C   0  0  0  0  0  0  0  0  0  0  0  0
   24.6408  -20.8497  -13.4273 C   0  0  2  0  0  0  0  0  0  0  0  0
   25.4301  -20.6810  -14.6520 N   0  0  0  0  0  0  0  0  0  0  0  0
   25.6692  -21.4031  -12.4508 C   0  0  0  0  0  0  0  0  0  0  0  0
   25.4321  -22.5346  -11.9516 O   0  0  0  0  0  0  0  0  0  0  0  0
   17.8086  -20.9818  -13.1874 C   0  0  0  0  0  0  0  0  0  0  0  0
   29.7112  -20.9881  -11.9174 C   0  0  1  0  0  0  0  0  0  0  0  0
   28.8945  -20.5214  -10.7577 C   0  0  0  0  0  0  0  0  0  0  0  0
   29.5249  -20.9151   -9.4309 C   0  0  2  0  0  0  0  0  0  0  0  0
   27.4429  -20.9501  -10.8142 N   0  0  0  0  0  0  0  0  0  0  0  0
   26.8453  -20.7244  -12.0902 C   0  0  0  0  0  0  0  0  0  0  0  0
   26.7451  -20.2891   -9.6820 O   0  0  0  0  0  0  0  0  0  0  0  0
   25.7412  -19.5996   -9.9743 C   0  0  0  0  0  0  0  0  0  0  0  0
   24.1717  -20.5722   -8.2285 C   0  0  2  0  0  0  0  0  0  0  0  0
   25.0860  -20.7641   -7.0280 O   0  0  0  0  0  0  0  0  0  0  0  0
   25.1954  -22.1033   -6.6705 C   0  0  2  0  0  0  0  0  0  0  0  0
   26.3953  -20.0817   -7.1699 N   0  0  0  0  0  0  0  0  0  0  0  0
   27.1635  -20.4098   -8.3287 C   0  0  0  0  0  0  0  0  0  0  0  0
   27.1431  -20.1737   -5.8789 O   0  0  0  0  0  0  0  0  0  0  0  0
   26.6666  -19.6736   -4.6812 O   0  0  0  0  0  0  0  0  0  0  0  0
  1  2  1  0
  2  3  2  0
  4  2  1  0
  5  4  1  0
  6  7  1  0
  6  5  1  0
  7  8  1  0
  8 10  1  0
  8  9  1  6
 10 11  2  0
 13 14  1  1
 13 12  1  0
 15 13  1  0
 15 16  1  1
 16 10  1  0
 17 15  1  0
 18 17  2  0
 20 19  1  1
 20 21  1  0
 20 22  1  0
 22 23  1  1
 23 17  1  0
 24 22  1  0
 24 25  1  0
 26 24  2  0
M  END
$$$$
