RVT.pdb
     RDKit          3D

 26 25  0  0  1  0  0  0  0  0999 V2000
   30.0715  -21.9723  -10.5139 N   0  0  0  0  0  0  0  0  0  0  0  0
   29.4203  -21.2297   -9.4686 C   0  0  0  0  0  0  0  0  0  0  0  0
   30.0917  -20.8877   -8.4317 N   0  0  0  0  0  0  0  0  0  0  0  0
   28.0492  -20.8578   -9.5417 N   0  0  0  0  0  0  0  0  0  0  0  0
   27.0894  -21.5850  -10.3376 C   0  0  0  0  0  0  0  0  0  0  0  0
   27.2041  -21.3733  -11.7957 C   0  0  0  0  0  0  0  0  0  0  0  0
   26.1026  -20.7192  -12.5203 C   0  0  0  0  0  0  0  0  0  0  0  0
   24.7671  -21.3480  -12.5791 C   0  0  2  0  0  0  0  0  0  0  0  0
   24.8768  -22.8088  -12.6520 N   0  0  0  0  0  0  0  0  0  0  0  0
   24.1926  -20.9961  -13.9442 C   0  0  0  0  0  0  0  0  0  0  0  0
   24.2573  -21.8820  -14.8369 O   0  0  0  0  0  0  0  0  0  0  0  0
   29.6944  -20.3815   -7.6194 C   0  0  0  0  0  0  0  0  0  0  0  0
   21.7275  -17.4765  -14.7979 C   0  0  1  0  0  0  0  0  0  0  0  0
   21.6459  -18.8395  -15.4022 C   0  0  0  0  0  0  0  0  0  0  0  0
   20.6282  -19.7128  -14.6851 C   0  0  1  0  0  0  0  0  0  0  0  0
   22.9812  -19.5457  -15.5122 N   0  0  0  0  0  0  0  0  0  0  0  0
   23.6054  -19.7561  -14.2463 C   0  0  0  0  0  0  0  0  0  0  0  0
   23.8037  -18.7817  -16.4847 O   0  0  0  0  0  0  0  0  0  0  0  0
   24.2413  -17.6751  -16.0940 C   0  0  0  0  0  0  0  0  0  0  0  0
   26.5032  -18.5936  -20.6879 C   0  0  2  0  0  0  0  0  0  0  0  0
   25.7194  -19.3980  -19.6620 O   0  0  0  0  0  0  0  0  0  0  0  0
   26.5377  -20.2739  -18.9574 C   0  0  1  0  0  0  0  0  0  0  0  0
   24.8600  -18.5612  -18.7894 N   0  0  0  0  0  0  0  0  0  0  0  0
   24.0996  -19.2487  -17.7945 C   0  0  0  0  0  0  0  0  0  0  0  0
   24.0703  -17.6147  -19.6349 O   0  0  0  0  0  0  0  0  0  0  0  0
   24.5765  -16.4282  -20.1323 O   0  0  0  0  0  0  0  0  0  0  0  0
  1  2  1  0
  2  3  2  0
  4  2  1  0
  5  4  1  0
  6  7  1  0
  6  5  1  0
  7  8  1  0
  8 10  1  0
  8  9  1  6
 10 11  2  0
 13 14  1  1
 13 12  1  0
 15 13  1  0
 15 16  1  1
 16 10  1  0
 17 15  1  0
 18 17  2  0
 20 19  1  6
 20 21  1  0
 20 22  1  0
 22 23  1  6
 23 17  1  0
 24 22  1  0
 24 25  1  0
 26 24  2  0
M  END
$$$$
