RVT.pdb
     RDKit          3D

 26 25  0  0  1  0  0  0  0  0999 V2000
   30.5733  -23.8346  -17.8357 N   0  0  0  0  0  0  0  0  0  0  0  0
   29.4890  -24.3350  -17.0347 C   0  0  0  0  0  0  0  0  0  0  0  0
   29.7331  -25.1977  -16.1188 N   0  0  0  0  0  0  0  0  0  0  0  0
   28.1455  -23.9064  -17.2217 N   0  0  0  0  0  0  0  0  0  0  0  0
   27.7932  -22.8214  -18.1061 C   0  0  0  0  0  0  0  0  0  0  0  0
   28.3247  -21.5003  -17.7109 C   0  0  0  0  0  0  0  0  0  0  0  0
   27.5089  -20.6172  -16.8619 C   0  0  0  0  0  0  0  0  0  0  0  0
   26.0935  -20.3562  -17.1949 C   0  0  2  0  0  0  0  0  0  0  0  0
   25.9744  -19.2556  -18.1570 N   0  0  0  0  0  0  0  0  0  0  0  0
   25.4655  -19.7626  -15.9418 C   0  0  0  0  0  0  0  0  0  0  0  0
   24.8679  -18.6615  -16.0687 O   0  0  0  0  0  0  0  0  0  0  0  0
   29.0095  -25.6316  -15.5170 C   0  0  0  0  0  0  0  0  0  0  0  0
   22.6688  -21.4267  -14.4110 C   0  0  1  0  0  0  0  0  0  0  0  0
   23.1572  -20.0489  -14.1067 C   0  0  0  0  0  0  0  0  0  0  0  0
   22.9153  -19.0970  -15.2677 C   0  0  1  0  0  0  0  0  0  0  0  0
   24.6017  -19.9931  -13.6547 N   0  0  0  0  0  0  0  0  0  0  0  0
   25.5201  -20.3744  -14.6782 C   0  0  0  0  0  0  0  0  0  0  0  0
   24.7032  -20.7928  -12.4073 O   0  0  0  0  0  0  0  0  0  0  0  0
   24.4506  -22.0153  -12.5089 C   0  0  0  0  0  0  0  0  0  0  0  0
   26.2109  -19.0383   -8.6140 C   0  0  2  0  0  0  0  0  0  0  0  0
   26.3560  -20.4879   -9.0515 O   0  0  0  0  0  0  0  0  0  0  0  0
   26.5988  -21.3314   -7.9732 C   0  0  1  0  0  0  0  0  0  0  0  0
   25.2527  -20.9518   -9.9277 N   0  0  0  0  0  0  0  0  0  0  0  0
   25.0648  -20.2367  -11.1499 C   0  0  0  0  0  0  0  0  0  0  0  0
   24.0133  -21.1274   -9.1106 O   0  0  0  0  0  0  0  0  0  0  0  0
   22.8396  -20.4343   -9.3421 O   0  0  0  0  0  0  0  0  0  0  0  0
  1  2  1  0
  2  3  2  0
  4  2  1  0
  5  4  1  0
  6  7  1  0
  6  5  1  0
  7  8  1  0
  8 10  1  0
  8  9  1  6
 10 11  2  0
 13 14  1  6
 13 12  1  0
 15 13  1  0
 15 16  1  6
 16 10  1  0
 17 15  1  0
 18 17  2  0
 20 19  1  6
 20 21  1  0
 20 22  1  0
 22 23  1  6
 23 17  1  0
 24 22  1  0
 24 25  1  0
 26 24  2  0
M  END
$$$$
