RVT.pdb
     RDKit          3D

 26 25  0  0  1  0  0  0  0  0999 V2000
   18.8104  -12.2874  -15.2521 N   0  0  0  0  0  0  0  0  0  0  0  0
   17.7805  -13.2716  -15.0562 C   0  0  0  0  0  0  0  0  0  0  0  0
   17.5412  -14.1212  -15.9856 N   0  0  0  0  0  0  0  0  0  0  0  0
   17.0111  -13.3387  -13.8616 N   0  0  0  0  0  0  0  0  0  0  0  0
   16.8889  -12.2232  -12.9537 C   0  0  0  0  0  0  0  0  0  0  0  0
   15.6289  -11.4602  -13.0734 C   0  0  0  0  0  0  0  0  0  0  0  0
   15.4380  -10.2477  -12.2613 C   0  0  0  0  0  0  0  0  0  0  0  0
   14.7256  -10.3162  -10.9690 C   0  0  2  0  0  0  0  0  0  0  0  0
   13.4241  -10.9753  -11.1207 N   0  0  0  0  0  0  0  0  0  0  0  0
   14.3288   -8.8869  -10.6273 C   0  0  0  0  0  0  0  0  0  0  0  0
   13.2675   -8.4492  -11.1449 O   0  0  0  0  0  0  0  0  0  0  0  0
   16.7549  -14.7963  -15.9717 C   0  0  0  0  0  0  0  0  0  0  0  0
   14.0553   -5.1051   -7.6328 C   0  0  1  0  0  0  0  0  0  0  0  0
   14.4262   -6.5072   -7.9880 C   0  0  0  0  0  0  0  0  0  0  0  0
   15.6431   -6.9818   -7.2090 C   0  0  2  0  0  0  0  0  0  0  0  0
   14.6122   -6.7379   -9.4733 N   0  0  0  0  0  0  0  0  0  0  0  0
   15.0755   -8.0527   -9.7785 C   0  0  0  0  0  0  0  0  0  0  0  0
   15.4804   -5.6457   -9.9825 O   0  0  0  0  0  0  0  0  0  0  0  0
   16.7038   -5.7467   -9.7341 C   0  0  0  0  0  0  0  0  0  0  0  0
   16.7579   -2.2958  -13.2516 C   0  0  2  0  0  0  0  0  0  0  0  0
   15.8581   -3.4128  -12.7452 O   0  0  0  0  0  0  0  0  0  0  0  0
   16.1772   -4.6361  -13.3240 C   0  0  1  0  0  0  0  0  0  0  0  0
   15.7618   -3.4664  -11.2660 N   0  0  0  0  0  0  0  0  0  0  0  0
   14.9863   -4.5322  -10.7152 C   0  0  0  0  0  0  0  0  0  0  0  0
   15.4168   -2.1090  -10.7437 O   0  0  0  0  0  0  0  0  0  0  0  0
   16.3567   -1.1330  -10.4692 O   0  0  0  0  0  0  0  0  0  0  0  0
  1  2  1  0
  2  3  2  0
  4  2  1  0
  5  4  1  0
  6  7  1  0
  6  5  1  0
  7  8  1  0
  8 10  1  0
  8  9  1  6
 10 11  2  0
 13 14  1  6
 13 12  1  0
 15 13  1  0
 15 16  1  6
 16 10  1  0
 17 15  1  0
 18 17  2  0
 20 19  1  6
 20 21  1  0
 20 22  1  0
 22 23  1  6
 23 17  1  0
 24 22  1  0
 24 25  1  0
 26 24  2  0
M  END
$$$$
