KML.pdb
     RDKit          3D

 26 25  0  0  1  0  0  0  0  0999 V2000
    7.8494  -18.2661   21.3519 N   0  0  0  0  0  0  0  0  0  0  0  0
    8.9752  -17.4293   21.2303 C   0  0  1  0  0  0  0  0  0  0  0  0
    9.3117  -16.8842   19.8825 C   0  0  0  0  0  0  0  0  0  0  0  0
    8.8301  -17.6062   18.6981 C   0  0  0  0  0  0  0  0  0  0  0  0
    9.7502  -17.8452   17.5641 C   0  0  0  0  0  0  0  0  0  0  0  0
    9.1437  -18.4509   16.3374 C   0  0  0  0  0  0  0  0  0  0  0  0
   10.1179  -18.5248   15.2868 N   0  0  0  0  0  0  0  0  0  0  0  0
    8.9536  -16.3479   22.2531 C   0  0  0  0  0  0  0  0  0  0  0  0
    9.9186  -15.5331   22.2680 O   0  0  0  0  0  0  0  0  0  0  0  0
    6.5830  -11.0959   26.3028 C   0  0  0  0  0  0  0  0  0  0  0  0
    6.6763  -12.4231   25.0982 S   0  0  0  0  0  0  0  0  0  0  0  0
    6.7743  -14.0225   26.0224 C   0  0  0  0  0  0  0  0  0  0  0  0
    6.7534  -15.0895   24.9838 C   0  0  0  0  0  0  0  0  0  0  0  0
    8.0447  -15.1183   24.2025 C   0  0  2  0  0  0  0  0  0  0  0  0
    7.9398  -16.1847   23.1880 N   0  0  0  0  0  0  0  0  0  0  0  0
    9.2080  -15.3754   25.0801 C   0  0  0  0  0  0  0  0  0  0  0  0
   10.0876  -14.4592   25.2754 O   0  0  0  0  0  0  0  0  0  0  0  0
   11.0626  -14.3949   29.4949 C   0  0  0  0  0  0  0  0  0  0  0  0
   10.8220  -14.6619   28.0134 C   0  0  2  0  0  0  0  0  0  0  0  0
    9.9197  -13.6358   27.4066 C   0  0  0  0  0  0  0  0  0  0  0  0
   10.1984  -16.0159   27.8873 C   0  0  0  0  0  0  0  0  0  0  0  0
   10.5921  -16.7528   26.6262 C   0  0  2  0  0  0  0  0  0  0  0  0
    9.4081  -16.6136   25.7444 N   0  0  0  0  0  0  0  0  0  0  0  0
   10.8537  -18.1601   26.9521 C   0  0  0  0  0  0  0  0  0  0  0  0
   12.1303  -18.5442   27.3108 O   0  0  0  0  0  0  0  0  0  0  0  0
    9.9556  -19.0232   26.9146 O   0  0  0  0  0  0  0  0  0  0  0  0
  2  1  1  6
  3  4  1  0
  3  2  1  0
  4  5  1  0
  6  5  1  0
  7  6  1  0
  8  2  1  0
  8  9  2  0
 10 11  1  0
 12 11  1  0
 12 13  1  0
 14 13  1  1
 14 15  1  0
 15  8  1  0
 16 14  1  0
 17 16  2  0
 19 18  1  1
 19 21  1  0
 20 19  1  0
 22 21  1  1
 22 24  1  0
 22 23  1  0
 23 16  1  0
 24 25  1  0
 26 24  2  0
M  END
$$$$
