KML.pdb
     RDKit          3D

 26 25  0  0  1  0  0  0  0  0999 V2000
    7.7293  -19.8831   21.9961 N   0  0  0  0  0  0  0  0  0  0  0  0
    9.0303  -19.7105   21.4861 C   0  0  1  0  0  0  0  0  0  0  0  0
    9.3776  -20.3662   20.1913 C   0  0  0  0  0  0  0  0  0  0  0  0
    8.5008  -21.4333   19.6927 C   0  0  0  0  0  0  0  0  0  0  0  0
    8.8038  -22.0825   18.3979 C   0  0  0  0  0  0  0  0  0  0  0  0
    7.8581  -23.1564   17.9599 C   0  0  0  0  0  0  0  0  0  0  0  0
    7.2644  -22.8112   16.7003 N   0  0  0  0  0  0  0  0  0  0  0  0
    9.4173  -18.2731   21.4769 C   0  0  0  0  0  0  0  0  0  0  0  0
   10.5539  -17.9728   21.0151 O   0  0  0  0  0  0  0  0  0  0  0  0
    7.5547  -11.0430   19.9179 C   0  0  0  0  0  0  0  0  0  0  0  0
    7.1601  -12.7916   20.0067 S   0  0  0  0  0  0  0  0  0  0  0  0
    8.4926  -13.6253   20.9820 C   0  0  0  0  0  0  0  0  0  0  0  0
    8.0743  -15.0496   21.0995 C   0  0  0  0  0  0  0  0  0  0  0  0
    9.0815  -15.8528   21.8865 C   0  0  2  0  0  0  0  0  0  0  0  0
    8.6056  -17.2483   21.9455 N   0  0  0  0  0  0  0  0  0  0  0  0
    9.2500  -15.3234   23.2579 C   0  0  0  0  0  0  0  0  0  0  0  0
   10.3187  -14.6866   23.5800 O   0  0  0  0  0  0  0  0  0  0  0  0
    6.1062  -12.3959   26.9847 C   0  0  0  0  0  0  0  0  0  0  0  0
    7.4784  -13.0289   26.7836 C   0  0  2  0  0  0  0  0  0  0  0  0
    8.3758  -12.1546   25.9678 C   0  0  0  0  0  0  0  0  0  0  0  0
    7.2815  -14.3369   26.0847 C   0  0  0  0  0  0  0  0  0  0  0  0
    8.5707  -14.9849   25.6301 C   0  0  2  0  0  0  0  0  0  0  0  0
    8.2631  -15.4784   24.2661 N   0  0  0  0  0  0  0  0  0  0  0  0
    8.9001  -16.0909   26.5374 C   0  0  0  0  0  0  0  0  0  0  0  0
    8.6517  -17.3890   26.1379 O   0  0  0  0  0  0  0  0  0  0  0  0
    9.3988  -15.8943   27.6624 O   0  0  0  0  0  0  0  0  0  0  0  0
  2  1  1  6
  3  4  1  0
  3  2  1  0
  4  5  1  0
  6  5  1  0
  7  6  1  0
  8  2  1  0
  8  9  2  0
 10 11  1  0
 12 11  1  0
 12 13  1  0
 14 13  1  6
 14 15  1  0
 15  8  1  0
 16 14  1  0
 17 16  2  0
 19 18  1  6
 19 21  1  0
 20 19  1  0
 22 21  1  1
 22 24  1  0
 22 23  1  0
 23 16  1  0
 24 25  1  0
 26 24  2  0
M  END
$$$$
