KML.pdb
     RDKit          3D

 26 25  0  0  1  0  0  0  0  0999 V2000
    7.8435  -18.6718   21.4782 N   0  0  0  0  0  0  0  0  0  0  0  0
    8.9757  -17.9755   21.0138 C   0  0  1  0  0  0  0  0  0  0  0  0
    9.0887  -17.7000   19.5515 C   0  0  0  0  0  0  0  0  0  0  0  0
    9.1906  -18.8409   18.6327 C   0  0  0  0  0  0  0  0  0  0  0  0
    9.2848  -18.5994   17.1758 C   0  0  0  0  0  0  0  0  0  0  0  0
    9.2855  -19.8151   16.3033 C   0  0  0  0  0  0  0  0  0  0  0  0
    9.3017  -19.4334   14.9204 N   0  0  0  0  0  0  0  0  0  0  0  0
    9.2095  -16.7391   21.8093 C   0  0  0  0  0  0  0  0  0  0  0  0
   10.1943  -16.0140   21.4936 O   0  0  0  0  0  0  0  0  0  0  0  0
    6.2553  -12.2010   27.2183 C   0  0  0  0  0  0  0  0  0  0  0  0
    5.8964  -12.8798   25.5961 S   0  0  0  0  0  0  0  0  0  0  0  0
    7.5078  -13.2248   24.7560 C   0  0  0  0  0  0  0  0  0  0  0  0
    7.3609  -14.5733   24.1416 C   0  0  0  0  0  0  0  0  0  0  0  0
    8.6575  -15.0372   23.5231 C   0  0  2  0  0  0  0  0  0  0  0  0
    8.4124  -16.3395   22.8739 N   0  0  0  0  0  0  0  0  0  0  0  0
    9.7265  -15.1768   24.5365 C   0  0  0  0  0  0  0  0  0  0  0  0
   10.8660  -14.6101   24.3589 O   0  0  0  0  0  0  0  0  0  0  0  0
   11.4767  -13.6104   27.4814 C   0  0  0  0  0  0  0  0  0  0  0  0
   10.2215  -14.3020   28.0013 C   0  0  2  0  0  0  0  0  0  0  0  0
    9.9257  -13.9195   29.4160 C   0  0  0  0  0  0  0  0  0  0  0  0
   10.4442  -15.7790   27.9170 C   0  0  0  0  0  0  0  0  0  0  0  0
   10.7621  -16.2685   26.5213 C   0  0  2  0  0  0  0  0  0  0  0  0
    9.5550  -15.9186   25.7343 N   0  0  0  0  0  0  0  0  0  0  0  0
   10.9750  -17.7205   26.5568 C   0  0  0  0  0  0  0  0  0  0  0  0
   10.0175  -18.5569   26.0184 O   0  0  0  0  0  0  0  0  0  0  0  0
   11.9975  -18.2246   27.0603 O   0  0  0  0  0  0  0  0  0  0  0  0
  2  1  1  6
  3  4  1  0
  3  2  1  0
  4  5  1  0
  6  5  1  0
  7  6  1  0
  8  2  1  0
  8  9  2  0
 10 11  1  0
 12 11  1  0
 12 13  1  0
 14 13  1  1
 14 15  1  0
 15  8  1  0
 16 14  1  0
 17 16  2  0
 19 18  1  1
 19 21  1  0
 20 19  1  0
 22 21  1  1
 22 24  1  0
 22 23  1  0
 23 16  1  0
 24 25  1  0
 26 24  2  0
M  END
$$$$
