KML.pdb
     RDKit          3D

 26 25  0  0  1  0  0  0  0  0999 V2000
    7.7856  -18.0696   21.3490 N   0  0  0  0  0  0  0  0  0  0  0  0
    9.0093  -17.4869   20.9679 C   0  0  1  0  0  0  0  0  0  0  0  0
    9.1469  -16.9739   19.5733 C   0  0  0  0  0  0  0  0  0  0  0  0
    8.2491  -17.5086   18.5417 C   0  0  0  0  0  0  0  0  0  0  0  0
    8.4326  -17.1012   17.1310 C   0  0  0  0  0  0  0  0  0  0  0  0
    7.4489  -17.6565   16.1496 C   0  0  0  0  0  0  0  0  0  0  0  0
    7.7469  -17.1855   14.8276 N   0  0  0  0  0  0  0  0  0  0  0  0
    9.4495  -16.4659   21.9578 C   0  0  0  0  0  0  0  0  0  0  0  0
   10.5360  -15.8614   21.7357 O   0  0  0  0  0  0  0  0  0  0  0  0
    6.7403  -11.8498   25.8887 C   0  0  0  0  0  0  0  0  0  0  0  0
    5.9397  -12.7902   24.5864 S   0  0  0  0  0  0  0  0  0  0  0  0
    7.2560  -13.6734   23.6329 C   0  0  0  0  0  0  0  0  0  0  0  0
    8.0617  -14.4095   24.6460 C   0  0  0  0  0  0  0  0  0  0  0  0
    9.2481  -15.0931   24.0104 C   0  0  2  0  0  0  0  0  0  0  0  0
    8.7390  -16.1423   23.1063 N   0  0  0  0  0  0  0  0  0  0  0  0
   10.1388  -15.6969   25.0260 C   0  0  0  0  0  0  0  0  0  0  0  0
   11.4056  -15.7620   24.8206 O   0  0  0  0  0  0  0  0  0  0  0  0
   10.4994  -13.7658   28.2730 C   0  0  0  0  0  0  0  0  0  0  0  0
    9.3878  -14.7831   28.5038 C   0  0  2  0  0  0  0  0  0  0  0  0
    8.6342  -14.5015   29.7639 C   0  0  0  0  0  0  0  0  0  0  0  0
   10.0169  -16.1379   28.5875 C   0  0  0  0  0  0  0  0  0  0  0  0
   10.6475  -16.5979   27.2916 C   0  0  2  0  0  0  0  0  0  0  0  0
    9.6573  -16.2175   26.2555 N   0  0  0  0  0  0  0  0  0  0  0  0
   10.8399  -18.0524   27.3390 C   0  0  0  0  0  0  0  0  0  0  0  0
   11.8667  -18.5733   28.1010 O   0  0  0  0  0  0  0  0  0  0  0  0
   10.1026  -18.8356   26.7099 O   0  0  0  0  0  0  0  0  0  0  0  0
  2  1  1  1
  3  4  1  0
  3  2  1  0
  4  5  1  0
  6  5  1  0
  7  6  1  0
  8  2  1  0
  8  9  2  0
 10 11  1  0
 12 11  1  0
 12 13  1  0
 14 13  1  1
 14 15  1  0
 15  8  1  0
 16 14  1  0
 17 16  2  0
 19 18  1  1
 19 21  1  0
 20 19  1  0
 22 21  1  1
 22 24  1  0
 22 23  1  0
 23 16  1  0
 24 25  1  0
 26 24  2  0
M  END
$$$$
