KML.pdb
     RDKit          3D

 26 25  0  0  1  0  0  0  0  0999 V2000
    6.7536  -17.7516   22.2811 N   0  0  0  0  0  0  0  0  0  0  0  0
    8.0333  -17.8710   21.7062 C   0  0  1  0  0  0  0  0  0  0  0  0
    8.1327  -18.0603   20.2293 C   0  0  0  0  0  0  0  0  0  0  0  0
    7.3093  -19.1022   19.6028 C   0  0  0  0  0  0  0  0  0  0  0  0
    7.4046  -19.3297   18.1437 C   0  0  0  0  0  0  0  0  0  0  0  0
    6.5395  -20.4162   17.5865 C   0  0  0  0  0  0  0  0  0  0  0  0
    6.7600  -20.5516   16.1754 N   0  0  0  0  0  0  0  0  0  0  0  0
    8.9326  -16.7772   22.1656 C   0  0  0  0  0  0  0  0  0  0  0  0
   10.0898  -16.7170   21.6628 O   0  0  0  0  0  0  0  0  0  0  0  0
    5.0988  -12.7386   25.7932 C   0  0  0  0  0  0  0  0  0  0  0  0
    6.7197  -12.3626   25.1204 S   0  0  0  0  0  0  0  0  0  0  0  0
    7.4331  -13.9315   24.4484 C   0  0  0  0  0  0  0  0  0  0  0  0
    8.8015  -13.5818   23.9765 C   0  0  0  0  0  0  0  0  0  0  0  0
    9.5594  -14.8108   23.5363 C   0  0  2  0  0  0  0  0  0  0  0  0
    8.5754  -15.8250   23.1112 N   0  0  0  0  0  0  0  0  0  0  0  0
   10.3986  -15.3544   24.6269 C   0  0  0  0  0  0  0  0  0  0  0  0
   11.4368  -14.7117   25.0276 O   0  0  0  0  0  0  0  0  0  0  0  0
   11.4080  -14.5786   28.6299 C   0  0  0  0  0  0  0  0  0  0  0  0
   10.1633  -14.7020   27.7584 C   0  0  2  0  0  0  0  0  0  0  0  0
    8.9866  -14.0165   28.3756 C   0  0  0  0  0  0  0  0  0  0  0  0
    9.8644  -16.1582   27.5903 C   0  0  0  0  0  0  0  0  0  0  0  0
   10.7574  -16.8513   26.5850 C   0  0  2  0  0  0  0  0  0  0  0  0
   10.1072  -16.5803   25.2801 N   0  0  0  0  0  0  0  0  0  0  0  0
   10.7881  -18.2893   26.8787 C   0  0  0  0  0  0  0  0  0  0  0  0
   11.6947  -18.7708   27.8020 O   0  0  0  0  0  0  0  0  0  0  0  0
   10.0185  -19.0931   26.3180 O   0  0  0  0  0  0  0  0  0  0  0  0
  2  1  1  6
  3  4  1  0
  3  2  1  0
  4  5  1  0
  6  5  1  0
  7  6  1  0
  8  2  1  0
  8  9  2  0
 10 11  1  0
 12 11  1  0
 12 13  1  0
 14 13  1  1
 14 15  1  0
 15  8  1  0
 16 14  1  0
 17 16  2  0
 19 18  1  1
 19 21  1  0
 20 19  1  0
 22 21  1  1
 22 24  1  0
 22 23  1  0
 23 16  1  0
 24 25  1  0
 26 24  2  0
M  END
$$$$
