KML.pdb
     RDKit          3D

 26 25  0  0  1  0  0  0  0  0999 V2000
    7.4733  -18.5505   21.1873 N   0  0  0  0  0  0  0  0  0  0  0  0
    8.7434  -18.0174   20.8955 C   0  0  1  0  0  0  0  0  0  0  0  0
    9.1066  -17.7914   19.4658 C   0  0  0  0  0  0  0  0  0  0  0  0
    8.3205  -18.4740   18.4303 C   0  0  0  0  0  0  0  0  0  0  0  0
    8.7723  -18.4291   17.0219 C   0  0  0  0  0  0  0  0  0  0  0  0
    9.9546  -19.2802   16.6798 C   0  0  0  0  0  0  0  0  0  0  0  0
    9.5381  -20.4295   15.9289 N   0  0  0  0  0  0  0  0  0  0  0  0
    9.0177  -16.8045   21.7138 C   0  0  0  0  0  0  0  0  0  0  0  0
   10.1498  -16.2574   21.5934 O   0  0  0  0  0  0  0  0  0  0  0  0
    6.2754  -11.4574   26.7794 C   0  0  0  0  0  0  0  0  0  0  0  0
    5.9938  -12.9510   25.8247 S   0  0  0  0  0  0  0  0  0  0  0  0
    7.5492  -13.3351   24.9000 C   0  0  0  0  0  0  0  0  0  0  0  0
    7.2603  -14.5718   24.1226 C   0  0  0  0  0  0  0  0  0  0  0  0
    8.4844  -15.0498   23.3795 C   0  0  2  0  0  0  0  0  0  0  0  0
    8.1062  -16.2432   22.5984 N   0  0  0  0  0  0  0  0  0  0  0  0
    9.5879  -15.3871   24.3057 C   0  0  0  0  0  0  0  0  0  0  0  0
   10.7258  -14.7995   24.1993 O   0  0  0  0  0  0  0  0  0  0  0  0
    9.7006  -13.9750   29.4938 C   0  0  0  0  0  0  0  0  0  0  0  0
   10.5606  -14.8092   28.5512 C   0  0  2  0  0  0  0  0  0  0  0  0
   11.6836  -14.0086   27.9739 C   0  0  0  0  0  0  0  0  0  0  0  0
    9.6807  -15.3071   27.4484 C   0  0  0  0  0  0  0  0  0  0  0  0
   10.3726  -16.2626   26.5014 C   0  0  2  0  0  0  0  0  0  0  0  0
    9.4526  -16.3479   25.3415 N   0  0  0  0  0  0  0  0  0  0  0  0
   10.5261  -17.5660   27.1591 C   0  0  0  0  0  0  0  0  0  0  0  0
   11.7944  -18.0541   27.4031 O   0  0  0  0  0  0  0  0  0  0  0  0
    9.5433  -18.2494   27.5053 O   0  0  0  0  0  0  0  0  0  0  0  0
  2  1  1  6
  3  4  1  0
  3  2  1  0
  4  5  1  0
  6  5  1  0
  7  6  1  0
  8  2  1  0
  8  9  2  0
 10 11  1  0
 12 11  1  0
 12 13  1  0
 14 13  1  1
 14 15  1  0
 15  8  1  0
 16 14  1  0
 17 16  2  0
 19 18  1  1
 19 21  1  0
 20 19  1  0
 22 21  1  1
 22 24  1  0
 22 23  1  0
 23 16  1  0
 24 25  1  0
 26 24  2  0
M  END
$$$$
