KML.pdb
     RDKit          3D

 26 25  0  0  1  0  0  0  0  0999 V2000
    9.9822  -16.9771   19.5122 N   0  0  0  0  0  0  0  0  0  0  0  0
    9.4959  -17.5550   20.7004 C   0  0  1  0  0  0  0  0  0  0  0  0
    9.9730  -18.9190   21.0729 C   0  0  0  0  0  0  0  0  0  0  0  0
    9.1456  -20.0733   20.6998 C   0  0  0  0  0  0  0  0  0  0  0  0
    9.6051  -21.4398   21.0333 C   0  0  0  0  0  0  0  0  0  0  0  0
    8.6677  -22.5544   20.6896 C   0  0  0  0  0  0  0  0  0  0  0  0
    9.2583  -23.8194   21.0203 N   0  0  0  0  0  0  0  0  0  0  0  0
    9.6232  -16.6138   21.8467 C   0  0  0  0  0  0  0  0  0  0  0  0
   10.7319  -16.0309   22.0088 O   0  0  0  0  0  0  0  0  0  0  0  0
    5.9691  -12.4087   26.8869 C   0  0  0  0  0  0  0  0  0  0  0  0
    6.1778  -12.6214   25.1170 S   0  0  0  0  0  0  0  0  0  0  0  0
    7.8362  -13.3886   24.8292 C   0  0  0  0  0  0  0  0  0  0  0  0
    7.5650  -14.7046   24.1872 C   0  0  0  0  0  0  0  0  0  0  0  0
    8.8476  -15.4419   23.8872 C   0  0  2  0  0  0  0  0  0  0  0  0
    8.5992  -16.3419   22.7445 N   0  0  0  0  0  0  0  0  0  0  0  0
    9.3103  -16.2284   25.0519 C   0  0  0  0  0  0  0  0  0  0  0  0
    9.1747  -17.5061   25.0664 O   0  0  0  0  0  0  0  0  0  0  0  0
   11.2814  -13.6852   27.5952 C   0  0  0  0  0  0  0  0  0  0  0  0
   10.1169  -14.3331   28.3356 C   0  0  2  0  0  0  0  0  0  0  0  0
    9.9107  -13.7211   29.6840 C   0  0  0  0  0  0  0  0  0  0  0  0
   10.4239  -15.7894   28.4871 C   0  0  0  0  0  0  0  0  0  0  0  0
   10.5862  -16.5179   27.1713 C   0  0  2  0  0  0  0  0  0  0  0  0
    9.9211  -15.6318   26.1858 N   0  0  0  0  0  0  0  0  0  0  0  0
    9.9162  -17.8213   27.2563 C   0  0  0  0  0  0  0  0  0  0  0  0
    8.5724  -17.9110   26.9523 O   0  0  0  0  0  0  0  0  0  0  0  0
   10.5248  -18.8543   27.5962 O   0  0  0  0  0  0  0  0  0  0  0  0
  2  1  1  6
  3  4  1  0
  3  2  1  0
  4  5  1  0
  6  5  1  0
  7  6  1  0
  8  2  1  0
  8  9  2  0
 10 11  1  0
 12 11  1  0
 12 13  1  0
 14 13  1  1
 14 15  1  0
 15  8  1  0
 16 14  1  0
 17 16  2  0
 19 18  1  1
 19 21  1  0
 20 19  1  0
 22 21  1  1
 22 24  1  0
 22 23  1  0
 23 16  1  0
 24 25  1  0
 26 24  2  0
M  END
$$$$
