KML.pdb
     RDKit          3D

 26 25  0  0  1  0  0  0  0  0999 V2000
    9.2573  -16.6672   19.0721 N   0  0  0  0  0  0  0  0  0  0  0  0
    8.6543  -17.0564   20.2835 C   0  0  1  0  0  0  0  0  0  0  0  0
    8.7453  -18.4885   20.6932 C   0  0  0  0  0  0  0  0  0  0  0  0
   10.0649  -19.0329   21.0374 C   0  0  0  0  0  0  0  0  0  0  0  0
   10.1911  -20.4579   21.4162 C   0  0  0  0  0  0  0  0  0  0  0  0
   11.5553  -20.9134   21.8293 C   0  0  0  0  0  0  0  0  0  0  0  0
   11.5414  -22.3171   22.1251 N   0  0  0  0  0  0  0  0  0  0  0  0
    9.0579  -16.1559   21.3980 C   0  0  0  0  0  0  0  0  0  0  0  0
   10.2521  -15.7450   21.4192 O   0  0  0  0  0  0  0  0  0  0  0  0
    5.5258  -13.0834   26.5817 C   0  0  0  0  0  0  0  0  0  0  0  0
    6.2785  -12.0591   25.3145 S   0  0  0  0  0  0  0  0  0  0  0  0
    7.8574  -12.8697   24.7933 C   0  0  0  0  0  0  0  0  0  0  0  0
    7.4605  -13.9649   23.8656 C   0  0  0  0  0  0  0  0  0  0  0  0
    8.6627  -14.7499   23.3993 C   0  0  2  0  0  0  0  0  0  0  0  0
    8.2022  -15.7447   22.4116 N   0  0  0  0  0  0  0  0  0  0  0  0
    9.3361  -15.4362   24.5240 C   0  0  0  0  0  0  0  0  0  0  0  0
    8.9926  -16.6297   24.8540 O   0  0  0  0  0  0  0  0  0  0  0  0
   10.1343  -14.3564   30.0341 C   0  0  0  0  0  0  0  0  0  0  0  0
   10.7110  -15.2885   28.9746 C   0  0  2  0  0  0  0  0  0  0  0  0
   12.1876  -15.4602   29.1345 C   0  0  0  0  0  0  0  0  0  0  0  0
   10.4174  -14.6945   27.6332 C   0  0  0  0  0  0  0  0  0  0  0  0
   10.8815  -15.5485   26.4740 C   0  0  2  0  0  0  0  0  0  0  0  0
   10.3775  -14.8335   25.2767 N   0  0  0  0  0  0  0  0  0  0  0  0
   10.2839  -16.8843   26.5901 C   0  0  0  0  0  0  0  0  0  0  0  0
    8.9130  -17.0210   26.5007 O   0  0  0  0  0  0  0  0  0  0  0  0
   10.9782  -17.9038   26.7680 O   0  0  0  0  0  0  0  0  0  0  0  0
  2  1  1  6
  3  4  1  0
  3  2  1  0
  4  5  1  0
  6  5  1  0
  7  6  1  0
  8  2  1  0
  8  9  2  0
 10 11  1  0
 12 11  1  0
 12 13  1  0
 14 13  1  1
 14 15  1  0
 15  8  1  0
 16 14  1  0
 17 16  2  0
 19 18  1  1
 19 21  1  0
 20 19  1  0
 22 21  1  1
 22 24  1  0
 22 23  1  0
 23 16  1  0
 24 25  1  0
 26 24  2  0
M  END
$$$$
