KML.pdb
     RDKit          3D

 26 25  0  0  1  0  0  0  0  0999 V2000
    7.5126  -18.2840   21.7742 N   0  0  0  0  0  0  0  0  0  0  0  0
    8.8262  -17.8597   21.4972 C   0  0  1  0  0  0  0  0  0  0  0  0
    9.2660  -17.7970   20.0725 C   0  0  0  0  0  0  0  0  0  0  0  0
    8.7221  -18.7836   19.1307 C   0  0  0  0  0  0  0  0  0  0  0  0
    9.5807  -19.3085   18.0458 C   0  0  0  0  0  0  0  0  0  0  0  0
    8.9103  -20.1928   17.0419 C   0  0  0  0  0  0  0  0  0  0  0  0
    9.8446  -20.5901   16.0282 N   0  0  0  0  0  0  0  0  0  0  0  0
    9.1425  -16.5914   22.2095 C   0  0  0  0  0  0  0  0  0  0  0  0
   10.3007  -16.1087   22.0651 O   0  0  0  0  0  0  0  0  0  0  0  0
    6.6735  -11.5315   26.5788 C   0  0  0  0  0  0  0  0  0  0  0  0
    5.8792  -13.0967   26.2041 S   0  0  0  0  0  0  0  0  0  0  0  0
    7.1894  -14.2806   25.6532 C   0  0  0  0  0  0  0  0  0  0  0  0
    7.4258  -13.9785   24.2144 C   0  0  0  0  0  0  0  0  0  0  0  0
    8.6646  -14.6749   23.7052 C   0  0  2  0  0  0  0  0  0  0  0  0
    8.2429  -15.9123   23.0207 N   0  0  0  0  0  0  0  0  0  0  0  0
    9.5966  -15.0049   24.8059 C   0  0  0  0  0  0  0  0  0  0  0  0
   10.4314  -14.1266   25.2335 O   0  0  0  0  0  0  0  0  0  0  0  0
   10.8222  -14.3816   29.5537 C   0  0  0  0  0  0  0  0  0  0  0  0
   11.1932  -14.7621   28.1248 C   0  0  2  0  0  0  0  0  0  0  0  0
   11.1126  -13.5884   27.2021 C   0  0  0  0  0  0  0  0  0  0  0  0
   10.2409  -15.8231   27.6713 C   0  0  0  0  0  0  0  0  0  0  0  0
   10.6896  -16.5515   26.4237 C   0  0  2  0  0  0  0  0  0  0  0  0
    9.6150  -16.2746   25.4401 N   0  0  0  0  0  0  0  0  0  0  0  0
   10.7917  -17.9868   26.7142 C   0  0  0  0  0  0  0  0  0  0  0  0
    9.6865  -18.7935   26.5301 O   0  0  0  0  0  0  0  0  0  0  0  0
   11.8494  -18.5026   27.1242 O   0  0  0  0  0  0  0  0  0  0  0  0
  2  1  1  6
  3  4  1  0
  3  2  1  0
  4  5  1  0
  6  5  1  0
  7  6  1  0
  8  2  1  0
  8  9  2  0
 10 11  1  0
 12 11  1  0
 12 13  1  0
 14 13  1  1
 14 15  1  0
 15  8  1  0
 16 14  1  0
 17 16  2  0
 19 18  1  1
 19 21  1  0
 20 19  1  0
 22 21  1  1
 22 24  1  0
 22 23  1  0
 23 16  1  0
 24 25  1  0
 26 24  2  0
M  END
$$$$
