KML.pdb
     RDKit          3D

 26 25  0  0  1  0  0  0  0  0999 V2000
    7.9145  -18.0539   21.3297 N   0  0  0  0  0  0  0  0  0  0  0  0
    9.2142  -17.5125   21.3441 C   0  0  1  0  0  0  0  0  0  0  0  0
    9.8264  -17.1026   20.0463 C   0  0  0  0  0  0  0  0  0  0  0  0
    9.4197  -17.8139   18.8279 C   0  0  0  0  0  0  0  0  0  0  0  0
   10.0411  -17.4586   17.5327 C   0  0  0  0  0  0  0  0  0  0  0  0
    9.4788  -18.1354   16.3223 C   0  0  0  0  0  0  0  0  0  0  0  0
   10.0944  -17.6187   15.1339 N   0  0  0  0  0  0  0  0  0  0  0  0
    9.3328  -16.4274   22.3563 C   0  0  0  0  0  0  0  0  0  0  0  0
   10.4417  -15.8302   22.4511 O   0  0  0  0  0  0  0  0  0  0  0  0
    6.4208  -11.3684   24.7619 C   0  0  0  0  0  0  0  0  0  0  0  0
    5.9981  -12.6436   25.9521 S   0  0  0  0  0  0  0  0  0  0  0  0
    7.4373  -13.7983   26.0819 C   0  0  0  0  0  0  0  0  0  0  0  0
    7.2582  -14.7898   24.9853 C   0  0  0  0  0  0  0  0  0  0  0  0
    8.5508  -15.0222   24.2409 C   0  0  2  0  0  0  0  0  0  0  0  0
    8.3005  -16.0367   23.1991 N   0  0  0  0  0  0  0  0  0  0  0  0
    9.6251  -15.4882   25.1453 C   0  0  0  0  0  0  0  0  0  0  0  0
   10.7619  -14.8893   25.1638 O   0  0  0  0  0  0  0  0  0  0  0  0
   12.3395  -14.6249   27.5349 C   0  0  0  0  0  0  0  0  0  0  0  0
   10.8437  -14.5714   27.8244 C   0  0  2  0  0  0  0  0  0  0  0  0
   10.5388  -13.6937   28.9957 C   0  0  0  0  0  0  0  0  0  0  0  0
   10.3819  -15.9657   28.1086 C   0  0  0  0  0  0  0  0  0  0  0  0
   10.5738  -16.9191   26.9498 C   0  0  2  0  0  0  0  0  0  0  0  0
    9.4620  -16.5895   26.0257 N   0  0  0  0  0  0  0  0  0  0  0  0
   10.4712  -18.2992   27.4392 C   0  0  0  0  0  0  0  0  0  0  0  0
   11.5452  -18.8639   28.0978 O   0  0  0  0  0  0  0  0  0  0  0  0
    9.4404  -18.9808   27.2779 O   0  0  0  0  0  0  0  0  0  0  0  0
  2  1  1  6
  3  4  1  0
  3  2  1  0
  4  5  1  0
  6  5  1  0
  7  6  1  0
  8  2  1  0
  8  9  2  0
 10 11  1  0
 12 11  1  0
 12 13  1  0
 14 13  1  1
 14 15  1  0
 15  8  1  0
 16 14  1  0
 17 16  2  0
 19 18  1  1
 19 21  1  0
 20 19  1  0
 22 21  1  1
 22 24  1  0
 22 23  1  0
 23 16  1  0
 24 25  1  0
 26 24  2  0
M  END
$$$$
