KML.pdb
     RDKit          3D

 26 25  0  0  1  0  0  0  0  0999 V2000
    7.9883  -18.8675   21.4194 N   0  0  0  0  0  0  0  0  0  0  0  0
    9.1532  -18.1712   21.0444 C   0  0  1  0  0  0  0  0  0  0  0  0
    9.3581  -17.8576   19.5998 C   0  0  0  0  0  0  0  0  0  0  0  0
    9.5374  -18.9736   18.6625 C   0  0  0  0  0  0  0  0  0  0  0  0
    9.7289  -18.6941   17.2220 C   0  0  0  0  0  0  0  0  0  0  0  0
    9.9007  -19.8868   16.3347 C   0  0  0  0  0  0  0  0  0  0  0  0
    9.8843  -19.4868   14.9570 N   0  0  0  0  0  0  0  0  0  0  0  0
    9.3492  -16.9594   21.8864 C   0  0  0  0  0  0  0  0  0  0  0  0
   10.3806  -16.2602   21.6800 O   0  0  0  0  0  0  0  0  0  0  0  0
    6.0078  -11.6315   26.5451 C   0  0  0  0  0  0  0  0  0  0  0  0
    5.9298  -13.2458   25.7645 S   0  0  0  0  0  0  0  0  0  0  0  0
    7.5492  -13.5483   24.9233 C   0  0  0  0  0  0  0  0  0  0  0  0
    7.4115  -14.8681   24.2475 C   0  0  0  0  0  0  0  0  0  0  0  0
    8.7091  -15.2908   23.6023 C   0  0  2  0  0  0  0  0  0  0  0  0
    8.4689  -16.5559   22.8818 N   0  0  0  0  0  0  0  0  0  0  0  0
    9.7803  -15.4818   24.6050 C   0  0  0  0  0  0  0  0  0  0  0  0
   10.9741  -15.0715   24.3642 O   0  0  0  0  0  0  0  0  0  0  0  0
   11.4226  -13.6634   27.5239 C   0  0  0  0  0  0  0  0  0  0  0  0
   10.1409  -14.3500   27.9817 C   0  0  2  0  0  0  0  0  0  0  0  0
    9.7032  -13.8632   29.3259 C   0  0  0  0  0  0  0  0  0  0  0  0
   10.4059  -15.8211   28.0428 C   0  0  0  0  0  0  0  0  0  0  0  0
   10.7292  -16.4381   26.6999 C   0  0  2  0  0  0  0  0  0  0  0  0
    9.5536  -16.1056   25.8596 N   0  0  0  0  0  0  0  0  0  0  0  0
   10.8786  -17.8897   26.8600 C   0  0  0  0  0  0  0  0  0  0  0  0
    9.8783  -18.7258   26.4058 O   0  0  0  0  0  0  0  0  0  0  0  0
   11.8846  -18.3935   27.3959 O   0  0  0  0  0  0  0  0  0  0  0  0
  2  1  1  6
  3  4  1  0
  3  2  1  0
  4  5  1  0
  6  5  1  0
  7  6  1  0
  8  2  1  0
  8  9  2  0
 10 11  1  0
 12 11  1  0
 12 13  1  0
 14 13  1  1
 14 15  1  0
 15  8  1  0
 16 14  1  0
 17 16  2  0
 19 18  1  1
 19 21  1  0
 20 19  1  0
 22 21  1  1
 22 24  1  0
 22 23  1  0
 23 16  1  0
 24 25  1  0
 26 24  2  0
M  END
$$$$
