KML.pdb
     RDKit          3D

 26 25  0  0  1  0  0  0  0  0999 V2000
    6.3804  -19.8665   20.1351 N   0  0  0  0  0  0  0  0  0  0  0  0
    6.3944  -18.8978   21.1569 C   0  0  1  0  0  0  0  0  0  0  0  0
    6.0549  -19.3264   22.5454 C   0  0  0  0  0  0  0  0  0  0  0  0
    6.6840  -20.5438   23.0731 C   0  0  0  0  0  0  0  0  0  0  0  0
    6.3397  -21.0132   24.4335 C   0  0  0  0  0  0  0  0  0  0  0  0
    7.0695  -22.2264   24.9183 C   0  0  0  0  0  0  0  0  0  0  0  0
    6.6371  -22.5695   26.2425 N   0  0  0  0  0  0  0  0  0  0  0  0
    7.6587  -18.1123   21.1351 C   0  0  0  0  0  0  0  0  0  0  0  0
    8.3757  -18.1805   20.0975 O   0  0  0  0  0  0  0  0  0  0  0  0
    6.6755  -12.6641   20.0021 C   0  0  0  0  0  0  0  0  0  0  0  0
    8.2238  -13.1796   19.2550 S   0  0  0  0  0  0  0  0  0  0  0  0
    9.1766  -14.1316   20.5230 C   0  0  0  0  0  0  0  0  0  0  0  0
    8.3053  -15.2772   20.9048 C   0  0  0  0  0  0  0  0  0  0  0  0
    8.9863  -16.1706   21.9132 C   0  0  2  0  0  0  0  0  0  0  0  0
    8.0941  -17.3141   22.1848 N   0  0  0  0  0  0  0  0  0  0  0  0
    9.2746  -15.4507   23.1733 C   0  0  0  0  0  0  0  0  0  0  0  0
    9.8738  -14.3142   23.1479 O   0  0  0  0  0  0  0  0  0  0  0  0
    6.0820  -12.4506   26.0426 C   0  0  0  0  0  0  0  0  0  0  0  0
    7.4074  -13.1258   26.3760 C   0  0  2  0  0  0  0  0  0  0  0  0
    8.5212  -12.1341   26.4826 C   0  0  0  0  0  0  0  0  0  0  0  0
    7.7099  -14.1047   25.2858 C   0  0  0  0  0  0  0  0  0  0  0  0
    8.8758  -15.0182   25.5935 C   0  0  2  0  0  0  0  0  0  0  0  0
    8.9080  -15.9581   24.4471 N   0  0  0  0  0  0  0  0  0  0  0  0
    8.6164  -15.7222   26.8552 C   0  0  0  0  0  0  0  0  0  0  0  0
    8.1008  -17.0025   26.8206 O   0  0  0  0  0  0  0  0  0  0  0  0
    8.8474  -15.1982   27.9620 O   0  0  0  0  0  0  0  0  0  0  0  0
  2  1  1  6
  3  4  1  0
  3  2  1  0
  4  5  1  0
  6  5  1  0
  7  6  1  0
  8  2  1  0
  8  9  2  0
 10 11  1  0
 12 11  1  0
 12 13  1  0
 14 13  1  6
 14 15  1  0
 15  8  1  0
 16 14  1  0
 17 16  2  0
 19 18  1  6
 19 21  1  0
 20 19  1  0
 22 21  1  6
 22 24  1  0
 22 23  1  0
 23 16  1  0
 24 25  1  0
 26 24  2  0
M  END
$$$$
