KML.pdb
     RDKit          3D

 26 25  0  0  1  0  0  0  0  0999 V2000
    7.6428  -17.7657   20.4366 N   0  0  0  0  0  0  0  0  0  0  0  0
    8.8647  -17.0789   20.3039 C   0  0  1  0  0  0  0  0  0  0  0  0
    9.1634  -16.4070   19.0052 C   0  0  0  0  0  0  0  0  0  0  0  0
    8.9433  -17.1597   17.7638 C   0  0  0  0  0  0  0  0  0  0  0  0
    9.1981  -16.5083   16.4597 C   0  0  0  0  0  0  0  0  0  0  0  0
    8.8759  -17.3176   15.2428 C   0  0  0  0  0  0  0  0  0  0  0  0
    8.9318  -16.4935   14.0698 N   0  0  0  0  0  0  0  0  0  0  0  0
    9.0870  -16.1522   21.4475 C   0  0  0  0  0  0  0  0  0  0  0  0
   10.1871  -15.5337   21.4981 O   0  0  0  0  0  0  0  0  0  0  0  0
    5.5566  -11.4853   24.9466 C   0  0  0  0  0  0  0  0  0  0  0  0
    5.8698  -12.9817   25.8868 S   0  0  0  0  0  0  0  0  0  0  0  0
    7.5139  -13.6477   25.3625 C   0  0  0  0  0  0  0  0  0  0  0  0
    7.2377  -14.5264   24.1924 C   0  0  0  0  0  0  0  0  0  0  0  0
    8.5165  -15.0690   23.6014 C   0  0  2  0  0  0  0  0  0  0  0  0
    8.1602  -15.9306   22.4577 N   0  0  0  0  0  0  0  0  0  0  0  0
    9.2884  -15.8491   24.5939 C   0  0  0  0  0  0  0  0  0  0  0  0
   10.1268  -16.7423   24.2061 O   0  0  0  0  0  0  0  0  0  0  0  0
   10.7819  -14.2748   30.2793 C   0  0  0  0  0  0  0  0  0  0  0  0
   11.1851  -15.1474   29.0961 C   0  0  2  0  0  0  0  0  0  0  0  0
   12.5107  -14.7411   28.5365 C   0  0  0  0  0  0  0  0  0  0  0  0
   10.1316  -15.0067   28.0432 C   0  0  0  0  0  0  0  0  0  0  0  0
   10.3337  -15.9191   26.8536 C   0  0  2  0  0  0  0  0  0  0  0  0
    9.1552  -15.6541   25.9935 N   0  0  0  0  0  0  0  0  0  0  0  0
   10.3572  -17.3129   27.3139 C   0  0  0  0  0  0  0  0  0  0  0  0
    9.1645  -17.9617   27.5640 O   0  0  0  0  0  0  0  0  0  0  0  0
   11.4248  -17.9318   27.4872 O   0  0  0  0  0  0  0  0  0  0  0  0
  2  1  1  6
  3  4  1  0
  3  2  1  0
  4  5  1  0
  6  5  1  0
  7  6  1  0
  8  2  1  0
  8  9  2  0
 10 11  1  0
 12 11  1  0
 12 13  1  0
 14 13  1  1
 14 15  1  0
 15  8  1  0
 16 14  1  0
 17 16  2  0
 19 18  1  1
 19 21  1  0
 20 19  1  0
 22 21  1  1
 22 24  1  0
 22 23  1  0
 23 16  1  0
 24 25  1  0
 26 24  2  0
M  END
$$$$
