KML.pdb
     RDKit          3D

 26 25  0  0  1  0  0  0  0  0999 V2000
    7.8116  -18.1146   21.4057 N   0  0  0  0  0  0  0  0  0  0  0  0
    9.0251  -17.5567   20.9600 C   0  0  1  0  0  0  0  0  0  0  0  0
    9.1967  -17.3068   19.4988 C   0  0  0  0  0  0  0  0  0  0  0  0
    8.3690  -18.0727   18.5584 C   0  0  0  0  0  0  0  0  0  0  0  0
    8.5450  -17.8757   17.1024 C   0  0  0  0  0  0  0  0  0  0  0  0
    7.7246  -18.7558   16.2126 C   0  0  0  0  0  0  0  0  0  0  0  0
    8.0004  -18.4641   14.8352 N   0  0  0  0  0  0  0  0  0  0  0  0
    9.3849  -16.3497   21.7535 C   0  0  0  0  0  0  0  0  0  0  0  0
   10.4942  -15.7961   21.5120 O   0  0  0  0  0  0  0  0  0  0  0  0
    6.6963  -11.8362   26.2948 C   0  0  0  0  0  0  0  0  0  0  0  0
    6.0322  -13.4733   25.9783 S   0  0  0  0  0  0  0  0  0  0  0  0
    7.4201  -14.5444   25.3883 C   0  0  0  0  0  0  0  0  0  0  0  0
    7.8822  -13.9367   24.1098 C   0  0  0  0  0  0  0  0  0  0  0  0
    9.0755  -14.6747   23.5527 C   0  0  2  0  0  0  0  0  0  0  0  0
    8.5762  -15.8006   22.7401 N   0  0  0  0  0  0  0  0  0  0  0  0
    9.9528  -15.1852   24.6293 C   0  0  0  0  0  0  0  0  0  0  0  0
   11.2292  -15.0699   24.5346 O   0  0  0  0  0  0  0  0  0  0  0  0
   11.7710  -14.1359   27.9522 C   0  0  0  0  0  0  0  0  0  0  0  0
   10.2893  -14.4446   28.1349 C   0  0  2  0  0  0  0  0  0  0  0  0
    9.7792  -13.9464   29.4490 C   0  0  0  0  0  0  0  0  0  0  0  0
   10.1181  -15.9290   28.0604 C   0  0  0  0  0  0  0  0  0  0  0  0
   10.4030  -16.5071   26.6917 C   0  0  2  0  0  0  0  0  0  0  0  0
    9.4466  -15.8075   25.8002 N   0  0  0  0  0  0  0  0  0  0  0  0
   10.1507  -17.9530   26.7173 C   0  0  0  0  0  0  0  0  0  0  0  0
   11.0798  -18.7904   27.3016 O   0  0  0  0  0  0  0  0  0  0  0  0
    9.1195  -18.4509   26.2256 O   0  0  0  0  0  0  0  0  0  0  0  0
  2  1  1  6
  3  4  1  0
  3  2  1  0
  4  5  1  0
  6  5  1  0
  7  6  1  0
  8  2  1  0
  8  9  2  0
 10 11  1  0
 12 11  1  0
 12 13  1  0
 14 13  1  1
 14 15  1  0
 15  8  1  0
 16 14  1  0
 17 16  2  0
 19 18  1  1
 19 21  1  0
 20 19  1  0
 22 21  1  1
 22 24  1  0
 22 23  1  0
 23 16  1  0
 24 25  1  0
 26 24  2  0
M  END
$$$$
