KML.pdb
     RDKit          3D

 26 25  0  0  1  0  0  0  0  0999 V2000
    7.9891  -18.4911   21.5401 N   0  0  0  0  0  0  0  0  0  0  0  0
    9.2167  -17.8474   21.2933 C   0  0  1  0  0  0  0  0  0  0  0  0
    9.5887  -17.5473   19.8796 C   0  0  0  0  0  0  0  0  0  0  0  0
    9.7319  -18.6690   18.9429 C   0  0  0  0  0  0  0  0  0  0  0  0
   10.8589  -18.6807   17.9840 C   0  0  0  0  0  0  0  0  0  0  0  0
   10.9315  -19.8587   17.0640 C   0  0  0  0  0  0  0  0  0  0  0  0
    9.7556  -19.9215   16.2445 N   0  0  0  0  0  0  0  0  0  0  0  0
    9.3740  -16.6428   22.1536 C   0  0  0  0  0  0  0  0  0  0  0  0
   10.4266  -15.9575   22.0194 O   0  0  0  0  0  0  0  0  0  0  0  0
    5.4619  -11.1796   25.7055 C   0  0  0  0  0  0  0  0  0  0  0  0
    5.7657  -12.9406   25.8720 S   0  0  0  0  0  0  0  0  0  0  0  0
    7.4538  -13.2912   25.2018 C   0  0  0  0  0  0  0  0  0  0  0  0
    7.3153  -14.5324   24.3909 C   0  0  0  0  0  0  0  0  0  0  0  0
    8.6473  -14.9748   23.8352 C   0  0  2  0  0  0  0  0  0  0  0  0
    8.4361  -16.2316   23.0915 N   0  0  0  0  0  0  0  0  0  0  0  0
    9.6423  -15.1901   24.9090 C   0  0  0  0  0  0  0  0  0  0  0  0
   10.2234  -14.1877   25.4647 O   0  0  0  0  0  0  0  0  0  0  0  0
   10.1297  -15.6949   30.1108 C   0  0  0  0  0  0  0  0  0  0  0  0
   10.8084  -15.3709   28.7847 C   0  0  2  0  0  0  0  0  0  0  0  0
   10.8759  -13.8967   28.5445 C   0  0  0  0  0  0  0  0  0  0  0  0
   10.0171  -16.0212   27.6942 C   0  0  0  0  0  0  0  0  0  0  0  0
   10.8674  -16.5792   26.5743 C   0  0  2  0  0  0  0  0  0  0  0  0
    9.9956  -16.4820   25.3788 N   0  0  0  0  0  0  0  0  0  0  0  0
   11.2069  -17.9750   26.8767 C   0  0  0  0  0  0  0  0  0  0  0  0
   12.5165  -18.3046   27.1634 O   0  0  0  0  0  0  0  0  0  0  0  0
   10.3462  -18.8762   26.8823 O   0  0  0  0  0  0  0  0  0  0  0  0
  2  1  1  6
  3  4  1  0
  3  2  1  0
  4  5  1  0
  6  5  1  0
  7  6  1  0
  8  2  1  0
  8  9  2  0
 10 11  1  0
 12 11  1  0
 12 13  1  0
 14 13  1  1
 14 15  1  0
 15  8  1  0
 16 14  1  0
 17 16  2  0
 19 18  1  1
 19 21  1  0
 20 19  1  0
 22 21  1  1
 22 24  1  0
 22 23  1  0
 23 16  1  0
 24 25  1  0
 26 24  2  0
M  END
$$$$
