KML.pdb
     RDKit          3D

 26 25  0  0  1  0  0  0  0  0999 V2000
    6.3993  -16.5054   19.8833 N   0  0  0  0  0  0  0  0  0  0  0  0
    7.4603  -15.7808   20.4592 C   0  0  1  0  0  0  0  0  0  0  0  0
    7.4376  -14.2918   20.3618 C   0  0  0  0  0  0  0  0  0  0  0  0
    7.3774  -13.6810   19.0279 C   0  0  0  0  0  0  0  0  0  0  0  0
    8.5988  -13.6249   18.1943 C   0  0  0  0  0  0  0  0  0  0  0  0
    8.4661  -12.9341   16.8735 C   0  0  0  0  0  0  0  0  0  0  0  0
    9.7438  -12.8515   16.2261 N   0  0  0  0  0  0  0  0  0  0  0  0
    7.7135  -16.2201   21.8587 C   0  0  0  0  0  0  0  0  0  0  0  0
    6.7126  -16.4186   22.6031 O   0  0  0  0  0  0  0  0  0  0  0  0
   11.1162  -21.2513   25.7406 C   0  0  0  0  0  0  0  0  0  0  0  0
   11.7406  -19.7012   25.0859 S   0  0  0  0  0  0  0  0  0  0  0  0
   10.3885  -18.4453   25.2138 C   0  0  0  0  0  0  0  0  0  0  0  0
   10.2727  -17.8391   23.8586 C   0  0  0  0  0  0  0  0  0  0  0  0
    9.1232  -16.8627   23.7922 C   0  0  2  0  0  0  0  0  0  0  0  0
    8.9801  -16.4220   22.3912 N   0  0  0  0  0  0  0  0  0  0  0  0
    9.3523  -15.6898   24.6646 C   0  0  0  0  0  0  0  0  0  0  0  0
   10.4029  -14.9653   24.5140 O   0  0  0  0  0  0  0  0  0  0  0  0
    6.1899  -11.5585   26.7693 C   0  0  0  0  0  0  0  0  0  0  0  0
    7.5978  -12.1049   26.5611 C   0  0  2  0  0  0  0  0  0  0  0  0
    8.0169  -12.0206   25.1285 C   0  0  0  0  0  0  0  0  0  0  0  0
    7.6041  -13.5345   27.0023 C   0  0  0  0  0  0  0  0  0  0  0  0
    8.8787  -14.2728   26.6574 C   0  0  2  0  0  0  0  0  0  0  0  0
    8.4441  -15.3046   25.6851 N   0  0  0  0  0  0  0  0  0  0  0  0
    9.4268  -14.8826   27.8751 C   0  0  0  0  0  0  0  0  0  0  0  0
   10.3461  -14.1792   28.6277 O   0  0  0  0  0  0  0  0  0  0  0  0
    9.0874  -16.0207   28.2525 O   0  0  0  0  0  0  0  0  0  0  0  0
  2  1  1  1
  3  4  1  0
  3  2  1  0
  4  5  1  0
  6  5  1  0
  7  6  1  0
  8  2  1  0
  8  9  2  0
 10 11  1  0
 12 11  1  0
 12 13  1  0
 14 13  1  6
 14 15  1  0
 15  8  1  0
 16 14  1  0
 17 16  2  0
 19 18  1  6
 19 21  1  0
 20 19  1  0
 22 21  1  1
 22 24  1  0
 22 23  1  0
 23 16  1  0
 24 25  1  0
 26 24  2  0
M  END
$$$$
