CYH.pdb
     RDKit          3D

 29 30  0  0  1  0  0  0  0  0999 V2000
    7.7051  -15.4248   19.0067 N   0  0  0  0  0  0  0  0  0  0  0  0
    7.1718  -16.0952   20.1647 C   0  0  1  0  0  0  0  0  0  0  0  0
    7.2915  -17.5878   19.9136 C   0  0  0  0  0  0  0  0  0  0  0  0
    9.0537  -18.0117   19.7480 S   0  0  0  0  0  0  0  0  0  0  0  0
    7.8932  -15.7289   21.4087 C   0  0  0  0  0  0  0  0  0  0  0  0
    9.0169  -15.1932   21.3068 O   0  0  0  0  0  0  0  0  0  0  0  0
    7.0743   -9.8516   26.8221 O   0  0  0  0  0  0  0  0  0  0  0  0
    7.0617  -11.1659   26.3575 C   0  0  0  0  0  0  0  0  0  0  0  0
    6.0616  -12.0363   26.7356 C   0  0  0  0  0  0  0  0  0  0  0  0
    6.0364  -13.3489   26.2803 C   0  0  0  0  0  0  0  0  0  0  0  0
    7.0071  -13.8399   25.4325 C   0  0  0  0  0  0  0  0  0  0  0  0
    7.0128  -15.2359   24.9327 C   0  0  0  0  0  0  0  0  0  0  0  0
    8.0503  -15.5392   23.9133 C   0  0  2  0  0  0  0  0  0  0  0  0
    7.3687  -15.9577   22.7040 N   0  0  0  0  0  0  0  0  0  0  0  0
    8.9443  -16.6145   24.3420 C   0  0  0  0  0  0  0  0  0  0  0  0
    8.5259  -17.8009   24.3365 O   0  0  0  0  0  0  0  0  0  0  0  0
    8.0078  -12.9545   25.0592 C   0  0  0  0  0  0  0  0  0  0  0  0
    8.0345  -11.6518   25.5098 C   0  0  0  0  0  0  0  0  0  0  0  0
   10.2846  -16.3983   24.7735 N   0  0  0  0  0  0  0  0  0  0  0  0
   11.1170  -17.5172   25.1552 C   0  0  1  0  0  0  0  0  0  0  0  0
   12.5754  -17.2817   24.8364 C   0  0  0  0  0  0  0  0  0  0  0  0
   12.7811  -17.0410   23.3765 C   0  0  0  0  0  0  0  0  0  0  0  0
   11.9685  -17.4396   22.3242 C   0  0  0  0  0  0  0  0  0  0  0  0
   12.4903  -17.0338   21.1515 N   0  0  0  0  0  0  0  0  0  0  0  0
   13.6203  -16.3852   21.4507 C   0  0  0  0  0  0  0  0  0  0  0  0
   13.8034  -16.3851   22.7945 N   0  0  0  0  0  0  0  0  0  0  0  0
   10.9260  -17.8906   26.5769 C   0  0  0  0  0  0  0  0  0  0  0  0
   11.6590  -18.9365   27.1099 O   0  0  0  0  0  0  0  0  0  0  0  0
   10.1197  -17.2914   27.3227 O   0  0  0  0  0  0  0  0  0  0  0  0
  2  1  1  6
  3  2  1  0
  4  3  1  0
  5  2  1  0
  5  6  2  0
  7  8  1  0
  8  9  2  0
  9 10  1  0
 11 10  2  0
 11 12  1  0
 13 14  1  0
 13 12  1  1
 14  5  1  0
 15 13  1  0
 16 15  2  0
 17 11  1  0
 18  8  1  0
 18 17  2  0
 19 15  1  0
 20 21  1  1
 20 19  1  0
 21 22  1  0
 22 26  1  0
 23 22  2  0
 23 24  1  0
 24 25  1  0
 26 25  2  0
 27 28  1  0
 27 20  1  0
 29 27  2  0
M  END
$$$$
