CYH.pdb
     RDKit          3D

 29 30  0  0  1  0  0  0  0  0999 V2000
    8.8301  -13.9174   19.8930 N   0  0  0  0  0  0  0  0  0  0  0  0
    8.0825  -14.8765   20.6651 C   0  0  1  0  0  0  0  0  0  0  0  0
    8.1470  -16.1988   19.9217 C   0  0  0  0  0  0  0  0  0  0  0  0
    7.0508  -17.3897   20.7542 S   0  0  0  0  0  0  0  0  0  0  0  0
    8.6227  -15.0374   22.0378 C   0  0  0  0  0  0  0  0  0  0  0  0
    9.8415  -14.8364   22.2228 O   0  0  0  0  0  0  0  0  0  0  0  0
    6.1051  -10.1064   26.8832 O   0  0  0  0  0  0  0  0  0  0  0  0
    6.3952  -11.4242   26.5331 C   0  0  0  0  0  0  0  0  0  0  0  0
    5.4340  -12.2268   25.9561 C   0  0  0  0  0  0  0  0  0  0  0  0
    5.7090  -13.5420   25.6021 C   0  0  0  0  0  0  0  0  0  0  0  0
    6.9513  -14.1033   25.8109 C   0  0  0  0  0  0  0  0  0  0  0  0
    7.2762  -15.5043   25.4499 C   0  0  0  0  0  0  0  0  0  0  0  0
    8.3746  -15.6653   24.4623 C   0  0  2  0  0  0  0  0  0  0  0  0
    7.8231  -15.4076   23.1463 N   0  0  0  0  0  0  0  0  0  0  0  0
    8.9344  -17.0164   24.4781 C   0  0  0  0  0  0  0  0  0  0  0  0
    8.5256  -17.8612   23.6403 O   0  0  0  0  0  0  0  0  0  0  0  0
    7.9098  -13.2858   26.3919 C   0  0  0  0  0  0  0  0  0  0  0  0
    7.6390  -11.9806   26.7438 C   0  0  0  0  0  0  0  0  0  0  0  0
    9.9325  -17.4437   25.4004 N   0  0  0  0  0  0  0  0  0  0  0  0
   11.0969  -18.1623   24.9333 C   0  0  1  0  0  0  0  0  0  0  0  0
   11.7505  -17.4872   23.7496 C   0  0  0  0  0  0  0  0  0  0  0  0
   12.9023  -18.2870   23.2349 C   0  0  0  0  0  0  0  0  0  0  0  0
   12.9782  -19.6631   23.0694 C   0  0  0  0  0  0  0  0  0  0  0  0
   14.1834  -20.0089   22.5796 N   0  0  0  0  0  0  0  0  0  0  0  0
   14.8677  -18.8697   22.4342 C   0  0  0  0  0  0  0  0  0  0  0  0
   14.0998  -17.8236   22.8284 N   0  0  0  0  0  0  0  0  0  0  0  0
   12.0708  -18.4081   26.0234 C   0  0  0  0  0  0  0  0  0  0  0  0
   11.8031  -17.9322   27.2950 O   0  0  0  0  0  0  0  0  0  0  0  0
   13.1371  -19.0358   25.8378 O   0  0  0  0  0  0  0  0  0  0  0  0
  2  1  1  6
  3  2  1  0
  4  3  1  0
  5  2  1  0
  5  6  2  0
  7  8  1  0
  8  9  2  0
  9 10  1  0
 11 10  2  0
 11 12  1  0
 13 14  1  0
 13 12  1  1
 14  5  1  0
 15 13  1  0
 16 15  2  0
 17 11  1  0
 18  8  1  0
 18 17  2  0
 19 15  1  0
 20 21  1  6
 20 19  1  0
 21 22  1  0
 22 26  1  0
 23 22  2  0
 23 24  1  0
 24 25  1  0
 26 25  2  0
 27 28  1  0
 27 20  1  0
 29 27  2  0
M  END
$$$$
