CYH.pdb
     RDKit          3D

 29 30  0  0  1  0  0  0  0  0999 V2000
    9.8889  -16.7605   18.8010 N   0  0  0  0  0  0  0  0  0  0  0  0
    8.7514  -16.9243   19.6693 C   0  0  1  0  0  0  0  0  0  0  0  0
    8.5309  -18.4165   19.8430 C   0  0  0  0  0  0  0  0  0  0  0  0
    7.1950  -18.6715   21.0526 S   0  0  0  0  0  0  0  0  0  0  0  0
    8.9561  -16.2827   20.9917 C   0  0  0  0  0  0  0  0  0  0  0  0
   10.0252  -16.5030   21.5986 O   0  0  0  0  0  0  0  0  0  0  0  0
    7.1222  -11.3282   28.2335 O   0  0  0  0  0  0  0  0  0  0  0  0
    7.1426  -11.9208   26.9718 C   0  0  0  0  0  0  0  0  0  0  0  0
    6.0621  -12.6470   26.5180 C   0  0  0  0  0  0  0  0  0  0  0  0
    6.0686  -13.2431   25.2629 C   0  0  0  0  0  0  0  0  0  0  0  0
    7.1520  -13.1363   24.4163 C   0  0  0  0  0  0  0  0  0  0  0  0
    7.1935  -13.7641   23.0736 C   0  0  0  0  0  0  0  0  0  0  0  0
    8.1709  -14.8730   22.9230 C   0  0  2  0  0  0  0  0  0  0  0  0
    7.9980  -15.4338   21.5971 N   0  0  0  0  0  0  0  0  0  0  0  0
    7.9576  -15.9314   23.9096 C   0  0  0  0  0  0  0  0  0  0  0  0
    6.8517  -16.5304   23.9396 O   0  0  0  0  0  0  0  0  0  0  0  0
    8.2328  -12.4030   24.8841 C   0  0  0  0  0  0  0  0  0  0  0  0
    8.2283  -11.8109   26.1291 C   0  0  0  0  0  0  0  0  0  0  0  0
    8.9426  -16.3342   24.8567 N   0  0  0  0  0  0  0  0  0  0  0  0
    8.6340  -17.3436   25.8448 C   0  0  1  0  0  0  0  0  0  0  0  0
    8.0848  -18.6064   25.2220 C   0  0  0  0  0  0  0  0  0  0  0  0
    9.0680  -19.2206   24.2800 C   0  0  0  0  0  0  0  0  0  0  0  0
   10.3190  -18.7388   23.9201 C   0  0  0  0  0  0  0  0  0  0  0  0
   10.9077  -19.5752   23.0450 N   0  0  0  0  0  0  0  0  0  0  0  0
   10.0448  -20.5772   22.8487 C   0  0  0  0  0  0  0  0  0  0  0  0
    8.9296  -20.3702   23.5921 N   0  0  0  0  0  0  0  0  0  0  0  0
    9.7925  -17.6317   26.7235 C   0  0  0  0  0  0  0  0  0  0  0  0
   10.9628  -16.9103   26.5647 O   0  0  0  0  0  0  0  0  0  0  0  0
    9.7542  -18.5108   27.6130 O   0  0  0  0  0  0  0  0  0  0  0  0
  2  1  1  6
  3  2  1  0
  4  3  1  0
  5  2  1  0
  5  6  2  0
  7  8  1  0
  8  9  2  0
  9 10  1  0
 11 10  2  0
 11 12  1  0
 13 14  1  0
 13 12  1  1
 14  5  1  0
 15 13  1  0
 16 15  2  0
 17 11  1  0
 18  8  1  0
 18 17  2  0
 19 15  1  0
 20 21  1  6
 20 19  1  0
 21 22  1  0
 22 26  1  0
 23 22  2  0
 23 24  1  0
 24 25  1  0
 26 25  2  0
 27 28  1  0
 27 20  1  0
 29 27  2  0
M  END
$$$$
