CYH.pdb
     RDKit          3D

 29 30  0  0  1  0  0  0  0  0999 V2000
   10.1727  -16.7200   18.5598 N   0  0  0  0  0  0  0  0  0  0  0  0
    9.1502  -17.1069   19.4978 C   0  0  1  0  0  0  0  0  0  0  0  0
    9.2717  -18.6067   19.7005 C   0  0  0  0  0  0  0  0  0  0  0  0
    7.9493  -19.1520   20.8258 S   0  0  0  0  0  0  0  0  0  0  0  0
    9.2851  -16.4050   20.7983 C   0  0  0  0  0  0  0  0  0  0  0  0
   10.4302  -16.0944   21.1885 O   0  0  0  0  0  0  0  0  0  0  0  0
    6.7966  -11.6369   27.9575 O   0  0  0  0  0  0  0  0  0  0  0  0
    6.8393  -12.4030   26.7936 C   0  0  0  0  0  0  0  0  0  0  0  0
    6.6879  -13.7724   26.8467 C   0  0  0  0  0  0  0  0  0  0  0  0
    6.7282  -14.5485   25.6948 C   0  0  0  0  0  0  0  0  0  0  0  0
    6.9210  -13.9870   24.4500 C   0  0  0  0  0  0  0  0  0  0  0  0
    6.9746  -14.7864   23.2023 C   0  0  0  0  0  0  0  0  0  0  0  0
    8.3128  -15.3316   22.8565 C   0  0  2  0  0  0  0  0  0  0  0  0
    8.1788  -16.0711   21.6166 N   0  0  0  0  0  0  0  0  0  0  0  0
    8.8210  -16.2360   23.8875 C   0  0  0  0  0  0  0  0  0  0  0  0
    8.3165  -17.3827   24.0027 O   0  0  0  0  0  0  0  0  0  0  0  0
    7.0720  -12.6085   24.4097 C   0  0  0  0  0  0  0  0  0  0  0  0
    7.0321  -11.8368   25.5514 C   0  0  0  0  0  0  0  0  0  0  0  0
    9.8715  -15.8932   24.7865 N   0  0  0  0  0  0  0  0  0  0  0  0
   10.3531  -16.8599   25.7477 C   0  0  1  0  0  0  0  0  0  0  0  0
   11.7914  -17.2504   25.4967 C   0  0  0  0  0  0  0  0  0  0  0  0
   11.9198  -18.0957   24.2718 C   0  0  0  0  0  0  0  0  0  0  0  0
   10.9060  -18.5505   23.4400 C   0  0  0  0  0  0  0  0  0  0  0  0
   11.4197  -19.2868   22.4370 N   0  0  0  0  0  0  0  0  0  0  0  0
   12.7431  -19.3021   22.6257 C   0  0  0  0  0  0  0  0  0  0  0  0
   13.0537  -18.5839   23.7334 N   0  0  0  0  0  0  0  0  0  0  0  0
   10.1508  -16.4026   27.1431 C   0  0  0  0  0  0  0  0  0  0  0  0
    9.5677  -15.1695   27.3770 O   0  0  0  0  0  0  0  0  0  0  0  0
   10.4898  -17.0944   28.1289 O   0  0  0  0  0  0  0  0  0  0  0  0
  2  1  1  6
  3  2  1  0
  4  3  1  0
  5  2  1  0
  5  6  2  0
  7  8  1  0
  8  9  2  0
  9 10  1  0
 11 10  2  0
 11 12  1  0
 13 14  1  0
 13 12  1  1
 14  5  1  0
 15 13  1  0
 16 15  2  0
 17 11  1  0
 18  8  1  0
 18 17  2  0
 19 15  1  0
 20 21  1  6
 20 19  1  0
 21 22  1  0
 22 26  1  0
 23 22  2  0
 23 24  1  0
 24 25  1  0
 26 25  2  0
 27 28  1  0
 27 20  1  0
 29 27  2  0
M  END
$$$$
