CYH.pdb
     RDKit          3D

 29 30  0  0  1  0  0  0  0  0999 V2000
   10.3416  -16.6075   18.7336 N   0  0  0  0  0  0  0  0  0  0  0  0
    9.2149  -16.8641   19.5935 C   0  0  1  0  0  0  0  0  0  0  0  0
    9.1056  -18.3702   19.7520 C   0  0  0  0  0  0  0  0  0  0  0  0
    8.2691  -19.0515   18.2861 S   0  0  0  0  0  0  0  0  0  0  0  0
    9.3641  -16.2220   20.9230 C   0  0  0  0  0  0  0  0  0  0  0  0
   10.4907  -16.2293   21.4620 O   0  0  0  0  0  0  0  0  0  0  0  0
    6.9368  -11.7099   28.3081 O   0  0  0  0  0  0  0  0  0  0  0  0
    6.9956  -12.3311   27.0615 C   0  0  0  0  0  0  0  0  0  0  0  0
    7.7869  -11.8174   26.0561 C   0  0  0  0  0  0  0  0  0  0  0  0
    7.8552  -12.4261   24.8088 C   0  0  0  0  0  0  0  0  0  0  0  0
    7.1373  -13.5676   24.5200 C   0  0  0  0  0  0  0  0  0  0  0  0
    7.1833  -14.2387   23.1985 C   0  0  0  0  0  0  0  0  0  0  0  0
    8.4509  -14.9516   22.8943 C   0  0  2  0  0  0  0  0  0  0  0  0
    8.2911  -15.6022   21.6084 N   0  0  0  0  0  0  0  0  0  0  0  0
    8.7637  -15.9691   23.8973 C   0  0  0  0  0  0  0  0  0  0  0  0
    7.9897  -16.9506   24.0397 O   0  0  0  0  0  0  0  0  0  0  0  0
    6.3450  -14.0748   25.5397 C   0  0  0  0  0  0  0  0  0  0  0  0
    6.2759  -13.4725   26.7779 C   0  0  0  0  0  0  0  0  0  0  0  0
    9.9118  -15.9174   24.7390 N   0  0  0  0  0  0  0  0  0  0  0  0
   10.0886  -16.8926   25.7917 C   0  0  1  0  0  0  0  0  0  0  0  0
   11.4243  -17.5943   25.7046 C   0  0  0  0  0  0  0  0  0  0  0  0
   11.5165  -18.4378   24.4752 C   0  0  0  0  0  0  0  0  0  0  0  0
   10.5390  -18.6521   23.5133 C   0  0  0  0  0  0  0  0  0  0  0  0
   11.0006  -19.4757   22.5537 N   0  0  0  0  0  0  0  0  0  0  0  0
   12.2553  -19.7830   22.8979 C   0  0  0  0  0  0  0  0  0  0  0  0
   12.5749  -19.1592   24.0589 N   0  0  0  0  0  0  0  0  0  0  0  0
    9.8715  -16.3042   27.1347 C   0  0  0  0  0  0  0  0  0  0  0  0
    9.9351  -17.1179   28.2523 O   0  0  0  0  0  0  0  0  0  0  0  0
    9.6304  -15.0877   27.3003 O   0  0  0  0  0  0  0  0  0  0  0  0
  2  1  1  6
  3  2  1  0
  4  3  1  0
  5  2  1  0
  5  6  2  0
  7  8  1  0
  8  9  2  0
  9 10  1  0
 11 10  2  0
 11 12  1  0
 13 14  1  0
 13 12  1  1
 14  5  1  0
 15 13  1  0
 16 15  2  0
 17 11  1  0
 18  8  1  0
 18 17  2  0
 19 15  1  0
 20 21  1  1
 20 19  1  0
 21 22  1  0
 22 26  1  0
 23 22  2  0
 23 24  1  0
 24 25  1  0
 26 25  2  0
 27 28  1  0
 27 20  1  0
 29 27  2  0
M  END
$$$$
