CYH.pdb
     RDKit          3D

 29 30  0  0  1  0  0  0  0  0999 V2000
   10.0335  -16.6537   18.3615 N   0  0  0  0  0  0  0  0  0  0  0  0
    9.0681  -17.0830   19.3406 C   0  0  1  0  0  0  0  0  0  0  0  0
    9.2288  -18.5843   19.5006 C   0  0  0  0  0  0  0  0  0  0  0  0
    8.0982  -19.4182   18.3433 S   0  0  0  0  0  0  0  0  0  0  0  0
    9.2560  -16.4087   20.6491 C   0  0  0  0  0  0  0  0  0  0  0  0
   10.4190  -16.2699   21.0831 O   0  0  0  0  0  0  0  0  0  0  0  0
    7.0505  -11.8987   28.0805 O   0  0  0  0  0  0  0  0  0  0  0  0
    7.0594  -12.5465   26.8462 C   0  0  0  0  0  0  0  0  0  0  0  0
    6.4159  -13.7546   26.6810 C   0  0  0  0  0  0  0  0  0  0  0  0
    6.4166  -14.4115   25.4565 C   0  0  0  0  0  0  0  0  0  0  0  0
    7.0586  -13.8875   24.3542 C   0  0  0  0  0  0  0  0  0  0  0  0
    7.0831  -14.5648   23.0353 C   0  0  0  0  0  0  0  0  0  0  0  0
    8.3758  -15.2024   22.6749 C   0  0  2  0  0  0  0  0  0  0  0  0
    8.1809  -15.9159   21.4278 N   0  0  0  0  0  0  0  0  0  0  0  0
    8.8223  -16.1533   23.6926 C   0  0  0  0  0  0  0  0  0  0  0  0
    8.1895  -17.2293   23.8485 O   0  0  0  0  0  0  0  0  0  0  0  0
    7.7022  -12.6716   24.5330 C   0  0  0  0  0  0  0  0  0  0  0  0
    7.7026  -12.0182   25.7470 C   0  0  0  0  0  0  0  0  0  0  0  0
    9.9504  -15.9330   24.5342 N   0  0  0  0  0  0  0  0  0  0  0  0
   10.2678  -16.8705   25.5881 C   0  0  1  0  0  0  0  0  0  0  0  0
   11.6484  -17.4647   25.4301 C   0  0  0  0  0  0  0  0  0  0  0  0
   11.6847  -18.4706   24.3265 C   0  0  0  0  0  0  0  0  0  0  0  0
   10.6266  -18.9227   23.5501 C   0  0  0  0  0  0  0  0  0  0  0  0
   11.0581  -19.8321   22.6563 N   0  0  0  0  0  0  0  0  0  0  0  0
   12.3734  -19.9591   22.8590 C   0  0  0  0  0  0  0  0  0  0  0  0
   12.7601  -19.1390   23.8675 N   0  0  0  0  0  0  0  0  0  0  0  0
   10.0839  -16.2756   26.9333 C   0  0  0  0  0  0  0  0  0  0  0  0
   10.2468  -17.0684   28.0558 O   0  0  0  0  0  0  0  0  0  0  0  0
    9.7841  -15.0719   27.0963 O   0  0  0  0  0  0  0  0  0  0  0  0
  2  1  1  6
  3  2  1  0
  4  3  1  0
  5  2  1  0
  5  6  2  0
  7  8  1  0
  8  9  2  0
  9 10  1  0
 11 10  2  0
 11 12  1  0
 13 14  1  0
 13 12  1  1
 14  5  1  0
 15 13  1  0
 16 15  2  0
 17 11  1  0
 18  8  1  0
 18 17  2  0
 19 15  1  0
 20 21  1  6
 20 19  1  0
 21 22  1  0
 22 26  1  0
 23 22  2  0
 23 24  1  0
 24 25  1  0
 26 25  2  0
 27 28  1  0
 27 20  1  0
 29 27  2  0
M  END
$$$$
