CYH.pdb
     RDKit          3D

 29 30  0  0  1  0  0  0  0  0999 V2000
   10.2374  -16.9013   18.7005 N   0  0  0  0  0  0  0  0  0  0  0  0
    9.1365  -17.1937   19.5822 C   0  0  1  0  0  0  0  0  0  0  0  0
    9.1353  -18.6940   19.8158 C   0  0  0  0  0  0  0  0  0  0  0  0
    7.8002  -19.1010   20.9840 S   0  0  0  0  0  0  0  0  0  0  0  0
    9.2470  -16.4771   20.8769 C   0  0  0  0  0  0  0  0  0  0  0  0
   10.3645  -16.4247   21.4322 O   0  0  0  0  0  0  0  0  0  0  0  0
    6.7140  -11.4793   27.8801 O   0  0  0  0  0  0  0  0  0  0  0  0
    6.7934  -12.1716   26.6726 C   0  0  0  0  0  0  0  0  0  0  0  0
    6.1448  -13.3772   26.5089 C   0  0  0  0  0  0  0  0  0  0  0  0
    6.2152  -14.0780   25.3111 C   0  0  0  0  0  0  0  0  0  0  0  0
    6.9345  -13.6021   24.2350 C   0  0  0  0  0  0  0  0  0  0  0  0
    7.0345  -14.3271   22.9454 C   0  0  0  0  0  0  0  0  0  0  0  0
    8.2659  -15.1397   22.7697 C   0  0  2  0  0  0  0  0  0  0  0  0
    8.1470  -15.8507   21.5117 N   0  0  0  0  0  0  0  0  0  0  0  0
    8.4377  -16.1167   23.8444 C   0  0  0  0  0  0  0  0  0  0  0  0
    7.6913  -17.1287   23.8806 O   0  0  0  0  0  0  0  0  0  0  0  0
    7.5825  -12.3882   24.4121 C   0  0  0  0  0  0  0  0  0  0  0  0
    7.5138  -11.6913   25.5996 C   0  0  0  0  0  0  0  0  0  0  0  0
    9.4161  -15.9917   24.8723 N   0  0  0  0  0  0  0  0  0  0  0  0
    9.8351  -17.1529   25.6250 C   0  0  1  0  0  0  0  0  0  0  0  0
   10.2550  -18.2956   24.7295 C   0  0  0  0  0  0  0  0  0  0  0  0
   10.6879  -19.4816   25.5278 C   0  0  0  0  0  0  0  0  0  0  0  0
   10.0595  -20.0415   26.6316 C   0  0  0  0  0  0  0  0  0  0  0  0
   10.7561  -21.1038   27.0769 N   0  0  0  0  0  0  0  0  0  0  0  0
   11.8147  -21.2208   26.2688 C   0  0  0  0  0  0  0  0  0  0  0  0
   11.7807  -20.2434   25.3292 N   0  0  0  0  0  0  0  0  0  0  0  0
   10.8895  -16.8223   26.6130 C   0  0  0  0  0  0  0  0  0  0  0  0
   11.4186  -15.5438   26.6411 O   0  0  0  0  0  0  0  0  0  0  0  0
   11.3252  -17.6622   27.4316 O   0  0  0  0  0  0  0  0  0  0  0  0
  2  1  1  6
  3  2  1  0
  4  3  1  0
  5  2  1  0
  5  6  2  0
  7  8  1  0
  8  9  2  0
  9 10  1  0
 11 10  2  0
 11 12  1  0
 13 14  1  0
 13 12  1  1
 14  5  1  0
 15 13  1  0
 16 15  2  0
 17 11  1  0
 18  8  1  0
 18 17  2  0
 19 15  1  0
 20 21  1  6
 20 19  1  0
 21 22  1  0
 22 26  1  0
 23 22  2  0
 23 24  1  0
 24 25  1  0
 26 25  2  0
 27 28  1  0
 27 20  1  0
 29 27  2  0
M  END
$$$$
