CYH.pdb
     RDKit          3D

 29 30  0  0  1  0  0  0  0  0999 V2000
    9.4593  -19.3384   18.9493 N   0  0  0  0  0  0  0  0  0  0  0  0
    9.2991  -19.0192   20.3447 C   0  0  1  0  0  0  0  0  0  0  0  0
    9.8135  -20.2069   21.1385 C   0  0  0  0  0  0  0  0  0  0  0  0
    8.3945  -21.2277   21.6457 S   0  0  0  0  0  0  0  0  0  0  0  0
   10.0384  -17.7913   20.7294 C   0  0  0  0  0  0  0  0  0  0  0  0
   11.1046  -17.5299   20.1337 O   0  0  0  0  0  0  0  0  0  0  0  0
    6.9490  -12.4898   17.6218 O   0  0  0  0  0  0  0  0  0  0  0  0
    7.5308  -13.0112   18.7764 C   0  0  0  0  0  0  0  0  0  0  0  0
    8.8974  -12.9731   18.9544 C   0  0  0  0  0  0  0  0  0  0  0  0
    9.4910  -13.4889   20.1000 C   0  0  0  0  0  0  0  0  0  0  0  0
    8.7433  -14.0607   21.1080 C   0  0  0  0  0  0  0  0  0  0  0  0
    9.3452  -14.6248   22.3402 C   0  0  0  0  0  0  0  0  0  0  0  0
   10.3305  -15.7152   22.1216 C   0  0  2  0  0  0  0  0  0  0  0  0
    9.5930  -16.9033   21.7384 N   0  0  0  0  0  0  0  0  0  0  0  0
   11.0992  -16.0118   23.3300 C   0  0  0  0  0  0  0  0  0  0  0  0
   10.5099  -16.4962   24.3303 O   0  0  0  0  0  0  0  0  0  0  0  0
    7.3696  -14.0929   20.9172 C   0  0  0  0  0  0  0  0  0  0  0  0
    6.7788  -13.5816   19.7814 C   0  0  0  0  0  0  0  0  0  0  0  0
   12.5002  -15.7820   23.4474 N   0  0  0  0  0  0  0  0  0  0  0  0
   13.3652  -16.8095   23.9826 C   0  0  1  0  0  0  0  0  0  0  0  0
   13.1665  -18.1411   23.2958 C   0  0  0  0  0  0  0  0  0  0  0  0
   13.4235  -19.2784   24.2295 C   0  0  0  0  0  0  0  0  0  0  0  0
   13.7784  -19.2172   25.5700 C   0  0  0  0  0  0  0  0  0  0  0  0
   13.9219  -20.4578   26.0724 N   0  0  0  0  0  0  0  0  0  0  0  0
   13.6621  -21.2996   25.0668 C   0  0  0  0  0  0  0  0  0  0  0  0
   13.3598  -20.5941   23.9487 N   0  0  0  0  0  0  0  0  0  0  0  0
   14.7893  -16.3987   23.9676 C   0  0  0  0  0  0  0  0  0  0  0  0
   15.7071  -17.0976   24.7321 O   0  0  0  0  0  0  0  0  0  0  0  0
   15.1995  -15.4345   23.2838 O   0  0  0  0  0  0  0  0  0  0  0  0
  2  1  1  6
  3  2  1  0
  4  3  1  0
  5  2  1  0
  5  6  2  0
  7  8  1  0
  8  9  2  0
  9 10  1  0
 11 10  2  0
 11 12  1  0
 13 14  1  0
 13 12  1  1
 14  5  1  0
 15 13  1  0
 16 15  2  0
 17 11  1  0
 18  8  1  0
 18 17  2  0
 19 15  1  0
 20 21  1  6
 20 19  1  0
 21 22  1  0
 22 26  1  0
 23 22  2  0
 23 24  1  0
 24 25  1  0
 26 25  2  0
 27 28  1  0
 27 20  1  0
 29 27  2  0
M  END
$$$$
