CYH.pdb
     RDKit          3D

 29 30  0  0  1  0  0  0  0  0999 V2000
    9.5940  -17.0237   18.1435 N   0  0  0  0  0  0  0  0  0  0  0  0
    8.9677  -17.5538   19.3274 C   0  0  1  0  0  0  0  0  0  0  0  0
    9.5591  -18.9312   19.5693 C   0  0  0  0  0  0  0  0  0  0  0  0
    8.6856  -19.7035   20.9669 S   0  0  0  0  0  0  0  0  0  0  0  0
    9.1864  -16.6904   20.5143 C   0  0  0  0  0  0  0  0  0  0  0  0
   10.3454  -16.2888   20.7499 O   0  0  0  0  0  0  0  0  0  0  0  0
    7.2186  -11.7669   27.7369 O   0  0  0  0  0  0  0  0  0  0  0  0
    7.1873  -12.5164   26.5619 C   0  0  0  0  0  0  0  0  0  0  0  0
    6.5304  -13.7278   26.5174 C   0  0  0  0  0  0  0  0  0  0  0  0
    6.4911  -14.4855   25.3533 C   0  0  0  0  0  0  0  0  0  0  0  0
    7.1052  -14.0626   24.1931 C   0  0  0  0  0  0  0  0  0  0  0  0
    7.0869  -14.8488   22.9360 C   0  0  0  0  0  0  0  0  0  0  0  0
    8.3743  -15.4972   22.5759 C   0  0  2  0  0  0  0  0  0  0  0  0
    8.1450  -16.3008   21.3911 N   0  0  0  0  0  0  0  0  0  0  0  0
    8.8687  -16.3674   23.6424 C   0  0  0  0  0  0  0  0  0  0  0  0
    8.2319  -17.4145   23.9265 O   0  0  0  0  0  0  0  0  0  0  0  0
    7.7627  -12.8423   24.2506 C   0  0  0  0  0  0  0  0  0  0  0  0
    7.8027  -12.0890   25.4045 C   0  0  0  0  0  0  0  0  0  0  0  0
   10.0487  -16.0985   24.3939 N   0  0  0  0  0  0  0  0  0  0  0  0
   10.4638  -16.9988   25.4463 C   0  0  1  0  0  0  0  0  0  0  0  0
   11.9619  -17.1961   25.4740 C   0  0  0  0  0  0  0  0  0  0  0  0
   12.4184  -18.0561   24.3411 C   0  0  0  0  0  0  0  0  0  0  0  0
   11.6378  -18.6930   23.3863 C   0  0  0  0  0  0  0  0  0  0  0  0
   12.4162  -19.3775   22.5275 N   0  0  0  0  0  0  0  0  0  0  0  0
   13.6763  -19.1806   22.9282 C   0  0  0  0  0  0  0  0  0  0  0  0
   13.6862  -18.3824   24.0246 N   0  0  0  0  0  0  0  0  0  0  0  0
    9.9474  -16.5791   26.7708 C   0  0  0  0  0  0  0  0  0  0  0  0
    9.1988  -15.4196   26.8728 O   0  0  0  0  0  0  0  0  0  0  0  0
   10.1636  -17.2384   27.8119 O   0  0  0  0  0  0  0  0  0  0  0  0
  2  1  1  6
  3  2  1  0
  4  3  1  0
  5  2  1  0
  5  6  2  0
  7  8  1  0
  8  9  2  0
  9 10  1  0
 11 10  2  0
 11 12  1  0
 13 14  1  0
 13 12  1  1
 14  5  1  0
 15 13  1  0
 16 15  2  0
 17 11  1  0
 18  8  1  0
 18 17  2  0
 19 15  1  0
 20 21  1  1
 20 19  1  0
 21 22  1  0
 22 26  1  0
 23 22  2  0
 23 24  1  0
 24 25  1  0
 26 25  2  0
 27 28  1  0
 27 20  1  0
 29 27  2  0
M  END
$$$$
