CYH.pdb
     RDKit          3D

 29 30  0  0  1  0  0  0  0  0999 V2000
   10.1485  -16.6075   18.5990 N   0  0  0  0  0  0  0  0  0  0  0  0
    8.9413  -16.6649   19.3828 C   0  0  1  0  0  0  0  0  0  0  0  0
    8.5641  -18.1294   19.5190 C   0  0  0  0  0  0  0  0  0  0  0  0
    7.9098  -18.7135   17.9242 S   0  0  0  0  0  0  0  0  0  0  0  0
    9.1129  -16.0566   20.7255 C   0  0  0  0  0  0  0  0  0  0  0  0
   10.2298  -16.1437   21.2776 O   0  0  0  0  0  0  0  0  0  0  0  0
    6.9360  -11.5527   28.1805 O   0  0  0  0  0  0  0  0  0  0  0  0
    6.9891  -12.1144   26.9057 C   0  0  0  0  0  0  0  0  0  0  0  0
    7.7745  -11.5528   25.9215 C   0  0  0  0  0  0  0  0  0  0  0  0
    7.8370  -12.1019   24.6466 C   0  0  0  0  0  0  0  0  0  0  0  0
    7.1189  -13.2296   24.3081 C   0  0  0  0  0  0  0  0  0  0  0  0
    7.1589  -13.8376   22.9562 C   0  0  0  0  0  0  0  0  0  0  0  0
    8.2276  -14.8486   22.7480 C   0  0  2  0  0  0  0  0  0  0  0  0
    8.0718  -15.3830   21.4092 N   0  0  0  0  0  0  0  0  0  0  0  0
    8.1354  -15.9509   23.7049 C   0  0  0  0  0  0  0  0  0  0  0  0
    7.3286  -16.8906   23.4846 O   0  0  0  0  0  0  0  0  0  0  0  0
    6.3327  -13.7854   25.3069 C   0  0  0  0  0  0  0  0  0  0  0  0
    6.2694  -13.2422   26.5724 C   0  0  0  0  0  0  0  0  0  0  0  0
    8.9171  -16.0285   24.8934 N   0  0  0  0  0  0  0  0  0  0  0  0
    9.5956  -17.2570   25.2408 C   0  0  1  0  0  0  0  0  0  0  0  0
   10.4163  -17.8024   24.0948 C   0  0  0  0  0  0  0  0  0  0  0  0
   10.9900  -19.1414   24.4255 C   0  0  0  0  0  0  0  0  0  0  0  0
   10.8284  -19.8729   25.5940 C   0  0  0  0  0  0  0  0  0  0  0  0
   11.5026  -21.0353   25.5145 N   0  0  0  0  0  0  0  0  0  0  0  0
   12.0867  -21.0460   24.3120 C   0  0  0  0  0  0  0  0  0  0  0  0
   11.7815  -19.9040   23.6471 N   0  0  0  0  0  0  0  0  0  0  0  0
   10.4104  -17.1117   26.4705 C   0  0  0  0  0  0  0  0  0  0  0  0
   10.6060  -15.8534   27.0122 O   0  0  0  0  0  0  0  0  0  0  0  0
   10.9343  -18.0921   27.0447 O   0  0  0  0  0  0  0  0  0  0  0  0
  2  1  1  6
  3  2  1  0
  4  3  1  0
  5  2  1  0
  5  6  2  0
  7  8  1  0
  8  9  2  0
  9 10  1  0
 11 10  2  0
 11 12  1  0
 13 14  1  0
 13 12  1  1
 14  5  1  0
 15 13  1  0
 16 15  2  0
 17 11  1  0
 18  8  1  0
 18 17  2  0
 19 15  1  0
 20 21  1  6
 20 19  1  0
 21 22  1  0
 22 26  1  0
 23 22  2  0
 23 24  1  0
 24 25  1  0
 26 25  2  0
 27 28  1  0
 27 20  1  0
 29 27  2  0
M  END
$$$$
