CYH.pdb
     RDKit          3D

 29 30  0  0  1  0  0  0  0  0999 V2000
    9.8210  -18.6757   17.8023 N   0  0  0  0  0  0  0  0  0  0  0  0
    9.2333  -18.6105   19.1158 C   0  0  1  0  0  0  0  0  0  0  0  0
    9.2897  -20.0098   19.7023 C   0  0  0  0  0  0  0  0  0  0  0  0
    8.3178  -20.0366   21.2410 S   0  0  0  0  0  0  0  0  0  0  0  0
    9.9445  -17.6575   20.0035 C   0  0  0  0  0  0  0  0  0  0  0  0
   11.1729  -17.5000   19.8417 O   0  0  0  0  0  0  0  0  0  0  0  0
    6.9724  -12.0566   17.5406 O   0  0  0  0  0  0  0  0  0  0  0  0
    7.4607  -12.7354   18.6560 C   0  0  0  0  0  0  0  0  0  0  0  0
    8.7431  -12.5115   19.1102 C   0  0  0  0  0  0  0  0  0  0  0  0
    9.2431  -13.1808   20.2205 C   0  0  0  0  0  0  0  0  0  0  0  0
    8.4826  -14.0967   20.9167 C   0  0  0  0  0  0  0  0  0  0  0  0
    8.9870  -14.8318   22.1016 C   0  0  0  0  0  0  0  0  0  0  0  0
    9.9727  -15.9043   21.8090 C   0  0  2  0  0  0  0  0  0  0  0  0
    9.2974  -16.9193   21.0240 N   0  0  0  0  0  0  0  0  0  0  0  0
   10.4893  -16.5240   23.0290 C   0  0  0  0  0  0  0  0  0  0  0  0
    9.8122  -17.4181   23.5987 O   0  0  0  0  0  0  0  0  0  0  0  0
    7.1941  -14.3132   20.4501 C   0  0  0  0  0  0  0  0  0  0  0  0
    6.6963  -13.6500   19.3488 C   0  0  0  0  0  0  0  0  0  0  0  0
   11.7349  -16.1716   23.6237 N   0  0  0  0  0  0  0  0  0  0  0  0
   12.6876  -17.1981   23.9830 C   0  0  1  0  0  0  0  0  0  0  0  0
   13.0157  -18.1075   22.8214 C   0  0  0  0  0  0  0  0  0  0  0  0
   12.2960  -19.4119   22.9316 C   0  0  0  0  0  0  0  0  0  0  0  0
   11.3796  -19.8007   23.8989 C   0  0  0  0  0  0  0  0  0  0  0  0
   10.9490  -21.0531   23.6579 N   0  0  0  0  0  0  0  0  0  0  0  0
   11.5815  -21.4585   22.5520 C   0  0  0  0  0  0  0  0  0  0  0  0
   12.3981  -20.4716   22.1066 N   0  0  0  0  0  0  0  0  0  0  0  0
   13.9144  -16.6283   24.5891 C   0  0  0  0  0  0  0  0  0  0  0  0
   14.3564  -15.3807   24.1852 O   0  0  0  0  0  0  0  0  0  0  0  0
   14.5736  -17.2370   25.4611 O   0  0  0  0  0  0  0  0  0  0  0  0
  2  1  1  6
  3  2  1  0
  4  3  1  0
  5  2  1  0
  5  6  2  0
  7  8  1  0
  8  9  2  0
  9 10  1  0
 11 10  2  0
 11 12  1  0
 13 14  1  0
 13 12  1  1
 14  5  1  0
 15 13  1  0
 16 15  2  0
 17 11  1  0
 18  8  1  0
 18 17  2  0
 19 15  1  0
 20 21  1  6
 20 19  1  0
 21 22  1  0
 22 26  1  0
 23 22  2  0
 23 24  1  0
 24 25  1  0
 26 25  2  0
 27 28  1  0
 27 20  1  0
 29 27  2  0
M  END
$$$$
