CYH.pdb
     RDKit          3D

 29 30  0  0  1  0  0  0  0  0999 V2000
    9.0942  -17.8471   20.5000 N   0  0  0  0  0  0  0  0  0  0  0  0
    9.9520  -16.7122   20.2742 C   0  0  1  0  0  0  0  0  0  0  0  0
    9.1728  -15.7227   19.4262 C   0  0  0  0  0  0  0  0  0  0  0  0
    8.3536  -16.6293   18.0772 S   0  0  0  0  0  0  0  0  0  0  0  0
   10.3802  -16.0697   21.5415 C   0  0  0  0  0  0  0  0  0  0  0  0
   11.2590  -15.1837   21.4898 O   0  0  0  0  0  0  0  0  0  0  0  0
   10.8913  -14.7519   30.4119 O   0  0  0  0  0  0  0  0  0  0  0  0
   10.5039  -15.0442   29.1049 C   0  0  0  0  0  0  0  0  0  0  0  0
   10.1559  -14.0353   28.2320 C   0  0  0  0  0  0  0  0  0  0  0  0
    9.7679  -14.3119   26.9267 C   0  0  0  0  0  0  0  0  0  0  0  0
    9.7130  -15.6033   26.4460 C   0  0  0  0  0  0  0  0  0  0  0  0
    9.2985  -15.9333   25.0611 C   0  0  0  0  0  0  0  0  0  0  0  0
   10.3908  -15.9243   24.0540 C   0  0  2  0  0  0  0  0  0  0  0  0
    9.8405  -16.4131   22.8048 N   0  0  0  0  0  0  0  0  0  0  0  0
   11.5048  -16.7882   24.4437 C   0  0  0  0  0  0  0  0  0  0  0  0
   12.1238  -16.5490   25.5125 O   0  0  0  0  0  0  0  0  0  0  0  0
   10.0657  -16.6094   27.3337 C   0  0  0  0  0  0  0  0  0  0  0  0
   10.4510  -16.3371   28.6291 C   0  0  0  0  0  0  0  0  0  0  0  0
   11.9412  -17.9047   23.6741 N   0  0  0  0  0  0  0  0  0  0  0  0
   13.0065  -18.7532   24.1596 C   0  0  1  0  0  0  0  0  0  0  0  0
   12.8833  -20.1728   23.6563 C   0  0  0  0  0  0  0  0  0  0  0  0
   11.6088  -20.8036   24.1138 C   0  0  0  0  0  0  0  0  0  0  0  0
   10.9541  -20.6212   25.3240 C   0  0  0  0  0  0  0  0  0  0  0  0
    9.8323  -21.3642   25.3649 N   0  0  0  0  0  0  0  0  0  0  0  0
    9.7714  -22.0119   24.1970 C   0  0  0  0  0  0  0  0  0  0  0  0
   10.8423  -21.6783   23.4347 N   0  0  0  0  0  0  0  0  0  0  0  0
   14.3443  -18.1872   23.8644 C   0  0  0  0  0  0  0  0  0  0  0  0
   15.4747  -18.8314   24.3358 O   0  0  0  0  0  0  0  0  0  0  0  0
   14.4941  -17.1386   23.1985 O   0  0  0  0  0  0  0  0  0  0  0  0
  2  1  1  1
  3  2  1  0
  4  3  1  0
  5  2  1  0
  5  6  2  0
  7  8  1  0
  8  9  2  0
  9 10  1  0
 11 10  2  0
 11 12  1  0
 13 14  1  0
 13 12  1  1
 14  5  1  0
 15 13  1  0
 16 15  2  0
 17 11  1  0
 18  8  1  0
 18 17  2  0
 19 15  1  0
 20 21  1  6
 20 19  1  0
 21 22  1  0
 22 26  1  0
 23 22  2  0
 23 24  1  0
 24 25  1  0
 26 25  2  0
 27 28  1  0
 27 20  1  0
 29 27  2  0
M  END
$$$$
