WDH.pdb
     RDKit          3D

 33 35  0  0  1  0  0  0  0  0999 V2000
   19.0431  -30.0389    6.6446 N   0  0  0  0  0  0  0  0  0  0  0  0
   19.5243  -31.3825    6.3130 C   0  0  1  0  0  0  0  0  0  0  0  0
   19.3088  -31.6371    4.8149 C   0  0  0  0  0  0  0  0  0  0  0  0
   17.8722  -31.7714    4.5022 C   0  0  0  0  0  0  0  0  0  0  0  0
   16.9434  -30.8069    4.1616 C   0  0  0  0  0  0  0  0  0  0  0  0
   15.7595  -31.3999    3.9696 N   0  0  0  0  0  0  0  0  0  0  0  0
   15.8587  -32.7384    4.1702 C   0  0  0  0  0  0  0  0  0  0  0  0
   14.9397  -33.7564    4.0947 C   0  0  0  0  0  0  0  0  0  0  0  0
   15.3484  -35.0413    4.3581 C   0  0  0  0  0  0  0  0  0  0  0  0
   16.6527  -35.3261    4.6940 C   0  0  0  0  0  0  0  0  0  0  0  0
   17.5460  -34.2803    4.7602 C   0  0  0  0  0  0  0  0  0  0  0  0
   17.1862  -32.9690    4.5045 C   0  0  0  0  0  0  0  0  0  0  0  0
   20.9957  -31.4398    6.5163 C   0  0  0  0  0  0  0  0  0  0  0  0
   21.7209  -30.5302    6.0427 O   0  0  0  0  0  0  0  0  0  0  0  0
   21.6490  -32.4856    7.2312 N   0  0  0  0  0  0  0  0  0  0  0  0
   23.0681  -32.5718    7.4000 C   0  0  1  0  0  0  0  0  0  0  0  0
   23.3757  -33.6822    8.3831 C   0  0  0  0  0  0  0  0  0  0  0  0
   24.7935  -33.7613    8.7589 C   0  0  0  0  0  0  0  0  0  0  0  0
   25.6045  -34.6331    8.3539 O   0  0  0  0  0  0  0  0  0  0  0  0
   23.7461  -32.7947    6.1045 C   0  0  0  0  0  0  0  0  0  0  0  0
   23.3935  -33.6691    5.2764 O   0  0  0  0  0  0  0  0  0  0  0  0
   25.3733  -32.8233    9.6406 O   0  0  0  0  0  0  0  0  0  0  0  0
   24.8549  -31.9801    5.7737 N   0  0  0  0  0  0  0  0  0  0  0  0
   25.5444  -32.1978    4.5077 C   0  0  1  0  0  0  0  0  0  0  0  0
   25.8638  -30.8924    3.8279 C   0  0  0  0  0  0  0  0  0  0  0  0
   26.4119  -29.9293    4.8115 C   0  0  0  0  0  0  0  0  0  0  0  0
   26.0409  -29.8641    6.1616 C   0  0  0  0  0  0  0  0  0  0  0  0
   26.7393  -28.8741    6.7411 N   0  0  0  0  0  0  0  0  0  0  0  0
   27.5374  -28.3066    5.8217 C   0  0  0  0  0  0  0  0  0  0  0  0
   27.3211  -28.9601    4.6687 N   0  0  0  0  0  0  0  0  0  0  0  0
   26.8096  -32.8970    4.8072 C   0  0  0  0  0  0  0  0  0  0  0  0
   27.6201  -33.2948    3.7542 O   0  0  0  0  0  0  0  0  0  0  0  0
   27.2128  -33.1630    5.9773 O   0  0  0  0  0  0  0  0  0  0  0  0
  2  1  1  6
  3  2  1  0
  4  3  1  0
  4  5  2  0
  6  5  1  0
  7  6  1  0
  8  7  2  0
  9  8  1  0
 10  9  2  0
 10 11  1  0
 11 12  2  0
 12  7  1  0
 12  4  1  0
 13  2  1  0
 13 14  2  0
 15 13  1  0
 16 15  1  0
 16 17  1  1
 18 17  1  0
 18 22  1  0
 19 18  2  0
 20 16  1  0
 21 20  2  0
 23 20  1  0
 24 23  1  0
 25 26  1  0
 24 25  1  1
 26 27  2  0
 27 28  1  0
 29 28  1  0
 30 26  1  0
 30 29  2  0
 31 32  1  0
 31 24  1  0
 33 31  2  0
M  END
$$$$
