WDH.pdb
     RDKit          3D

 33 35  0  0  1  0  0  0  0  0999 V2000
   36.6502  -25.8938    6.2663 N   0  0  0  0  0  0  0  0  0  0  0  0
   35.8078  -24.7885    6.7304 C   0  0  1  0  0  0  0  0  0  0  0  0
   34.3548  -25.0564    6.3148 C   0  0  0  0  0  0  0  0  0  0  0  0
   33.9265  -24.1216    5.2553 C   0  0  0  0  0  0  0  0  0  0  0  0
   34.1512  -24.1605    3.8926 C   0  0  0  0  0  0  0  0  0  0  0  0
   33.5698  -23.0942    3.3311 N   0  0  0  0  0  0  0  0  0  0  0  0
   32.9576  -22.3336    4.2738 C   0  0  0  0  0  0  0  0  0  0  0  0
   32.2404  -21.1646    4.1975 C   0  0  0  0  0  0  0  0  0  0  0  0
   31.7312  -20.6211    5.3519 C   0  0  0  0  0  0  0  0  0  0  0  0
   31.9248  -21.2217    6.5754 C   0  0  0  0  0  0  0  0  0  0  0  0
   32.6489  -22.3922    6.6133 C   0  0  0  0  0  0  0  0  0  0  0  0
   33.1831  -22.9809    5.4809 C   0  0  0  0  0  0  0  0  0  0  0  0
   35.7973  -24.7713    8.2167 C   0  0  0  0  0  0  0  0  0  0  0  0
   35.7509  -25.8568    8.8470 O   0  0  0  0  0  0  0  0  0  0  0  0
   35.8378  -23.5733    8.9880 N   0  0  0  0  0  0  0  0  0  0  0  0
   35.7818  -23.5425   10.4183 C   0  0  1  0  0  0  0  0  0  0  0  0
   36.6620  -22.4150   10.9165 C   0  0  0  0  0  0  0  0  0  0  0  0
   36.8027  -22.3784   12.3782 C   0  0  0  0  0  0  0  0  0  0  0  0
   36.9382  -23.3850   13.1200 O   0  0  0  0  0  0  0  0  0  0  0  0
   34.3895  -23.3908   10.8937 C   0  0  0  0  0  0  0  0  0  0  0  0
   33.6580  -22.4135   10.6030 O   0  0  0  0  0  0  0  0  0  0  0  0
   36.7955  -21.1572   13.0867 O   0  0  0  0  0  0  0  0  0  0  0  0
   33.8453  -24.4001   11.7229 N   0  0  0  0  0  0  0  0  0  0  0  0
   32.5135  -24.2156   12.2867 C   0  0  1  0  0  0  0  0  0  0  0  0
   32.3341  -22.8182   12.8190 C   0  0  0  0  0  0  0  0  0  0  0  0
   32.9730  -22.6969   14.1503 C   0  0  0  0  0  0  0  0  0  0  0  0
   33.6641  -23.7262   14.8044 C   0  0  0  0  0  0  0  0  0  0  0  0
   34.1016  -23.2544   15.9833 N   0  0  0  0  0  0  0  0  0  0  0  0
   33.7205  -21.9725   16.1092 C   0  0  0  0  0  0  0  0  0  0  0  0
   33.0426  -21.6614   14.9925 N   0  0  0  0  0  0  0  0  0  0  0  0
   31.5385  -24.4367   11.2005 C   0  0  0  0  0  0  0  0  0  0  0  0
   30.8267  -25.6268   11.1718 O   0  0  0  0  0  0  0  0  0  0  0  0
   31.3029  -23.6018   10.2785 O   0  0  0  0  0  0  0  0  0  0  0  0
  2  1  1  1
  3  2  1  0
  4  3  1  0
  4  5  2  0
  6  5  1  0
  7  6  1  0
  8  7  2  0
  9  8  1  0
 10  9  2  0
 10 11  1  0
 11 12  2  0
 12  7  1  0
 12  4  1  0
 13  2  1  0
 13 14  2  0
 15 13  1  0
 16 15  1  0
 16 17  1  6
 18 17  1  0
 18 22  1  0
 19 18  2  0
 20 16  1  0
 21 20  2  0
 23 20  1  0
 24 23  1  0
 25 26  1  0
 24 25  1  6
 26 27  2  0
 27 28  1  0
 29 28  1  0
 30 26  1  0
 30 29  2  0
 31 32  1  0
 31 24  1  0
 33 31  2  0
M  END
$$$$
