WDH.pdb
     RDKit          3D

 33 35  0  0  1  0  0  0  0  0999 V2000
   27.3110  -22.3166  -11.9135 N   0  0  0  0  0  0  0  0  0  0  0  0
   26.3061  -21.5931  -11.1303 C   0  0  1  0  0  0  0  0  0  0  0  0
   26.8724  -20.2240  -10.7300 C   0  0  0  0  0  0  0  0  0  0  0  0
   28.0149  -20.3732   -9.8069 C   0  0  0  0  0  0  0  0  0  0  0  0
   29.3269  -20.7200  -10.0663 C   0  0  0  0  0  0  0  0  0  0  0  0
   30.0044  -20.7300   -8.9125 N   0  0  0  0  0  0  0  0  0  0  0  0
   29.1897  -20.4001   -7.8785 C   0  0  0  0  0  0  0  0  0  0  0  0
   29.4114  -20.2752   -6.5287 C   0  0  0  0  0  0  0  0  0  0  0  0
   28.3647  -19.9178   -5.7139 C   0  0  0  0  0  0  0  0  0  0  0  0
   27.1063  -19.6842   -6.2209 C   0  0  0  0  0  0  0  0  0  0  0  0
   26.9215  -19.8191   -7.5786 C   0  0  0  0  0  0  0  0  0  0  0  0
   27.9412  -20.1765   -8.4428 C   0  0  0  0  0  0  0  0  0  0  0  0
   25.1318  -21.2987  -11.9928 C   0  0  0  0  0  0  0  0  0  0  0  0
   25.3135  -20.8580  -13.1549 O   0  0  0  0  0  0  0  0  0  0  0  0
   23.7829  -21.4897  -11.5738 N   0  0  0  0  0  0  0  0  0  0  0  0
   22.6516  -21.3625  -12.4422 C   0  0  1  0  0  0  0  0  0  0  0  0
   21.5490  -22.2731  -11.9430 C   0  0  0  0  0  0  0  0  0  0  0  0
   20.3623  -22.2917  -12.8086 C   0  0  0  0  0  0  0  0  0  0  0  0
   20.2510  -21.6791  -13.9013 O   0  0  0  0  0  0  0  0  0  0  0  0
   22.1967  -19.9575  -12.5221 C   0  0  0  0  0  0  0  0  0  0  0  0
   22.0214  -19.2251  -11.5183 O   0  0  0  0  0  0  0  0  0  0  0  0
   19.2108  -23.0308  -12.4608 O   0  0  0  0  0  0  0  0  0  0  0  0
   21.9431  -19.4013  -13.7984 N   0  0  0  0  0  0  0  0  0  0  0  0
   21.5433  -18.0029  -13.8978 C   0  0  1  0  0  0  0  0  0  0  0  0
   21.8561  -17.4404  -15.2594 C   0  0  0  0  0  0  0  0  0  0  0  0
   21.3855  -16.0383  -15.3491 C   0  0  0  0  0  0  0  0  0  0  0  0
   20.9433  -15.2704  -14.2630 C   0  0  0  0  0  0  0  0  0  0  0  0
   20.5961  -14.0566  -14.7213 N   0  0  0  0  0  0  0  0  0  0  0  0
   20.7971  -14.0172  -16.0489 C   0  0  0  0  0  0  0  0  0  0  0  0
   21.2724  -15.2226  -16.4018 N   0  0  0  0  0  0  0  0  0  0  0  0
   20.0835  -17.9437  -13.6857 C   0  0  0  0  0  0  0  0  0  0  0  0
   19.3010  -19.0057  -14.1146 O   0  0  0  0  0  0  0  0  0  0  0  0
   19.4865  -16.9753  -13.1304 O   0  0  0  0  0  0  0  0  0  0  0  0
  2  1  1  6
  3  2  1  0
  4  3  1  0
  4  5  2  0
  6  5  1  0
  7  6  1  0
  8  7  2  0
  9  8  1  0
 10  9  2  0
 10 11  1  0
 11 12  2  0
 12  7  1  0
 12  4  1  0
 13  2  1  0
 13 14  2  0
 15 13  1  0
 16 15  1  0
 16 17  1  1
 18 17  1  0
 18 22  1  0
 19 18  2  0
 20 16  1  0
 21 20  2  0
 23 20  1  0
 24 23  1  0
 25 26  1  0
 24 25  1  6
 26 27  2  0
 27 28  1  0
 29 28  1  0
 30 26  1  0
 30 29  2  0
 31 32  1  0
 31 24  1  0
 33 31  2  0
M  END
$$$$
