WDH.pdb
     RDKit          3D

 33 35  0  0  1  0  0  0  0  0999 V2000
   24.4226  -19.1317  -10.9298 N   0  0  0  0  0  0  0  0  0  0  0  0
   25.6026  -19.9183  -11.2981 C   0  0  1  0  0  0  0  0  0  0  0  0
   25.7409  -21.0995  -10.3281 C   0  0  0  0  0  0  0  0  0  0  0  0
   26.0371  -20.6292   -8.9603 C   0  0  0  0  0  0  0  0  0  0  0  0
   25.1862  -20.1555   -7.9803 C   0  0  0  0  0  0  0  0  0  0  0  0
   25.9090  -19.8440   -6.8982 N   0  0  0  0  0  0  0  0  0  0  0  0
   27.2252  -20.0929   -7.1164 C   0  0  0  0  0  0  0  0  0  0  0  0
   28.3392  -19.9410   -6.3273 C   0  0  0  0  0  0  0  0  0  0  0  0
   29.5667  -20.2884   -6.8371 C   0  0  0  0  0  0  0  0  0  0  0  0
   29.7007  -20.7822   -8.1150 C   0  0  0  0  0  0  0  0  0  0  0  0
   28.5622  -20.9206   -8.8769 C   0  0  0  0  0  0  0  0  0  0  0  0
   27.3029  -20.5858   -8.4118 C   0  0  0  0  0  0  0  0  0  0  0  0
   25.3863  -20.5285  -12.6362 C   0  0  0  0  0  0  0  0  0  0  0  0
   24.2181  -20.6364  -13.0848 O   0  0  0  0  0  0  0  0  0  0  0  0
   26.4456  -21.0093  -13.4599 N   0  0  0  0  0  0  0  0  0  0  0  0
   26.2781  -21.4054  -14.8255 C   0  0  1  0  0  0  0  0  0  0  0  0
   27.5995  -21.2393  -15.5470 C   0  0  0  0  0  0  0  0  0  0  0  0
   27.5181  -21.4903  -16.9920 C   0  0  0  0  0  0  0  0  0  0  0  0
   26.4653  -21.7638  -17.6233 O   0  0  0  0  0  0  0  0  0  0  0  0
   25.7825  -22.7958  -14.9200 C   0  0  0  0  0  0  0  0  0  0  0  0
   26.3682  -23.7792  -14.4057 O   0  0  0  0  0  0  0  0  0  0  0  0
   28.6662  -21.4406  -17.8122 O   0  0  0  0  0  0  0  0  0  0  0  0
   24.5816  -23.0380  -15.6281 N   0  0  0  0  0  0  0  0  0  0  0  0
   23.8218  -24.2497  -15.3456 C   0  0  1  0  0  0  0  0  0  0  0  0
   23.6015  -24.4243  -13.8660 C   0  0  0  0  0  0  0  0  0  0  0  0
   22.8571  -25.6793  -13.6089 C   0  0  0  0  0  0  0  0  0  0  0  0
   23.1397  -26.9154  -14.2064 C   0  0  0  0  0  0  0  0  0  0  0  0
   22.2627  -27.8181  -13.7375 N   0  0  0  0  0  0  0  0  0  0  0  0
   21.4353  -27.2130  -12.8693 C   0  0  0  0  0  0  0  0  0  0  0  0
   21.8144  -25.9262  -12.8099 N   0  0  0  0  0  0  0  0  0  0  0  0
   22.5087  -24.1130  -16.0063 C   0  0  0  0  0  0  0  0  0  0  0  0
   21.7278  -25.2454  -16.1846 O   0  0  0  0  0  0  0  0  0  0  0  0
   22.0382  -23.0161  -16.4282 O   0  0  0  0  0  0  0  0  0  0  0  0
  2  1  1  1
  3  2  1  0
  4  3  1  0
  4  5  2  0
  6  5  1  0
  7  6  1  0
  8  7  2  0
  9  8  1  0
 10  9  2  0
 10 11  1  0
 11 12  2  0
 12  7  1  0
 12  4  1  0
 13  2  1  0
 13 14  2  0
 15 13  1  0
 16 15  1  0
 16 17  1  6
 18 17  1  0
 18 22  1  0
 19 18  2  0
 20 16  1  0
 21 20  2  0
 23 20  1  0
 24 23  1  0
 25 26  1  0
 24 25  1  1
 26 27  2  0
 27 28  1  0
 29 28  1  0
 30 26  1  0
 30 29  2  0
 31 32  1  0
 31 24  1  0
 33 31  2  0
M  END
$$$$
