WDH.pdb
     RDKit          3D

 33 35  0  0  1  0  0  0  0  0999 V2000
   21.7042  -12.7695  -17.0052 N   0  0  0  0  0  0  0  0  0  0  0  0
   22.5883  -11.8106  -16.3375 C   0  0  1  0  0  0  0  0  0  0  0  0
   23.8857  -11.6769  -17.1465 C   0  0  0  0  0  0  0  0  0  0  0  0
   24.6959  -12.9077  -17.0545 C   0  0  0  0  0  0  0  0  0  0  0  0
   24.3981  -14.1985  -17.4469 C   0  0  0  0  0  0  0  0  0  0  0  0
   25.4419  -14.9855  -17.1618 N   0  0  0  0  0  0  0  0  0  0  0  0
   26.4388  -14.2655  -16.5874 C   0  0  0  0  0  0  0  0  0  0  0  0
   27.6849  -14.6138  -16.1263 C   0  0  0  0  0  0  0  0  0  0  0  0
   28.4883  -13.6405  -15.5837 C   0  0  0  0  0  0  0  0  0  0  0  0
   28.0712  -12.3317  -15.4939 C   0  0  0  0  0  0  0  0  0  0  0  0
   26.8159  -12.0197  -15.9661 C   0  0  0  0  0  0  0  0  0  0  0  0
   25.9678  -12.9613  -16.5213 C   0  0  0  0  0  0  0  0  0  0  0  0
   21.9620  -10.4629  -16.3689 C   0  0  0  0  0  0  0  0  0  0  0  0
   21.8476   -9.8599  -17.4648 O   0  0  0  0  0  0  0  0  0  0  0  0
   21.4723   -9.7979  -15.2072 N   0  0  0  0  0  0  0  0  0  0  0  0
   20.8723   -8.4980  -15.2246 C   0  0  1  0  0  0  0  0  0  0  0  0
   19.4570   -8.6071  -14.6962 C   0  0  0  0  0  0  0  0  0  0  0  0
   18.5941   -9.4849  -15.4978 C   0  0  0  0  0  0  0  0  0  0  0  0
   18.4612   -9.4283  -16.7472 O   0  0  0  0  0  0  0  0  0  0  0  0
   21.6696   -7.5327  -14.4373 C   0  0  0  0  0  0  0  0  0  0  0  0
   21.5426   -7.3721  -13.1993 O   0  0  0  0  0  0  0  0  0  0  0  0
   17.8176  -10.4996  -14.8972 O   0  0  0  0  0  0  0  0  0  0  0  0
   22.6311   -6.7428  -15.1110 N   0  0  0  0  0  0  0  0  0  0  0  0
   22.7430   -5.3264  -14.7840 C   0  0  1  0  0  0  0  0  0  0  0  0
   22.6366   -4.4704  -16.0185 C   0  0  0  0  0  0  0  0  0  0  0  0
   23.6559   -4.8836  -17.0113 C   0  0  0  0  0  0  0  0  0  0  0  0
   25.0217   -5.0426  -16.7390 C   0  0  0  0  0  0  0  0  0  0  0  0
   25.6340   -5.4214  -17.8727 N   0  0  0  0  0  0  0  0  0  0  0  0
   24.7206   -5.5106  -18.8536 C   0  0  0  0  0  0  0  0  0  0  0  0
   23.5381   -5.1816  -18.3090 N   0  0  0  0  0  0  0  0  0  0  0  0
   21.6260   -4.9916  -13.8787 C   0  0  0  0  0  0  0  0  0  0  0  0
   21.5470   -3.7079  -13.3592 O   0  0  0  0  0  0  0  0  0  0  0  0
   20.7203   -5.8079  -13.5382 O   0  0  0  0  0  0  0  0  0  0  0  0
  2  1  1  6
  3  2  1  0
  4  3  1  0
  4  5  2  0
  6  5  1  0
  7  6  1  0
  8  7  2  0
  9  8  1  0
 10  9  2  0
 10 11  1  0
 11 12  2  0
 12  7  1  0
 12  4  1  0
 13  2  1  0
 13 14  2  0
 15 13  1  0
 16 15  1  0
 16 17  1  1
 18 17  1  0
 18 22  1  0
 19 18  2  0
 20 16  1  0
 21 20  2  0
 23 20  1  0
 24 23  1  0
 25 26  1  0
 24 25  1  6
 26 27  2  0
 27 28  1  0
 29 28  1  0
 30 26  1  0
 30 29  2  0
 31 32  1  0
 31 24  1  0
 33 31  2  0
M  END
$$$$
