WDH.pdb
     RDKit          3D

 33 35  0  0  1  0  0  0  0  0999 V2000
   28.5110  -20.6988   -9.2681 N   0  0  0  0  0  0  0  0  0  0  0  0
   27.1348  -21.1993   -9.2208 C   0  0  1  0  0  0  0  0  0  0  0  0
   26.3654  -20.4489   -8.1252 C   0  0  0  0  0  0  0  0  0  0  0  0
   27.2891  -19.7131   -7.2391 C   0  0  0  0  0  0  0  0  0  0  0  0
   27.9119  -18.4933   -7.4214 C   0  0  0  0  0  0  0  0  0  0  0  0
   28.6628  -18.2297   -6.3458 N   0  0  0  0  0  0  0  0  0  0  0  0
   28.5670  -19.2355   -5.4396 C   0  0  0  0  0  0  0  0  0  0  0  0
   29.1363  -19.4257   -4.2041 C   0  0  0  0  0  0  0  0  0  0  0  0
   28.8413  -20.5715   -3.5060 C   0  0  0  0  0  0  0  0  0  0  0  0
   27.9918  -21.5263   -4.0176 C   0  0  0  0  0  0  0  0  0  0  0  0
   27.4399  -21.3017   -5.2590 C   0  0  0  0  0  0  0  0  0  0  0  0
   27.7039  -20.1655   -6.0029 C   0  0  0  0  0  0  0  0  0  0  0  0
   26.4455  -20.8578  -10.4928 C   0  0  0  0  0  0  0  0  0  0  0  0
   26.6711  -19.7499  -11.0399 O   0  0  0  0  0  0  0  0  0  0  0  0
   25.5244  -21.7287  -11.1445 N   0  0  0  0  0  0  0  0  0  0  0  0
   24.9905  -21.4923  -12.4518 C   0  0  1  0  0  0  0  0  0  0  0  0
   24.9819  -22.7985  -13.2185 C   0  0  0  0  0  0  0  0  0  0  0  0
   24.6212  -22.6489  -14.6346 C   0  0  0  0  0  0  0  0  0  0  0  0
   24.5490  -23.5875  -15.4685 O   0  0  0  0  0  0  0  0  0  0  0  0
   23.6364  -20.9022  -12.3755 C   0  0  0  0  0  0  0  0  0  0  0  0
   22.7368  -21.3227  -11.6082 O   0  0  0  0  0  0  0  0  0  0  0  0
   24.3166  -21.3852  -15.1856 O   0  0  0  0  0  0  0  0  0  0  0  0
   23.3312  -19.8020  -13.2113 N   0  0  0  0  0  0  0  0  0  0  0  0
   22.0201  -19.1728  -13.1079 C   0  0  1  0  0  0  0  0  0  0  0  0
   21.9269  -17.9554  -13.9896 C   0  0  0  0  0  0  0  0  0  0  0  0
   20.5948  -17.3237  -13.8426 C   0  0  0  0  0  0  0  0  0  0  0  0
   19.7595  -17.4653  -12.7259 C   0  0  0  0  0  0  0  0  0  0  0  0
   18.6404  -16.7561  -12.9466 N   0  0  0  0  0  0  0  0  0  0  0  0
   18.7255  -16.1701  -14.1523 C   0  0  0  0  0  0  0  0  0  0  0  0
   19.9114  -16.5278  -14.6710 N   0  0  0  0  0  0  0  0  0  0  0  0
   21.0187  -20.1600  -13.5574 C   0  0  0  0  0  0  0  0  0  0  0  0
   19.7976  -20.2210  -12.9021 O   0  0  0  0  0  0  0  0  0  0  0  0
   21.1998  -20.9678  -14.5151 O   0  0  0  0  0  0  0  0  0  0  0  0
  2  1  1  6
  3  2  1  0
  4  3  1  0
  4  5  2  0
  6  5  1  0
  7  6  1  0
  8  7  2  0
  9  8  1  0
 10  9  2  0
 10 11  1  0
 11 12  2  0
 12  7  1  0
 12  4  1  0
 13  2  1  0
 13 14  2  0
 15 13  1  0
 16 15  1  0
 16 17  1  6
 18 17  1  0
 18 22  1  0
 19 18  2  0
 20 16  1  0
 21 20  2  0
 23 20  1  0
 24 23  1  0
 25 26  1  0
 24 25  1  6
 26 27  2  0
 27 28  1  0
 29 28  1  0
 30 26  1  0
 30 29  2  0
 31 32  1  0
 31 24  1  0
 33 31  2  0
M  END
$$$$
