WDH.pdb
     RDKit          3D

 33 35  0  0  1  0  0  0  0  0999 V2000
   27.7152  -21.0466  -15.2923 N   0  0  0  0  0  0  0  0  0  0  0  0
   26.7772  -21.4707  -14.2496 C   0  0  1  0  0  0  0  0  0  0  0  0
   26.6179  -20.3374  -13.2270 C   0  0  0  0  0  0  0  0  0  0  0  0
   27.5700  -20.4951  -12.1097 C   0  0  0  0  0  0  0  0  0  0  0  0
   28.9516  -20.5045  -12.1148 C   0  0  0  0  0  0  0  0  0  0  0  0
   29.3843  -20.6790  -10.8607 N   0  0  0  0  0  0  0  0  0  0  0  0
   28.3360  -20.7881  -10.0057 C   0  0  0  0  0  0  0  0  0  0  0  0
   28.2654  -20.9726   -8.6464 C   0  0  0  0  0  0  0  0  0  0  0  0
   27.0304  -21.0443   -8.0489 C   0  0  0  0  0  0  0  0  0  0  0  0
   25.8701  -20.9354   -8.7816 C   0  0  0  0  0  0  0  0  0  0  0  0
   25.9796  -20.7513  -10.1418 C   0  0  0  0  0  0  0  0  0  0  0  0
   27.1981  -20.6723  -10.7924 C   0  0  0  0  0  0  0  0  0  0  0  0
   25.4295  -21.6552  -14.8489 C   0  0  0  0  0  0  0  0  0  0  0  0
   25.1322  -21.0399  -15.9028 O   0  0  0  0  0  0  0  0  0  0  0  0
   24.4317  -22.5056  -14.2896 N   0  0  0  0  0  0  0  0  0  0  0  0
   23.2153  -22.8564  -14.9584 C   0  0  1  0  0  0  0  0  0  0  0  0
   22.8995  -24.3086  -14.6662 C   0  0  0  0  0  0  0  0  0  0  0  0
   23.9151  -25.2451  -15.1656 C   0  0  0  0  0  0  0  0  0  0  0  0
   24.2633  -26.3105  -14.5951 O   0  0  0  0  0  0  0  0  0  0  0  0
   22.1059  -21.9692  -14.5465 C   0  0  0  0  0  0  0  0  0  0  0  0
   20.9141  -22.1346  -14.9030 O   0  0  0  0  0  0  0  0  0  0  0  0
   24.6038  -25.0060  -16.3746 O   0  0  0  0  0  0  0  0  0  0  0  0
   22.3971  -20.8708  -13.7033 N   0  0  0  0  0  0  0  0  0  0  0  0
   21.3357  -19.9278  -13.3721 C   0  0  1  0  0  0  0  0  0  0  0  0
   21.6203  -18.5626  -13.9408 C   0  0  0  0  0  0  0  0  0  0  0  0
   20.5003  -17.6422  -13.6345 C   0  0  0  0  0  0  0  0  0  0  0  0
   19.3555  -17.4814  -14.4271 C   0  0  0  0  0  0  0  0  0  0  0  0
   18.5643  -16.5681  -13.8409 N   0  0  0  0  0  0  0  0  0  0  0  0
   19.1533  -16.1406  -12.7118 C   0  0  0  0  0  0  0  0  0  0  0  0
   20.3173  -16.8025  -12.6108 N   0  0  0  0  0  0  0  0  0  0  0  0
   20.0869  -20.4386  -13.9711 C   0  0  0  0  0  0  0  0  0  0  0  0
   20.1489  -21.0927  -15.1927 O   0  0  0  0  0  0  0  0  0  0  0  0
   18.9446  -20.3193  -13.4385 O   0  0  0  0  0  0  0  0  0  0  0  0
  2  1  1  6
  3  2  1  0
  4  3  1  0
  4  5  2  0
  6  5  1  0
  7  6  1  0
  8  7  2  0
  9  8  1  0
 10  9  2  0
 10 11  1  0
 11 12  2  0
 12  7  1  0
 12  4  1  0
 13  2  1  0
 13 14  2  0
 15 13  1  0
 16 15  1  0
 16 17  1  1
 18 17  1  0
 18 22  1  0
 19 18  2  0
 20 16  1  0
 21 20  2  0
 23 20  1  0
 24 23  1  0
 25 26  1  0
 24 25  1  6
 26 27  2  0
 27 28  1  0
 29 28  1  0
 30 26  1  0
 30 29  2  0
 31 32  1  0
 31 24  1  0
 33 31  2  0
M  END
$$$$
