WDH.pdb
     RDKit          3D

 33 35  0  0  1  0  0  0  0  0999 V2000
   36.1158  -25.7612    4.7980 N   0  0  0  0  0  0  0  0  0  0  0  0
   35.8559  -24.5518    5.5832 C   0  0  1  0  0  0  0  0  0  0  0  0
   34.3596  -24.4827    5.9177 C   0  0  0  0  0  0  0  0  0  0  0  0
   33.5668  -24.1231    4.7253 C   0  0  0  0  0  0  0  0  0  0  0  0
   33.0431  -24.9272    3.7313 C   0  0  0  0  0  0  0  0  0  0  0  0
   32.3969  -24.1549    2.8503 N   0  0  0  0  0  0  0  0  0  0  0  0
   32.4674  -22.8505    3.2183 C   0  0  0  0  0  0  0  0  0  0  0  0
   31.9717  -21.7010    2.6528 C   0  0  0  0  0  0  0  0  0  0  0  0
   32.2114  -20.4988    3.2729 C   0  0  0  0  0  0  0  0  0  0  0  0
   32.9341  -20.4246    4.4422 C   0  0  0  0  0  0  0  0  0  0  0  0
   33.4154  -21.5973    4.9799 C   0  0  0  0  0  0  0  0  0  0  0  0
   33.2024  -22.8333    4.3959 C   0  0  0  0  0  0  0  0  0  0  0  0
   36.5495  -24.6601    6.8935 C   0  0  0  0  0  0  0  0  0  0  0  0
   36.7356  -25.7932    7.4025 O   0  0  0  0  0  0  0  0  0  0  0  0
   37.0272  -23.5333    7.6240 N   0  0  0  0  0  0  0  0  0  0  0  0
   37.6965  -23.6256    8.8863 C   0  0  1  0  0  0  0  0  0  0  0  0
   39.0109  -24.3520    8.6893 C   0  0  0  0  0  0  0  0  0  0  0  0
   39.7273  -23.9548    7.4700 C   0  0  0  0  0  0  0  0  0  0  0  0
   40.2985  -22.8487    7.2912 O   0  0  0  0  0  0  0  0  0  0  0  0
   37.9035  -22.2862    9.4787 C   0  0  0  0  0  0  0  0  0  0  0  0
   39.0243  -21.7280    9.5614 O   0  0  0  0  0  0  0  0  0  0  0  0
   39.8305  -24.8241    6.3623 O   0  0  0  0  0  0  0  0  0  0  0  0
   36.7794  -21.5896    9.9822 N   0  0  0  0  0  0  0  0  0  0  0  0
   36.5456  -21.5629   11.4210 C   0  0  1  0  0  0  0  0  0  0  0  0
   36.2351  -22.9384   11.9499 C   0  0  0  0  0  0  0  0  0  0  0  0
   34.7895  -23.2256   11.7979 C   0  0  0  0  0  0  0  0  0  0  0  0
   33.8898  -22.4424   11.0616 C   0  0  0  0  0  0  0  0  0  0  0  0
   32.6737  -23.0055   11.1502 N   0  0  0  0  0  0  0  0  0  0  0  0
   32.7584  -24.1107   11.9090 C   0  0  0  0  0  0  0  0  0  0  0  0
   34.0425  -24.2206   12.2865 N   0  0  0  0  0  0  0  0  0  0  0  0
   37.7840  -21.0782   12.0619 C   0  0  0  0  0  0  0  0  0  0  0  0
   38.9959  -21.6382   11.6856 O   0  0  0  0  0  0  0  0  0  0  0  0
   37.8173  -20.1722   12.9455 O   0  0  0  0  0  0  0  0  0  0  0  0
  2  1  1  6
  3  2  1  0
  4  3  1  0
  4  5  2  0
  6  5  1  0
  7  6  1  0
  8  7  2  0
  9  8  1  0
 10  9  2  0
 10 11  1  0
 11 12  2  0
 12  7  1  0
 12  4  1  0
 13  2  1  0
 13 14  2  0
 15 13  1  0
 16 15  1  0
 16 17  1  6
 18 17  1  0
 18 22  1  0
 19 18  2  0
 20 16  1  0
 21 20  2  0
 23 20  1  0
 24 23  1  0
 25 26  1  0
 24 25  1  1
 26 27  2  0
 27 28  1  0
 29 28  1  0
 30 26  1  0
 30 29  2  0
 31 32  1  0
 31 24  1  0
 33 31  2  0
M  END
$$$$
