WDH.pdb
     RDKit          3D

 33 35  0  0  1  0  0  0  0  0999 V2000
   28.2094  -20.4641  -10.1935 N   0  0  0  0  0  0  0  0  0  0  0  0
   26.8543  -20.8396   -9.7817 C   0  0  1  0  0  0  0  0  0  0  0  0
   26.3449  -19.8256   -8.7484 C   0  0  0  0  0  0  0  0  0  0  0  0
   27.3778  -19.5408   -7.7327 C   0  0  0  0  0  0  0  0  0  0  0  0
   28.2577  -18.4801   -7.6339 C   0  0  0  0  0  0  0  0  0  0  0  0
   29.0127  -18.6489   -6.5422 N   0  0  0  0  0  0  0  0  0  0  0  0
   28.6701  -19.7932   -5.8981 C   0  0  0  0  0  0  0  0  0  0  0  0
   29.1436  -20.3892   -4.7548 C   0  0  0  0  0  0  0  0  0  0  0  0
   28.5829  -21.5734   -4.3417 C   0  0  0  0  0  0  0  0  0  0  0  0
   27.5623  -22.1701   -5.0471 C   0  0  0  0  0  0  0  0  0  0  0  0
   27.1135  -21.5439   -6.1884 C   0  0  0  0  0  0  0  0  0  0  0  0
   27.6434  -20.3512   -6.6475 C   0  0  0  0  0  0  0  0  0  0  0  0
   25.9367  -20.7144  -10.9445 C   0  0  0  0  0  0  0  0  0  0  0  0
   26.0286  -19.7147  -11.6994 O   0  0  0  0  0  0  0  0  0  0  0  0
   24.9373  -21.6795  -11.2629 N   0  0  0  0  0  0  0  0  0  0  0  0
   24.0171  -21.5463  -12.3517 C   0  0  1  0  0  0  0  0  0  0  0  0
   23.9158  -22.8760  -13.0699 C   0  0  0  0  0  0  0  0  0  0  0  0
   25.0797  -23.1815  -13.9124 C   0  0  0  0  0  0  0  0  0  0  0  0
   25.5349  -22.4382  -14.8190 O   0  0  0  0  0  0  0  0  0  0  0  0
   22.6937  -21.0867  -11.8775 C   0  0  0  0  0  0  0  0  0  0  0  0
   22.1850  -21.4397  -10.7860 O   0  0  0  0  0  0  0  0  0  0  0  0
   25.8027  -24.3844  -13.7584 O   0  0  0  0  0  0  0  0  0  0  0  0
   21.9544  -20.1992  -12.6948 N   0  0  0  0  0  0  0  0  0  0  0  0
   20.6423  -19.7472  -12.2480 C   0  0  1  0  0  0  0  0  0  0  0  0
   20.5226  -18.2483  -12.3323 C   0  0  0  0  0  0  0  0  0  0  0  0
   21.0584  -17.7690  -13.6279 C   0  0  0  0  0  0  0  0  0  0  0  0
   21.5767  -18.5943  -14.6354 C   0  0  0  0  0  0  0  0  0  0  0  0
   21.9670  -17.8145  -15.6569 N   0  0  0  0  0  0  0  0  0  0  0  0
   21.7209  -16.5312  -15.3454 C   0  0  0  0  0  0  0  0  0  0  0  0
   21.1741  -16.5312  -14.1189 N   0  0  0  0  0  0  0  0  0  0  0  0
   19.6369  -20.3530  -13.1433 C   0  0  0  0  0  0  0  0  0  0  0  0
   18.2924  -20.2125  -12.8325 O   0  0  0  0  0  0  0  0  0  0  0  0
   19.9212  -21.0023  -14.1922 O   0  0  0  0  0  0  0  0  0  0  0  0
  2  1  1  6
  3  2  1  0
  4  3  1  0
  4  5  2  0
  6  5  1  0
  7  6  1  0
  8  7  2  0
  9  8  1  0
 10  9  2  0
 10 11  1  0
 11 12  2  0
 12  7  1  0
 12  4  1  0
 13  2  1  0
 13 14  2  0
 15 13  1  0
 16 15  1  0
 16 17  1  1
 18 17  1  0
 18 22  1  0
 19 18  2  0
 20 16  1  0
 21 20  2  0
 23 20  1  0
 24 23  1  0
 25 26  1  0
 24 25  1  6
 26 27  2  0
 27 28  1  0
 29 28  1  0
 30 26  1  0
 30 29  2  0
 31 32  1  0
 31 24  1  0
 33 31  2  0
M  END
$$$$
