WDH.pdb
     RDKit          3D

 33 35  0  0  1  0  0  0  0  0999 V2000
   26.9563  -21.0046  -12.9160 N   0  0  0  0  0  0  0  0  0  0  0  0
   25.9307  -21.4350  -11.9622 C   0  0  1  0  0  0  0  0  0  0  0  0
   26.1265  -20.6801  -10.6404 C   0  0  0  0  0  0  0  0  0  0  0  0
   27.4219  -21.0242  -10.0212 C   0  0  0  0  0  0  0  0  0  0  0  0
   28.4828  -21.7505  -10.5269 C   0  0  0  0  0  0  0  0  0  0  0  0
   29.4465  -21.8045   -9.6003 N   0  0  0  0  0  0  0  0  0  0  0  0
   29.0695  -21.1358   -8.4811 C   0  0  0  0  0  0  0  0  0  0  0  0
   29.6989  -20.9105   -7.2812 C   0  0  0  0  0  0  0  0  0  0  0  0
   29.0490  -20.1786   -6.3172 C   0  0  0  0  0  0  0  0  0  0  0  0
   27.7874  -19.6702   -6.5295 C   0  0  0  0  0  0  0  0  0  0  0  0
   27.1875  -19.9163   -7.7441 C   0  0  0  0  0  0  0  0  0  0  0  0
   27.7980  -20.6469   -8.7480 C   0  0  0  0  0  0  0  0  0  0  0  0
   24.5933  -21.0196  -12.4606 C   0  0  0  0  0  0  0  0  0  0  0  0
   24.1586  -19.8743  -12.1830 O   0  0  0  0  0  0  0  0  0  0  0  0
   23.7551  -21.8586  -13.2513 N   0  0  0  0  0  0  0  0  0  0  0  0
   22.3963  -21.5486  -13.5790 C   0  0  1  0  0  0  0  0  0  0  0  0
   22.2521  -21.5226  -15.0866 C   0  0  0  0  0  0  0  0  0  0  0  0
   23.0682  -20.4904  -15.7395 C   0  0  0  0  0  0  0  0  0  0  0  0
   22.9725  -19.2530  -15.5362 O   0  0  0  0  0  0  0  0  0  0  0  0
   21.4652  -22.5195  -12.9643 C   0  0  0  0  0  0  0  0  0  0  0  0
   21.6125  -23.7638  -13.0334 O   0  0  0  0  0  0  0  0  0  0  0  0
   24.0620  -20.8278  -16.6837 O   0  0  0  0  0  0  0  0  0  0  0  0
   20.3437  -22.0250  -12.2572 N   0  0  0  0  0  0  0  0  0  0  0  0
   19.4982  -22.9584  -11.5229 C   0  0  1  0  0  0  0  0  0  0  0  0
   19.6335  -22.7645  -10.0355 C   0  0  0  0  0  0  0  0  0  0  0  0
   18.7449  -23.7086   -9.3182 C   0  0  0  0  0  0  0  0  0  0  0  0
   17.8446  -24.5880   -9.9355 C   0  0  0  0  0  0  0  0  0  0  0  0
   17.2125  -25.2830   -8.9757 N   0  0  0  0  0  0  0  0  0  0  0  0
   17.6693  -24.8862   -7.7765 C   0  0  0  0  0  0  0  0  0  0  0  0
   18.5907  -23.9378   -8.0104 N   0  0  0  0  0  0  0  0  0  0  0  0
   18.0996  -22.6873  -11.9097 C   0  0  0  0  0  0  0  0  0  0  0  0
   17.1678  -23.7103  -11.8132 O   0  0  0  0  0  0  0  0  0  0  0  0
   17.6846  -21.5676  -12.3302 O   0  0  0  0  0  0  0  0  0  0  0  0
  2  1  1  6
  3  2  1  0
  4  3  1  0
  4  5  2  0
  6  5  1  0
  7  6  1  0
  8  7  2  0
  9  8  1  0
 10  9  2  0
 10 11  1  0
 11 12  2  0
 12  7  1  0
 12  4  1  0
 13  2  1  0
 13 14  2  0
 15 13  1  0
 16 15  1  0
 16 17  1  6
 18 17  1  0
 18 22  1  0
 19 18  2  0
 20 16  1  0
 21 20  2  0
 23 20  1  0
 24 23  1  0
 25 26  1  0
 24 25  1  1
 26 27  2  0
 27 28  1  0
 29 28  1  0
 30 26  1  0
 30 29  2  0
 31 32  1  0
 31 24  1  0
 33 31  2  0
M  END
$$$$
