WDH.pdb
     RDKit          3D

 33 35  0  0  1  0  0  0  0  0999 V2000
   28.5461  -21.0368  -11.8164 N   0  0  0  0  0  0  0  0  0  0  0  0
   27.3146  -21.4638  -11.1472 C   0  0  1  0  0  0  0  0  0  0  0  0
   27.0426  -20.5345   -9.9564 C   0  0  0  0  0  0  0  0  0  0  0  0
   28.0731  -20.6976   -8.9117 C   0  0  0  0  0  0  0  0  0  0  0  0
   29.3083  -21.3137   -8.9711 C   0  0  0  0  0  0  0  0  0  0  0  0
   29.8951  -21.2155   -7.7727 N   0  0  0  0  0  0  0  0  0  0  0  0
   29.0934  -20.5507   -6.9025 C   0  0  0  0  0  0  0  0  0  0  0  0
   29.2469  -20.2036   -5.5824 C   0  0  0  0  0  0  0  0  0  0  0  0
   28.2375  -19.5146   -4.9550 C   0  0  0  0  0  0  0  0  0  0  0  0
   27.0828  -19.1679   -5.6195 C   0  0  0  0  0  0  0  0  0  0  0  0
   26.9639  -19.5327   -6.9419 C   0  0  0  0  0  0  0  0  0  0  0  0
   27.9501  -20.2266   -7.6202 C   0  0  0  0  0  0  0  0  0  0  0  0
   26.1644  -21.2721  -12.0692 C   0  0  0  0  0  0  0  0  0  0  0  0
   26.1079  -20.2382  -12.7802 O   0  0  0  0  0  0  0  0  0  0  0  0
   25.0985  -22.2094  -12.1995 N   0  0  0  0  0  0  0  0  0  0  0  0
   24.0700  -22.1159  -13.1912 C   0  0  1  0  0  0  0  0  0  0  0  0
   23.5774  -23.5109  -13.5158 C   0  0  0  0  0  0  0  0  0  0  0  0
   22.5301  -23.5419  -14.5453 C   0  0  0  0  0  0  0  0  0  0  0  0
   21.3601  -23.9719  -14.3781 O   0  0  0  0  0  0  0  0  0  0  0  0
   22.9651  -21.2463  -12.7324 C   0  0  0  0  0  0  0  0  0  0  0  0
   22.6023  -21.1565  -11.5345 O   0  0  0  0  0  0  0  0  0  0  0  0
   22.7722  -23.0709  -15.8540 O   0  0  0  0  0  0  0  0  0  0  0  0
   22.2740  -20.4695  -13.6922 N   0  0  0  0  0  0  0  0  0  0  0  0
   21.2149  -19.5704  -13.2501 C   0  0  1  0  0  0  0  0  0  0  0  0
   21.2355  -18.2790  -14.0248 C   0  0  0  0  0  0  0  0  0  0  0  0
   20.1418  -17.3928  -13.5620 C   0  0  0  0  0  0  0  0  0  0  0  0
   20.3109  -16.2808  -12.7256 C   0  0  0  0  0  0  0  0  0  0  0  0
   19.1062  -15.7244  -12.5189 N   0  0  0  0  0  0  0  0  0  0  0  0
   18.1786  -16.4313  -13.1854 C   0  0  0  0  0  0  0  0  0  0  0  0
   18.8280  -17.4302  -13.8048 N   0  0  0  0  0  0  0  0  0  0  0  0
   19.9270  -20.2488  -13.4959 C   0  0  0  0  0  0  0  0  0  0  0  0
   19.7882  -21.0300  -14.6336 O   0  0  0  0  0  0  0  0  0  0  0  0
   18.9241  -20.1658  -12.7278 O   0  0  0  0  0  0  0  0  0  0  0  0
  2  1  1  6
  3  2  1  0
  4  3  1  0
  4  5  2  0
  6  5  1  0
  7  6  1  0
  8  7  2  0
  9  8  1  0
 10  9  2  0
 10 11  1  0
 11 12  2  0
 12  7  1  0
 12  4  1  0
 13  2  1  0
 13 14  2  0
 15 13  1  0
 16 15  1  0
 16 17  1  1
 18 17  1  0
 18 22  1  0
 19 18  2  0
 20 16  1  0
 21 20  2  0
 23 20  1  0
 24 23  1  0
 25 26  1  0
 24 25  1  6
 26 27  2  0
 27 28  1  0
 29 28  1  0
 30 26  1  0
 30 29  2  0
 31 32  1  0
 31 24  1  0
 33 31  2  0
M  END
$$$$
