DGR.pdb
     RDKit          3D

 24 23  0  0  1  0  0  0  0  0999 V2000
    9.5156  -12.9153   17.7370 N   0  0  0  0  0  0  0  0  0  0  0  0
    8.3587  -13.5897   18.2367 C   0  0  1  0  0  0  0  0  0  0  0  0
    7.5248  -14.1556   17.1072 C   0  0  0  0  0  0  0  0  0  0  0  0
    8.3294  -14.9016   16.1199 C   0  0  0  0  0  0  0  0  0  0  0  0
    9.5628  -14.9540   16.2511 O   0  0  0  0  0  0  0  0  0  0  0  0
    8.6917  -14.7203   19.1343 C   0  0  0  0  0  0  0  0  0  0  0  0
    7.8120  -15.4002   19.7163 O   0  0  0  0  0  0  0  0  0  0  0  0
    7.6661  -15.5249   15.0666 O   0  0  0  0  0  0  0  0  0  0  0  0
   10.0686  -15.1091   19.3936 N   0  0  0  0  0  0  0  0  0  0  0  0
   10.3434  -16.2067   20.2763 C   0  0  0  0  0  0  0  0  0  0  0  0
   10.1165  -15.8436   21.6876 C   0  0  0  0  0  0  0  0  0  0  0  0
   10.7441  -14.8030   22.1275 O   0  0  0  0  0  0  0  0  0  0  0  0
    7.9322  -13.0401   27.7295 N   0  0  0  0  0  0  0  0  0  0  0  0
    6.8205  -12.3120   27.2450 C   0  0  0  0  0  0  0  0  0  0  0  0
    6.1160  -11.5535   28.0200 N   0  0  0  0  0  0  0  0  0  0  0  0
    6.4187  -12.3787   25.8679 N   0  0  0  0  0  0  0  0  0  0  0  0
    6.4251  -13.6248   25.1334 C   0  0  0  0  0  0  0  0  0  0  0  0
    7.8284  -14.1774   25.0091 C   0  0  0  0  0  0  0  0  0  0  0  0
    7.8070  -15.4490   24.2155 C   0  0  0  0  0  0  0  0  0  0  0  0
    9.1933  -15.9912   24.0070 C   0  0  2  0  0  0  0  0  0  0  0  0
    9.2912  -16.5059   22.6089 N   0  0  0  0  0  0  0  0  0  0  0  0
    9.4327  -17.1005   24.9479 C   0  0  0  0  0  0  0  0  0  0  0  0
    9.8179  -16.7999   26.2459 O   0  0  0  0  0  0  0  0  0  0  0  0
    9.3096  -18.2853   24.6453 O   0  0  0  0  0  0  0  0  0  0  0  0
  2  1  1  6
  2  3  1  0
  3  4  1  0
  4  8  1  0
  4  5  2  0
  6  7  2  0
  6  2  1  0
  9  6  1  0
 10 11  1  0
 10  9  1  0
 11 21  1  0
 12 11  2  0
 14 13  1  0
 14 16  1  0
 15 14  2  0
 17 18  1  0
 17 16  1  0
 20 19  1  1
 19 18  1  0
 21 20  1  0
 22 20  1  0
 22 23  1  0
 24 22  2  0
M  END
$$$$
