DGR.pdb
     RDKit          3D

 24 23  0  0  1  0  0  0  0  0999 V2000
   12.2721  -17.0876   18.2738 N   0  0  0  0  0  0  0  0  0  0  0  0
   13.2632  -17.5937   19.1707 C   0  0  1  0  0  0  0  0  0  0  0  0
   14.3010  -16.5393   19.4909 C   0  0  0  0  0  0  0  0  0  0  0  0
   15.1860  -16.2416   18.3476 C   0  0  0  0  0  0  0  0  0  0  0  0
   14.9733  -16.7859   17.2523 O   0  0  0  0  0  0  0  0  0  0  0  0
   12.6963  -18.0461   20.4626 C   0  0  0  0  0  0  0  0  0  0  0  0
   13.4124  -18.4791   21.3979 O   0  0  0  0  0  0  0  0  0  0  0  0
   16.2380  -15.3514   18.5443 O   0  0  0  0  0  0  0  0  0  0  0  0
   11.2660  -18.0136   20.7216 N   0  0  0  0  0  0  0  0  0  0  0  0
   10.7586  -18.4994   21.9731 C   0  0  0  0  0  0  0  0  0  0  0  0
   10.6206  -17.4165   22.9647 C   0  0  0  0  0  0  0  0  0  0  0  0
   11.6999  -16.7820   23.2856 O   0  0  0  0  0  0  0  0  0  0  0  0
    7.8234  -11.4303   19.9943 N   0  0  0  0  0  0  0  0  0  0  0  0
    8.2316  -12.7383   19.6427 C   0  0  0  0  0  0  0  0  0  0  0  0
    8.7657  -12.9969   18.4937 N   0  0  0  0  0  0  0  0  0  0  0  0
    8.0735  -13.8445   20.5447 N   0  0  0  0  0  0  0  0  0  0  0  0
    8.3660  -13.7226   21.9561 C   0  0  0  0  0  0  0  0  0  0  0  0
    8.0490  -15.0066   22.6916 C   0  0  0  0  0  0  0  0  0  0  0  0
    8.4085  -14.8663   24.1401 C   0  0  0  0  0  0  0  0  0  0  0  0
    9.4881  -15.8343   24.5357 C   0  0  2  0  0  0  0  0  0  0  0  0
    9.4422  -16.9972   23.6005 N   0  0  0  0  0  0  0  0  0  0  0  0
    9.2417  -16.3093   25.9094 C   0  0  0  0  0  0  0  0  0  0  0  0
    9.4902  -15.4458   26.9659 O   0  0  0  0  0  0  0  0  0  0  0  0
    8.8257  -17.4352   26.1736 O   0  0  0  0  0  0  0  0  0  0  0  0
  2  1  1  6
  2  3  1  0
  3  4  1  0
  4  8  1  0
  4  5  2  0
  6  7  2  0
  6  2  1  0
  9  6  1  0
 10 11  1  0
 10  9  1  0
 11 21  1  0
 12 11  2  0
 14 13  1  0
 14 16  1  0
 15 14  2  0
 17 18  1  0
 17 16  1  0
 20 19  1  6
 19 18  1  0
 21 20  1  0
 22 20  1  0
 22 23  1  0
 24 22  2  0
M  END
$$$$
