DGR.pdb
     RDKit          3D

 24 23  0  0  1  0  0  0  0  0999 V2000
   11.4599  -15.7476   21.2501 N   0  0  0  0  0  0  0  0  0  0  0  0
   10.8986  -16.2047   20.0176 C   0  0  1  0  0  0  0  0  0  0  0  0
   11.1206  -17.6906   19.8330 C   0  0  0  0  0  0  0  0  0  0  0  0
   12.5219  -18.0241   19.5104 C   0  0  0  0  0  0  0  0  0  0  0  0
   13.0870  -17.4442   18.5694 O   0  0  0  0  0  0  0  0  0  0  0  0
    9.4381  -15.9730   19.9268 C   0  0  0  0  0  0  0  0  0  0  0  0
    8.8102  -16.0477   18.8427 O   0  0  0  0  0  0  0  0  0  0  0  0
   13.1635  -18.9881   20.2830 O   0  0  0  0  0  0  0  0  0  0  0  0
    8.6433  -15.6433   21.0988 N   0  0  0  0  0  0  0  0  0  0  0  0
    7.2163  -15.5425   20.9850 C   0  0  0  0  0  0  0  0  0  0  0  0
    6.5915  -15.1568   22.2640 C   0  0  0  0  0  0  0  0  0  0  0  0
    5.4143  -15.6341   22.5024 O   0  0  0  0  0  0  0  0  0  0  0  0
   10.1719  -13.8296   29.6253 N   0  0  0  0  0  0  0  0  0  0  0  0
   10.1937  -15.2312   29.4360 C   0  0  0  0  0  0  0  0  0  0  0  0
   10.9736  -15.9974   30.1266 N   0  0  0  0  0  0  0  0  0  0  0  0
    9.3502  -15.8735   28.4673 N   0  0  0  0  0  0  0  0  0  0  0  0
    9.2626  -15.4009   27.1030 C   0  0  0  0  0  0  0  0  0  0  0  0
    8.2977  -16.2416   26.2954 C   0  0  0  0  0  0  0  0  0  0  0  0
    8.2486  -15.7450   24.8819 C   0  0  0  0  0  0  0  0  0  0  0  0
    7.1193  -14.7743   24.6783 C   0  0  2  0  0  0  0  0  0  0  0  0
    7.1362  -14.3256   23.2545 N   0  0  0  0  0  0  0  0  0  0  0  0
    7.3131  -13.6054   25.5554 C   0  0  0  0  0  0  0  0  0  0  0  0
    8.0106  -12.5127   25.0624 O   0  0  0  0  0  0  0  0  0  0  0  0
    6.8887  -13.5436   26.7071 O   0  0  0  0  0  0  0  0  0  0  0  0
  2  1  1  1
  2  3  1  0
  3  4  1  0
  4  8  1  0
  4  5  2  0
  6  7  2  0
  6  2  1  0
  9  6  1  0
 10 11  1  0
 10  9  1  0
 11 21  1  0
 12 11  2  0
 14 13  1  0
 14 16  1  0
 15 14  2  0
 17 18  1  0
 17 16  1  0
 20 19  1  6
 19 18  1  0
 21 20  1  0
 22 20  1  0
 22 23  1  0
 24 22  2  0
M  END
$$$$
