DGR.pdb
     RDKit          3D

 24 23  0  0  1  0  0  0  0  0999 V2000
    8.3807  -16.4562   15.5896 N   0  0  0  0  0  0  0  0  0  0  0  0
    9.0970  -15.2222   15.5058 C   0  0  1  0  0  0  0  0  0  0  0  0
    8.7611  -14.4801   14.2299 C   0  0  0  0  0  0  0  0  0  0  0  0
    9.3118  -15.1333   13.0261 C   0  0  0  0  0  0  0  0  0  0  0  0
   10.0667  -16.1107   13.1524 O   0  0  0  0  0  0  0  0  0  0  0  0
    8.7988  -14.3036   16.6292 C   0  0  0  0  0  0  0  0  0  0  0  0
    9.4972  -13.2902   16.8745 O   0  0  0  0  0  0  0  0  0  0  0  0
    8.9594  -14.6215   11.7804 O   0  0  0  0  0  0  0  0  0  0  0  0
    7.6703  -14.5266   17.5186 N   0  0  0  0  0  0  0  0  0  0  0  0
    7.5008  -13.6940   18.6750 C   0  0  0  0  0  0  0  0  0  0  0  0
    8.3535  -14.1335   19.7952 C   0  0  0  0  0  0  0  0  0  0  0  0
    9.5532  -14.5115   19.4981 O   0  0  0  0  0  0  0  0  0  0  0  0
    5.6196  -11.5689   26.8898 N   0  0  0  0  0  0  0  0  0  0  0  0
    6.7979  -12.3250   27.0919 C   0  0  0  0  0  0  0  0  0  0  0  0
    7.4396  -12.2948   28.2142 N   0  0  0  0  0  0  0  0  0  0  0  0
    7.3403  -13.1644   26.0605 N   0  0  0  0  0  0  0  0  0  0  0  0
    6.7000  -13.2933   24.7700 C   0  0  0  0  0  0  0  0  0  0  0  0
    7.3314  -14.4019   23.9562 C   0  0  0  0  0  0  0  0  0  0  0  0
    8.6851  -13.9738   23.4753 C   0  0  0  0  0  0  0  0  0  0  0  0
    9.0269  -14.6082   22.1563 C   0  0  2  0  0  0  0  0  0  0  0  0
    8.0047  -14.1868   21.1532 N   0  0  0  0  0  0  0  0  0  0  0  0
    8.9921  -16.0755   22.2942 C   0  0  0  0  0  0  0  0  0  0  0  0
    7.9839  -16.7797   21.6528 O   0  0  0  0  0  0  0  0  0  0  0  0
    9.8115  -16.7150   22.9499 O   0  0  0  0  0  0  0  0  0  0  0  0
  2  1  1  1
  2  3  1  0
  3  4  1  0
  4  8  1  0
  4  5  2  0
  6  7  2  0
  6  2  1  0
  9  6  1  0
 10 11  1  0
 10  9  1  0
 11 21  1  0
 12 11  2  0
 14 13  1  0
 14 16  1  0
 15 14  2  0
 17 18  1  0
 17 16  1  0
 20 19  1  1
 19 18  1  0
 21 20  1  0
 22 20  1  0
 22 23  1  0
 24 22  2  0
M  END
$$$$
