DGR.pdb
     RDKit          3D

 24 23  0  0  1  0  0  0  0  0999 V2000
   13.0319  -16.5816   22.2227 N   0  0  0  0  0  0  0  0  0  0  0  0
   12.0644  -17.6317   22.1578 C   0  0  1  0  0  0  0  0  0  0  0  0
   12.4398  -18.7789   23.0712 C   0  0  0  0  0  0  0  0  0  0  0  0
   12.7832  -18.3347   24.4364 C   0  0  0  0  0  0  0  0  0  0  0  0
   12.7252  -17.1272   24.7188 O   0  0  0  0  0  0  0  0  0  0  0  0
   10.7066  -17.1917   22.5549 C   0  0  0  0  0  0  0  0  0  0  0  0
    9.7371  -17.1954   21.7580 O   0  0  0  0  0  0  0  0  0  0  0  0
   13.1638  -19.2987   25.3657 O   0  0  0  0  0  0  0  0  0  0  0  0
   10.4185  -16.7270   23.9022 N   0  0  0  0  0  0  0  0  0  0  0  0
    9.0809  -16.3409   24.2504 C   0  0  0  0  0  0  0  0  0  0  0  0
    8.9590  -16.0251   25.6859 C   0  0  0  0  0  0  0  0  0  0  0  0
    7.7888  -15.6712   26.1052 O   0  0  0  0  0  0  0  0  0  0  0  0
   10.8725  -21.6447   30.7562 N   0  0  0  0  0  0  0  0  0  0  0  0
   11.5026  -20.3820   30.8532 C   0  0  0  0  0  0  0  0  0  0  0  0
   12.1230  -20.0137   31.9264 N   0  0  0  0  0  0  0  0  0  0  0  0
   11.4851  -19.4459   29.7643 N   0  0  0  0  0  0  0  0  0  0  0  0
   11.1786  -18.0472   29.9688 C   0  0  0  0  0  0  0  0  0  0  0  0
   11.2683  -17.2738   28.6712 C   0  0  0  0  0  0  0  0  0  0  0  0
   10.8684  -15.8472   28.8994 C   0  0  0  0  0  0  0  0  0  0  0  0
    9.7494  -15.4359   27.9841 C   0  0  2  0  0  0  0  0  0  0  0  0
    9.9772  -16.0668   26.6503 N   0  0  0  0  0  0  0  0  0  0  0  0
    9.7540  -13.9696   27.8319 C   0  0  0  0  0  0  0  0  0  0  0  0
    9.1525  -13.1974   28.8145 O   0  0  0  0  0  0  0  0  0  0  0  0
   10.2641  -13.3882   26.8768 O   0  0  0  0  0  0  0  0  0  0  0  0
  2  1  1  1
  2  3  1  0
  3  4  1  0
  4  8  1  0
  4  5  2  0
  6  7  2  0
  6  2  1  0
  9  6  1  0
 10 11  1  0
 10  9  1  0
 11 21  1  0
 12 11  2  0
 14 13  1  0
 14 16  1  0
 15 14  2  0
 17 18  1  0
 17 16  1  0
 20 19  1  1
 19 18  1  0
 21 20  1  0
 22 20  1  0
 22 23  1  0
 24 22  2  0
M  END
$$$$
