DGR.pdb
     RDKit          3D

 24 23  0  0  1  0  0  0  0  0999 V2000
   12.5025  -16.3188   15.6239 N   0  0  0  0  0  0  0  0  0  0  0  0
   13.8802  -16.6854   15.7277 C   0  0  1  0  0  0  0  0  0  0  0  0
   14.6531  -16.2622   14.4969 C   0  0  0  0  0  0  0  0  0  0  0  0
   14.2635  -17.0161   13.2891 C   0  0  0  0  0  0  0  0  0  0  0  0
   13.4694  -17.9649   13.3907 O   0  0  0  0  0  0  0  0  0  0  0  0
   14.5558  -16.0692   16.8933 C   0  0  0  0  0  0  0  0  0  0  0  0
   15.7005  -16.4187   17.2709 O   0  0  0  0  0  0  0  0  0  0  0  0
   14.8086  -16.6296   12.0679 O   0  0  0  0  0  0  0  0  0  0  0  0
   13.9251  -15.0158   17.6722 N   0  0  0  0  0  0  0  0  0  0  0  0
   14.5999  -14.4779   18.8188 C   0  0  0  0  0  0  0  0  0  0  0  0
   13.9677  -14.9114   20.0787 C   0  0  0  0  0  0  0  0  0  0  0  0
   14.4220  -14.3841   21.1678 O   0  0  0  0  0  0  0  0  0  0  0  0
    7.5832  -12.3600   21.2996 N   0  0  0  0  0  0  0  0  0  0  0  0
    8.0609  -12.5914   19.9885 C   0  0  0  0  0  0  0  0  0  0  0  0
    8.1715  -11.6330   19.1274 N   0  0  0  0  0  0  0  0  0  0  0  0
    8.4474  -13.9026   19.5482 N   0  0  0  0  0  0  0  0  0  0  0  0
    8.8963  -14.9154   20.4781 C   0  0  0  0  0  0  0  0  0  0  0  0
   10.3990  -14.8697   20.6509 C   0  0  0  0  0  0  0  0  0  0  0  0
   10.8524  -16.0329   21.4806 C   0  0  0  0  0  0  0  0  0  0  0  0
   12.3510  -16.0857   21.5824 C   0  0  2  0  0  0  0  0  0  0  0  0
   12.9232  -15.8366   20.2261 N   0  0  0  0  0  0  0  0  0  0  0  0
   12.7645  -17.4237   22.0427 C   0  0  0  0  0  0  0  0  0  0  0  0
   13.5330  -18.2096   21.1970 O   0  0  0  0  0  0  0  0  0  0  0  0
   12.4647  -17.8859   23.1414 O   0  0  0  0  0  0  0  0  0  0  0  0
  2  1  1  6
  2  3  1  0
  3  4  1  0
  4  8  1  0
  4  5  2  0
  6  7  2  0
  6  2  1  0
  9  6  1  0
 10 11  1  0
 10  9  1  0
 11 21  1  0
 12 11  2  0
 14 13  1  0
 14 16  1  0
 15 14  2  0
 17 18  1  0
 17 16  1  0
 20 19  1  6
 19 18  1  0
 21 20  1  0
 22 20  1  0
 22 23  1  0
 24 22  2  0
M  END
$$$$
