DGR.pdb
     RDKit          3D

 24 23  0  0  1  0  0  0  0  0999 V2000
   10.1773  -15.0664   16.0062 N   0  0  0  0  0  0  0  0  0  0  0  0
    8.9694  -14.7837   16.7161 C   0  0  1  0  0  0  0  0  0  0  0  0
    7.7551  -15.0041   15.8395 C   0  0  0  0  0  0  0  0  0  0  0  0
    7.8289  -14.2657   14.5635 C   0  0  0  0  0  0  0  0  0  0  0  0
    7.9866  -14.8920   13.5033 O   0  0  0  0  0  0  0  0  0  0  0  0
    8.7931  -15.6328   17.9173 C   0  0  0  0  0  0  0  0  0  0  0  0
    7.8192  -15.5018   18.6980 O   0  0  0  0  0  0  0  0  0  0  0  0
    7.7176  -12.8785   14.5987 O   0  0  0  0  0  0  0  0  0  0  0  0
    9.7468  -16.6748   18.2621 N   0  0  0  0  0  0  0  0  0  0  0  0
    9.5543  -17.4485   19.4553 C   0  0  0  0  0  0  0  0  0  0  0  0
    9.7032  -16.6260   20.6704 C   0  0  0  0  0  0  0  0  0  0  0  0
   10.8417  -16.0375   20.8373 O   0  0  0  0  0  0  0  0  0  0  0  0
    5.0732  -13.0518   27.1391 N   0  0  0  0  0  0  0  0  0  0  0  0
    6.2807  -12.3153   27.1196 C   0  0  0  0  0  0  0  0  0  0  0  0
    6.5630  -11.4503   28.0385 N   0  0  0  0  0  0  0  0  0  0  0  0
    7.2538  -12.4918   26.0783 N   0  0  0  0  0  0  0  0  0  0  0  0
    6.9999  -13.3430   24.9367 C   0  0  0  0  0  0  0  0  0  0  0  0
    8.0723  -14.4014   24.7963 C   0  0  0  0  0  0  0  0  0  0  0  0
    7.8083  -15.2363   23.5796 C   0  0  0  0  0  0  0  0  0  0  0  0
    9.0779  -15.5421   22.8356 C   0  0  2  0  0  0  0  0  0  0  0  0
    8.7414  -16.4111   21.6692 N   0  0  0  0  0  0  0  0  0  0  0  0
   10.0054  -16.2649   23.7247 C   0  0  0  0  0  0  0  0  0  0  0  0
   10.1388  -17.6370   23.5722 O   0  0  0  0  0  0  0  0  0  0  0  0
   10.6721  -15.7169   24.5997 O   0  0  0  0  0  0  0  0  0  0  0  0
  2  1  1  6
  2  3  1  0
  3  4  1  0
  4  8  1  0
  4  5  2  0
  6  7  2  0
  6  2  1  0
  9  6  1  0
 10 11  1  0
 10  9  1  0
 11 21  1  0
 12 11  2  0
 14 13  1  0
 14 16  1  0
 15 14  2  0
 17 18  1  0
 17 16  1  0
 20 19  1  1
 19 18  1  0
 21 20  1  0
 22 20  1  0
 22 23  1  0
 24 22  2  0
M  END
$$$$
