DGR.pdb
     RDKit          3D

 24 23  0  0  1  0  0  0  0  0999 V2000
    6.4381  -20.2091   19.3341 N   0  0  0  0  0  0  0  0  0  0  0  0
    5.1111  -20.3594   19.8436 C   0  0  1  0  0  0  0  0  0  0  0  0
    4.7302  -21.8202   19.9553 C   0  0  0  0  0  0  0  0  0  0  0  0
    4.9540  -22.5674   18.7021 C   0  0  0  0  0  0  0  0  0  0  0  0
    4.3910  -23.6610   18.5340 O   0  0  0  0  0  0  0  0  0  0  0  0
    4.9384  -19.7653   21.1897 C   0  0  0  0  0  0  0  0  0  0  0  0
    3.8639  -19.8531   21.8322 O   0  0  0  0  0  0  0  0  0  0  0  0
    5.7983  -22.0103   17.7457 O   0  0  0  0  0  0  0  0  0  0  0  0
    6.0136  -19.0407   21.8479 N   0  0  0  0  0  0  0  0  0  0  0  0
    5.8041  -18.4923   23.1574 C   0  0  0  0  0  0  0  0  0  0  0  0
    6.9303  -17.6387   23.5795 C   0  0  0  0  0  0  0  0  0  0  0  0
    8.1168  -18.1319   23.4399 O   0  0  0  0  0  0  0  0  0  0  0  0
    8.0180  -11.7882   19.8079 N   0  0  0  0  0  0  0  0  0  0  0  0
    8.1245  -13.1912   19.6626 C   0  0  0  0  0  0  0  0  0  0  0  0
    8.2560  -13.7452   18.5016 N   0  0  0  0  0  0  0  0  0  0  0  0
    8.0923  -14.0705   20.7975 N   0  0  0  0  0  0  0  0  0  0  0  0
    7.3441  -13.7437   21.9916 C   0  0  0  0  0  0  0  0  0  0  0  0
    8.2701  -13.4316   23.1471 C   0  0  0  0  0  0  0  0  0  0  0  0
    7.7848  -14.1172   24.3887 C   0  0  0  0  0  0  0  0  0  0  0  0
    8.1141  -15.5836   24.3725 C   0  0  2  0  0  0  0  0  0  0  0  0
    6.8555  -16.3451   24.1178 N   0  0  0  0  0  0  0  0  0  0  0  0
    8.6604  -15.9781   25.6836 C   0  0  0  0  0  0  0  0  0  0  0  0
   10.0350  -15.9522   25.8661 O   0  0  0  0  0  0  0  0  0  0  0  0
    7.9619  -16.3314   26.6311 O   0  0  0  0  0  0  0  0  0  0  0  0
  2  1  1  1
  2  3  1  0
  3  4  1  0
  4  8  1  0
  4  5  2  0
  6  7  2  0
  6  2  1  0
  9  6  1  0
 10 11  1  0
 10  9  1  0
 11 21  1  0
 12 11  2  0
 14 13  1  0
 14 16  1  0
 15 14  2  0
 17 18  1  0
 17 16  1  0
 20 19  1  1
 19 18  1  0
 21 20  1  0
 22 20  1  0
 22 23  1  0
 24 22  2  0
M  END
$$$$
