DGR.pdb
     RDKit          3D

 24 23  0  0  1  0  0  0  0  0999 V2000
   14.8878  -16.9947   17.8094 N   0  0  0  0  0  0  0  0  0  0  0  0
   14.3750  -18.3000   17.5331 C   0  0  1  0  0  0  0  0  0  0  0  0
   15.4962  -19.2927   17.3117 C   0  0  0  0  0  0  0  0  0  0  0  0
   16.2267  -19.0590   16.0505 C   0  0  0  0  0  0  0  0  0  0  0  0
   17.0839  -18.1627   15.9979 O   0  0  0  0  0  0  0  0  0  0  0  0
   13.5363  -18.8355   18.6307 C   0  0  0  0  0  0  0  0  0  0  0  0
   12.9648  -19.9505   18.5594 O   0  0  0  0  0  0  0  0  0  0  0  0
   15.9221  -19.8624   14.9552 O   0  0  0  0  0  0  0  0  0  0  0  0
   13.3265  -18.0928   19.8630 N   0  0  0  0  0  0  0  0  0  0  0  0
   12.4969  -18.6467   20.8947 C   0  0  0  0  0  0  0  0  0  0  0  0
   12.3069  -17.7010   22.0103 C   0  0  0  0  0  0  0  0  0  0  0  0
   13.1063  -16.6864   22.0540 O   0  0  0  0  0  0  0  0  0  0  0  0
    6.4148  -13.6620   20.0429 N   0  0  0  0  0  0  0  0  0  0  0  0
    7.7485  -13.3613   19.6800 C   0  0  0  0  0  0  0  0  0  0  0  0
    8.0230  -12.6269   18.6516 N   0  0  0  0  0  0  0  0  0  0  0  0
    8.8646  -13.8564   20.4360 N   0  0  0  0  0  0  0  0  0  0  0  0
    8.6824  -14.6984   21.5979 C   0  0  0  0  0  0  0  0  0  0  0  0
   10.0133  -15.0831   22.2069 C   0  0  0  0  0  0  0  0  0  0  0  0
    9.7922  -15.9555   23.4057 C   0  0  0  0  0  0  0  0  0  0  0  0
   11.0757  -16.5802   23.8763 C   0  0  2  0  0  0  0  0  0  0  0  0
   11.3502  -17.7816   23.0335 N   0  0  0  0  0  0  0  0  0  0  0  0
   10.9307  -16.9993   25.2821 C   0  0  0  0  0  0  0  0  0  0  0  0
   10.8898  -18.3552   25.5708 O   0  0  0  0  0  0  0  0  0  0  0  0
   10.8431  -16.2097   26.2199 O   0  0  0  0  0  0  0  0  0  0  0  0
  2  1  1  1
  2  3  1  0
  3  4  1  0
  4  8  1  0
  4  5  2  0
  6  7  2  0
  6  2  1  0
  9  6  1  0
 10 11  1  0
 10  9  1  0
 11 21  1  0
 12 11  2  0
 14 13  1  0
 14 16  1  0
 15 14  2  0
 17 18  1  0
 17 16  1  0
 20 19  1  6
 19 18  1  0
 21 20  1  0
 22 20  1  0
 22 23  1  0
 24 22  2  0
M  END
$$$$
