DGR.pdb
     RDKit          3D

 24 23  0  0  1  0  0  0  0  0999 V2000
    9.6241  -19.1243   19.2060 N   0  0  0  0  0  0  0  0  0  0  0  0
   10.4077  -18.2685   18.3714 C   0  0  1  0  0  0  0  0  0  0  0  0
    9.5276  -17.4111   17.4873 C   0  0  0  0  0  0  0  0  0  0  0  0
    8.3896  -18.1577   16.9161 C   0  0  0  0  0  0  0  0  0  0  0  0
    8.2624  -19.3662   17.1700 O   0  0  0  0  0  0  0  0  0  0  0  0
   11.2738  -17.3457   19.1414 C   0  0  0  0  0  0  0  0  0  0  0  0
   12.1985  -16.6863   18.6074 O   0  0  0  0  0  0  0  0  0  0  0  0
    7.4920  -17.4695   16.1045 O   0  0  0  0  0  0  0  0  0  0  0  0
   11.0997  -17.1504   20.5717 N   0  0  0  0  0  0  0  0  0  0  0  0
   11.9630  -16.2461   21.2763 C   0  0  0  0  0  0  0  0  0  0  0  0
   11.5458  -16.0739   22.6803 C   0  0  0  0  0  0  0  0  0  0  0  0
   11.8389  -17.0336   23.4950 O   0  0  0  0  0  0  0  0  0  0  0  0
    9.1220  -12.3401   20.0963 N   0  0  0  0  0  0  0  0  0  0  0  0
    8.2430  -13.1233   19.3121 C   0  0  0  0  0  0  0  0  0  0  0  0
    8.4020  -13.2488   18.0349 N   0  0  0  0  0  0  0  0  0  0  0  0
    7.1302  -13.8187   19.8955 N   0  0  0  0  0  0  0  0  0  0  0  0
    7.3167  -14.8594   20.8826 C   0  0  0  0  0  0  0  0  0  0  0  0
    8.3386  -14.4497   21.9208 C   0  0  0  0  0  0  0  0  0  0  0  0
    8.5244  -15.5543   22.9169 C   0  0  0  0  0  0  0  0  0  0  0  0
    9.5684  -15.2036   23.9397 C   0  0  2  0  0  0  0  0  0  0  0  0
   10.8633  -14.9789   23.2315 N   0  0  0  0  0  0  0  0  0  0  0  0
    9.7234  -16.3231   24.8862 C   0  0  0  0  0  0  0  0  0  0  0  0
    9.6447  -17.6199   24.4006 O   0  0  0  0  0  0  0  0  0  0  0  0
    9.9199  -16.1716   26.0899 O   0  0  0  0  0  0  0  0  0  0  0  0
  2  1  1  1
  2  3  1  0
  3  4  1  0
  4  8  1  0
  4  5  2  0
  6  7  2  0
  6  2  1  0
  9  6  1  0
 10 11  1  0
 10  9  1  0
 11 21  1  0
 12 11  2  0
 14 13  1  0
 14 16  1  0
 15 14  2  0
 17 18  1  0
 17 16  1  0
 20 19  1  6
 19 18  1  0
 21 20  1  0
 22 20  1  0
 22 23  1  0
 24 22  2  0
M  END
$$$$
