DGR.pdb
     RDKit          3D

 24 23  0  0  1  0  0  0  0  0999 V2000
    6.9546  -13.4994   17.7749 N   0  0  0  0  0  0  0  0  0  0  0  0
    7.6362  -14.6509   18.2774 C   0  0  1  0  0  0  0  0  0  0  0  0
    8.8072  -15.0228   17.3931 C   0  0  0  0  0  0  0  0  0  0  0  0
    8.3885  -15.5133   16.0653 C   0  0  0  0  0  0  0  0  0  0  0  0
    7.1974  -15.4218   15.7278 O   0  0  0  0  0  0  0  0  0  0  0  0
    8.1740  -14.4536   19.6436 C   0  0  0  0  0  0  0  0  0  0  0  0
    8.8001  -15.3514   20.2574 O   0  0  0  0  0  0  0  0  0  0  0  0
    9.3574  -16.0665   15.2328 O   0  0  0  0  0  0  0  0  0  0  0  0
    8.0050  -13.1976   20.3563 N   0  0  0  0  0  0  0  0  0  0  0  0
    8.5747  -13.0397   21.6640 C   0  0  0  0  0  0  0  0  0  0  0  0
    7.7559  -13.6963   22.7002 C   0  0  0  0  0  0  0  0  0  0  0  0
    6.6810  -14.2919   22.2998 O   0  0  0  0  0  0  0  0  0  0  0  0
    6.4762  -20.8620   23.5159 N   0  0  0  0  0  0  0  0  0  0  0  0
    7.0152  -20.5031   24.7735 C   0  0  0  0  0  0  0  0  0  0  0  0
    6.3878  -20.7510   25.8767 N   0  0  0  0  0  0  0  0  0  0  0  0
    8.2867  -19.8455   24.8878 N   0  0  0  0  0  0  0  0  0  0  0  0
    8.5668  -18.6063   24.1962 C   0  0  0  0  0  0  0  0  0  0  0  0
    7.9295  -17.4304   24.9042 C   0  0  0  0  0  0  0  0  0  0  0  0
    8.2943  -16.1557   24.2048 C   0  0  0  0  0  0  0  0  0  0  0  0
    7.6405  -14.9666   24.8511 C   0  0  2  0  0  0  0  0  0  0  0  0
    8.0161  -13.7459   24.0780 N   0  0  0  0  0  0  0  0  0  0  0  0
    8.1287  -14.8307   26.2355 C   0  0  0  0  0  0  0  0  0  0  0  0
    8.8608  -13.7026   26.5745 O   0  0  0  0  0  0  0  0  0  0  0  0
    7.9223  -15.6663   27.1128 O   0  0  0  0  0  0  0  0  0  0  0  0
  2  1  1  6
  2  3  1  0
  3  4  1  0
  4  8  1  0
  4  5  2  0
  6  7  2  0
  6  2  1  0
  9  6  1  0
 10 11  1  0
 10  9  1  0
 11 21  1  0
 12 11  2  0
 14 13  1  0
 14 16  1  0
 15 14  2  0
 17 18  1  0
 17 16  1  0
 20 19  1  6
 19 18  1  0
 21 20  1  0
 22 20  1  0
 22 23  1  0
 24 22  2  0
M  END
$$$$
