DGR.pdb
     RDKit          3D

 24 23  0  0  1  0  0  0  0  0999 V2000
   14.1433  -18.0524   18.0250 N   0  0  0  0  0  0  0  0  0  0  0  0
   12.7702  -17.7022   17.8384 C   0  0  1  0  0  0  0  0  0  0  0  0
   12.1459  -18.5117   16.7219 C   0  0  0  0  0  0  0  0  0  0  0  0
   12.5685  -18.0595   15.3818 C   0  0  0  0  0  0  0  0  0  0  0  0
   13.3190  -17.0762   15.2772 O   0  0  0  0  0  0  0  0  0  0  0  0
   11.9462  -17.9304   19.0482 C   0  0  0  0  0  0  0  0  0  0  0  0
   10.7387  -17.5946   19.1143 O   0  0  0  0  0  0  0  0  0  0  0  0
   12.1032  -18.7616   14.2734 O   0  0  0  0  0  0  0  0  0  0  0  0
   12.4949  -18.5618   20.2375 N   0  0  0  0  0  0  0  0  0  0  0  0
   11.6313  -18.8712   21.3411 C   0  0  0  0  0  0  0  0  0  0  0  0
   11.3831  -17.6904   22.1892 C   0  0  0  0  0  0  0  0  0  0  0  0
   12.4211  -17.0235   22.5742 O   0  0  0  0  0  0  0  0  0  0  0  0
    7.1347  -14.7671   18.7327 N   0  0  0  0  0  0  0  0  0  0  0  0
    7.6148  -13.4601   18.9817 C   0  0  0  0  0  0  0  0  0  0  0  0
    7.8737  -12.6371   18.0184 N   0  0  0  0  0  0  0  0  0  0  0  0
    7.8384  -12.9816   20.3171 N   0  0  0  0  0  0  0  0  0  0  0  0
    7.6779  -13.8409   21.4695 C   0  0  0  0  0  0  0  0  0  0  0  0
    9.0198  -14.2861   22.0090 C   0  0  0  0  0  0  0  0  0  0  0  0
    8.8203  -15.2380   23.1497 C   0  0  0  0  0  0  0  0  0  0  0  0
   10.0855  -15.9817   23.4739 C   0  0  2  0  0  0  0  0  0  0  0  0
   10.1395  -17.2092   22.6258 N   0  0  0  0  0  0  0  0  0  0  0  0
   10.0724  -16.3762   24.8942 C   0  0  0  0  0  0  0  0  0  0  0  0
    9.9701  -17.7230   25.2092 O   0  0  0  0  0  0  0  0  0  0  0  0
   10.1473  -15.5737   25.8220 O   0  0  0  0  0  0  0  0  0  0  0  0
  2  1  1  1
  2  3  1  0
  3  4  1  0
  4  8  1  0
  4  5  2  0
  6  7  2  0
  6  2  1  0
  9  6  1  0
 10 11  1  0
 10  9  1  0
 11 21  1  0
 12 11  2  0
 14 13  1  0
 14 16  1  0
 15 14  2  0
 17 18  1  0
 17 16  1  0
 20 19  1  6
 19 18  1  0
 21 20  1  0
 22 20  1  0
 22 23  1  0
 24 22  2  0
M  END
$$$$
