DGR.pdb
     RDKit          3D

 24 23  0  0  1  0  0  0  0  0999 V2000
   13.9660  -19.4617   20.1335 N   0  0  0  0  0  0  0  0  0  0  0  0
   13.8373  -18.1110   19.6839 C   0  0  1  0  0  0  0  0  0  0  0  0
   13.5735  -18.0529   18.1945 C   0  0  0  0  0  0  0  0  0  0  0  0
   14.8010  -17.8360   17.4039 C   0  0  0  0  0  0  0  0  0  0  0  0
   14.8393  -16.9116   16.5762 O   0  0  0  0  0  0  0  0  0  0  0  0
   12.7288  -17.3848   20.3462 C   0  0  0  0  0  0  0  0  0  0  0  0
   12.4970  -16.1699   20.1333 O   0  0  0  0  0  0  0  0  0  0  0  0
   15.8814  -18.6870   17.6194 O   0  0  0  0  0  0  0  0  0  0  0  0
   11.8393  -18.0446   21.2883 N   0  0  0  0  0  0  0  0  0  0  0  0
   10.7459  -17.3151   21.8645 C   0  0  0  0  0  0  0  0  0  0  0  0
   11.1268  -16.6731   23.1364 C   0  0  0  0  0  0  0  0  0  0  0  0
   11.9937  -17.2963   23.8647 O   0  0  0  0  0  0  0  0  0  0  0  0
    8.5493  -13.9280   19.1708 N   0  0  0  0  0  0  0  0  0  0  0  0
    8.1672  -12.8691   20.0273 C   0  0  0  0  0  0  0  0  0  0  0  0
    8.0721  -11.6519   19.6011 N   0  0  0  0  0  0  0  0  0  0  0  0
    7.8655  -13.0931   21.4133 N   0  0  0  0  0  0  0  0  0  0  0  0
    8.4202  -14.2135   22.1409 C   0  0  0  0  0  0  0  0  0  0  0  0
    7.8796  -14.2682   23.5532 C   0  0  0  0  0  0  0  0  0  0  0  0
    8.2886  -15.5542   24.2061 C   0  0  0  0  0  0  0  0  0  0  0  0
    9.6762  -15.4651   24.7767 C   0  0  2  0  0  0  0  0  0  0  0  0
   10.6499  -15.4554   23.6450 N   0  0  0  0  0  0  0  0  0  0  0  0
    9.9340  -16.6423   25.6256 C   0  0  0  0  0  0  0  0  0  0  0  0
    9.9005  -16.4884   27.0036 O   0  0  0  0  0  0  0  0  0  0  0  0
   10.1788  -17.7607   25.1785 O   0  0  0  0  0  0  0  0  0  0  0  0
  2  1  1  1
  2  3  1  0
  3  4  1  0
  4  8  1  0
  4  5  2  0
  6  7  2  0
  6  2  1  0
  9  6  1  0
 10 11  1  0
 10  9  1  0
 11 21  1  0
 12 11  2  0
 14 13  1  0
 14 16  1  0
 15 14  2  0
 17 18  1  0
 17 16  1  0
 20 19  1  6
 19 18  1  0
 21 20  1  0
 22 20  1  0
 22 23  1  0
 24 22  2  0
M  END
$$$$
