AHW.pdb
     RDKit          3D

 30 32  0  0  1  0  0  0  0  0999 V2000
   29.1481  -18.0684  -15.5737 C   0  0  0  0  0  0  0  0  0  0  0  0
   28.0819  -19.1183  -15.6062 C   0  0  2  0  0  0  0  0  0  0  0  0
   27.3313  -18.9969  -16.8361 N   0  0  0  0  0  0  0  0  0  0  0  0
   27.1811  -19.0704  -14.4221 C   0  0  0  0  0  0  0  0  0  0  0  0
   27.0709  -18.0111  -13.7534 O   0  0  0  0  0  0  0  0  0  0  0  0
   26.4206  -20.1842  -13.9964 N   0  0  0  0  0  0  0  0  0  0  0  0
   25.4657  -20.0979  -12.9028 C   0  0  1  0  0  0  0  0  0  0  0  0
   24.1305  -20.6848  -13.3208 C   0  0  0  0  0  0  0  0  0  0  0  0
   23.4407  -19.7951  -14.2966 C   0  0  0  0  0  0  0  0  0  0  0  0
   23.9196  -18.5795  -14.7099 C   0  0  0  0  0  0  0  0  0  0  0  0
   22.9948  -18.1063  -15.5908 N   0  0  0  0  0  0  0  0  0  0  0  0
   21.9947  -18.9923  -15.7114 C   0  0  0  0  0  0  0  0  0  0  0  0
   22.2575  -20.0366  -14.9195 N   0  0  0  0  0  0  0  0  0  0  0  0
   25.9507  -20.8714  -11.7451 C   0  0  0  0  0  0  0  0  0  0  0  0
   26.5314  -21.9613  -11.9292 O   0  0  0  0  0  0  0  0  0  0  0  0
   25.7509  -20.3671  -10.4433 N   0  0  0  0  0  0  0  0  0  0  0  0
   26.0535  -21.1363   -9.2539 C   0  0  1  0  0  0  0  0  0  0  0  0
   27.2823  -20.5498   -8.6010 C   0  0  0  0  0  0  0  0  0  0  0  0
   27.1147  -20.3650   -7.1475 C   0  0  0  0  0  0  0  0  0  0  0  0
   26.0141  -20.6201   -6.3620 C   0  0  0  0  0  0  0  0  0  0  0  0
   26.3022  -20.3075   -5.0902 N   0  0  0  0  0  0  0  0  0  0  0  0
   27.5674  -19.8465   -4.9854 C   0  0  0  0  0  0  0  0  0  0  0  0
   28.3177  -19.4054   -3.9167 C   0  0  0  0  0  0  0  0  0  0  0  0
   29.6192  -18.9901   -4.1652 C   0  0  0  0  0  0  0  0  0  0  0  0
   30.1708  -19.0074   -5.4327 C   0  0  0  0  0  0  0  0  0  0  0  0
   29.3666  -19.4601   -6.4570 C   0  0  0  0  0  0  0  0  0  0  0  0
   28.0735  -19.8840   -6.2778 C   0  0  0  0  0  0  0  0  0  0  0  0
   24.8857  -21.1436   -8.3768 C   0  0  0  0  0  0  0  0  0  0  0  0
   24.8297  -22.0154   -7.3052 O   0  0  0  0  0  0  0  0  0  0  0  0
   23.8887  -20.3716   -8.5478 O   0  0  0  0  0  0  0  0  0  0  0  0
  2  1  1  1
  2  3  1  0
  2  4  1  0
  4  5  2  0
  6  4  1  0
  6  7  1  0
  7 14  1  0
  7  8  1  6
  9  8  1  0
 10  9  2  0
 11 12  1  0
 11 10  1  0
 12 13  2  0
 13  9  1  0
 14 15  2  0
 16 17  1  0
 16 14  1  0
 17 28  1  0
 17 18  1  1
 19 18  1  0
 20 19  2  0
 21 22  1  0
 21 20  1  0
 22 27  2  0
 23 22  1  0
 23 24  2  0
 24 25  1  0
 25 26  2  0
 27 19  1  0
 27 26  1  0
 28 30  2  0
 28 29  1  0
M  END
$$$$
