AHW.pdb
     RDKit          3D

 30 32  0  0  1  0  0  0  0  0999 V2000
   23.9793  -11.2565  -18.0996 C   0  0  0  0  0  0  0  0  0  0  0  0
   24.3068  -11.0409  -19.5440 C   0  0  2  0  0  0  0  0  0  0  0  0
   23.3515  -11.7561  -20.3606 N   0  0  0  0  0  0  0  0  0  0  0  0
   25.7021  -11.4281  -19.8889 C   0  0  0  0  0  0  0  0  0  0  0  0
   26.2126  -12.4641  -19.3913 O   0  0  0  0  0  0  0  0  0  0  0  0
   26.5078  -10.6719  -20.7715 N   0  0  0  0  0  0  0  0  0  0  0  0
   27.8209  -11.1251  -21.2025 C   0  0  1  0  0  0  0  0  0  0  0  0
   27.8738  -11.2257  -22.7155 C   0  0  0  0  0  0  0  0  0  0  0  0
   27.1928  -12.4627  -23.1903 C   0  0  0  0  0  0  0  0  0  0  0  0
   26.7437  -13.4639  -22.3693 C   0  0  0  0  0  0  0  0  0  0  0  0
   26.1919  -14.3925  -23.1989 N   0  0  0  0  0  0  0  0  0  0  0  0
   26.2985  -13.9786  -24.4706 C   0  0  0  0  0  0  0  0  0  0  0  0
   26.9130  -12.7916  -24.4786 N   0  0  0  0  0  0  0  0  0  0  0  0
   28.8527  -10.1591  -20.7828 C   0  0  0  0  0  0  0  0  0  0  0  0
   28.5181   -9.0038  -20.4476 O   0  0  0  0  0  0  0  0  0  0  0  0
   30.2059  -10.5558  -20.7661 N   0  0  0  0  0  0  0  0  0  0  0  0
   31.2649   -9.6956  -20.2797 C   0  0  1  0  0  0  0  0  0  0  0  0
   31.0875   -9.5081  -18.7919 C   0  0  0  0  0  0  0  0  0  0  0  0
   31.0889  -10.7873  -18.0582 C   0  0  0  0  0  0  0  0  0  0  0  0
   32.0663  -11.7543  -18.0028 C   0  0  0  0  0  0  0  0  0  0  0  0
   31.6485  -12.7541  -17.2130 N   0  0  0  0  0  0  0  0  0  0  0  0
   30.4144  -12.4972  -16.7279 C   0  0  0  0  0  0  0  0  0  0  0  0
   29.5721  -13.1985  -15.8922 C   0  0  0  0  0  0  0  0  0  0  0  0
   28.3414  -12.6322  -15.5874 C   0  0  0  0  0  0  0  0  0  0  0  0
   27.9473  -11.4067  -16.0910 C   0  0  0  0  0  0  0  0  0  0  0  0
   28.8368  -10.7576  -16.9206 C   0  0  0  0  0  0  0  0  0  0  0  0
   30.0670  -11.2629  -17.2604 C   0  0  0  0  0  0  0  0  0  0  0  0
   32.5568  -10.2768  -20.6348 C   0  0  0  0  0  0  0  0  0  0  0  0
   33.7029   -9.5057  -20.5759 O   0  0  0  0  0  0  0  0  0  0  0  0
   32.6914  -11.4864  -21.0061 O   0  0  0  0  0  0  0  0  0  0  0  0
  2  1  1  1
  2  3  1  0
  2  4  1  0
  4  5  2  0
  6  4  1  0
  6  7  1  0
  7 14  1  0
  7  8  1  6
  9  8  1  0
 10  9  2  0
 11 12  1  0
 11 10  1  0
 12 13  2  0
 13  9  1  0
 14 15  2  0
 16 17  1  0
 16 14  1  0
 17 28  1  0
 17 18  1  1
 19 18  1  0
 20 19  2  0
 21 22  1  0
 21 20  1  0
 22 27  2  0
 23 22  1  0
 23 24  2  0
 24 25  1  0
 25 26  2  0
 27 19  1  0
 27 26  1  0
 28 30  2  0
 28 29  1  0
M  END
$$$$
