AHW.pdb
     RDKit          3D

 30 32  0  0  1  0  0  0  0  0999 V2000
   26.1846  -24.3861  -15.4983 C   0  0  0  0  0  0  0  0  0  0  0  0
   25.3023  -23.2069  -15.7653 C   0  0  2  0  0  0  0  0  0  0  0  0
   25.5752  -22.6987  -17.0913 N   0  0  0  0  0  0  0  0  0  0  0  0
   25.4384  -22.1343  -14.7422 C   0  0  0  0  0  0  0  0  0  0  0  0
   26.5184  -21.4998  -14.6304 O   0  0  0  0  0  0  0  0  0  0  0  0
   24.3881  -21.7799  -13.8638 N   0  0  0  0  0  0  0  0  0  0  0  0
   24.5196  -20.7053  -12.8927 C   0  0  1  0  0  0  0  0  0  0  0  0
   23.1623  -20.0978  -12.5912 C   0  0  0  0  0  0  0  0  0  0  0  0
   22.7598  -19.1397  -13.6586 C   0  0  0  0  0  0  0  0  0  0  0  0
   23.5435  -18.7986  -14.7297 C   0  0  0  0  0  0  0  0  0  0  0  0
   22.8054  -17.9090  -15.4501 N   0  0  0  0  0  0  0  0  0  0  0  0
   21.6230  -17.7141  -14.8471 C   0  0  0  0  0  0  0  0  0  0  0  0
   21.5826  -18.4663  -13.7429 N   0  0  0  0  0  0  0  0  0  0  0  0
   25.0649  -21.2303  -11.6275 C   0  0  0  0  0  0  0  0  0  0  0  0
   24.6709  -22.3335  -11.1950 O   0  0  0  0  0  0  0  0  0  0  0  0
   26.0261  -20.4766  -10.9227 N   0  0  0  0  0  0  0  0  0  0  0  0
   26.6530  -20.9534   -9.7071 C   0  0  1  0  0  0  0  0  0  0  0  0
   27.8461  -20.0782   -9.4056 C   0  0  0  0  0  0  0  0  0  0  0  0
   28.5794  -20.5187   -8.2044 C   0  0  0  0  0  0  0  0  0  0  0  0
   29.4160  -21.5998   -8.0469 C   0  0  0  0  0  0  0  0  0  0  0  0
   29.8697  -21.6219   -6.7852 N   0  0  0  0  0  0  0  0  0  0  0  0
   29.3668  -20.5872   -6.0775 C   0  0  0  0  0  0  0  0  0  0  0  0
   29.5268  -20.1815   -4.7701 C   0  0  0  0  0  0  0  0  0  0  0  0
   28.8469  -19.0436   -4.3561 C   0  0  0  0  0  0  0  0  0  0  0  0
   28.0298  -18.3215   -5.2056 C   0  0  0  0  0  0  0  0  0  0  0  0
   27.9135  -18.7813   -6.5001 C   0  0  0  0  0  0  0  0  0  0  0  0
   28.5581  -19.8978   -6.9711 C   0  0  0  0  0  0  0  0  0  0  0  0
   25.6654  -20.9677   -8.6313 C   0  0  0  0  0  0  0  0  0  0  0  0
   25.7030  -21.9605   -7.6698 O   0  0  0  0  0  0  0  0  0  0  0  0
   24.7463  -20.0941   -8.5257 O   0  0  0  0  0  0  0  0  0  0  0  0
  2  1  1  1
  2  3  1  0
  2  4  1  0
  4  5  2  0
  6  4  1  0
  6  7  1  0
  7 14  1  0
  7  8  1  1
  9  8  1  0
 10  9  2  0
 11 12  1  0
 11 10  1  0
 12 13  2  0
 13  9  1  0
 14 15  2  0
 16 17  1  0
 16 14  1  0
 17 28  1  0
 17 18  1  1
 19 18  1  0
 20 19  2  0
 21 22  1  0
 21 20  1  0
 22 27  2  0
 23 22  1  0
 23 24  2  0
 24 25  1  0
 25 26  2  0
 27 19  1  0
 27 26  1  0
 28 30  2  0
 28 29  1  0
M  END
$$$$
