AHW.pdb
     RDKit          3D

 30 32  0  0  1  0  0  0  0  0999 V2000
   26.3054  -23.2800  -16.9621 C   0  0  0  0  0  0  0  0  0  0  0  0
   26.8722  -21.8976  -17.0505 C   0  0  2  0  0  0  0  0  0  0  0  0
   27.9639  -21.8904  -17.9987 N   0  0  0  0  0  0  0  0  0  0  0  0
   27.3050  -21.3602  -15.7315 C   0  0  0  0  0  0  0  0  0  0  0  0
   28.3490  -21.7961  -15.1824 O   0  0  0  0  0  0  0  0  0  0  0  0
   26.5846  -20.3569  -15.0428 N   0  0  0  0  0  0  0  0  0  0  0  0
   27.0365  -19.8126  -13.7720 C   0  0  1  0  0  0  0  0  0  0  0  0
   26.6607  -18.3468  -13.6625 C   0  0  0  0  0  0  0  0  0  0  0  0
   27.4562  -17.5214  -14.6140 C   0  0  0  0  0  0  0  0  0  0  0  0
   28.3803  -18.0250  -15.4917 C   0  0  0  0  0  0  0  0  0  0  0  0
   28.8672  -16.9453  -16.1642 N   0  0  0  0  0  0  0  0  0  0  0  0
   28.2684  -15.8308  -15.7182 C   0  0  0  0  0  0  0  0  0  0  0  0
   27.3974  -16.1721  -14.7635 N   0  0  0  0  0  0  0  0  0  0  0  0
   26.3867  -20.5248  -12.6566 C   0  0  0  0  0  0  0  0  0  0  0  0
   25.2175  -20.9431  -12.7875 O   0  0  0  0  0  0  0  0  0  0  0  0
   27.0976  -20.7236  -11.4549 N   0  0  0  0  0  0  0  0  0  0  0  0
   26.5098  -21.3680  -10.2984 C   0  0  1  0  0  0  0  0  0  0  0  0
   27.5669  -21.4913   -9.2271 C   0  0  0  0  0  0  0  0  0  0  0  0
   27.3500  -20.5530   -8.1103 C   0  0  0  0  0  0  0  0  0  0  0  0
   26.3435  -19.6312   -7.9350 C   0  0  0  0  0  0  0  0  0  0  0  0
   26.5350  -18.9898   -6.7731 N   0  0  0  0  0  0  0  0  0  0  0  0
   27.6429  -19.4474   -6.1507 C   0  0  0  0  0  0  0  0  0  0  0  0
   28.2511  -19.1172   -4.9587 C   0  0  0  0  0  0  0  0  0  0  0  0
   29.4085  -19.8006   -4.6098 C   0  0  0  0  0  0  0  0  0  0  0  0
   29.9555  -20.7845   -5.4120 C   0  0  0  0  0  0  0  0  0  0  0  0
   29.2978  -21.0661   -6.5905 C   0  0  0  0  0  0  0  0  0  0  0  0
   28.1512  -20.4275   -6.9926 C   0  0  0  0  0  0  0  0  0  0  0  0
   25.3412  -20.6059   -9.8664 C   0  0  0  0  0  0  0  0  0  0  0  0
   25.2771  -19.2447  -10.0995 O   0  0  0  0  0  0  0  0  0  0  0  0
   24.3510  -21.1385   -9.2707 O   0  0  0  0  0  0  0  0  0  0  0  0
  2  1  1  1
  2  3  1  0
  2  4  1  0
  4  5  2  0
  6  4  1  0
  6  7  1  0
  7 14  1  0
  7  8  1  6
  9  8  1  0
 10  9  2  0
 11 12  1  0
 11 10  1  0
 12 13  2  0
 13  9  1  0
 14 15  2  0
 16 17  1  0
 16 14  1  0
 17 28  1  0
 17 18  1  1
 19 18  1  0
 20 19  2  0
 21 22  1  0
 21 20  1  0
 22 27  2  0
 23 22  1  0
 23 24  2  0
 24 25  1  0
 25 26  2  0
 27 19  1  0
 27 26  1  0
 28 30  2  0
 28 29  1  0
M  END
$$$$
