AHW.pdb
     RDKit          3D

 30 32  0  0  1  0  0  0  0  0999 V2000
   26.9498  -11.2544  -15.4102 C   0  0  0  0  0  0  0  0  0  0  0  0
   26.5124  -11.1452  -16.8374 C   0  0  2  0  0  0  0  0  0  0  0  0
   27.5051  -10.4054  -17.5844 N   0  0  0  0  0  0  0  0  0  0  0  0
   25.1635  -10.5338  -16.9879 C   0  0  0  0  0  0  0  0  0  0  0  0
   25.0373   -9.2835  -17.0355 O   0  0  0  0  0  0  0  0  0  0  0  0
   23.9822  -11.3056  -17.0830 N   0  0  0  0  0  0  0  0  0  0  0  0
   22.6651  -10.6970  -17.1830 C   0  0  1  0  0  0  0  0  0  0  0  0
   21.6625  -11.6960  -17.7295 C   0  0  0  0  0  0  0  0  0  0  0  0
   20.3155  -11.0752  -17.8694 C   0  0  0  0  0  0  0  0  0  0  0  0
   19.2987  -11.2169  -16.9616 C   0  0  0  0  0  0  0  0  0  0  0  0
   18.2587  -10.4974  -17.4672 N   0  0  0  0  0  0  0  0  0  0  0  0
   18.6222   -9.9403  -18.6322 C   0  0  0  0  0  0  0  0  0  0  0  0
   19.8865  -10.2885  -18.8909 N   0  0  0  0  0  0  0  0  0  0  0  0
   22.1977  -10.2798  -15.8483 C   0  0  0  0  0  0  0  0  0  0  0  0
   22.6136  -10.8761  -14.8332 O   0  0  0  0  0  0  0  0  0  0  0  0
   21.2852   -9.2101  -15.7379 N   0  0  0  0  0  0  0  0  0  0  0  0
   20.9319   -8.6145  -14.4658 C   0  0  1  0  0  0  0  0  0  0  0  0
   22.1888   -8.0883  -13.8151 C   0  0  0  0  0  0  0  0  0  0  0  0
   22.6227   -6.7999  -14.3864 C   0  0  0  0  0  0  0  0  0  0  0  0
   22.1244   -5.5378  -14.1572 C   0  0  0  0  0  0  0  0  0  0  0  0
   22.8200   -4.6536  -14.8869 N   0  0  0  0  0  0  0  0  0  0  0  0
   23.7782   -5.2758  -15.6072 C   0  0  0  0  0  0  0  0  0  0  0  0
   24.7315   -4.8174  -16.4908 C   0  0  0  0  0  0  0  0  0  0  0  0
   25.5809   -5.7505  -17.0706 C   0  0  0  0  0  0  0  0  0  0  0  0
   25.4962   -7.1013  -16.7895 C   0  0  0  0  0  0  0  0  0  0  0  0
   24.5209   -7.4931  -15.8973 C   0  0  0  0  0  0  0  0  0  0  0  0
   23.6511   -6.6217  -15.2906 C   0  0  0  0  0  0  0  0  0  0  0  0
   19.9225   -7.5815  -14.6831 C   0  0  0  0  0  0  0  0  0  0  0  0
   19.2707   -7.0124  -13.6049 O   0  0  0  0  0  0  0  0  0  0  0  0
   19.5997   -7.1640  -15.8410 O   0  0  0  0  0  0  0  0  0  0  0  0
  2  1  1  1
  2  3  1  0
  2  4  1  0
  4  5  2  0
  6  4  1  0
  6  7  1  0
  7 14  1  0
  7  8  1  1
  9  8  1  0
 10  9  2  0
 11 12  1  0
 11 10  1  0
 12 13  2  0
 13  9  1  0
 14 15  2  0
 16 17  1  0
 16 14  1  0
 17 28  1  0
 17 18  1  6
 19 18  1  0
 20 19  2  0
 21 22  1  0
 21 20  1  0
 22 27  2  0
 23 22  1  0
 23 24  2  0
 24 25  1  0
 25 26  2  0
 27 19  1  0
 27 26  1  0
 28 30  2  0
 28 29  1  0
M  END
$$$$
