AHW.pdb
     RDKit          3D

 30 32  0  0  1  0  0  0  0  0999 V2000
   24.7258  -26.0232  -17.0299 C   0  0  0  0  0  0  0  0  0  0  0  0
   26.1160  -25.6415  -17.4322 C   0  0  2  0  0  0  0  0  0  0  0  0
   26.9355  -26.8310  -17.5003 N   0  0  0  0  0  0  0  0  0  0  0  0
   26.7238  -24.6233  -16.5325 C   0  0  0  0  0  0  0  0  0  0  0  0
   27.5139  -24.9762  -15.6200 O   0  0  0  0  0  0  0  0  0  0  0  0
   26.4528  -23.2404  -16.6521 N   0  0  0  0  0  0  0  0  0  0  0  0
   27.0733  -22.2514  -15.7848 C   0  0  1  0  0  0  0  0  0  0  0  0
   27.2268  -20.9309  -16.5159 C   0  0  0  0  0  0  0  0  0  0  0  0
   28.3654  -20.9836  -17.4753 C   0  0  0  0  0  0  0  0  0  0  0  0
   29.3014  -21.9838  -17.5130 C   0  0  0  0  0  0  0  0  0  0  0  0
   30.1502  -21.6477  -18.5238 N   0  0  0  0  0  0  0  0  0  0  0  0
   29.7519  -20.4935  -19.0797 C   0  0  0  0  0  0  0  0  0  0  0  0
   28.6539  -20.0745  -18.4431 N   0  0  0  0  0  0  0  0  0  0  0  0
   26.2252  -22.0115  -14.6028 C   0  0  0  0  0  0  0  0  0  0  0  0
   24.9881  -21.9120  -14.7395 O   0  0  0  0  0  0  0  0  0  0  0  0
   26.8258  -21.8979  -13.3319 N   0  0  0  0  0  0  0  0  0  0  0  0
   26.0658  -21.6095  -12.1331 C   0  0  1  0  0  0  0  0  0  0  0  0
   26.9525  -21.8432  -10.9333 C   0  0  0  0  0  0  0  0  0  0  0  0
   26.5897  -20.9869   -9.7887 C   0  0  0  0  0  0  0  0  0  0  0  0
   25.3598  -20.4752   -9.4439 C   0  0  0  0  0  0  0  0  0  0  0  0
   25.4864  -19.7486   -8.3240 N   0  0  0  0  0  0  0  0  0  0  0  0
   26.7671  -19.7497   -7.8950 C   0  0  0  0  0  0  0  0  0  0  0  0
   27.3937  -19.1639   -6.8161 C   0  0  0  0  0  0  0  0  0  0  0  0
   28.7584  -19.3723   -6.6667 C   0  0  0  0  0  0  0  0  0  0  0  0
   29.4903  -20.1375   -7.5553 C   0  0  0  0  0  0  0  0  0  0  0  0
   28.8028  -20.6949   -8.6124 C   0  0  0  0  0  0  0  0  0  0  0  0
   27.4558  -20.5273   -8.8163 C   0  0  0  0  0  0  0  0  0  0  0  0
   25.5499  -20.2452  -12.2083 C   0  0  0  0  0  0  0  0  0  0  0  0
   24.2741  -19.9614  -11.7573 O   0  0  0  0  0  0  0  0  0  0  0  0
   26.2266  -19.2758  -12.6788 O   0  0  0  0  0  0  0  0  0  0  0  0
  2  1  1  1
  2  3  1  0
  2  4  1  0
  4  5  2  0
  6  4  1  0
  6  7  1  0
  7 14  1  0
  7  8  1  6
  9  8  1  0
 10  9  2  0
 11 12  1  0
 11 10  1  0
 12 13  2  0
 13  9  1  0
 14 15  2  0
 16 17  1  0
 16 14  1  0
 17 28  1  0
 17 18  1  1
 19 18  1  0
 20 19  2  0
 21 22  1  0
 21 20  1  0
 22 27  2  0
 23 22  1  0
 23 24  2  0
 24 25  1  0
 25 26  2  0
 27 19  1  0
 27 26  1  0
 28 30  2  0
 28 29  1  0
M  END
$$$$
