AHW.pdb
     RDKit          3D

 30 32  0  0  1  0  0  0  0  0999 V2000
   23.9496  -17.5729  -17.8862 C   0  0  0  0  0  0  0  0  0  0  0  0
   23.7975  -18.5711  -16.7814 C   0  0  2  0  0  0  0  0  0  0  0  0
   23.2496  -17.9123  -15.6166 N   0  0  0  0  0  0  0  0  0  0  0  0
   25.0680  -19.2729  -16.4516 C   0  0  0  0  0  0  0  0  0  0  0  0
   25.5668  -20.0936  -17.2635 O   0  0  0  0  0  0  0  0  0  0  0  0
   25.7647  -19.0604  -15.2393 N   0  0  0  0  0  0  0  0  0  0  0  0
   27.0673  -19.6531  -14.9801 C   0  0  1  0  0  0  0  0  0  0  0  0
   28.0645  -18.5814  -14.5811 C   0  0  0  0  0  0  0  0  0  0  0  0
   27.9965  -17.4193  -15.5108 C   0  0  0  0  0  0  0  0  0  0  0  0
   27.3984  -16.2228  -15.2134 C   0  0  0  0  0  0  0  0  0  0  0  0
   27.5612  -15.4505  -16.3234 N   0  0  0  0  0  0  0  0  0  0  0  0
   28.2288  -16.1431  -17.2585 C   0  0  0  0  0  0  0  0  0  0  0  0
   28.5026  -17.3569  -16.7703 N   0  0  0  0  0  0  0  0  0  0  0  0
   26.9737  -20.6134  -13.8653 C   0  0  0  0  0  0  0  0  0  0  0  0
   27.8919  -21.4395  -13.6822 O   0  0  0  0  0  0  0  0  0  0  0  0
   25.8452  -20.5843  -13.0200 N   0  0  0  0  0  0  0  0  0  0  0  0
   25.6632  -21.5202  -11.9296 C   0  0  1  0  0  0  0  0  0  0  0  0
   26.8772  -21.4576  -11.0338 C   0  0  0  0  0  0  0  0  0  0  0  0
   26.5701  -20.8928   -9.7066 C   0  0  0  0  0  0  0  0  0  0  0  0
   25.3762  -20.4049   -9.2268 C   0  0  0  0  0  0  0  0  0  0  0  0
   25.5489  -19.9910   -7.9631 N   0  0  0  0  0  0  0  0  0  0  0  0
   26.8258  -20.1823   -7.5669 C   0  0  0  0  0  0  0  0  0  0  0  0
   27.4880  -19.9267   -6.3854 C   0  0  0  0  0  0  0  0  0  0  0  0
   28.8356  -20.2538   -6.3130 C   0  0  0  0  0  0  0  0  0  0  0  0
   29.5166  -20.8186   -7.3752 C   0  0  0  0  0  0  0  0  0  0  0  0
   28.7955  -21.0483   -8.5276 C   0  0  0  0  0  0  0  0  0  0  0  0
   27.4630  -20.7480   -8.6632 C   0  0  0  0  0  0  0  0  0  0  0  0
   24.4185  -21.2084  -11.2320 C   0  0  0  0  0  0  0  0  0  0  0  0
   23.8315  -22.1508  -10.4081 O   0  0  0  0  0  0  0  0  0  0  0  0
   23.8269  -20.0873  -11.3427 O   0  0  0  0  0  0  0  0  0  0  0  0
  2  1  1  6
  2  3  1  0
  2  4  1  0
  4  5  2  0
  6  4  1  0
  6  7  1  0
  7 14  1  0
  7  8  1  1
  9  8  1  0
 10  9  2  0
 11 12  1  0
 11 10  1  0
 12 13  2  0
 13  9  1  0
 14 15  2  0
 16 17  1  0
 16 14  1  0
 17 28  1  0
 17 18  1  1
 19 18  1  0
 20 19  2  0
 21 22  1  0
 21 20  1  0
 22 27  2  0
 23 22  1  0
 23 24  2  0
 24 25  1  0
 25 26  2  0
 27 19  1  0
 27 26  1  0
 28 30  2  0
 28 29  1  0
M  END
$$$$
