AHW.pdb
     RDKit          3D

 30 32  0  0  1  0  0  0  0  0999 V2000
   26.8842  -23.5215  -18.3546 C   0  0  0  0  0  0  0  0  0  0  0  0
   27.8472  -22.3907  -18.1702 C   0  0  2  0  0  0  0  0  0  0  0  0
   29.1579  -22.8033  -18.6205 N   0  0  0  0  0  0  0  0  0  0  0  0
   27.8955  -21.8894  -16.7695 C   0  0  0  0  0  0  0  0  0  0  0  0
   28.6636  -22.4267  -15.9312 O   0  0  0  0  0  0  0  0  0  0  0  0
   27.1010  -20.8102  -16.3175 N   0  0  0  0  0  0  0  0  0  0  0  0
   27.2303  -20.2611  -14.9769 C   0  0  1  0  0  0  0  0  0  0  0  0
   27.0775  -18.7519  -15.0081 C   0  0  0  0  0  0  0  0  0  0  0  0
   28.2595  -18.1109  -15.6495 C   0  0  0  0  0  0  0  0  0  0  0  0
   29.3638  -18.7902  -16.0934 C   0  0  0  0  0  0  0  0  0  0  0  0
   30.1931  -17.8386  -16.6050 N   0  0  0  0  0  0  0  0  0  0  0  0
   29.6224  -16.6310  -16.4798 C   0  0  0  0  0  0  0  0  0  0  0  0
   28.4314  -16.7852  -15.8929 N   0  0  0  0  0  0  0  0  0  0  0  0
   26.1703  -20.7994  -14.1050 C   0  0  0  0  0  0  0  0  0  0  0  0
   25.0228  -20.9769  -14.5642 O   0  0  0  0  0  0  0  0  0  0  0  0
   26.4692  -21.1069  -12.7615 N   0  0  0  0  0  0  0  0  0  0  0  0
   25.4866  -21.6558  -11.8498 C   0  0  1  0  0  0  0  0  0  0  0  0
   26.1993  -22.1455  -10.6119 C   0  0  0  0  0  0  0  0  0  0  0  0
   26.4303  -21.0688   -9.6311 C   0  0  0  0  0  0  0  0  0  0  0  0
   25.5501  -20.1226   -9.1585 C   0  0  0  0  0  0  0  0  0  0  0  0
   26.1836  -19.3383   -8.2744 N   0  0  0  0  0  0  0  0  0  0  0  0
   27.4705  -19.7220   -8.1302 C   0  0  0  0  0  0  0  0  0  0  0  0
   28.5085  -19.2465   -7.3581 C   0  0  0  0  0  0  0  0  0  0  0  0
   29.7354  -19.8900   -7.4530 C   0  0  0  0  0  0  0  0  0  0  0  0
   29.9381  -20.9744   -8.2859 C   0  0  0  0  0  0  0  0  0  0  0  0
   28.8587  -21.3996   -9.0307 C   0  0  0  0  0  0  0  0  0  0  0  0
   27.6213  -20.8075   -8.9827 C   0  0  0  0  0  0  0  0  0  0  0  0
   24.4752  -20.6411  -11.5660 C   0  0  0  0  0  0  0  0  0  0  0  0
   24.7396  -19.3087  -11.8236 O   0  0  0  0  0  0  0  0  0  0  0  0
   23.3326  -20.9214  -11.0814 O   0  0  0  0  0  0  0  0  0  0  0  0
  2  1  1  1
  2  3  1  0
  2  4  1  0
  4  5  2  0
  6  4  1  0
  6  7  1  0
  7 14  1  0
  7  8  1  6
  9  8  1  0
 10  9  2  0
 11 12  1  0
 11 10  1  0
 12 13  2  0
 13  9  1  0
 14 15  2  0
 16 17  1  0
 16 14  1  0
 17 28  1  0
 17 18  1  1
 19 18  1  0
 20 19  2  0
 21 22  1  0
 21 20  1  0
 22 27  2  0
 23 22  1  0
 23 24  2  0
 24 25  1  0
 25 26  2  0
 27 19  1  0
 27 26  1  0
 28 30  2  0
 28 29  1  0
M  END
$$$$
