AHW.pdb
     RDKit          3D

 30 32  0  0  1  0  0  0  0  0999 V2000
   29.8601  -21.9286  -18.7273 C   0  0  0  0  0  0  0  0  0  0  0  0
   28.8166  -22.5083  -17.8244 C   0  0  2  0  0  0  0  0  0  0  0  0
   27.5557  -22.5665  -18.5298 N   0  0  0  0  0  0  0  0  0  0  0  0
   28.6788  -21.7658  -16.5416 C   0  0  0  0  0  0  0  0  0  0  0  0
   29.6535  -21.6813  -15.7515 O   0  0  0  0  0  0  0  0  0  0  0  0
   27.4760  -21.1318  -16.1523 N   0  0  0  0  0  0  0  0  0  0  0  0
   27.3741  -20.3453  -14.9332 C   0  0  1  0  0  0  0  0  0  0  0  0
   26.6884  -19.0216  -15.2153 C   0  0  0  0  0  0  0  0  0  0  0  0
   27.5953  -18.1001  -15.9555 C   0  0  0  0  0  0  0  0  0  0  0  0
   28.9039  -18.3756  -16.2549 C   0  0  0  0  0  0  0  0  0  0  0  0
   29.3590  -17.2830  -16.9289 N   0  0  0  0  0  0  0  0  0  0  0  0
   28.3735  -16.3793  -17.0372 C   0  0  0  0  0  0  0  0  0  0  0  0
   27.2823  -16.8706  -16.4419 N   0  0  0  0  0  0  0  0  0  0  0  0
   26.5633  -21.0641  -13.9334 C   0  0  0  0  0  0  0  0  0  0  0  0
   25.6382  -21.8132  -14.3104 O   0  0  0  0  0  0  0  0  0  0  0  0
   26.8458  -20.8945  -12.5621 N   0  0  0  0  0  0  0  0  0  0  0  0
   26.1348  -21.6129  -11.5246 C   0  0  1  0  0  0  0  0  0  0  0  0
   27.0775  -21.8464  -10.3683 C   0  0  0  0  0  0  0  0  0  0  0  0
   26.7596  -21.0016   -9.2021 C   0  0  0  0  0  0  0  0  0  0  0  0
   25.5679  -20.4019   -8.8647 C   0  0  0  0  0  0  0  0  0  0  0  0
   25.7276  -19.7259   -7.7177 N   0  0  0  0  0  0  0  0  0  0  0  0
   26.9937  -19.8469   -7.2630 C   0  0  0  0  0  0  0  0  0  0  0  0
   27.6409  -19.3510   -6.1518 C   0  0  0  0  0  0  0  0  0  0  0  0
   28.9802  -19.6762   -5.9820 C   0  0  0  0  0  0  0  0  0  0  0  0
   29.6674  -20.4693   -6.8818 C   0  0  0  0  0  0  0  0  0  0  0  0
   28.9613  -20.9326   -7.9715 C   0  0  0  0  0  0  0  0  0  0  0  0
   27.6376  -20.6477   -8.1968 C   0  0  0  0  0  0  0  0  0  0  0  0
   24.9420  -20.8583  -11.1492 C   0  0  0  0  0  0  0  0  0  0  0  0
   23.8752  -21.5022  -10.5503 O   0  0  0  0  0  0  0  0  0  0  0  0
   24.8255  -19.6069  -11.3478 O   0  0  0  0  0  0  0  0  0  0  0  0
  2  1  1  6
  2  3  1  0
  2  4  1  0
  4  5  2  0
  6  4  1  0
  6  7  1  0
  7 14  1  0
  7  8  1  6
  9  8  1  0
 10  9  2  0
 11 12  1  0
 11 10  1  0
 12 13  2  0
 13  9  1  0
 14 15  2  0
 16 17  1  0
 16 14  1  0
 17 28  1  0
 17 18  1  1
 19 18  1  0
 20 19  2  0
 21 22  1  0
 21 20  1  0
 22 27  2  0
 23 22  1  0
 23 24  2  0
 24 25  1  0
 25 26  2  0
 27 19  1  0
 27 26  1  0
 28 30  2  0
 28 29  1  0
M  END
$$$$
