AHW.pdb
     RDKit          3D

 30 32  0  0  1  0  0  0  0  0999 V2000
   31.8313  -39.4541   -2.8720 C   0  0  0  0  0  0  0  0  0  0  0  0
   31.0095  -38.5307   -2.0282 C   0  0  2  0  0  0  0  0  0  0  0  0
   30.3523  -39.2928   -0.9899 N   0  0  0  0  0  0  0  0  0  0  0  0
   30.0250  -37.7414   -2.8177 C   0  0  0  0  0  0  0  0  0  0  0  0
   30.4138  -36.7964   -3.5507 O   0  0  0  0  0  0  0  0  0  0  0  0
   28.6358  -38.0045   -2.7872 N   0  0  0  0  0  0  0  0  0  0  0  0
   27.6987  -37.3238   -3.6668 C   0  0  1  0  0  0  0  0  0  0  0  0
   26.4899  -38.2020   -3.9307 C   0  0  0  0  0  0  0  0  0  0  0  0
   26.6402  -38.9416   -5.2151 C   0  0  0  0  0  0  0  0  0  0  0  0
   27.6426  -38.7218   -6.1233 C   0  0  0  0  0  0  0  0  0  0  0  0
   27.4100  -39.5988   -7.1390 N   0  0  0  0  0  0  0  0  0  0  0  0
   26.3144  -40.3230   -6.8651 C   0  0  0  0  0  0  0  0  0  0  0  0
   25.8311  -39.9278   -5.6832 N   0  0  0  0  0  0  0  0  0  0  0  0
   27.2190  -36.0826   -3.0321 C   0  0  0  0  0  0  0  0  0  0  0  0
   27.0336  -36.0510   -1.7977 O   0  0  0  0  0  0  0  0  0  0  0  0
   26.9761  -34.9461   -3.8311 N   0  0  0  0  0  0  0  0  0  0  0  0
   26.6648  -33.6486   -3.2676 C   0  0  1  0  0  0  0  0  0  0  0  0
   26.8961  -32.5963   -4.3256 C   0  0  0  0  0  0  0  0  0  0  0  0
   25.8941  -32.6532   -5.4061 C   0  0  0  0  0  0  0  0  0  0  0  0
   24.5409  -32.8888   -5.3225 C   0  0  0  0  0  0  0  0  0  0  0  0
   24.0128  -32.8488   -6.5544 N   0  0  0  0  0  0  0  0  0  0  0  0
   24.9665  -32.5928   -7.4760 C   0  0  0  0  0  0  0  0  0  0  0  0
   24.9310  -32.4559   -8.8470 C   0  0  0  0  0  0  0  0  0  0  0  0
   26.1250  -32.1877   -9.5033 C   0  0  0  0  0  0  0  0  0  0  0  0
   27.3249  -32.0569   -8.8296 C   0  0  0  0  0  0  0  0  0  0  0  0
   27.2907  -32.2053   -7.4593 C   0  0  0  0  0  0  0  0  0  0  0  0
   26.1448  -32.4709   -6.7518 C   0  0  0  0  0  0  0  0  0  0  0  0
   25.2951  -33.6613   -2.7608 C   0  0  0  0  0  0  0  0  0  0  0  0
   24.4061  -34.6284   -3.1919 O   0  0  0  0  0  0  0  0  0  0  0  0
   24.8612  -32.8089   -1.9216 O   0  0  0  0  0  0  0  0  0  0  0  0
  2  1  1  6
  2  3  1  0
  2  4  1  0
  4  5  2  0
  6  4  1  0
  6  7  1  0
  7 14  1  0
  7  8  1  1
  9  8  1  0
 10  9  2  0
 11 12  1  0
 11 10  1  0
 12 13  2  0
 13  9  1  0
 14 15  2  0
 16 17  1  0
 16 14  1  0
 17 28  1  0
 17 18  1  6
 19 18  1  0
 20 19  2  0
 21 22  1  0
 21 20  1  0
 22 27  2  0
 23 22  1  0
 23 24  2  0
 24 25  1  0
 25 26  2  0
 27 19  1  0
 27 26  1  0
 28 30  2  0
 28 29  1  0
M  END
$$$$
