AHW.pdb
     RDKit          3D

 30 32  0  0  1  0  0  0  0  0999 V2000
   29.4752  -20.2777  -15.8939 C   0  0  0  0  0  0  0  0  0  0  0  0
   29.0889  -21.3971  -16.8093 C   0  0  2  0  0  0  0  0  0  0  0  0
   29.3737  -21.0155  -18.1746 N   0  0  0  0  0  0  0  0  0  0  0  0
   27.6677  -21.8119  -16.6545 C   0  0  0  0  0  0  0  0  0  0  0  0
   26.7708  -21.2685  -17.3485 O   0  0  0  0  0  0  0  0  0  0  0  0
   27.2600  -22.8132  -15.7427 N   0  0  0  0  0  0  0  0  0  0  0  0
   25.8638  -23.1820  -15.5703 C   0  0  1  0  0  0  0  0  0  0  0  0
   25.7497  -24.6376  -15.1579 C   0  0  0  0  0  0  0  0  0  0  0  0
   26.0778  -25.5402  -16.2969 C   0  0  0  0  0  0  0  0  0  0  0  0
   26.3293  -25.1149  -17.5751 C   0  0  0  0  0  0  0  0  0  0  0  0
   26.5816  -26.2463  -18.2902 N   0  0  0  0  0  0  0  0  0  0  0  0
   26.4886  -27.3161  -17.4861 C   0  0  0  0  0  0  0  0  0  0  0  0
   26.1789  -26.8946  -16.2561 N   0  0  0  0  0  0  0  0  0  0  0  0
   25.2529  -22.3667  -14.5045 C   0  0  0  0  0  0  0  0  0  0  0  0
   25.8710  -22.1832  -13.4352 O   0  0  0  0  0  0  0  0  0  0  0  0
   23.9757  -21.8047  -14.7093 N   0  0  0  0  0  0  0  0  0  0  0  0
   23.3770  -20.8693  -13.7795 C   0  0  1  0  0  0  0  0  0  0  0  0
   24.2983  -19.6821  -13.6308 C   0  0  0  0  0  0  0  0  0  0  0  0
   24.4505  -18.9255  -14.8874 C   0  0  0  0  0  0  0  0  0  0  0  0
   23.4789  -18.4732  -15.7505 C   0  0  0  0  0  0  0  0  0  0  0  0
   24.0648  -17.8284  -16.7699 N   0  0  0  0  0  0  0  0  0  0  0  0
   25.4079  -17.8279  -16.6272 C   0  0  0  0  0  0  0  0  0  0  0  0
   26.4305  -17.3077  -17.3911 C   0  0  0  0  0  0  0  0  0  0  0  0
   27.7323  -17.4915  -16.9441 C   0  0  0  0  0  0  0  0  0  0  0  0
   28.0231  -18.1696  -15.7752 C   0  0  0  0  0  0  0  0  0  0  0  0
   26.9543  -18.6645  -15.0585 C   0  0  0  0  0  0  0  0  0  0  0  0
   25.6457  -18.5170  -15.4455 C   0  0  0  0  0  0  0  0  0  0  0  0
   22.0448  -20.5057  -14.2552 C   0  0  0  0  0  0  0  0  0  0  0  0
   21.2229  -19.7141  -13.4747 O   0  0  0  0  0  0  0  0  0  0  0  0
   21.5846  -20.8872  -15.3785 O   0  0  0  0  0  0  0  0  0  0  0  0
  2  1  1  1
  2  3  1  0
  2  4  1  0
  4  5  2  0
  6  4  1  0
  6  7  1  0
  7 14  1  0
  7  8  1  1
  9  8  1  0
 10  9  2  0
 11 12  1  0
 11 10  1  0
 12 13  2  0
 13  9  1  0
 14 15  2  0
 16 17  1  0
 16 14  1  0
 17 28  1  0
 17 18  1  6
 19 18  1  0
 20 19  2  0
 21 22  1  0
 21 20  1  0
 22 27  2  0
 23 22  1  0
 23 24  2  0
 24 25  1  0
 25 26  2  0
 27 19  1  0
 27 26  1  0
 28 30  2  0
 28 29  1  0
M  END
$$$$
