KWW.pdb
     RDKit          3D

 38 41  0  0  1  0  0  0  0  0999 V2000
   27.5311  -22.9949  -16.4509 N   0  0  0  0  0  0  0  0  0  0  0  0
   27.9535  -21.7441  -15.9489 C   0  0  1  0  0  0  0  0  0  0  0  0
   28.4636  -20.7477  -16.9491 C   0  0  0  0  0  0  0  0  0  0  0  0
   28.8796  -21.3524  -18.2250 C   0  0  0  0  0  0  0  0  0  0  0  0
   30.3528  -21.2906  -18.4476 C   0  0  0  0  0  0  0  0  0  0  0  0
   30.6879  -21.8476  -19.8057 C   0  0  0  0  0  0  0  0  0  0  0  0
   32.1374  -21.8716  -20.0064 N   0  0  0  0  0  0  0  0  0  0  0  0
   27.0519  -21.1137  -14.9463 C   0  0  0  0  0  0  0  0  0  0  0  0
   26.8640  -19.8671  -15.0655 O   0  0  0  0  0  0  0  0  0  0  0  0
   26.4016  -21.7664  -13.8945 N   0  0  0  0  0  0  0  0  0  0  0  0
   25.4564  -21.0894  -12.9945 C   0  0  1  0  0  0  0  0  0  0  0  0
   24.0829  -21.4558  -13.4078 C   0  0  0  0  0  0  0  0  0  0  0  0
   23.5082  -20.6322  -14.4645 C   0  0  0  0  0  0  0  0  0  0  0  0
   23.8478  -20.6733  -15.7986 C   0  0  0  0  0  0  0  0  0  0  0  0
   23.0888  -19.7665  -16.4496 N   0  0  0  0  0  0  0  0  0  0  0  0
   22.2670  -19.1318  -15.6063 C   0  0  0  0  0  0  0  0  0  0  0  0
   21.3309  -18.1455  -15.8085 C   0  0  0  0  0  0  0  0  0  0  0  0
   20.6115  -17.6607  -14.7401 C   0  0  0  0  0  0  0  0  0  0  0  0
   20.8391  -18.1725  -13.4735 C   0  0  0  0  0  0  0  0  0  0  0  0
   21.7877  -19.1663  -13.2956 C   0  0  0  0  0  0  0  0  0  0  0  0
   22.5284  -19.6768  -14.3443 C   0  0  0  0  0  0  0  0  0  0  0  0
   25.7977  -21.3756  -11.5793 C   0  0  0  0  0  0  0  0  0  0  0  0
   25.9950  -22.5737  -11.2603 O   0  0  0  0  0  0  0  0  0  0  0  0
   25.9096  -20.3904  -10.5852 N   0  0  0  0  0  0  0  0  0  0  0  0
   26.1492  -20.7848   -9.1783 C   0  0  1  0  0  0  0  0  0  0  0  0
   26.7200  -19.6547   -8.4191 C   0  0  0  0  0  0  0  0  0  0  0  0
   28.0111  -19.9828   -7.7802 C   0  0  0  0  0  0  0  0  0  0  0  0
   28.9820  -20.8611   -8.2492 C   0  0  0  0  0  0  0  0  0  0  0  0
   29.9764  -20.9125   -7.3599 N   0  0  0  0  0  0  0  0  0  0  0  0
   29.7079  -20.1016   -6.3154 C   0  0  0  0  0  0  0  0  0  0  0  0
   30.4344  -19.8127   -5.1733 C   0  0  0  0  0  0  0  0  0  0  0  0
   29.9510  -18.9200   -4.2449 C   0  0  0  0  0  0  0  0  0  0  0  0
   28.7320  -18.3204   -4.4741 C   0  0  0  0  0  0  0  0  0  0  0  0
   28.0184  -18.6170   -5.6143 C   0  0  0  0  0  0  0  0  0  0  0  0
   28.4894  -19.5207   -6.5694 C   0  0  0  0  0  0  0  0  0  0  0  0
   24.9065  -21.3136   -8.6169 C   0  0  0  0  0  0  0  0  0  0  0  0
   24.8427  -22.1428   -7.5098 O   0  0  0  0  0  0  0  0  0  0  0  0
   23.8133  -21.0187   -9.1558 O   0  0  0  0  0  0  0  0  0  0  0  0
  2  1  1  6
  2  3  1  0
  4  3  1  0
  4  5  1  0
  6  5  1  0
  7  6  1  0
  8  2  1  0
  9  8  2  0
 10  8  1  0
 11 12  1  6
 11 10  1  0
 12 13  1  0
 13 21  1  0
 14 13  2  0
 14 15  1  0
 15 16  1  0
 16 17  1  0
 17 18  2  0
 19 18  1  0
 20 19  2  0
 21 16  2  0
 21 20  1  0
 22 23  2  0
 22 11  1  0
 24 22  1  0
 25 24  1  0
 25 26  1  1
 27 28  2  0
 27 26  1  0
 29 28  1  0
 30 35  2  0
 30 29  1  0
 31 30  1  0
 32 33  1  0
 32 31  2  0
 33 34  2  0
 34 35  1  0
 35 27  1  0
 36 37  1  0
 36 25  1  0
 38 36  2  0
M  END
$$$$
