KWW.pdb
     RDKit          3D

 38 41  0  0  1  0  0  0  0  0999 V2000
   28.5515  -22.9989  -16.1664 N   0  0  0  0  0  0  0  0  0  0  0  0
   28.6952  -21.8739  -15.3247 C   0  0  1  0  0  0  0  0  0  0  0  0
   28.6858  -20.5258  -15.9850 C   0  0  0  0  0  0  0  0  0  0  0  0
   27.7650  -20.4357  -17.1298 C   0  0  0  0  0  0  0  0  0  0  0  0
   28.3405  -19.6882  -18.2846 C   0  0  0  0  0  0  0  0  0  0  0  0
   27.3496  -19.6575  -19.4179 C   0  0  0  0  0  0  0  0  0  0  0  0
   27.9481  -19.0465  -20.6055 N   0  0  0  0  0  0  0  0  0  0  0  0
   27.8766  -21.8897  -14.0816 C   0  0  0  0  0  0  0  0  0  0  0  0
   26.6727  -22.2619  -14.2068 O   0  0  0  0  0  0  0  0  0  0  0  0
   28.3117  -21.5328  -12.8015 N   0  0  0  0  0  0  0  0  0  0  0  0
   27.4258  -21.5251  -11.6281 C   0  0  1  0  0  0  0  0  0  0  0  0
   28.2275  -21.1318  -10.4473 C   0  0  0  0  0  0  0  0  0  0  0  0
   27.4593  -20.7934   -9.2556 C   0  0  0  0  0  0  0  0  0  0  0  0
   26.0928  -20.6337   -9.1910 C   0  0  0  0  0  0  0  0  0  0  0  0
   25.7686  -20.3329   -7.9157 N   0  0  0  0  0  0  0  0  0  0  0  0
   26.8571  -20.2873   -7.1397 C   0  0  0  0  0  0  0  0  0  0  0  0
   27.0162  -20.0228   -5.8001 C   0  0  0  0  0  0  0  0  0  0  0  0
   28.2768  -20.0399   -5.2480 C   0  0  0  0  0  0  0  0  0  0  0  0
   29.3704  -20.3238   -6.0488 C   0  0  0  0  0  0  0  0  0  0  0  0
   29.1841  -20.5872   -7.3960 C   0  0  0  0  0  0  0  0  0  0  0  0
   27.9339  -20.5787   -7.9844 C   0  0  0  0  0  0  0  0  0  0  0  0
   26.2259  -20.6940  -11.8939 C   0  0  0  0  0  0  0  0  0  0  0  0
   26.4082  -19.4838  -12.1743 O   0  0  0  0  0  0  0  0  0  0  0  0
   24.9096  -21.1802  -11.8481 N   0  0  0  0  0  0  0  0  0  0  0  0
   23.7875  -20.3155  -12.2789 C   0  0  1  0  0  0  0  0  0  0  0  0
   23.7424  -20.2297  -13.7519 C   0  0  0  0  0  0  0  0  0  0  0  0
   22.6368  -19.3837  -14.2466 C   0  0  0  0  0  0  0  0  0  0  0  0
   22.5031  -18.0068  -14.1039 C   0  0  0  0  0  0  0  0  0  0  0  0
   21.3437  -17.6319  -14.6494 N   0  0  0  0  0  0  0  0  0  0  0  0
   20.6982  -18.7048  -15.1520 C   0  0  0  0  0  0  0  0  0  0  0  0
   19.4890  -18.8144  -15.8165 C   0  0  0  0  0  0  0  0  0  0  0  0
   19.0432  -20.0385  -16.2587 C   0  0  0  0  0  0  0  0  0  0  0  0
   19.8227  -21.1508  -16.0276 C   0  0  0  0  0  0  0  0  0  0  0  0
   21.0237  -21.0284  -15.3644 C   0  0  0  0  0  0  0  0  0  0  0  0
   21.4951  -19.7962  -14.9059 C   0  0  0  0  0  0  0  0  0  0  0  0
   22.5511  -20.8074  -11.6717 C   0  0  0  0  0  0  0  0  0  0  0  0
   21.5567  -19.9914  -11.1592 O   0  0  0  0  0  0  0  0  0  0  0  0
   22.3544  -22.0432  -11.5911 O   0  0  0  0  0  0  0  0  0  0  0  0
  2  1  1  6
  2  3  1  0
  4  3  1  0
  4  5  1  0
  6  5  1  0
  7  6  1  0
  8  2  1  0
  9  8  2  0
 10  8  1  0
 11 12  1  1
 11 10  1  0
 12 13  1  0
 13 21  1  0
 14 13  2  0
 14 15  1  0
 15 16  1  0
 16 17  1  0
 17 18  2  0
 19 18  1  0
 20 19  2  0
 21 16  2  0
 21 20  1  0
 22 23  2  0
 22 11  1  0
 24 22  1  0
 25 24  1  0
 25 26  1  6
 27 28  2  0
 27 26  1  0
 29 28  1  0
 30 35  2  0
 30 29  1  0
 31 30  1  0
 32 33  1  0
 32 31  2  0
 33 34  2  0
 34 35  1  0
 35 27  1  0
 36 37  1  0
 36 25  1  0
 38 36  2  0
M  END
$$$$
