KWW.pdb
     RDKit          3D

 38 41  0  0  1  0  0  0  0  0999 V2000
   28.7958  -22.1890  -18.2613 N   0  0  0  0  0  0  0  0  0  0  0  0
   29.0841  -22.7390  -16.9928 C   0  0  1  0  0  0  0  0  0  0  0  0
   30.4520  -23.3273  -16.8024 C   0  0  0  0  0  0  0  0  0  0  0  0
   30.7551  -24.4291  -17.7301 C   0  0  0  0  0  0  0  0  0  0  0  0
   32.1356  -24.9682  -17.5653 C   0  0  0  0  0  0  0  0  0  0  0  0
   32.3799  -26.0626  -18.5702 C   0  0  0  0  0  0  0  0  0  0  0  0
   33.7723  -26.5094  -18.5131 N   0  0  0  0  0  0  0  0  0  0  0  0
   28.6639  -21.9192  -15.8238 C   0  0  0  0  0  0  0  0  0  0  0  0
   29.5422  -21.7182  -14.9340 O   0  0  0  0  0  0  0  0  0  0  0  0
   27.3993  -21.3582  -15.6202 N   0  0  0  0  0  0  0  0  0  0  0  0
   27.0897  -20.4710  -14.4893 C   0  0  1  0  0  0  0  0  0  0  0  0
   26.4504  -19.2476  -15.0242 C   0  0  0  0  0  0  0  0  0  0  0  0
   27.3244  -18.3732  -15.7968 C   0  0  0  0  0  0  0  0  0  0  0  0
   28.2437  -18.7752  -16.7401 C   0  0  0  0  0  0  0  0  0  0  0  0
   28.8446  -17.6715  -17.2328 N   0  0  0  0  0  0  0  0  0  0  0  0
   28.3635  -16.5637  -16.6578 C   0  0  0  0  0  0  0  0  0  0  0  0
   28.6671  -15.2346  -16.8342 C   0  0  0  0  0  0  0  0  0  0  0  0
   28.0067  -14.2814  -16.0930 C   0  0  0  0  0  0  0  0  0  0  0  0
   27.0436  -14.6726  -15.1780 C   0  0  0  0  0  0  0  0  0  0  0  0
   26.7554  -16.0182  -15.0186 C   0  0  0  0  0  0  0  0  0  0  0  0
   27.3979  -17.0024  -15.7450 C   0  0  0  0  0  0  0  0  0  0  0  0
   26.3122  -21.2024  -13.4589 C   0  0  0  0  0  0  0  0  0  0  0  0
   25.3576  -21.9177  -13.8506 O   0  0  0  0  0  0  0  0  0  0  0  0
   26.5806  -21.1384  -12.0823 N   0  0  0  0  0  0  0  0  0  0  0  0
   25.6813  -21.8180  -11.1222 C   0  0  1  0  0  0  0  0  0  0  0  0
   26.4028  -22.1222   -9.8707 C   0  0  0  0  0  0  0  0  0  0  0  0
   26.6337  -20.9272   -9.0332 C   0  0  0  0  0  0  0  0  0  0  0  0
   25.8373  -19.7900   -8.9532 C   0  0  0  0  0  0  0  0  0  0  0  0
   26.4150  -18.9222   -8.1193 N   0  0  0  0  0  0  0  0  0  0  0  0
   27.5661  -19.4361   -7.6382 C   0  0  0  0  0  0  0  0  0  0  0  0
   28.4912  -18.9249   -6.7445 C   0  0  0  0  0  0  0  0  0  0  0  0
   29.5972  -19.6606   -6.3865 C   0  0  0  0  0  0  0  0  0  0  0  0
   29.7653  -20.9137   -6.9339 C   0  0  0  0  0  0  0  0  0  0  0  0
   28.8377  -21.4106   -7.8227 C   0  0  0  0  0  0  0  0  0  0  0  0
   27.7085  -20.6810   -8.2010 C   0  0  0  0  0  0  0  0  0  0  0  0
   24.4828  -21.0004  -10.9363 C   0  0  0  0  0  0  0  0  0  0  0  0
   23.3063  -21.4604  -10.3693 O   0  0  0  0  0  0  0  0  0  0  0  0
   24.4903  -19.8036  -11.3105 O   0  0  0  0  0  0  0  0  0  0  0  0
  2  1  1  6
  2  3  1  0
  4  3  1  0
  4  5  1  0
  6  5  1  0
  7  6  1  0
  8  2  1  0
  9  8  2  0
 10  8  1  0
 11 12  1  6
 11 10  1  0
 12 13  1  0
 13 21  1  0
 14 13  2  0
 14 15  1  0
 15 16  1  0
 16 17  1  0
 17 18  2  0
 19 18  1  0
 20 19  2  0
 21 16  2  0
 21 20  1  0
 22 23  2  0
 22 11  1  0
 24 22  1  0
 25 24  1  0
 25 26  1  1
 27 28  2  0
 27 26  1  0
 29 28  1  0
 30 35  2  0
 30 29  1  0
 31 30  1  0
 32 33  1  0
 32 31  2  0
 33 34  2  0
 34 35  1  0
 35 27  1  0
 36 37  1  0
 36 25  1  0
 38 36  2  0
M  END
$$$$
