KWW.pdb
     RDKit          3D

 38 41  0  0  1  0  0  0  0  0999 V2000
   28.9375  -22.3499  -15.6468 N   0  0  0  0  0  0  0  0  0  0  0  0
   28.3690  -21.2262  -15.0073 C   0  0  1  0  0  0  0  0  0  0  0  0
   27.5002  -20.3346  -15.8461 C   0  0  0  0  0  0  0  0  0  0  0  0
   28.2066  -19.7220  -16.9829 C   0  0  0  0  0  0  0  0  0  0  0  0
   29.4080  -18.9406  -16.5713 C   0  0  0  0  0  0  0  0  0  0  0  0
   29.5707  -17.7430  -17.4693 C   0  0  0  0  0  0  0  0  0  0  0  0
   29.7194  -18.1639  -18.8631 N   0  0  0  0  0  0  0  0  0  0  0  0
   27.7751  -21.4793  -13.6662 C   0  0  0  0  0  0  0  0  0  0  0  0
   26.7789  -22.2603  -13.6315 O   0  0  0  0  0  0  0  0  0  0  0  0
   28.2120  -20.9368  -12.4537 N   0  0  0  0  0  0  0  0  0  0  0  0
   27.4159  -20.9922  -11.2188 C   0  0  1  0  0  0  0  0  0  0  0  0
   28.2497  -20.4781  -10.1089 C   0  0  0  0  0  0  0  0  0  0  0  0
   27.5580  -20.3026   -8.8377 C   0  0  0  0  0  0  0  0  0  0  0  0
   26.2232  -20.0040   -8.6764 C   0  0  0  0  0  0  0  0  0  0  0  0
   25.9695  -19.9329   -7.3525 N   0  0  0  0  0  0  0  0  0  0  0  0
   27.0742  -20.1706   -6.6368 C   0  0  0  0  0  0  0  0  0  0  0  0
   27.2973  -20.2033   -5.2807 C   0  0  0  0  0  0  0  0  0  0  0  0
   28.5595  -20.4763   -4.8049 C   0  0  0  0  0  0  0  0  0  0  0  0
   29.5903  -20.7152   -5.6984 C   0  0  0  0  0  0  0  0  0  0  0  0
   29.3402  -20.6769   -7.0604 C   0  0  0  0  0  0  0  0  0  0  0  0
   28.0864  -20.4060   -7.5739 C   0  0  0  0  0  0  0  0  0  0  0  0
   26.1146  -20.3068  -11.4137 C   0  0  0  0  0  0  0  0  0  0  0  0
   26.1337  -19.1563  -11.9159 O   0  0  0  0  0  0  0  0  0  0  0  0
   24.8741  -20.8670  -11.0693 N   0  0  0  0  0  0  0  0  0  0  0  0
   23.6238  -20.1307  -11.3642 C   0  0  1  0  0  0  0  0  0  0  0  0
   23.2611  -20.2853  -12.7868 C   0  0  0  0  0  0  0  0  0  0  0  0
   22.7317  -21.6276  -13.1044 C   0  0  0  0  0  0  0  0  0  0  0  0
   21.5412  -22.1894  -12.6561 C   0  0  0  0  0  0  0  0  0  0  0  0
   21.4510  -23.4337  -13.1314 N   0  0  0  0  0  0  0  0  0  0  0  0
   22.5347  -23.7245  -13.8807 C   0  0  0  0  0  0  0  0  0  0  0  0
   22.8795  -24.8662  -14.5833 C   0  0  0  0  0  0  0  0  0  0  0  0
   24.0509  -24.9165  -15.3031 C   0  0  0  0  0  0  0  0  0  0  0  0
   24.8720  -23.8102  -15.3109 C   0  0  0  0  0  0  0  0  0  0  0  0
   24.5178  -22.6805  -14.6070 C   0  0  0  0  0  0  0  0  0  0  0  0
   23.3343  -22.6077  -13.8689 C   0  0  0  0  0  0  0  0  0  0  0  0
   22.5852  -20.5696  -10.4326 C   0  0  0  0  0  0  0  0  0  0  0  0
   21.3440  -19.9684  -10.3102 O   0  0  0  0  0  0  0  0  0  0  0  0
   22.8074  -21.5472   -9.6793 O   0  0  0  0  0  0  0  0  0  0  0  0
  2  1  1  6
  2  3  1  0
  4  3  1  0
  4  5  1  0
  6  5  1  0
  7  6  1  0
  8  2  1  0
  9  8  2  0
 10  8  1  0
 11 12  1  1
 11 10  1  0
 12 13  1  0
 13 21  1  0
 14 13  2  0
 14 15  1  0
 15 16  1  0
 16 17  1  0
 17 18  2  0
 19 18  1  0
 20 19  2  0
 21 16  2  0
 21 20  1  0
 22 23  2  0
 22 11  1  0
 24 22  1  0
 25 24  1  0
 25 26  1  6
 27 28  2  0
 27 26  1  0
 29 28  1  0
 30 35  2  0
 30 29  1  0
 31 30  1  0
 32 33  1  0
 32 31  2  0
 33 34  2  0
 34 35  1  0
 35 27  1  0
 36 37  1  0
 36 25  1  0
 38 36  2  0
M  END
$$$$
