KWW.pdb
     RDKit          3D

 38 41  0  0  1  0  0  0  0  0999 V2000
   28.3910  -21.2702  -14.9515 N   0  0  0  0  0  0  0  0  0  0  0  0
   28.1313  -20.4283  -13.8476 C   0  0  1  0  0  0  0  0  0  0  0  0
   27.6751  -19.0308  -14.1516 C   0  0  0  0  0  0  0  0  0  0  0  0
   28.4347  -18.3842  -15.2340 C   0  0  0  0  0  0  0  0  0  0  0  0
   27.6282  -18.1789  -16.4713 C   0  0  0  0  0  0  0  0  0  0  0  0
   28.4262  -17.3911  -17.4762 C   0  0  0  0  0  0  0  0  0  0  0  0
   27.6467  -17.1781  -18.6963 N   0  0  0  0  0  0  0  0  0  0  0  0
   27.3477  -21.0403  -12.7400 C   0  0  0  0  0  0  0  0  0  0  0  0
   26.3810  -21.7841  -13.0803 O   0  0  0  0  0  0  0  0  0  0  0  0
   27.5788  -20.8686  -11.3717 N   0  0  0  0  0  0  0  0  0  0  0  0
   26.6844  -21.4049  -10.3352 C   0  0  1  0  0  0  0  0  0  0  0  0
   27.4931  -21.6831   -9.1268 C   0  0  0  0  0  0  0  0  0  0  0  0
   27.6417  -20.5645   -8.2039 C   0  0  0  0  0  0  0  0  0  0  0  0
   26.9955  -19.3514   -8.2908 C   0  0  0  0  0  0  0  0  0  0  0  0
   27.3941  -18.5917   -7.2486 N   0  0  0  0  0  0  0  0  0  0  0  0
   28.2714  -19.2483   -6.4815 C   0  0  0  0  0  0  0  0  0  0  0  0
   28.9382  -18.8841   -5.3358 C   0  0  0  0  0  0  0  0  0  0  0  0
   29.8041  -19.7730   -4.7406 C   0  0  0  0  0  0  0  0  0  0  0  0
   29.9933  -21.0243   -5.3030 C   0  0  0  0  0  0  0  0  0  0  0  0
   29.3095  -21.3677   -6.4579 C   0  0  0  0  0  0  0  0  0  0  0  0
   28.4329  -20.5015   -7.0826 C   0  0  0  0  0  0  0  0  0  0  0  0
   25.5254  -20.5003  -10.1366 C   0  0  0  0  0  0  0  0  0  0  0  0
   25.7554  -19.2679  -10.0692 O   0  0  0  0  0  0  0  0  0  0  0  0
   24.1977  -20.9416  -10.0191 N   0  0  0  0  0  0  0  0  0  0  0  0
   23.1505  -20.3750  -10.8992 C   0  0  1  0  0  0  0  0  0  0  0  0
   23.5608  -20.4738  -12.3138 C   0  0  0  0  0  0  0  0  0  0  0  0
   22.5511  -19.9320  -13.2464 C   0  0  0  0  0  0  0  0  0  0  0  0
   22.1608  -18.6043  -13.3842 C   0  0  0  0  0  0  0  0  0  0  0  0
   21.1922  -18.5372  -14.3005 N   0  0  0  0  0  0  0  0  0  0  0  0
   20.9210  -19.7686  -14.7809 C   0  0  0  0  0  0  0  0  0  0  0  0
   20.0213  -20.1962  -15.7418 C   0  0  0  0  0  0  0  0  0  0  0  0
   19.9415  -21.5270  -16.0813 C   0  0  0  0  0  0  0  0  0  0  0  0
   20.7733  -22.4238  -15.4473 C   0  0  0  0  0  0  0  0  0  0  0  0
   21.6638  -21.9855  -14.4922 C   0  0  0  0  0  0  0  0  0  0  0  0
   21.7610  -20.6398  -14.1313 C   0  0  0  0  0  0  0  0  0  0  0  0
   21.8766  -21.0287  -10.6004 C   0  0  0  0  0  0  0  0  0  0  0  0
   21.7035  -22.4005  -10.5272 O   0  0  0  0  0  0  0  0  0  0  0  0
   20.8571  -20.3269  -10.3992 O   0  0  0  0  0  0  0  0  0  0  0  0
  2  1  1  6
  2  3  1  0
  4  3  1  0
  4  5  1  0
  6  5  1  0
  7  6  1  0
  8  2  1  0
  9  8  2  0
 10  8  1  0
 11 12  1  1
 11 10  1  0
 12 13  1  0
 13 21  1  0
 14 13  2  0
 14 15  1  0
 15 16  1  0
 16 17  1  0
 17 18  2  0
 19 18  1  0
 20 19  2  0
 21 16  2  0
 21 20  1  0
 22 23  2  0
 22 11  1  0
 24 22  1  0
 25 24  1  0
 25 26  1  6
 27 28  2  0
 27 26  1  0
 29 28  1  0
 30 35  2  0
 30 29  1  0
 31 30  1  0
 32 33  1  0
 32 31  2  0
 33 34  2  0
 34 35  1  0
 35 27  1  0
 36 37  1  0
 36 25  1  0
 38 36  2  0
M  END
$$$$
