KWW.pdb
     RDKit          3D

 38 41  0  0  1  0  0  0  0  0999 V2000
   29.2715  -24.1589  -17.5703 N   0  0  0  0  0  0  0  0  0  0  0  0
   30.1438  -23.0816  -17.2994 C   0  0  1  0  0  0  0  0  0  0  0  0
   30.9395  -22.5450  -18.4536 C   0  0  0  0  0  0  0  0  0  0  0  0
   31.9464  -23.4887  -18.9658 C   0  0  0  0  0  0  0  0  0  0  0  0
   31.4493  -24.3110  -20.1061 C   0  0  0  0  0  0  0  0  0  0  0  0
   32.5027  -25.3057  -20.5158 C   0  0  0  0  0  0  0  0  0  0  0  0
   32.0163  -26.1454  -21.6113 N   0  0  0  0  0  0  0  0  0  0  0  0
   29.5797  -21.9909  -16.4582 C   0  0  0  0  0  0  0  0  0  0  0  0
   30.3849  -21.0788  -16.1073 O   0  0  0  0  0  0  0  0  0  0  0  0
   28.2550  -21.8844  -16.0231 N   0  0  0  0  0  0  0  0  0  0  0  0
   27.7812  -20.7922  -15.1604 C   0  0  1  0  0  0  0  0  0  0  0  0
   27.0464  -19.8231  -16.0045 C   0  0  0  0  0  0  0  0  0  0  0  0
   26.3343  -18.7778  -15.2797 C   0  0  0  0  0  0  0  0  0  0  0  0
   26.9094  -17.7821  -14.5216 C   0  0  0  0  0  0  0  0  0  0  0  0
   25.9182  -17.0130  -14.0234 N   0  0  0  0  0  0  0  0  0  0  0  0
   24.7196  -17.4564  -14.4182 C   0  0  0  0  0  0  0  0  0  0  0  0
   23.4467  -17.0035  -14.1644 C   0  0  0  0  0  0  0  0  0  0  0  0
   22.3683  -17.6645  -14.7071 C   0  0  0  0  0  0  0  0  0  0  0  0
   22.5785  -18.7783  -15.5028 C   0  0  0  0  0  0  0  0  0  0  0  0
   23.8708  -19.2150  -15.7439 C   0  0  0  0  0  0  0  0  0  0  0  0
   24.9768  -18.5768  -15.2161 C   0  0  0  0  0  0  0  0  0  0  0  0
   27.0260  -21.3384  -14.0060 C   0  0  0  0  0  0  0  0  0  0  0  0
   26.3019  -22.3438  -14.2090 O   0  0  0  0  0  0  0  0  0  0  0  0
   27.0740  -20.7976  -12.7112 N   0  0  0  0  0  0  0  0  0  0  0  0
   26.3065  -21.4337  -11.6163 C   0  0  1  0  0  0  0  0  0  0  0  0
   27.2085  -21.8141  -10.5114 C   0  0  0  0  0  0  0  0  0  0  0  0
   27.2409  -20.8151   -9.4234 C   0  0  0  0  0  0  0  0  0  0  0  0
   26.3405  -19.7773   -9.2080 C   0  0  0  0  0  0  0  0  0  0  0  0
   26.7463  -19.0733   -8.1488 N   0  0  0  0  0  0  0  0  0  0  0  0
   27.8824  -19.6012   -7.6475 C   0  0  0  0  0  0  0  0  0  0  0  0
   28.6583  -19.2345   -6.5616 C   0  0  0  0  0  0  0  0  0  0  0  0
   29.7827  -19.9550   -6.2312 C   0  0  0  0  0  0  0  0  0  0  0  0
   30.1204  -21.0466   -7.0009 C   0  0  0  0  0  0  0  0  0  0  0  0
   29.3402  -21.4007   -8.0795 C   0  0  0  0  0  0  0  0  0  0  0  0
   28.1954  -20.6833   -8.4336 C   0  0  0  0  0  0  0  0  0  0  0  0
   25.2199  -20.5390  -11.2184 C   0  0  0  0  0  0  0  0  0  0  0  0
   24.1268  -20.9291  -10.4634 O   0  0  0  0  0  0  0  0  0  0  0  0
   25.2507  -19.3371  -11.5747 O   0  0  0  0  0  0  0  0  0  0  0  0
  2  1  1  6
  2  3  1  0
  4  3  1  0
  4  5  1  0
  6  5  1  0
  7  6  1  0
  8  2  1  0
  9  8  2  0
 10  8  1  0
 11 12  1  6
 11 10  1  0
 12 13  1  0
 13 21  1  0
 14 13  2  0
 14 15  1  0
 15 16  1  0
 16 17  1  0
 17 18  2  0
 19 18  1  0
 20 19  2  0
 21 16  2  0
 21 20  1  0
 22 23  2  0
 22 11  1  0
 24 22  1  0
 25 24  1  0
 25 26  1  1
 27 28  2  0
 27 26  1  0
 29 28  1  0
 30 35  2  0
 30 29  1  0
 31 30  1  0
 32 33  1  0
 32 31  2  0
 33 34  2  0
 34 35  1  0
 35 27  1  0
 36 37  1  0
 36 25  1  0
 38 36  2  0
M  END
$$$$
