KWW.pdb
     RDKit          3D

 38 41  0  0  1  0  0  0  0  0999 V2000
   30.2357  -23.1560  -18.7146 N   0  0  0  0  0  0  0  0  0  0  0  0
   29.8811  -23.4368  -17.3767 C   0  0  1  0  0  0  0  0  0  0  0  0
   30.9892  -23.8520  -16.4530 C   0  0  0  0  0  0  0  0  0  0  0  0
   31.8508  -24.9109  -17.0034 C   0  0  0  0  0  0  0  0  0  0  0  0
   33.0322  -25.2082  -16.1435 C   0  0  0  0  0  0  0  0  0  0  0  0
   33.9590  -26.1553  -16.8586 C   0  0  0  0  0  0  0  0  0  0  0  0
   35.1765  -26.3701  -16.0754 N   0  0  0  0  0  0  0  0  0  0  0  0
   28.9593  -22.4600  -16.7352 C   0  0  0  0  0  0  0  0  0  0  0  0
   29.4332  -21.3086  -16.5045 O   0  0  0  0  0  0  0  0  0  0  0  0
   27.6314  -22.6968  -16.3662 N   0  0  0  0  0  0  0  0  0  0  0  0
   26.7805  -21.6752  -15.7386 C   0  0  1  0  0  0  0  0  0  0  0  0
   25.5889  -21.4778  -16.5945 C   0  0  0  0  0  0  0  0  0  0  0  0
   24.6118  -20.5192  -16.0931 C   0  0  0  0  0  0  0  0  0  0  0  0
   24.7703  -19.1520  -16.0434 C   0  0  0  0  0  0  0  0  0  0  0  0
   23.6435  -18.6209  -15.5234 N   0  0  0  0  0  0  0  0  0  0  0  0
   22.7527  -19.5743  -15.2292 C   0  0  0  0  0  0  0  0  0  0  0  0
   21.4897  -19.5124  -14.6897 C   0  0  0  0  0  0  0  0  0  0  0  0
   20.7789  -20.6732  -14.4865 C   0  0  0  0  0  0  0  0  0  0  0  0
   21.3444  -21.8903  -14.8283 C   0  0  0  0  0  0  0  0  0  0  0  0
   22.6186  -21.9264  -15.3706 C   0  0  0  0  0  0  0  0  0  0  0  0
   23.3614  -20.7819  -15.5885 C   0  0  0  0  0  0  0  0  0  0  0  0
   26.5028  -22.0331  -14.3258 C   0  0  0  0  0  0  0  0  0  0  0  0
   26.8336  -23.1819  -13.9420 O   0  0  0  0  0  0  0  0  0  0  0  0
   25.8946  -21.1676  -13.4028 N   0  0  0  0  0  0  0  0  0  0  0  0
   25.7527  -21.5786  -11.9875 C   0  0  1  0  0  0  0  0  0  0  0  0
   27.0231  -21.3736  -11.2641 C   0  0  0  0  0  0  0  0  0  0  0  0
   26.8297  -20.8531   -9.8950 C   0  0  0  0  0  0  0  0  0  0  0  0
   25.6221  -20.6474   -9.2367 C   0  0  0  0  0  0  0  0  0  0  0  0
   25.8749  -20.1231   -8.0352 N   0  0  0  0  0  0  0  0  0  0  0  0
   27.2048  -19.9714   -7.8651 C   0  0  0  0  0  0  0  0  0  0  0  0
   27.9396  -19.4910   -6.7950 C   0  0  0  0  0  0  0  0  0  0  0  0
   29.3136  -19.4523   -6.8522 C   0  0  0  0  0  0  0  0  0  0  0  0
   29.9424  -19.9004   -7.9932 C   0  0  0  0  0  0  0  0  0  0  0  0
   29.1996  -20.3753   -9.0515 C   0  0  0  0  0  0  0  0  0  0  0  0
   27.8042  -20.4228   -9.0156 C   0  0  0  0  0  0  0  0  0  0  0  0
   24.6124  -20.8741  -11.4021 C   0  0  0  0  0  0  0  0  0  0  0  0
   24.1602  -19.6362  -11.8267 O   0  0  0  0  0  0  0  0  0  0  0  0
   23.9887  -21.3982  -10.4488 O   0  0  0  0  0  0  0  0  0  0  0  0
  2  1  1  6
  2  3  1  0
  4  3  1  0
  4  5  1  0
  6  5  1  0
  7  6  1  0
  8  2  1  0
  9  8  2  0
 10  8  1  0
 11 12  1  6
 11 10  1  0
 12 13  1  0
 13 21  1  0
 14 13  2  0
 14 15  1  0
 15 16  1  0
 16 17  1  0
 17 18  2  0
 19 18  1  0
 20 19  2  0
 21 16  2  0
 21 20  1  0
 22 23  2  0
 22 11  1  0
 24 22  1  0
 25 24  1  0
 25 26  1  1
 27 28  2  0
 27 26  1  0
 29 28  1  0
 30 35  2  0
 30 29  1  0
 31 30  1  0
 32 33  1  0
 32 31  2  0
 33 34  2  0
 34 35  1  0
 35 27  1  0
 36 37  1  0
 36 25  1  0
 38 36  2  0
M  END
$$$$
