KWW.pdb
     RDKit          3D

 38 41  0  0  1  0  0  0  0  0999 V2000
   26.9213  -20.1024  -16.6488 N   0  0  0  0  0  0  0  0  0  0  0  0
   27.2636  -20.5777  -15.3636 C   0  0  1  0  0  0  0  0  0  0  0  0
   28.6744  -20.3447  -14.9067 C   0  0  0  0  0  0  0  0  0  0  0  0
   29.6842  -21.0100  -15.7460 C   0  0  0  0  0  0  0  0  0  0  0  0
   29.8890  -22.4429  -15.3879 C   0  0  0  0  0  0  0  0  0  0  0  0
   30.9887  -23.0285  -16.2333 C   0  0  0  0  0  0  0  0  0  0  0  0
   31.3429  -24.3668  -15.7585 N   0  0  0  0  0  0  0  0  0  0  0  0
   26.2763  -20.2933  -14.2867 C   0  0  0  0  0  0  0  0  0  0  0  0
   25.9375  -19.0818  -14.1412 O   0  0  0  0  0  0  0  0  0  0  0  0
   25.6963  -21.2328  -13.4287 N   0  0  0  0  0  0  0  0  0  0  0  0
   24.7449  -20.8688  -12.3685 C   0  0  1  0  0  0  0  0  0  0  0  0
   23.4264  -21.4466  -12.7135 C   0  0  0  0  0  0  0  0  0  0  0  0
   22.5459  -20.5770  -13.4839 C   0  0  0  0  0  0  0  0  0  0  0  0
   22.4528  -20.5301  -14.8572 C   0  0  0  0  0  0  0  0  0  0  0  0
   21.5232  -19.6063  -15.1803 N   0  0  0  0  0  0  0  0  0  0  0  0
   21.0013  -19.0442  -14.0844 C   0  0  0  0  0  0  0  0  0  0  0  0
   20.0429  -18.0722  -13.9217 C   0  0  0  0  0  0  0  0  0  0  0  0
   19.6894  -17.6704  -12.6537 C   0  0  0  0  0  0  0  0  0  0  0  0
   20.3036  -18.2504  -11.5563 C   0  0  0  0  0  0  0  0  0  0  0  0
   21.2665  -19.2281  -11.7464 C   0  0  0  0  0  0  0  0  0  0  0  0
   21.6465  -19.6561  -13.0040 C   0  0  0  0  0  0  0  0  0  0  0  0
   25.2839  -21.2498  -11.0397 C   0  0  0  0  0  0  0  0  0  0  0  0
   25.7188  -22.4197  -10.9031 O   0  0  0  0  0  0  0  0  0  0  0  0
   25.3327  -20.3837   -9.9358 N   0  0  0  0  0  0  0  0  0  0  0  0
   25.7761  -20.8917   -8.6176 C   0  0  1  0  0  0  0  0  0  0  0  0
   26.5019  -19.8388   -7.8800 C   0  0  0  0  0  0  0  0  0  0  0  0
   27.9057  -20.1991   -7.5929 C   0  0  0  0  0  0  0  0  0  0  0  0
   28.7914  -20.8652   -8.4331 C   0  0  0  0  0  0  0  0  0  0  0  0
   29.9457  -21.0384   -7.7852 N   0  0  0  0  0  0  0  0  0  0  0  0
   29.8659  -20.5129   -6.5450 C   0  0  0  0  0  0  0  0  0  0  0  0
   30.7974  -20.4356   -5.5242 C   0  0  0  0  0  0  0  0  0  0  0  0
   30.4809  -19.8216   -4.3345 C   0  0  0  0  0  0  0  0  0  0  0  0
   29.2210  -19.2859   -4.1797 C   0  0  0  0  0  0  0  0  0  0  0  0
   28.3028  -19.3701   -5.2030 C   0  0  0  0  0  0  0  0  0  0  0  0
   28.6021  -19.9897   -6.4184 C   0  0  0  0  0  0  0  0  0  0  0  0
   24.6184  -21.4300   -7.9040 C   0  0  0  0  0  0  0  0  0  0  0  0
   24.7011  -22.2903   -6.8223 O   0  0  0  0  0  0  0  0  0  0  0  0
   23.4638  -21.1142   -8.2777 O   0  0  0  0  0  0  0  0  0  0  0  0
  2  1  1  6
  2  3  1  0
  4  3  1  0
  4  5  1  0
  6  5  1  0
  7  6  1  0
  8  2  1  0
  9  8  2  0
 10  8  1  0
 11 12  1  6
 11 10  1  0
 12 13  1  0
 13 21  1  0
 14 13  2  0
 14 15  1  0
 15 16  1  0
 16 17  1  0
 17 18  2  0
 19 18  1  0
 20 19  2  0
 21 16  2  0
 21 20  1  0
 22 23  2  0
 22 11  1  0
 24 22  1  0
 25 24  1  0
 25 26  1  1
 27 28  2  0
 27 26  1  0
 29 28  1  0
 30 35  2  0
 30 29  1  0
 31 30  1  0
 32 33  1  0
 32 31  2  0
 33 34  2  0
 34 35  1  0
 35 27  1  0
 36 37  1  0
 36 25  1  0
 38 36  2  0
M  END
$$$$
