KWW.pdb
     RDKit          3D

 38 41  0  0  1  0  0  0  0  0999 V2000
   31.9574  -24.9539  -20.4162 N   0  0  0  0  0  0  0  0  0  0  0  0
   32.0120  -24.4721  -19.0897 C   0  0  1  0  0  0  0  0  0  0  0  0
   33.3419  -23.9757  -18.6014 C   0  0  0  0  0  0  0  0  0  0  0  0
   34.4391  -24.9372  -18.7976 C   0  0  0  0  0  0  0  0  0  0  0  0
   34.7112  -25.7673  -17.5891 C   0  0  0  0  0  0  0  0  0  0  0  0
   35.8843  -26.6753  -17.8468 C   0  0  0  0  0  0  0  0  0  0  0  0
   36.0792  -27.5923  -16.7230 N   0  0  0  0  0  0  0  0  0  0  0  0
   30.8992  -23.5704  -18.6847 C   0  0  0  0  0  0  0  0  0  0  0  0
   31.0975  -22.3293  -18.8395 O   0  0  0  0  0  0  0  0  0  0  0  0
   29.6680  -23.9655  -18.1525 N   0  0  0  0  0  0  0  0  0  0  0  0
   28.5521  -23.0324  -17.9380 C   0  0  1  0  0  0  0  0  0  0  0  0
   28.3661  -22.2432  -19.1766 C   0  0  0  0  0  0  0  0  0  0  0  0
   27.2479  -21.3081  -19.1591 C   0  0  0  0  0  0  0  0  0  0  0  0
   27.0055  -20.3533  -18.1966 C   0  0  0  0  0  0  0  0  0  0  0  0
   25.8832  -19.6883  -18.5431 N   0  0  0  0  0  0  0  0  0  0  0  0
   25.3770  -20.1609  -19.6875 C   0  0  0  0  0  0  0  0  0  0  0  0
   24.2654  -19.8042  -20.4135 C   0  0  0  0  0  0  0  0  0  0  0  0
   23.9704  -20.4734  -21.5794 C   0  0  0  0  0  0  0  0  0  0  0  0
   24.7973  -21.4983  -22.0077 C   0  0  0  0  0  0  0  0  0  0  0  0
   25.9118  -21.8390  -21.2587 C   0  0  0  0  0  0  0  0  0  0  0  0
   26.2389  -21.1896  -20.0837 C   0  0  0  0  0  0  0  0  0  0  0  0
   27.3540  -23.7641  -17.4581 C   0  0  0  0  0  0  0  0  0  0  0  0
   26.9562  -24.7389  -18.1419 O   0  0  0  0  0  0  0  0  0  0  0  0
   26.6452  -23.4291  -16.2933 N   0  0  0  0  0  0  0  0  0  0  0  0
   25.4252  -24.1844  -15.9283 C   0  0  1  0  0  0  0  0  0  0  0  0
   24.8876  -23.6996  -14.6417 C   0  0  0  0  0  0  0  0  0  0  0  0
   23.6316  -24.3724  -14.2512 C   0  0  0  0  0  0  0  0  0  0  0  0
   23.5003  -25.5769  -13.5685 C   0  0  0  0  0  0  0  0  0  0  0  0
   22.2012  -25.8616  -13.4516 N   0  0  0  0  0  0  0  0  0  0  0  0
   21.4596  -24.8935  -14.0288 C   0  0  0  0  0  0  0  0  0  0  0  0
   20.0889  -24.7404  -14.1456 C   0  0  0  0  0  0  0  0  0  0  0  0
   19.5602  -23.6359  -14.7727 C   0  0  0  0  0  0  0  0  0  0  0  0
   20.4202  -22.6872  -15.2810 C   0  0  0  0  0  0  0  0  0  0  0  0
   21.7823  -22.8517  -15.1589 C   0  0  0  0  0  0  0  0  0  0  0  0
   22.3408  -23.9652  -14.5273 C   0  0  0  0  0  0  0  0  0  0  0  0
   24.4743  -24.1121  -17.0374 C   0  0  0  0  0  0  0  0  0  0  0  0
   23.7492  -25.1914  -17.5132 O   0  0  0  0  0  0  0  0  0  0  0  0
   24.2879  -23.0163  -17.6177 O   0  0  0  0  0  0  0  0  0  0  0  0
  2  1  1  6
  2  3  1  0
  4  3  1  0
  4  5  1  0
  6  5  1  0
  7  6  1  0
  8  2  1  0
  9  8  2  0
 10  8  1  0
 11 12  1  6
 11 10  1  0
 12 13  1  0
 13 21  1  0
 14 13  2  0
 14 15  1  0
 15 16  1  0
 16 17  1  0
 17 18  2  0
 19 18  1  0
 20 19  2  0
 21 16  2  0
 21 20  1  0
 22 23  2  0
 22 11  1  0
 24 22  1  0
 25 24  1  0
 25 26  1  1
 27 28  2  0
 27 26  1  0
 29 28  1  0
 30 35  2  0
 30 29  1  0
 31 30  1  0
 32 33  1  0
 32 31  2  0
 33 34  2  0
 34 35  1  0
 35 27  1  0
 36 37  1  0
 36 25  1  0
 38 36  2  0
M  END
$$$$
