KWW.pdb
     RDKit          3D

 38 41  0  0  1  0  0  0  0  0999 V2000
   24.4356  -18.2662  -16.5394 N   0  0  0  0  0  0  0  0  0  0  0  0
   23.9869  -18.5668  -15.2344 C   0  0  1  0  0  0  0  0  0  0  0  0
   22.5308  -18.8956  -15.0756 C   0  0  0  0  0  0  0  0  0  0  0  0
   21.6442  -17.7281  -15.2079 C   0  0  0  0  0  0  0  0  0  0  0  0
   21.0342  -17.6087  -16.5634 C   0  0  0  0  0  0  0  0  0  0  0  0
   20.1856  -16.3670  -16.6341 C   0  0  0  0  0  0  0  0  0  0  0  0
   19.5253  -16.2709  -17.9366 N   0  0  0  0  0  0  0  0  0  0  0  0
   24.8537  -19.4888  -14.4508 C   0  0  0  0  0  0  0  0  0  0  0  0
   24.4413  -20.6799  -14.3295 O   0  0  0  0  0  0  0  0  0  0  0  0
   26.0688  -19.1616  -13.8411 N   0  0  0  0  0  0  0  0  0  0  0  0
   26.8766  -20.1355  -13.0923 C   0  0  1  0  0  0  0  0  0  0  0  0
   28.3013  -19.9017  -13.4192 C   0  0  0  0  0  0  0  0  0  0  0  0
   29.2290  -20.9129  -12.9272 C   0  0  0  0  0  0  0  0  0  0  0  0
   29.4500  -22.1509  -13.4887 C   0  0  0  0  0  0  0  0  0  0  0  0
   30.3830  -22.7841  -12.7466 N   0  0  0  0  0  0  0  0  0  0  0  0
   30.7852  -22.0207  -11.7245 C   0  0  0  0  0  0  0  0  0  0  0  0
   31.6999  -22.2404  -10.7220 C   0  0  0  0  0  0  0  0  0  0  0  0
   31.9221  -21.2642   -9.7776 C   0  0  0  0  0  0  0  0  0  0  0  0
   31.2216  -20.0717   -9.8486 C   0  0  0  0  0  0  0  0  0  0  0  0
   30.3052  -19.8742  -10.8686 C   0  0  0  0  0  0  0  0  0  0  0  0
   30.0562  -20.8313  -11.8335 C   0  0  0  0  0  0  0  0  0  0  0  0
   26.5338  -20.0881  -11.6496 C   0  0  0  0  0  0  0  0  0  0  0  0
   26.5119  -18.9622  -11.0945 O   0  0  0  0  0  0  0  0  0  0  0  0
   26.2370  -21.2220  -10.8767 N   0  0  0  0  0  0  0  0  0  0  0  0
   26.3314  -21.1550   -9.4005 C   0  0  1  0  0  0  0  0  0  0  0  0
   25.9321  -19.8170   -8.9214 C   0  0  0  0  0  0  0  0  0  0  0  0
   26.8330  -19.2856   -7.8780 C   0  0  0  0  0  0  0  0  0  0  0  0
   27.2360  -17.9654   -7.7080 C   0  0  0  0  0  0  0  0  0  0  0  0
   28.0864  -17.9078   -6.6804 N   0  0  0  0  0  0  0  0  0  0  0  0
   28.2664  -19.1382   -6.1567 C   0  0  0  0  0  0  0  0  0  0  0  0
   29.0308  -19.5729   -5.0879 C   0  0  0  0  0  0  0  0  0  0  0  0
   29.0357  -20.9003   -4.7265 C   0  0  0  0  0  0  0  0  0  0  0  0
   28.2660  -21.7865   -5.4478 C   0  0  0  0  0  0  0  0  0  0  0  0
   27.5102  -21.3413   -6.5099 C   0  0  0  0  0  0  0  0  0  0  0  0
   27.4911  -19.9989   -6.8949 C   0  0  0  0  0  0  0  0  0  0  0  0
   25.5521  -22.2515   -8.8262 C   0  0  0  0  0  0  0  0  0  0  0  0
   25.9136  -22.9508   -7.6872 O   0  0  0  0  0  0  0  0  0  0  0  0
   24.4865  -22.6069   -9.3835 O   0  0  0  0  0  0  0  0  0  0  0  0
  2  1  1  6
  2  3  1  0
  4  3  1  0
  4  5  1  0
  6  5  1  0
  7  6  1  0
  8  2  1  0
  9  8  2  0
 10  8  1  0
 11 12  1  1
 11 10  1  0
 12 13  1  0
 13 21  1  0
 14 13  2  0
 14 15  1  0
 15 16  1  0
 16 17  1  0
 17 18  2  0
 19 18  1  0
 20 19  2  0
 21 16  2  0
 21 20  1  0
 22 23  2  0
 22 11  1  0
 24 22  1  0
 25 24  1  0
 25 26  1  1
 27 28  2  0
 27 26  1  0
 29 28  1  0
 30 35  2  0
 30 29  1  0
 31 30  1  0
 32 33  1  0
 32 31  2  0
 33 34  2  0
 34 35  1  0
 35 27  1  0
 36 37  1  0
 36 25  1  0
 38 36  2  0
M  END
$$$$
