EAE.pdb
     RDKit          3D

 24 23  0  0  1  0  0  0  0  0999 V2000
   11.8035  -13.5904   18.3874 N   0  0  0  0  0  0  0  0  0  0  0  0
   11.9926  -14.9612   18.7803 C   0  0  1  0  0  0  0  0  0  0  0  0
   13.4451  -15.2973   18.9462 C   0  0  0  0  0  0  0  0  0  0  0  0
   14.2434  -14.3208   19.7277 C   0  0  0  0  0  0  0  0  0  0  0  0
   15.6414  -14.7605   19.8864 C   0  0  0  0  0  0  0  0  0  0  0  0
   15.9602  -15.7615   20.5506 O   0  0  0  0  0  0  0  0  0  0  0  0
   11.2726  -15.2133   20.0725 C   0  0  0  0  0  0  0  0  0  0  0  0
   11.1665  -14.2840   20.9099 O   0  0  0  0  0  0  0  0  0  0  0  0
   16.6804  -14.0346   19.2708 O   0  0  0  0  0  0  0  0  0  0  0  0
    9.2035  -17.9625   21.4996 C   0  0  0  0  0  0  0  0  0  0  0  0
    9.9289  -16.6506   21.5453 C   0  0  2  0  0  0  0  0  0  0  0  0
   10.7205  -16.4783   20.3464 N   0  0  0  0  0  0  0  0  0  0  0  0
   10.8571  -16.6342   22.7226 C   0  0  0  0  0  0  0  0  0  0  0  0
   12.0857  -16.9021   22.5870 O   0  0  0  0  0  0  0  0  0  0  0  0
   10.3881  -16.3208   24.0100 N   0  0  0  0  0  0  0  0  0  0  0  0
   11.2466  -16.4037   25.1650 C   0  0  1  0  0  0  0  0  0  0  0  0
   10.5979  -15.7760   26.3782 C   0  0  0  0  0  0  0  0  0  0  0  0
   11.5078  -15.8053   27.5915 C   0  0  0  0  0  0  0  0  0  0  0  0
   10.7871  -15.2272   28.7405 C   0  0  0  0  0  0  0  0  0  0  0  0
   10.2172  -14.1216   28.6336 O   0  0  0  0  0  0  0  0  0  0  0  0
   11.5110  -17.8292   25.5078 C   0  0  0  0  0  0  0  0  0  0  0  0
   12.7269  -18.2634   25.9951 O   0  0  0  0  0  0  0  0  0  0  0  0
   10.7492  -15.9203   29.9338 O   0  0  0  0  0  0  0  0  0  0  0  0
   10.6034  -18.6605   25.3497 O   0  0  0  0  0  0  0  0  0  0  0  0
  2  1  1  1
  2  7  1  0
  3  2  1  0
  4  3  1  0
  4  5  1  0
  5  6  2  0
  7 12  1  0
  8  7  2  0
  9  5  1  0
 11 10  1  6
 11 13  1  0
 12 11  1  0
 13 14  2  0
 13 15  1  0
 15 16  1  0
 16 17  1  1
 16 21  1  0
 18 17  1  0
 19 18  1  0
 20 19  2  0
 21 22  1  0
 23 19  1  0
 24 21  2  0
M  END
$$$$
