EAE.pdb
     RDKit          3D

 24 23  0  0  1  0  0  0  0  0999 V2000
    8.5362  -17.3490   17.4297 N   0  0  0  0  0  0  0  0  0  0  0  0
    7.6301  -17.0420   18.5039 C   0  0  1  0  0  0  0  0  0  0  0  0
    6.9769  -18.2766   19.0510 C   0  0  0  0  0  0  0  0  0  0  0  0
    7.8876  -19.4154   19.3252 C   0  0  0  0  0  0  0  0  0  0  0  0
    7.1454  -20.6244   19.7258 C   0  0  0  0  0  0  0  0  0  0  0  0
    7.5678  -21.7739   19.5134 O   0  0  0  0  0  0  0  0  0  0  0  0
    8.3776  -16.3455   19.6029 C   0  0  0  0  0  0  0  0  0  0  0  0
    9.6120  -16.5381   19.7262 O   0  0  0  0  0  0  0  0  0  0  0  0
    5.9027  -20.5019   20.3783 O   0  0  0  0  0  0  0  0  0  0  0  0
    7.5840  -13.8372   22.2515 C   0  0  0  0  0  0  0  0  0  0  0  0
    8.4661  -14.7962   21.5087 C   0  0  2  0  0  0  0  0  0  0  0  0
    7.7043  -15.4843   20.4889 N   0  0  0  0  0  0  0  0  0  0  0  0
    9.0018  -15.8222   22.4616 C   0  0  0  0  0  0  0  0  0  0  0  0
    8.3001  -16.8141   22.8128 O   0  0  0  0  0  0  0  0  0  0  0  0
   10.2988  -15.7106   22.9918 N   0  0  0  0  0  0  0  0  0  0  0  0
   10.7893  -16.6352   23.9829 C   0  0  1  0  0  0  0  0  0  0  0  0
   12.2785  -16.4770   24.1928 C   0  0  0  0  0  0  0  0  0  0  0  0
   13.0569  -16.6328   22.9002 C   0  0  0  0  0  0  0  0  0  0  0  0
   14.4872  -16.4047   23.1761 C   0  0  0  0  0  0  0  0  0  0  0  0
   15.2995  -17.3501   23.1062 O   0  0  0  0  0  0  0  0  0  0  0  0
   10.1393  -16.3725   25.2974 C   0  0  0  0  0  0  0  0  0  0  0  0
    9.3091  -15.2915   25.5133 O   0  0  0  0  0  0  0  0  0  0  0  0
   14.9178  -15.1369   23.5121 O   0  0  0  0  0  0  0  0  0  0  0  0
   10.3515  -17.1554   26.2364 O   0  0  0  0  0  0  0  0  0  0  0  0
  2  1  1  6
  2  7  1  0
  3  2  1  0
  4  3  1  0
  4  5  1  0
  5  6  2  0
  7 12  1  0
  8  7  2  0
  9  5  1  0
 11 10  1  1
 11 13  1  0
 12 11  1  0
 13 14  2  0
 13 15  1  0
 15 16  1  0
 16 17  1  1
 16 21  1  0
 18 17  1  0
 19 18  1  0
 20 19  2  0
 21 22  1  0
 23 19  1  0
 24 21  2  0
M  END
$$$$
