EAE.pdb
     RDKit          3D

 24 23  0  0  1  0  0  0  0  0999 V2000
    8.3478  -13.4459   16.3035 N   0  0  0  0  0  0  0  0  0  0  0  0
    8.0743  -14.5609   17.1702 C   0  0  1  0  0  0  0  0  0  0  0  0
    8.6449  -15.8387   16.6301 C   0  0  0  0  0  0  0  0  0  0  0  0
    7.6987  -16.6920   15.8698 C   0  0  0  0  0  0  0  0  0  0  0  0
    8.3305  -17.9480   15.4268 C   0  0  0  0  0  0  0  0  0  0  0  0
    8.9741  -18.0397   14.3674 O   0  0  0  0  0  0  0  0  0  0  0  0
    8.6543  -14.2912   18.5277 C   0  0  0  0  0  0  0  0  0  0  0  0
    9.8837  -14.0618   18.6376 O   0  0  0  0  0  0  0  0  0  0  0  0
    8.2161  -19.1089   16.2171 O   0  0  0  0  0  0  0  0  0  0  0  0
    7.3568  -13.3181   21.8262 C   0  0  0  0  0  0  0  0  0  0  0  0
    8.4052  -13.9311   20.9460 C   0  0  2  0  0  0  0  0  0  0  0  0
    7.8309  -14.2951   19.6687 N   0  0  0  0  0  0  0  0  0  0  0  0
    8.9327  -15.1772   21.5915 C   0  0  0  0  0  0  0  0  0  0  0  0
    8.3915  -16.3002   21.3784 O   0  0  0  0  0  0  0  0  0  0  0  0
   10.0434  -15.1324   22.4518 N   0  0  0  0  0  0  0  0  0  0  0  0
   10.5584  -16.3236   23.0791 C   0  0  1  0  0  0  0  0  0  0  0  0
   12.0337  -16.1906   23.3836 C   0  0  0  0  0  0  0  0  0  0  0  0
   12.8468  -15.8774   22.1419 C   0  0  0  0  0  0  0  0  0  0  0  0
   14.2723  -15.8079   22.5121 C   0  0  0  0  0  0  0  0  0  0  0  0
   14.6082  -15.7588   23.7135 O   0  0  0  0  0  0  0  0  0  0  0  0
    9.8703  -16.5584   24.3795 C   0  0  0  0  0  0  0  0  0  0  0  0
   10.0610  -17.7037   25.1253 O   0  0  0  0  0  0  0  0  0  0  0  0
   15.2298  -15.7976   21.5178 O   0  0  0  0  0  0  0  0  0  0  0  0
    9.0948  -15.6910   24.8107 O   0  0  0  0  0  0  0  0  0  0  0  0
  2  1  1  6
  2  7  1  0
  3  2  1  0
  4  3  1  0
  4  5  1  0
  5  6  2  0
  7 12  1  0
  8  7  2  0
  9  5  1  0
 11 10  1  1
 11 13  1  0
 12 11  1  0
 13 14  2  0
 13 15  1  0
 15 16  1  0
 16 17  1  1
 16 21  1  0
 18 17  1  0
 19 18  1  0
 20 19  2  0
 21 22  1  0
 23 19  1  0
 24 21  2  0
M  END
$$$$
