EAE.pdb
     RDKit          3D

 24 23  0  0  1  0  0  0  0  0999 V2000
    9.4493  -16.9444   17.0240 N   0  0  0  0  0  0  0  0  0  0  0  0
    8.3071  -16.4381   17.7369 C   0  0  1  0  0  0  0  0  0  0  0  0
    7.2797  -17.5055   17.9719 C   0  0  0  0  0  0  0  0  0  0  0  0
    7.7561  -18.7022   18.7085 C   0  0  0  0  0  0  0  0  0  0  0  0
    6.6968  -19.7185   18.8431 C   0  0  0  0  0  0  0  0  0  0  0  0
    6.0172  -19.8487   19.8756 O   0  0  0  0  0  0  0  0  0  0  0  0
    8.7514  -15.8759   19.0553 C   0  0  0  0  0  0  0  0  0  0  0  0
    9.7763  -16.3427   19.6100 O   0  0  0  0  0  0  0  0  0  0  0  0
    6.4217  -20.5925   17.7727 O   0  0  0  0  0  0  0  0  0  0  0  0
    7.5852  -13.2132   21.4010 C   0  0  0  0  0  0  0  0  0  0  0  0
    8.4948  -14.3096   20.9318 C   0  0  2  0  0  0  0  0  0  0  0  0
    8.0281  -14.8354   19.6670 N   0  0  0  0  0  0  0  0  0  0  0  0
    8.4872  -15.4266   21.9317 C   0  0  0  0  0  0  0  0  0  0  0  0
    7.5530  -16.2788   21.9491 O   0  0  0  0  0  0  0  0  0  0  0  0
    9.5182  -15.5581   22.8782 N   0  0  0  0  0  0  0  0  0  0  0  0
    9.5251  -16.6319   23.8398 C   0  0  1  0  0  0  0  0  0  0  0  0
   10.7310  -17.5258   23.6567 C   0  0  0  0  0  0  0  0  0  0  0  0
   12.0316  -16.7907   23.9190 C   0  0  0  0  0  0  0  0  0  0  0  0
   13.1571  -17.7022   23.6427 C   0  0  0  0  0  0  0  0  0  0  0  0
   12.9402  -18.8794   23.2881 O   0  0  0  0  0  0  0  0  0  0  0  0
    9.6024  -16.0832   25.2227 C   0  0  0  0  0  0  0  0  0  0  0  0
    9.8461  -14.7496   25.4807 O   0  0  0  0  0  0  0  0  0  0  0  0
   14.4509  -17.2409   23.7802 O   0  0  0  0  0  0  0  0  0  0  0  0
    9.4416  -16.8541   26.1817 O   0  0  0  0  0  0  0  0  0  0  0  0
  2  1  1  1
  2  7  1  0
  3  2  1  0
  4  3  1  0
  4  5  1  0
  5  6  2  0
  7 12  1  0
  8  7  2  0
  9  5  1  0
 11 10  1  1
 11 13  1  0
 12 11  1  0
 13 14  2  0
 13 15  1  0
 15 16  1  0
 16 17  1  6
 16 21  1  0
 18 17  1  0
 19 18  1  0
 20 19  2  0
 21 22  1  0
 23 19  1  0
 24 21  2  0
M  END
$$$$
