EAE.pdb
     RDKit          3D

 24 23  0  0  1  0  0  0  0  0999 V2000
    8.2978  -14.5122   20.7850 N   0  0  0  0  0  0  0  0  0  0  0  0
    7.3798  -14.6846   21.8790 C   0  0  1  0  0  0  0  0  0  0  0  0
    6.9579  -16.1160   22.0312 C   0  0  0  0  0  0  0  0  0  0  0  0
    7.9842  -17.1276   21.6775 C   0  0  0  0  0  0  0  0  0  0  0  0
    7.4478  -18.4987   21.7503 C   0  0  0  0  0  0  0  0  0  0  0  0
    8.1578  -19.5075   21.5976 O   0  0  0  0  0  0  0  0  0  0  0  0
    8.0263  -14.2183   23.1504 C   0  0  0  0  0  0  0  0  0  0  0  0
    9.2637  -14.3661   23.3023 O   0  0  0  0  0  0  0  0  0  0  0  0
    6.0768  -18.7044   22.0019 O   0  0  0  0  0  0  0  0  0  0  0  0
    6.9720  -12.3461   26.1968 C   0  0  0  0  0  0  0  0  0  0  0  0
    7.9178  -13.1627   25.3672 C   0  0  2  0  0  0  0  0  0  0  0  0
    7.2556  -13.6208   24.1648 N   0  0  0  0  0  0  0  0  0  0  0  0
    8.3535  -14.3669   26.1466 C   0  0  0  0  0  0  0  0  0  0  0  0
    7.5976  -15.3738   26.2660 O   0  0  0  0  0  0  0  0  0  0  0  0
    9.6141  -14.4107   26.7669 N   0  0  0  0  0  0  0  0  0  0  0  0
   10.0332  -15.5523   27.5408 C   0  0  1  0  0  0  0  0  0  0  0  0
   11.3949  -16.0431   27.1030 C   0  0  0  0  0  0  0  0  0  0  0  0
   11.8923  -17.1893   27.9632 C   0  0  0  0  0  0  0  0  0  0  0  0
   12.9487  -17.9106   27.2299 C   0  0  0  0  0  0  0  0  0  0  0  0
   13.7883  -18.5960   27.8494 O   0  0  0  0  0  0  0  0  0  0  0  0
   10.1511  -15.1831   28.9793 C   0  0  0  0  0  0  0  0  0  0  0  0
   10.3491  -16.1195   29.9733 O   0  0  0  0  0  0  0  0  0  0  0  0
   12.9995  -17.8198   25.8533 O   0  0  0  0  0  0  0  0  0  0  0  0
   10.0682  -13.9867   29.2982 O   0  0  0  0  0  0  0  0  0  0  0  0
  2  1  1  6
  2  7  1  0
  3  2  1  0
  4  3  1  0
  4  5  1  0
  5  6  2  0
  7 12  1  0
  8  7  2  0
  9  5  1  0
 11 10  1  1
 11 13  1  0
 12 11  1  0
 13 14  2  0
 13 15  1  0
 15 16  1  0
 16 17  1  6
 16 21  1  0
 18 17  1  0
 19 18  1  0
 20 19  2  0
 21 22  1  0
 23 19  1  0
 24 21  2  0
M  END
$$$$
