EAE.pdb
     RDKit          3D

 24 23  0  0  1  0  0  0  0  0999 V2000
    7.9755  -16.6415   18.0166 N   0  0  0  0  0  0  0  0  0  0  0  0
    7.5252  -16.9307   19.3517 C   0  0  1  0  0  0  0  0  0  0  0  0
    7.6005  -18.3970   19.6591 C   0  0  0  0  0  0  0  0  0  0  0  0
    8.0709  -19.2611   18.5484 C   0  0  0  0  0  0  0  0  0  0  0  0
    8.0682  -20.6861   18.9259 C   0  0  0  0  0  0  0  0  0  0  0  0
    7.6534  -21.0895   20.0260 O   0  0  0  0  0  0  0  0  0  0  0  0
    8.3654  -16.1719   20.3366 C   0  0  0  0  0  0  0  0  0  0  0  0
    9.6018  -16.0719   20.1432 O   0  0  0  0  0  0  0  0  0  0  0  0
    8.5503  -21.6533   18.0219 O   0  0  0  0  0  0  0  0  0  0  0  0
    7.7815  -14.1597   23.4235 C   0  0  0  0  0  0  0  0  0  0  0  0
    8.6226  -14.8766   22.4094 C   0  0  2  0  0  0  0  0  0  0  0  0
    7.7763  -15.5770   21.4675 N   0  0  0  0  0  0  0  0  0  0  0  0
    9.4854  -15.8883   23.1019 C   0  0  0  0  0  0  0  0  0  0  0  0
    9.0796  -17.0715   23.2889 O   0  0  0  0  0  0  0  0  0  0  0  0
   10.7695  -15.5504   23.5632 N   0  0  0  0  0  0  0  0  0  0  0  0
   11.6772  -16.5518   24.0643 C   0  0  1  0  0  0  0  0  0  0  0  0
   13.1167  -16.1685   23.8035 C   0  0  0  0  0  0  0  0  0  0  0  0
   14.0907  -17.1519   24.4243 C   0  0  0  0  0  0  0  0  0  0  0  0
   15.4658  -16.6938   24.1543 C   0  0  0  0  0  0  0  0  0  0  0  0
   16.0394  -15.9226   24.9510 O   0  0  0  0  0  0  0  0  0  0  0  0
   11.5289  -16.6876   25.5405 C   0  0  0  0  0  0  0  0  0  0  0  0
   10.7276  -15.8483   26.2874 O   0  0  0  0  0  0  0  0  0  0  0  0
   16.1111  -17.1259   23.0130 O   0  0  0  0  0  0  0  0  0  0  0  0
   12.1497  -17.5903   26.1232 O   0  0  0  0  0  0  0  0  0  0  0  0
  2  1  1  6
  2  7  1  0
  3  2  1  0
  4  3  1  0
  4  5  1  0
  5  6  2  0
  7 12  1  0
  8  7  2  0
  9  5  1  0
 11 10  1  1
 11 13  1  0
 12 11  1  0
 13 14  2  0
 13 15  1  0
 15 16  1  0
 16 17  1  1
 16 21  1  0
 18 17  1  0
 19 18  1  0
 20 19  2  0
 21 22  1  0
 23 19  1  0
 24 21  2  0
M  END
$$$$
