EAE.pdb
     RDKit          3D

 24 23  0  0  1  0  0  0  0  0999 V2000
    8.5492  -15.0098   14.6707 N   0  0  0  0  0  0  0  0  0  0  0  0
    7.8451  -15.2684   15.8981 C   0  0  1  0  0  0  0  0  0  0  0  0
    7.7021  -16.7387   16.1586 C   0  0  0  0  0  0  0  0  0  0  0  0
    8.7605  -17.5988   15.5741 C   0  0  0  0  0  0  0  0  0  0  0  0
    8.5392  -19.0232   15.8824 C   0  0  0  0  0  0  0  0  0  0  0  0
    9.0095  -19.9420   15.1900 O   0  0  0  0  0  0  0  0  0  0  0  0
    8.5814  -14.6300   17.0393 C   0  0  0  0  0  0  0  0  0  0  0  0
    9.8368  -14.6237   17.0355 O   0  0  0  0  0  0  0  0  0  0  0  0
    7.7662  -19.3877   17.0026 O   0  0  0  0  0  0  0  0  0  0  0  0
    7.6839  -12.7692   20.1483 C   0  0  0  0  0  0  0  0  0  0  0  0
    8.6189  -13.4581   19.1992 C   0  0  2  0  0  0  0  0  0  0  0  0
    7.8745  -14.0434   18.1051 N   0  0  0  0  0  0  0  0  0  0  0  0
    9.3359  -14.5615   19.9176 C   0  0  0  0  0  0  0  0  0  0  0  0
    8.9774  -15.7668   19.7832 O   0  0  0  0  0  0  0  0  0  0  0  0
   10.4266  -14.2875   20.7609 N   0  0  0  0  0  0  0  0  0  0  0  0
   11.1955  -15.3463   21.3655 C   0  0  1  0  0  0  0  0  0  0  0  0
   12.6788  -15.0638   21.2841 C   0  0  0  0  0  0  0  0  0  0  0  0
   13.5085  -16.2022   21.8470 C   0  0  0  0  0  0  0  0  0  0  0  0
   14.9368  -15.8644   21.7064 C   0  0  0  0  0  0  0  0  0  0  0  0
   15.3185  -15.1200   20.7798 O   0  0  0  0  0  0  0  0  0  0  0  0
   10.8589  -15.4647   22.8120 C   0  0  0  0  0  0  0  0  0  0  0  0
   10.0003  -14.5923   23.4492 O   0  0  0  0  0  0  0  0  0  0  0  0
   15.8458  -16.3792   22.6087 O   0  0  0  0  0  0  0  0  0  0  0  0
   11.3698  -16.3833   23.4715 O   0  0  0  0  0  0  0  0  0  0  0  0
  2  1  1  6
  2  7  1  0
  3  2  1  0
  4  3  1  0
  4  5  1  0
  5  6  2  0
  7 12  1  0
  8  7  2  0
  9  5  1  0
 11 10  1  1
 11 13  1  0
 12 11  1  0
 13 14  2  0
 13 15  1  0
 15 16  1  0
 16 17  1  1
 16 21  1  0
 18 17  1  0
 19 18  1  0
 20 19  2  0
 21 22  1  0
 23 19  1  0
 24 21  2  0
M  END
$$$$
