EAE.pdb
     RDKit          3D

 24 23  0  0  1  0  0  0  0  0999 V2000
    7.7238  -17.3464   17.9411 N   0  0  0  0  0  0  0  0  0  0  0  0
    8.9967  -16.8147   17.5335 C   0  0  1  0  0  0  0  0  0  0  0  0
    9.0570  -16.5894   16.0517 C   0  0  0  0  0  0  0  0  0  0  0  0
    7.9954  -15.7164   15.4927 C   0  0  0  0  0  0  0  0  0  0  0  0
    8.0804  -15.6248   14.0239 C   0  0  0  0  0  0  0  0  0  0  0  0
    8.0836  -16.6256   13.2868 O   0  0  0  0  0  0  0  0  0  0  0  0
    9.2460  -15.5172   18.2449 C   0  0  0  0  0  0  0  0  0  0  0  0
   10.3920  -15.0059   18.2099 O   0  0  0  0  0  0  0  0  0  0  0  0
    8.1626  -14.3630   13.4023 O   0  0  0  0  0  0  0  0  0  0  0  0
    7.2386  -12.9334   20.0033 C   0  0  0  0  0  0  0  0  0  0  0  0
    8.5055  -13.6730   19.6909 C   0  0  2  0  0  0  0  0  0  0  0  0
    8.2072  -14.8770   18.9458 N   0  0  0  0  0  0  0  0  0  0  0  0
    9.1792  -14.0714   20.9695 C   0  0  0  0  0  0  0  0  0  0  0  0
    9.4949  -13.2063   21.8364 O   0  0  0  0  0  0  0  0  0  0  0  0
    9.4793  -15.4176   21.2408 N   0  0  0  0  0  0  0  0  0  0  0  0
   10.0253  -15.8261   22.5108 C   0  0  1  0  0  0  0  0  0  0  0  0
    9.8475  -17.3113   22.7333 C   0  0  0  0  0  0  0  0  0  0  0  0
   10.5046  -17.7787   24.0181 C   0  0  0  0  0  0  0  0  0  0  0  0
   10.3349  -19.2386   24.1352 C   0  0  0  0  0  0  0  0  0  0  0  0
    9.7445  -19.8768   23.2392 O   0  0  0  0  0  0  0  0  0  0  0  0
   11.4901  -15.5574   22.5510 C   0  0  0  0  0  0  0  0  0  0  0  0
   12.1861  -15.4070   23.7331 O   0  0  0  0  0  0  0  0  0  0  0  0
   10.8347  -19.8912   25.2443 O   0  0  0  0  0  0  0  0  0  0  0  0
   12.1106  -15.4650   21.4805 O   0  0  0  0  0  0  0  0  0  0  0  0
  2  1  1  6
  2  7  1  0
  3  2  1  0
  4  3  1  0
  4  5  1  0
  5  6  2  0
  7 12  1  0
  8  7  2  0
  9  5  1  0
 11 10  1  1
 11 13  1  0
 12 11  1  0
 13 14  2  0
 13 15  1  0
 15 16  1  0
 16 17  1  6
 16 21  1  0
 18 17  1  0
 19 18  1  0
 20 19  2  0
 21 22  1  0
 23 19  1  0
 24 21  2  0
M  END
$$$$
