EAE.pdb
     RDKit          3D

 24 23  0  0  1  0  0  0  0  0999 V2000
    6.4788  -17.2958   17.3342 N   0  0  0  0  0  0  0  0  0  0  0  0
    7.9000  -17.5163   17.3047 C   0  0  1  0  0  0  0  0  0  0  0  0
    8.4637  -17.3300   15.9272 C   0  0  0  0  0  0  0  0  0  0  0  0
    9.3763  -16.1722   15.7595 C   0  0  0  0  0  0  0  0  0  0  0  0
    9.7856  -15.9981   14.3541 C   0  0  0  0  0  0  0  0  0  0  0  0
   10.5422  -15.0847   13.9824 O   0  0  0  0  0  0  0  0  0  0  0  0
    8.5719  -16.5644   18.2505 C   0  0  0  0  0  0  0  0  0  0  0  0
    9.8071  -16.6646   18.4508 O   0  0  0  0  0  0  0  0  0  0  0  0
    9.3147  -16.8894   13.3697 O   0  0  0  0  0  0  0  0  0  0  0  0
    7.6020  -13.5336   20.1908 C   0  0  0  0  0  0  0  0  0  0  0  0
    8.5118  -14.6621   19.8053 C   0  0  2  0  0  0  0  0  0  0  0  0
    7.8273  -15.5680   18.9083 N   0  0  0  0  0  0  0  0  0  0  0  0
    8.9033  -15.4291   21.0325 C   0  0  0  0  0  0  0  0  0  0  0  0
    8.2006  -16.3948   21.4487 O   0  0  0  0  0  0  0  0  0  0  0  0
   10.0621  -15.0966   21.7552 N   0  0  0  0  0  0  0  0  0  0  0  0
   10.6389  -16.0061   22.7133 C   0  0  1  0  0  0  0  0  0  0  0  0
   12.1360  -15.8193   22.8162 C   0  0  0  0  0  0  0  0  0  0  0  0
   12.7549  -16.7319   23.8579 C   0  0  0  0  0  0  0  0  0  0  0  0
   14.2103  -16.4979   23.8906 C   0  0  0  0  0  0  0  0  0  0  0  0
   14.7113  -15.5608   23.2354 O   0  0  0  0  0  0  0  0  0  0  0  0
   10.0790  -15.7474   24.0694 C   0  0  0  0  0  0  0  0  0  0  0  0
   10.2123  -16.6420   25.1117 O   0  0  0  0  0  0  0  0  0  0  0  0
   15.0116  -17.3248   24.6522 O   0  0  0  0  0  0  0  0  0  0  0  0
    9.4683  -14.6863   24.2717 O   0  0  0  0  0  0  0  0  0  0  0  0
  2  1  1  6
  2  7  1  0
  3  2  1  0
  4  3  1  0
  4  5  1  0
  5  6  2  0
  7 12  1  0
  8  7  2  0
  9  5  1  0
 11 10  1  1
 11 13  1  0
 12 11  1  0
 13 14  2  0
 13 15  1  0
 15 16  1  0
 16 17  1  1
 16 21  1  0
 18 17  1  0
 19 18  1  0
 20 19  2  0
 21 22  1  0
 23 19  1  0
 24 21  2  0
M  END
$$$$
