EAE.pdb
     RDKit          3D

 24 23  0  0  1  0  0  0  0  0999 V2000
    7.2504  -18.4643   18.0348 N   0  0  0  0  0  0  0  0  0  0  0  0
    8.6852  -18.3692   17.9978 C   0  0  1  0  0  0  0  0  0  0  0  0
    9.1835  -18.0011   16.6317 C   0  0  0  0  0  0  0  0  0  0  0  0
    8.3990  -16.9603   15.9225 C   0  0  0  0  0  0  0  0  0  0  0  0
    9.0047  -16.6087   14.6254 C   0  0  0  0  0  0  0  0  0  0  0  0
    8.5104  -15.7637   13.8595 O   0  0  0  0  0  0  0  0  0  0  0  0
    9.1422  -17.3391   18.9888 C   0  0  0  0  0  0  0  0  0  0  0  0
   10.3706  -17.1206   19.1277 O   0  0  0  0  0  0  0  0  0  0  0  0
   10.1936  -17.2410   14.2107 O   0  0  0  0  0  0  0  0  0  0  0  0
    7.5508  -14.8088   21.2106 C   0  0  0  0  0  0  0  0  0  0  0  0
    8.6851  -15.6623   20.7264 C   0  0  2  0  0  0  0  0  0  0  0  0
    8.2054  -16.6233   19.7568 N   0  0  0  0  0  0  0  0  0  0  0  0
    9.2693  -16.4184   21.8817 C   0  0  0  0  0  0  0  0  0  0  0  0
    8.7106  -17.4623   22.3262 O   0  0  0  0  0  0  0  0  0  0  0  0
   10.4543  -15.9882   22.5036 N   0  0  0  0  0  0  0  0  0  0  0  0
   11.0013  -16.6817   23.6428 C   0  0  1  0  0  0  0  0  0  0  0  0
   12.4593  -16.3367   23.8481 C   0  0  0  0  0  0  0  0  0  0  0  0
   13.3429  -16.9232   22.7635 C   0  0  0  0  0  0  0  0  0  0  0  0
   14.3449  -15.9157   22.3699 C   0  0  0  0  0  0  0  0  0  0  0  0
   14.5277  -15.6485   21.1643 O   0  0  0  0  0  0  0  0  0  0  0  0
   10.2845  -16.2765   24.8843 C   0  0  0  0  0  0  0  0  0  0  0  0
    9.2830  -15.3271   24.8881 O   0  0  0  0  0  0  0  0  0  0  0  0
   15.0773  -15.2722   23.3472 O   0  0  0  0  0  0  0  0  0  0  0  0
   10.5989  -16.8126   25.9583 O   0  0  0  0  0  0  0  0  0  0  0  0
  2  1  1  6
  2  7  1  0
  3  2  1  0
  4  3  1  0
  4  5  1  0
  5  6  2  0
  7 12  1  0
  8  7  2  0
  9  5  1  0
 11 10  1  1
 11 13  1  0
 12 11  1  0
 13 14  2  0
 13 15  1  0
 15 16  1  0
 16 17  1  1
 16 21  1  0
 18 17  1  0
 19 18  1  0
 20 19  2  0
 21 22  1  0
 23 19  1  0
 24 21  2  0
M  END
$$$$
