EAE.pdb
     RDKit          3D

 24 23  0  0  1  0  0  0  0  0999 V2000
    9.0782  -14.9697   14.4742 N   0  0  0  0  0  0  0  0  0  0  0  0
    8.1156  -15.0497   15.5400 C   0  0  1  0  0  0  0  0  0  0  0  0
    7.5767  -16.4404   15.7001 C   0  0  0  0  0  0  0  0  0  0  0  0
    8.5813  -17.5296   15.6230 C   0  0  0  0  0  0  0  0  0  0  0  0
    7.9512  -18.8603   15.6946 C   0  0  0  0  0  0  0  0  0  0  0  0
    8.5317  -19.8993   15.3362 O   0  0  0  0  0  0  0  0  0  0  0  0
    8.7568  -14.6133   16.8247 C   0  0  0  0  0  0  0  0  0  0  0  0
    9.9574  -14.9066   17.0444 O   0  0  0  0  0  0  0  0  0  0  0  0
    6.6368  -18.9897   16.1853 O   0  0  0  0  0  0  0  0  0  0  0  0
    7.7232  -12.6956   19.8588 C   0  0  0  0  0  0  0  0  0  0  0  0
    8.6902  -13.4278   18.9765 C   0  0  2  0  0  0  0  0  0  0  0  0
    8.0218  -13.8823   17.7763 N   0  0  0  0  0  0  0  0  0  0  0  0
    9.2150  -14.6307   19.7013 C   0  0  0  0  0  0  0  0  0  0  0  0
    8.6252  -15.7467   19.6233 O   0  0  0  0  0  0  0  0  0  0  0  0
   10.3772  -14.5520   20.4881 N   0  0  0  0  0  0  0  0  0  0  0  0
   10.9451  -15.7211   21.1113 C   0  0  1  0  0  0  0  0  0  0  0  0
   12.4560  -15.6964   21.0518 C   0  0  0  0  0  0  0  0  0  0  0  0
   13.0051  -14.2825   21.0724 C   0  0  0  0  0  0  0  0  0  0  0  0
   14.4576  -14.3329   20.8238 C   0  0  0  0  0  0  0  0  0  0  0  0
   14.9505  -13.7241   19.8517 O   0  0  0  0  0  0  0  0  0  0  0  0
   10.5721  -15.7677   22.5529 C   0  0  0  0  0  0  0  0  0  0  0  0
    9.8164  -14.7839   23.1574 O   0  0  0  0  0  0  0  0  0  0  0  0
   15.2651  -15.0592   21.6758 O   0  0  0  0  0  0  0  0  0  0  0  0
   10.9552  -16.7282   23.2388 O   0  0  0  0  0  0  0  0  0  0  0  0
  2  1  1  6
  2  7  1  0
  3  2  1  0
  4  3  1  0
  4  5  1  0
  5  6  2  0
  7 12  1  0
  8  7  2  0
  9  5  1  0
 11 10  1  1
 11 13  1  0
 12 11  1  0
 13 14  2  0
 13 15  1  0
 15 16  1  0
 16 17  1  1
 16 21  1  0
 18 17  1  0
 19 18  1  0
 20 19  2  0
 21 22  1  0
 23 19  1  0
 24 21  2  0
M  END
$$$$
