EAE.pdb
     RDKit          3D

 24 23  0  0  1  0  0  0  0  0999 V2000
    8.3738  -15.2468   18.4455 N   0  0  0  0  0  0  0  0  0  0  0  0
    7.4251  -15.4081   19.5146 C   0  0  1  0  0  0  0  0  0  0  0  0
    6.8186  -16.7801   19.5183 C   0  0  0  0  0  0  0  0  0  0  0  0
    7.7764  -17.9036   19.6666 C   0  0  0  0  0  0  0  0  0  0  0  0
    7.1039  -19.2116   19.5677 C   0  0  0  0  0  0  0  0  0  0  0  0
    7.5860  -20.2533   20.0444 O   0  0  0  0  0  0  0  0  0  0  0  0
    8.1077  -15.1621   20.8282 C   0  0  0  0  0  0  0  0  0  0  0  0
    9.3009  -15.5220   20.9791 O   0  0  0  0  0  0  0  0  0  0  0  0
    5.8617  -19.3150   18.9108 O   0  0  0  0  0  0  0  0  0  0  0  0
    7.2379  -13.5272   24.0708 C   0  0  0  0  0  0  0  0  0  0  0  0
    8.1218  -14.2817   23.1227 C   0  0  2  0  0  0  0  0  0  0  0  0
    7.4197  -14.5345   21.8830 N   0  0  0  0  0  0  0  0  0  0  0  0
    8.4895  -15.6033   23.7276 C   0  0  0  0  0  0  0  0  0  0  0  0
    7.7173  -16.6004   23.6325 O   0  0  0  0  0  0  0  0  0  0  0  0
    9.7025  -15.7714   24.4176 N   0  0  0  0  0  0  0  0  0  0  0  0
   10.0429  -17.0221   25.0482 C   0  0  1  0  0  0  0  0  0  0  0  0
   11.5291  -17.2906   24.9695 C   0  0  0  0  0  0  0  0  0  0  0  0
   11.9168  -18.5697   25.6870 C   0  0  0  0  0  0  0  0  0  0  0  0
   13.3650  -18.7890   25.5186 C   0  0  0  0  0  0  0  0  0  0  0  0
   14.0670  -19.1287   26.4935 O   0  0  0  0  0  0  0  0  0  0  0  0
    9.6892  -16.9814   26.4949 C   0  0  0  0  0  0  0  0  0  0  0  0
    9.5241  -18.1232   27.2521 O   0  0  0  0  0  0  0  0  0  0  0  0
   13.9355  -18.6150   24.2737 O   0  0  0  0  0  0  0  0  0  0  0  0
    9.5366  -15.8784   27.0423 O   0  0  0  0  0  0  0  0  0  0  0  0
  2  1  1  6
  2  7  1  0
  3  2  1  0
  4  3  1  0
  4  5  1  0
  5  6  2  0
  7 12  1  0
  8  7  2  0
  9  5  1  0
 11 10  1  1
 11 13  1  0
 12 11  1  0
 13 14  2  0
 13 15  1  0
 15 16  1  0
 16 17  1  1
 16 21  1  0
 18 17  1  0
 19 18  1  0
 20 19  2  0
 21 22  1  0
 23 19  1  0
 24 21  2  0
M  END
$$$$
