EAE.pdb
     RDKit          3D

 24 23  0  0  1  0  0  0  0  0999 V2000
    8.4721  -16.6869   16.6112 N   0  0  0  0  0  0  0  0  0  0  0  0
    7.7652  -17.0553   17.8086 C   0  0  1  0  0  0  0  0  0  0  0  0
    7.7465  -18.5419   18.0087 C   0  0  0  0  0  0  0  0  0  0  0  0
    8.9408  -19.2700   17.5137 C   0  0  0  0  0  0  0  0  0  0  0  0
    8.8000  -20.7279   17.6806 C   0  0  0  0  0  0  0  0  0  0  0  0
    9.6909  -21.5311   17.3551 O   0  0  0  0  0  0  0  0  0  0  0  0
    8.4155  -16.4018   18.9925 C   0  0  0  0  0  0  0  0  0  0  0  0
    9.6550  -16.5165   19.1556 O   0  0  0  0  0  0  0  0  0  0  0  0
    7.6168  -21.2611   18.2294 O   0  0  0  0  0  0  0  0  0  0  0  0
    7.3304  -14.0946   21.7196 C   0  0  0  0  0  0  0  0  0  0  0  0
    8.3248  -14.8942   20.9314 C   0  0  2  0  0  0  0  0  0  0  0  0
    7.6462  -15.6668   19.9134 N   0  0  0  0  0  0  0  0  0  0  0  0
    9.0343  -15.8484   21.8446 C   0  0  0  0  0  0  0  0  0  0  0  0
    8.5996  -17.0223   22.0248 O   0  0  0  0  0  0  0  0  0  0  0  0
   10.2023  -15.4652   22.5263 N   0  0  0  0  0  0  0  0  0  0  0  0
   10.8246  -16.3290   23.4981 C   0  0  1  0  0  0  0  0  0  0  0  0
   12.2615  -15.9294   23.7483 C   0  0  0  0  0  0  0  0  0  0  0  0
   13.0904  -15.9544   22.4782 C   0  0  0  0  0  0  0  0  0  0  0  0
   14.4854  -16.2800   22.8272 C   0  0  0  0  0  0  0  0  0  0  0  0
   15.1476  -15.5109   23.5541 O   0  0  0  0  0  0  0  0  0  0  0  0
   10.1161  -16.2273   24.8047 C   0  0  0  0  0  0  0  0  0  0  0  0
   10.3574  -17.0947   25.8506 O   0  0  0  0  0  0  0  0  0  0  0  0
   15.0506  -17.4424   22.3423 O   0  0  0  0  0  0  0  0  0  0  0  0
    9.2755  -15.3280   24.9607 O   0  0  0  0  0  0  0  0  0  0  0  0
  2  1  1  6
  2  7  1  0
  3  2  1  0
  4  3  1  0
  4  5  1  0
  5  6  2  0
  7 12  1  0
  8  7  2  0
  9  5  1  0
 11 10  1  1
 11 13  1  0
 12 11  1  0
 13 14  2  0
 13 15  1  0
 15 16  1  0
 16 17  1  1
 16 21  1  0
 18 17  1  0
 19 18  1  0
 20 19  2  0
 21 22  1  0
 23 19  1  0
 24 21  2  0
M  END
$$$$
