AQP.pdb
     RDKit          3D

 22 22  0  0  1  0  0  0  0  0999 V2000
    8.5166  -12.7192   19.7262 C   0  0  0  0  0  0  0  0  0  0  0  0
    8.4201  -14.1999   20.0313 C   0  0  2  0  0  0  0  0  0  0  0  0
    7.7406  -14.8192   18.9100 N   0  0  0  0  0  0  0  0  0  0  0  0
    7.6354  -14.3680   21.2713 C   0  0  0  0  0  0  0  0  0  0  0  0
    6.4333  -14.0361   21.3856 O   0  0  0  0  0  0  0  0  0  0  0  0
    6.9122  -19.3138   24.0510 N   0  0  0  0  0  0  0  0  0  0  0  0
    6.0796  -18.5895   23.1614 C   0  0  0  0  0  0  0  0  0  0  0  0
    5.2162  -19.2042   22.5424 O   0  0  0  0  0  0  0  0  0  0  0  0
    6.3196  -17.1402   23.0526 C   0  0  0  0  0  0  0  0  0  0  0  0
    7.4123  -16.6049   23.9387 C   0  0  0  0  0  0  0  0  0  0  0  0
    7.5932  -15.1315   23.6782 C   0  0  2  0  0  0  0  0  0  0  0  0
    8.2559  -14.9324   22.4028 N   0  0  0  0  0  0  0  0  0  0  0  0
    8.2657  -14.4199   24.7798 C   0  0  0  0  0  0  0  0  0  0  0  0
    9.5081  -14.6053   24.9059 O   0  0  0  0  0  0  0  0  0  0  0  0
    7.6260  -13.5539   25.6945 N   0  0  0  0  0  0  0  0  0  0  0  0
    6.3108  -12.9266   25.5968 C   0  0  0  0  0  0  0  0  0  0  0  0
    6.4526  -11.6247   26.4044 C   0  0  0  0  0  0  0  0  0  0  0  0
    7.2425  -12.1528   27.5757 C   0  0  0  0  0  0  0  0  0  0  0  0
    8.1865  -13.1010   26.9550 C   0  0  1  0  0  0  0  0  0  0  0  0
    8.5597  -14.1989   27.8470 C   0  0  0  0  0  0  0  0  0  0  0  0
    8.0431  -15.3267   27.6479 O   0  0  0  0  0  0  0  0  0  0  0  0
    9.4467  -14.0859   28.9021 O   0  0  0  0  0  0  0  0  0  0  0  0
  2  3  1  0
  2  1  1  6
  4  2  1  0
  5  4  2  0
  6  7  1  0
  7  9  1  0
  7  8  2  0
  9 10  1  0
 11 10  1  1
 11 12  1  0
 12  4  1  0
 13 15  1  0
 13 11  1  0
 14 13  2  0
 15 19  1  0
 16 17  1  0
 16 15  1  0
 17 18  1  0
 18 19  1  0
 19 20  1  1
 20 21  2  0
 20 22  1  0
M  END
$$$$
