AQP.pdb
     RDKit          3D

 22 22  0  0  1  0  0  0  0  0999 V2000
    8.4972  -12.7735   19.7838 C   0  0  0  0  0  0  0  0  0  0  0  0
    8.2900  -14.2523   20.0393 C   0  0  2  0  0  0  0  0  0  0  0  0
    7.5046  -14.7663   18.9340 N   0  0  0  0  0  0  0  0  0  0  0  0
    7.5570  -14.4050   21.3124 C   0  0  0  0  0  0  0  0  0  0  0  0
    6.3152  -14.2852   21.4202 O   0  0  0  0  0  0  0  0  0  0  0  0
    7.3569  -19.2283   24.2153 N   0  0  0  0  0  0  0  0  0  0  0  0
    6.3389  -18.5712   23.4796 C   0  0  0  0  0  0  0  0  0  0  0  0
    5.4244  -19.2484   23.0197 O   0  0  0  0  0  0  0  0  0  0  0  0
    6.4617  -17.1112   23.3269 C   0  0  0  0  0  0  0  0  0  0  0  0
    7.6647  -16.4978   23.9921 C   0  0  0  0  0  0  0  0  0  0  0  0
    7.6601  -15.0082   23.7626 C   0  0  2  0  0  0  0  0  0  0  0  0
    8.2775  -14.7027   22.4856 N   0  0  0  0  0  0  0  0  0  0  0  0
    8.2537  -14.2424   24.8731 C   0  0  0  0  0  0  0  0  0  0  0  0
    9.5071  -14.3108   25.0090 O   0  0  0  0  0  0  0  0  0  0  0  0
    7.5281  -13.4454   25.7863 N   0  0  0  0  0  0  0  0  0  0  0  0
    6.1459  -12.9812   25.7012 C   0  0  0  0  0  0  0  0  0  0  0  0
    6.1423  -11.6596   26.4890 C   0  0  0  0  0  0  0  0  0  0  0  0
    7.0063  -12.0718   27.6545 C   0  0  0  0  0  0  0  0  0  0  0  0
    8.0482  -12.9096   27.0316 C   0  0  1  0  0  0  0  0  0  0  0  0
    8.5628  -13.9414   27.9321 C   0  0  0  0  0  0  0  0  0  0  0  0
    8.1825  -15.1258   27.7561 O   0  0  0  0  0  0  0  0  0  0  0  0
    9.4445  -13.7072   28.9716 O   0  0  0  0  0  0  0  0  0  0  0  0
  2  3  1  0
  2  1  1  6
  4  2  1  0
  5  4  2  0
  6  7  1  0
  7  9  1  0
  7  8  2  0
  9 10  1  0
 11 10  1  1
 11 12  1  0
 12  4  1  0
 13 15  1  0
 13 11  1  0
 14 13  2  0
 15 19  1  0
 16 17  1  0
 16 15  1  0
 17 18  1  0
 18 19  1  0
 19 20  1  1
 20 21  2  0
 20 22  1  0
M  END
$$$$
