AQP.pdb
     RDKit          3D

 22 22  0  0  1  0  0  0  0  0999 V2000
    8.3642  -12.7660   19.8634 C   0  0  0  0  0  0  0  0  0  0  0  0
    8.0216  -14.2291   20.0551 C   0  0  2  0  0  0  0  0  0  0  0  0
    7.0429  -14.5705   19.0411 N   0  0  0  0  0  0  0  0  0  0  0  0
    7.4500  -14.3986   21.4064 C   0  0  0  0  0  0  0  0  0  0  0  0
    6.2563  -14.1525   21.6940 O   0  0  0  0  0  0  0  0  0  0  0  0
    8.4181  -18.9982   25.4881 N   0  0  0  0  0  0  0  0  0  0  0  0
    7.0735  -18.5655   25.3682 C   0  0  0  0  0  0  0  0  0  0  0  0
    6.1967  -19.2360   25.9049 O   0  0  0  0  0  0  0  0  0  0  0  0
    6.8353  -17.3303   24.6017 C   0  0  0  0  0  0  0  0  0  0  0  0
    8.0687  -16.6866   24.0271 C   0  0  0  0  0  0  0  0  0  0  0  0
    7.7981  -15.2269   23.7666 C   0  0  2  0  0  0  0  0  0  0  0  0
    8.2783  -14.8628   22.4468 N   0  0  0  0  0  0  0  0  0  0  0  0
    8.3177  -14.3375   24.8206 C   0  0  0  0  0  0  0  0  0  0  0  0
    9.5724  -14.2305   24.9111 O   0  0  0  0  0  0  0  0  0  0  0  0
    7.5204  -13.6035   25.7268 N   0  0  0  0  0  0  0  0  0  0  0  0
    6.0905  -13.3130   25.6627 C   0  0  0  0  0  0  0  0  0  0  0  0
    5.9431  -11.9756   26.4090 C   0  0  0  0  0  0  0  0  0  0  0  0
    6.8758  -12.2406   27.5643 C   0  0  0  0  0  0  0  0  0  0  0  0
    7.9982  -12.9670   26.9413 C   0  0  1  0  0  0  0  0  0  0  0  0
    8.6537  -13.8979   27.8599 C   0  0  0  0  0  0  0  0  0  0  0  0
    8.4631  -15.1285   27.6936 O   0  0  0  0  0  0  0  0  0  0  0  0
    9.4748  -13.5201   28.9068 O   0  0  0  0  0  0  0  0  0  0  0  0
  2  3  1  0
  2  1  1  6
  4  2  1  0
  5  4  2  0
  6  7  1  0
  7  9  1  0
  7  8  2  0
  9 10  1  0
 11 10  1  1
 11 12  1  0
 12  4  1  0
 13 15  1  0
 13 11  1  0
 14 13  2  0
 15 19  1  0
 16 17  1  0
 16 15  1  0
 17 18  1  0
 18 19  1  0
 19 20  1  1
 20 21  2  0
 20 22  1  0
M  END
$$$$
