AQP.pdb
     RDKit          3D

 22 22  0  0  1  0  0  0  0  0999 V2000
    8.6293  -12.9396   19.8614 C   0  0  0  0  0  0  0  0  0  0  0  0
    8.1232  -14.3519   20.0713 C   0  0  2  0  0  0  0  0  0  0  0  0
    7.1962  -14.6335   18.9924 N   0  0  0  0  0  0  0  0  0  0  0  0
    7.4340  -14.4088   21.3764 C   0  0  0  0  0  0  0  0  0  0  0  0
    6.2827  -13.9587   21.5766 O   0  0  0  0  0  0  0  0  0  0  0  0
    7.1499  -19.3726   24.3863 N   0  0  0  0  0  0  0  0  0  0  0  0
    6.2772  -18.7712   23.4449 C   0  0  0  0  0  0  0  0  0  0  0  0
    5.4735  -19.4882   22.8562 O   0  0  0  0  0  0  0  0  0  0  0  0
    6.4059  -17.3169   23.2490 C   0  0  0  0  0  0  0  0  0  0  0  0
    7.4275  -16.6419   24.1245 C   0  0  0  0  0  0  0  0  0  0  0  0
    7.4916  -15.1755   23.7819 C   0  0  2  0  0  0  0  0  0  0  0  0
    8.0921  -14.9992   22.4728 N   0  0  0  0  0  0  0  0  0  0  0  0
    8.1497  -14.3599   24.8182 C   0  0  0  0  0  0  0  0  0  0  0  0
    9.4108  -14.4018   24.8633 O   0  0  0  0  0  0  0  0  0  0  0  0
    7.4773  -13.5430   25.7542 N   0  0  0  0  0  0  0  0  0  0  0  0
    6.0910  -13.0834   25.7409 C   0  0  0  0  0  0  0  0  0  0  0  0
    6.1302  -11.7437   26.4966 C   0  0  0  0  0  0  0  0  0  0  0  0
    7.0634  -12.1271   27.6178 C   0  0  0  0  0  0  0  0  0  0  0  0
    8.0690  -12.9775   26.9535 C   0  0  1  0  0  0  0  0  0  0  0  0
    8.6395  -13.9870   27.8454 C   0  0  0  0  0  0  0  0  0  0  0  0
    8.2892  -15.1833   27.6884 O   0  0  0  0  0  0  0  0  0  0  0  0
    9.5435  -13.7195   28.8573 O   0  0  0  0  0  0  0  0  0  0  0  0
  2  3  1  0
  2  1  1  6
  4  2  1  0
  5  4  2  0
  6  7  1  0
  7  9  1  0
  7  8  2  0
  9 10  1  0
 11 10  1  1
 11 12  1  0
 12  4  1  0
 13 15  1  0
 13 11  1  0
 14 13  2  0
 15 19  1  0
 16 17  1  0
 16 15  1  0
 17 18  1  0
 18 19  1  0
 19 20  1  1
 20 21  2  0
 20 22  1  0
M  END
$$$$
