AQP.pdb
     RDKit          3D

 22 22  0  0  1  0  0  0  0  0999 V2000
  -55.7491   12.6711  -53.6785 C   0  0  0  0  0  0  0  0  0  0  0  0
  -56.7323   11.5197  -53.7243 C   0  0  2  0  0  0  0  0  0  0  0  0
  -57.4541   11.5299  -52.4667 N   0  0  0  0  0  0  0  0  0  0  0  0
  -55.9696   10.2639  -53.8751 C   0  0  0  0  0  0  0  0  0  0  0  0
  -54.8559   10.0566  -53.3413 O   0  0  0  0  0  0  0  0  0  0  0  0
  -51.5495    7.7804  -54.1504 N   0  0  0  0  0  0  0  0  0  0  0  0
  -52.3937    7.7444  -55.2886 C   0  0  0  0  0  0  0  0  0  0  0  0
  -52.1641    6.9076  -56.1567 O   0  0  0  0  0  0  0  0  0  0  0  0
  -53.4922    8.7246  -55.3366 C   0  0  0  0  0  0  0  0  0  0  0  0
  -54.7508    8.2419  -56.0066 C   0  0  0  0  0  0  0  0  0  0  0  0
  -55.8099    7.9909  -54.9640 C   0  0  2  0  0  0  0  0  0  0  0  0
  -56.5080    9.2262  -54.6608 N   0  0  0  0  0  0  0  0  0  0  0  0
  -55.2954    7.3229  -53.7552 C   0  0  0  0  0  0  0  0  0  0  0  0
  -54.7950    8.0624  -52.8626 O   0  0  0  0  0  0  0  0  0  0  0  0
  -55.3226    5.9292  -53.5263 N   0  0  0  0  0  0  0  0  0  0  0  0
  -54.2286    4.9651  -53.6085 C   0  0  0  0  0  0  0  0  0  0  0  0
  -54.9184    3.6427  -53.9863 C   0  0  0  0  0  0  0  0  0  0  0  0
  -56.1259    3.7357  -53.0874 C   0  0  0  0  0  0  0  0  0  0  0  0
  -56.4983    5.1612  -53.1572 C   0  0  1  0  0  0  0  0  0  0  0  0
  -57.1401    5.6426  -51.9339 C   0  0  0  0  0  0  0  0  0  0  0  0
  -56.9535    6.8386  -51.5973 O   0  0  0  0  0  0  0  0  0  0  0  0
  -57.9437    4.8718  -51.1136 O   0  0  0  0  0  0  0  0  0  0  0  0
  2  3  1  0
  2  1  1  1
  4  2  1  0
  5  4  2  0
  6  7  1  0
  7  9  1  0
  7  8  2  0
  9 10  1  0
 11 10  1  6
 11 12  1  0
 12  4  1  0
 13 15  1  0
 13 11  1  0
 14 13  2  0
 15 19  1  0
 16 17  1  0
 16 15  1  0
 17 18  1  0
 18 19  1  0
 19 20  1  1
 20 21  2  0
 20 22  1  0
M  END
$$$$
