AQP.pdb
     RDKit          3D

 22 22  0  0  1  0  0  0  0  0999 V2000
    8.5032  -12.9493   19.8862 C   0  0  0  0  0  0  0  0  0  0  0  0
    7.9738  -14.3548   20.0838 C   0  0  2  0  0  0  0  0  0  0  0  0
    6.9680  -14.5751   19.0628 N   0  0  0  0  0  0  0  0  0  0  0  0
    7.3738  -14.4396   21.4307 C   0  0  0  0  0  0  0  0  0  0  0  0
    6.2508  -13.9694   21.7243 O   0  0  0  0  0  0  0  0  0  0  0  0
    7.6207  -19.4923   24.8601 N   0  0  0  0  0  0  0  0  0  0  0  0
    6.9973  -18.5868   25.7550 C   0  0  0  0  0  0  0  0  0  0  0  0
    6.5067  -19.0343   26.7873 O   0  0  0  0  0  0  0  0  0  0  0  0
    6.9908  -17.1650   25.3697 C   0  0  0  0  0  0  0  0  0  0  0  0
    7.5809  -16.8665   24.0176 C   0  0  0  0  0  0  0  0  0  0  0  0
    7.5387  -15.3806   23.7685 C   0  0  2  0  0  0  0  0  0  0  0  0
    8.0893  -15.0826   22.4596 N   0  0  0  0  0  0  0  0  0  0  0  0
    8.1705  -14.5889   24.8391 C   0  0  0  0  0  0  0  0  0  0  0  0
    9.4283  -14.6501   24.9291 O   0  0  0  0  0  0  0  0  0  0  0  0
    7.4764  -13.7747   25.7616 N   0  0  0  0  0  0  0  0  0  0  0  0
    6.0652  -13.3984   25.7718 C   0  0  0  0  0  0  0  0  0  0  0  0
    6.0448  -12.0284   26.4717 C   0  0  0  0  0  0  0  0  0  0  0  0
    7.0300  -12.3091   27.5788 C   0  0  0  0  0  0  0  0  0  0  0  0
    8.0661  -13.1257   26.9190 C   0  0  1  0  0  0  0  0  0  0  0  0
    8.7207  -14.0618   27.8329 C   0  0  0  0  0  0  0  0  0  0  0  0
    8.4757  -15.2872   27.7029 O   0  0  0  0  0  0  0  0  0  0  0  0
    9.5967  -13.6944   28.8381 O   0  0  0  0  0  0  0  0  0  0  0  0
  2  3  1  0
  2  1  1  6
  4  2  1  0
  5  4  2  0
  6  7  1  0
  7  9  1  0
  7  8  2  0
  9 10  1  0
 11 10  1  1
 11 12  1  0
 12  4  1  0
 13 15  1  0
 13 11  1  0
 14 13  2  0
 15 19  1  0
 16 17  1  0
 16 15  1  0
 17 18  1  0
 18 19  1  0
 19 20  1  1
 20 21  2  0
 20 22  1  0
M  END
$$$$
