AQP.pdb
     RDKit          3D

 22 22  0  0  1  0  0  0  0  0999 V2000
   13.0148  -18.1578   24.7490 C   0  0  0  0  0  0  0  0  0  0  0  0
   12.7531  -17.6337   23.3520 C   0  0  2  0  0  0  0  0  0  0  0  0
   14.0311  -17.2118   22.8124 N   0  0  0  0  0  0  0  0  0  0  0  0
   11.8277  -16.4869   23.4524 C   0  0  0  0  0  0  0  0  0  0  0  0
   12.1375  -15.3837   23.9575 O   0  0  0  0  0  0  0  0  0  0  0  0
    7.3623  -12.4899   19.9607 N   0  0  0  0  0  0  0  0  0  0  0  0
    7.5516  -13.8798   20.1649 C   0  0  0  0  0  0  0  0  0  0  0  0
    7.3767  -14.6364   19.2144 O   0  0  0  0  0  0  0  0  0  0  0  0
    7.9498  -14.3080   21.5169 C   0  0  0  0  0  0  0  0  0  0  0  0
    8.8983  -15.4759   21.5641 C   0  0  0  0  0  0  0  0  0  0  0  0
    9.5465  -15.5414   22.9232 C   0  0  2  0  0  0  0  0  0  0  0  0
   10.5158  -16.6205   22.9574 N   0  0  0  0  0  0  0  0  0  0  0  0
    8.5779  -15.6186   24.0313 C   0  0  0  0  0  0  0  0  0  0  0  0
    8.3550  -16.7625   24.5171 O   0  0  0  0  0  0  0  0  0  0  0  0
    7.8889  -14.5157   24.5831 N   0  0  0  0  0  0  0  0  0  0  0  0
    7.9144  -13.1165   24.1655 C   0  0  0  0  0  0  0  0  0  0  0  0
    7.6290  -12.3315   25.4577 C   0  0  0  0  0  0  0  0  0  0  0  0
    6.5388  -13.2013   26.0318 C   0  0  0  0  0  0  0  0  0  0  0  0
    6.9926  -14.5706   25.7242 C   0  0  1  0  0  0  0  0  0  0  0  0
    5.8858  -15.5099   25.5426 C   0  0  0  0  0  0  0  0  0  0  0  0
    5.5704  -15.8355   24.3709 O   0  0  0  0  0  0  0  0  0  0  0  0
    5.1549  -16.0705   26.5743 O   0  0  0  0  0  0  0  0  0  0  0  0
  2  3  1  0
  2  1  1  1
  4  2  1  0
  5  4  2  0
  6  7  1  0
  7  9  1  0
  7  8  2  0
  9 10  1  0
 11 10  1  6
 11 12  1  0
 12  4  1  0
 13 15  1  0
 13 11  1  0
 14 13  2  0
 15 19  1  0
 16 17  1  0
 16 15  1  0
 17 18  1  0
 18 19  1  0
 19 20  1  6
 20 21  2  0
 20 22  1  0
M  END
$$$$
