AQP.pdb
     RDKit          3D

 22 22  0  0  1  0  0  0  0  0999 V2000
   10.1157  -13.0603   19.9357 C   0  0  0  0  0  0  0  0  0  0  0  0
    8.9692  -14.0263   19.7183 C   0  0  2  0  0  0  0  0  0  0  0  0
    8.3575  -13.6779   18.4506 N   0  0  0  0  0  0  0  0  0  0  0  0
    8.0046  -13.8580   20.8240 C   0  0  0  0  0  0  0  0  0  0  0  0
    7.1057  -12.9862   20.8379 O   0  0  0  0  0  0  0  0  0  0  0  0
    7.4779  -19.4344   24.0149 N   0  0  0  0  0  0  0  0  0  0  0  0
    6.6536  -18.2891   23.8804 C   0  0  0  0  0  0  0  0  0  0  0  0
    5.4989  -18.3521   24.2916 O   0  0  0  0  0  0  0  0  0  0  0  0
    7.2579  -17.1014   23.2526 C   0  0  0  0  0  0  0  0  0  0  0  0
    6.3555  -15.9006   23.1556 C   0  0  0  0  0  0  0  0  0  0  0  0
    7.1918  -14.6489   23.0805 C   0  0  2  0  0  0  0  0  0  0  0  0
    8.0827  -14.7173   21.9373 N   0  0  0  0  0  0  0  0  0  0  0  0
    7.9053  -14.3449   24.3337 C   0  0  0  0  0  0  0  0  0  0  0  0
    9.0821  -14.7889   24.4436 O   0  0  0  0  0  0  0  0  0  0  0  0
    7.3723  -13.5997   25.4089 N   0  0  0  0  0  0  0  0  0  0  0  0
    6.0878  -12.9104   25.4990 C   0  0  0  0  0  0  0  0  0  0  0  0
    6.3492  -11.7510   26.4761 C   0  0  0  0  0  0  0  0  0  0  0  0
    7.1850  -12.4810   27.4976 C   0  0  0  0  0  0  0  0  0  0  0  0
    8.0363  -13.3642   26.6786 C   0  0  1  0  0  0  0  0  0  0  0  0
    8.4091  -14.5977   27.3710 C   0  0  0  0  0  0  0  0  0  0  0  0
    7.8528  -15.6675   27.0181 O   0  0  0  0  0  0  0  0  0  0  0  0
    9.3366  -14.6738   28.3942 O   0  0  0  0  0  0  0  0  0  0  0  0
  2  3  1  0
  2  1  1  1
  4  2  1  0
  5  4  2  0
  6  7  1  0
  7  9  1  0
  7  8  2  0
  9 10  1  0
 11 10  1  1
 11 12  1  0
 12  4  1  0
 13 15  1  0
 13 11  1  0
 14 13  2  0
 15 19  1  0
 16 17  1  0
 16 15  1  0
 17 18  1  0
 18 19  1  0
 19 20  1  1
 20 21  2  0
 20 22  1  0
M  END
$$$$
