AQP.pdb
     RDKit          3D

 22 22  0  0  1  0  0  0  0  0999 V2000
   13.2305  -16.3598   16.0457 C   0  0  0  0  0  0  0  0  0  0  0  0
   11.9512  -17.0126   15.5640 C   0  0  2  0  0  0  0  0  0  0  0  0
   11.8851  -16.8064   14.1302 N   0  0  0  0  0  0  0  0  0  0  0  0
   10.8127  -16.3543   16.2363 C   0  0  0  0  0  0  0  0  0  0  0  0
   10.4636  -15.1716   16.0180 O   0  0  0  0  0  0  0  0  0  0  0  0
    6.3529  -19.8137   18.7460 N   0  0  0  0  0  0  0  0  0  0  0  0
    6.4658  -19.3912   17.3976 C   0  0  0  0  0  0  0  0  0  0  0  0
    5.8377  -20.0060   16.5410 O   0  0  0  0  0  0  0  0  0  0  0  0
    7.3367  -18.2334   17.1314 C   0  0  0  0  0  0  0  0  0  0  0  0
    8.0147  -17.6514   18.3428 C   0  0  0  0  0  0  0  0  0  0  0  0
    8.9355  -16.5372   17.9158 C   0  0  2  0  0  0  0  0  0  0  0  0
   10.0625  -17.0810   17.1814 N   0  0  0  0  0  0  0  0  0  0  0  0
    9.3552  -15.6654   19.0275 C   0  0  0  0  0  0  0  0  0  0  0  0
   10.3809  -16.0172   19.6741 O   0  0  0  0  0  0  0  0  0  0  0  0
    8.6988  -14.4766   19.4168 N   0  0  0  0  0  0  0  0  0  0  0  0
    7.5788  -13.7947   18.7734 C   0  0  0  0  0  0  0  0  0  0  0  0
    7.7750  -12.3143   19.1437 C   0  0  0  0  0  0  0  0  0  0  0  0
    8.1698  -12.4783   20.5901 C   0  0  0  0  0  0  0  0  0  0  0  0
    9.0363  -13.6720   20.5774 C   0  0  1  0  0  0  0  0  0  0  0  0
    8.9894  -14.4228   21.8321 C   0  0  0  0  0  0  0  0  0  0  0  0
    8.3386  -15.4972   21.8565 O   0  0  0  0  0  0  0  0  0  0  0  0
    9.6138  -14.0339   23.0033 O   0  0  0  0  0  0  0  0  0  0  0  0
  2  3  1  0
  2  1  1  1
  4  2  1  0
  5  4  2  0
  6  7  1  0
  7  9  1  0
  7  8  2  0
  9 10  1  0
 11 10  1  1
 11 12  1  0
 12  4  1  0
 13 15  1  0
 13 11  1  0
 14 13  2  0
 15 19  1  0
 16 17  1  0
 16 15  1  0
 17 18  1  0
 18 19  1  0
 19 20  1  1
 20 21  2  0
 20 22  1  0
M  END
$$$$
