AQP.pdb
     RDKit          3D

 22 22  0  0  1  0  0  0  0  0999 V2000
    8.6600  -12.5623   19.9270 C   0  0  0  0  0  0  0  0  0  0  0  0
    8.0477  -13.9471   19.9751 C   0  0  2  0  0  0  0  0  0  0  0  0
    7.0391  -13.9997   18.9346 N   0  0  0  0  0  0  0  0  0  0  0  0
    7.4328  -14.1366   21.3045 C   0  0  0  0  0  0  0  0  0  0  0  0
    6.3154  -13.6729   21.6280 O   0  0  0  0  0  0  0  0  0  0  0  0
    7.6166  -19.3833   24.4924 N   0  0  0  0  0  0  0  0  0  0  0  0
    6.9218  -18.5226   25.3788 C   0  0  0  0  0  0  0  0  0  0  0  0
    6.3745  -19.0170   26.3599 O   0  0  0  0  0  0  0  0  0  0  0  0
    6.9149  -17.0873   25.0477 C   0  0  0  0  0  0  0  0  0  0  0  0
    7.5689  -16.7298   23.7399 C   0  0  0  0  0  0  0  0  0  0  0  0
    7.5768  -15.2315   23.5757 C   0  0  2  0  0  0  0  0  0  0  0  0
    8.1265  -14.8789   22.2801 N   0  0  0  0  0  0  0  0  0  0  0  0
    8.2449  -14.5243   24.6828 C   0  0  0  0  0  0  0  0  0  0  0  0
    9.4912  -14.6899   24.7975 O   0  0  0  0  0  0  0  0  0  0  0  0
    7.5970  -13.6828   25.6144 N   0  0  0  0  0  0  0  0  0  0  0  0
    6.2162  -13.2070   25.6147 C   0  0  0  0  0  0  0  0  0  0  0  0
    6.2831  -11.8546   26.3453 C   0  0  0  0  0  0  0  0  0  0  0  0
    7.2295  -12.2290   27.4585 C   0  0  0  0  0  0  0  0  0  0  0  0
    8.2144  -13.1031   26.7938 C   0  0  1  0  0  0  0  0  0  0  0  0
    8.7872  -14.1032   27.6947 C   0  0  0  0  0  0  0  0  0  0  0  0
    8.4156  -15.2968   27.5692 O   0  0  0  0  0  0  0  0  0  0  0  0
    9.7155  -13.8296   28.6828 O   0  0  0  0  0  0  0  0  0  0  0  0
  2  3  1  0
  2  1  1  1
  4  2  1  0
  5  4  2  0
  6  7  1  0
  7  9  1  0
  7  8  2  0
  9 10  1  0
 11 10  1  1
 11 12  1  0
 12  4  1  0
 13 15  1  0
 13 11  1  0
 14 13  2  0
 15 19  1  0
 16 17  1  0
 16 15  1  0
 17 18  1  0
 18 19  1  0
 19 20  1  1
 20 21  2  0
 20 22  1  0
M  END
$$$$
