AQP.pdb
     RDKit          3D

 22 22  0  0  1  0  0  0  0  0999 V2000
    8.4825  -12.3642   19.8209 C   0  0  0  0  0  0  0  0  0  0  0  0
    8.2835  -13.8626   19.9222 C   0  0  2  0  0  0  0  0  0  0  0  0
    7.5075  -14.2651   18.7653 N   0  0  0  0  0  0  0  0  0  0  0  0
    7.5446  -14.1493   21.1685 C   0  0  0  0  0  0  0  0  0  0  0  0
    6.3192  -13.9378   21.3165 O   0  0  0  0  0  0  0  0  0  0  0  0
    7.6203  -19.2949   24.2324 N   0  0  0  0  0  0  0  0  0  0  0  0
    6.9550  -18.4670   25.1712 C   0  0  0  0  0  0  0  0  0  0  0  0
    6.4067  -19.0003   26.1311 O   0  0  0  0  0  0  0  0  0  0  0  0
    6.9779  -17.0163   24.9164 C   0  0  0  0  0  0  0  0  0  0  0  0
    7.6498  -16.6028   23.6345 C   0  0  0  0  0  0  0  0  0  0  0  0
    7.6067  -15.1017   23.5066 C   0  0  2  0  0  0  0  0  0  0  0  0
    8.2394  -14.6926   22.2667 N   0  0  0  0  0  0  0  0  0  0  0  0
    8.1565  -14.3978   24.6789 C   0  0  0  0  0  0  0  0  0  0  0  0
    9.3999  -14.4976   24.8744 O   0  0  0  0  0  0  0  0  0  0  0  0
    7.3997  -13.6271   25.5894 N   0  0  0  0  0  0  0  0  0  0  0  0
    6.0148  -13.1767   25.4795 C   0  0  0  0  0  0  0  0  0  0  0  0
    5.9767  -11.8711   26.2926 C   0  0  0  0  0  0  0  0  0  0  0  0
    6.8168  -12.2967   27.4708 C   0  0  0  0  0  0  0  0  0  0  0  0
    7.8832  -13.1105   26.8574 C   0  0  1  0  0  0  0  0  0  0  0  0
    8.3876  -14.1541   27.7498 C   0  0  0  0  0  0  0  0  0  0  0  0
    9.1883  -13.8211   28.6590 O   0  0  0  0  0  0  0  0  0  0  0  0
    8.0454  -15.4915   27.6659 O   0  0  0  0  0  0  0  0  0  0  0  0
  2  3  1  0
  2  1  1  6
  4  2  1  0
  5  4  2  0
  6  7  1  0
  7  9  1  0
  7  8  2  0
  9 10  1  0
 11 10  1  1
 11 12  1  0
 12  4  1  0
 13 15  1  0
 13 11  1  0
 14 13  2  0
 15 19  1  0
 16 17  1  0
 16 15  1  0
 17 18  1  0
 18 19  1  0
 19 20  1  1
 20 21  2  0
 20 22  1  0
M  END
$$$$
