AQP.pdb
     RDKit          3D

 22 22  0  0  1  0  0  0  0  0999 V2000
    8.3694  -12.6048   19.7251 C   0  0  0  0  0  0  0  0  0  0  0  0
    8.3577  -14.1089   19.9053 C   0  0  2  0  0  0  0  0  0  0  0  0
    7.8108  -14.6763   18.6881 N   0  0  0  0  0  0  0  0  0  0  0  0
    7.4965  -14.4311   21.0611 C   0  0  0  0  0  0  0  0  0  0  0  0
    6.3541  -14.9342   20.9602 O   0  0  0  0  0  0  0  0  0  0  0  0
    7.9181  -19.0909   23.4348 N   0  0  0  0  0  0  0  0  0  0  0  0
    7.2140  -18.5284   24.5290 C   0  0  0  0  0  0  0  0  0  0  0  0
    6.7601  -19.2870   25.3803 O   0  0  0  0  0  0  0  0  0  0  0  0
    7.0848  -17.0612   24.5567 C   0  0  0  0  0  0  0  0  0  0  0  0
    7.7110  -16.3422   23.3920 C   0  0  0  0  0  0  0  0  0  0  0  0
    7.5069  -14.8573   23.5503 C   0  0  2  0  0  0  0  0  0  0  0  0
    7.9681  -14.1651   22.3614 N   0  0  0  0  0  0  0  0  0  0  0  0
    8.0996  -14.3128   24.7850 C   0  0  0  0  0  0  0  0  0  0  0  0
    9.3243  -14.5471   24.9828 O   0  0  0  0  0  0  0  0  0  0  0  0
    7.4025  -13.5550   25.7522 N   0  0  0  0  0  0  0  0  0  0  0  0
    5.9790  -13.2342   25.8142 C   0  0  0  0  0  0  0  0  0  0  0  0
    5.9273  -11.8884   26.5580 C   0  0  0  0  0  0  0  0  0  0  0  0
    6.9545  -12.1647   27.6273 C   0  0  0  0  0  0  0  0  0  0  0  0
    8.0009  -12.9198   26.9128 C   0  0  1  0  0  0  0  0  0  0  0  0
    8.7170  -13.8577   27.7775 C   0  0  0  0  0  0  0  0  0  0  0  0
    8.4722  -15.0838   27.6539 O   0  0  0  0  0  0  0  0  0  0  0  0
    9.6515  -13.4912   28.7289 O   0  0  0  0  0  0  0  0  0  0  0  0
  2  3  1  0
  2  1  1  6
  4  2  1  0
  5  4  2  0
  6  7  1  0
  7  9  1  0
  7  8  2  0
  9 10  1  0
 11 10  1  6
 11 12  1  0
 12  4  1  0
 13 15  1  0
 13 11  1  0
 14 13  2  0
 15 19  1  0
 16 17  1  0
 16 15  1  0
 17 18  1  0
 18 19  1  0
 19 20  1  1
 20 21  2  0
 20 22  1  0
M  END
$$$$
