VMK.pdb
     RDKit          3D

 25 24  0  0  1  0  0  0  0  0999 V2000
    7.7382  -12.4286   20.3314 C   0  0  0  0  0  0  0  0  0  0  0  0
    8.3194  -13.5104   19.4726 C   0  0  2  0  0  0  0  0  0  0  0  0
    7.7542  -13.5330   18.0768 C   0  0  0  0  0  0  0  0  0  0  0  0
    8.2188  -14.8806   20.1268 C   0  0  2  0  0  0  0  0  0  0  0  0
    6.8040  -15.2360   20.0396 N   0  0  0  0  0  0  0  0  0  0  0  0
    8.6390  -14.7372   21.5450 C   0  0  0  0  0  0  0  0  0  0  0  0
    9.8800  -14.7078   21.8631 O   0  0  0  0  0  0  0  0  0  0  0  0
    6.0776  -11.1046   26.2619 C   0  0  0  0  0  0  0  0  0  0  0  0
    6.4122  -12.6354   27.1662 S   0  0  0  0  0  0  0  0  0  0  0  0
    7.6349  -13.6067   26.2168 C   0  0  0  0  0  0  0  0  0  0  0  0
    7.1223  -13.8577   24.8372 C   0  0  0  0  0  0  0  0  0  0  0  0
    8.2132  -14.5211   23.9850 C   0  0  2  0  0  0  0  0  0  0  0  0
    7.7337  -14.6230   22.6348 N   0  0  0  0  0  0  0  0  0  0  0  0
    8.5566  -15.8250   24.6027 C   0  0  0  0  0  0  0  0  0  0  0  0
    7.6074  -16.6850   24.5746 O   0  0  0  0  0  0  0  0  0  0  0  0
    9.8169  -16.0991   25.1723 N   0  0  0  0  0  0  0  0  0  0  0  0
   10.1153  -17.4217   25.6567 C   0  0  1  0  0  0  0  0  0  0  0  0
   11.2228  -17.9483   24.8051 C   0  0  0  0  0  0  0  0  0  0  0  0
   11.7250  -19.2988   25.1265 C   0  0  0  0  0  0  0  0  0  0  0  0
   12.7944  -19.8376   24.2312 C   0  0  0  0  0  0  0  0  0  0  0  0
   13.0693  -21.2766   24.6314 C   0  0  0  0  0  0  0  0  0  0  0  0
   14.0020  -21.8863   23.6980 N   0  0  0  0  0  0  0  0  0  0  0  0
   10.3618  -17.3887   27.0822 C   0  0  0  0  0  0  0  0  0  0  0  0
   10.0368  -18.5329   27.8316 O   0  0  0  0  0  0  0  0  0  0  0  0
   10.8413  -16.4379   27.7414 O   0  0  0  0  0  0  0  0  0  0  0  0
  2  4  1  0
  2  1  1  1
  3  2  1  0
  4  5  1  1
  6  4  1  0
  6  7  2  0
  9  8  1  0
 10  9  1  0
 11 10  1  0
 12 11  1  1
 13 12  1  0
 13  6  1  0
 14 15  2  0
 14 12  1  0
 16 14  1  0
 17 16  1  0
 17 23  1  0
 17 18  1  6
 19 18  1  0
 20 19  1  0
 21 22  1  0
 21 20  1  0
 23 24  1  0
 25 23  2  0
M  END
$$$$
