VMK.pdb
     RDKit          3D

 25 24  0  0  1  0  0  0  0  0999 V2000
    7.6760  -20.7703   24.0787 C   0  0  0  0  0  0  0  0  0  0  0  0
    6.3373  -20.6355   24.7384 C   0  0  2  0  0  0  0  0  0  0  0  0
    5.5907  -21.9390   24.8457 C   0  0  0  0  0  0  0  0  0  0  0  0
    5.4782  -19.5642   24.0828 C   0  0  2  0  0  0  0  0  0  0  0  0
    5.1672  -20.0915   22.7560 N   0  0  0  0  0  0  0  0  0  0  0  0
    6.2964  -18.3280   23.9795 C   0  0  0  0  0  0  0  0  0  0  0  0
    7.0899  -18.1457   22.9900 O   0  0  0  0  0  0  0  0  0  0  0  0
    7.8358  -11.0121   26.4350 C   0  0  0  0  0  0  0  0  0  0  0  0
    6.9010  -12.5261   26.7621 S   0  0  0  0  0  0  0  0  0  0  0  0
    7.4863  -13.8209   25.6129 C   0  0  0  0  0  0  0  0  0  0  0  0
    6.6965  -15.0719   25.8135 C   0  0  0  0  0  0  0  0  0  0  0  0
    7.1418  -16.1407   24.8057 C   0  0  2  0  0  0  0  0  0  0  0  0
    6.2710  -17.2757   24.9348 N   0  0  0  0  0  0  0  0  0  0  0  0
    8.5717  -16.4465   25.0543 C   0  0  0  0  0  0  0  0  0  0  0  0
    8.7814  -17.1637   26.0949 O   0  0  0  0  0  0  0  0  0  0  0  0
    9.6130  -15.9902   24.2204 N   0  0  0  0  0  0  0  0  0  0  0  0
   10.9523  -16.4852   24.4054 C   0  0  1  0  0  0  0  0  0  0  0  0
   11.7183  -16.1123   23.1793 C   0  0  0  0  0  0  0  0  0  0  0  0
   11.5257  -16.9644   21.9893 C   0  0  0  0  0  0  0  0  0  0  0  0
   12.2907  -16.5745   20.7653 C   0  0  0  0  0  0  0  0  0  0  0  0
   11.9400  -17.5492   19.6547 C   0  0  0  0  0  0  0  0  0  0  0  0
   12.7517  -17.2813   18.4789 N   0  0  0  0  0  0  0  0  0  0  0  0
   11.4893  -16.0172   25.6649 C   0  0  0  0  0  0  0  0  0  0  0  0
   12.5898  -16.7047   26.2058 O   0  0  0  0  0  0  0  0  0  0  0  0
   11.0784  -15.0493   26.3452 O   0  0  0  0  0  0  0  0  0  0  0  0
  2  4  1  0
  2  1  1  6
  3  2  1  0
  4  5  1  6
  6  4  1  0
  6  7  2  0
  9  8  1  0
 10  9  1  0
 11 10  1  0
 12 11  1  1
 13 12  1  0
 13  6  1  0
 14 15  2  0
 14 12  1  0
 16 14  1  0
 17 16  1  0
 17 23  1  0
 17 18  1  6
 19 18  1  0
 20 19  1  0
 21 22  1  0
 21 20  1  0
 23 24  1  0
 25 23  2  0
M  END
$$$$
