VMK.pdb
     RDKit          3D

 25 24  0  0  1  0  0  0  0  0999 V2000
    7.2670  -13.7948   20.1232 C   0  0  0  0  0  0  0  0  0  0  0  0
    8.3290  -14.7276   19.6257 C   0  0  2  0  0  0  0  0  0  0  0  0
    7.9499  -15.4402   18.3541 C   0  0  0  0  0  0  0  0  0  0  0  0
    8.7748  -15.7144   20.6948 C   0  0  2  0  0  0  0  0  0  0  0  0
    7.6455  -16.6273   20.8582 N   0  0  0  0  0  0  0  0  0  0  0  0
    9.0177  -14.9485   21.9450 C   0  0  0  0  0  0  0  0  0  0  0  0
   10.1219  -14.3253   22.1299 O   0  0  0  0  0  0  0  0  0  0  0  0
    6.5247  -11.1994   28.3235 C   0  0  0  0  0  0  0  0  0  0  0  0
    6.0309  -12.1695   26.8783 S   0  0  0  0  0  0  0  0  0  0  0  0
    7.5302  -12.9214   26.1529 C   0  0  0  0  0  0  0  0  0  0  0  0
    7.1794  -13.6339   24.8887 C   0  0  0  0  0  0  0  0  0  0  0  0
    8.4435  -14.2317   24.2553 C   0  0  2  0  0  0  0  0  0  0  0  0
    8.0794  -14.8426   23.0073 N   0  0  0  0  0  0  0  0  0  0  0  0
    9.0529  -15.1688   25.2301 C   0  0  0  0  0  0  0  0  0  0  0  0
    9.3532  -14.6337   26.3548 O   0  0  0  0  0  0  0  0  0  0  0  0
    9.2833  -16.5309   24.9484 N   0  0  0  0  0  0  0  0  0  0  0  0
    9.8558  -17.3870   25.9544 C   0  0  1  0  0  0  0  0  0  0  0  0
    9.6046  -18.7910   25.5134 C   0  0  0  0  0  0  0  0  0  0  0  0
   10.1898  -19.8637   26.3418 C   0  0  0  0  0  0  0  0  0  0  0  0
    9.9773  -21.2629   25.8597 C   0  0  0  0  0  0  0  0  0  0  0  0
   10.7142  -22.2054   26.7952 C   0  0  0  0  0  0  0  0  0  0  0  0
   10.3683  -23.5841   26.4911 N   0  0  0  0  0  0  0  0  0  0  0  0
   11.2368  -17.0260   26.1917 C   0  0  0  0  0  0  0  0  0  0  0  0
   11.6881  -16.9944   27.5228 O   0  0  0  0  0  0  0  0  0  0  0  0
   12.0965  -16.7314   25.3301 O   0  0  0  0  0  0  0  0  0  0  0  0
  2  4  1  0
  2  1  1  1
  3  2  1  0
  4  5  1  1
  6  4  1  0
  6  7  2  0
  9  8  1  0
 10  9  1  0
 11 10  1  0
 12 11  1  1
 13 12  1  0
 13  6  1  0
 14 15  2  0
 14 12  1  0
 16 14  1  0
 17 16  1  0
 17 23  1  0
 17 18  1  6
 19 18  1  0
 20 19  1  0
 21 22  1  0
 21 20  1  0
 23 24  1  0
 25 23  2  0
M  END
$$$$
