VMK.pdb
     RDKit          3D

 25 24  0  0  1  0  0  0  0  0999 V2000
    7.6005  -12.3703   20.5279 C   0  0  0  0  0  0  0  0  0  0  0  0
    8.0498  -13.4271   19.5651 C   0  0  2  0  0  0  0  0  0  0  0  0
    7.2737  -13.4276   18.2743 C   0  0  0  0  0  0  0  0  0  0  0  0
    8.0645  -14.8116   20.1963 C   0  0  2  0  0  0  0  0  0  0  0  0
    6.6588  -15.2022   20.2787 N   0  0  0  0  0  0  0  0  0  0  0  0
    8.6559  -14.6842   21.5537 C   0  0  0  0  0  0  0  0  0  0  0  0
    9.9171  -14.5183   21.7082 O   0  0  0  0  0  0  0  0  0  0  0  0
    5.9409  -11.8380   26.5931 C   0  0  0  0  0  0  0  0  0  0  0  0
    7.6729  -12.0512   27.0706 S   0  0  0  0  0  0  0  0  0  0  0  0
    8.3039  -13.5711   26.2760 C   0  0  0  0  0  0  0  0  0  0  0  0
    7.6481  -13.7588   24.9479 C   0  0  0  0  0  0  0  0  0  0  0  0
    8.5436  -14.6094   24.0363 C   0  0  2  0  0  0  0  0  0  0  0  0
    7.9014  -14.7322   22.7573 N   0  0  0  0  0  0  0  0  0  0  0  0
    8.7958  -15.9058   24.7112 C   0  0  0  0  0  0  0  0  0  0  0  0
    7.7473  -16.6229   24.8780 O   0  0  0  0  0  0  0  0  0  0  0  0
   10.0762  -16.3177   25.1339 N   0  0  0  0  0  0  0  0  0  0  0  0
   10.2852  -17.6692   25.5839 C   0  0  1  0  0  0  0  0  0  0  0  0
   11.4820  -18.1820   24.8534 C   0  0  0  0  0  0  0  0  0  0  0  0
   11.2321  -18.9016   23.5888 C   0  0  0  0  0  0  0  0  0  0  0  0
   12.4361  -19.4406   22.8849 C   0  0  0  0  0  0  0  0  0  0  0  0
   11.9803  -20.0811   21.5856 C   0  0  0  0  0  0  0  0  0  0  0  0
   13.1319  -20.4666   20.7866 N   0  0  0  0  0  0  0  0  0  0  0  0
   10.3484  -17.7114   27.0289 C   0  0  0  0  0  0  0  0  0  0  0  0
   10.1924  -18.9594   27.6570 O   0  0  0  0  0  0  0  0  0  0  0  0
   10.5296  -16.7437   27.8030 O   0  0  0  0  0  0  0  0  0  0  0  0
  2  4  1  0
  2  1  1  1
  3  2  1  0
  4  5  1  1
  6  4  1  0
  6  7  2  0
  9  8  1  0
 10  9  1  0
 11 10  1  0
 12 11  1  1
 13 12  1  0
 13  6  1  0
 14 15  2  0
 14 12  1  0
 16 14  1  0
 17 16  1  0
 17 23  1  0
 17 18  1  6
 19 18  1  0
 20 19  1  0
 21 22  1  0
 21 20  1  0
 23 24  1  0
 25 23  2  0
M  END
$$$$
