VMK.pdb
     RDKit          3D

 25 24  0  0  1  0  0  0  0  0999 V2000
    7.2088  -13.5524   18.6177 C   0  0  0  0  0  0  0  0  0  0  0  0
    7.6567  -13.4251   20.0420 C   0  0  2  0  0  0  0  0  0  0  0  0
    8.5554  -12.2405   20.2816 C   0  0  0  0  0  0  0  0  0  0  0  0
    8.2896  -14.7072   20.5628 C   0  0  2  0  0  0  0  0  0  0  0  0
    7.2332  -15.7126   20.4701 N   0  0  0  0  0  0  0  0  0  0  0  0
    8.6758  -14.4785   21.9795 C   0  0  0  0  0  0  0  0  0  0  0  0
    9.7831  -13.9051   22.2745 O   0  0  0  0  0  0  0  0  0  0  0  0
    5.6139  -11.9540   26.4534 C   0  0  0  0  0  0  0  0  0  0  0  0
    6.6286  -12.8715   27.6374 S   0  0  0  0  0  0  0  0  0  0  0  0
    7.7840  -13.9332   26.7007 C   0  0  0  0  0  0  0  0  0  0  0  0
    7.2796  -14.1272   25.3090 C   0  0  0  0  0  0  0  0  0  0  0  0
    8.3795  -14.7442   24.4337 C   0  0  2  0  0  0  0  0  0  0  0  0
    7.8788  -14.8610   23.0925 N   0  0  0  0  0  0  0  0  0  0  0  0
    8.7862  -16.0352   25.0400 C   0  0  0  0  0  0  0  0  0  0  0  0
    8.3506  -16.2155   26.2313 O   0  0  0  0  0  0  0  0  0  0  0  0
    9.5826  -16.9848   24.3677 N   0  0  0  0  0  0  0  0  0  0  0  0
   10.4811  -17.8273   25.1131 C   0  0  1  0  0  0  0  0  0  0  0  0
   11.6011  -18.1784   24.1904 C   0  0  0  0  0  0  0  0  0  0  0  0
   11.2315  -18.5935   22.8227 C   0  0  0  0  0  0  0  0  0  0  0  0
   12.3477  -19.0774   21.9535 C   0  0  0  0  0  0  0  0  0  0  0  0
   11.7599  -19.5105   20.6218 C   0  0  0  0  0  0  0  0  0  0  0  0
   11.6318  -18.3657   19.7352 N   0  0  0  0  0  0  0  0  0  0  0  0
   10.8510  -17.1874   26.3570 C   0  0  0  0  0  0  0  0  0  0  0  0
   10.5069  -17.8350   27.5565 O   0  0  0  0  0  0  0  0  0  0  0  0
   11.4552  -16.0989   26.4931 O   0  0  0  0  0  0  0  0  0  0  0  0
  2  4  1  0
  2  1  1  6
  3  2  1  0
  4  5  1  1
  6  4  1  0
  6  7  2  0
  9  8  1  0
 10  9  1  0
 11 10  1  0
 12 11  1  1
 13 12  1  0
 13  6  1  0
 14 15  2  0
 14 12  1  0
 16 14  1  0
 17 16  1  0
 17 23  1  0
 17 18  1  6
 19 18  1  0
 20 19  1  0
 21 22  1  0
 21 20  1  0
 23 24  1  0
 25 23  2  0
M  END
$$$$
