VMK.pdb
     RDKit          3D

 25 24  0  0  1  0  0  0  0  0999 V2000
    7.0906  -17.6175   18.5360 C   0  0  0  0  0  0  0  0  0  0  0  0
    7.5501  -17.1948   19.8982 C   0  0  2  0  0  0  0  0  0  0  0  0
    6.6209  -17.6263   21.0022 C   0  0  0  0  0  0  0  0  0  0  0  0
    7.8328  -15.7015   19.9723 C   0  0  2  0  0  0  0  0  0  0  0  0
    8.8676  -15.4644   18.9681 N   0  0  0  0  0  0  0  0  0  0  0  0
    8.3443  -15.4045   21.3356 C   0  0  0  0  0  0  0  0  0  0  0  0
    9.5054  -15.8028   21.7032 O   0  0  0  0  0  0  0  0  0  0  0  0
    7.5779  -11.3990   28.0802 C   0  0  0  0  0  0  0  0  0  0  0  0
    6.7886  -11.8454   26.5147 S   0  0  0  0  0  0  0  0  0  0  0  0
    7.8217  -13.1079   25.6912 C   0  0  0  0  0  0  0  0  0  0  0  0
    7.2636  -13.4186   24.3418 C   0  0  0  0  0  0  0  0  0  0  0  0
    8.1949  -14.3870   23.5992 C   0  0  2  0  0  0  0  0  0  0  0  0
    7.6169  -14.6773   22.3166 N   0  0  0  0  0  0  0  0  0  0  0  0
    8.3987  -15.5823   24.4532 C   0  0  0  0  0  0  0  0  0  0  0  0
    7.3485  -16.2986   24.6122 O   0  0  0  0  0  0  0  0  0  0  0  0
    9.6387  -15.9066   25.0408 N   0  0  0  0  0  0  0  0  0  0  0  0
    9.7813  -17.1255   25.7936 C   0  0  1  0  0  0  0  0  0  0  0  0
   10.9382  -17.8601   25.2011 C   0  0  0  0  0  0  0  0  0  0  0  0
   10.7694  -18.3696   23.8259 C   0  0  0  0  0  0  0  0  0  0  0  0
   11.9777  -18.9831   23.1944 C   0  0  0  0  0  0  0  0  0  0  0  0
   11.6122  -19.4095   21.7833 C   0  0  0  0  0  0  0  0  0  0  0  0
   12.7848  -19.9266   21.0971 N   0  0  0  0  0  0  0  0  0  0  0  0
    9.8632  -16.8332   27.2084 C   0  0  0  0  0  0  0  0  0  0  0  0
    9.8756  -17.9173   28.1035 O   0  0  0  0  0  0  0  0  0  0  0  0
    9.9251  -15.7013   27.7408 O   0  0  0  0  0  0  0  0  0  0  0  0
  2  4  1  0
  2  1  1  6
  3  2  1  0
  4  5  1  6
  6  4  1  0
  6  7  2  0
  9  8  1  0
 10  9  1  0
 11 10  1  0
 12 11  1  1
 13 12  1  0
 13  6  1  0
 14 15  2  0
 14 12  1  0
 16 14  1  0
 17 16  1  0
 17 23  1  0
 17 18  1  6
 19 18  1  0
 20 19  1  0
 21 22  1  0
 21 20  1  0
 23 24  1  0
 25 23  2  0
M  END
$$$$
