VMK.pdb
     RDKit          3D

 25 24  0  0  1  0  0  0  0  0999 V2000
    7.3334  -12.6373   20.9989 C   0  0  0  0  0  0  0  0  0  0  0  0
    8.2542  -13.6073   20.3230 C   0  0  2  0  0  0  0  0  0  0  0  0
    7.9592  -13.7885   18.8573 C   0  0  0  0  0  0  0  0  0  0  0  0
    8.3057  -14.9477   21.0415 C   0  0  2  0  0  0  0  0  0  0  0  0
    6.9744  -15.5224   20.8610 N   0  0  0  0  0  0  0  0  0  0  0  0
    8.5736  -14.6811   22.4787 C   0  0  0  0  0  0  0  0  0  0  0  0
    9.7611  -14.4321   22.8908 O   0  0  0  0  0  0  0  0  0  0  0  0
    7.2843  -11.1493   27.7235 C   0  0  0  0  0  0  0  0  0  0  0  0
    5.8702  -11.4890   26.6474 S   0  0  0  0  0  0  0  0  0  0  0  0
    6.4661  -12.4262   25.1961 C   0  0  0  0  0  0  0  0  0  0  0  0
    6.6615  -13.8600   25.5636 C   0  0  0  0  0  0  0  0  0  0  0  0
    7.9064  -14.4171   24.8591 C   0  0  2  0  0  0  0  0  0  0  0  0
    7.5717  -14.6778   23.4868 N   0  0  0  0  0  0  0  0  0  0  0  0
    8.3662  -15.6135   25.6054 C   0  0  0  0  0  0  0  0  0  0  0  0
    8.5704  -15.4070   26.8532 O   0  0  0  0  0  0  0  0  0  0  0  0
    8.5624  -16.8711   24.9988 N   0  0  0  0  0  0  0  0  0  0  0  0
    8.7866  -18.0362   25.8143 C   0  0  1  0  0  0  0  0  0  0  0  0
    7.6163  -18.9383   25.6008 C   0  0  0  0  0  0  0  0  0  0  0  0
    7.6424  -20.2390   26.2985 C   0  0  0  0  0  0  0  0  0  0  0  0
    6.9571  -21.3743   25.6081 C   0  0  0  0  0  0  0  0  0  0  0  0
    6.9486  -22.5671   26.5481 C   0  0  0  0  0  0  0  0  0  0  0  0
    6.0934  -23.6162   26.0178 N   0  0  0  0  0  0  0  0  0  0  0  0
   10.0901  -18.5990   25.5352 C   0  0  0  0  0  0  0  0  0  0  0  0
   10.8028  -18.0915   24.4347 O   0  0  0  0  0  0  0  0  0  0  0  0
   10.6706  -19.5066   26.1738 O   0  0  0  0  0  0  0  0  0  0  0  0
  2  4  1  0
  2  1  1  1
  3  2  1  0
  4  5  1  1
  6  4  1  0
  6  7  2  0
  9  8  1  0
 10  9  1  0
 11 10  1  0
 12 11  1  1
 13 12  1  0
 13  6  1  0
 14 15  2  0
 14 12  1  0
 16 14  1  0
 17 16  1  0
 17 23  1  0
 17 18  1  6
 19 18  1  0
 20 19  1  0
 21 22  1  0
 21 20  1  0
 23 24  1  0
 25 23  2  0
M  END
$$$$
