VMK.pdb
     RDKit          3D

 25 24  0  0  1  0  0  0  0  0999 V2000
    7.6162  -18.5455   18.6866 C   0  0  0  0  0  0  0  0  0  0  0  0
    8.0716  -17.8890   19.9543 C   0  0  2  0  0  0  0  0  0  0  0  0
    7.4817  -18.5096   21.1933 C   0  0  0  0  0  0  0  0  0  0  0  0
    7.8476  -16.3840   19.9354 C   0  0  2  0  0  0  0  0  0  0  0  0
    8.6426  -15.8997   18.8090 N   0  0  0  0  0  0  0  0  0  0  0  0
    8.3606  -15.8338   21.2170 C   0  0  0  0  0  0  0  0  0  0  0  0
    9.6152  -15.8342   21.4772 O   0  0  0  0  0  0  0  0  0  0  0  0
    7.0449  -11.6609   27.7703 C   0  0  0  0  0  0  0  0  0  0  0  0
    6.3031  -12.3826   26.2863 S   0  0  0  0  0  0  0  0  0  0  0  0
    7.5647  -13.4128   25.4576 C   0  0  0  0  0  0  0  0  0  0  0  0
    7.0259  -13.9336   24.1663 C   0  0  0  0  0  0  0  0  0  0  0  0
    8.1024  -14.7535   23.4414 C   0  0  2  0  0  0  0  0  0  0  0  0
    7.5340  -15.2772   22.2306 N   0  0  0  0  0  0  0  0  0  0  0  0
    8.5998  -15.7944   24.3734 C   0  0  0  0  0  0  0  0  0  0  0  0
    7.7118  -16.6461   24.7306 O   0  0  0  0  0  0  0  0  0  0  0  0
    9.9330  -15.8466   24.8292 N   0  0  0  0  0  0  0  0  0  0  0  0
   10.3811  -16.9658   25.6162 C   0  0  1  0  0  0  0  0  0  0  0  0
   11.7410  -17.3232   25.1143 C   0  0  0  0  0  0  0  0  0  0  0  0
   11.8147  -17.9475   23.7785 C   0  0  0  0  0  0  0  0  0  0  0  0
   13.1865  -18.2238   23.2519 C   0  0  0  0  0  0  0  0  0  0  0  0
   13.0496  -18.8725   21.8855 C   0  0  0  0  0  0  0  0  0  0  0  0
   14.2049  -18.5546   21.0625 N   0  0  0  0  0  0  0  0  0  0  0  0
   10.2775  -16.6593   27.0265 C   0  0  0  0  0  0  0  0  0  0  0  0
   10.1729  -17.7343   27.9264 O   0  0  0  0  0  0  0  0  0  0  0  0
   10.2695  -15.5221   27.5511 O   0  0  0  0  0  0  0  0  0  0  0  0
  2  4  1  0
  2  1  1  6
  3  2  1  0
  4  5  1  6
  6  4  1  0
  6  7  2  0
  9  8  1  0
 10  9  1  0
 11 10  1  0
 12 11  1  1
 13 12  1  0
 13  6  1  0
 14 15  2  0
 14 12  1  0
 16 14  1  0
 17 16  1  0
 17 23  1  0
 17 18  1  6
 19 18  1  0
 20 19  1  0
 21 22  1  0
 21 20  1  0
 23 24  1  0
 25 23  2  0
M  END
$$$$
