HIW.pdb
     RDKit          3D

 33 35  0  0  1  0  0  0  0  0999 V2000
    8.6738  -18.9282   19.4961 N   0  0  0  0  0  0  0  0  0  0  0  0
   10.0178  -18.4786   19.2336 C   0  0  1  0  0  0  0  0  0  0  0  0
   10.2040  -18.3422   17.7498 C   0  0  0  0  0  0  0  0  0  0  0  0
    9.9264  -19.6496   17.1065 C   0  0  0  0  0  0  0  0  0  0  0  0
   10.6872  -20.7869   17.0748 C   0  0  0  0  0  0  0  0  0  0  0  0
   10.0227  -21.7129   16.3746 N   0  0  0  0  0  0  0  0  0  0  0  0
    8.8596  -21.1751   15.9679 C   0  0  0  0  0  0  0  0  0  0  0  0
    8.8121  -19.9130   16.4216 N   0  0  0  0  0  0  0  0  0  0  0  0
   10.2980  -17.1353   19.8626 C   0  0  0  0  0  0  0  0  0  0  0  0
   11.3887  -16.5456   19.6675 O   0  0  0  0  0  0  0  0  0  0  0  0
    6.7406  -13.2140   20.0346 C   0  0  0  0  0  0  0  0  0  0  0  0
    8.0677  -13.9261   20.0021 C   0  0  0  0  0  0  0  0  0  0  0  0
    8.4258  -14.3916   21.4155 C   0  0  2  0  0  0  0  0  0  0  0  0
    8.6398  -13.1945   22.3038 C   0  0  0  0  0  0  0  0  0  0  0  0
    9.6708  -15.2415   21.3881 C   0  0  2  0  0  0  0  0  0  0  0  0
    9.3357  -16.5103   20.6880 N   0  0  0  0  0  0  0  0  0  0  0  0
   10.0908  -15.6282   22.7398 C   0  0  0  0  0  0  0  0  0  0  0  0
   11.1654  -15.0818   23.2117 O   0  0  0  0  0  0  0  0  0  0  0  0
    9.4286  -16.5383   23.5767 N   0  0  0  0  0  0  0  0  0  0  0  0
    9.9136  -16.6976   24.9754 C   0  0  1  0  0  0  0  0  0  0  0  0
    9.7251  -15.3309   25.5718 C   0  0  0  0  0  0  0  0  0  0  0  0
    8.3138  -14.9375   25.6341 C   0  0  0  0  0  0  0  0  0  0  0  0
    7.1987  -15.7304   25.3288 C   0  0  0  0  0  0  0  0  0  0  0  0
    6.0816  -15.0027   25.4691 N   0  0  0  0  0  0  0  0  0  0  0  0
    6.3864  -13.7550   25.8553 C   0  0  0  0  0  0  0  0  0  0  0  0
    5.6243  -12.6281   26.1535 C   0  0  0  0  0  0  0  0  0  0  0  0
    6.2892  -11.5027   26.5464 C   0  0  0  0  0  0  0  0  0  0  0  0
    7.6598  -11.4367   26.6582 C   0  0  0  0  0  0  0  0  0  0  0  0
    8.4042  -12.5420   26.3642 C   0  0  0  0  0  0  0  0  0  0  0  0
    7.7808  -13.7005   25.9629 C   0  0  0  0  0  0  0  0  0  0  0  0
    9.1790  -17.7856   25.6126 C   0  0  0  0  0  0  0  0  0  0  0  0
    8.2364  -18.5508   24.9330 O   0  0  0  0  0  0  0  0  0  0  0  0
    9.3902  -18.0543   26.8306 O   0  0  0  0  0  0  0  0  0  0  0  0
  2  1  1  6
  2  3  1  0
  3  4  1  0
  4  8  1  0
  5  4  2  0
  5  6  1  0
  6  7  1  0
  8  7  2  0
  9  2  1  0
  9 10  2  0
 12 11  1  0
 12 13  1  0
 13 14  1  1
 15 13  1  0
 15 16  1  6
 16  9  1  0
 17 15  1  0
 18 17  2  0
 19 17  1  0
 20 21  1  1
 20 19  1  0
 21 22  1  0
 22 30  1  0
 23 22  2  0
 23 24  1  0
 24 25  1  0
 25 26  1  0
 26 27  2  0
 28 27  1  0
 29 28  2  0
 30 25  2  0
 30 29  1  0
 31 32  1  0
 31 20  1  0
 33 31  2  0
M  END
$$$$
