HIW.pdb
     RDKit          3D

 33 35  0  0  1  0  0  0  0  0999 V2000
    8.9533  -17.9310   17.8652 N   0  0  0  0  0  0  0  0  0  0  0  0
   10.2557  -17.4581   18.2623 C   0  0  1  0  0  0  0  0  0  0  0  0
   10.7986  -16.5651   17.1841 C   0  0  0  0  0  0  0  0  0  0  0  0
   10.9401  -17.3498   15.9333 C   0  0  0  0  0  0  0  0  0  0  0  0
   11.2649  -18.6681   15.7610 C   0  0  0  0  0  0  0  0  0  0  0  0
   11.2695  -18.9276   14.4487 N   0  0  0  0  0  0  0  0  0  0  0  0
   10.9530  -17.7950   13.7972 C   0  0  0  0  0  0  0  0  0  0  0  0
   10.7538  -16.8371   14.7157 N   0  0  0  0  0  0  0  0  0  0  0  0
   10.2018  -16.6608   19.5429 C   0  0  0  0  0  0  0  0  0  0  0  0
   11.2482  -16.2031   20.0634 O   0  0  0  0  0  0  0  0  0  0  0  0
    7.1070  -12.6471   20.2469 C   0  0  0  0  0  0  0  0  0  0  0  0
    8.1939  -13.6883   20.3105 C   0  0  0  0  0  0  0  0  0  0  0  0
    7.8997  -14.6558   21.4595 C   0  0  2  0  0  0  0  0  0  0  0  0
    7.8736  -13.9013   22.7626 C   0  0  0  0  0  0  0  0  0  0  0  0
    8.9461  -15.7399   21.5132 C   0  0  2  0  0  0  0  0  0  0  0  0
    8.9682  -16.4118   20.1865 N   0  0  0  0  0  0  0  0  0  0  0  0
    8.5948  -16.7821   22.4846 C   0  0  0  0  0  0  0  0  0  0  0  0
    7.3734  -16.8138   22.9126 O   0  0  0  0  0  0  0  0  0  0  0  0
    9.4647  -17.7577   22.9930 N   0  0  0  0  0  0  0  0  0  0  0  0
    9.9836  -17.5922   24.3789 C   0  0  1  0  0  0  0  0  0  0  0  0
    9.5730  -16.1932   24.7443 C   0  0  0  0  0  0  0  0  0  0  0  0
    9.3410  -16.0362   26.1836 C   0  0  0  0  0  0  0  0  0  0  0  0
    8.6215  -16.8964   27.0249 C   0  0  0  0  0  0  0  0  0  0  0  0
    8.5995  -16.3914   28.2665 N   0  0  0  0  0  0  0  0  0  0  0  0
    9.2701  -15.2306   28.3068 C   0  0  0  0  0  0  0  0  0  0  0  0
    9.5615  -14.3239   29.3230 C   0  0  0  0  0  0  0  0  0  0  0  0
   10.3088  -13.2293   28.9968 C   0  0  0  0  0  0  0  0  0  0  0  0
   10.7788  -12.9886   27.7253 C   0  0  0  0  0  0  0  0  0  0  0  0
   10.4908  -13.8781   26.7312 C   0  0  0  0  0  0  0  0  0  0  0  0
    9.7402  -14.9965   27.0095 C   0  0  0  0  0  0  0  0  0  0  0  0
    9.4496  -18.6604   25.2174 C   0  0  0  0  0  0  0  0  0  0  0  0
    9.8145  -19.9931   25.0544 O   0  0  0  0  0  0  0  0  0  0  0  0
    8.6175  -18.3836   26.1292 O   0  0  0  0  0  0  0  0  0  0  0  0
  2  1  1  6
  2  3  1  0
  3  4  1  0
  4  8  1  0
  5  4  2  0
  5  6  1  0
  6  7  1  0
  8  7  2  0
  9  2  1  0
  9 10  2  0
 12 11  1  0
 12 13  1  0
 13 14  1  1
 15 13  1  0
 15 16  1  6
 16  9  1  0
 17 15  1  0
 18 17  2  0
 19 17  1  0
 20 21  1  1
 20 19  1  0
 21 22  1  0
 22 30  1  0
 23 22  2  0
 23 24  1  0
 24 25  1  0
 25 26  1  0
 26 27  2  0
 28 27  1  0
 29 28  2  0
 30 25  2  0
 30 29  1  0
 31 32  1  0
 31 20  1  0
 33 31  2  0
M  END
$$$$
