HIW.pdb
     RDKit          3D

 33 35  0  0  1  0  0  0  0  0999 V2000
    9.2343  -18.6909   17.9000 N   0  0  0  0  0  0  0  0  0  0  0  0
    8.2987  -18.3233   18.9329 C   0  0  1  0  0  0  0  0  0  0  0  0
    7.9848  -19.5370   19.7595 C   0  0  0  0  0  0  0  0  0  0  0  0
    7.1513  -20.4651   18.9569 C   0  0  0  0  0  0  0  0  0  0  0  0
    6.0347  -20.2106   18.2075 C   0  0  0  0  0  0  0  0  0  0  0  0
    5.6281  -21.3624   17.6620 N   0  0  0  0  0  0  0  0  0  0  0  0
    6.4707  -22.3327   18.0567 C   0  0  0  0  0  0  0  0  0  0  0  0
    7.3980  -21.7718   18.8482 N   0  0  0  0  0  0  0  0  0  0  0  0
    8.8587  -17.2662   19.8534 C   0  0  0  0  0  0  0  0  0  0  0  0
   10.0006  -17.3896   20.3597 O   0  0  0  0  0  0  0  0  0  0  0  0
    7.1573  -12.1670   19.2101 C   0  0  0  0  0  0  0  0  0  0  0  0
    7.9953  -13.3997   19.4279 C   0  0  0  0  0  0  0  0  0  0  0  0
    7.9104  -13.8148   20.8987 C   0  0  2  0  0  0  0  0  0  0  0  0
    8.4957  -12.7310   21.7652 C   0  0  0  0  0  0  0  0  0  0  0  0
    8.6512  -15.1088   21.1221 C   0  0  2  0  0  0  0  0  0  0  0  0
    8.1072  -16.1107   20.1669 N   0  0  0  0  0  0  0  0  0  0  0  0
    8.3973  -15.6524   22.4612 C   0  0  0  0  0  0  0  0  0  0  0  0
    7.2228  -15.4617   22.9714 O   0  0  0  0  0  0  0  0  0  0  0  0
    9.3141  -16.3690   23.2441 N   0  0  0  0  0  0  0  0  0  0  0  0
    9.7316  -15.7933   24.5523 C   0  0  1  0  0  0  0  0  0  0  0  0
    8.7749  -16.4134   25.5318 C   0  0  0  0  0  0  0  0  0  0  0  0
    7.5537  -15.6194   25.7001 C   0  0  0  0  0  0  0  0  0  0  0  0
    6.2465  -15.9919   25.3566 C   0  0  0  0  0  0  0  0  0  0  0  0
    5.4086  -14.9811   25.6272 N   0  0  0  0  0  0  0  0  0  0  0  0
    6.0852  -13.9419   26.1381 C   0  0  0  0  0  0  0  0  0  0  0  0
    5.7090  -12.6813   26.5950 C   0  0  0  0  0  0  0  0  0  0  0  0
    6.6907  -11.8681   27.0830 C   0  0  0  0  0  0  0  0  0  0  0  0
    8.0158  -12.2368   27.1412 C   0  0  0  0  0  0  0  0  0  0  0  0
    8.3819  -13.4722   26.6917 C   0  0  0  0  0  0  0  0  0  0  0  0
    7.4295  -14.3282   26.1898 C   0  0  0  0  0  0  0  0  0  0  0  0
   11.1470  -16.0763   24.7666 C   0  0  0  0  0  0  0  0  0  0  0  0
   11.8356  -15.6377   25.8932 O   0  0  0  0  0  0  0  0  0  0  0  0
   11.7903  -16.7398   23.9028 O   0  0  0  0  0  0  0  0  0  0  0  0
  2  1  1  6
  2  3  1  0
  3  4  1  0
  4  8  1  0
  5  4  2  0
  5  6  1  0
  6  7  1  0
  8  7  2  0
  9  2  1  0
  9 10  2  0
 12 11  1  0
 12 13  1  0
 13 14  1  1
 15 13  1  0
 15 16  1  6
 16  9  1  0
 17 15  1  0
 18 17  2  0
 19 17  1  0
 20 21  1  1
 20 19  1  0
 21 22  1  0
 22 30  1  0
 23 22  2  0
 23 24  1  0
 24 25  1  0
 25 26  1  0
 26 27  2  0
 28 27  1  0
 29 28  2  0
 30 25  2  0
 30 29  1  0
 31 32  1  0
 31 20  1  0
 33 31  2  0
M  END
$$$$
