HIW.pdb
     RDKit          3D

 33 35  0  0  1  0  0  0  0  0999 V2000
    9.5800  -19.1228   17.4051 N   0  0  0  0  0  0  0  0  0  0  0  0
    8.7511  -18.7230   18.5143 C   0  0  1  0  0  0  0  0  0  0  0  0
    8.6857  -19.8503   19.5041 C   0  0  0  0  0  0  0  0  0  0  0  0
    7.6582  -20.8236   19.0598 C   0  0  0  0  0  0  0  0  0  0  0  0
    6.8681  -20.8109   17.9424 C   0  0  0  0  0  0  0  0  0  0  0  0
    6.0935  -21.9012   17.9679 N   0  0  0  0  0  0  0  0  0  0  0  0
    6.3854  -22.5958   19.0813 C   0  0  0  0  0  0  0  0  0  0  0  0
    7.3437  -21.9269   19.7409 N   0  0  0  0  0  0  0  0  0  0  0  0
    9.3034  -17.5115   19.2255 C   0  0  0  0  0  0  0  0  0  0  0  0
   10.5376  -17.3787   19.4118 O   0  0  0  0  0  0  0  0  0  0  0  0
    7.3035  -11.9762   21.1874 C   0  0  0  0  0  0  0  0  0  0  0  0
    8.4316  -12.9675   21.0695 C   0  0  0  0  0  0  0  0  0  0  0  0
    7.8968  -14.2730   20.4760 C   0  0  2  0  0  0  0  0  0  0  0  0
    6.8024  -14.8181   21.3555 C   0  0  0  0  0  0  0  0  0  0  0  0
    9.0071  -15.2850   20.3489 C   0  0  2  0  0  0  0  0  0  0  0  0
    8.4405  -16.4971   19.6993 N   0  0  0  0  0  0  0  0  0  0  0  0
    9.4914  -15.7235   21.6628 C   0  0  0  0  0  0  0  0  0  0  0  0
   10.6859  -15.3650   22.0101 O   0  0  0  0  0  0  0  0  0  0  0  0
    8.7734  -16.4969   22.5865 N   0  0  0  0  0  0  0  0  0  0  0  0
    9.3280  -16.6584   23.9589 C   0  0  1  0  0  0  0  0  0  0  0  0
    9.3459  -15.2559   24.4992 C   0  0  0  0  0  0  0  0  0  0  0  0
    8.0437  -14.8461   25.0346 C   0  0  0  0  0  0  0  0  0  0  0  0
    6.8659  -15.6056   25.0728 C   0  0  0  0  0  0  0  0  0  0  0  0
    5.8775  -14.8703   25.6014 N   0  0  0  0  0  0  0  0  0  0  0  0
    6.3293  -13.6493   25.9238 C   0  0  0  0  0  0  0  0  0  0  0  0
    5.7400  -12.5290   26.5045 C   0  0  0  0  0  0  0  0  0  0  0  0
    6.5306  -11.4356   26.7106 C   0  0  0  0  0  0  0  0  0  0  0  0
    7.8649  -11.3954   26.3737 C   0  0  0  0  0  0  0  0  0  0  0  0
    8.4395  -12.4942   25.8038 C   0  0  0  0  0  0  0  0  0  0  0  0
    7.6843  -13.6207   25.5747 C   0  0  0  0  0  0  0  0  0  0  0  0
    8.5119  -17.6209   24.6916 C   0  0  0  0  0  0  0  0  0  0  0  0
    8.9513  -18.2406   25.8573 O   0  0  0  0  0  0  0  0  0  0  0  0
    7.3602  -17.9200   24.2623 O   0  0  0  0  0  0  0  0  0  0  0  0
  2  1  1  6
  2  3  1  0
  3  4  1  0
  4  8  1  0
  5  4  2  0
  5  6  1  0
  6  7  1  0
  8  7  2  0
  9  2  1  0
  9 10  2  0
 12 11  1  0
 12 13  1  0
 13 14  1  1
 15 13  1  0
 15 16  1  1
 16  9  1  0
 17 15  1  0
 18 17  2  0
 19 17  1  0
 20 21  1  1
 20 19  1  0
 21 22  1  0
 22 30  1  0
 23 22  2  0
 23 24  1  0
 24 25  1  0
 25 26  1  0
 26 27  2  0
 28 27  1  0
 29 28  2  0
 30 25  2  0
 30 29  1  0
 31 32  1  0
 31 20  1  0
 33 31  2  0
M  END
$$$$
