HIW.pdb
     RDKit          3D

 33 35  0  0  1  0  0  0  0  0999 V2000
    8.9912  -19.1692   20.1592 N   0  0  0  0  0  0  0  0  0  0  0  0
   10.2985  -18.6078   19.9290 C   0  0  1  0  0  0  0  0  0  0  0  0
   10.5331  -18.5117   18.4490 C   0  0  0  0  0  0  0  0  0  0  0  0
   10.5425  -19.8782   17.8722 C   0  0  0  0  0  0  0  0  0  0  0  0
   10.4893  -21.0925   18.5013 C   0  0  0  0  0  0  0  0  0  0  0  0
   10.5229  -22.0479   17.5656 N   0  0  0  0  0  0  0  0  0  0  0  0
   10.5959  -21.4527   16.3624 C   0  0  0  0  0  0  0  0  0  0  0  0
   10.6072  -20.1258   16.5627 N   0  0  0  0  0  0  0  0  0  0  0  0
   10.4293  -17.2213   20.5114 C   0  0  0  0  0  0  0  0  0  0  0  0
   11.4697  -16.5417   20.3342 O   0  0  0  0  0  0  0  0  0  0  0  0
    6.4753  -13.8506   20.1526 C   0  0  0  0  0  0  0  0  0  0  0  0
    7.8758  -14.3948   20.2623 C   0  0  0  0  0  0  0  0  0  0  0  0
    8.2309  -14.5811   21.7394 C   0  0  2  0  0  0  0  0  0  0  0  0
    8.3135  -13.2370   22.4137 C   0  0  0  0  0  0  0  0  0  0  0  0
    9.5454  -15.3068   21.8754 C   0  0  2  0  0  0  0  0  0  0  0  0
    9.3803  -16.6561   21.2717 N   0  0  0  0  0  0  0  0  0  0  0  0
    9.8925  -15.5368   23.2824 C   0  0  0  0  0  0  0  0  0  0  0  0
   10.6412  -14.6562   23.8655 O   0  0  0  0  0  0  0  0  0  0  0  0
    9.4816  -16.6280   24.0619 N   0  0  0  0  0  0  0  0  0  0  0  0
    9.8708  -16.6594   25.4988 C   0  0  1  0  0  0  0  0  0  0  0  0
    8.5670  -16.8835   26.2123 C   0  0  0  0  0  0  0  0  0  0  0  0
    7.6143  -15.7906   25.9932 C   0  0  0  0  0  0  0  0  0  0  0  0
    6.3624  -15.8703   25.3671 C   0  0  0  0  0  0  0  0  0  0  0  0
    5.8069  -14.6511   25.3231 N   0  0  0  0  0  0  0  0  0  0  0  0
    6.6221  -13.7493   25.8897 C   0  0  0  0  0  0  0  0  0  0  0  0
    6.5280  -12.3787   26.1185 C   0  0  0  0  0  0  0  0  0  0  0  0
    7.5692  -11.7733   26.7608 C   0  0  0  0  0  0  0  0  0  0  0  0
    8.6902  -12.4507   27.1850 C   0  0  0  0  0  0  0  0  0  0  0  0
    8.7802  -13.7935   26.9586 C   0  0  0  0  0  0  0  0  0  0  0  0
    7.7573  -14.4493   26.3142 C   0  0  0  0  0  0  0  0  0  0  0  0
   10.8950  -17.6807   25.6920 C   0  0  0  0  0  0  0  0  0  0  0  0
   11.4004  -18.4416   24.6425 O   0  0  0  0  0  0  0  0  0  0  0  0
   11.3488  -17.9004   26.8522 O   0  0  0  0  0  0  0  0  0  0  0  0
  2  1  1  6
  2  3  1  0
  3  4  1  0
  4  8  1  0
  5  4  2  0
  5  6  1  0
  6  7  1  0
  8  7  2  0
  9  2  1  0
  9 10  2  0
 12 11  1  0
 12 13  1  0
 13 14  1  6
 15 13  1  0
 15 16  1  6
 16  9  1  0
 17 15  1  0
 18 17  2  0
 19 17  1  0
 20 21  1  1
 20 19  1  0
 21 22  1  0
 22 30  1  0
 23 22  2  0
 23 24  1  0
 24 25  1  0
 25 26  1  0
 26 27  2  0
 28 27  1  0
 29 28  2  0
 30 25  2  0
 30 29  1  0
 31 32  1  0
 31 20  1  0
 33 31  2  0
M  END
$$$$
