HIW.pdb
     RDKit          3D

 33 35  0  0  1  0  0  0  0  0999 V2000
   11.9788  -17.6367   18.0069 N   0  0  0  0  0  0  0  0  0  0  0  0
   10.8075  -17.9588   18.7826 C   0  0  1  0  0  0  0  0  0  0  0  0
   10.8873  -19.3960   19.2103 C   0  0  0  0  0  0  0  0  0  0  0  0
   10.6510  -20.2642   18.0310 C   0  0  0  0  0  0  0  0  0  0  0  0
    9.4956  -20.4983   17.3359 C   0  0  0  0  0  0  0  0  0  0  0  0
    9.7716  -21.3546   16.3459 N   0  0  0  0  0  0  0  0  0  0  0  0
   11.0793  -21.6600   16.4093 C   0  0  0  0  0  0  0  0  0  0  0  0
   11.6065  -20.9871   17.4438 N   0  0  0  0  0  0  0  0  0  0  0  0
   10.7010  -17.1092   20.0258 C   0  0  0  0  0  0  0  0  0  0  0  0
   11.7211  -16.8104   20.6933 O   0  0  0  0  0  0  0  0  0  0  0  0
    6.9102  -13.1559   20.2852 C   0  0  0  0  0  0  0  0  0  0  0  0
    8.2137  -13.8999   20.4144 C   0  0  0  0  0  0  0  0  0  0  0  0
    8.0959  -14.9339   21.5368 C   0  0  2  0  0  0  0  0  0  0  0  0
    7.8086  -14.2360   22.8400 C   0  0  0  0  0  0  0  0  0  0  0  0
    9.3699  -15.7322   21.6503 C   0  0  2  0  0  0  0  0  0  0  0  0
    9.4465  -16.6303   20.4672 N   0  0  0  0  0  0  0  0  0  0  0  0
    9.3521  -16.6143   22.8228 C   0  0  0  0  0  0  0  0  0  0  0  0
    8.7041  -17.7305   22.7218 O   0  0  0  0  0  0  0  0  0  0  0  0
    9.9805  -16.3609   24.0507 N   0  0  0  0  0  0  0  0  0  0  0  0
   10.2149  -17.5035   24.9763 C   0  0  1  0  0  0  0  0  0  0  0  0
   11.3607  -17.0365   25.8297 C   0  0  0  0  0  0  0  0  0  0  0  0
   10.9208  -16.5596   27.1447 C   0  0  0  0  0  0  0  0  0  0  0  0
   10.7515  -17.3213   28.3095 C   0  0  0  0  0  0  0  0  0  0  0  0
   10.2990  -16.5342   29.2957 N   0  0  0  0  0  0  0  0  0  0  0  0
   10.1541  -15.2757   28.8552 C   0  0  0  0  0  0  0  0  0  0  0  0
    9.7437  -14.0884   29.4564 C   0  0  0  0  0  0  0  0  0  0  0  0
    9.7403  -12.9603   28.6879 C   0  0  0  0  0  0  0  0  0  0  0  0
   10.1199  -12.9481   27.3645 C   0  0  0  0  0  0  0  0  0  0  0  0
   10.5206  -14.1132   26.7777 C   0  0  0  0  0  0  0  0  0  0  0  0
   10.5405  -15.2773   27.5100 C   0  0  0  0  0  0  0  0  0  0  0  0
    8.9725  -17.8104   25.6774 C   0  0  0  0  0  0  0  0  0  0  0  0
    8.7794  -19.0005   26.3717 O   0  0  0  0  0  0  0  0  0  0  0  0
    8.0213  -16.9766   25.6594 O   0  0  0  0  0  0  0  0  0  0  0  0
  2  1  1  1
  2  3  1  0
  3  4  1  0
  4  8  1  0
  5  4  2  0
  5  6  1  0
  6  7  1  0
  8  7  2  0
  9  2  1  0
  9 10  2  0
 12 11  1  0
 12 13  1  0
 13 14  1  1
 15 13  1  0
 15 16  1  6
 16  9  1  0
 17 15  1  0
 18 17  2  0
 19 17  1  0
 20 21  1  1
 20 19  1  0
 21 22  1  0
 22 30  1  0
 23 22  2  0
 23 24  1  0
 24 25  1  0
 25 26  1  0
 26 27  2  0
 28 27  1  0
 29 28  2  0
 30 25  2  0
 30 29  1  0
 31 32  1  0
 31 20  1  0
 33 31  2  0
M  END
$$$$
