HIW.pdb
     RDKit          3D

 33 35  0  0  1  0  0  0  0  0999 V2000
   14.4127  -16.9358   23.1940 N   0  0  0  0  0  0  0  0  0  0  0  0
   13.3042  -16.0840   23.5448 C   0  0  1  0  0  0  0  0  0  0  0  0
   12.3962  -15.9526   22.3561 C   0  0  0  0  0  0  0  0  0  0  0  0
   13.0990  -15.1926   21.2937 C   0  0  0  0  0  0  0  0  0  0  0  0
   13.5859  -13.9137   21.3109 C   0  0  0  0  0  0  0  0  0  0  0  0
   14.1429  -13.6643   20.1205 N   0  0  0  0  0  0  0  0  0  0  0  0
   14.0132  -14.7647   19.3592 C   0  0  0  0  0  0  0  0  0  0  0  0
   13.3734  -15.6926   20.0875 N   0  0  0  0  0  0  0  0  0  0  0  0
   12.4956  -16.6495   24.6872 C   0  0  0  0  0  0  0  0  0  0  0  0
   12.4676  -17.8846   24.9094 O   0  0  0  0  0  0  0  0  0  0  0  0
   11.2191  -13.6078   29.1107 C   0  0  0  0  0  0  0  0  0  0  0  0
   11.6347  -14.7451   28.2144 C   0  0  0  0  0  0  0  0  0  0  0  0
   10.4058  -15.2814   27.4763 C   0  0  2  0  0  0  0  0  0  0  0  0
    9.4042  -15.8028   28.4728 C   0  0  0  0  0  0  0  0  0  0  0  0
   10.8042  -16.3802   26.5239 C   0  0  2  0  0  0  0  0  0  0  0  0
   11.7495  -15.7985   25.5339 N   0  0  0  0  0  0  0  0  0  0  0  0
    9.6573  -16.8639   25.7469 C   0  0  0  0  0  0  0  0  0  0  0  0
    8.7537  -17.5456   26.3753 O   0  0  0  0  0  0  0  0  0  0  0  0
    9.4447  -16.6507   24.3771 N   0  0  0  0  0  0  0  0  0  0  0  0
    8.1424  -17.0683   23.7883 C   0  0  1  0  0  0  0  0  0  0  0  0
    7.5727  -15.7867   23.2478 C   0  0  0  0  0  0  0  0  0  0  0  0
    6.9525  -14.9656   24.2925 C   0  0  0  0  0  0  0  0  0  0  0  0
    6.0815  -15.3960   25.3033 C   0  0  0  0  0  0  0  0  0  0  0  0
    5.6973  -14.3437   26.0395 N   0  0  0  0  0  0  0  0  0  0  0  0
    6.2667  -13.2211   25.5764 C   0  0  0  0  0  0  0  0  0  0  0  0
    6.2222  -11.8868   25.9730 C   0  0  0  0  0  0  0  0  0  0  0  0
    6.9680  -10.9920   25.2615 C   0  0  0  0  0  0  0  0  0  0  0  0
    7.7495  -11.3482   24.1855 C   0  0  0  0  0  0  0  0  0  0  0  0
    7.7903  -12.6562   23.7984 C   0  0  0  0  0  0  0  0  0  0  0  0
    7.0557  -13.5962   24.4829 C   0  0  0  0  0  0  0  0  0  0  0  0
    8.3788  -18.1295   22.8150 C   0  0  0  0  0  0  0  0  0  0  0  0
    9.6414  -18.6674   22.5863 O   0  0  0  0  0  0  0  0  0  0  0  0
    7.4115  -18.5865   22.1399 O   0  0  0  0  0  0  0  0  0  0  0  0
  2  1  1  6
  2  3  1  0
  3  4  1  0
  4  8  1  0
  5  4  2  0
  5  6  1  0
  6  7  1  0
  8  7  2  0
  9  2  1  0
  9 10  2  0
 12 11  1  0
 12 13  1  0
 13 14  1  1
 15 13  1  0
 15 16  1  6
 16  9  1  0
 17 15  1  0
 18 17  2  0
 19 17  1  0
 20 21  1  6
 20 19  1  0
 21 22  1  0
 22 30  1  0
 23 22  2  0
 23 24  1  0
 24 25  1  0
 25 26  1  0
 26 27  2  0
 28 27  1  0
 29 28  2  0
 30 25  2  0
 30 29  1  0
 31 32  1  0
 31 20  1  0
 33 31  2  0
M  END
$$$$
