HIW.pdb
     RDKit          3D

 33 35  0  0  1  0  0  0  0  0999 V2000
   11.4076  -18.1862   17.4893 N   0  0  0  0  0  0  0  0  0  0  0  0
   10.9782  -18.6193   18.7953 C   0  0  1  0  0  0  0  0  0  0  0  0
   12.0026  -19.5632   19.3560 C   0  0  0  0  0  0  0  0  0  0  0  0
   11.9091  -20.8583   18.6388 C   0  0  0  0  0  0  0  0  0  0  0  0
   10.8461  -21.7105   18.5092 C   0  0  0  0  0  0  0  0  0  0  0  0
   11.2372  -22.7543   17.7697 N   0  0  0  0  0  0  0  0  0  0  0  0
   12.5259  -22.5700   17.4343 C   0  0  0  0  0  0  0  0  0  0  0  0
   12.9258  -21.4071   17.9715 N   0  0  0  0  0  0  0  0  0  0  0  0
   10.8359  -17.4637   19.7560 C   0  0  0  0  0  0  0  0  0  0  0  0
   11.7715  -16.6439   19.9236 O   0  0  0  0  0  0  0  0  0  0  0  0
    6.5583  -13.6249   21.5218 C   0  0  0  0  0  0  0  0  0  0  0  0
    7.9077  -14.2041   21.8578 C   0  0  0  0  0  0  0  0  0  0  0  0
    8.1079  -15.5046   21.0759 C   0  0  2  0  0  0  0  0  0  0  0  0
    7.0497  -16.5008   21.4708 C   0  0  0  0  0  0  0  0  0  0  0  0
    9.4775  -16.0738   21.3466 C   0  0  2  0  0  0  0  0  0  0  0  0
    9.6425  -17.2789   20.4906 N   0  0  0  0  0  0  0  0  0  0  0  0
    9.6029  -16.5448   22.7306 C   0  0  0  0  0  0  0  0  0  0  0  0
    9.9282  -17.7845   22.9135 O   0  0  0  0  0  0  0  0  0  0  0  0
    9.4061  -15.7699   23.8829 N   0  0  0  0  0  0  0  0  0  0  0  0
    9.8006  -16.3436   25.1991 C   0  0  1  0  0  0  0  0  0  0  0  0
    9.6011  -15.2014   26.1556 C   0  0  0  0  0  0  0  0  0  0  0  0
    8.2192  -14.7110   26.1610 C   0  0  0  0  0  0  0  0  0  0  0  0
    7.0518  -15.4646   25.9745 C   0  0  0  0  0  0  0  0  0  0  0  0
    5.9859  -14.6523   26.0085 N   0  0  0  0  0  0  0  0  0  0  0  0
    6.3752  -13.3847   26.2097 C   0  0  0  0  0  0  0  0  0  0  0  0
    5.6911  -12.1788   26.3420 C   0  0  0  0  0  0  0  0  0  0  0  0
    6.4317  -11.0547   26.5673 C   0  0  0  0  0  0  0  0  0  0  0  0
    7.8047  -11.0636   26.6677 C   0  0  0  0  0  0  0  0  0  0  0  0
    8.4727  -12.2464   26.5365 C   0  0  0  0  0  0  0  0  0  0  0  0
    7.7712  -13.4071   26.3075 C   0  0  0  0  0  0  0  0  0  0  0  0
    9.0078  -17.5422   25.4524 C   0  0  0  0  0  0  0  0  0  0  0  0
    7.9005  -17.8836   24.6822 O   0  0  0  0  0  0  0  0  0  0  0  0
    9.3210  -18.3093   26.4083 O   0  0  0  0  0  0  0  0  0  0  0  0
  2  1  1  6
  2  3  1  0
  3  4  1  0
  4  8  1  0
  5  4  2  0
  5  6  1  0
  6  7  1  0
  8  7  2  0
  9  2  1  0
  9 10  2  0
 12 11  1  0
 12 13  1  0
 13 14  1  1
 15 13  1  0
 15 16  1  6
 16  9  1  0
 17 15  1  0
 18 17  2  0
 19 17  1  0
 20 21  1  1
 20 19  1  0
 21 22  1  0
 22 30  1  0
 23 22  2  0
 23 24  1  0
 24 25  1  0
 25 26  1  0
 26 27  2  0
 28 27  1  0
 29 28  2  0
 30 25  2  0
 30 29  1  0
 31 32  1  0
 31 20  1  0
 33 31  2  0
M  END
$$$$
