HIW.pdb
     RDKit          3D

 33 35  0  0  1  0  0  0  0  0999 V2000
   10.9689  -18.0259   17.4638 N   0  0  0  0  0  0  0  0  0  0  0  0
    9.9531  -18.2197   18.4677 C   0  0  1  0  0  0  0  0  0  0  0  0
   10.1629  -19.5556   19.1206 C   0  0  0  0  0  0  0  0  0  0  0  0
    9.7970  -20.6250   18.1599 C   0  0  0  0  0  0  0  0  0  0  0  0
    8.6651  -20.7711   17.4046 C   0  0  0  0  0  0  0  0  0  0  0  0
    8.7862  -21.8928   16.6859 N   0  0  0  0  0  0  0  0  0  0  0  0
    9.9740  -22.4507   16.9780 C   0  0  0  0  0  0  0  0  0  0  0  0
   10.5831  -21.6663   17.8805 N   0  0  0  0  0  0  0  0  0  0  0  0
   10.0118  -17.1624   19.5434 C   0  0  0  0  0  0  0  0  0  0  0  0
   11.0899  -16.8945   20.1278 O   0  0  0  0  0  0  0  0  0  0  0  0
    6.7569  -12.7280   19.2312 C   0  0  0  0  0  0  0  0  0  0  0  0
    7.9823  -13.5713   19.4688 C   0  0  0  0  0  0  0  0  0  0  0  0
    7.7652  -14.4390   20.7108 C   0  0  2  0  0  0  0  0  0  0  0  0
    7.5763  -13.5577   21.9174 C   0  0  0  0  0  0  0  0  0  0  0  0
    8.9432  -15.3559   20.9225 C   0  0  2  0  0  0  0  0  0  0  0  0
    8.8505  -16.4488   19.9179 N   0  0  0  0  0  0  0  0  0  0  0  0
    8.8887  -16.0114   22.2342 C   0  0  0  0  0  0  0  0  0  0  0  0
    8.2980  -17.1613   22.3042 O   0  0  0  0  0  0  0  0  0  0  0  0
    9.4255  -15.5066   23.4275 N   0  0  0  0  0  0  0  0  0  0  0  0
    9.2331  -16.2902   24.6789 C   0  0  1  0  0  0  0  0  0  0  0  0
   10.6024  -16.3069   25.2985 C   0  0  0  0  0  0  0  0  0  0  0  0
   10.5543  -16.4348   26.7585 C   0  0  0  0  0  0  0  0  0  0  0  0
   10.6450  -17.6153   27.5093 C   0  0  0  0  0  0  0  0  0  0  0  0
   10.5195  -17.3264   28.8123 N   0  0  0  0  0  0  0  0  0  0  0  0
   10.3486  -16.0068   28.9803 C   0  0  0  0  0  0  0  0  0  0  0  0
   10.1896  -15.1932   30.0994 C   0  0  0  0  0  0  0  0  0  0  0  0
   10.0606  -13.8506   29.8902 C   0  0  0  0  0  0  0  0  0  0  0  0
   10.0810  -13.2768   28.6388 C   0  0  0  0  0  0  0  0  0  0  0  0
   10.2358  -14.0765   27.5439 C   0  0  0  0  0  0  0  0  0  0  0  0
   10.3690  -15.4363   27.7024 C   0  0  0  0  0  0  0  0  0  0  0  0
    8.1751  -15.6707   25.4703 C   0  0  0  0  0  0  0  0  0  0  0  0
    7.4477  -16.3721   26.4267 O   0  0  0  0  0  0  0  0  0  0  0  0
    7.8908  -14.4514   25.2896 O   0  0  0  0  0  0  0  0  0  0  0  0
  2  1  1  6
  2  3  1  0
  3  4  1  0
  4  8  1  0
  5  4  2  0
  5  6  1  0
  6  7  1  0
  8  7  2  0
  9  2  1  0
  9 10  2  0
 12 11  1  0
 12 13  1  0
 13 14  1  1
 15 13  1  0
 15 16  1  6
 16  9  1  0
 17 15  1  0
 18 17  2  0
 19 17  1  0
 20 21  1  1
 20 19  1  0
 21 22  1  0
 22 30  1  0
 23 22  2  0
 23 24  1  0
 24 25  1  0
 25 26  1  0
 26 27  2  0
 28 27  1  0
 29 28  2  0
 30 25  2  0
 30 29  1  0
 31 32  1  0
 31 20  1  0
 33 31  2  0
M  END
$$$$
