HIW.pdb
     RDKit          3D

 33 35  0  0  1  0  0  0  0  0999 V2000
   12.0484  -17.8577   18.3894 N   0  0  0  0  0  0  0  0  0  0  0  0
   10.6551  -17.8597   18.7583 C   0  0  1  0  0  0  0  0  0  0  0  0
   10.2563  -19.2547   19.1452 C   0  0  0  0  0  0  0  0  0  0  0  0
    9.8173  -19.9853   17.9312 C   0  0  0  0  0  0  0  0  0  0  0  0
    9.7384  -19.5563   16.6340 C   0  0  0  0  0  0  0  0  0  0  0  0
    9.2879  -20.5703   15.8868 N   0  0  0  0  0  0  0  0  0  0  0  0
    9.0838  -21.6260   16.6937 C   0  0  0  0  0  0  0  0  0  0  0  0
    9.4111  -21.2562   17.9415 N   0  0  0  0  0  0  0  0  0  0  0  0
   10.3800  -16.9545   19.9346 C   0  0  0  0  0  0  0  0  0  0  0  0
   11.2518  -16.7576   20.8159 O   0  0  0  0  0  0  0  0  0  0  0  0
    7.0869  -12.7027   19.3063 C   0  0  0  0  0  0  0  0  0  0  0  0
    8.2470  -13.5380   19.7817 C   0  0  0  0  0  0  0  0  0  0  0  0
    7.7693  -14.4835   20.8864 C   0  0  2  0  0  0  0  0  0  0  0  0
    7.3590  -13.6838   22.0948 C   0  0  0  0  0  0  0  0  0  0  0  0
    8.8637  -15.4519   21.2574 C   0  0  2  0  0  0  0  0  0  0  0  0
    9.1308  -16.3072   20.0702 N   0  0  0  0  0  0  0  0  0  0  0  0
    8.4375  -16.3665   22.3227 C   0  0  0  0  0  0  0  0  0  0  0  0
    7.8569  -17.4681   21.9686 O   0  0  0  0  0  0  0  0  0  0  0  0
    8.6062  -16.1591   23.6995 N   0  0  0  0  0  0  0  0  0  0  0  0
    8.2750  -17.2731   24.6303 C   0  0  1  0  0  0  0  0  0  0  0  0
    8.7965  -16.7922   25.9554 C   0  0  0  0  0  0  0  0  0  0  0  0
    8.1580  -15.5452   26.3886 C   0  0  0  0  0  0  0  0  0  0  0  0
    6.8794  -15.0840   26.0454 C   0  0  0  0  0  0  0  0  0  0  0  0
    6.6718  -13.8846   26.6071 N   0  0  0  0  0  0  0  0  0  0  0  0
    7.7481  -13.5115   27.3149 C   0  0  0  0  0  0  0  0  0  0  0  0
    8.0486  -12.3940   28.0899 C   0  0  0  0  0  0  0  0  0  0  0  0
    9.2685  -12.3595   28.7011 C   0  0  0  0  0  0  0  0  0  0  0  0
   10.1990  -13.3676   28.5852 C   0  0  0  0  0  0  0  0  0  0  0  0
    9.9024  -14.4610   27.8243 C   0  0  0  0  0  0  0  0  0  0  0  0
    8.6862  -14.5423   27.1872 C   0  0  0  0  0  0  0  0  0  0  0  0
    6.8424  -17.5415   24.5604 C   0  0  0  0  0  0  0  0  0  0  0  0
    6.2653  -18.6759   25.1224 O   0  0  0  0  0  0  0  0  0  0  0  0
    6.0811  -16.7253   23.9651 O   0  0  0  0  0  0  0  0  0  0  0  0
  2  1  1  1
  2  3  1  0
  3  4  1  0
  4  8  1  0
  5  4  2  0
  5  6  1  0
  6  7  1  0
  8  7  2  0
  9  2  1  0
  9 10  2  0
 12 11  1  0
 12 13  1  0
 13 14  1  1
 15 13  1  0
 15 16  1  6
 16  9  1  0
 17 15  1  0
 18 17  2  0
 19 17  1  0
 20 21  1  1
 20 19  1  0
 21 22  1  0
 22 30  1  0
 23 22  2  0
 23 24  1  0
 24 25  1  0
 25 26  1  0
 26 27  2  0
 28 27  1  0
 29 28  2  0
 30 25  2  0
 30 29  1  0
 31 32  1  0
 31 20  1  0
 33 31  2  0
M  END
$$$$
