DIV.pdb
     RDKit          3D

 24 23  0  0  1  0  0  0  0  0999 V2000
   28.4917  -21.5595  -15.3270 N   0  0  0  0  0  0  0  0  0  0  0  0
   27.6928  -20.5679  -14.6726 C   0  0  1  0  0  0  0  0  0  0  0  0
   26.9251  -19.7786  -15.7287 C   0  0  0  0  0  0  0  0  0  0  0  0
   27.8772  -18.9143  -16.4811 C   0  0  0  0  0  0  0  0  0  0  0  0
   29.1121  -18.9182  -16.2272 O   0  0  0  0  0  0  0  0  0  0  0  0
   26.6661  -21.1734  -13.7734 C   0  0  0  0  0  0  0  0  0  0  0  0
   26.0644  -22.2044  -14.1672 O   0  0  0  0  0  0  0  0  0  0  0  0
   27.3690  -18.0955  -17.4791 O   0  0  0  0  0  0  0  0  0  0  0  0
   26.9680  -20.3655   -8.3905 C   0  0  0  0  0  0  0  0  0  0  0  0
   26.6754  -21.0500   -9.7045 C   0  0  0  0  0  0  0  0  0  0  0  0
   25.4270  -20.4470  -10.3542 C   0  0  2  0  0  0  0  0  0  0  0  0
   24.2140  -20.7732   -9.5539 C   0  0  0  0  0  0  0  0  0  0  0  0
   25.2935  -21.1310  -11.7283 C   0  0  2  0  0  0  0  0  0  0  0  0
   26.4008  -20.5883  -12.5316 N   0  0  0  0  0  0  0  0  0  0  0  0
   24.0350  -20.6947  -12.3743 C   0  0  0  0  0  0  0  0  0  0  0  0
   23.9198  -19.4373  -12.6246 O   0  0  0  0  0  0  0  0  0  0  0  0
   20.1771  -21.0563  -15.2275 C   0  0  0  0  0  0  0  0  0  0  0  0
   21.4577  -21.6406  -14.6692 C   0  0  1  0  0  0  0  0  0  0  0  0
   22.5590  -21.3638  -15.6687 C   0  0  0  0  0  0  0  0  0  0  0  0
   21.7946  -20.9733  -13.3529 C   0  0  2  0  0  0  0  0  0  0  0  0
   22.9599  -21.5553  -12.7361 N   0  0  0  0  0  0  0  0  0  0  0  0
   20.6293  -21.0986  -12.4252 C   0  0  0  0  0  0  0  0  0  0  0  0
   20.4626  -22.0829  -11.6619 O   0  0  0  0  0  0  0  0  0  0  0  0
   19.6710  -20.1038  -12.3788 O   0  0  0  0  0  0  0  0  0  0  0  0
  2  1  1  6
  2  3  1  0
  4  3  1  0
  4  8  1  0
  5  4  2  0
  6  2  1  0
  7  6  2  0
  9 10  1  0
 10 11  1  0
 11 13  1  0
 11 12  1  1
 13 14  1  6
 14  6  1  0
 15 13  1  0
 15 21  1  0
 16 15  2  0
 18 17  1  6
 18 20  1  0
 19 18  1  0
 20 21  1  1
 20 22  1  0
 22 23  2  0
 22 24  1  0
M  END
$$$$
