DIV.pdb
     RDKit          3D

 24 23  0  0  1  0  0  0  0  0999 V2000
   21.7862  -13.3225  -18.9938 N   0  0  0  0  0  0  0  0  0  0  0  0
   22.3176  -11.9964  -19.0871 C   0  0  1  0  0  0  0  0  0  0  0  0
   21.2634  -11.0862  -19.7099 C   0  0  0  0  0  0  0  0  0  0  0  0
   21.0822  -11.4563  -21.1416 C   0  0  0  0  0  0  0  0  0  0  0  0
   21.6942  -12.4333  -21.6519 O   0  0  0  0  0  0  0  0  0  0  0  0
   22.6312  -11.4182  -17.7467 C   0  0  0  0  0  0  0  0  0  0  0  0
   21.9520  -11.8005  -16.7605 O   0  0  0  0  0  0  0  0  0  0  0  0
   20.2150  -10.6932  -21.9100 O   0  0  0  0  0  0  0  0  0  0  0  0
   27.2825  -11.7494  -15.9460 C   0  0  0  0  0  0  0  0  0  0  0  0
   25.7970  -11.5326  -16.1102 C   0  0  0  0  0  0  0  0  0  0  0  0
   25.4751  -10.0360  -16.1327 C   0  0  2  0  0  0  0  0  0  0  0  0
   25.8571   -9.4015  -14.8405 C   0  0  0  0  0  0  0  0  0  0  0  0
   23.9451   -9.9351  -16.2830 C   0  0  2  0  0  0  0  0  0  0  0  0
   23.6584  -10.4782  -17.6205 N   0  0  0  0  0  0  0  0  0  0  0  0
   23.5458   -8.5097  -16.2993 C   0  0  0  0  0  0  0  0  0  0  0  0
   24.1039   -7.7635  -17.1874 O   0  0  0  0  0  0  0  0  0  0  0  0
   19.8956   -7.0281  -15.1040 C   0  0  0  0  0  0  0  0  0  0  0  0
   20.8400   -6.3390  -16.0665 C   0  0  1  0  0  0  0  0  0  0  0  0
   20.4987   -4.8652  -16.0636 C   0  0  0  0  0  0  0  0  0  0  0  0
   22.2692   -6.5245  -15.6036 C   0  0  2  0  0  0  0  0  0  0  0  0
   22.5994   -7.9149  -15.4173 N   0  0  0  0  0  0  0  0  0  0  0  0
   22.4686   -5.7919  -14.3161 C   0  0  0  0  0  0  0  0  0  0  0  0
   22.4769   -6.3622  -13.1963 O   0  0  0  0  0  0  0  0  0  0  0  0
   22.6554   -4.4225  -14.3202 O   0  0  0  0  0  0  0  0  0  0  0  0
  2  1  1  1
  2  3  1  0
  4  3  1  0
  4  8  1  0
  5  4  2  0
  6  2  1  0
  7  6  2  0
  9 10  1  0
 10 11  1  0
 11 13  1  0
 11 12  1  1
 13 14  1  6
 14  6  1  0
 15 13  1  0
 15 21  1  0
 16 15  2  0
 18 17  1  1
 18 20  1  0
 19 18  1  0
 20 21  1  1
 20 22  1  0
 22 23  2  0
 22 24  1  0
M  END
$$$$
