DIV.pdb
     RDKit          3D

 24 23  0  0  1  0  0  0  0  0999 V2000
   26.0908  -22.1897  -12.3357 N   0  0  0  0  0  0  0  0  0  0  0  0
   25.9249  -21.7301  -13.6814 C   0  0  1  0  0  0  0  0  0  0  0  0
   25.3220  -22.8562  -14.5156 C   0  0  0  0  0  0  0  0  0  0  0  0
   26.3448  -23.9219  -14.7104 C   0  0  0  0  0  0  0  0  0  0  0  0
   27.4508  -23.6798  -15.2650 O   0  0  0  0  0  0  0  0  0  0  0  0
   24.9719  -20.5843  -13.7732 C   0  0  0  0  0  0  0  0  0  0  0  0
   24.0937  -20.4683  -12.8813 O   0  0  0  0  0  0  0  0  0  0  0  0
   26.0499  -25.2015  -14.2627 O   0  0  0  0  0  0  0  0  0  0  0  0
   27.1311  -16.1569  -15.3625 C   0  0  0  0  0  0  0  0  0  0  0  0
   26.2081  -17.1440  -14.6882 C   0  0  0  0  0  0  0  0  0  0  0  0
   24.9769  -17.4050  -15.5599 C   0  0  2  0  0  0  0  0  0  0  0  0
   24.1207  -16.1883  -15.6299 C   0  0  0  0  0  0  0  0  0  0  0  0
   24.1796  -18.5123  -14.8443 C   0  0  2  0  0  0  0  0  0  0  0  0
   25.0763  -19.6793  -14.8337 N   0  0  0  0  0  0  0  0  0  0  0  0
   23.0021  -18.8778  -15.6636 C   0  0  0  0  0  0  0  0  0  0  0  0
   23.2085  -19.0655  -16.9203 O   0  0  0  0  0  0  0  0  0  0  0  0
   19.9563  -21.1720  -14.4390 C   0  0  0  0  0  0  0  0  0  0  0  0
   20.2750  -20.9091  -15.8958 C   0  0  1  0  0  0  0  0  0  0  0  0
   19.0298  -21.2170  -16.6977 C   0  0  0  0  0  0  0  0  0  0  0  0
   20.6473  -19.4541  -16.0848 C   0  0  2  0  0  0  0  0  0  0  0  0
   21.6773  -19.0375  -15.1670 N   0  0  0  0  0  0  0  0  0  0  0  0
   19.4333  -18.6055  -15.8843 C   0  0  0  0  0  0  0  0  0  0  0  0
   18.4569  -18.6066  -16.6755 O   0  0  0  0  0  0  0  0  0  0  0  0
   19.3468  -17.7685  -14.7879 O   0  0  0  0  0  0  0  0  0  0  0  0
  2  1  1  1
  2  3  1  0
  4  3  1  0
  4  8  1  0
  5  4  2  0
  6  2  1  0
  7  6  2  0
  9 10  1  0
 10 11  1  0
 11 13  1  0
 11 12  1  1
 13 14  1  6
 14  6  1  0
 15 13  1  0
 15 21  1  0
 16 15  2  0
 18 17  1  1
 18 20  1  0
 19 18  1  0
 20 21  1  1
 20 22  1  0
 22 23  2  0
 22 24  1  0
M  END
$$$$
