DIV.pdb
     RDKit          3D

 24 23  0  0  1  0  0  0  0  0999 V2000
   20.4999  -13.4980  -18.6040 N   0  0  0  0  0  0  0  0  0  0  0  0
   20.6947  -12.0858  -18.7355 C   0  0  1  0  0  0  0  0  0  0  0  0
   19.5170  -11.4959  -19.5054 C   0  0  0  0  0  0  0  0  0  0  0  0
   19.5488  -11.9980  -20.9077 C   0  0  0  0  0  0  0  0  0  0  0  0
   20.6038  -11.9607  -21.5969 O   0  0  0  0  0  0  0  0  0  0  0  0
   20.7194  -11.3936  -17.4128 C   0  0  0  0  0  0  0  0  0  0  0  0
   19.9314  -11.7921  -16.5182 O   0  0  0  0  0  0  0  0  0  0  0  0
   18.3782  -12.5138  -21.4447 O   0  0  0  0  0  0  0  0  0  0  0  0
   24.9696  -10.9154  -14.7850 C   0  0  0  0  0  0  0  0  0  0  0  0
   23.5163  -10.9250  -15.1956 C   0  0  0  0  0  0  0  0  0  0  0  0
   23.0309   -9.4999  -15.4745 C   0  0  2  0  0  0  0  0  0  0  0  0
   23.0760   -8.6815  -14.2309 C   0  0  0  0  0  0  0  0  0  0  0  0
   21.5586   -9.6325  -15.9086 C   0  0  2  0  0  0  0  0  0  0  0  0
   21.6057  -10.3330  -17.2020 N   0  0  0  0  0  0  0  0  0  0  0  0
   20.9987   -8.2862  -16.1650 C   0  0  0  0  0  0  0  0  0  0  0  0
   21.6742   -7.5190  -16.9474 O   0  0  0  0  0  0  0  0  0  0  0  0
   17.1037   -7.2836  -16.4436 C   0  0  0  0  0  0  0  0  0  0  0  0
   18.2428   -6.4223  -16.9470 C   0  0  1  0  0  0  0  0  0  0  0  0
   17.7208   -5.0089  -17.0820 C   0  0  0  0  0  0  0  0  0  0  0  0
   19.3816   -6.4441  -15.9499 C   0  0  2  0  0  0  0  0  0  0  0  0
   19.7820   -7.7882  -15.6182 N   0  0  0  0  0  0  0  0  0  0  0  0
   18.9594   -5.7323  -14.7052 C   0  0  0  0  0  0  0  0  0  0  0  0
   18.6290   -6.3310  -13.6509 O   0  0  0  0  0  0  0  0  0  0  0  0
   18.9191   -4.3511  -14.6771 O   0  0  0  0  0  0  0  0  0  0  0  0
  2  1  1  1
  2  3  1  0
  4  3  1  0
  4  8  1  0
  5  4  2  0
  6  2  1  0
  7  6  2  0
  9 10  1  0
 10 11  1  0
 11 13  1  0
 11 12  1  1
 13 14  1  6
 14  6  1  0
 15 13  1  0
 15 21  1  0
 16 15  2  0
 18 17  1  1
 18 20  1  0
 19 18  1  0
 20 21  1  1
 20 22  1  0
 22 23  2  0
 22 24  1  0
M  END
$$$$
