DIV.pdb
     RDKit          3D

 24 23  0  0  1  0  0  0  0  0999 V2000
   18.1941  -12.0887  -17.6998 N   0  0  0  0  0  0  0  0  0  0  0  0
   19.0889  -11.0037  -17.9677 C   0  0  1  0  0  0  0  0  0  0  0  0
   18.2805   -9.8110  -18.4693 C   0  0  0  0  0  0  0  0  0  0  0  0
   17.7207  -10.1300  -19.8126 C   0  0  0  0  0  0  0  0  0  0  0  0
   16.4793  -10.2492  -19.9976 O   0  0  0  0  0  0  0  0  0  0  0  0
   19.7994  -10.5412  -16.7387 C   0  0  0  0  0  0  0  0  0  0  0  0
   19.1790  -10.5721  -15.6459 O   0  0  0  0  0  0  0  0  0  0  0  0
   18.6060  -10.2947  -20.8680 O   0  0  0  0  0  0  0  0  0  0  0  0
   24.3521  -12.4153  -15.5724 C   0  0  0  0  0  0  0  0  0  0  0  0
   23.0195  -11.7130  -15.4635 C   0  0  0  0  0  0  0  0  0  0  0  0
   23.1947  -10.2035  -15.6500 C   0  0  2  0  0  0  0  0  0  0  0  0
   23.9776   -9.6266  -14.5219 C   0  0  0  0  0  0  0  0  0  0  0  0
   21.7759   -9.6047  -15.6051 C   0  0  2  0  0  0  0  0  0  0  0  0
   21.1198  -10.0907  -16.8296 N   0  0  0  0  0  0  0  0  0  0  0  0
   21.8607   -8.1308  -15.7145 C   0  0  0  0  0  0  0  0  0  0  0  0
   22.5551   -7.6632  -16.6923 O   0  0  0  0  0  0  0  0  0  0  0  0
   20.4124   -3.5715  -15.3831 C   0  0  0  0  0  0  0  0  0  0  0  0
   20.1406   -5.0541  -15.2379 C   0  0  1  0  0  0  0  0  0  0  0  0
   19.4748   -5.5227  -16.5128 C   0  0  0  0  0  0  0  0  0  0  0  0
   21.4452   -5.7985  -15.0496 C   0  0  2  0  0  0  0  0  0  0  0  0
   21.2352   -7.2072  -14.8297 N   0  0  0  0  0  0  0  0  0  0  0  0
   22.1781   -5.2196  -13.8826 C   0  0  0  0  0  0  0  0  0  0  0  0
   22.1627   -5.7368  -12.7375 O   0  0  0  0  0  0  0  0  0  0  0  0
   22.9174   -4.0617  -14.0344 O   0  0  0  0  0  0  0  0  0  0  0  0
  2  1  1  1
  2  3  1  0
  4  3  1  0
  4  8  1  0
  5  4  2  0
  6  2  1  0
  7  6  2  0
  9 10  1  0
 10 11  1  0
 11 13  1  0
 11 12  1  1
 13 14  1  6
 14  6  1  0
 15 13  1  0
 15 21  1  0
 16 15  2  0
 18 17  1  6
 18 20  1  0
 19 18  1  0
 20 21  1  1
 20 22  1  0
 22 23  2  0
 22 24  1  0
M  END
$$$$
