DIV.pdb
     RDKit          3D

 24 23  0  0  1  0  0  0  0  0999 V2000
   23.5707   -4.8683  -15.8916 N   0  0  0  0  0  0  0  0  0  0  0  0
   23.0672   -6.1124  -15.3930 C   0  0  1  0  0  0  0  0  0  0  0  0
   21.5557   -5.9981  -15.2201 C   0  0  0  0  0  0  0  0  0  0  0  0
   21.2623   -5.1542  -14.0279 C   0  0  0  0  0  0  0  0  0  0  0  0
   22.0944   -4.3105  -13.5972 O   0  0  0  0  0  0  0  0  0  0  0  0
   23.2959   -7.2373  -16.3477 C   0  0  0  0  0  0  0  0  0  0  0  0
   23.3737   -6.9705  -17.5735 O   0  0  0  0  0  0  0  0  0  0  0  0
   20.0391   -5.3191  -13.3945 O   0  0  0  0  0  0  0  0  0  0  0  0
   26.9385  -10.7596  -15.1083 C   0  0  0  0  0  0  0  0  0  0  0  0
   25.9900   -9.9066  -15.9168 C   0  0  0  0  0  0  0  0  0  0  0  0
   24.6283  -10.5950  -16.0429 C   0  0  2  0  0  0  0  0  0  0  0  0
   24.7495  -11.8473  -16.8399 C   0  0  0  0  0  0  0  0  0  0  0  0
   23.7301   -9.6153  -16.8221 C   0  0  2  0  0  0  0  0  0  0  0  0
   23.4165   -8.5434  -15.8636 N   0  0  0  0  0  0  0  0  0  0  0  0
   22.4523  -10.2823  -17.1597 C   0  0  0  0  0  0  0  0  0  0  0  0
   21.7127  -10.6477  -16.1715 O   0  0  0  0  0  0  0  0  0  0  0  0
   20.8278  -10.9152  -21.1105 C   0  0  0  0  0  0  0  0  0  0  0  0
   19.9867  -10.6011  -19.8911 C   0  0  1  0  0  0  0  0  0  0  0  0
   18.6598  -11.3081  -20.0578 C   0  0  0  0  0  0  0  0  0  0  0  0
   20.6769  -11.1153  -18.6459 C   0  0  2  0  0  0  0  0  0  0  0  0
   21.9886  -10.5416  -18.4807 N   0  0  0  0  0  0  0  0  0  0  0  0
   20.7943  -12.6031  -18.7271 C   0  0  0  0  0  0  0  0  0  0  0  0
   21.8299  -13.1886  -19.1321 O   0  0  0  0  0  0  0  0  0  0  0  0
   19.7335  -13.4033  -18.3469 O   0  0  0  0  0  0  0  0  0  0  0  0
  2  1  1  6
  2  3  1  0
  4  3  1  0
  4  8  1  0
  5  4  2  0
  6  2  1  0
  7  6  2  0
  9 10  1  0
 10 11  1  0
 11 13  1  0
 11 12  1  6
 13 14  1  1
 14  6  1  0
 15 13  1  0
 15 21  1  0
 16 15  2  0
 18 17  1  6
 18 20  1  0
 19 18  1  0
 20 21  1  6
 20 22  1  0
 22 23  2  0
 22 24  1  0
M  END
$$$$
