DIV.pdb
     RDKit          3D

 24 23  0  0  1  0  0  0  0  0999 V2000
   21.6104  -13.1515  -18.8321 N   0  0  0  0  0  0  0  0  0  0  0  0
   22.2605  -11.8801  -18.9359 C   0  0  1  0  0  0  0  0  0  0  0  0
   21.3445  -10.9186  -19.6870 C   0  0  0  0  0  0  0  0  0  0  0  0
   21.1402  -11.4213  -21.0745 C   0  0  0  0  0  0  0  0  0  0  0  0
   21.9245  -12.2615  -21.5928 O   0  0  0  0  0  0  0  0  0  0  0  0
   22.5102  -11.2630  -17.5994 C   0  0  0  0  0  0  0  0  0  0  0  0
   21.7825  -11.6145  -16.6367 O   0  0  0  0  0  0  0  0  0  0  0  0
   20.0553  -10.9390  -21.7921 O   0  0  0  0  0  0  0  0  0  0  0  0
   27.0239  -11.7342  -15.6567 C   0  0  0  0  0  0  0  0  0  0  0  0
   25.5524  -11.4511  -15.8451 C   0  0  0  0  0  0  0  0  0  0  0  0
   25.3005   -9.9415  -15.8884 C   0  0  2  0  0  0  0  0  0  0  0  0
   25.6517   -9.3170  -14.5827 C   0  0  0  0  0  0  0  0  0  0  0  0
   23.7851   -9.7723  -16.1091 C   0  0  2  0  0  0  0  0  0  0  0  0
   23.5332  -10.3215  -17.4511 N   0  0  0  0  0  0  0  0  0  0  0  0
   23.4541   -8.3304  -16.1617 C   0  0  0  0  0  0  0  0  0  0  0  0
   24.1555   -7.6055  -16.9614 O   0  0  0  0  0  0  0  0  0  0  0  0
   20.7497   -6.7862  -17.6249 C   0  0  0  0  0  0  0  0  0  0  0  0
   20.8017   -6.0896  -16.2814 C   0  0  1  0  0  0  0  0  0  0  0  0
   19.7341   -6.7075  -15.4057 C   0  0  0  0  0  0  0  0  0  0  0  0
   22.1587   -6.3030  -15.6453 C   0  0  2  0  0  0  0  0  0  0  0  0
   22.4276   -7.6982  -15.4041 N   0  0  0  0  0  0  0  0  0  0  0  0
   22.2187   -5.5568  -14.3517 C   0  0  0  0  0  0  0  0  0  0  0  0
   22.2805   -4.3035  -14.2847 O   0  0  0  0  0  0  0  0  0  0  0  0
   22.2074   -6.2458  -13.1536 O   0  0  0  0  0  0  0  0  0  0  0  0
  2  1  1  1
  2  3  1  0
  4  3  1  0
  4  8  1  0
  5  4  2  0
  6  2  1  0
  7  6  2  0
  9 10  1  0
 10 11  1  0
 11 13  1  0
 11 12  1  1
 13 14  1  6
 14  6  1  0
 15 13  1  0
 15 21  1  0
 16 15  2  0
 18 17  1  6
 18 20  1  0
 19 18  1  0
 20 21  1  1
 20 22  1  0
 22 23  2  0
 22 24  1  0
M  END
$$$$
