DIV.pdb
     RDKit          3D

 24 23  0  0  1  0  0  0  0  0999 V2000
   17.5506  -12.1295  -16.2002 N   0  0  0  0  0  0  0  0  0  0  0  0
   18.1957  -10.9598  -16.7152 C   0  0  1  0  0  0  0  0  0  0  0  0
   17.1368   -9.8996  -17.0024 C   0  0  0  0  0  0  0  0  0  0  0  0
   16.2683  -10.3661  -18.1194 C   0  0  0  0  0  0  0  0  0  0  0  0
   15.0254  -10.1548  -18.1197 O   0  0  0  0  0  0  0  0  0  0  0  0
   19.1382  -10.3540  -15.7282 C   0  0  0  0  0  0  0  0  0  0  0  0
   18.7350  -10.1799  -14.5504 O   0  0  0  0  0  0  0  0  0  0  0  0
   16.8644  -11.0462  -19.1715 O   0  0  0  0  0  0  0  0  0  0  0  0
   23.7716  -12.4358  -15.5286 C   0  0  0  0  0  0  0  0  0  0  0  0
   22.5033  -11.6755  -15.2217 C   0  0  0  0  0  0  0  0  0  0  0  0
   22.7121  -10.1756  -15.4472 C   0  0  2  0  0  0  0  0  0  0  0  0
   23.7423   -9.6465  -14.5107 C   0  0  0  0  0  0  0  0  0  0  0  0
   21.3665   -9.5061  -15.1085 C   0  0  2  0  0  0  0  0  0  0  0  0
   20.4293   -9.9991  -16.1305 N   0  0  0  0  0  0  0  0  0  0  0  0
   21.4842   -8.0426  -15.2982 C   0  0  0  0  0  0  0  0  0  0  0  0
   21.9530   -7.6424  -16.4282 O   0  0  0  0  0  0  0  0  0  0  0  0
   20.4469   -3.3844  -14.8264 C   0  0  0  0  0  0  0  0  0  0  0  0
   20.1166   -4.8344  -14.5414 C   0  0  1  0  0  0  0  0  0  0  0  0
   19.1250   -5.2906  -15.5887 C   0  0  0  0  0  0  0  0  0  0  0  0
   21.3719   -5.6748  -14.6383 C   0  0  2  0  0  0  0  0  0  0  0  0
   21.1178   -7.0605  -14.3346 N   0  0  0  0  0  0  0  0  0  0  0  0
   22.3963   -5.1405  -13.6900 C   0  0  0  0  0  0  0  0  0  0  0  0
   23.0532   -4.0918  -13.9090 O   0  0  0  0  0  0  0  0  0  0  0  0
   22.6588   -5.8056  -12.5072 O   0  0  0  0  0  0  0  0  0  0  0  0
  2  1  1  1
  2  3  1  0
  4  3  1  0
  4  8  1  0
  5  4  2  0
  6  2  1  0
  7  6  2  0
  9 10  1  0
 10 11  1  0
 11 13  1  0
 11 12  1  1
 13 14  1  6
 14  6  1  0
 15 13  1  0
 15 21  1  0
 16 15  2  0
 18 17  1  6
 18 20  1  0
 19 18  1  0
 20 21  1  1
 20 22  1  0
 22 23  2  0
 22 24  1  0
M  END
$$$$
