DIV.pdb
     RDKit          3D

 24 23  0  0  1  0  0  0  0  0999 V2000
   28.4909  -20.4563  -17.0979 N   0  0  0  0  0  0  0  0  0  0  0  0
   28.3521  -19.6415  -15.9289 C   0  0  1  0  0  0  0  0  0  0  0  0
   27.3167  -18.5556  -16.2056 C   0  0  0  0  0  0  0  0  0  0  0  0
   27.8528  -17.6193  -17.2330 C   0  0  0  0  0  0  0  0  0  0  0  0
   28.8405  -16.8734  -16.9929 O   0  0  0  0  0  0  0  0  0  0  0  0
   27.8442  -20.4161  -14.7578 C   0  0  0  0  0  0  0  0  0  0  0  0
   26.9608  -21.2874  -14.9591 O   0  0  0  0  0  0  0  0  0  0  0  0
   27.2340  -17.5860  -18.4743 O   0  0  0  0  0  0  0  0  0  0  0  0
   31.2976  -21.0690  -10.7336 C   0  0  0  0  0  0  0  0  0  0  0  0
   30.1742  -21.3874  -11.6914 C   0  0  0  0  0  0  0  0  0  0  0  0
   28.8711  -20.7353  -11.2215 C   0  0  2  0  0  0  0  0  0  0  0  0
   28.3607  -21.4138   -9.9979 C   0  0  0  0  0  0  0  0  0  0  0  0
   27.8528  -20.9610  -12.3555 C   0  0  2  0  0  0  0  0  0  0  0  0
   28.3552  -20.1584  -13.4822 N   0  0  0  0  0  0  0  0  0  0  0  0
   26.5455  -20.3874  -11.9636 C   0  0  0  0  0  0  0  0  0  0  0  0
   26.5264  -19.1310  -11.6844 O   0  0  0  0  0  0  0  0  0  0  0  0
   23.5304  -19.7382  -13.7052 C   0  0  0  0  0  0  0  0  0  0  0  0
   23.0452  -20.4208  -12.4437 C   0  0  1  0  0  0  0  0  0  0  0  0
   22.6863  -21.8452  -12.8051 C   0  0  0  0  0  0  0  0  0  0  0  0
   24.1489  -20.4282  -11.4077 C   0  0  2  0  0  0  0  0  0  0  0  0
   25.3250  -21.1156  -11.8780 N   0  0  0  0  0  0  0  0  0  0  0  0
   23.6521  -21.0920  -10.1641 C   0  0  0  0  0  0  0  0  0  0  0  0
   22.7441  -20.6070   -9.4432 O   0  0  0  0  0  0  0  0  0  0  0  0
   24.1942  -22.2968   -9.7583 O   0  0  0  0  0  0  0  0  0  0  0  0
  2  1  1  6
  2  3  1  0
  4  3  1  0
  4  8  1  0
  5  4  2  0
  6  2  1  0
  7  6  2  0
  9 10  1  0
 10 11  1  0
 11 13  1  0
 11 12  1  1
 13 14  1  6
 14  6  1  0
 15 13  1  0
 15 21  1  0
 16 15  2  0
 18 17  1  6
 18 20  1  0
 19 18  1  0
 20 21  1  6
 20 22  1  0
 22 23  2  0
 22 24  1  0
M  END
$$$$
