DIV.pdb
     RDKit          3D

 24 23  0  0  1  0  0  0  0  0999 V2000
   18.5668  -13.7706  -16.2441 N   0  0  0  0  0  0  0  0  0  0  0  0
   18.7411  -12.4975  -16.8753 C   0  0  1  0  0  0  0  0  0  0  0  0
   17.4145  -12.0694  -17.4953 C   0  0  0  0  0  0  0  0  0  0  0  0
   17.0981  -12.9674  -18.6413 C   0  0  0  0  0  0  0  0  0  0  0  0
   17.9042  -13.1231  -19.5981 O   0  0  0  0  0  0  0  0  0  0  0  0
   19.1115  -11.4296  -15.8996 C   0  0  0  0  0  0  0  0  0  0  0  0
   18.4593  -11.3510  -14.8280 O   0  0  0  0  0  0  0  0  0  0  0  0
   15.8827  -13.6363  -18.6322 O   0  0  0  0  0  0  0  0  0  0  0  0
   23.8450  -11.0471  -14.4150 C   0  0  0  0  0  0  0  0  0  0  0  0
   22.3471  -10.8740  -14.4989 C   0  0  0  0  0  0  0  0  0  0  0  0
   22.0002   -9.5047  -15.0895 C   0  0  2  0  0  0  0  0  0  0  0  0
   22.3933   -8.4176  -14.1504 C   0  0  0  0  0  0  0  0  0  0  0  0
   20.4664   -9.4831  -15.2336 C   0  0  2  0  0  0  0  0  0  0  0  0
   20.1603  -10.5538  -16.1958 N   0  0  0  0  0  0  0  0  0  0  0  0
   20.0493   -8.2071  -15.8578 C   0  0  0  0  0  0  0  0  0  0  0  0
   20.5894   -7.9136  -16.9888 O   0  0  0  0  0  0  0  0  0  0  0  0
   16.9354   -4.5695  -16.7429 C   0  0  0  0  0  0  0  0  0  0  0  0
   17.2634   -5.8093  -15.9377 C   0  0  1  0  0  0  0  0  0  0  0  0
   16.4362   -6.9468  -16.4945 C   0  0  0  0  0  0  0  0  0  0  0  0
   18.7336   -6.1399  -16.0814 C   0  0  2  0  0  0  0  0  0  0  0  0
   19.1045   -7.2964  -15.3055 N   0  0  0  0  0  0  0  0  0  0  0  0
   19.5473   -4.9664  -15.6402 C   0  0  0  0  0  0  0  0  0  0  0  0
   19.6942   -3.9318  -16.3381 O   0  0  0  0  0  0  0  0  0  0  0  0
   20.1819   -4.9861  -14.4125 O   0  0  0  0  0  0  0  0  0  0  0  0
  2  1  1  1
  2  3  1  0
  4  3  1  0
  4  8  1  0
  5  4  2  0
  6  2  1  0
  7  6  2  0
  9 10  1  0
 10 11  1  0
 11 13  1  0
 11 12  1  1
 13 14  1  6
 14  6  1  0
 15 13  1  0
 15 21  1  0
 16 15  2  0
 18 17  1  6
 18 20  1  0
 19 18  1  0
 20 21  1  1
 20 22  1  0
 22 23  2  0
 22 24  1  0
M  END
$$$$
