DIV.pdb
     RDKit          3D

 24 23  0  0  1  0  0  0  0  0999 V2000
   18.3655  -24.0614   -6.7282 N   0  0  0  0  0  0  0  0  0  0  0  0
   19.0675  -24.2179   -7.9661 C   0  0  1  0  0  0  0  0  0  0  0  0
   18.2078  -25.0432   -8.9187 C   0  0  0  0  0  0  0  0  0  0  0  0
   18.2492  -26.4726   -8.5008 C   0  0  0  0  0  0  0  0  0  0  0  0
   18.8287  -26.8323   -7.4404 O   0  0  0  0  0  0  0  0  0  0  0  0
   19.3105  -22.9113   -8.6464 C   0  0  0  0  0  0  0  0  0  0  0  0
   18.3852  -22.0605   -8.6482 O   0  0  0  0  0  0  0  0  0  0  0  0
   17.6287  -27.4102   -9.3136 O   0  0  0  0  0  0  0  0  0  0  0  0
   24.0506  -20.8753   -7.9953 C   0  0  0  0  0  0  0  0  0  0  0  0
   22.5638  -20.9549   -8.2484 C   0  0  0  0  0  0  0  0  0  0  0  0
   22.2845  -21.1044   -9.7463 C   0  0  2  0  0  0  0  0  0  0  0  0
   22.6122  -19.8422  -10.4659 C   0  0  0  0  0  0  0  0  0  0  0  0
   20.7684  -21.3482   -9.8711 C   0  0  2  0  0  0  0  0  0  0  0  0
   20.5441  -22.6669   -9.2574 N   0  0  0  0  0  0  0  0  0  0  0  0
   20.4060  -21.4684  -11.3014 C   0  0  0  0  0  0  0  0  0  0  0  0
   20.8821  -22.4830  -11.9347 O   0  0  0  0  0  0  0  0  0  0  0  0
   17.2858  -22.0847  -13.0963 C   0  0  0  0  0  0  0  0  0  0  0  0
   17.8955  -20.8722  -13.7678 C   0  0  1  0  0  0  0  0  0  0  0  0
   17.1790  -19.6494  -13.2389 C   0  0  0  0  0  0  0  0  0  0  0  0
   19.3666  -20.7807  -13.4230 C   0  0  2  0  0  0  0  0  0  0  0  0
   19.5775  -20.5566  -12.0151 N   0  0  0  0  0  0  0  0  0  0  0  0
   19.9856  -19.6638  -14.1999 C   0  0  0  0  0  0  0  0  0  0  0  0
   20.1455  -19.7006  -15.4458 O   0  0  0  0  0  0  0  0  0  0  0  0
   20.4135  -18.5218  -13.5494 O   0  0  0  0  0  0  0  0  0  0  0  0
  2  1  1  1
  2  3  1  0
  4  3  1  0
  4  8  1  0
  5  4  2  0
  6  2  1  0
  7  6  2  0
  9 10  1  0
 10 11  1  0
 11 13  1  0
 11 12  1  6
 13 14  1  1
 14  6  1  0
 15 13  1  0
 15 21  1  0
 16 15  2  0
 18 17  1  1
 18 20  1  0
 19 18  1  0
 20 21  1  1
 20 22  1  0
 22 23  2  0
 22 24  1  0
M  END
$$$$
