DIV.pdb
     RDKit          3D

 24 23  0  0  1  0  0  0  0  0999 V2000
   20.2477  -20.4447  -12.6731 N   0  0  0  0  0  0  0  0  0  0  0  0
   21.2427  -21.4246  -12.9882 C   0  0  1  0  0  0  0  0  0  0  0  0
   20.9387  -22.0103  -14.3638 C   0  0  0  0  0  0  0  0  0  0  0  0
   19.6978  -22.8308  -14.2825 C   0  0  0  0  0  0  0  0  0  0  0  0
   18.5661  -22.3412  -14.5450 O   0  0  0  0  0  0  0  0  0  0  0  0
   22.6102  -20.8320  -13.0781 C   0  0  0  0  0  0  0  0  0  0  0  0
   22.7399  -19.7194  -13.6484 O   0  0  0  0  0  0  0  0  0  0  0  0
   19.8165  -24.1612  -13.9072 O   0  0  0  0  0  0  0  0  0  0  0  0
   25.6659  -21.0647   -8.8711 C   0  0  0  0  0  0  0  0  0  0  0  0
   25.0707  -20.6316  -10.1898 C   0  0  0  0  0  0  0  0  0  0  0  0
   25.7688  -21.3452  -11.3506 C   0  0  2  0  0  0  0  0  0  0  0  0
   27.1874  -20.9039  -11.4558 C   0  0  0  0  0  0  0  0  0  0  0  0
   25.0311  -20.8973  -12.6269 C   0  0  2  0  0  0  0  0  0  0  0  0
   23.7000  -21.5182  -12.5337 N   0  0  0  0  0  0  0  0  0  0  0  0
   25.6997  -21.4812  -13.8116 C   0  0  0  0  0  0  0  0  0  0  0  0
   25.8356  -22.7611  -13.8260 O   0  0  0  0  0  0  0  0  0  0  0  0
   24.8142  -20.4087  -17.4625 C   0  0  0  0  0  0  0  0  0  0  0  0
   25.4340  -21.7219  -17.0331 C   0  0  1  0  0  0  0  0  0  0  0  0
   25.9346  -22.4188  -18.2789 C   0  0  0  0  0  0  0  0  0  0  0  0
   26.5983  -21.4591  -16.1021 C   0  0  2  0  0  0  0  0  0  0  0  0
   26.1929  -20.7385  -14.9218 N   0  0  0  0  0  0  0  0  0  0  0  0
   27.6411  -20.6722  -16.8283 C   0  0  0  0  0  0  0  0  0  0  0  0
   27.5428  -19.4382  -17.0446 O   0  0  0  0  0  0  0  0  0  0  0  0
   28.7800  -21.2991  -17.2977 O   0  0  0  0  0  0  0  0  0  0  0  0
  2  1  1  6
  2  3  1  0
  4  3  1  0
  4  8  1  0
  5  4  2  0
  6  2  1  0
  7  6  2  0
  9 10  1  0
 10 11  1  0
 11 13  1  0
 11 12  1  6
 13 14  1  1
 14  6  1  0
 15 13  1  0
 15 21  1  0
 16 15  2  0
 18 17  1  6
 18 20  1  0
 19 18  1  0
 20 21  1  1
 20 22  1  0
 22 23  2  0
 22 24  1  0
M  END
$$$$
