DIV.pdb
     RDKit          3D

 24 23  0  0  1  0  0  0  0  0999 V2000
   16.2491  -10.4025  -14.8600 N   0  0  0  0  0  0  0  0  0  0  0  0
   16.7609   -9.7284  -13.7052 C   0  0  1  0  0  0  0  0  0  0  0  0
   17.9413   -8.8581  -14.1259 C   0  0  0  0  0  0  0  0  0  0  0  0
   19.0528   -9.7338  -14.5920 C   0  0  0  0  0  0  0  0  0  0  0  0
   19.1010  -10.9559  -14.2861 O   0  0  0  0  0  0  0  0  0  0  0  0
   15.7558   -8.8062  -13.0981 C   0  0  0  0  0  0  0  0  0  0  0  0
   14.8908   -8.2907  -13.8505 O   0  0  0  0  0  0  0  0  0  0  0  0
   20.0452   -9.1682  -15.3794 O   0  0  0  0  0  0  0  0  0  0  0  0
   12.1949   -8.8124   -8.4396 C   0  0  0  0  0  0  0  0  0  0  0  0
   12.9802   -7.9268   -9.3776 C   0  0  0  0  0  0  0  0  0  0  0  0
   14.0547   -8.7394  -10.1050 C   0  0  2  0  0  0  0  0  0  0  0  0
   15.1159   -9.1701   -9.1527 C   0  0  0  0  0  0  0  0  0  0  0  0
   14.6897   -7.7793  -11.1290 C   0  0  2  0  0  0  0  0  0  0  0  0
   15.7987   -8.5405  -11.7261 N   0  0  0  0  0  0  0  0  0  0  0  0
   15.2883   -6.6275  -10.4173 C   0  0  0  0  0  0  0  0  0  0  0  0
   16.3563   -6.8601   -9.7375 O   0  0  0  0  0  0  0  0  0  0  0  0
   16.4443   -3.4460  -12.0071 C   0  0  0  0  0  0  0  0  0  0  0  0
   15.7001   -3.0525  -10.7485 C   0  0  1  0  0  0  0  0  0  0  0  0
   14.3239   -2.5795  -11.1615 C   0  0  0  0  0  0  0  0  0  0  0  0
   15.5658   -4.2527   -9.8358 C   0  0  2  0  0  0  0  0  0  0  0  0
   14.7758   -5.2992  -10.4339 N   0  0  0  0  0  0  0  0  0  0  0  0
   14.9308   -3.8259   -8.5518 C   0  0  0  0  0  0  0  0  0  0  0  0
   15.4952   -3.0641   -7.7270 O   0  0  0  0  0  0  0  0  0  0  0  0
   13.6639   -4.2711   -8.2243 O   0  0  0  0  0  0  0  0  0  0  0  0
  2  1  1  6
  2  3  1  0
  4  3  1  0
  4  8  1  0
  5  4  2  0
  6  2  1  0
  7  6  2  0
  9 10  1  0
 10 11  1  0
 11 13  1  0
 11 12  1  1
 13 14  1  1
 14  6  1  0
 15 13  1  0
 15 21  1  0
 16 15  2  0
 18 17  1  6
 18 20  1  0
 19 18  1  0
 20 21  1  6
 20 22  1  0
 22 23  2  0
 22 24  1  0
M  END
$$$$
