DIV.pdb
     RDKit          3D

 24 23  0  0  1  0  0  0  0  0999 V2000
   22.3356  -15.1423  -18.3358 N   0  0  0  0  0  0  0  0  0  0  0  0
   22.7038  -13.8090  -18.7052 C   0  0  1  0  0  0  0  0  0  0  0  0
   21.5664  -13.1897  -19.5119 C   0  0  0  0  0  0  0  0  0  0  0  0
   21.4316  -13.9172  -20.8050 C   0  0  0  0  0  0  0  0  0  0  0  0
   22.4406  -14.2286  -21.4938 O   0  0  0  0  0  0  0  0  0  0  0  0
   22.9022  -12.9280  -17.5162 C   0  0  0  0  0  0  0  0  0  0  0  0
   22.1260  -13.0666  -16.5372 O   0  0  0  0  0  0  0  0  0  0  0  0
   20.1563  -14.2482  -21.2396 O   0  0  0  0  0  0  0  0  0  0  0  0
   27.6634  -12.5650  -15.7849 C   0  0  0  0  0  0  0  0  0  0  0  0
   26.1574  -12.5259  -15.8913 C   0  0  0  0  0  0  0  0  0  0  0  0
   25.6775  -11.0951  -16.1489 C   0  0  2  0  0  0  0  0  0  0  0  0
   25.9776  -10.2260  -14.9772 C   0  0  0  0  0  0  0  0  0  0  0  0
   24.1469  -11.1838  -16.3009 C   0  0  2  0  0  0  0  0  0  0  0  0
   23.9320  -11.9824  -17.5183 N   0  0  0  0  0  0  0  0  0  0  0  0
   23.6002   -9.8338  -16.5660 C   0  0  0  0  0  0  0  0  0  0  0  0
   24.2378   -9.1094  -17.4178 O   0  0  0  0  0  0  0  0  0  0  0  0
   20.6003   -8.9336  -18.2076 C   0  0  0  0  0  0  0  0  0  0  0  0
   20.5959   -8.0390  -16.9859 C   0  0  1  0  0  0  0  0  0  0  0  0
   19.6346   -8.6398  -15.9842 C   0  0  0  0  0  0  0  0  0  0  0  0
   21.9833   -7.9881  -16.3827 C   0  0  2  0  0  0  0  0  0  0  0  0
   22.4342   -9.2891  -15.9570 N   0  0  0  0  0  0  0  0  0  0  0  0
   21.9770   -7.0592  -15.2117 C   0  0  0  0  0  0  0  0  0  0  0  0
   22.1196   -7.4493  -14.0256 O   0  0  0  0  0  0  0  0  0  0  0  0
   21.8089   -5.7012  -15.4059 O   0  0  0  0  0  0  0  0  0  0  0  0
  2  1  1  1
  2  3  1  0
  4  3  1  0
  4  8  1  0
  5  4  2  0
  6  2  1  0
  7  6  2  0
  9 10  1  0
 10 11  1  0
 11 13  1  0
 11 12  1  1
 13 14  1  6
 14  6  1  0
 15 13  1  0
 15 21  1  0
 16 15  2  0
 18 17  1  6
 18 20  1  0
 19 18  1  0
 20 21  1  1
 20 22  1  0
 22 23  2  0
 22 24  1  0
M  END
$$$$
