LLI.pdb
     RDKit          3D

 25 24  0  0  1  0  0  0  0  0999 V2000
    7.2017  -19.2067   20.1405 C   0  0  0  0  0  0  0  0  0  0  0  0
    8.6747  -19.4443   20.3371 C   0  0  2  0  0  0  0  0  0  0  0  0
    8.9778  -20.8752   20.6372 C   0  0  0  0  0  0  0  0  0  0  0  0
    9.2128  -18.5022   21.4107 C   0  0  0  0  0  0  0  0  0  0  0  0
    8.7684  -17.1085   21.0219 C   0  0  2  0  0  0  0  0  0  0  0  0
    9.5608  -16.7435   19.8453 N   0  0  0  0  0  0  0  0  0  0  0  0
    9.0234  -16.1367   22.1154 C   0  0  0  0  0  0  0  0  0  0  0  0
   10.1550  -15.6399   22.2164 O   0  0  0  0  0  0  0  0  0  0  0  0
    5.3950  -12.9868   25.8935 C   0  0  0  0  0  0  0  0  0  0  0  0
    6.8957  -13.2987   25.6565 C   0  0  2  0  0  0  0  0  0  0  0  0
    7.5181  -11.9733   25.3467 C   0  0  0  0  0  0  0  0  0  0  0  0
    6.9093  -14.2731   24.5535 C   0  0  0  0  0  0  0  0  0  0  0  0
    8.2281  -14.8868   24.1713 C   0  0  2  0  0  0  0  0  0  0  0  0
    7.9847  -15.7977   23.0126 N   0  0  0  0  0  0  0  0  0  0  0  0
    8.8854  -15.6826   25.1947 C   0  0  0  0  0  0  0  0  0  0  0  0
    8.6301  -16.9019   25.3462 O   0  0  0  0  0  0  0  0  0  0  0  0
    9.7515  -13.2405   29.6720 C   0  0  0  0  0  0  0  0  0  0  0  0
   10.3293  -13.7900   28.3761 C   0  0  0  0  0  0  0  0  0  0  0  0
   10.1986  -15.2948   28.4273 C   0  0  2  0  0  0  0  0  0  0  0  0
   11.0728  -15.8225   29.5212 C   0  0  0  0  0  0  0  0  0  0  0  0
   10.5375  -15.9060   27.0765 C   0  0  2  0  0  0  0  0  0  0  0  0
    9.8462  -15.1177   26.0647 N   0  0  0  0  0  0  0  0  0  0  0  0
   10.1987  -17.3268   27.0085 C   0  0  0  0  0  0  0  0  0  0  0  0
    8.8769  -17.7907   27.1047 O   0  0  0  0  0  0  0  0  0  0  0  0
   11.0903  -18.2003   26.8591 O   0  0  0  0  0  0  0  0  0  0  0  0
  2  1  1  1
  2  3  1  0
  4  5  1  0
  4  2  1  0
  5  6  1  6
  7  5  1  0
  7  8  2  0
 10  9  1  6
 11 10  1  0
 12 10  1  0
 13 12  1  1
 13 14  1  0
 14  7  1  0
 15 13  1  0
 16 15  2  0
 17 18  1  0
 18 19  1  0
 19 21  1  0
 19 20  1  1
 21 22  1  6
 21 23  1  0
 22 15  1  0
 23 24  1  0
 25 23  2  0
M  END
$$$$
