LLI.pdb
     RDKit          3D

 25 24  0  0  1  0  0  0  0  0999 V2000
    8.4128  -14.3644   18.6130 C   0  0  0  0  0  0  0  0  0  0  0  0
    7.6623  -13.3502   19.4333 C   0  0  2  0  0  0  0  0  0  0  0  0
    7.6377  -12.0073   18.7810 C   0  0  0  0  0  0  0  0  0  0  0  0
    8.2394  -13.2962   20.8453 C   0  0  0  0  0  0  0  0  0  0  0  0
    8.1442  -14.7002   21.4027 C   0  0  2  0  0  0  0  0  0  0  0  0
    6.7239  -15.0561   21.3653 N   0  0  0  0  0  0  0  0  0  0  0  0
    8.6359  -14.7589   22.8027 C   0  0  0  0  0  0  0  0  0  0  0  0
    9.8518  -14.6334   23.0108 O   0  0  0  0  0  0  0  0  0  0  0  0
    8.1601  -12.1493   26.4998 C   0  0  0  0  0  0  0  0  0  0  0  0
    6.8858  -12.8046   25.9062 C   0  0  2  0  0  0  0  0  0  0  0  0
    5.7526  -12.2119   26.6836 C   0  0  0  0  0  0  0  0  0  0  0  0
    7.0850  -14.2515   26.0890 C   0  0  0  0  0  0  0  0  0  0  0  0
    8.1676  -14.9207   25.2879 C   0  0  2  0  0  0  0  0  0  0  0  0
    7.7210  -14.9544   23.8628 N   0  0  0  0  0  0  0  0  0  0  0  0
    8.4842  -16.2906   25.6567 C   0  0  0  0  0  0  0  0  0  0  0  0
    7.6478  -17.2174   25.5286 O   0  0  0  0  0  0  0  0  0  0  0  0
   13.6234  -18.3199   25.3131 C   0  0  0  0  0  0  0  0  0  0  0  0
   12.4766  -17.6833   26.0842 C   0  0  0  0  0  0  0  0  0  0  0  0
   11.2311  -18.4839   25.7811 C   0  0  2  0  0  0  0  0  0  0  0  0
   10.9448  -18.4025   24.3146 C   0  0  0  0  0  0  0  0  0  0  0  0
   10.0631  -17.9923   26.6220 C   0  0  2  0  0  0  0  0  0  0  0  0
    9.7524  -16.6409   26.1742 N   0  0  0  0  0  0  0  0  0  0  0  0
   10.3438  -18.0573   28.0555 C   0  0  0  0  0  0  0  0  0  0  0  0
   10.3938  -19.2720   28.7582 O   0  0  0  0  0  0  0  0  0  0  0  0
   10.5540  -17.0136   28.7238 O   0  0  0  0  0  0  0  0  0  0  0  0
  2  1  1  6
  2  3  1  0
  4  5  1  0
  4  2  1  0
  5  6  1  1
  7  5  1  0
  7  8  2  0
 10  9  1  1
 11 10  1  0
 12 10  1  0
 13 12  1  1
 13 14  1  0
 14  7  1  0
 15 13  1  0
 16 15  2  0
 17 18  1  0
 18 19  1  0
 19 21  1  0
 19 20  1  6
 21 22  1  6
 21 23  1  0
 22 15  1  0
 23 24  1  0
 25 23  2  0
M  END
$$$$
