LLI.pdb
     RDKit          3D

 25 24  0  0  1  0  0  0  0  0999 V2000
    8.1139  -17.7544   17.9563 C   0  0  0  0  0  0  0  0  0  0  0  0
    8.0588  -18.2249   19.3848 C   0  0  2  0  0  0  0  0  0  0  0  0
    7.1652  -19.4094   19.5520 C   0  0  0  0  0  0  0  0  0  0  0  0
    7.6608  -17.0675   20.2967 C   0  0  0  0  0  0  0  0  0  0  0  0
    8.1355  -17.4324   21.6868 C   0  0  2  0  0  0  0  0  0  0  0  0
    6.9871  -18.0433   22.3603 N   0  0  0  0  0  0  0  0  0  0  0  0
    8.5730  -16.2298   22.4401 C   0  0  0  0  0  0  0  0  0  0  0  0
    9.5943  -15.6342   22.0665 O   0  0  0  0  0  0  0  0  0  0  0  0
    5.7071  -12.9261   26.7207 C   0  0  0  0  0  0  0  0  0  0  0  0
    7.0782  -12.9944   25.9990 C   0  0  2  0  0  0  0  0  0  0  0  0
    7.2798  -11.6252   25.4292 C   0  0  0  0  0  0  0  0  0  0  0  0
    6.9301  -14.0725   25.0080 C   0  0  0  0  0  0  0  0  0  0  0  0
    8.1545  -14.5064   24.2501 C   0  0  2  0  0  0  0  0  0  0  0  0
    7.8273  -15.7888   23.5574 N   0  0  0  0  0  0  0  0  0  0  0  0
    9.3456  -14.7555   25.0450 C   0  0  0  0  0  0  0  0  0  0  0  0
   10.2742  -13.9148   25.1219 O   0  0  0  0  0  0  0  0  0  0  0  0
   10.6128  -13.3452   29.0389 C   0  0  0  0  0  0  0  0  0  0  0  0
   10.7440  -14.0076   27.6754 C   0  0  0  0  0  0  0  0  0  0  0  0
   10.5535  -15.4933   27.8765 C   0  0  2  0  0  0  0  0  0  0  0  0
   11.5248  -15.9735   28.9086 C   0  0  0  0  0  0  0  0  0  0  0  0
   10.7053  -16.2341   26.5570 C   0  0  2  0  0  0  0  0  0  0  0  0
    9.5098  -15.9576   25.7711 N   0  0  0  0  0  0  0  0  0  0  0  0
   10.9331  -17.6660   26.7461 C   0  0  0  0  0  0  0  0  0  0  0  0
    9.9838  -18.6338   26.3802 O   0  0  0  0  0  0  0  0  0  0  0  0
   12.0026  -18.0920   27.2508 O   0  0  0  0  0  0  0  0  0  0  0  0
  2  1  1  6
  2  3  1  0
  4  5  1  0
  4  2  1  0
  5  6  1  1
  7  5  1  0
  7  8  2  0
 10  9  1  6
 11 10  1  0
 12 10  1  0
 13 12  1  1
 13 14  1  0
 14  7  1  0
 15 13  1  0
 16 15  2  0
 17 18  1  0
 18 19  1  0
 19 21  1  0
 19 20  1  1
 21 22  1  6
 21 23  1  0
 22 15  1  0
 23 24  1  0
 25 23  2  0
M  END
$$$$
