LLI.pdb
     RDKit          3D

 25 24  0  0  1  0  0  0  0  0999 V2000
   13.8441  -19.9072   20.6595 C   0  0  0  0  0  0  0  0  0  0  0  0
   12.8550  -19.7007   19.5442 C   0  0  2  0  0  0  0  0  0  0  0  0
   13.4609  -19.9505   18.2026 C   0  0  0  0  0  0  0  0  0  0  0  0
   12.2383  -18.3086   19.6495 C   0  0  0  0  0  0  0  0  0  0  0  0
   11.7060  -18.1796   21.0605 C   0  0  2  0  0  0  0  0  0  0  0  0
   10.5938  -19.1273   21.1627 N   0  0  0  0  0  0  0  0  0  0  0  0
   11.2146  -16.8040   21.3277 C   0  0  0  0  0  0  0  0  0  0  0  0
   12.0318  -15.8714   21.3296 O   0  0  0  0  0  0  0  0  0  0  0  0
    5.9039  -13.9702   20.7957 C   0  0  0  0  0  0  0  0  0  0  0  0
    7.3347  -13.7493   21.3523 C   0  0  2  0  0  0  0  0  0  0  0  0
    7.9572  -12.7537   20.4244 C   0  0  0  0  0  0  0  0  0  0  0  0
    7.9523  -15.0854   21.3474 C   0  0  0  0  0  0  0  0  0  0  0  0
    9.3267  -15.2288   21.9410 C   0  0  2  0  0  0  0  0  0  0  0  0
    9.8398  -16.5825   21.5726 N   0  0  0  0  0  0  0  0  0  0  0  0
    9.4131  -15.1314   23.3887 C   0  0  0  0  0  0  0  0  0  0  0  0
   10.4783  -15.3811   24.0034 O   0  0  0  0  0  0  0  0  0  0  0  0
    6.4731  -11.4145   25.8951 C   0  0  0  0  0  0  0  0  0  0  0  0
    7.6365  -12.3301   25.5438 C   0  0  0  0  0  0  0  0  0  0  0  0
    7.3084  -13.7027   26.0845 C   0  0  2  0  0  0  0  0  0  0  0  0
    7.2123  -13.6283   27.5760 C   0  0  0  0  0  0  0  0  0  0  0  0
    8.3435  -14.7182   25.6261 C   0  0  2  0  0  0  0  0  0  0  0  0
    8.2991  -14.7468   24.1699 N   0  0  0  0  0  0  0  0  0  0  0  0
    8.1293  -16.0372   26.2196 C   0  0  0  0  0  0  0  0  0  0  0  0
    8.8957  -16.5113   27.2964 O   0  0  0  0  0  0  0  0  0  0  0  0
    7.2383  -16.8087   25.7826 O   0  0  0  0  0  0  0  0  0  0  0  0
  2  1  1  1
  2  3  1  0
  4  5  1  0
  4  2  1  0
  5  6  1  6
  7  5  1  0
  7  8  2  0
 10  9  1  6
 11 10  1  0
 12 10  1  0
 13 12  1  1
 13 14  1  0
 14  7  1  0
 15 13  1  0
 16 15  2  0
 17 18  1  0
 18 19  1  0
 19 21  1  0
 19 20  1  1
 21 22  1  6
 21 23  1  0
 22 15  1  0
 23 24  1  0
 25 23  2  0
M  END
$$$$
