LLI.pdb
     RDKit          3D

 25 24  0  0  1  0  0  0  0  0999 V2000
    8.4942  -19.7555   25.6406 C   0  0  0  0  0  0  0  0  0  0  0  0
    7.6876  -19.0469   24.5860 C   0  0  2  0  0  0  0  0  0  0  0  0
    6.2262  -19.0622   24.8918 C   0  0  0  0  0  0  0  0  0  0  0  0
    7.9969  -19.6376   23.2130 C   0  0  0  0  0  0  0  0  0  0  0  0
    7.4403  -18.6681   22.1926 C   0  0  2  0  0  0  0  0  0  0  0  0
    7.5313  -19.3459   20.8973 N   0  0  0  0  0  0  0  0  0  0  0  0
    8.2318  -17.4122   22.1544 C   0  0  0  0  0  0  0  0  0  0  0  0
    9.4407  -17.4801   21.8871 O   0  0  0  0  0  0  0  0  0  0  0  0
    8.6405  -13.7424   19.4596 C   0  0  0  0  0  0  0  0  0  0  0  0
    7.2688  -14.1299   20.0711 C   0  0  2  0  0  0  0  0  0  0  0  0
    6.2834  -13.2176   19.4105 C   0  0  0  0  0  0  0  0  0  0  0  0
    7.4329  -13.9346   21.5208 C   0  0  0  0  0  0  0  0  0  0  0  0
    8.3349  -14.8825   22.2621 C   0  0  2  0  0  0  0  0  0  0  0  0
    7.6020  -16.1746   22.4201 N   0  0  0  0  0  0  0  0  0  0  0  0
    8.7418  -14.4699   23.5951 C   0  0  0  0  0  0  0  0  0  0  0  0
    9.2078  -13.3260   23.8172 O   0  0  0  0  0  0  0  0  0  0  0  0
    6.9211  -11.6557   25.6903 C   0  0  0  0  0  0  0  0  0  0  0  0
    7.9696  -12.6996   25.3352 C   0  0  0  0  0  0  0  0  0  0  0  0
    7.8874  -13.7924   26.3760 C   0  0  2  0  0  0  0  0  0  0  0  0
    8.1080  -13.1934   27.7294 C   0  0  0  0  0  0  0  0  0  0  0  0
    8.8850  -14.8983   26.0683 C   0  0  2  0  0  0  0  0  0  0  0  0
    8.6271  -15.3398   24.7038 N   0  0  0  0  0  0  0  0  0  0  0  0
    8.8163  -15.9937   27.0345 C   0  0  0  0  0  0  0  0  0  0  0  0
    9.6393  -16.0474   28.1709 O   0  0  0  0  0  0  0  0  0  0  0  0
    8.0066  -16.9431   26.8829 O   0  0  0  0  0  0  0  0  0  0  0  0
  2  1  1  1
  2  3  1  0
  4  5  1  0
  4  2  1  0
  5  6  1  6
  7  5  1  0
  7  8  2  0
 10  9  1  6
 11 10  1  0
 12 10  1  0
 13 12  1  1
 13 14  1  0
 14  7  1  0
 15 13  1  0
 16 15  2  0
 17 18  1  0
 18 19  1  0
 19 21  1  0
 19 20  1  1
 21 22  1  6
 21 23  1  0
 22 15  1  0
 23 24  1  0
 25 23  2  0
M  END
$$$$
