LLI.pdb
     RDKit          3D

 25 24  0  0  1  0  0  0  0  0999 V2000
    7.6468  -19.7179   20.4274 C   0  0  0  0  0  0  0  0  0  0  0  0
    9.1350  -19.7825   20.6419 C   0  0  2  0  0  0  0  0  0  0  0  0
    9.5932  -21.1605   20.9892 C   0  0  0  0  0  0  0  0  0  0  0  0
    9.5528  -18.7536   21.6889 C   0  0  0  0  0  0  0  0  0  0  0  0
    9.0779  -17.4082   21.1834 C   0  0  2  0  0  0  0  0  0  0  0  0
    9.8840  -17.1133   19.9965 N   0  0  0  0  0  0  0  0  0  0  0  0
    9.2829  -16.3467   22.2013 C   0  0  0  0  0  0  0  0  0  0  0  0
   10.4031  -15.8234   22.2962 O   0  0  0  0  0  0  0  0  0  0  0  0
    5.4791  -13.1039   25.7270 C   0  0  0  0  0  0  0  0  0  0  0  0
    6.9962  -13.3329   25.4999 C   0  0  2  0  0  0  0  0  0  0  0  0
    7.5405  -11.9816   25.1570 C   0  0  0  0  0  0  0  0  0  0  0  0
    7.0701  -14.3326   24.4221 C   0  0  0  0  0  0  0  0  0  0  0  0
    8.4064  -14.9586   24.1317 C   0  0  2  0  0  0  0  0  0  0  0  0
    8.2110  -15.9547   23.0357 N   0  0  0  0  0  0  0  0  0  0  0  0
    9.0338  -15.6701   25.2330 C   0  0  0  0  0  0  0  0  0  0  0  0
    8.5157  -16.6973   25.7341 O   0  0  0  0  0  0  0  0  0  0  0  0
   10.3028  -12.9550   29.2525 C   0  0  0  0  0  0  0  0  0  0  0  0
   10.7166  -13.6559   27.9669 C   0  0  0  0  0  0  0  0  0  0  0  0
   10.4926  -15.1368   28.1694 C   0  0  2  0  0  0  0  0  0  0  0  0
   11.2596  -15.5850   29.3736 C   0  0  0  0  0  0  0  0  0  0  0  0
   10.8824  -15.9111   26.9198 C   0  0  2  0  0  0  0  0  0  0  0  0
   10.2603  -15.2372   25.7875 N   0  0  0  0  0  0  0  0  0  0  0  0
   10.5136  -17.3236   27.0033 C   0  0  0  0  0  0  0  0  0  0  0  0
   11.4679  -18.3429   27.1521 O   0  0  0  0  0  0  0  0  0  0  0  0
    9.3112  -17.6851   26.9442 O   0  0  0  0  0  0  0  0  0  0  0  0
  2  1  1  1
  2  3  1  0
  4  5  1  0
  4  2  1  0
  5  6  1  6
  7  5  1  0
  7  8  2  0
 10  9  1  6
 11 10  1  0
 12 10  1  0
 13 12  1  1
 13 14  1  0
 14  7  1  0
 15 13  1  0
 16 15  2  0
 17 18  1  0
 18 19  1  0
 19 21  1  0
 19 20  1  1
 21 22  1  6
 21 23  1  0
 22 15  1  0
 23 24  1  0
 25 23  2  0
M  END
$$$$
