LLI.pdb
     RDKit          3D

 25 24  0  0  1  0  0  0  0  0999 V2000
    5.3450  -20.1678   24.0666 C   0  0  0  0  0  0  0  0  0  0  0  0
    6.7705  -20.4823   24.4322 C   0  0  2  0  0  0  0  0  0  0  0  0
    6.8906  -21.0074   25.8248 C   0  0  0  0  0  0  0  0  0  0  0  0
    7.6480  -19.2553   24.1997 C   0  0  0  0  0  0  0  0  0  0  0  0
    7.4549  -18.8565   22.7524 C   0  0  2  0  0  0  0  0  0  0  0  0
    8.0066  -19.9525   21.9525 N   0  0  0  0  0  0  0  0  0  0  0  0
    8.1779  -17.5979   22.4389 C   0  0  0  0  0  0  0  0  0  0  0  0
    9.3941  -17.6544   22.2038 O   0  0  0  0  0  0  0  0  0  0  0  0
    8.7538  -13.2977   19.8644 C   0  0  0  0  0  0  0  0  0  0  0  0
    7.3578  -13.9477   20.0498 C   0  0  2  0  0  0  0  0  0  0  0  0
    6.3977  -12.9727   19.4436 C   0  0  0  0  0  0  0  0  0  0  0  0
    7.2223  -14.1435   21.5023 C   0  0  0  0  0  0  0  0  0  0  0  0
    8.1867  -15.0770   22.1807 C   0  0  2  0  0  0  0  0  0  0  0  0
    7.4766  -16.3704   22.4139 N   0  0  0  0  0  0  0  0  0  0  0  0
    8.6971  -14.6446   23.4712 C   0  0  0  0  0  0  0  0  0  0  0  0
    9.3408  -13.5751   23.6003 O   0  0  0  0  0  0  0  0  0  0  0  0
    6.6583  -11.9148   25.8955 C   0  0  0  0  0  0  0  0  0  0  0  0
    7.7585  -12.8403   25.3975 C   0  0  0  0  0  0  0  0  0  0  0  0
    7.9422  -13.9216   26.4374 C   0  0  2  0  0  0  0  0  0  0  0  0
    8.3665  -13.2906   27.7262 C   0  0  0  0  0  0  0  0  0  0  0  0
    8.9385  -14.9637   25.9533 C   0  0  2  0  0  0  0  0  0  0  0  0
    8.4875  -15.4098   24.6415 N   0  0  0  0  0  0  0  0  0  0  0  0
    9.0915  -16.0683   26.8991 C   0  0  0  0  0  0  0  0  0  0  0  0
    8.6388  -17.3675   26.6184 O   0  0  0  0  0  0  0  0  0  0  0  0
    9.6420  -15.8950   28.0158 O   0  0  0  0  0  0  0  0  0  0  0  0
  2  1  1  1
  2  3  1  0
  4  5  1  0
  4  2  1  0
  5  6  1  6
  7  5  1  0
  7  8  2  0
 10  9  1  1
 11 10  1  0
 12 10  1  0
 13 12  1  1
 13 14  1  0
 14  7  1  0
 15 13  1  0
 16 15  2  0
 17 18  1  0
 18 19  1  0
 19 21  1  0
 19 20  1  1
 21 22  1  6
 21 23  1  0
 22 15  1  0
 23 24  1  0
 25 23  2  0
M  END
$$$$
