LLI.pdb
     RDKit          3D

 25 24  0  0  1  0  0  0  0  0999 V2000
    9.6304  -13.8673   19.3814 C   0  0  0  0  0  0  0  0  0  0  0  0
    8.2679  -13.7268   18.7580 C   0  0  2  0  0  0  0  0  0  0  0  0
    7.9481  -12.3079   18.4206 C   0  0  0  0  0  0  0  0  0  0  0  0
    7.2150  -14.3561   19.6663 C   0  0  0  0  0  0  0  0  0  0  0  0
    7.8369  -15.6110   20.2404 C   0  0  2  0  0  0  0  0  0  0  0  0
    7.5103  -16.6899   19.3051 N   0  0  0  0  0  0  0  0  0  0  0  0
    7.2774  -15.9259   21.5794 C   0  0  0  0  0  0  0  0  0  0  0  0
    6.1454  -15.5071   21.8635 O   0  0  0  0  0  0  0  0  0  0  0  0
    8.2190  -18.8608   26.1841 C   0  0  0  0  0  0  0  0  0  0  0  0
    7.0623  -19.1725   25.1989 C   0  0  2  0  0  0  0  0  0  0  0  0
    6.9610  -20.6657   25.1871 C   0  0  0  0  0  0  0  0  0  0  0  0
    7.4752  -18.5601   23.9258 C   0  0  0  0  0  0  0  0  0  0  0  0
    7.4859  -17.0588   23.8365 C   0  0  2  0  0  0  0  0  0  0  0  0
    8.0350  -16.6889   22.4974 N   0  0  0  0  0  0  0  0  0  0  0  0
    8.2949  -16.3637   24.8239 C   0  0  0  0  0  0  0  0  0  0  0  0
    9.5487  -16.4113   24.8000 O   0  0  0  0  0  0  0  0  0  0  0  0
    5.9791  -11.8803   26.4613 C   0  0  0  0  0  0  0  0  0  0  0  0
    7.0193  -12.8690   25.9559 C   0  0  0  0  0  0  0  0  0  0  0  0
    7.5739  -13.5941   27.1604 C   0  0  2  0  0  0  0  0  0  0  0  0
    8.2782  -12.6093   28.0399 C   0  0  0  0  0  0  0  0  0  0  0  0
    8.4864  -14.7305   26.7257 C   0  0  2  0  0  0  0  0  0  0  0  0
    7.7038  -15.5987   25.8557 N   0  0  0  0  0  0  0  0  0  0  0  0
    9.0618  -15.4476   27.8627 C   0  0  0  0  0  0  0  0  0  0  0  0
   10.3095  -15.1105   28.4116 O   0  0  0  0  0  0  0  0  0  0  0  0
    8.4532  -16.4071   28.4003 O   0  0  0  0  0  0  0  0  0  0  0  0
  2  1  1  1
  2  3  1  0
  4  5  1  0
  4  2  1  0
  5  6  1  6
  7  5  1  0
  7  8  2  0
 10  9  1  1
 11 10  1  0
 12 10  1  0
 13 12  1  1
 13 14  1  0
 14  7  1  0
 15 13  1  0
 16 15  2  0
 17 18  1  0
 18 19  1  0
 19 21  1  0
 19 20  1  1
 21 22  1  6
 21 23  1  0
 22 15  1  0
 23 24  1  0
 25 23  2  0
M  END
$$$$
