LLI.pdb
     RDKit          3D

 25 24  0  0  1  0  0  0  0  0999 V2000
    5.4208  -20.7326   22.5662 C   0  0  0  0  0  0  0  0  0  0  0  0
    6.9113  -20.9208   22.6534 C   0  0  2  0  0  0  0  0  0  0  0  0
    7.2772  -22.2133   23.3054 C   0  0  0  0  0  0  0  0  0  0  0  0
    7.5452  -19.7212   23.3526 C   0  0  0  0  0  0  0  0  0  0  0  0
    7.1246  -18.4957   22.5701 C   0  0  2  0  0  0  0  0  0  0  0  0
    7.5898  -18.7112   21.1980 N   0  0  0  0  0  0  0  0  0  0  0  0
    7.7476  -17.2650   23.1199 C   0  0  0  0  0  0  0  0  0  0  0  0
    8.9066  -16.9836   22.7806 O   0  0  0  0  0  0  0  0  0  0  0  0
    5.5452  -12.5241   26.3210 C   0  0  0  0  0  0  0  0  0  0  0  0
    6.8836  -13.0809   25.7695 C   0  0  2  0  0  0  0  0  0  0  0  0
    7.3992  -12.0089   24.8612 C   0  0  0  0  0  0  0  0  0  0  0  0
    6.5227  -14.3455   25.1083 C   0  0  0  0  0  0  0  0  0  0  0  0
    7.6379  -15.2366   24.6348 C   0  0  2  0  0  0  0  0  0  0  0  0
    7.0183  -16.4440   24.0104 N   0  0  0  0  0  0  0  0  0  0  0  0
    8.5506  -15.7197   25.6576 C   0  0  0  0  0  0  0  0  0  0  0  0
    8.1820  -16.5345   26.5381 O   0  0  0  0  0  0  0  0  0  0  0  0
   10.0451  -13.2185   29.3138 C   0  0  0  0  0  0  0  0  0  0  0  0
   10.4253  -13.7330   27.9333 C   0  0  0  0  0  0  0  0  0  0  0  0
   10.5051  -15.2397   28.0207 C   0  0  2  0  0  0  0  0  0  0  0  0
   11.5010  -15.6143   29.0728 C   0  0  0  0  0  0  0  0  0  0  0  0
   10.8513  -15.8351   26.6647 C   0  0  2  0  0  0  0  0  0  0  0  0
    9.8983  -15.2946   25.7041 N   0  0  0  0  0  0  0  0  0  0  0  0
   10.8588  -17.2972   26.6850 C   0  0  0  0  0  0  0  0  0  0  0  0
   12.0403  -18.0454   26.5593 O   0  0  0  0  0  0  0  0  0  0  0  0
    9.7928  -17.9500   26.8176 O   0  0  0  0  0  0  0  0  0  0  0  0
  2  1  1  1
  2  3  1  0
  4  5  1  0
  4  2  1  0
  5  6  1  6
  7  5  1  0
  7  8  2  0
 10  9  1  6
 11 10  1  0
 12 10  1  0
 13 12  1  1
 13 14  1  0
 14  7  1  0
 15 13  1  0
 16 15  2  0
 17 18  1  0
 18 19  1  0
 19 21  1  0
 19 20  1  1
 21 22  1  6
 21 23  1  0
 22 15  1  0
 23 24  1  0
 25 23  2  0
M  END
$$$$
