LLI.pdb
     RDKit          3D

 25 24  0  0  1  0  0  0  0  0999 V2000
   11.5354  -21.1058   19.5668 C   0  0  0  0  0  0  0  0  0  0  0  0
   10.1645  -20.4906   19.6511 C   0  0  2  0  0  0  0  0  0  0  0  0
    9.2766  -20.9426   18.5390 C   0  0  0  0  0  0  0  0  0  0  0  0
   10.2818  -18.9701   19.7151 C   0  0  0  0  0  0  0  0  0  0  0  0
    9.8439  -18.5632   21.1057 C   0  0  2  0  0  0  0  0  0  0  0  0
    8.4205  -18.8963   21.1964 N   0  0  0  0  0  0  0  0  0  0  0  0
   10.0296  -17.1063   21.3247 C   0  0  0  0  0  0  0  0  0  0  0  0
   11.1768  -16.6389   21.2687 O   0  0  0  0  0  0  0  0  0  0  0  0
    8.5849  -12.8023   19.6163 C   0  0  0  0  0  0  0  0  0  0  0  0
    7.5490  -13.8953   19.9877 C   0  0  2  0  0  0  0  0  0  0  0  0
    6.2208  -13.2958   19.6468 C   0  0  0  0  0  0  0  0  0  0  0  0
    7.7724  -14.1566   21.4189 C   0  0  0  0  0  0  0  0  0  0  0  0
    9.0617  -14.8178   21.8219 C   0  0  2  0  0  0  0  0  0  0  0  0
    8.9094  -16.2856   21.5901 N   0  0  0  0  0  0  0  0  0  0  0  0
    9.4586  -14.6553   23.2107 C   0  0  0  0  0  0  0  0  0  0  0  0
   10.3454  -13.8351   23.5509 O   0  0  0  0  0  0  0  0  0  0  0  0
    7.1604  -11.8874   27.0193 C   0  0  0  0  0  0  0  0  0  0  0  0
    7.9558  -13.1819   27.1004 C   0  0  0  0  0  0  0  0  0  0  0  0
    7.8337  -13.8700   25.7603 C   0  0  2  0  0  0  0  0  0  0  0  0
    6.4364  -14.3812   25.6010 C   0  0  0  0  0  0  0  0  0  0  0  0
    8.8681  -14.9777   25.6331 C   0  0  2  0  0  0  0  0  0  0  0  0
    8.8594  -15.4136   24.2428 N   0  0  0  0  0  0  0  0  0  0  0  0
    8.6239  -16.0763   26.5667 C   0  0  0  0  0  0  0  0  0  0  0  0
    8.4122  -17.3961   26.1367 O   0  0  0  0  0  0  0  0  0  0  0  0
    8.5935  -15.8789   27.8077 O   0  0  0  0  0  0  0  0  0  0  0  0
  2  1  1  6
  2  3  1  0
  4  5  1  0
  4  2  1  0
  5  6  1  6
  7  5  1  0
  7  8  2  0
 10  9  1  1
 11 10  1  0
 12 10  1  0
 13 12  1  1
 13 14  1  0
 14  7  1  0
 15 13  1  0
 16 15  2  0
 17 18  1  0
 18 19  1  0
 19 21  1  0
 19 20  1  1
 21 22  1  6
 21 23  1  0
 22 15  1  0
 23 24  1  0
 25 23  2  0
M  END
$$$$
