LLI.pdb
     RDKit          3D

 25 24  0  0  1  0  0  0  0  0999 V2000
    8.7459  -14.7666   18.0842 C   0  0  0  0  0  0  0  0  0  0  0  0
    7.7512  -13.8614   18.7592 C   0  0  2  0  0  0  0  0  0  0  0  0
    7.4595  -12.6426   17.9474 C   0  0  0  0  0  0  0  0  0  0  0  0
    8.2347  -13.5169   20.1653 C   0  0  0  0  0  0  0  0  0  0  0  0
    8.4835  -14.8336   20.8691 C   0  0  2  0  0  0  0  0  0  0  0  0
    7.2106  -15.5576   20.8371 N   0  0  0  0  0  0  0  0  0  0  0  0
    8.9006  -14.6212   22.2784 C   0  0  0  0  0  0  0  0  0  0  0  0
    9.9830  -14.0578   22.4988 O   0  0  0  0  0  0  0  0  0  0  0  0
    7.4892  -12.0327   25.6015 C   0  0  0  0  0  0  0  0  0  0  0  0
    6.3380  -13.0000   25.2210 C   0  0  2  0  0  0  0  0  0  0  0  0
    5.2407  -12.6895   26.1901 C   0  0  0  0  0  0  0  0  0  0  0  0
    6.9208  -14.3463   25.3410 C   0  0  0  0  0  0  0  0  0  0  0  0
    8.2760  -14.5845   24.7340 C   0  0  2  0  0  0  0  0  0  0  0  0
    8.0673  -15.0595   23.3331 N   0  0  0  0  0  0  0  0  0  0  0  0
    9.1067  -15.5800   25.3910 C   0  0  0  0  0  0  0  0  0  0  0  0
    9.4795  -16.6217   24.7988 O   0  0  0  0  0  0  0  0  0  0  0  0
   10.4158  -13.8483   30.1379 C   0  0  0  0  0  0  0  0  0  0  0  0
   10.9223  -14.4150   28.8199 C   0  0  0  0  0  0  0  0  0  0  0  0
   10.6093  -15.8936   28.8157 C   0  0  2  0  0  0  0  0  0  0  0  0
   11.7153  -16.6274   29.5068 C   0  0  0  0  0  0  0  0  0  0  0  0
   10.3924  -16.3890   27.3943 C   0  0  2  0  0  0  0  0  0  0  0  0
    9.5352  -15.4168   26.7285 N   0  0  0  0  0  0  0  0  0  0  0  0
    9.8406  -17.7426   27.3553 C   0  0  0  0  0  0  0  0  0  0  0  0
   10.6428  -18.8766   27.1500 O   0  0  0  0  0  0  0  0  0  0  0  0
    8.6094  -17.9462   27.5061 O   0  0  0  0  0  0  0  0  0  0  0  0
  2  1  1  6
  2  3  1  0
  4  5  1  0
  4  2  1  0
  5  6  1  1
  7  5  1  0
  7  8  2  0
 10  9  1  1
 11 10  1  0
 12 10  1  0
 13 12  1  1
 13 14  1  0
 14  7  1  0
 15 13  1  0
 16 15  2  0
 17 18  1  0
 18 19  1  0
 19 21  1  0
 19 20  1  6
 21 22  1  1
 21 23  1  0
 22 15  1  0
 23 24  1  0
 25 23  2  0
M  END
$$$$
