LLI.pdb
     RDKit          3D

 25 24  0  0  1  0  0  0  0  0999 V2000
    6.0071  -13.0882   25.5886 C   0  0  0  0  0  0  0  0  0  0  0  0
    5.9306  -13.8350   26.8929 C   0  0  2  0  0  0  0  0  0  0  0  0
    6.7666  -13.1992   27.9542 C   0  0  0  0  0  0  0  0  0  0  0  0
    6.2933  -15.3011   26.6727 C   0  0  0  0  0  0  0  0  0  0  0  0
    5.5987  -15.7292   25.3978 C   0  0  2  0  0  0  0  0  0  0  0  0
    4.9177  -16.9879   25.7099 N   0  0  0  0  0  0  0  0  0  0  0  0
    6.5742  -15.9494   24.3002 C   0  0  0  0  0  0  0  0  0  0  0  0
    6.9153  -17.1112   24.0329 O   0  0  0  0  0  0  0  0  0  0  0  0
    8.8611  -12.3638   19.8949 C   0  0  0  0  0  0  0  0  0  0  0  0
    8.9478  -13.8138   20.4387 C   0  0  2  0  0  0  0  0  0  0  0  0
    8.4954  -14.6767   19.3026 C   0  0  0  0  0  0  0  0  0  0  0  0
    8.0749  -13.8256   21.6237 C   0  0  0  0  0  0  0  0  0  0  0  0
    8.1349  -15.0232   22.5316 C   0  0  2  0  0  0  0  0  0  0  0  0
    7.0921  -14.8444   23.5862 N   0  0  0  0  0  0  0  0  0  0  0  0
    9.3941  -15.2397   23.2246 C   0  0  0  0  0  0  0  0  0  0  0  0
   10.4978  -15.0151   22.6712 O   0  0  0  0  0  0  0  0  0  0  0  0
    9.6122  -13.0329   27.8081 C   0  0  0  0  0  0  0  0  0  0  0  0
   10.1338  -13.5826   26.4887 C   0  0  0  0  0  0  0  0  0  0  0  0
   10.3502  -15.0669   26.6735 C   0  0  2  0  0  0  0  0  0  0  0  0
   11.4402  -15.2790   27.6765 C   0  0  0  0  0  0  0  0  0  0  0  0
   10.6596  -15.7310   25.3407 C   0  0  2  0  0  0  0  0  0  0  0  0
    9.4312  -15.7108   24.5572 N   0  0  0  0  0  0  0  0  0  0  0  0
   11.1985  -17.0805   25.5037 C   0  0  0  0  0  0  0  0  0  0  0  0
   12.5720  -17.3288   25.6566 O   0  0  0  0  0  0  0  0  0  0  0  0
   10.4424  -18.0846   25.5133 O   0  0  0  0  0  0  0  0  0  0  0  0
  2  1  1  6
  2  3  1  0
  4  5  1  0
  4  2  1  0
  5  6  1  1
  7  5  1  0
  7  8  2  0
 10  9  1  6
 11 10  1  0
 12 10  1  0
 13 12  1  1
 13 14  1  0
 14  7  1  0
 15 13  1  0
 16 15  2  0
 17 18  1  0
 18 19  1  0
 19 21  1  0
 19 20  1  1
 21 22  1  6
 21 23  1  0
 22 15  1  0
 23 24  1  0
 25 23  2  0
M  END
$$$$
