NHS.pdb
     RDKit          3D

 25 25  0  0  1  0  0  0  0  0999 V2000
    8.9469  -19.3480   17.0197 N   0  0  0  0  0  0  0  0  0  0  0  0
    9.4252  -18.3331   16.1571 C   0  0  0  0  0  0  0  0  0  0  0  0
    8.8838  -18.1489   15.0355 O   0  0  0  0  0  0  0  0  0  0  0  0
   10.5600  -17.4923   16.5771 C   0  0  0  0  0  0  0  0  0  0  0  0
   11.1369  -18.0477   17.8519 C   0  0  2  0  0  0  0  0  0  0  0  0
   10.2905  -19.0887   18.3965 N   0  0  0  0  0  0  0  0  0  0  0  0
   11.2034  -16.9417   18.8315 C   0  0  0  0  0  0  0  0  0  0  0  0
   11.9119  -15.9060   18.6140 O   0  0  0  0  0  0  0  0  0  0  0  0
   10.4855  -16.9950   20.0396 N   0  0  0  0  0  0  0  0  0  0  0  0
   10.5369  -15.8186   20.9938 C   0  0  1  0  0  0  0  0  0  0  0  0
    9.1599  -15.3359   21.0626 C   0  0  0  0  0  0  0  0  0  0  0  0
    8.6268  -14.4104   20.0766 C   0  0  0  0  0  0  0  0  0  0  0  0
    9.0993  -13.7901   18.9529 C   0  0  0  0  0  0  0  0  0  0  0  0
    8.1361  -13.0713   18.3557 N   0  0  0  0  0  0  0  0  0  0  0  0
    7.0348  -13.2263   19.0928 C   0  0  0  0  0  0  0  0  0  0  0  0
    7.3013  -14.0241   20.1293 N   0  0  0  0  0  0  0  0  0  0  0  0
   11.1301  -16.4286   22.1965 C   0  0  0  0  0  0  0  0  0  0  0  0
   10.3852  -17.3206   22.7771 O   0  0  0  0  0  0  0  0  0  0  0  0
   13.3410  -19.2940   24.4123 O   0  0  0  0  0  0  0  0  0  0  0  0
   12.8305  -18.4370   23.4483 C   0  0  0  0  0  0  0  0  0  0  0  0
   12.7938  -17.0039   23.9449 C   0  0  2  0  0  0  0  0  0  0  0  0
   12.3713  -16.1860   22.7939 N   0  0  0  0  0  0  0  0  0  0  0  0
   14.1230  -16.5242   24.3749 C   0  0  0  0  0  0  0  0  0  0  0  0
   14.7136  -16.9244   25.5712 O   0  0  0  0  0  0  0  0  0  0  0  0
   14.7921  -15.7227   23.6733 O   0  0  0  0  0  0  0  0  0  0  0  0
  1  2  1  0
  2  4  1  0
  3  2  2  0
  4  5  1  0
  5  7  1  0
  5  6  1  1
  7  8  2  0
  9 10  1  0
  9  7  1  0
 10 17  1  0
 11 12  1  0
 10 11  1  1
 12 16  1  0
 13 12  2  0
 13 14  1  0
 14 15  1  0
 16 15  2  0
 17 18  2  0
 19 20  1  0
 21 20  1  6
 21 23  1  0
 22 17  1  0
 22 21  1  0
 23 25  2  0
 23 24  1  0
M  END
$$$$
