NHS.pdb
     RDKit          3D

 25 25  0  0  1  0  0  0  0  0999 V2000
    9.8228  -17.0072   13.0920 N   0  0  0  0  0  0  0  0  0  0  0  0
    8.8910  -16.0507   13.5605 C   0  0  0  0  0  0  0  0  0  0  0  0
    8.2595  -15.3299   12.7440 O   0  0  0  0  0  0  0  0  0  0  0  0
    8.6625  -15.9016   15.0085 C   0  0  0  0  0  0  0  0  0  0  0  0
    9.4345  -16.9674   15.7394 C   0  0  2  0  0  0  0  0  0  0  0  0
    9.3670  -18.2327   15.0387 N   0  0  0  0  0  0  0  0  0  0  0  0
    8.8111  -17.1381   17.0697 C   0  0  0  0  0  0  0  0  0  0  0  0
    7.5590  -16.9787   17.2397 O   0  0  0  0  0  0  0  0  0  0  0  0
    9.5803  -17.4830   18.1954 N   0  0  0  0  0  0  0  0  0  0  0  0
    8.8896  -17.7864   19.5099 C   0  0  1  0  0  0  0  0  0  0  0  0
    8.8278  -19.2447   19.5689 C   0  0  0  0  0  0  0  0  0  0  0  0
    7.6410  -19.9743   19.1544 C   0  0  0  0  0  0  0  0  0  0  0  0
    6.3095  -19.6920   19.0193 C   0  0  0  0  0  0  0  0  0  0  0  0
    5.6413  -20.7404   18.5140 N   0  0  0  0  0  0  0  0  0  0  0  0
    6.5415  -21.7058   18.3191 C   0  0  0  0  0  0  0  0  0  0  0  0
    7.7472  -21.2728   18.6943 N   0  0  0  0  0  0  0  0  0  0  0  0
    9.7487  -17.0784   20.4750 C   0  0  0  0  0  0  0  0  0  0  0  0
   10.9173  -16.7425   20.0179 O   0  0  0  0  0  0  0  0  0  0  0  0
   10.8326  -15.1926   24.8105 O   0  0  0  0  0  0  0  0  0  0  0  0
    9.8972  -15.6046   23.8726 C   0  0  0  0  0  0  0  0  0  0  0  0
   10.5668  -16.1587   22.6291 C   0  0  2  0  0  0  0  0  0  0  0  0
    9.4843  -16.7190   21.8006 N   0  0  0  0  0  0  0  0  0  0  0  0
   11.5094  -17.2529   22.9391 C   0  0  0  0  0  0  0  0  0  0  0  0
   12.8706  -17.0358   23.1389 O   0  0  0  0  0  0  0  0  0  0  0  0
   11.1232  -18.4459   23.0384 O   0  0  0  0  0  0  0  0  0  0  0  0
  1  2  1  0
  2  4  1  0
  3  2  2  0
  4  5  1  0
  5  7  1  0
  5  6  1  6
  7  8  2  0
  9 10  1  0
  9  7  1  0
 10 17  1  0
 11 12  1  0
 10 11  1  1
 12 16  1  0
 13 12  2  0
 13 14  1  0
 14 15  1  0
 16 15  2  0
 17 18  2  0
 19 20  1  0
 21 20  1  1
 21 23  1  0
 22 17  1  0
 22 21  1  0
 23 25  2  0
 23 24  1  0
M  END
$$$$
