NHS.pdb
     RDKit          3D

 25 25  0  0  1  0  0  0  0  0999 V2000
   18.0891  -14.5537   16.6746 N   0  0  0  0  0  0  0  0  0  0  0  0
   16.7378  -14.4359   16.2711 C   0  0  0  0  0  0  0  0  0  0  0  0
   16.3843  -14.8168   15.1244 O   0  0  0  0  0  0  0  0  0  0  0  0
   15.7454  -13.8653   17.1990 C   0  0  0  0  0  0  0  0  0  0  0  0
   15.2425  -14.9536   18.1095 C   0  0  2  0  0  0  0  0  0  0  0  0
   14.7909  -16.1008   17.3501 N   0  0  0  0  0  0  0  0  0  0  0  0
   14.0906  -14.4103   18.8615 C   0  0  0  0  0  0  0  0  0  0  0  0
   14.2122  -13.3890   19.6126 O   0  0  0  0  0  0  0  0  0  0  0  0
   12.8185  -15.0035   18.7734 N   0  0  0  0  0  0  0  0  0  0  0  0
   11.6837  -14.4718   19.6257 C   0  0  1  0  0  0  0  0  0  0  0  0
   10.5945  -14.2277   18.6833 C   0  0  0  0  0  0  0  0  0  0  0  0
    9.2567  -13.8857   19.1372 C   0  0  0  0  0  0  0  0  0  0  0  0
    8.6548  -13.6606   20.3446 C   0  0  0  0  0  0  0  0  0  0  0  0
    7.3729  -13.2963   20.1859 N   0  0  0  0  0  0  0  0  0  0  0  0
    7.1421  -13.2835   18.8719 C   0  0  0  0  0  0  0  0  0  0  0  0
    8.2541  -13.6323   18.2209 N   0  0  0  0  0  0  0  0  0  0  0  0
   11.5245  -15.5443   20.6232 C   0  0  0  0  0  0  0  0  0  0  0  0
   11.8954  -16.7219   20.2190 O   0  0  0  0  0  0  0  0  0  0  0  0
   12.1721  -15.9477   24.5043 O   0  0  0  0  0  0  0  0  0  0  0  0
   10.8875  -16.3368   24.1541 C   0  0  0  0  0  0  0  0  0  0  0  0
   10.8042  -16.7168   22.6877 C   0  0  2  0  0  0  0  0  0  0  0  0
   11.0369  -15.4729   21.9322 N   0  0  0  0  0  0  0  0  0  0  0  0
    9.4693  -17.2276   22.3147 C   0  0  0  0  0  0  0  0  0  0  0  0
    9.0344  -18.5066   22.6538 O   0  0  0  0  0  0  0  0  0  0  0  0
    8.6531  -16.5239   21.6660 O   0  0  0  0  0  0  0  0  0  0  0  0
  1  2  1  0
  2  4  1  0
  3  2  2  0
  4  5  1  0
  5  7  1  0
  5  6  1  6
  7  8  2  0
  9 10  1  0
  9  7  1  0
 10 17  1  0
 11 12  1  0
 10 11  1  6
 12 16  1  0
 13 12  2  0
 13 14  1  0
 14 15  1  0
 16 15  2  0
 17 18  2  0
 19 20  1  0
 21 20  1  1
 21 23  1  0
 22 17  1  0
 22 21  1  0
 23 25  2  0
 23 24  1  0
M  END
$$$$
