NHS.pdb
     RDKit          3D

 25 25  0  0  1  0  0  0  0  0999 V2000
   11.3982  -18.3884   11.5900 N   0  0  0  0  0  0  0  0  0  0  0  0
   11.2283  -17.0166   11.2866 C   0  0  0  0  0  0  0  0  0  0  0  0
   11.1990  -16.6326   10.0879 O   0  0  0  0  0  0  0  0  0  0  0  0
   11.0856  -16.0388   12.3796 C   0  0  0  0  0  0  0  0  0  0  0  0
   11.2985  -16.7390   13.6952 C   0  0  2  0  0  0  0  0  0  0  0  0
   10.2518  -17.7077   13.9451 N   0  0  0  0  0  0  0  0  0  0  0  0
   11.2483  -15.7140   14.7603 C   0  0  0  0  0  0  0  0  0  0  0  0
   12.0482  -14.7230   14.7641 O   0  0  0  0  0  0  0  0  0  0  0  0
   10.3138  -15.7979   15.8079 N   0  0  0  0  0  0  0  0  0  0  0  0
   10.3148  -14.7453   16.8983 C   0  0  1  0  0  0  0  0  0  0  0  0
    8.9441  -14.7323   17.4030 C   0  0  0  0  0  0  0  0  0  0  0  0
    8.5944  -14.0558   18.6411 C   0  0  0  0  0  0  0  0  0  0  0  0
    9.2548  -13.2980   19.5687 C   0  0  0  0  0  0  0  0  0  0  0  0
    8.4139  -12.8464   20.5121 N   0  0  0  0  0  0  0  0  0  0  0  0
    7.2039  -13.3111   20.1956 C   0  0  0  0  0  0  0  0  0  0  0  0
    7.2841  -14.0382   19.0790 N   0  0  0  0  0  0  0  0  0  0  0  0
   11.3872  -15.2282   17.7857 C   0  0  0  0  0  0  0  0  0  0  0  0
   11.5705  -16.5141   17.7669 O   0  0  0  0  0  0  0  0  0  0  0  0
   15.1548  -14.5117   18.1908 O   0  0  0  0  0  0  0  0  0  0  0  0
   14.4883  -14.3672   19.3987 C   0  0  0  0  0  0  0  0  0  0  0  0
   13.2329  -15.2180   19.4437 C   0  0  2  0  0  0  0  0  0  0  0  0
   12.2288  -14.5031   18.6357 N   0  0  0  0  0  0  0  0  0  0  0  0
   12.6956  -15.3542   20.8129 C   0  0  0  0  0  0  0  0  0  0  0  0
   13.3371  -16.0994   21.7994 O   0  0  0  0  0  0  0  0  0  0  0  0
   11.6212  -14.7975   21.1567 O   0  0  0  0  0  0  0  0  0  0  0  0
  1  2  1  0
  2  4  1  0
  3  2  2  0
  4  5  1  0
  5  7  1  0
  5  6  1  1
  7  8  2  0
  9 10  1  0
  9  7  1  0
 10 17  1  0
 11 12  1  0
 10 11  1  1
 12 16  1  0
 13 12  2  0
 13 14  1  0
 14 15  1  0
 16 15  2  0
 17 18  2  0
 19 20  1  0
 21 20  1  1
 21 23  1  0
 22 17  1  0
 22 21  1  0
 23 25  2  0
 23 24  1  0
M  END
$$$$
