NHS.pdb
     RDKit          3D

 25 25  0  0  1  0  0  0  0  0999 V2000
   10.3379  -18.9322   15.9930 N   0  0  0  0  0  0  0  0  0  0  0  0
   10.8893  -17.6973   15.5763 C   0  0  0  0  0  0  0  0  0  0  0  0
   10.7868  -17.3314   14.3761 O   0  0  0  0  0  0  0  0  0  0  0  0
   11.5843  -16.8408   16.5534 C   0  0  0  0  0  0  0  0  0  0  0  0
   11.5906  -17.5290   17.8923 C   0  0  2  0  0  0  0  0  0  0  0  0
   10.6553  -18.6342   17.9143 N   0  0  0  0  0  0  0  0  0  0  0  0
   11.1655  -16.5391   18.9057 C   0  0  0  0  0  0  0  0  0  0  0  0
   11.8514  -15.4911   19.1362 O   0  0  0  0  0  0  0  0  0  0  0  0
    9.9871  -16.7208   19.6514 N   0  0  0  0  0  0  0  0  0  0  0  0
    9.6073  -15.7057   20.7107 C   0  0  1  0  0  0  0  0  0  0  0  0
    8.2356  -15.3239   20.3843 C   0  0  0  0  0  0  0  0  0  0  0  0
    7.9331  -14.4625   19.2534 C   0  0  0  0  0  0  0  0  0  0  0  0
    8.1097  -13.1409   18.9482 C   0  0  0  0  0  0  0  0  0  0  0  0
    7.6991  -12.8737   17.6988 N   0  0  0  0  0  0  0  0  0  0  0  0
    7.2559  -14.0250   17.1907 C   0  0  0  0  0  0  0  0  0  0  0  0
    7.3852  -14.9926   18.1011 N   0  0  0  0  0  0  0  0  0  0  0  0
    9.8521  -16.4577   21.9538 C   0  0  0  0  0  0  0  0  0  0  0  0
    9.3134  -17.6392   21.9892 O   0  0  0  0  0  0  0  0  0  0  0  0
   12.8671  -17.7304   23.4021 O   0  0  0  0  0  0  0  0  0  0  0  0
   12.2050  -17.1501   24.4741 C   0  0  0  0  0  0  0  0  0  0  0  0
   10.7161  -17.0324   24.2074 C   0  0  2  0  0  0  0  0  0  0  0  0
   10.5778  -16.0824   23.0891 N   0  0  0  0  0  0  0  0  0  0  0  0
    9.9807  -16.4788   25.3626 C   0  0  0  0  0  0  0  0  0  0  0  0
    9.8206  -17.1799   26.5554 O   0  0  0  0  0  0  0  0  0  0  0  0
    9.4583  -15.3352   25.3235 O   0  0  0  0  0  0  0  0  0  0  0  0
  1  2  1  0
  2  4  1  0
  3  2  2  0
  4  5  1  0
  5  7  1  0
  5  6  1  6
  7  8  2  0
  9 10  1  0
  9  7  1  0
 10 17  1  0
 11 12  1  0
 10 11  1  6
 12 16  1  0
 13 12  2  0
 13 14  1  0
 14 15  1  0
 16 15  2  0
 17 18  2  0
 19 20  1  0
 21 20  1  1
 21 23  1  0
 22 17  1  0
 22 21  1  0
 23 25  2  0
 23 24  1  0
M  END
$$$$
