NHS.pdb
     RDKit          3D

 25 25  0  0  1  0  0  0  0  0999 V2000
   16.2962  -14.2493   16.7520 N   0  0  0  0  0  0  0  0  0  0  0  0
   14.9162  -14.4193   16.4884 C   0  0  0  0  0  0  0  0  0  0  0  0
   14.5298  -14.7762   15.3446 O   0  0  0  0  0  0  0  0  0  0  0  0
   13.9328  -14.1767   17.5585 C   0  0  0  0  0  0  0  0  0  0  0  0
   13.7903  -15.4260   18.3864 C   0  0  2  0  0  0  0  0  0  0  0  0
   13.1170  -16.4700   17.6425 N   0  0  0  0  0  0  0  0  0  0  0  0
   12.9648  -15.0886   19.5664 C   0  0  0  0  0  0  0  0  0  0  0  0
   13.2792  -14.1287   20.3419 O   0  0  0  0  0  0  0  0  0  0  0  0
   11.8019  -15.8172   19.8736 N   0  0  0  0  0  0  0  0  0  0  0  0
   10.9899  -15.4496   21.0994 C   0  0  1  0  0  0  0  0  0  0  0  0
    9.6123  -15.3660   20.6208 C   0  0  0  0  0  0  0  0  0  0  0  0
    9.1631  -14.2689   19.7798 C   0  0  0  0  0  0  0  0  0  0  0  0
    9.5420  -12.9716   19.5693 C   0  0  0  0  0  0  0  0  0  0  0  0
    8.8095  -12.4050   18.5979 N   0  0  0  0  0  0  0  0  0  0  0  0
    7.9536  -13.3373   18.1755 C   0  0  0  0  0  0  0  0  0  0  0  0
    8.1446  -14.4632   18.8667 N   0  0  0  0  0  0  0  0  0  0  0  0
   11.3459  -16.5305   22.0351 C   0  0  0  0  0  0  0  0  0  0  0  0
   11.3359  -17.7222   21.5180 O   0  0  0  0  0  0  0  0  0  0  0  0
   13.9055  -16.5551   24.9369 O   0  0  0  0  0  0  0  0  0  0  0  0
   13.4462  -17.7384   24.3772 C   0  0  0  0  0  0  0  0  0  0  0  0
   11.9481  -17.6947   24.1416 C   0  0  2  0  0  0  0  0  0  0  0  0
   11.6917  -16.4542   23.3882 N   0  0  0  0  0  0  0  0  0  0  0  0
   11.1831  -17.6221   25.4032 C   0  0  0  0  0  0  0  0  0  0  0  0
   11.2118  -18.6367   26.3569 O   0  0  0  0  0  0  0  0  0  0  0  0
   10.4613  -16.6294   25.6789 O   0  0  0  0  0  0  0  0  0  0  0  0
  1  2  1  0
  2  4  1  0
  3  2  2  0
  4  5  1  0
  5  7  1  0
  5  6  1  6
  7  8  2  0
  9 10  1  0
  9  7  1  0
 10 17  1  0
 11 12  1  0
 10 11  1  6
 12 16  1  0
 13 12  2  0
 13 14  1  0
 14 15  1  0
 16 15  2  0
 17 18  2  0
 19 20  1  0
 21 20  1  1
 21 23  1  0
 22 17  1  0
 22 21  1  0
 23 25  2  0
 23 24  1  0
M  END
$$$$
