NHS.pdb
     RDKit          3D

 25 25  0  0  1  0  0  0  0  0999 V2000
    8.7680  -12.6389   18.4398 N   0  0  0  0  0  0  0  0  0  0  0  0
    9.7328  -13.6740   18.4220 C   0  0  0  0  0  0  0  0  0  0  0  0
    9.4106  -14.8329   18.0501 O   0  0  0  0  0  0  0  0  0  0  0  0
   11.1168  -13.3901   18.8406 C   0  0  0  0  0  0  0  0  0  0  0  0
   11.6866  -14.6111   19.5120 C   0  0  2  0  0  0  0  0  0  0  0  0
   11.3726  -15.8109   18.7646 N   0  0  0  0  0  0  0  0  0  0  0  0
   11.0625  -14.7185   20.8486 C   0  0  0  0  0  0  0  0  0  0  0  0
   11.0693  -13.7396   21.6633 O   0  0  0  0  0  0  0  0  0  0  0  0
   10.4386  -15.9072   21.2673 N   0  0  0  0  0  0  0  0  0  0  0  0
    9.7652  -15.9618   22.6240 C   0  0  1  0  0  0  0  0  0  0  0  0
    8.4501  -16.5415   22.3626 C   0  0  0  0  0  0  0  0  0  0  0  0
    7.4184  -15.8017   21.6548 C   0  0  0  0  0  0  0  0  0  0  0  0
    7.3024  -14.5534   21.1079 C   0  0  0  0  0  0  0  0  0  0  0  0
    6.1209  -14.4039   20.4892 N   0  0  0  0  0  0  0  0  0  0  0  0
    5.4684  -15.5587   20.6335 C   0  0  0  0  0  0  0  0  0  0  0  0
    6.2234  -16.4132   21.3276 N   0  0  0  0  0  0  0  0  0  0  0  0
   10.7343  -16.7420   23.4131 C   0  0  0  0  0  0  0  0  0  0  0  0
   11.9561  -16.3036   23.3606 O   0  0  0  0  0  0  0  0  0  0  0  0
   11.0839  -16.7241   27.6102 O   0  0  0  0  0  0  0  0  0  0  0  0
   10.6055  -16.7470   26.3082 C   0  0  0  0  0  0  0  0  0  0  0  0
   11.1346  -17.9466   25.5448 C   0  0  2  0  0  0  0  0  0  0  0  0
   10.5252  -17.8759   24.2047 N   0  0  0  0  0  0  0  0  0  0  0  0
   10.7271  -19.2270   26.1583 C   0  0  0  0  0  0  0  0  0  0  0  0
    9.6167  -19.9468   25.7237 O   0  0  0  0  0  0  0  0  0  0  0  0
   11.3708  -19.7337   27.1129 O   0  0  0  0  0  0  0  0  0  0  0  0
  1  2  1  0
  2  4  1  0
  3  2  2  0
  4  5  1  0
  5  7  1  0
  5  6  1  6
  7  8  2  0
  9 10  1  0
  9  7  1  0
 10 17  1  0
 11 12  1  0
 10 11  1  6
 12 16  1  0
 13 12  2  0
 13 14  1  0
 14 15  1  0
 16 15  2  0
 17 18  2  0
 19 20  1  0
 21 20  1  1
 21 23  1  0
 22 17  1  0
 22 21  1  0
 23 25  2  0
 23 24  1  0
M  END
$$$$
