NHS.pdb
     RDKit          3D

 25 25  0  0  1  0  0  0  0  0999 V2000
    8.2401  -12.8778   14.0462 N   0  0  0  0  0  0  0  0  0  0  0  0
    7.5710  -13.8648   14.8084 C   0  0  0  0  0  0  0  0  0  0  0  0
    6.8872  -14.7522   14.2340 O   0  0  0  0  0  0  0  0  0  0  0  0
    7.6779  -13.8499   16.2780 C   0  0  0  0  0  0  0  0  0  0  0  0
    8.7191  -14.8500   16.7044 C   0  0  2  0  0  0  0  0  0  0  0  0
    8.3192  -16.1980   16.3585 N   0  0  0  0  0  0  0  0  0  0  0  0
    8.8447  -14.7648   18.1757 C   0  0  0  0  0  0  0  0  0  0  0  0
    9.2666  -13.7061   18.7441 O   0  0  0  0  0  0  0  0  0  0  0  0
    8.5021  -15.8516   18.9998 N   0  0  0  0  0  0  0  0  0  0  0  0
    8.6934  -15.7437   20.4993 C   0  0  1  0  0  0  0  0  0  0  0  0
    7.6353  -16.5741   21.0693 C   0  0  0  0  0  0  0  0  0  0  0  0
    7.7008  -17.0582   22.4382 C   0  0  0  0  0  0  0  0  0  0  0  0
    8.5477  -16.8957   23.4999 C   0  0  0  0  0  0  0  0  0  0  0  0
    8.0863  -17.5305   24.5886 N   0  0  0  0  0  0  0  0  0  0  0  0
    6.9361  -18.1058   24.2333 C   0  0  0  0  0  0  0  0  0  0  0  0
    6.6819  -17.8382   22.9505 N   0  0  0  0  0  0  0  0  0  0  0  0
   10.0922  -16.1778   20.6592 C   0  0  0  0  0  0  0  0  0  0  0  0
   10.4706  -17.1070   19.8339 O   0  0  0  0  0  0  0  0  0  0  0  0
   14.6867  -15.8933   21.8114 O   0  0  0  0  0  0  0  0  0  0  0  0
   13.4171  -15.3531   21.6676 C   0  0  0  0  0  0  0  0  0  0  0  0
   12.3541  -16.4354   21.6458 C   0  0  2  0  0  0  0  0  0  0  0  0
   11.0610  -15.7328   21.5646 N   0  0  0  0  0  0  0  0  0  0  0  0
   12.3506  -17.2443   22.8818 C   0  0  0  0  0  0  0  0  0  0  0  0
   13.1483  -18.3750   23.0401 O   0  0  0  0  0  0  0  0  0  0  0  0
   11.6189  -16.9469   23.8608 O   0  0  0  0  0  0  0  0  0  0  0  0
  1  2  1  0
  2  4  1  0
  3  2  2  0
  4  5  1  0
  5  7  1  0
  5  6  1  1
  7  8  2  0
  9 10  1  0
  9  7  1  0
 10 17  1  0
 11 12  1  0
 10 11  1  1
 12 16  1  0
 13 12  2  0
 13 14  1  0
 14 15  1  0
 16 15  2  0
 17 18  2  0
 19 20  1  0
 21 20  1  1
 21 23  1  0
 22 17  1  0
 22 21  1  0
 23 25  2  0
 23 24  1  0
M  END
$$$$
