NHS.pdb
     RDKit          3D

 25 25  0  0  1  0  0  0  0  0999 V2000
   15.3217  -14.3961   14.4282 N   0  0  0  0  0  0  0  0  0  0  0  0
   14.5492  -15.3811   15.0884 C   0  0  0  0  0  0  0  0  0  0  0  0
   14.7330  -16.6014   14.8391 O   0  0  0  0  0  0  0  0  0  0  0  0
   13.5284  -14.9726   16.0693 C   0  0  0  0  0  0  0  0  0  0  0  0
   13.6228  -15.8666   17.2769 C   0  0  2  0  0  0  0  0  0  0  0  0
   13.1903  -17.2125   16.9639 N   0  0  0  0  0  0  0  0  0  0  0  0
   12.7207  -15.3165   18.3119 C   0  0  0  0  0  0  0  0  0  0  0  0
   12.8722  -14.1351   18.7625 O   0  0  0  0  0  0  0  0  0  0  0  0
   11.6622  -16.0802   18.8355 N   0  0  0  0  0  0  0  0  0  0  0  0
   10.7571  -15.4798   19.8925 C   0  0  1  0  0  0  0  0  0  0  0  0
    9.4190  -15.5320   19.3087 C   0  0  0  0  0  0  0  0  0  0  0  0
    8.7695  -14.3420   18.7846 C   0  0  0  0  0  0  0  0  0  0  0  0
    9.0587  -13.0062   18.7305 C   0  0  0  0  0  0  0  0  0  0  0  0
    8.1190  -12.3350   18.0468 N   0  0  0  0  0  0  0  0  0  0  0  0
    7.2178  -13.2374   17.6547 C   0  0  0  0  0  0  0  0  0  0  0  0
    7.5838  -14.4475   18.0832 N   0  0  0  0  0  0  0  0  0  0  0  0
   11.0492  -16.3289   21.0606 C   0  0  0  0  0  0  0  0  0  0  0  0
   11.1434  -17.5980   20.7999 O   0  0  0  0  0  0  0  0  0  0  0  0
   13.6664  -16.2872   23.8177 O   0  0  0  0  0  0  0  0  0  0  0  0
   12.4245  -16.4683   24.4089 C   0  0  0  0  0  0  0  0  0  0  0  0
   11.4134  -17.0129   23.4175 C   0  0  2  0  0  0  0  0  0  0  0  0
   11.2395  -15.9636   22.3972 N   0  0  0  0  0  0  0  0  0  0  0  0
   10.0961  -17.2610   24.0379 C   0  0  0  0  0  0  0  0  0  0  0  0
    9.8670  -18.3200   24.9132 O   0  0  0  0  0  0  0  0  0  0  0  0
    9.1076  -16.5194   23.8026 O   0  0  0  0  0  0  0  0  0  0  0  0
  1  2  1  0
  2  4  1  0
  3  2  2  0
  4  5  1  0
  5  7  1  0
  5  6  1  6
  7  8  2  0
  9 10  1  0
  9  7  1  0
 10 17  1  0
 11 12  1  0
 10 11  1  6
 12 16  1  0
 13 12  2  0
 13 14  1  0
 14 15  1  0
 16 15  2  0
 17 18  2  0
 19 20  1  0
 21 20  1  1
 21 23  1  0
 22 17  1  0
 22 21  1  0
 23 25  2  0
 23 24  1  0
M  END
$$$$
