NHS.pdb
     RDKit          3D

 25 25  0  0  1  0  0  0  0  0999 V2000
    9.4197  -13.9440   17.3314 N   0  0  0  0  0  0  0  0  0  0  0  0
    8.0191  -13.7560   17.4079 C   0  0  0  0  0  0  0  0  0  0  0  0
    7.3340  -13.6687   16.3553 O   0  0  0  0  0  0  0  0  0  0  0  0
    7.3654  -13.6628   18.7252 C   0  0  0  0  0  0  0  0  0  0  0  0
    8.3894  -13.9135   19.7999 C   0  0  2  0  0  0  0  0  0  0  0  0
    9.3012  -14.9702   19.4144 N   0  0  0  0  0  0  0  0  0  0  0  0
    7.6652  -14.3439   21.0156 C   0  0  0  0  0  0  0  0  0  0  0  0
    6.6559  -13.6990   21.4484 O   0  0  0  0  0  0  0  0  0  0  0  0
    8.0664  -15.4823   21.7373 N   0  0  0  0  0  0  0  0  0  0  0  0
    7.3163  -15.8747   22.9944 C   0  0  1  0  0  0  0  0  0  0  0  0
    7.5313  -17.3140   23.1210 C   0  0  0  0  0  0  0  0  0  0  0  0
    7.3079  -18.0101   24.3773 C   0  0  0  0  0  0  0  0  0  0  0  0
    6.8634  -17.6698   25.6253 C   0  0  0  0  0  0  0  0  0  0  0  0
    6.7783  -18.7483   26.4195 N   0  0  0  0  0  0  0  0  0  0  0  0
    7.1672  -19.7920   25.6849 C   0  0  0  0  0  0  0  0  0  0  0  0
    7.4896  -19.3774   24.4577 N   0  0  0  0  0  0  0  0  0  0  0  0
    7.9192  -14.9817   23.9992 C   0  0  0  0  0  0  0  0  0  0  0  0
    9.1520  -14.6490   23.7607 O   0  0  0  0  0  0  0  0  0  0  0  0
    5.9677  -12.9211   26.7471 O   0  0  0  0  0  0  0  0  0  0  0  0
    7.2359  -12.4409   26.4551 C   0  0  0  0  0  0  0  0  0  0  0  0
    8.1638  -13.5583   26.0166 C   0  0  2  0  0  0  0  0  0  0  0  0
    7.3552  -14.4454   25.1614 N   0  0  0  0  0  0  0  0  0  0  0  0
    8.6576  -14.3580   27.1561 C   0  0  0  0  0  0  0  0  0  0  0  0
    9.5088  -13.8346   28.1264 O   0  0  0  0  0  0  0  0  0  0  0  0
    8.3291  -15.5629   27.3059 O   0  0  0  0  0  0  0  0  0  0  0  0
  1  2  1  0
  2  4  1  0
  3  2  2  0
  4  5  1  0
  5  7  1  0
  5  6  1  6
  7  8  2  0
  9 10  1  0
  9  7  1  0
 10 17  1  0
 11 12  1  0
 10 11  1  1
 12 16  1  0
 13 12  2  0
 13 14  1  0
 14 15  1  0
 16 15  2  0
 17 18  2  0
 19 20  1  0
 21 20  1  1
 21 23  1  0
 22 17  1  0
 22 21  1  0
 23 25  2  0
 23 24  1  0
M  END
$$$$
