NHS.pdb
     RDKit          3D

 25 25  0  0  1  0  0  0  0  0999 V2000
   16.0751  -15.5245   17.1412 N   0  0  0  0  0  0  0  0  0  0  0  0
   15.2560  -14.3946   16.9063 C   0  0  0  0  0  0  0  0  0  0  0  0
   15.5795  -13.5495   16.0310 O   0  0  0  0  0  0  0  0  0  0  0  0
   14.0222  -14.2110   17.6907 C   0  0  0  0  0  0  0  0  0  0  0  0
   13.9301  -15.3027   18.7233 C   0  0  2  0  0  0  0  0  0  0  0  0
   13.5136  -16.5531   18.1236 N   0  0  0  0  0  0  0  0  0  0  0  0
   12.9079  -14.8974   19.7124 C   0  0  0  0  0  0  0  0  0  0  0  0
   13.0307  -13.8267   20.3909 O   0  0  0  0  0  0  0  0  0  0  0  0
   11.7626  -15.6814   19.9385 N   0  0  0  0  0  0  0  0  0  0  0  0
   10.8483  -15.3534   21.1019 C   0  0  1  0  0  0  0  0  0  0  0  0
    9.5002  -15.4100   20.5422 C   0  0  0  0  0  0  0  0  0  0  0  0
    9.0159  -14.3980   19.6181 C   0  0  0  0  0  0  0  0  0  0  0  0
    9.5266  -13.2688   19.0393 C   0  0  0  0  0  0  0  0  0  0  0  0
    8.6501  -12.7269   18.1796 N   0  0  0  0  0  0  0  0  0  0  0  0
    7.5678  -13.5069   18.1990 C   0  0  0  0  0  0  0  0  0  0  0  0
    7.7609  -14.5152   19.0522 N   0  0  0  0  0  0  0  0  0  0  0  0
   11.2421  -16.3692   22.0937 C   0  0  0  0  0  0  0  0  0  0  0  0
   11.8268  -17.4169   21.5957 O   0  0  0  0  0  0  0  0  0  0  0  0
   10.6409  -16.3437   26.1658 O   0  0  0  0  0  0  0  0  0  0  0  0
   11.7334  -17.0445   25.6764 C   0  0  0  0  0  0  0  0  0  0  0  0
   11.4842  -17.5439   24.2656 C   0  0  2  0  0  0  0  0  0  0  0  0
   11.0783  -16.3629   23.4827 N   0  0  0  0  0  0  0  0  0  0  0  0
   10.3826  -18.5260   24.2039 C   0  0  0  0  0  0  0  0  0  0  0  0
    9.1809  -18.2646   23.5500 O   0  0  0  0  0  0  0  0  0  0  0  0
   10.4786  -19.6575   24.7449 O   0  0  0  0  0  0  0  0  0  0  0  0
  1  2  1  0
  2  4  1  0
  3  2  2  0
  4  5  1  0
  5  7  1  0
  5  6  1  6
  7  8  2  0
  9 10  1  0
  9  7  1  0
 10 17  1  0
 11 12  1  0
 10 11  1  6
 12 16  1  0
 13 12  2  0
 13 14  1  0
 14 15  1  0
 16 15  2  0
 17 18  2  0
 19 20  1  0
 21 20  1  1
 21 23  1  0
 22 17  1  0
 22 21  1  0
 23 25  2  0
 23 24  1  0
M  END
$$$$
