NHS.pdb
     RDKit          3D

 25 25  0  0  1  0  0  0  0  0999 V2000
   13.8596  -19.2196   16.9311 N   0  0  0  0  0  0  0  0  0  0  0  0
   13.7207  -17.8113   16.9136 C   0  0  0  0  0  0  0  0  0  0  0  0
   13.9086  -17.1702   15.8465 O   0  0  0  0  0  0  0  0  0  0  0  0
   13.3550  -17.0979   18.1499 C   0  0  0  0  0  0  0  0  0  0  0  0
   11.9355  -17.4428   18.5139 C   0  0  2  0  0  0  0  0  0  0  0  0
   11.0268  -17.1156   17.4351 N   0  0  0  0  0  0  0  0  0  0  0  0
   11.5673  -16.6321   19.6949 C   0  0  0  0  0  0  0  0  0  0  0  0
   12.3598  -15.7555   20.1696 O   0  0  0  0  0  0  0  0  0  0  0  0
   10.3270  -16.8010   20.3359 N   0  0  0  0  0  0  0  0  0  0  0  0
    9.9948  -15.9657   21.5561 C   0  0  1  0  0  0  0  0  0  0  0  0
    8.6383  -15.4800   21.3154 C   0  0  0  0  0  0  0  0  0  0  0  0
    8.3687  -14.4108   20.3685 C   0  0  0  0  0  0  0  0  0  0  0  0
    7.5990  -14.2596   19.2480 C   0  0  0  0  0  0  0  0  0  0  0  0
    7.6627  -13.0023   18.7831 N   0  0  0  0  0  0  0  0  0  0  0  0
    8.4748  -12.3347   19.6047 C   0  0  0  0  0  0  0  0  0  0  0  0
    8.9112  -13.1551   20.5631 N   0  0  0  0  0  0  0  0  0  0  0  0
   10.2148  -16.9265   22.6511 C   0  0  0  0  0  0  0  0  0  0  0  0
    9.7344  -18.1143   22.4366 O   0  0  0  0  0  0  0  0  0  0  0  0
   13.2086  -17.0921   25.1570 O   0  0  0  0  0  0  0  0  0  0  0  0
   12.4362  -18.2164   24.9049 C   0  0  0  0  0  0  0  0  0  0  0  0
   10.9619  -17.8682   24.8215 C   0  0  2  0  0  0  0  0  0  0  0  0
   10.8637  -16.7416   23.8763 N   0  0  0  0  0  0  0  0  0  0  0  0
   10.4172  -17.4172   26.1184 C   0  0  0  0  0  0  0  0  0  0  0  0
   10.3880  -18.2359   27.2448 O   0  0  0  0  0  0  0  0  0  0  0  0
    9.9486  -16.2596   26.2686 O   0  0  0  0  0  0  0  0  0  0  0  0
  1  2  1  0
  2  4  1  0
  3  2  2  0
  4  5  1  0
  5  7  1  0
  5  6  1  6
  7  8  2  0
  9 10  1  0
  9  7  1  0
 10 17  1  0
 11 12  1  0
 10 11  1  6
 12 16  1  0
 13 12  2  0
 13 14  1  0
 14 15  1  0
 16 15  2  0
 17 18  2  0
 19 20  1  0
 21 20  1  1
 21 23  1  0
 22 17  1  0
 22 21  1  0
 23 25  2  0
 23 24  1  0
M  END
$$$$
