NHS.pdb
     RDKit          3D

 25 25  0  0  1  0  0  0  0  0999 V2000
   11.4297  -22.9375   17.0694 N   0  0  0  0  0  0  0  0  0  0  0  0
   10.3454  -22.0903   16.7389 C   0  0  0  0  0  0  0  0  0  0  0  0
    9.6353  -22.3361   15.7288 O   0  0  0  0  0  0  0  0  0  0  0  0
   10.0505  -20.9185   17.5822 C   0  0  0  0  0  0  0  0  0  0  0  0
    9.8696  -19.7121   16.7000 C   0  0  2  0  0  0  0  0  0  0  0  0
   10.7637  -19.7602   15.5620 N   0  0  0  0  0  0  0  0  0  0  0  0
   10.2032  -18.5163   17.5040 C   0  0  0  0  0  0  0  0  0  0  0  0
   11.3155  -17.9125   17.3627 O   0  0  0  0  0  0  0  0  0  0  0  0
    9.3023  -18.0035   18.4543 N   0  0  0  0  0  0  0  0  0  0  0  0
    9.6218  -16.7027   19.1634 C   0  0  1  0  0  0  0  0  0  0  0  0
    8.3768  -15.9400   19.1189 C   0  0  0  0  0  0  0  0  0  0  0  0
    8.2102  -14.7088   19.8733 C   0  0  0  0  0  0  0  0  0  0  0  0
    8.9971  -13.9369   20.6832 C   0  0  0  0  0  0  0  0  0  0  0  0
    8.3480  -12.8300   21.0762 N   0  0  0  0  0  0  0  0  0  0  0  0
    7.1369  -12.8824   20.5189 C   0  0  0  0  0  0  0  0  0  0  0  0
    7.0285  -13.9974   19.7930 N   0  0  0  0  0  0  0  0  0  0  0  0
   10.1087  -17.1803   20.4694 C   0  0  0  0  0  0  0  0  0  0  0  0
    9.5897  -18.3035   20.8652 O   0  0  0  0  0  0  0  0  0  0  0  0
   13.3808  -15.9827   22.5347 O   0  0  0  0  0  0  0  0  0  0  0  0
   12.8604  -17.2520   22.7407 C   0  0  0  0  0  0  0  0  0  0  0  0
   11.3483  -17.2574   22.6171 C   0  0  2  0  0  0  0  0  0  0  0  0
   11.0436  -16.6007   21.3333 N   0  0  0  0  0  0  0  0  0  0  0  0
   10.6945  -16.4783   23.6883 C   0  0  0  0  0  0  0  0  0  0  0  0
   10.7209  -16.8713   25.0243 O   0  0  0  0  0  0  0  0  0  0  0  0
   10.0760  -15.4110   23.4420 O   0  0  0  0  0  0  0  0  0  0  0  0
  1  2  1  0
  2  4  1  0
  3  2  2  0
  4  5  1  0
  5  7  1  0
  5  6  1  6
  7  8  2  0
  9 10  1  0
  9  7  1  0
 10 17  1  0
 11 12  1  0
 10 11  1  1
 12 16  1  0
 13 12  2  0
 13 14  1  0
 14 15  1  0
 16 15  2  0
 17 18  2  0
 19 20  1  0
 21 20  1  1
 21 23  1  0
 22 17  1  0
 22 21  1  0
 23 25  2  0
 23 24  1  0
M  END
$$$$
