NHS.pdb
     RDKit          3D

 25 25  0  0  1  0  0  0  0  0999 V2000
   16.3145  -15.4485   16.4306 N   0  0  0  0  0  0  0  0  0  0  0  0
   15.2962  -14.5653   15.9995 C   0  0  0  0  0  0  0  0  0  0  0  0
   15.4052  -13.9624   14.8997 O   0  0  0  0  0  0  0  0  0  0  0  0
   14.1069  -14.3539   16.8435 C   0  0  0  0  0  0  0  0  0  0  0  0
   14.2654  -15.1369   18.1195 C   0  0  2  0  0  0  0  0  0  0  0  0
   14.0886  -16.5550   17.8860 N   0  0  0  0  0  0  0  0  0  0  0  0
   13.2131  -14.6844   19.0552 C   0  0  0  0  0  0  0  0  0  0  0  0
   13.1605  -13.4778   19.4593 O   0  0  0  0  0  0  0  0  0  0  0  0
   12.2323  -15.5722   19.5322 N   0  0  0  0  0  0  0  0  0  0  0  0
   11.1218  -15.0527   20.4233 C   0  0  1  0  0  0  0  0  0  0  0  0
    9.8893  -15.5006   19.7798 C   0  0  0  0  0  0  0  0  0  0  0  0
    9.1788  -14.6629   18.8279 C   0  0  0  0  0  0  0  0  0  0  0  0
    8.9539  -14.6795   17.4788 C   0  0  0  0  0  0  0  0  0  0  0  0
    8.1444  -13.6743   17.1108 N   0  0  0  0  0  0  0  0  0  0  0  0
    7.8417  -13.0040   18.2240 C   0  0  0  0  0  0  0  0  0  0  0  0
    8.4481  -13.5755   19.2668 N   0  0  0  0  0  0  0  0  0  0  0  0
   11.4846  -15.6305   21.7291 C   0  0  0  0  0  0  0  0  0  0  0  0
   12.6433  -16.2170   21.7608 O   0  0  0  0  0  0  0  0  0  0  0  0
    9.1797  -15.8437   25.0940 O   0  0  0  0  0  0  0  0  0  0  0  0
   10.5516  -15.8321   25.2991 C   0  0  0  0  0  0  0  0  0  0  0  0
   11.2967  -16.3673   24.0908 C   0  0  2  0  0  0  0  0  0  0  0  0
   10.7645  -15.6343   22.9281 N   0  0  0  0  0  0  0  0  0  0  0  0
   11.0472  -17.8062   23.8691 C   0  0  0  0  0  0  0  0  0  0  0  0
   11.6099  -18.7969   24.6702 O   0  0  0  0  0  0  0  0  0  0  0  0
   10.3064  -18.2096   22.9359 O   0  0  0  0  0  0  0  0  0  0  0  0
  1  2  1  0
  2  4  1  0
  3  2  2  0
  4  5  1  0
  5  7  1  0
  5  6  1  6
  7  8  2  0
  9 10  1  0
  9  7  1  0
 10 17  1  0
 11 12  1  0
 10 11  1  6
 12 16  1  0
 13 12  2  0
 13 14  1  0
 14 15  1  0
 16 15  2  0
 17 18  2  0
 19 20  1  0
 21 20  1  1
 21 23  1  0
 22 17  1  0
 22 21  1  0
 23 25  2  0
 23 24  1  0
M  END
$$$$
