ISK.pdb
     RDKit          3D

 24 23  0  0  1  0  0  0  0  0999 V2000
   20.9462  -17.4493    0.1138 C   0  0  0  0  0  0  0  0  0  0  0  0
   19.7775  -18.1716    0.6986 C   0  0  0  0  0  0  0  0  0  0  0  0
   19.6493  -18.0111    2.1801 C   0  0  2  0  0  0  0  0  0  0  0  0
   20.8072  -18.6418    2.9080 C   0  0  0  0  0  0  0  0  0  0  0  0
   18.3713  -18.5694    2.7466 C   0  0  2  0  0  0  0  0  0  0  0  0
   17.2457  -18.0485    2.0031 N   0  0  0  0  0  0  0  0  0  0  0  0
   18.2164  -18.2765    4.1895 C   0  0  0  0  0  0  0  0  0  0  0  0
   17.8750  -17.1158    4.5257 O   0  0  0  0  0  0  0  0  0  0  0  0
   17.5905  -21.2487    6.8549 O   0  0  0  0  0  0  0  0  0  0  0  0
   17.2141  -19.9233    7.1699 C   0  0  0  0  0  0  0  0  0  0  0  0
   18.2672  -18.9965    6.5521 C   0  0  2  0  0  0  0  0  0  0  0  0
   18.4495  -19.2866    5.1602 N   0  0  0  0  0  0  0  0  0  0  0  0
   19.5301  -19.0960    7.3260 C   0  0  0  0  0  0  0  0  0  0  0  0
   20.4425  -19.8640    6.9254 O   0  0  0  0  0  0  0  0  0  0  0  0
   19.7832  -18.3680    8.5128 N   0  0  0  0  0  0  0  0  0  0  0  0
   21.0364  -18.4805    9.2717 C   0  0  1  0  0  0  0  0  0  0  0  0
   21.3889  -17.1647    9.9133 C   0  0  0  0  0  0  0  0  0  0  0  0
   22.6719  -17.1625   10.6645 C   0  0  0  0  0  0  0  0  0  0  0  0
   22.8904  -15.7997   11.2971 C   0  0  0  0  0  0  0  0  0  0  0  0
   24.1693  -15.7550   12.0964 C   0  0  0  0  0  0  0  0  0  0  0  0
   24.3401  -14.4650   12.7123 N   0  0  0  0  0  0  0  0  0  0  0  0
   21.0211  -19.6195   10.1862 C   0  0  0  0  0  0  0  0  0  0  0  0
   22.1084  -20.2831   10.6985 O   0  0  0  0  0  0  0  0  0  0  0  0
   19.8804  -20.0543   10.5556 O   0  0  0  0  0  0  0  0  0  0  0  0
  2  1  1  0
  3  4  1  1
  3  2  1  0
  3  5  1  0
  5  6  1  6
  7  5  1  0
  7  8  2  0
 10  9  1  0
 11 10  1  1
 11 12  1  0
 12  7  1  0
 13 11  1  0
 14 13  2  0
 15 13  1  0
 16 15  1  0
 16 17  1  1
 18 19  1  0
 18 17  1  0
 19 20  1  0
 20 21  1  0
 22 16  1  0
 23 22  1  0
 24 22  2  0
M  END
$$$$
