ISK.pdb
     RDKit          3D

 24 23  0  0  1  0  0  0  0  0999 V2000
   17.8703  -11.5938  -20.7841 C   0  0  0  0  0  0  0  0  0  0  0  0
   18.7531  -12.2751  -19.7911 C   0  0  0  0  0  0  0  0  0  0  0  0
   19.2517  -11.3721  -18.7081 C   0  0  2  0  0  0  0  0  0  0  0  0
   20.0939  -10.2537  -19.2632 C   0  0  0  0  0  0  0  0  0  0  0  0
   20.0437  -12.0782  -17.6404 C   0  0  2  0  0  0  0  0  0  0  0  0
   19.2773  -13.1924  -17.1284 N   0  0  0  0  0  0  0  0  0  0  0  0
   20.4386  -11.1734  -16.5371 C   0  0  0  0  0  0  0  0  0  0  0  0
   19.5314  -10.5816  -15.9019 O   0  0  0  0  0  0  0  0  0  0  0  0
   24.4282  -10.7420  -15.5144 O   0  0  0  0  0  0  0  0  0  0  0  0
   23.4795  -10.5406  -14.4864 C   0  0  0  0  0  0  0  0  0  0  0  0
   22.1770  -10.0891  -15.1568 C   0  0  2  0  0  0  0  0  0  0  0  0
   21.8085  -10.9857  -16.2127 N   0  0  0  0  0  0  0  0  0  0  0  0
   22.3196   -8.6868  -15.6225 C   0  0  0  0  0  0  0  0  0  0  0  0
   22.6087   -8.4607  -16.8259 O   0  0  0  0  0  0  0  0  0  0  0  0
   22.1485   -7.5597  -14.7840 N   0  0  0  0  0  0  0  0  0  0  0  0
   22.2956   -6.1767  -15.2583 C   0  0  1  0  0  0  0  0  0  0  0  0
   21.2142   -5.8372  -16.2495 C   0  0  0  0  0  0  0  0  0  0  0  0
   21.2497   -4.4393  -16.7548 C   0  0  0  0  0  0  0  0  0  0  0  0
   20.0536   -4.1922  -17.6566 C   0  0  0  0  0  0  0  0  0  0  0  0
   20.0875   -2.8102  -18.2610 C   0  0  0  0  0  0  0  0  0  0  0  0
   18.9499   -2.6013  -19.1182 N   0  0  0  0  0  0  0  0  0  0  0  0
   22.4276   -5.2312  -14.1527 C   0  0  0  0  0  0  0  0  0  0  0  0
   22.8052   -3.9135  -14.2324 O   0  0  0  0  0  0  0  0  0  0  0  0
   22.1672   -5.6644  -12.9817 O   0  0  0  0  0  0  0  0  0  0  0  0
  2  1  1  0
  3  4  1  6
  3  2  1  0
  3  5  1  0
  5  6  1  1
  7  5  1  0
  7  8  2  0
 10  9  1  0
 11 10  1  6
 11 12  1  0
 12  7  1  0
 13 11  1  0
 14 13  2  0
 15 13  1  0
 16 15  1  0
 16 17  1  1
 18 19  1  0
 18 17  1  0
 19 20  1  0
 20 21  1  0
 22 16  1  0
 23 22  1  0
 24 22  2  0
M  END
$$$$
