ISK.pdb
     RDKit          3D

 24 23  0  0  1  0  0  0  0  0999 V2000
   29.2415  -13.2352  -16.0566 C   0  0  0  0  0  0  0  0  0  0  0  0
   27.9052  -13.6216  -15.5138 C   0  0  0  0  0  0  0  0  0  0  0  0
   26.7873  -12.7463  -15.9839 C   0  0  2  0  0  0  0  0  0  0  0  0
   26.9624  -11.3251  -15.5169 C   0  0  0  0  0  0  0  0  0  0  0  0
   25.4221  -13.2199  -15.5625 C   0  0  2  0  0  0  0  0  0  0  0  0
   25.2839  -14.6267  -15.8676 N   0  0  0  0  0  0  0  0  0  0  0  0
   24.3329  -12.4448  -16.1987 C   0  0  0  0  0  0  0  0  0  0  0  0
   23.6318  -13.0135  -17.0715 O   0  0  0  0  0  0  0  0  0  0  0  0
   20.5544  -10.4854  -16.4439 O   0  0  0  0  0  0  0  0  0  0  0  0
   21.6555  -11.2056  -15.9279 C   0  0  0  0  0  0  0  0  0  0  0  0
   22.9199  -10.4207  -16.2952 C   0  0  2  0  0  0  0  0  0  0  0  0
   24.0944  -11.0953  -15.8260 N   0  0  0  0  0  0  0  0  0  0  0  0
   22.8115   -9.0347  -15.7746 C   0  0  0  0  0  0  0  0  0  0  0  0
   22.9266   -8.8269  -14.5391 O   0  0  0  0  0  0  0  0  0  0  0  0
   22.5815   -7.9039  -16.5938 N   0  0  0  0  0  0  0  0  0  0  0  0
   22.4594   -6.5393  -16.0625 C   0  0  1  0  0  0  0  0  0  0  0  0
   22.5959   -5.5251  -17.1670 C   0  0  0  0  0  0  0  0  0  0  0  0
   22.4695   -4.1093  -16.7310 C   0  0  0  0  0  0  0  0  0  0  0  0
   22.6634   -3.1891  -17.9228 C   0  0  0  0  0  0  0  0  0  0  0  0
   22.6322   -1.7365  -17.5162 C   0  0  0  0  0  0  0  0  0  0  0  0
   21.3611   -1.3987  -16.9308 N   0  0  0  0  0  0  0  0  0  0  0  0
   21.2673   -6.3805  -15.2334 C   0  0  0  0  0  0  0  0  0  0  0  0
   20.0684   -7.0345  -15.3754 O   0  0  0  0  0  0  0  0  0  0  0  0
   21.3345   -5.5469  -14.2704 O   0  0  0  0  0  0  0  0  0  0  0  0
  2  1  1  0
  3  4  1  1
  3  2  1  0
  3  5  1  0
  5  6  1  6
  7  5  1  0
  7  8  2  0
 10  9  1  0
 11 10  1  1
 11 12  1  0
 12  7  1  0
 13 11  1  0
 14 13  2  0
 15 13  1  0
 16 15  1  0
 16 17  1  6
 18 19  1  0
 18 17  1  0
 19 20  1  0
 20 21  1  0
 22 16  1  0
 23 22  1  0
 24 22  2  0
M  END
$$$$
