ISK.pdb
     RDKit          3D

 24 23  0  0  1  0  0  0  0  0999 V2000
   28.5652  -12.5494  -16.0440 C   0  0  0  0  0  0  0  0  0  0  0  0
   27.1568  -13.0291  -15.9174 C   0  0  0  0  0  0  0  0  0  0  0  0
   26.1335  -11.9646  -16.1551 C   0  0  2  0  0  0  0  0  0  0  0  0
   26.2186  -10.8734  -15.1205 C   0  0  0  0  0  0  0  0  0  0  0  0
   24.7180  -12.4752  -16.1916 C   0  0  2  0  0  0  0  0  0  0  0  0
   24.6292  -13.5856  -17.1138 N   0  0  0  0  0  0  0  0  0  0  0  0
   23.7454  -11.4211  -16.5584 C   0  0  0  0  0  0  0  0  0  0  0  0
   23.6696  -11.0775  -17.7638 O   0  0  0  0  0  0  0  0  0  0  0  0
   20.2113  -11.4277  -16.1101 O   0  0  0  0  0  0  0  0  0  0  0  0
   20.5575  -10.2235  -15.4562 C   0  0  0  0  0  0  0  0  0  0  0  0
   21.9569   -9.8316  -15.9439 C   0  0  2  0  0  0  0  0  0  0  0  0
   22.9244  -10.8200  -15.5677 N   0  0  0  0  0  0  0  0  0  0  0  0
   22.2971   -8.4782  -15.4377 C   0  0  0  0  0  0  0  0  0  0  0  0
   22.7000   -8.3436  -14.2535 O   0  0  0  0  0  0  0  0  0  0  0  0
   22.1962   -7.3005  -16.2158 N   0  0  0  0  0  0  0  0  0  0  0  0
   22.5229   -5.9651  -15.6969 C   0  0  1  0  0  0  0  0  0  0  0  0
   22.5164   -4.9476  -16.8069 C   0  0  0  0  0  0  0  0  0  0  0  0
   22.9139   -3.5753  -16.3955 C   0  0  0  0  0  0  0  0  0  0  0  0
   22.8718   -2.6498  -17.5982 C   0  0  0  0  0  0  0  0  0  0  0  0
   23.3228   -1.2544  -17.2437 C   0  0  0  0  0  0  0  0  0  0  0  0
   23.3577   -0.4175  -18.4146 N   0  0  0  0  0  0  0  0  0  0  0  0
   21.7016   -5.6119  -14.5416 C   0  0  0  0  0  0  0  0  0  0  0  0
   20.3668   -5.8795  -14.3634 O   0  0  0  0  0  0  0  0  0  0  0  0
   22.2747   -4.9867  -13.5890 O   0  0  0  0  0  0  0  0  0  0  0  0
  2  1  1  0
  3  4  1  1
  3  2  1  0
  3  5  1  0
  5  6  1  6
  7  5  1  0
  7  8  2  0
 10  9  1  0
 11 10  1  1
 11 12  1  0
 12  7  1  0
 13 11  1  0
 14 13  2  0
 15 13  1  0
 16 15  1  0
 16 17  1  6
 18 19  1  0
 18 17  1  0
 19 20  1  0
 20 21  1  0
 22 16  1  0
 23 22  1  0
 24 22  2  0
M  END
$$$$
