ISK.pdb
     RDKit          3D

 24 23  0  0  1  0  0  0  0  0999 V2000
   17.6828  -16.4253  -16.2532 C   0  0  0  0  0  0  0  0  0  0  0  0
   18.1555  -15.2767  -17.0822 C   0  0  0  0  0  0  0  0  0  0  0  0
   18.7365  -14.1545  -16.2822 C   0  0  2  0  0  0  0  0  0  0  0  0
   17.7279  -13.5765  -15.3247 C   0  0  0  0  0  0  0  0  0  0  0  0
   19.2947  -13.0338  -17.1178 C   0  0  2  0  0  0  0  0  0  0  0  0
   20.2217  -13.5714  -18.0888 N   0  0  0  0  0  0  0  0  0  0  0  0
   19.9529  -11.9909  -16.2987 C   0  0  0  0  0  0  0  0  0  0  0  0
   19.2882  -11.4507  -15.3805 O   0  0  0  0  0  0  0  0  0  0  0  0
   23.5588  -10.3260  -17.5094 O   0  0  0  0  0  0  0  0  0  0  0  0
   23.3878  -10.4278  -16.1101 C   0  0  0  0  0  0  0  0  0  0  0  0
   21.8804  -10.5138  -15.8451 C   0  0  2  0  0  0  0  0  0  0  0  0
   21.2997  -11.6176  -16.5514 N   0  0  0  0  0  0  0  0  0  0  0  0
   21.2424   -9.2179  -16.1874 C   0  0  0  0  0  0  0  0  0  0  0  0
   20.5851   -9.1146  -17.2551 O   0  0  0  0  0  0  0  0  0  0  0  0
   21.3257   -8.0626  -15.3744 N   0  0  0  0  0  0  0  0  0  0  0  0
   20.7457   -6.7680  -15.7574 C   0  0  1  0  0  0  0  0  0  0  0  0
   19.2670   -6.9018  -16.0085 C   0  0  0  0  0  0  0  0  0  0  0  0
   18.5733   -5.6277  -16.3342 C   0  0  0  0  0  0  0  0  0  0  0  0
   17.0910   -5.8899  -16.5317 C   0  0  0  0  0  0  0  0  0  0  0  0
   16.3582   -4.6452  -16.9675 C   0  0  0  0  0  0  0  0  0  0  0  0
   14.9662   -4.9291  -17.2006 N   0  0  0  0  0  0  0  0  0  0  0  0
   21.1113   -5.7073  -14.8218 C   0  0  0  0  0  0  0  0  0  0  0  0
   21.7236   -5.8559  -13.6018 O   0  0  0  0  0  0  0  0  0  0  0  0
   20.8371   -4.5095  -15.1633 O   0  0  0  0  0  0  0  0  0  0  0  0
  2  1  1  0
  3  4  1  1
  3  2  1  0
  3  5  1  0
  5  6  1  6
  7  5  1  0
  7  8  2  0
 10  9  1  0
 11 10  1  6
 11 12  1  0
 12  7  1  0
 13 11  1  0
 14 13  2  0
 15 13  1  0
 16 15  1  0
 16 17  1  1
 18 19  1  0
 18 17  1  0
 19 20  1  0
 20 21  1  0
 22 16  1  0
 23 22  1  0
 24 22  2  0
M  END
$$$$
