ISK.pdb
     RDKit          3D

 24 23  0  0  1  0  0  0  0  0999 V2000
   17.4393  -27.9389   -3.7726 C   0  0  0  0  0  0  0  0  0  0  0  0
   16.8608  -26.5660   -3.6729 C   0  0  0  0  0  0  0  0  0  0  0  0
   16.6047  -25.9218   -4.9982 C   0  0  2  0  0  0  0  0  0  0  0  0
   15.5698  -26.6767   -5.7904 C   0  0  0  0  0  0  0  0  0  0  0  0
   17.8358  -25.7676   -5.8504 C   0  0  2  0  0  0  0  0  0  0  0  0
   18.8227  -24.9884   -5.1363 N   0  0  0  0  0  0  0  0  0  0  0  0
   17.5416  -25.1492   -7.1630 C   0  0  0  0  0  0  0  0  0  0  0  0
   16.6601  -25.6785   -7.8837 O   0  0  0  0  0  0  0  0  0  0  0  0
   20.0867  -22.3972   -8.7693 O   0  0  0  0  0  0  0  0  0  0  0  0
   18.7352  -22.1002   -9.0572 C   0  0  0  0  0  0  0  0  0  0  0  0
   17.9364  -23.3928   -8.8547 C   0  0  2  0  0  0  0  0  0  0  0  0
   18.2421  -23.9890   -7.5876 N   0  0  0  0  0  0  0  0  0  0  0  0
   18.1850  -24.3124   -9.9932 C   0  0  0  0  0  0  0  0  0  0  0  0
   18.9197  -25.3199   -9.8258 O   0  0  0  0  0  0  0  0  0  0  0  0
   17.6386  -24.1280  -11.2854 N   0  0  0  0  0  0  0  0  0  0  0  0
   17.7633  -25.1232  -12.3593 C   0  0  1  0  0  0  0  0  0  0  0  0
   16.8511  -26.2943  -12.1068 C   0  0  0  0  0  0  0  0  0  0  0  0
   16.8448  -27.3214  -13.1817 C   0  0  0  0  0  0  0  0  0  0  0  0
   15.8701  -28.4289  -12.8236 C   0  0  0  0  0  0  0  0  0  0  0  0
   15.8622  -29.5221  -13.8634 C   0  0  0  0  0  0  0  0  0  0  0  0
   14.9113  -30.5465  -13.5181 N   0  0  0  0  0  0  0  0  0  0  0  0
   17.6275  -24.5192  -13.6824 C   0  0  0  0  0  0  0  0  0  0  0  0
   18.0282  -25.0557  -14.8811 O   0  0  0  0  0  0  0  0  0  0  0  0
   17.0795  -23.3692  -13.7441 O   0  0  0  0  0  0  0  0  0  0  0  0
  2  1  1  0
  3  4  1  6
  3  2  1  0
  3  5  1  0
  5  6  1  1
  7  5  1  0
  7  8  2  0
 10  9  1  0
 11 10  1  6
 11 12  1  0
 12  7  1  0
 13 11  1  0
 14 13  2  0
 15 13  1  0
 16 15  1  0
 16 17  1  1
 18 19  1  0
 18 17  1  0
 19 20  1  0
 20 21  1  0
 22 16  1  0
 23 22  1  0
 24 22  2  0
M  END
$$$$
