ISK.pdb
     RDKit          3D

 24 23  0  0  1  0  0  0  0  0999 V2000
   35.6793  -27.3111  -21.8807 C   0  0  0  0  0  0  0  0  0  0  0  0
   35.6595  -27.8315  -20.4813 C   0  0  0  0  0  0  0  0  0  0  0  0
   34.4701  -27.3887  -19.6900 C   0  0  2  0  0  0  0  0  0  0  0  0
   34.4382  -25.8916  -19.5286 C   0  0  0  0  0  0  0  0  0  0  0  0
   34.3769  -28.0157  -18.3247 C   0  0  2  0  0  0  0  0  0  0  0  0
   34.1532  -29.4378  -18.4611 N   0  0  0  0  0  0  0  0  0  0  0  0
   33.3161  -27.4042  -17.4924 C   0  0  0  0  0  0  0  0  0  0  0  0
   32.1220  -27.7041  -17.7390 O   0  0  0  0  0  0  0  0  0  0  0  0
   34.3422  -24.7197  -14.5562 O   0  0  0  0  0  0  0  0  0  0  0  0
   33.1481  -25.4337  -14.3069 C   0  0  0  0  0  0  0  0  0  0  0  0
   32.6099  -25.9002  -15.6643 C   0  0  2  0  0  0  0  0  0  0  0  0
   33.6489  -26.5040  -16.4456 N   0  0  0  0  0  0  0  0  0  0  0  0
   31.9627  -24.7594  -16.3594 C   0  0  0  0  0  0  0  0  0  0  0  0
   32.6279  -24.0774  -17.1811 O   0  0  0  0  0  0  0  0  0  0  0  0
   30.6155  -24.3774  -16.1551 N   0  0  0  0  0  0  0  0  0  0  0  0
   29.9767  -23.2694  -16.8786 C   0  0  1  0  0  0  0  0  0  0  0  0
   29.9996  -23.5210  -18.3631 C   0  0  0  0  0  0  0  0  0  0  0  0
   29.3211  -22.4813  -19.1810 C   0  0  0  0  0  0  0  0  0  0  0  0
   29.4205  -22.8439  -20.6519 C   0  0  0  0  0  0  0  0  0  0  0  0
   28.8851  -21.7436  -21.5346 C   0  0  0  0  0  0  0  0  0  0  0  0
   28.9070  -22.1439  -22.9173 N   0  0  0  0  0  0  0  0  0  0  0  0
   28.6590  -22.9496  -16.3351 C   0  0  0  0  0  0  0  0  0  0  0  0
   28.3759  -22.4783  -15.0769 O   0  0  0  0  0  0  0  0  0  0  0  0
   27.6549  -23.1231  -17.1021 O   0  0  0  0  0  0  0  0  0  0  0  0
  2  1  1  0
  3  4  1  1
  3  2  1  0
  3  5  1  0
  5  6  1  6
  7  5  1  0
  7  8  2  0
 10  9  1  0
 11 10  1  1
 11 12  1  0
 12  7  1  0
 13 11  1  0
 14 13  2  0
 15 13  1  0
 16 15  1  0
 16 17  1  6
 18 19  1  0
 18 17  1  0
 19 20  1  0
 20 21  1  0
 22 16  1  0
 23 22  1  0
 24 22  2  0
M  END
$$$$
