ISK.pdb
     RDKit          3D

 24 23  0  0  1  0  0  0  0  0999 V2000
   15.2581  -11.2969  -18.6185 C   0  0  0  0  0  0  0  0  0  0  0  0
   16.5118  -11.9589  -18.1496 C   0  0  0  0  0  0  0  0  0  0  0  0
   17.4179  -11.0549  -17.3758 C   0  0  2  0  0  0  0  0  0  0  0  0
   17.8968   -9.8997  -18.2152 C   0  0  0  0  0  0  0  0  0  0  0  0
   18.6198  -11.7484  -16.7925 C   0  0  2  0  0  0  0  0  0  0  0  0
   18.1893  -12.8946  -16.0230 N   0  0  0  0  0  0  0  0  0  0  0  0
   19.4436  -10.8459  -15.9566 C   0  0  0  0  0  0  0  0  0  0  0  0
   18.9005  -10.2919  -14.9692 O   0  0  0  0  0  0  0  0  0  0  0  0
   23.3513   -9.9217  -17.0411 O   0  0  0  0  0  0  0  0  0  0  0  0
   23.0863   -9.9789  -15.6540 C   0  0  0  0  0  0  0  0  0  0  0  0
   21.5870   -9.7181  -15.4701 C   0  0  2  0  0  0  0  0  0  0  0  0
   20.8100  -10.6186  -16.2700 N   0  0  0  0  0  0  0  0  0  0  0  0
   21.2921   -8.2934  -15.7647 C   0  0  0  0  0  0  0  0  0  0  0  0
   20.7290   -7.9891  -16.8478 O   0  0  0  0  0  0  0  0  0  0  0  0
   21.6094   -7.2283  -14.8886 N   0  0  0  0  0  0  0  0  0  0  0  0
   21.2990   -5.8235  -15.1873 C   0  0  1  0  0  0  0  0  0  0  0  0
   19.8224   -5.6439  -15.4214 C   0  0  0  0  0  0  0  0  0  0  0  0
   19.3907   -4.2351  -15.6204 C   0  0  0  0  0  0  0  0  0  0  0  0
   17.8878   -4.1868  -15.8295 C   0  0  0  0  0  0  0  0  0  0  0  0
   17.4034   -2.7779  -16.0682 C   0  0  0  0  0  0  0  0  0  0  0  0
   15.9837   -2.7610  -16.3063 N   0  0  0  0  0  0  0  0  0  0  0  0
   21.8742   -4.9148  -14.1988 C   0  0  0  0  0  0  0  0  0  0  0  0
   22.1576   -3.5819  -14.3673 O   0  0  0  0  0  0  0  0  0  0  0  0
   22.1477   -5.3999  -13.0514 O   0  0  0  0  0  0  0  0  0  0  0  0
  2  1  1  0
  3  4  1  6
  3  2  1  0
  3  5  1  0
  5  6  1  1
  7  5  1  0
  7  8  2  0
 10  9  1  0
 11 10  1  6
 11 12  1  0
 12  7  1  0
 13 11  1  0
 14 13  2  0
 15 13  1  0
 16 15  1  0
 16 17  1  1
 18 19  1  0
 18 17  1  0
 19 20  1  0
 20 21  1  0
 22 16  1  0
 23 22  1  0
 24 22  2  0
M  END
$$$$
