ISK.pdb
     RDKit          3D

 24 23  0  0  1  0  0  0  0  0999 V2000
   22.2474  -16.1360  -18.3823 C   0  0  0  0  0  0  0  0  0  0  0  0
   22.3474  -16.5406  -16.9484 C   0  0  0  0  0  0  0  0  0  0  0  0
   21.4975  -17.7190  -16.5936 C   0  0  2  0  0  0  0  0  0  0  0  0
   20.0584  -17.5008  -16.9807 C   0  0  0  0  0  0  0  0  0  0  0  0
   21.5462  -18.0904  -15.1357 C   0  0  2  0  0  0  0  0  0  0  0  0
   22.9210  -18.2887  -14.7338 N   0  0  0  0  0  0  0  0  0  0  0  0
   20.7410  -19.2949  -14.8314 C   0  0  0  0  0  0  0  0  0  0  0  0
   19.5148  -19.2723  -15.1011 O   0  0  0  0  0  0  0  0  0  0  0  0
   22.2002  -22.3238  -12.4590 O   0  0  0  0  0  0  0  0  0  0  0  0
   21.4658  -22.7856  -13.5748 C   0  0  0  0  0  0  0  0  0  0  0  0
   20.5735  -21.6284  -14.0377 C   0  0  2  0  0  0  0  0  0  0  0  0
   21.3469  -20.4404  -14.2503 N   0  0  0  0  0  0  0  0  0  0  0  0
   19.4755  -21.4271  -13.0592 C   0  0  0  0  0  0  0  0  0  0  0  0
   19.5940  -20.5467  -12.1684 O   0  0  0  0  0  0  0  0  0  0  0  0
   18.2754  -22.1771  -13.0604 N   0  0  0  0  0  0  0  0  0  0  0  0
   17.1800  -21.9403  -12.1100 C   0  0  1  0  0  0  0  0  0  0  0  0
   16.0179  -21.2710  -12.7948 C   0  0  0  0  0  0  0  0  0  0  0  0
   14.6872  -21.8492  -12.4703 C   0  0  0  0  0  0  0  0  0  0  0  0
   13.6054  -21.0923  -13.2198 C   0  0  0  0  0  0  0  0  0  0  0  0
   12.2385  -21.6797  -12.9689 C   0  0  0  0  0  0  0  0  0  0  0  0
   11.2414  -21.0043  -13.7577 N   0  0  0  0  0  0  0  0  0  0  0  0
   16.8342  -23.1472  -11.3632 C   0  0  0  0  0  0  0  0  0  0  0  0
   16.2625  -23.2127  -10.1166 O   0  0  0  0  0  0  0  0  0  0  0  0
   17.0861  -24.2676  -11.9181 O   0  0  0  0  0  0  0  0  0  0  0  0
  2  1  1  0
  3  4  1  1
  3  2  1  0
  3  5  1  0
  5  6  1  6
  7  5  1  0
  7  8  2  0
 10  9  1  0
 11 10  1  1
 11 12  1  0
 12  7  1  0
 13 11  1  0
 14 13  2  0
 15 13  1  0
 16 15  1  0
 16 17  1  6
 18 19  1  0
 18 17  1  0
 19 20  1  0
 20 21  1  0
 22 16  1  0
 23 22  1  0
 24 22  2  0
M  END
$$$$
