ISK.pdb
     RDKit          3D

 24 23  0  0  1  0  0  0  0  0999 V2000
   42.8074   -8.8530  -10.7414 C   0  0  0  0  0  0  0  0  0  0  0  0
   42.2039   -9.9117   -9.8784 C   0  0  0  0  0  0  0  0  0  0  0  0
   43.1029  -11.0838   -9.6443 C   0  0  2  0  0  0  0  0  0  0  0  0
   43.5518  -11.7054  -10.9407 C   0  0  0  0  0  0  0  0  0  0  0  0
   42.4923  -12.1604   -8.7877 C   0  0  2  0  0  0  0  0  0  0  0  0
   42.0049  -11.5791   -7.5566 N   0  0  0  0  0  0  0  0  0  0  0  0
   43.4408  -13.2598   -8.4989 C   0  0  0  0  0  0  0  0  0  0  0  0
   44.4057  -13.0242   -7.7306 O   0  0  0  0  0  0  0  0  0  0  0  0
   44.6984  -17.8854   -9.1453 O   0  0  0  0  0  0  0  0  0  0  0  0
   43.6638  -16.9396   -9.3264 C   0  0  0  0  0  0  0  0  0  0  0  0
   44.1737  -15.6026   -8.7768 C   0  0  2  0  0  0  0  0  0  0  0  0
   43.2570  -14.5430   -9.0791 N   0  0  0  0  0  0  0  0  0  0  0  0
   45.5394  -15.3415   -9.2969 C   0  0  0  0  0  0  0  0  0  0  0  0
   45.6808  -14.8603  -10.4507 O   0  0  0  0  0  0  0  0  0  0  0  0
   46.7218  -15.6039   -8.5650 N   0  0  0  0  0  0  0  0  0  0  0  0
   48.0674  -15.4794   -9.1421 C   0  0  1  0  0  0  0  0  0  0  0  0
   49.0957  -15.2955   -8.0576 C   0  0  0  0  0  0  0  0  0  0  0  0
   50.4728  -15.0205   -8.5459 C   0  0  0  0  0  0  0  0  0  0  0  0
   51.4115  -14.8627   -7.3632 C   0  0  0  0  0  0  0  0  0  0  0  0
   52.8110  -14.5129   -7.8053 C   0  0  0  0  0  0  0  0  0  0  0  0
   53.6502  -14.2370   -6.6685 N   0  0  0  0  0  0  0  0  0  0  0  0
   48.3603  -16.5578  -10.0830 C   0  0  0  0  0  0  0  0  0  0  0  0
   49.0990  -16.4702  -11.2371 O   0  0  0  0  0  0  0  0  0  0  0  0
   47.8836  -17.7100   -9.8148 O   0  0  0  0  0  0  0  0  0  0  0  0
  2  1  1  0
  3  4  1  6
  3  2  1  0
  3  5  1  0
  5  6  1  1
  7  5  1  0
  7  8  2  0
 10  9  1  0
 11 10  1  6
 11 12  1  0
 12  7  1  0
 13 11  1  0
 14 13  2  0
 15 13  1  0
 16 15  1  0
 16 17  1  1
 18 19  1  0
 18 17  1  0
 19 20  1  0
 20 21  1  0
 22 16  1  0
 23 22  1  0
 24 22  2  0
M  END
$$$$
