ISK.pdb
     RDKit          3D

 24 23  0  0  1  0  0  0  0  0999 V2000
   22.8673  -27.1560  -19.7705 C   0  0  0  0  0  0  0  0  0  0  0  0
   23.7130  -27.5370  -18.6003 C   0  0  0  0  0  0  0  0  0  0  0  0
   24.5192  -28.7779  -18.8174 C   0  0  2  0  0  0  0  0  0  0  0  0
   23.6434  -29.9554  -19.1563 C   0  0  0  0  0  0  0  0  0  0  0  0
   25.3888  -29.1538  -17.6477 C   0  0  2  0  0  0  0  0  0  0  0  0
   26.3628  -28.1105  -17.4155 N   0  0  0  0  0  0  0  0  0  0  0  0
   26.0648  -30.4567  -17.8407 C   0  0  0  0  0  0  0  0  0  0  0  0
   25.3565  -31.4930  -17.8751 O   0  0  0  0  0  0  0  0  0  0  0  0
   30.2182  -30.7419  -17.9533 O   0  0  0  0  0  0  0  0  0  0  0  0
   29.5066  -31.5690  -18.8518 C   0  0  0  0  0  0  0  0  0  0  0  0
   28.1085  -31.7799  -18.2597 C   0  0  2  0  0  0  0  0  0  0  0  0
   27.4763  -30.5237  -17.9824 N   0  0  0  0  0  0  0  0  0  0  0  0
   28.2045  -32.6478  -17.0592 C   0  0  0  0  0  0  0  0  0  0  0  0
   28.9543  -32.3077  -16.1080 O   0  0  0  0  0  0  0  0  0  0  0  0
   27.4926  -33.8616  -16.9088 N   0  0  0  0  0  0  0  0  0  0  0  0
   27.4501  -34.6164  -15.6488 C   0  0  1  0  0  0  0  0  0  0  0  0
   27.0038  -33.7322  -14.5146 C   0  0  0  0  0  0  0  0  0  0  0  0
   26.7984  -34.4356  -13.2209 C   0  0  0  0  0  0  0  0  0  0  0  0
   26.2930  -33.4524  -12.1803 C   0  0  0  0  0  0  0  0  0  0  0  0
   26.0971  -34.1133  -10.8382 C   0  0  0  0  0  0  0  0  0  0  0  0
   25.5299  -33.1875   -9.8927 N   0  0  0  0  0  0  0  0  0  0  0  0
   26.6980  -35.8615  -15.7830 C   0  0  0  0  0  0  0  0  0  0  0  0
   26.9863  -37.0688  -15.1960 O   0  0  0  0  0  0  0  0  0  0  0  0
   25.6596  -35.8378  -16.5232 O   0  0  0  0  0  0  0  0  0  0  0  0
  2  1  1  0
  3  4  1  1
  3  2  1  0
  3  5  1  0
  5  6  1  6
  7  5  1  0
  7  8  2  0
 10  9  1  0
 11 10  1  1
 11 12  1  0
 12  7  1  0
 13 11  1  0
 14 13  2  0
 15 13  1  0
 16 15  1  0
 16 17  1  1
 18 19  1  0
 18 17  1  0
 19 20  1  0
 20 21  1  0
 22 16  1  0
 23 22  1  0
 24 22  2  0
M  END
$$$$
