ISK.pdb
     RDKit          3D

 24 23  0  0  1  0  0  0  0  0999 V2000
   30.2162  -27.1789  -17.8171 C   0  0  0  0  0  0  0  0  0  0  0  0
   28.8693  -26.6547  -18.1920 C   0  0  0  0  0  0  0  0  0  0  0  0
   28.0168  -26.2885  -17.0189 C   0  0  2  0  0  0  0  0  0  0  0  0
   27.8840  -27.4350  -16.0512 C   0  0  0  0  0  0  0  0  0  0  0  0
   26.6360  -25.8182  -17.3904 C   0  0  2  0  0  0  0  0  0  0  0  0
   26.7357  -24.6542  -18.2426 N   0  0  0  0  0  0  0  0  0  0  0  0
   25.8019  -25.5192  -16.2043 C   0  0  0  0  0  0  0  0  0  0  0  0
   25.6578  -26.4175  -15.3389 O   0  0  0  0  0  0  0  0  0  0  0  0
   23.4777  -22.1637  -16.1038 O   0  0  0  0  0  0  0  0  0  0  0  0
   24.0305  -22.4720  -14.8400 C   0  0  0  0  0  0  0  0  0  0  0  0
   24.4346  -23.9503  -14.8731 C   0  0  2  0  0  0  0  0  0  0  0  0
   25.1852  -24.2483  -16.0573 N   0  0  0  0  0  0  0  0  0  0  0  0
   23.2238  -24.7982  -14.7363 C   0  0  0  0  0  0  0  0  0  0  0  0
   22.6897  -25.2852  -15.7661 O   0  0  0  0  0  0  0  0  0  0  0  0
   22.6147  -25.1030  -13.4959 N   0  0  0  0  0  0  0  0  0  0  0  0
   21.4215  -25.9520  -13.3747 C   0  0  1  0  0  0  0  0  0  0  0  0
   21.5706  -26.9175  -12.2289 C   0  0  0  0  0  0  0  0  0  0  0  0
   20.4730  -27.9129  -12.1070 C   0  0  0  0  0  0  0  0  0  0  0  0
   20.6875  -28.7595  -10.8652 C   0  0  0  0  0  0  0  0  0  0  0  0
   19.6035  -29.7965  -10.7035 C   0  0  0  0  0  0  0  0  0  0  0  0
   19.7655  -30.5139   -9.4659 N   0  0  0  0  0  0  0  0  0  0  0  0
   20.1911  -25.1649  -13.3520 C   0  0  0  0  0  0  0  0  0  0  0  0
   20.0310  -23.8951  -12.8550 O   0  0  0  0  0  0  0  0  0  0  0  0
   19.1453  -25.7047  -13.8438 O   0  0  0  0  0  0  0  0  0  0  0  0
  2  1  1  0
  3  4  1  1
  3  2  1  0
  3  5  1  0
  5  6  1  6
  7  5  1  0
  7  8  2  0
 10  9  1  0
 11 10  1  6
 11 12  1  0
 12  7  1  0
 13 11  1  0
 14 13  2  0
 15 13  1  0
 16 15  1  0
 16 17  1  1
 18 19  1  0
 18 17  1  0
 19 20  1  0
 20 21  1  0
 22 16  1  0
 23 22  1  0
 24 22  2  0
M  END
$$$$
