ISK.pdb
     RDKit          3D

 24 23  0  0  1  0  0  0  0  0999 V2000
   18.5377  -15.7187  -16.4611 C   0  0  0  0  0  0  0  0  0  0  0  0
   18.8216  -14.4118  -17.1254 C   0  0  0  0  0  0  0  0  0  0  0  0
   18.4829  -13.2220  -16.2848 C   0  0  2  0  0  0  0  0  0  0  0  0
   17.0159  -13.1824  -15.9461 C   0  0  0  0  0  0  0  0  0  0  0  0
   18.8620  -11.9056  -16.9086 C   0  0  2  0  0  0  0  0  0  0  0  0
   20.2506  -11.9441  -17.3105 N   0  0  0  0  0  0  0  0  0  0  0  0
   18.6186  -10.7596  -16.0036 C   0  0  0  0  0  0  0  0  0  0  0  0
   17.4957  -10.6699  -15.4490 O   0  0  0  0  0  0  0  0  0  0  0  0
   21.2507   -7.5986  -15.8612 O   0  0  0  0  0  0  0  0  0  0  0  0
   20.6783   -7.9166  -14.6086 C   0  0  0  0  0  0  0  0  0  0  0  0
   19.3869   -8.6941  -14.8872 C   0  0  2  0  0  0  0  0  0  0  0  0
   19.6332   -9.7925  -15.7745 N   0  0  0  0  0  0  0  0  0  0  0  0
   18.3506   -7.7648  -15.4031 C   0  0  0  0  0  0  0  0  0  0  0  0
   18.1599   -7.6776  -16.6436 O   0  0  0  0  0  0  0  0  0  0  0  0
   17.5433   -6.9503  -14.5740 N   0  0  0  0  0  0  0  0  0  0  0  0
   16.5103   -6.0461  -15.0980 C   0  0  1  0  0  0  0  0  0  0  0  0
   15.1630   -6.3855  -14.5174 C   0  0  0  0  0  0  0  0  0  0  0  0
   14.0483   -5.5193  -14.9839 C   0  0  0  0  0  0  0  0  0  0  0  0
   12.7441   -5.9883  -14.3641 C   0  0  0  0  0  0  0  0  0  0  0  0
   11.5526   -5.3082  -14.9919 C   0  0  0  0  0  0  0  0  0  0  0  0
   10.3264   -5.7937  -14.4144 N   0  0  0  0  0  0  0  0  0  0  0  0
   16.8946   -4.6430  -14.9663 C   0  0  0  0  0  0  0  0  0  0  0  0
   16.5141   -3.6020  -15.7768 O   0  0  0  0  0  0  0  0  0  0  0  0
   17.6672   -4.3392  -13.9981 O   0  0  0  0  0  0  0  0  0  0  0  0
  2  1  1  0
  3  4  1  6
  3  2  1  0
  3  5  1  0
  5  6  1  1
  7  5  1  0
  7  8  2  0
 10  9  1  0
 11 10  1  6
 11 12  1  0
 12  7  1  0
 13 11  1  0
 14 13  2  0
 15 13  1  0
 16 15  1  0
 16 17  1  1
 18 19  1  0
 18 17  1  0
 19 20  1  0
 20 21  1  0
 22 16  1  0
 23 22  1  0
 24 22  2  0
M  END
$$$$
