ISK.pdb
     RDKit          3D

 24 23  0  0  1  0  0  0  0  0999 V2000
   25.8854  -11.1619  -15.3010 C   0  0  0  0  0  0  0  0  0  0  0  0
   24.4739  -10.9096  -15.7176 C   0  0  0  0  0  0  0  0  0  0  0  0
   24.0244   -9.4995  -15.5024 C   0  0  2  0  0  0  0  0  0  0  0  0
   24.1148   -9.1045  -14.0518 C   0  0  0  0  0  0  0  0  0  0  0  0
   22.6249   -9.2243  -15.9833 C   0  0  2  0  0  0  0  0  0  0  0  0
   22.4553   -9.7689  -17.3121 N   0  0  0  0  0  0  0  0  0  0  0  0
   22.2960   -7.7808  -15.9716 C   0  0  0  0  0  0  0  0  0  0  0  0
   21.8457   -7.2837  -14.9101 O   0  0  0  0  0  0  0  0  0  0  0  0
   22.4336   -5.5891  -19.4819 O   0  0  0  0  0  0  0  0  0  0  0  0
   22.7168   -4.8563  -18.3070 C   0  0  0  0  0  0  0  0  0  0  0  0
   22.0777   -5.6139  -17.1377 C   0  0  2  0  0  0  0  0  0  0  0  0
   22.4878   -6.9874  -17.1338 N   0  0  0  0  0  0  0  0  0  0  0  0
   20.6024   -5.4590  -17.1941 C   0  0  0  0  0  0  0  0  0  0  0  0
   19.9289   -6.2144  -17.9414 O   0  0  0  0  0  0  0  0  0  0  0  0
   19.8849   -4.4954  -16.4462 N   0  0  0  0  0  0  0  0  0  0  0  0
   18.4556   -4.2223  -16.6504 C   0  0  1  0  0  0  0  0  0  0  0  0
   17.6139   -5.3093  -16.0362 C   0  0  0  0  0  0  0  0  0  0  0  0
   16.1465   -5.1016  -16.1537 C   0  0  0  0  0  0  0  0  0  0  0  0
   15.4140   -6.3093  -15.5972 C   0  0  0  0  0  0  0  0  0  0  0  0
   13.9199   -6.1801  -15.7630 C   0  0  0  0  0  0  0  0  0  0  0  0
   13.2443   -7.3175  -15.1952 N   0  0  0  0  0  0  0  0  0  0  0  0
   18.0944   -2.8673  -16.2411 C   0  0  0  0  0  0  0  0  0  0  0  0
   18.7261   -2.0918  -15.3005 O   0  0  0  0  0  0  0  0  0  0  0  0
   17.0847   -2.3364  -16.8114 O   0  0  0  0  0  0  0  0  0  0  0  0
  2  1  1  0
  3  4  1  1
  3  2  1  0
  3  5  1  0
  5  6  1  6
  7  5  1  0
  7  8  2  0
 10  9  1  0
 11 10  1  6
 11 12  1  0
 12  7  1  0
 13 11  1  0
 14 13  2  0
 15 13  1  0
 16 15  1  0
 16 17  1  1
 18 19  1  0
 18 17  1  0
 19 20  1  0
 20 21  1  0
 22 16  1  0
 23 22  1  0
 24 22  2  0
M  END
$$$$
