YFC.pdb
     RDKit          3D

 30 31  0  0  1  0  0  0  0  0999 V2000
    7.6376  -22.3062   17.0398 O   0  0  0  0  0  0  0  0  0  0  0  0
    8.0368  -21.4771   18.0935 C   0  0  0  0  0  0  0  0  0  0  0  0
    7.0996  -20.8209   18.8772 C   0  0  0  0  0  0  0  0  0  0  0  0
    7.4485  -19.9949   19.9250 C   0  0  0  0  0  0  0  0  0  0  0  0
    8.7787  -19.7948   20.2287 C   0  0  0  0  0  0  0  0  0  0  0  0
    9.2024  -18.9269   21.3319 C   0  0  0  0  0  0  0  0  0  0  0  0
    9.4564  -17.5034   20.9162 C   0  0  2  0  0  0  0  0  0  0  0  0
   10.6708  -17.3544   20.1536 N   0  0  0  0  0  0  0  0  0  0  0  0
    9.6049  -16.6982   22.1563 C   0  0  0  0  0  0  0  0  0  0  0  0
   10.7497  -16.6344   22.6763 O   0  0  0  0  0  0  0  0  0  0  0  0
    9.7110  -20.4478   19.4488 C   0  0  0  0  0  0  0  0  0  0  0  0
    9.3651  -21.2730   18.4022 C   0  0  0  0  0  0  0  0  0  0  0  0
    8.5172  -16.0172   22.7534 N   0  0  0  0  0  0  0  0  0  0  0  0
    8.6915  -15.1809   23.9779 C   0  0  1  0  0  0  0  0  0  0  0  0
    7.5936  -14.1804   24.0302 C   0  0  0  0  0  0  0  0  0  0  0  0
    7.4567  -13.3617   25.2231 C   0  0  0  0  0  0  0  0  0  0  0  0
    8.5454  -12.8998   25.9291 C   0  0  0  0  0  0  0  0  0  0  0  0
    8.4070  -12.1285   27.0658 C   0  0  0  0  0  0  0  0  0  0  0  0
    7.1609  -11.7919   27.5357 C   0  0  0  0  0  0  0  0  0  0  0  0
    6.0521  -12.2341   26.8577 C   0  0  0  0  0  0  0  0  0  0  0  0
    6.2023  -13.0000   25.7296 C   0  0  0  0  0  0  0  0  0  0  0  0
    8.8087  -16.1189   25.0908 C   0  0  0  0  0  0  0  0  0  0  0  0
    7.9005  -16.9564   25.3478 O   0  0  0  0  0  0  0  0  0  0  0  0
    9.9444  -16.1456   25.9334 N   0  0  0  0  0  0  0  0  0  0  0  0
   10.0090  -17.1405   27.0212 C   0  0  1  0  0  0  0  0  0  0  0  0
   10.9715  -18.2249   26.5491 C   0  0  0  0  0  0  0  0  0  0  0  0
   12.5187  -17.5254   25.9740 S   0  0  0  0  0  0  0  0  0  0  0  0
   10.4710  -16.5565   28.2695 C   0  0  0  0  0  0  0  0  0  0  0  0
   10.7525  -15.3474   28.3576 O   0  0  0  0  0  0  0  0  0  0  0  0
   10.5970  -17.3729   29.3791 O   0  0  0  0  0  0  0  0  0  0  0  0
  2  1  1  0
  3  2  2  0
  4  3  1  0
  5  4  2  0
  5 11  1  0
  6  5  1  0
  7  8  1  6
  7  6  1  0
  9  7  1  0
  9 10  2  0
 11 12  2  0
 12  2  1  0
 13  9  1  0
 14 13  1  0
 14 22  1  0
 14 15  1  1
 16 15  1  0
 16 17  2  0
 18 17  1  0
 19 18  2  0
 20 21  2  0
 20 19  1  0
 21 16  1  0
 22 23  2  0
 22 24  1  0
 24 25  1  0
 25 28  1  0
 26 27  1  0
 25 26  1  6
 28 29  2  0
 28 30  1  0
M  END
$$$$
