YFC.pdb
     RDKit          3D

 30 31  0  0  1  0  0  0  0  0999 V2000
    8.2067  -13.4590   15.3581 O   0  0  0  0  0  0  0  0  0  0  0  0
    7.9472  -13.7169   16.7083 C   0  0  0  0  0  0  0  0  0  0  0  0
    7.7540  -12.6786   17.6070 C   0  0  0  0  0  0  0  0  0  0  0  0
    7.4959  -12.8872   18.9456 C   0  0  0  0  0  0  0  0  0  0  0  0
    7.4212  -14.1728   19.4387 C   0  0  0  0  0  0  0  0  0  0  0  0
    7.1495  -14.4487   20.8529 C   0  0  0  0  0  0  0  0  0  0  0  0
    8.0258  -15.5230   21.4371 C   0  0  2  0  0  0  0  0  0  0  0  0
    7.3939  -16.8189   21.4357 N   0  0  0  0  0  0  0  0  0  0  0  0
    8.2937  -15.1572   22.8523 C   0  0  0  0  0  0  0  0  0  0  0  0
    7.7246  -14.1302   23.3066 O   0  0  0  0  0  0  0  0  0  0  0  0
    7.6135  -15.2058   18.5444 C   0  0  0  0  0  0  0  0  0  0  0  0
    7.8713  -15.0001   17.2075 C   0  0  0  0  0  0  0  0  0  0  0  0
    9.1523  -15.9166   23.6827 N   0  0  0  0  0  0  0  0  0  0  0  0
    9.3522  -15.5784   25.1231 C   0  0  1  0  0  0  0  0  0  0  0  0
    8.0201  -15.4220   25.7636 C   0  0  0  0  0  0  0  0  0  0  0  0
    7.5160  -14.0794   25.9984 C   0  0  0  0  0  0  0  0  0  0  0  0
    6.1862  -13.8250   26.2514 C   0  0  0  0  0  0  0  0  0  0  0  0
    5.7138  -12.5456   26.4662 C   0  0  0  0  0  0  0  0  0  0  0  0
    6.5673  -11.4698   26.4343 C   0  0  0  0  0  0  0  0  0  0  0  0
    7.9001  -11.6848   26.1853 C   0  0  0  0  0  0  0  0  0  0  0  0
    8.3577  -12.9605   25.9733 C   0  0  0  0  0  0  0  0  0  0  0  0
   10.2453  -16.6036   25.6555 C   0  0  0  0  0  0  0  0  0  0  0  0
    9.9716  -17.8319   25.5621 O   0  0  0  0  0  0  0  0  0  0  0  0
   11.4640  -16.2785   26.2954 N   0  0  0  0  0  0  0  0  0  0  0  0
   11.5177  -16.2554   27.7699 C   0  0  1  0  0  0  0  0  0  0  0  0
   10.6115  -15.1109   28.2105 C   0  0  0  0  0  0  0  0  0  0  0  0
   10.4481  -15.0517   29.9948 S   0  0  0  0  0  0  0  0  0  0  0  0
   11.0743  -17.5108   28.3529 C   0  0  0  0  0  0  0  0  0  0  0  0
   10.0115  -18.0533   27.9991 O   0  0  0  0  0  0  0  0  0  0  0  0
   11.8596  -18.1076   29.3227 O   0  0  0  0  0  0  0  0  0  0  0  0
  2  1  1  0
  3  2  2  0
  4  3  1  0
  5  4  2  0
  5 11  1  0
  6  5  1  0
  7  8  1  1
  7  6  1  0
  9  7  1  0
  9 10  2  0
 11 12  2  0
 12  2  1  0
 13  9  1  0
 14 13  1  0
 14 22  1  0
 14 15  1  1
 16 15  1  0
 16 17  2  0
 18 17  1  0
 19 18  2  0
 20 21  2  0
 20 19  1  0
 21 16  1  0
 22 23  2  0
 22 24  1  0
 24 25  1  0
 25 28  1  0
 26 27  1  0
 25 26  1  1
 28 29  2  0
 28 30  1  0
M  END
$$$$
