YFC.pdb
     RDKit          3D

 30 31  0  0  1  0  0  0  0  0999 V2000
    7.3438  -14.7327   14.5308 O   0  0  0  0  0  0  0  0  0  0  0  0
    7.9053  -14.6234   15.8074 C   0  0  0  0  0  0  0  0  0  0  0  0
    8.8260  -15.5554   16.2623 C   0  0  0  0  0  0  0  0  0  0  0  0
    9.4040  -15.4861   17.5125 C   0  0  0  0  0  0  0  0  0  0  0  0
    9.0705  -14.4569   18.3676 C   0  0  0  0  0  0  0  0  0  0  0  0
    9.6560  -14.3376   19.7065 C   0  0  0  0  0  0  0  0  0  0  0  0
    9.5723  -15.6028   20.5163 C   0  0  2  0  0  0  0  0  0  0  0  0
    8.2844  -16.2433   20.4168 N   0  0  0  0  0  0  0  0  0  0  0  0
    9.7794  -15.2331   21.9406 C   0  0  0  0  0  0  0  0  0  0  0  0
   10.8648  -14.6728   22.2456 O   0  0  0  0  0  0  0  0  0  0  0  0
    8.1544  -13.5297   17.9148 C   0  0  0  0  0  0  0  0  0  0  0  0
    7.5760  -13.5967   16.6670 C   0  0  0  0  0  0  0  0  0  0  0  0
    8.8098  -15.4892   22.9395 N   0  0  0  0  0  0  0  0  0  0  0  0
    8.7777  -14.7188   24.2181 C   0  0  1  0  0  0  0  0  0  0  0  0
    7.3631  -14.4024   24.5466 C   0  0  0  0  0  0  0  0  0  0  0  0
    7.0921  -13.5105   25.6616 C   0  0  0  0  0  0  0  0  0  0  0  0
    6.0658  -13.7348   26.5524 C   0  0  0  0  0  0  0  0  0  0  0  0
    5.8101  -12.8788   27.6050 C   0  0  0  0  0  0  0  0  0  0  0  0
    6.5824  -11.7598   27.8006 C   0  0  0  0  0  0  0  0  0  0  0  0
    7.6148  -11.5037   26.9327 C   0  0  0  0  0  0  0  0  0  0  0  0
    7.8591  -12.3615   25.8905 C   0  0  0  0  0  0  0  0  0  0  0  0
    9.5379  -15.5094   25.1819 C   0  0  0  0  0  0  0  0  0  0  0  0
   10.6412  -15.1067   25.6433 O   0  0  0  0  0  0  0  0  0  0  0  0
    9.0785  -16.7606   25.6549 N   0  0  0  0  0  0  0  0  0  0  0  0
    9.9809  -17.5962   26.4703 C   0  0  1  0  0  0  0  0  0  0  0  0
   10.0641  -16.9241   27.8365 C   0  0  0  0  0  0  0  0  0  0  0  0
    9.4846  -15.2288   27.7712 S   0  0  0  0  0  0  0  0  0  0  0  0
    9.4944  -18.9596   26.6012 C   0  0  0  0  0  0  0  0  0  0  0  0
   10.0806  -19.7943   27.3143 O   0  0  0  0  0  0  0  0  0  0  0  0
    8.3522  -19.3270   25.9126 O   0  0  0  0  0  0  0  0  0  0  0  0
  2  1  1  0
  3  2  2  0
  4  3  1  0
  5  4  2  0
  5 11  1  0
  6  5  1  0
  7  8  1  1
  7  6  1  0
  9  7  1  0
  9 10  2  0
 11 12  2  0
 12  2  1  0
 13  9  1  0
 14 13  1  0
 14 22  1  0
 14 15  1  1
 16 15  1  0
 16 17  2  0
 18 17  1  0
 19 18  2  0
 20 21  2  0
 20 19  1  0
 21 16  1  0
 22 23  2  0
 22 24  1  0
 24 25  1  0
 25 28  1  0
 26 27  1  0
 25 26  1  1
 28 29  2  0
 28 30  1  0
M  END
$$$$
