YFC.pdb
     RDKit          3D

 30 31  0  0  1  0  0  0  0  0999 V2000
    8.4875  -22.3574   30.1041 O   0  0  0  0  0  0  0  0  0  0  0  0
    8.3073  -21.8844   28.8000 C   0  0  0  0  0  0  0  0  0  0  0  0
    7.5740  -20.7331   28.5553 C   0  0  0  0  0  0  0  0  0  0  0  0
    7.3715  -20.2315   27.2867 C   0  0  0  0  0  0  0  0  0  0  0  0
    7.9097  -20.8824   26.1966 C   0  0  0  0  0  0  0  0  0  0  0  0
    7.7239  -20.3909   24.8277 C   0  0  0  0  0  0  0  0  0  0  0  0
    6.3645  -19.7960   24.5797 C   0  0  2  0  0  0  0  0  0  0  0  0
    5.6890  -20.3993   23.4579 N   0  0  0  0  0  0  0  0  0  0  0  0
    6.5601  -18.3573   24.2635 C   0  0  0  0  0  0  0  0  0  0  0  0
    6.8369  -18.0545   23.0732 O   0  0  0  0  0  0  0  0  0  0  0  0
    8.6393  -22.0279   26.4402 C   0  0  0  0  0  0  0  0  0  0  0  0
    8.8429  -22.5306   27.7059 C   0  0  0  0  0  0  0  0  0  0  0  0
    6.4457  -17.3427   25.2437 N   0  0  0  0  0  0  0  0  0  0  0  0
    6.8594  -15.9348   24.9682 C   0  0  1  0  0  0  0  0  0  0  0  0
    6.1255  -15.0340   25.8951 C   0  0  0  0  0  0  0  0  0  0  0  0
    6.5031  -13.6315   25.9443 C   0  0  0  0  0  0  0  0  0  0  0  0
    6.4184  -12.8853   27.0989 C   0  0  0  0  0  0  0  0  0  0  0  0
    6.7722  -11.5513   27.1359 C   0  0  0  0  0  0  0  0  0  0  0  0
    7.2268  -10.9162   26.0059 C   0  0  0  0  0  0  0  0  0  0  0  0
    7.3249  -11.6282   24.8362 C   0  0  0  0  0  0  0  0  0  0  0  0
    6.9704  -12.9532   24.8119 C   0  0  0  0  0  0  0  0  0  0  0  0
    8.3183  -15.9268   25.0269 C   0  0  0  0  0  0  0  0  0  0  0  0
    8.9380  -16.1712   26.0986 O   0  0  0  0  0  0  0  0  0  0  0  0
    9.1137  -15.6533   23.8898 N   0  0  0  0  0  0  0  0  0  0  0  0
   10.5832  -15.7132   24.0094 C   0  0  1  0  0  0  0  0  0  0  0  0
   10.9102  -17.1041   24.5420 C   0  0  0  0  0  0  0  0  0  0  0  0
   12.6749  -17.4195   24.5163 S   0  0  0  0  0  0  0  0  0  0  0  0
   11.2451  -15.4861   22.7354 C   0  0  0  0  0  0  0  0  0  0  0  0
   12.4837  -15.3959   22.6523 O   0  0  0  0  0  0  0  0  0  0  0  0
   10.4706  -15.3689   21.5953 O   0  0  0  0  0  0  0  0  0  0  0  0
  2  1  1  0
  3  2  2  0
  4  3  1  0
  5  4  2  0
  5 11  1  0
  6  5  1  0
  7  8  1  6
  7  6  1  0
  9  7  1  0
  9 10  2  0
 11 12  2  0
 12  2  1  0
 13  9  1  0
 14 13  1  0
 14 22  1  0
 14 15  1  1
 16 15  1  0
 16 17  2  0
 18 17  1  0
 19 18  2  0
 20 21  2  0
 20 19  1  0
 21 16  1  0
 22 23  2  0
 22 24  1  0
 24 25  1  0
 25 28  1  0
 26 27  1  0
 25 26  1  6
 28 29  2  0
 28 30  1  0
M  END
$$$$
