YFC.pdb
     RDKit          3D

 30 31  0  0  1  0  0  0  0  0999 V2000
    3.3481  -25.4315   24.1492 O   0  0  0  0  0  0  0  0  0  0  0  0
    4.0849  -24.2425   24.1327 C   0  0  0  0  0  0  0  0  0  0  0  0
    5.3840  -24.2167   23.6480 C   0  0  0  0  0  0  0  0  0  0  0  0
    6.1459  -23.0677   23.6131 C   0  0  0  0  0  0  0  0  0  0  0  0
    5.6188  -21.8795   24.0735 C   0  0  0  0  0  0  0  0  0  0  0  0
    6.3867  -20.6305   24.0583 C   0  0  0  0  0  0  0  0  0  0  0  0
    5.7783  -19.5588   23.1953 C   0  0  2  0  0  0  0  0  0  0  0  0
    5.8473  -19.8703   21.7893 N   0  0  0  0  0  0  0  0  0  0  0  0
    6.5587  -18.3138   23.4167 C   0  0  0  0  0  0  0  0  0  0  0  0
    7.5288  -18.0892   22.6463 O   0  0  0  0  0  0  0  0  0  0  0  0
    4.3263  -21.9053   24.5556 C   0  0  0  0  0  0  0  0  0  0  0  0
    3.5635  -23.0512   24.5915 C   0  0  0  0  0  0  0  0  0  0  0  0
    6.2461  -17.3957   24.4477 N   0  0  0  0  0  0  0  0  0  0  0  0
    7.0598  -16.1648   24.6759 C   0  0  1  0  0  0  0  0  0  0  0  0
    6.2509  -15.2005   25.4663 C   0  0  0  0  0  0  0  0  0  0  0  0
    6.8800  -13.9689   25.9130 C   0  0  0  0  0  0  0  0  0  0  0  0
    7.0573  -12.8871   25.0791 C   0  0  0  0  0  0  0  0  0  0  0  0
    7.6626  -11.7231   25.5090 C   0  0  0  0  0  0  0  0  0  0  0  0
    8.1138  -11.6047   26.8010 C   0  0  0  0  0  0  0  0  0  0  0  0
    7.9541  -12.6626   27.6612 C   0  0  0  0  0  0  0  0  0  0  0  0
    7.3512  -13.8141   27.2225 C   0  0  0  0  0  0  0  0  0  0  0  0
    8.3237  -16.6200   25.2481 C   0  0  0  0  0  0  0  0  0  0  0  0
    8.3579  -17.4376   26.2087 O   0  0  0  0  0  0  0  0  0  0  0  0
    9.5733  -16.1776   24.7550 N   0  0  0  0  0  0  0  0  0  0  0  0
   10.8114  -16.7527   25.3151 C   0  0  1  0  0  0  0  0  0  0  0  0
   11.6698  -17.1580   24.1218 C   0  0  0  0  0  0  0  0  0  0  0  0
   11.7415  -15.8559   22.8915 S   0  0  0  0  0  0  0  0  0  0  0  0
   11.5226  -15.8048   26.1568 C   0  0  0  0  0  0  0  0  0  0  0  0
   11.1341  -14.6294   26.2853 O   0  0  0  0  0  0  0  0  0  0  0  0
   12.6564  -16.2298   26.8257 O   0  0  0  0  0  0  0  0  0  0  0  0
  2  1  1  0
  3  2  2  0
  4  3  1  0
  5  4  2  0
  5 11  1  0
  6  5  1  0
  7  8  1  6
  7  6  1  0
  9  7  1  0
  9 10  2  0
 11 12  2  0
 12  2  1  0
 13  9  1  0
 14 13  1  0
 14 22  1  0
 14 15  1  1
 16 15  1  0
 16 17  2  0
 18 17  1  0
 19 18  2  0
 20 21  2  0
 20 19  1  0
 21 16  1  0
 22 23  2  0
 22 24  1  0
 24 25  1  0
 25 28  1  0
 26 27  1  0
 25 26  1  6
 28 29  2  0
 28 30  1  0
M  END
$$$$
