YFC.pdb
     RDKit          3D

 30 31  0  0  1  0  0  0  0  0999 V2000
    9.1618  -18.8390   30.5253 O   0  0  0  0  0  0  0  0  0  0  0  0
    8.7106  -19.0121   29.2126 C   0  0  0  0  0  0  0  0  0  0  0  0
    9.3217  -18.3521   28.1570 C   0  0  0  0  0  0  0  0  0  0  0  0
    8.9099  -18.4935   26.8484 C   0  0  0  0  0  0  0  0  0  0  0  0
    7.8477  -19.3200   26.5479 C   0  0  0  0  0  0  0  0  0  0  0  0
    7.3709  -19.5049   25.1737 C   0  0  0  0  0  0  0  0  0  0  0  0
    6.2407  -18.5855   24.7986 C   0  0  2  0  0  0  0  0  0  0  0  0
    5.1500  -19.2769   24.1573 N   0  0  0  0  0  0  0  0  0  0  0  0
    6.7763  -17.5964   23.8275 C   0  0  0  0  0  0  0  0  0  0  0  0
    6.9815  -17.9888   22.6489 O   0  0  0  0  0  0  0  0  0  0  0  0
    7.2398  -19.9765   27.5982 C   0  0  0  0  0  0  0  0  0  0  0  0
    7.6491  -19.8370   28.9055 C   0  0  0  0  0  0  0  0  0  0  0  0
    7.0550  -16.2558   24.1858 N   0  0  0  0  0  0  0  0  0  0  0  0
    7.8600  -15.3588   23.3046 C   0  0  1  0  0  0  0  0  0  0  0  0
    7.3834  -13.9627   23.4854 C   0  0  0  0  0  0  0  0  0  0  0  0
    7.2912  -13.4298   24.8344 C   0  0  0  0  0  0  0  0  0  0  0  0
    6.2305  -13.7107   25.6670 C   0  0  0  0  0  0  0  0  0  0  0  0
    6.1465  -13.1946   26.9448 C   0  0  0  0  0  0  0  0  0  0  0  0
    7.1325  -12.3728   27.4339 C   0  0  0  0  0  0  0  0  0  0  0  0
    8.2055  -12.0709   26.6326 C   0  0  0  0  0  0  0  0  0  0  0  0
    8.2779  -12.5895   25.3647 C   0  0  0  0  0  0  0  0  0  0  0  0
    9.2585  -15.6440   23.6124 C   0  0  0  0  0  0  0  0  0  0  0  0
    9.6693  -15.7292   24.8025 O   0  0  0  0  0  0  0  0  0  0  0  0
   10.2238  -15.8471   22.5988 N   0  0  0  0  0  0  0  0  0  0  0  0
   11.6429  -15.9925   22.9763 C   0  0  1  0  0  0  0  0  0  0  0  0
   11.8594  -17.4763   23.2530 C   0  0  0  0  0  0  0  0  0  0  0  0
   10.5485  -18.4746   22.5467 S   0  0  0  0  0  0  0  0  0  0  0  0
   12.5377  -15.5333   21.9270 C   0  0  0  0  0  0  0  0  0  0  0  0
   12.1040  -15.1260   20.8338 O   0  0  0  0  0  0  0  0  0  0  0  0
   13.9011  -15.5537   22.1596 O   0  0  0  0  0  0  0  0  0  0  0  0
  2  1  1  0
  3  2  2  0
  4  3  1  0
  5  4  2  0
  5 11  1  0
  6  5  1  0
  7  8  1  6
  7  6  1  0
  9  7  1  0
  9 10  2  0
 11 12  2  0
 12  2  1  0
 13  9  1  0
 14 13  1  0
 14 22  1  0
 14 15  1  1
 16 15  1  0
 16 17  2  0
 18 17  1  0
 19 18  2  0
 20 21  2  0
 20 19  1  0
 21 16  1  0
 22 23  2  0
 22 24  1  0
 24 25  1  0
 25 28  1  0
 26 27  1  0
 25 26  1  6
 28 29  2  0
 28 30  1  0
M  END
$$$$
