YFC.pdb
     RDKit          3D

 30 31  0  0  1  0  0  0  0  0999 V2000
    7.0689  -15.0712   14.8592 O   0  0  0  0  0  0  0  0  0  0  0  0
    7.8414  -14.9866   16.0224 C   0  0  0  0  0  0  0  0  0  0  0  0
    7.6687  -13.9413   16.9172 C   0  0  0  0  0  0  0  0  0  0  0  0
    8.4078  -13.8189   18.0750 C   0  0  0  0  0  0  0  0  0  0  0  0
    9.3663  -14.7620   18.3812 C   0  0  0  0  0  0  0  0  0  0  0  0
   10.1787  -14.6781   19.5989 C   0  0  0  0  0  0  0  0  0  0  0  0
   10.0097  -15.8563   20.5191 C   0  0  2  0  0  0  0  0  0  0  0  0
    8.7257  -16.4959   20.3745 N   0  0  0  0  0  0  0  0  0  0  0  0
   10.1026  -15.3486   21.9126 C   0  0  0  0  0  0  0  0  0  0  0  0
   11.1485  -14.7283   22.2385 O   0  0  0  0  0  0  0  0  0  0  0  0
    9.5380  -15.8019   17.4908 C   0  0  0  0  0  0  0  0  0  0  0  0
    8.8013  -15.9263   16.3341 C   0  0  0  0  0  0  0  0  0  0  0  0
    9.0689  -15.5405   22.8603 N   0  0  0  0  0  0  0  0  0  0  0  0
    8.9765  -14.7127   24.0994 C   0  0  1  0  0  0  0  0  0  0  0  0
    7.5615  -14.3001   24.2907 C   0  0  0  0  0  0  0  0  0  0  0  0
    7.2384  -13.4230   25.4035 C   0  0  0  0  0  0  0  0  0  0  0  0
    7.6093  -12.0967   25.4285 C   0  0  0  0  0  0  0  0  0  0  0  0
    7.3050  -11.2716   26.4928 C   0  0  0  0  0  0  0  0  0  0  0  0
    6.6124  -11.7538   27.5765 C   0  0  0  0  0  0  0  0  0  0  0  0
    6.2258  -13.0711   27.5868 C   0  0  0  0  0  0  0  0  0  0  0  0
    6.5340  -13.8812   26.5236 C   0  0  0  0  0  0  0  0  0  0  0  0
    9.6023  -15.5020   25.1565 C   0  0  0  0  0  0  0  0  0  0  0  0
    9.6066  -16.7634   25.1250 O   0  0  0  0  0  0  0  0  0  0  0  0
   10.2416  -14.8991   26.2647 N   0  0  0  0  0  0  0  0  0  0  0  0
   10.8475  -15.7586   27.2999 C   0  0  1  0  0  0  0  0  0  0  0  0
   11.1474  -14.8486   28.4862 C   0  0  0  0  0  0  0  0  0  0  0  0
   11.7578  -15.7800   29.8911 S   0  0  0  0  0  0  0  0  0  0  0  0
    9.9631  -16.8412   27.6981 C   0  0  0  0  0  0  0  0  0  0  0  0
   10.3979  -17.9829   27.9358 O   0  0  0  0  0  0  0  0  0  0  0  0
    8.6085  -16.5852   27.8125 O   0  0  0  0  0  0  0  0  0  0  0  0
  2  1  1  0
  3  2  2  0
  4  3  1  0
  5  4  2  0
  5 11  1  0
  6  5  1  0
  7  8  1  1
  7  6  1  0
  9  7  1  0
  9 10  2  0
 11 12  2  0
 12  2  1  0
 13  9  1  0
 14 13  1  0
 14 22  1  0
 14 15  1  1
 16 15  1  0
 16 17  2  0
 18 17  1  0
 19 18  2  0
 20 21  2  0
 20 19  1  0
 21 16  1  0
 22 23  2  0
 22 24  1  0
 24 25  1  0
 25 28  1  0
 26 27  1  0
 25 26  1  1
 28 29  2  0
 28 30  1  0
M  END
$$$$
