YFC.pdb
     RDKit          3D

 30 31  0  0  1  0  0  0  0  0999 V2000
    7.5727  -13.8931   14.3666 O   0  0  0  0  0  0  0  0  0  0  0  0
    8.2080  -14.0685   15.6005 C   0  0  0  0  0  0  0  0  0  0  0  0
    7.8638  -13.2901   16.6954 C   0  0  0  0  0  0  0  0  0  0  0  0
    8.4637  -13.4292   17.9294 C   0  0  0  0  0  0  0  0  0  0  0  0
    9.4512  -14.3746   18.1106 C   0  0  0  0  0  0  0  0  0  0  0  0
   10.1202  -14.5626   19.4018 C   0  0  0  0  0  0  0  0  0  0  0  0
    9.6453  -15.7743   20.1565 C   0  0  2  0  0  0  0  0  0  0  0  0
    8.2756  -16.1133   19.8601 N   0  0  0  0  0  0  0  0  0  0  0  0
    9.7235  -15.4540   21.6054 C   0  0  0  0  0  0  0  0  0  0  0  0
   10.8653  -15.2572   22.0981 O   0  0  0  0  0  0  0  0  0  0  0  0
    9.7936  -15.1489   17.0212 C   0  0  0  0  0  0  0  0  0  0  0  0
    9.1960  -15.0120   15.7882 C   0  0  0  0  0  0  0  0  0  0  0  0
    8.5737  -15.3668   22.4263 N   0  0  0  0  0  0  0  0  0  0  0  0
    8.6490  -14.8707   23.8325 C   0  0  1  0  0  0  0  0  0  0  0  0
    7.4559  -14.0266   24.1029 C   0  0  0  0  0  0  0  0  0  0  0  0
    7.3313  -13.3981   25.4073 C   0  0  0  0  0  0  0  0  0  0  0  0
    8.0793  -12.3002   25.7711 C   0  0  0  0  0  0  0  0  0  0  0  0
    7.9604  -11.7133   27.0151 C   0  0  0  0  0  0  0  0  0  0  0  0
    7.0794  -12.2125   27.9432 C   0  0  0  0  0  0  0  0  0  0  0  0
    6.3167  -13.3060   27.6160 C   0  0  0  0  0  0  0  0  0  0  0  0
    6.4437  -13.8807   26.3769 C   0  0  0  0  0  0  0  0  0  0  0  0
    8.8463  -16.0538   24.6652 C   0  0  0  0  0  0  0  0  0  0  0  0
    8.0222  -17.0094   24.6616 O   0  0  0  0  0  0  0  0  0  0  0  0
    9.9702  -16.1967   25.5118 N   0  0  0  0  0  0  0  0  0  0  0  0
   10.0665  -17.3828   26.3844 C   0  0  1  0  0  0  0  0  0  0  0  0
   11.3317  -18.1210   25.9606 C   0  0  0  0  0  0  0  0  0  0  0  0
   11.3223  -18.4869   24.2056 S   0  0  0  0  0  0  0  0  0  0  0  0
   10.1329  -17.0227   27.7910 C   0  0  0  0  0  0  0  0  0  0  0  0
   10.1595  -15.8338   28.1580 O   0  0  0  0  0  0  0  0  0  0  0  0
   10.1668  -18.0332   28.7352 O   0  0  0  0  0  0  0  0  0  0  0  0
  2  1  1  0
  3  2  2  0
  4  3  1  0
  5  4  2  0
  5 11  1  0
  6  5  1  0
  7  8  1  6
  7  6  1  0
  9  7  1  0
  9 10  2  0
 11 12  2  0
 12  2  1  0
 13  9  1  0
 14 13  1  0
 14 22  1  0
 14 15  1  1
 16 15  1  0
 16 17  2  0
 18 17  1  0
 19 18  2  0
 20 21  2  0
 20 19  1  0
 21 16  1  0
 22 23  2  0
 22 24  1  0
 24 25  1  0
 25 28  1  0
 26 27  1  0
 25 26  1  6
 28 29  2  0
 28 30  1  0
M  END
$$$$
