YFC.pdb
     RDKit          3D

 30 31  0  0  1  0  0  0  0  0999 V2000
    7.7056  -13.9459   15.2530 O   0  0  0  0  0  0  0  0  0  0  0  0
    7.9343  -14.0050   16.6318 C   0  0  0  0  0  0  0  0  0  0  0  0
    7.7029  -12.9019   17.4397 C   0  0  0  0  0  0  0  0  0  0  0  0
    7.9147  -12.9160   18.8023 C   0  0  0  0  0  0  0  0  0  0  0  0
    8.3760  -14.0626   19.4141 C   0  0  0  0  0  0  0  0  0  0  0  0
    8.6174  -14.1299   20.8588 C   0  0  0  0  0  0  0  0  0  0  0  0
    8.8700  -15.5244   21.3638 C   0  0  2  0  0  0  0  0  0  0  0  0
    7.7677  -16.4176   21.1073 N   0  0  0  0  0  0  0  0  0  0  0  0
    9.0432  -15.4388   22.8372 C   0  0  0  0  0  0  0  0  0  0  0  0
   10.0076  -14.7562   23.2721 O   0  0  0  0  0  0  0  0  0  0  0  0
    8.6062  -15.1600   18.6102 C   0  0  0  0  0  0  0  0  0  0  0  0
    8.3955  -15.1484   17.2494 C   0  0  0  0  0  0  0  0  0  0  0  0
    8.1718  -16.0901   23.7426 N   0  0  0  0  0  0  0  0  0  0  0  0
    8.3676  -16.0039   25.2202 C   0  0  1  0  0  0  0  0  0  0  0  0
    7.1187  -15.4833   25.8353 C   0  0  0  0  0  0  0  0  0  0  0  0
    7.0736  -14.0885   26.2409 C   0  0  0  0  0  0  0  0  0  0  0  0
    6.1052  -13.2201   25.7879 C   0  0  0  0  0  0  0  0  0  0  0  0
    6.0734  -11.8943   26.1720 C   0  0  0  0  0  0  0  0  0  0  0  0
    7.0201  -11.3917   27.0310 C   0  0  0  0  0  0  0  0  0  0  0  0
    8.0010  -12.2279   27.5036 C   0  0  0  0  0  0  0  0  0  0  0  0
    8.0222  -13.5432   27.1147 C   0  0  0  0  0  0  0  0  0  0  0  0
    8.8330  -17.3224   25.6407 C   0  0  0  0  0  0  0  0  0  0  0  0
    8.2212  -18.3756   25.3106 O   0  0  0  0  0  0  0  0  0  0  0  0
    9.9937  -17.4918   26.4309 N   0  0  0  0  0  0  0  0  0  0  0  0
   10.3995  -18.8534   26.8294 C   0  0  1  0  0  0  0  0  0  0  0  0
   11.5987  -19.2118   25.9584 C   0  0  0  0  0  0  0  0  0  0  0  0
   12.8100  -17.8903   25.9320 S   0  0  0  0  0  0  0  0  0  0  0  0
   10.7511  -18.9290   28.2377 C   0  0  0  0  0  0  0  0  0  0  0  0
   10.7844  -17.9129   28.9557 O   0  0  0  0  0  0  0  0  0  0  0  0
   11.0538  -20.1641   28.7821 O   0  0  0  0  0  0  0  0  0  0  0  0
  2  1  1  0
  3  2  2  0
  4  3  1  0
  5  4  2  0
  5 11  1  0
  6  5  1  0
  7  8  1  1
  7  6  1  0
  9  7  1  0
  9 10  2  0
 11 12  2  0
 12  2  1  0
 13  9  1  0
 14 13  1  0
 14 22  1  0
 14 15  1  1
 16 15  1  0
 16 17  2  0
 18 17  1  0
 19 18  2  0
 20 21  2  0
 20 19  1  0
 21 16  1  0
 22 23  2  0
 22 24  1  0
 24 25  1  0
 25 28  1  0
 26 27  1  0
 25 26  1  6
 28 29  2  0
 28 30  1  0
M  END
$$$$
