YFC.pdb
     RDKit          3D

 30 31  0  0  1  0  0  0  0  0999 V2000
    9.3882  -22.6584   17.1064 O   0  0  0  0  0  0  0  0  0  0  0  0
    9.3833  -21.4775   17.8563 C   0  0  0  0  0  0  0  0  0  0  0  0
    8.3495  -20.5611   17.7343 C   0  0  0  0  0  0  0  0  0  0  0  0
    8.3044  -19.3853   18.4535 C   0  0  0  0  0  0  0  0  0  0  0  0
    9.3173  -19.0822   19.3389 C   0  0  0  0  0  0  0  0  0  0  0  0
    9.3169  -17.8459   20.1273 C   0  0  0  0  0  0  0  0  0  0  0  0
    9.6080  -18.0616   21.5875 C   0  0  2  0  0  0  0  0  0  0  0  0
    8.5973  -18.8513   22.2459 N   0  0  0  0  0  0  0  0  0  0  0  0
    9.6271  -16.7260   22.2387 C   0  0  0  0  0  0  0  0  0  0  0  0
   10.3978  -15.8541   21.7581 O   0  0  0  0  0  0  0  0  0  0  0  0
   10.3457  -19.9940   19.4602 C   0  0  0  0  0  0  0  0  0  0  0  0
   10.3929  -21.1687   18.7432 C   0  0  0  0  0  0  0  0  0  0  0  0
    8.8195  -16.4167   23.3592 N   0  0  0  0  0  0  0  0  0  0  0  0
    8.8432  -15.0660   23.9950 C   0  0  1  0  0  0  0  0  0  0  0  0
    7.4425  -14.6164   24.2074 C   0  0  0  0  0  0  0  0  0  0  0  0
    7.2093  -13.4260   25.0078 C   0  0  0  0  0  0  0  0  0  0  0  0
    6.3974  -13.4332   26.1205 C   0  0  0  0  0  0  0  0  0  0  0  0
    6.1750  -12.2964   26.8716 C   0  0  0  0  0  0  0  0  0  0  0  0
    6.7650  -11.1043   26.5285 C   0  0  0  0  0  0  0  0  0  0  0  0
    7.5812  -11.0588   25.4255 C   0  0  0  0  0  0  0  0  0  0  0  0
    7.7945  -12.1950   24.6870 C   0  0  0  0  0  0  0  0  0  0  0  0
    9.7017  -15.1905   25.1695 C   0  0  0  0  0  0  0  0  0  0  0  0
   10.1716  -14.1764   25.7552 O   0  0  0  0  0  0  0  0  0  0  0  0
   10.0462  -16.4482   25.7173 N   0  0  0  0  0  0  0  0  0  0  0  0
   10.9453  -16.5010   26.8861 C   0  0  1  0  0  0  0  0  0  0  0  0
   10.2141  -15.7869   28.0178 C   0  0  0  0  0  0  0  0  0  0  0  0
   11.1659  -15.8164   29.5368 S   0  0  0  0  0  0  0  0  0  0  0  0
   11.2664  -17.8663   27.2677 C   0  0  0  0  0  0  0  0  0  0  0  0
   10.6850  -18.8395   26.7541 O   0  0  0  0  0  0  0  0  0  0  0  0
   12.2426  -18.0771   28.2248 O   0  0  0  0  0  0  0  0  0  0  0  0
  2  1  1  0
  3  2  2  0
  4  3  1  0
  5  4  2  0
  5 11  1  0
  6  5  1  0
  7  8  1  1
  7  6  1  0
  9  7  1  0
  9 10  2  0
 11 12  2  0
 12  2  1  0
 13  9  1  0
 14 13  1  0
 14 22  1  0
 14 15  1  1
 16 15  1  0
 16 17  2  0
 18 17  1  0
 19 18  2  0
 20 21  2  0
 20 19  1  0
 21 16  1  0
 22 23  2  0
 22 24  1  0
 24 25  1  0
 25 28  1  0
 26 27  1  0
 25 26  1  1
 28 29  2  0
 28 30  1  0
M  END
$$$$
