YFC.pdb
     RDKit          3D

 30 31  0  0  1  0  0  0  0  0999 V2000
   10.7670  -19.2370   14.7697 O   0  0  0  0  0  0  0  0  0  0  0  0
   10.4738  -18.4809   15.9096 C   0  0  0  0  0  0  0  0  0  0  0  0
   11.3557  -17.5141   16.3687 C   0  0  0  0  0  0  0  0  0  0  0  0
   11.1071  -16.7465   17.4871 C   0  0  0  0  0  0  0  0  0  0  0  0
    9.9396  -16.9268   18.1985 C   0  0  0  0  0  0  0  0  0  0  0  0
    9.6274  -16.1371   19.3939 C   0  0  0  0  0  0  0  0  0  0  0  0
   10.4633  -16.4992   20.5912 C   0  0  2  0  0  0  0  0  0  0  0  0
   10.2438  -17.8535   21.0343 N   0  0  0  0  0  0  0  0  0  0  0  0
   10.0648  -15.5950   21.7011 C   0  0  0  0  0  0  0  0  0  0  0  0
    9.8519  -14.3863   21.4204 O   0  0  0  0  0  0  0  0  0  0  0  0
    9.0622  -17.8887   17.7416 C   0  0  0  0  0  0  0  0  0  0  0  0
    9.3083  -18.6564   16.6252 C   0  0  0  0  0  0  0  0  0  0  0  0
    9.9219  -16.0479   23.0345 N   0  0  0  0  0  0  0  0  0  0  0  0
    9.5535  -15.1190   24.1438 C   0  0  1  0  0  0  0  0  0  0  0  0
    8.2068  -14.5557   23.8643 C   0  0  0  0  0  0  0  0  0  0  0  0
    7.5630  -13.7535   24.8910 C   0  0  0  0  0  0  0  0  0  0  0  0
    6.6520  -14.2839   25.7775 C   0  0  0  0  0  0  0  0  0  0  0  0
    6.0391  -13.5136   26.7456 C   0  0  0  0  0  0  0  0  0  0  0  0
    6.3225  -12.1742   26.8574 C   0  0  0  0  0  0  0  0  0  0  0  0
    7.2260  -11.6105   25.9910 C   0  0  0  0  0  0  0  0  0  0  0  0
    7.8285  -12.3860   25.0332 C   0  0  0  0  0  0  0  0  0  0  0  0
    9.7286  -15.8791   25.3781 C   0  0  0  0  0  0  0  0  0  0  0  0
    9.4743  -17.1137   25.4358 O   0  0  0  0  0  0  0  0  0  0  0  0
   10.1978  -15.2782   26.5694 N   0  0  0  0  0  0  0  0  0  0  0  0
   10.8974  -16.1105   27.5670 C   0  0  1  0  0  0  0  0  0  0  0  0
   11.3784  -15.1562   28.6548 C   0  0  0  0  0  0  0  0  0  0  0  0
   10.4525  -13.6211   28.6387 S   0  0  0  0  0  0  0  0  0  0  0  0
   10.0308  -17.1320   28.1312 C   0  0  0  0  0  0  0  0  0  0  0  0
    8.8197  -17.1862   27.8497 O   0  0  0  0  0  0  0  0  0  0  0  0
   10.5755  -18.0604   29.0000 O   0  0  0  0  0  0  0  0  0  0  0  0
  2  1  1  0
  3  2  2  0
  4  3  1  0
  5  4  2  0
  5 11  1  0
  6  5  1  0
  7  8  1  1
  7  6  1  0
  9  7  1  0
  9 10  2  0
 11 12  2  0
 12  2  1  0
 13  9  1  0
 14 13  1  0
 14 22  1  0
 14 15  1  6
 16 15  1  0
 16 17  2  0
 18 17  1  0
 19 18  2  0
 20 21  2  0
 20 19  1  0
 21 16  1  0
 22 23  2  0
 22 24  1  0
 24 25  1  0
 25 28  1  0
 26 27  1  0
 25 26  1  1
 28 29  2  0
 28 30  1  0
M  END
$$$$
