YFC.pdb
     RDKit          3D

 30 31  0  0  1  0  0  0  0  0999 V2000
   10.2426  -21.2302   31.9918 O   0  0  0  0  0  0  0  0  0  0  0  0
   10.0475  -20.6162   30.7501 C   0  0  0  0  0  0  0  0  0  0  0  0
    8.7994  -20.1376   30.3809 C   0  0  0  0  0  0  0  0  0  0  0  0
    8.5625  -19.5262   29.1677 C   0  0  0  0  0  0  0  0  0  0  0  0
    9.5923  -19.3708   28.2639 C   0  0  0  0  0  0  0  0  0  0  0  0
    9.3933  -18.7280   26.9611 C   0  0  0  0  0  0  0  0  0  0  0  0
    8.2460  -19.3012   26.1747 C   0  0  2  0  0  0  0  0  0  0  0  0
    8.4162  -20.7028   25.8829 N   0  0  0  0  0  0  0  0  0  0  0  0
    8.1907  -18.5775   24.8780 C   0  0  0  0  0  0  0  0  0  0  0  0
    8.5472  -19.2035   23.8454 O   0  0  0  0  0  0  0  0  0  0  0  0
   10.8341  -19.8470   28.6313 C   0  0  0  0  0  0  0  0  0  0  0  0
   11.0731  -20.4578   29.8421 C   0  0  0  0  0  0  0  0  0  0  0  0
    7.7575  -17.2338   24.7770 N   0  0  0  0  0  0  0  0  0  0  0  0
    7.9679  -16.4325   23.5349 C   0  0  1  0  0  0  0  0  0  0  0  0
    7.1057  -15.2234   23.5978 C   0  0  0  0  0  0  0  0  0  0  0  0
    7.1214  -14.3004   22.4754 C   0  0  0  0  0  0  0  0  0  0  0  0
    7.5582  -12.9998   22.5965 C   0  0  0  0  0  0  0  0  0  0  0  0
    7.5630  -12.1267   21.5270 C   0  0  0  0  0  0  0  0  0  0  0  0
    7.1264  -12.5332   20.2897 C   0  0  0  0  0  0  0  0  0  0  0  0
    6.6839  -13.8230   20.1308 C   0  0  0  0  0  0  0  0  0  0  0  0
    6.6836  -14.6813   21.2009 C   0  0  0  0  0  0  0  0  0  0  0  0
    9.4102  -16.2329   23.4260 C   0  0  0  0  0  0  0  0  0  0  0  0
   10.0540  -15.5780   24.2914 O   0  0  0  0  0  0  0  0  0  0  0  0
   10.1628  -16.7663   22.3538 N   0  0  0  0  0  0  0  0  0  0  0  0
   11.5336  -16.2716   22.1218 C   0  0  1  0  0  0  0  0  0  0  0  0
   12.3607  -16.7347   23.3162 C   0  0  0  0  0  0  0  0  0  0  0  0
   11.9832  -18.4305   23.7590 S   0  0  0  0  0  0  0  0  0  0  0  0
   12.0966  -16.7818   20.8827 C   0  0  0  0  0  0  0  0  0  0  0  0
   13.2443  -16.4729   20.5134 O   0  0  0  0  0  0  0  0  0  0  0  0
   11.3301  -17.6298   20.1036 O   0  0  0  0  0  0  0  0  0  0  0  0
  2  1  1  0
  3  2  2  0
  4  3  1  0
  5  4  2  0
  5 11  1  0
  6  5  1  0
  7  8  1  6
  7  6  1  0
  9  7  1  0
  9 10  2  0
 11 12  2  0
 12  2  1  0
 13  9  1  0
 14 13  1  0
 14 22  1  0
 14 15  1  1
 16 15  1  0
 16 17  2  0
 18 17  1  0
 19 18  2  0
 20 21  2  0
 20 19  1  0
 21 16  1  0
 22 23  2  0
 22 24  1  0
 24 25  1  0
 25 28  1  0
 26 27  1  0
 25 26  1  1
 28 29  2  0
 28 30  1  0
M  END
$$$$
