YFC.pdb
     RDKit          3D

 30 31  0  0  1  0  0  0  0  0999 V2000
    5.6512  -22.1276   17.8234 O   0  0  0  0  0  0  0  0  0  0  0  0
    6.3807  -21.2737   18.6573 C   0  0  0  0  0  0  0  0  0  0  0  0
    6.5758  -21.5809   19.9955 C   0  0  0  0  0  0  0  0  0  0  0  0
    7.2877  -20.7684   20.8527 C   0  0  0  0  0  0  0  0  0  0  0  0
    7.8402  -19.5942   20.3862 C   0  0  0  0  0  0  0  0  0  0  0  0
    8.6057  -18.6956   21.2560 C   0  0  0  0  0  0  0  0  0  0  0  0
    8.6714  -17.2796   20.7520 C   0  0  2  0  0  0  0  0  0  0  0  0
    9.7164  -17.0831   19.7783 N   0  0  0  0  0  0  0  0  0  0  0  0
    8.9748  -16.4073   21.9162 C   0  0  0  0  0  0  0  0  0  0  0  0
   10.1835  -16.2640   22.2379 O   0  0  0  0  0  0  0  0  0  0  0  0
    7.6461  -19.2886   19.0548 C   0  0  0  0  0  0  0  0  0  0  0  0
    6.9357  -20.0983   18.1969 C   0  0  0  0  0  0  0  0  0  0  0  0
    7.9627  -15.7491   22.6550 N   0  0  0  0  0  0  0  0  0  0  0  0
    8.2831  -14.8973   23.8387 C   0  0  1  0  0  0  0  0  0  0  0  0
    7.1902  -13.9065   24.0207 C   0  0  0  0  0  0  0  0  0  0  0  0
    7.1531  -13.1318   25.2497 C   0  0  0  0  0  0  0  0  0  0  0  0
    6.2100  -13.3488   26.2298 C   0  0  0  0  0  0  0  0  0  0  0  0
    6.1768  -12.6035   27.3915 C   0  0  0  0  0  0  0  0  0  0  0  0
    7.0968  -11.6074   27.6104 C   0  0  0  0  0  0  0  0  0  0  0  0
    8.0524  -11.3624   26.6557 C   0  0  0  0  0  0  0  0  0  0  0  0
    8.0752  -12.1094   25.5054 C   0  0  0  0  0  0  0  0  0  0  0  0
    8.5515  -15.8214   24.9369 C   0  0  0  0  0  0  0  0  0  0  0  0
    7.7311  -16.7259   25.2550 O   0  0  0  0  0  0  0  0  0  0  0  0
    9.7431  -15.7589   25.6961 N   0  0  0  0  0  0  0  0  0  0  0  0
    9.9498  -16.7270   26.7904 C   0  0  1  0  0  0  0  0  0  0  0  0
   11.1910  -17.5308   26.4184 C   0  0  0  0  0  0  0  0  0  0  0  0
   12.5332  -16.4631   25.8964 S   0  0  0  0  0  0  0  0  0  0  0  0
   10.1330  -16.0702   28.0740 C   0  0  0  0  0  0  0  0  0  0  0  0
   10.1104  -14.8304   28.1800 O   0  0  0  0  0  0  0  0  0  0  0  0
   10.3365  -16.8512   29.1975 O   0  0  0  0  0  0  0  0  0  0  0  0
  2  1  1  0
  3  2  2  0
  4  3  1  0
  5  4  2  0
  5 11  1  0
  6  5  1  0
  7  8  1  6
  7  6  1  0
  9  7  1  0
  9 10  2  0
 11 12  2  0
 12  2  1  0
 13  9  1  0
 14 13  1  0
 14 22  1  0
 14 15  1  1
 16 15  1  0
 16 17  2  0
 18 17  1  0
 19 18  2  0
 20 21  2  0
 20 19  1  0
 21 16  1  0
 22 23  2  0
 22 24  1  0
 24 25  1  0
 25 28  1  0
 26 27  1  0
 25 26  1  6
 28 29  2  0
 28 30  1  0
M  END
$$$$
