WFF.pdb
     RDKit          3D

 37 40  0  0  1  0  0  0  0  0999 V2000
    9.3532  -18.5274   19.4689 N   0  0  0  0  0  0  0  0  0  0  0  0
   10.6082  -18.0735   20.0122 C   0  0  1  0  0  0  0  0  0  0  0  0
   11.5333  -17.4799   18.9502 C   0  0  0  0  0  0  0  0  0  0  0  0
   11.6864  -18.4726   17.8598 C   0  0  0  0  0  0  0  0  0  0  0  0
   12.4245  -18.2953   16.6801 C   0  0  0  0  0  0  0  0  0  0  0  0
   12.3003  -19.3915   15.9279 N   0  0  0  0  0  0  0  0  0  0  0  0
   11.5178  -20.3124   16.5265 C   0  0  0  0  0  0  0  0  0  0  0  0
   11.1051  -21.5782   16.1630 C   0  0  0  0  0  0  0  0  0  0  0  0
   10.2970  -22.2794   17.0239 C   0  0  0  0  0  0  0  0  0  0  0  0
    9.9060  -21.7338   18.2240 C   0  0  0  0  0  0  0  0  0  0  0  0
   10.3234  -20.4649   18.5811 C   0  0  0  0  0  0  0  0  0  0  0  0
   11.1363  -19.7303   17.7383 C   0  0  0  0  0  0  0  0  0  0  0  0
   10.4663  -17.0462   21.0627 C   0  0  0  0  0  0  0  0  0  0  0  0
   11.4401  -16.3384   21.3744 O   0  0  0  0  0  0  0  0  0  0  0  0
    9.2273  -16.8772   21.7004 N   0  0  0  0  0  0  0  0  0  0  0  0
    9.1337  -15.9641   22.8525 C   0  0  1  0  0  0  0  0  0  0  0  0
    7.6912  -15.6001   22.9730 C   0  0  0  0  0  0  0  0  0  0  0  0
    7.3069  -14.7621   24.1177 C   0  0  0  0  0  0  0  0  0  0  0  0
    6.7338  -15.2770   25.2536 C   0  0  0  0  0  0  0  0  0  0  0  0
    6.3783  -14.4450   26.2946 C   0  0  0  0  0  0  0  0  0  0  0  0
    6.5736  -13.0937   26.2518 C   0  0  0  0  0  0  0  0  0  0  0  0
    7.1443  -12.5674   25.1257 C   0  0  0  0  0  0  0  0  0  0  0  0
    7.4983  -13.3836   24.0924 C   0  0  0  0  0  0  0  0  0  0  0  0
    9.6898  -16.6682   24.0128 C   0  0  0  0  0  0  0  0  0  0  0  0
    9.4689  -17.9340   24.0885 O   0  0  0  0  0  0  0  0  0  0  0  0
   10.4555  -16.1186   25.0683 N   0  0  0  0  0  0  0  0  0  0  0  0
   11.0354  -17.0078   26.0810 C   0  0  1  0  0  0  0  0  0  0  0  0
   12.0345  -16.1857   26.8948 C   0  0  0  0  0  0  0  0  0  0  0  0
   11.4014  -15.0771   27.6131 C   0  0  0  0  0  0  0  0  0  0  0  0
   11.2350  -15.1072   28.9790 C   0  0  0  0  0  0  0  0  0  0  0  0
   10.6358  -14.0236   29.5954 C   0  0  0  0  0  0  0  0  0  0  0  0
   10.1981  -12.9146   28.8985 C   0  0  0  0  0  0  0  0  0  0  0  0
   10.3625  -12.8774   27.5201 C   0  0  0  0  0  0  0  0  0  0  0  0
   10.9604  -13.9609   26.9136 C   0  0  0  0  0  0  0  0  0  0  0  0
    9.9731  -17.5140   26.9402 C   0  0  0  0  0  0  0  0  0  0  0  0
    8.8052  -17.0862   26.8029 O   0  0  0  0  0  0  0  0  0  0  0  0
   10.2216  -18.4555   27.9023 O   0  0  0  0  0  0  0  0  0  0  0  0
  2  1  1  6
  3  2  1  0
  4  5  2  0
  4  3  1  0
  6  5  1  0
  7 12  2  0
  7  6  1  0
  8  7  1  0
  9 10  1  0
  9  8  2  0
 10 11  2  0
 11 12  1  0
 12  4  1  0
 13  2  1  0
 14 13  2  0
 15 13  1  0
 16 24  1  0
 16 15  1  0
 16 17  1  1
 18 17  1  0
 19 18  2  0
 20 19  1  0
 21 20  2  0
 21 22  1  0
 22 23  2  0
 23 18  1  0
 24 26  1  0
 25 24  2  0
 26 27  1  0
 27 28  1  1
 28 29  1  0
 29 30  2  0
 29 34  1  0
 30 31  1  0
 31 32  2  0
 33 32  1  0
 34 33  2  0
 35 37  1  0
 35 27  1  0
 36 35  2  0
M  END
$$$$
