WFF.pdb
     RDKit          3D

 37 40  0  0  1  0  0  0  0  0999 V2000
    9.7715  -18.4310   18.4392 N   0  0  0  0  0  0  0  0  0  0  0  0
    9.3309  -18.5563   19.8054 C   0  0  1  0  0  0  0  0  0  0  0  0
   10.1456  -19.5771   20.5993 C   0  0  0  0  0  0  0  0  0  0  0  0
    9.9915  -20.9009   19.9500 C   0  0  0  0  0  0  0  0  0  0  0  0
   10.7992  -21.4166   18.9256 C   0  0  0  0  0  0  0  0  0  0  0  0
   10.3337  -22.6182   18.5763 N   0  0  0  0  0  0  0  0  0  0  0  0
    9.2506  -22.9567   19.3051 C   0  0  0  0  0  0  0  0  0  0  0  0
    8.4375  -24.0717   19.3230 C   0  0  0  0  0  0  0  0  0  0  0  0
    7.3953  -24.1118   20.2164 C   0  0  0  0  0  0  0  0  0  0  0  0
    7.1648  -23.0640   21.0765 C   0  0  0  0  0  0  0  0  0  0  0  0
    7.9837  -21.9502   21.0524 C   0  0  0  0  0  0  0  0  0  0  0  0
    9.0413  -21.8756   20.1655 C   0  0  0  0  0  0  0  0  0  0  0  0
    9.3876  -17.2937   20.5681 C   0  0  0  0  0  0  0  0  0  0  0  0
   10.3013  -16.4785   20.3521 O   0  0  0  0  0  0  0  0  0  0  0  0
    8.4037  -17.0248   21.5326 N   0  0  0  0  0  0  0  0  0  0  0  0
    8.4835  -15.7745   22.3074 C   0  0  1  0  0  0  0  0  0  0  0  0
    7.1998  -15.6757   23.0625 C   0  0  0  0  0  0  0  0  0  0  0  0
    7.0448  -14.5298   23.9697 C   0  0  0  0  0  0  0  0  0  0  0  0
    6.5325  -14.6523   25.2372 C   0  0  0  0  0  0  0  0  0  0  0  0
    6.3943  -13.5424   26.0442 C   0  0  0  0  0  0  0  0  0  0  0  0
    6.7525  -12.2895   25.6344 C   0  0  0  0  0  0  0  0  0  0  0  0
    7.2649  -12.1533   24.3735 C   0  0  0  0  0  0  0  0  0  0  0  0
    7.4044  -13.2459   23.5698 C   0  0  0  0  0  0  0  0  0  0  0  0
    9.6851  -15.8567   23.1445 C   0  0  0  0  0  0  0  0  0  0  0  0
   10.5892  -14.9598   22.9575 O   0  0  0  0  0  0  0  0  0  0  0  0
    9.9708  -16.8102   24.1503 N   0  0  0  0  0  0  0  0  0  0  0  0
   10.4599  -16.3587   25.4578 C   0  0  1  0  0  0  0  0  0  0  0  0
    9.2505  -15.8747   26.2573 C   0  0  0  0  0  0  0  0  0  0  0  0
    9.6211  -15.3164   27.5598 C   0  0  0  0  0  0  0  0  0  0  0  0
    9.9357  -16.1274   28.6264 C   0  0  0  0  0  0  0  0  0  0  0  0
   10.2840  -15.5346   29.8266 C   0  0  0  0  0  0  0  0  0  0  0  0
   10.3291  -14.1653   29.9991 C   0  0  0  0  0  0  0  0  0  0  0  0
   10.0127  -13.3407   28.9274 C   0  0  0  0  0  0  0  0  0  0  0  0
    9.6667  -13.9391   27.7351 C   0  0  0  0  0  0  0  0  0  0  0  0
   11.1078  -17.4722   26.1385 C   0  0  0  0  0  0  0  0  0  0  0  0
   11.8253  -17.2557   27.1408 O   0  0  0  0  0  0  0  0  0  0  0  0
   10.9496  -18.7615   25.7070 O   0  0  0  0  0  0  0  0  0  0  0  0
  2  1  1  6
  3  2  1  0
  4  5  2  0
  4  3  1  0
  6  5  1  0
  7 12  2  0
  7  6  1  0
  8  7  1  0
  9 10  1  0
  9  8  2  0
 10 11  2  0
 11 12  1  0
 12  4  1  0
 13  2  1  0
 14 13  2  0
 15 13  1  0
 16 24  1  0
 16 15  1  0
 16 17  1  1
 18 17  1  0
 19 18  2  0
 20 19  1  0
 21 20  2  0
 21 22  1  0
 22 23  2  0
 23 18  1  0
 24 26  1  0
 25 24  2  0
 26 27  1  0
 27 28  1  1
 28 29  1  0
 29 30  2  0
 29 34  1  0
 30 31  1  0
 31 32  2  0
 33 32  1  0
 34 33  2  0
 35 37  1  0
 35 27  1  0
 36 35  2  0
M  END
$$$$
