WFF.pdb
     RDKit          3D

 37 40  0  0  1  0  0  0  0  0999 V2000
    6.4674  -21.1382   25.4048 N   0  0  0  0  0  0  0  0  0  0  0  0
    7.1095  -19.8515   25.4976 C   0  0  1  0  0  0  0  0  0  0  0  0
    8.5316  -19.9379   26.0511 C   0  0  0  0  0  0  0  0  0  0  0  0
    8.5848  -19.1691   27.3176 C   0  0  0  0  0  0  0  0  0  0  0  0
    8.0334  -19.5631   28.5458 C   0  0  0  0  0  0  0  0  0  0  0  0
    8.2534  -18.5995   29.4435 N   0  0  0  0  0  0  0  0  0  0  0  0
    8.9265  -17.5652   28.8993 C   0  0  0  0  0  0  0  0  0  0  0  0
    9.3846  -16.3668   29.4079 C   0  0  0  0  0  0  0  0  0  0  0  0
   10.0622  -15.5134   28.5722 C   0  0  0  0  0  0  0  0  0  0  0  0
   10.2810  -15.8439   27.2555 C   0  0  0  0  0  0  0  0  0  0  0  0
    9.8187  -17.0463   26.7532 C   0  0  0  0  0  0  0  0  0  0  0  0
    9.1319  -17.9288   27.5657 C   0  0  0  0  0  0  0  0  0  0  0  0
    7.2065  -19.1393   24.2083 C   0  0  0  0  0  0  0  0  0  0  0  0
    7.8601  -19.6343   23.2734 O   0  0  0  0  0  0  0  0  0  0  0  0
    6.5554  -17.9059   24.0501 N   0  0  0  0  0  0  0  0  0  0  0  0
    7.2124  -16.8447   23.2677 C   0  0  1  0  0  0  0  0  0  0  0  0
    6.1349  -16.2032   22.4582 C   0  0  0  0  0  0  0  0  0  0  0  0
    6.5470  -15.1741   21.4932 C   0  0  0  0  0  0  0  0  0  0  0  0
    7.1205  -15.4794   20.2841 C   0  0  0  0  0  0  0  0  0  0  0  0
    7.5029  -14.4749   19.4197 C   0  0  0  0  0  0  0  0  0  0  0  0
    7.3345  -13.1516   19.7141 C   0  0  0  0  0  0  0  0  0  0  0  0
    6.7636  -12.8335   20.9156 C   0  0  0  0  0  0  0  0  0  0  0  0
    6.3832  -13.8210   21.7755 C   0  0  0  0  0  0  0  0  0  0  0  0
    7.8811  -15.9518   24.2199 C   0  0  0  0  0  0  0  0  0  0  0  0
    7.1550  -15.0516   24.7850 O   0  0  0  0  0  0  0  0  0  0  0  0
    9.2434  -15.9652   24.6027 N   0  0  0  0  0  0  0  0  0  0  0  0
   10.1550  -14.9462   24.0703 C   0  0  1  0  0  0  0  0  0  0  0  0
   10.2471  -13.8270   25.1072 C   0  0  0  0  0  0  0  0  0  0  0  0
    8.9396  -13.2573   25.4412 C   0  0  0  0  0  0  0  0  0  0  0  0
    8.2045  -13.7214   26.5082 C   0  0  0  0  0  0  0  0  0  0  0  0
    6.9805  -13.1338   26.7724 C   0  0  0  0  0  0  0  0  0  0  0  0
    6.4661  -12.1028   26.0113 C   0  0  0  0  0  0  0  0  0  0  0  0
    7.2021  -11.6295   24.9330 C   0  0  0  0  0  0  0  0  0  0  0  0
    8.4206  -12.2202   24.6765 C   0  0  0  0  0  0  0  0  0  0  0  0
   11.4653  -15.5434   23.8480 C   0  0  0  0  0  0  0  0  0  0  0  0
   11.6996  -16.7008   24.2622 O   0  0  0  0  0  0  0  0  0  0  0  0
   12.4558  -14.8654   23.1902 O   0  0  0  0  0  0  0  0  0  0  0  0
  2  1  1  6
  3  2  1  0
  4  5  2  0
  4  3  1  0
  6  5  1  0
  7 12  2  0
  7  6  1  0
  8  7  1  0
  9 10  1  0
  9  8  2  0
 10 11  2  0
 11 12  1  0
 12  4  1  0
 13  2  1  0
 14 13  2  0
 15 13  1  0
 16 24  1  0
 16 15  1  0
 16 17  1  1
 18 17  1  0
 19 18  2  0
 20 19  1  0
 21 20  2  0
 21 22  1  0
 22 23  2  0
 23 18  1  0
 24 26  1  0
 25 24  2  0
 26 27  1  0
 27 28  1  1
 28 29  1  0
 29 30  2  0
 29 34  1  0
 30 31  1  0
 31 32  2  0
 33 32  1  0
 34 33  2  0
 35 37  1  0
 35 27  1  0
 36 35  2  0
M  END
$$$$
