WFF.pdb
     RDKit          3D

 37 40  0  0  1  0  0  0  0  0999 V2000
    6.3644  -20.0082   21.3302 N   0  0  0  0  0  0  0  0  0  0  0  0
    6.1372  -18.6739   21.8244 C   0  0  1  0  0  0  0  0  0  0  0  0
    5.2525  -18.6464   23.0705 C   0  0  0  0  0  0  0  0  0  0  0  0
    4.0592  -19.4872   22.8119 C   0  0  0  0  0  0  0  0  0  0  0  0
    3.6056  -20.5450   23.6138 C   0  0  0  0  0  0  0  0  0  0  0  0
    2.5251  -21.0830   23.0430 N   0  0  0  0  0  0  0  0  0  0  0  0
    2.2112  -20.4524   21.8930 C   0  0  0  0  0  0  0  0  0  0  0  0
    1.2033  -20.6278   20.9666 C   0  0  0  0  0  0  0  0  0  0  0  0
    1.1551  -19.7894   19.8800 C   0  0  0  0  0  0  0  0  0  0  0  0
    2.0904  -18.7948   19.7163 C   0  0  0  0  0  0  0  0  0  0  0  0
    3.0973  -18.6255   20.6486 C   0  0  0  0  0  0  0  0  0  0  0  0
    3.1769  -19.4519   21.7538 C   0  0  0  0  0  0  0  0  0  0  0  0
    7.3745  -17.9495   22.1756 C   0  0  0  0  0  0  0  0  0  0  0  0
    8.4821  -18.4713   21.9585 O   0  0  0  0  0  0  0  0  0  0  0  0
    7.2871  -16.6727   22.7522 N   0  0  0  0  0  0  0  0  0  0  0  0
    8.5153  -15.8762   22.9174 C   0  0  1  0  0  0  0  0  0  0  0  0
    8.1137  -14.4534   22.7121 C   0  0  0  0  0  0  0  0  0  0  0  0
    8.0994  -13.9561   21.3291 C   0  0  0  0  0  0  0  0  0  0  0  0
    8.6145  -14.6735   20.2784 C   0  0  0  0  0  0  0  0  0  0  0  0
    8.5894  -14.1551   19.0006 C   0  0  0  0  0  0  0  0  0  0  0  0
    8.0616  -12.9272   18.7184 C   0  0  0  0  0  0  0  0  0  0  0  0
    7.5444  -12.2018   19.7564 C   0  0  0  0  0  0  0  0  0  0  0  0
    7.5659  -12.7076   21.0224 C   0  0  0  0  0  0  0  0  0  0  0  0
    9.0544  -16.1777   24.2477 C   0  0  0  0  0  0  0  0  0  0  0  0
    8.2067  -16.4936   25.1634 O   0  0  0  0  0  0  0  0  0  0  0  0
   10.4114  -16.1705   24.6492 N   0  0  0  0  0  0  0  0  0  0  0  0
   10.7614  -16.5438   26.0242 C   0  0  1  0  0  0  0  0  0  0  0  0
    9.4915  -16.4307   26.8672 C   0  0  0  0  0  0  0  0  0  0  0  0
    9.1805  -15.0481   27.2375 C   0  0  0  0  0  0  0  0  0  0  0  0
   10.1115  -14.2414   27.8514 C   0  0  0  0  0  0  0  0  0  0  0  0
    9.7543  -12.9431   28.1676 C   0  0  0  0  0  0  0  0  0  0  0  0
    8.5046  -12.4234   27.8938 C   0  0  0  0  0  0  0  0  0  0  0  0
    7.5601  -13.2315   27.2747 C   0  0  0  0  0  0  0  0  0  0  0  0
    7.9237  -14.5238   26.9629 C   0  0  0  0  0  0  0  0  0  0  0  0
   11.2612  -17.9124   26.0376 C   0  0  0  0  0  0  0  0  0  0  0  0
   11.7316  -18.3924   27.0932 O   0  0  0  0  0  0  0  0  0  0  0  0
   11.2282  -18.6948   24.9149 O   0  0  0  0  0  0  0  0  0  0  0  0
  2  1  1  1
  3  2  1  0
  4  5  2  0
  4  3  1  0
  6  5  1  0
  7 12  2  0
  7  6  1  0
  8  7  1  0
  9 10  1  0
  9  8  2  0
 10 11  2  0
 11 12  1  0
 12  4  1  0
 13  2  1  0
 14 13  2  0
 15 13  1  0
 16 24  1  0
 16 15  1  0
 16 17  1  1
 18 17  1  0
 19 18  2  0
 20 19  1  0
 21 20  2  0
 21 22  1  0
 22 23  2  0
 23 18  1  0
 24 26  1  0
 25 24  2  0
 26 27  1  0
 27 28  1  1
 28 29  1  0
 29 30  2  0
 29 34  1  0
 30 31  1  0
 31 32  2  0
 33 32  1  0
 34 33  2  0
 35 37  1  0
 35 27  1  0
 36 35  2  0
M  END
$$$$
