WFF.pdb
     RDKit          3D

 37 40  0  0  1  0  0  0  0  0999 V2000
    7.2138  -21.3412   22.4863 N   0  0  0  0  0  0  0  0  0  0  0  0
    7.0236  -20.0918   23.1785 C   0  0  1  0  0  0  0  0  0  0  0  0
    7.7121  -20.0597   24.5427 C   0  0  0  0  0  0  0  0  0  0  0  0
    6.8225  -20.7200   25.5278 C   0  0  0  0  0  0  0  0  0  0  0  0
    5.6253  -21.3916   25.2385 C   0  0  0  0  0  0  0  0  0  0  0  0
    5.0891  -21.8240   26.3822 N   0  0  0  0  0  0  0  0  0  0  0  0
    5.8526  -21.4869   27.4416 C   0  0  0  0  0  0  0  0  0  0  0  0
    5.7315  -21.7068   28.7986 C   0  0  0  0  0  0  0  0  0  0  0  0
    6.7125  -21.2292   29.6326 C   0  0  0  0  0  0  0  0  0  0  0  0
    7.7940  -20.5460   29.1284 C   0  0  0  0  0  0  0  0  0  0  0  0
    7.9081  -20.3293   27.7676 C   0  0  0  0  0  0  0  0  0  0  0  0
    6.9388  -20.7950   26.8990 C   0  0  0  0  0  0  0  0  0  0  0  0
    7.5181  -18.9168   22.4343 C   0  0  0  0  0  0  0  0  0  0  0  0
    8.4201  -19.0519   21.5890 O   0  0  0  0  0  0  0  0  0  0  0  0
    6.9611  -17.6537   22.6887 N   0  0  0  0  0  0  0  0  0  0  0  0
    7.6217  -16.4564   22.1410 C   0  0  1  0  0  0  0  0  0  0  0  0
    6.5507  -15.4275   21.9917 C   0  0  0  0  0  0  0  0  0  0  0  0
    6.9442  -14.1315   21.4211 C   0  0  0  0  0  0  0  0  0  0  0  0
    7.1455  -13.0133   22.1914 C   0  0  0  0  0  0  0  0  0  0  0  0
    7.5002  -11.8165   21.6047 C   0  0  0  0  0  0  0  0  0  0  0  0
    7.6670  -11.6831   20.2555 C   0  0  0  0  0  0  0  0  0  0  0  0
    7.4699  -12.7898   19.4762 C   0  0  0  0  0  0  0  0  0  0  0  0
    7.1189  -13.9764   20.0489 C   0  0  0  0  0  0  0  0  0  0  0  0
    8.7003  -16.0923   23.0658 C   0  0  0  0  0  0  0  0  0  0  0  0
    9.6784  -15.4095   22.5821 O   0  0  0  0  0  0  0  0  0  0  0  0
    8.7931  -16.3985   24.4443 N   0  0  0  0  0  0  0  0  0  0  0  0
    9.9261  -15.8882   25.2244 C   0  0  1  0  0  0  0  0  0  0  0  0
    9.3687  -15.3412   26.5382 C   0  0  0  0  0  0  0  0  0  0  0  0
    8.4506  -14.2176   26.3382 C   0  0  0  0  0  0  0  0  0  0  0  0
    7.0932  -14.4106   26.2188 C   0  0  0  0  0  0  0  0  0  0  0  0
    6.2821  -13.3048   26.0386 C   0  0  0  0  0  0  0  0  0  0  0  0
    6.7768  -12.0172   25.9735 C   0  0  0  0  0  0  0  0  0  0  0  0
    8.1454  -11.8147   26.0930 C   0  0  0  0  0  0  0  0  0  0  0  0
    8.9467  -12.9216   26.2722 C   0  0  0  0  0  0  0  0  0  0  0  0
   10.8607  -16.9761   25.4814 C   0  0  0  0  0  0  0  0  0  0  0  0
   10.5809  -18.1375   25.1088 O   0  0  0  0  0  0  0  0  0  0  0  0
   12.0490  -16.7584   26.1250 O   0  0  0  0  0  0  0  0  0  0  0  0
  2  1  1  6
  3  2  1  0
  4  5  2  0
  4  3  1  0
  6  5  1  0
  7 12  2  0
  7  6  1  0
  8  7  1  0
  9 10  1  0
  9  8  2  0
 10 11  2  0
 11 12  1  0
 12  4  1  0
 13  2  1  0
 14 13  2  0
 15 13  1  0
 16 24  1  0
 16 15  1  0
 16 17  1  1
 18 17  1  0
 19 18  2  0
 20 19  1  0
 21 20  2  0
 21 22  1  0
 22 23  2  0
 23 18  1  0
 24 26  1  0
 25 24  2  0
 26 27  1  0
 27 28  1  1
 28 29  1  0
 29 30  2  0
 29 34  1  0
 30 31  1  0
 31 32  2  0
 33 32  1  0
 34 33  2  0
 35 37  1  0
 35 27  1  0
 36 35  2  0
M  END
$$$$
