WFF.pdb
     RDKit          3D

 37 40  0  0  1  0  0  0  0  0999 V2000
    9.3562  -17.9655   19.2542 N   0  0  0  0  0  0  0  0  0  0  0  0
   10.4386  -17.8354   20.1965 C   0  0  1  0  0  0  0  0  0  0  0  0
   11.7938  -17.6369   19.5182 C   0  0  0  0  0  0  0  0  0  0  0  0
   11.9160  -18.6302   18.4245 C   0  0  0  0  0  0  0  0  0  0  0  0
   11.7289  -18.3792   17.0570 C   0  0  0  0  0  0  0  0  0  0  0  0
   11.8904  -19.5218   16.3853 N   0  0  0  0  0  0  0  0  0  0  0  0
   12.1791  -20.5440   17.2164 C   0  0  0  0  0  0  0  0  0  0  0  0
   12.4344  -21.8842   17.0086 C   0  0  0  0  0  0  0  0  0  0  0  0
   12.7117  -22.6773   18.0949 C   0  0  0  0  0  0  0  0  0  0  0  0
   12.7353  -22.1493   19.3643 C   0  0  0  0  0  0  0  0  0  0  0  0
   12.4781  -20.8055   19.5644 C   0  0  0  0  0  0  0  0  0  0  0  0
   12.1943  -19.9782   18.4941 C   0  0  0  0  0  0  0  0  0  0  0  0
   10.2759  -16.7116   21.1396 C   0  0  0  0  0  0  0  0  0  0  0  0
   11.2377  -15.9625   21.3845 O   0  0  0  0  0  0  0  0  0  0  0  0
    9.0307  -16.4984   21.7516 N   0  0  0  0  0  0  0  0  0  0  0  0
    8.9454  -15.5800   22.9002 C   0  0  1  0  0  0  0  0  0  0  0  0
    7.5187  -15.1482   22.9767 C   0  0  0  0  0  0  0  0  0  0  0  0
    7.1276  -14.3367   24.1380 C   0  0  0  0  0  0  0  0  0  0  0  0
    6.3866  -14.8402   25.1779 C   0  0  0  0  0  0  0  0  0  0  0  0
    6.0334  -14.0321   26.2384 C   0  0  0  0  0  0  0  0  0  0  0  0
    6.3945  -12.7166   26.3090 C   0  0  0  0  0  0  0  0  0  0  0  0
    7.1335  -12.2022   25.2794 C   0  0  0  0  0  0  0  0  0  0  0  0
    7.4864  -12.9948   24.2275 C   0  0  0  0  0  0  0  0  0  0  0  0
    9.4321  -16.3076   24.0770 C   0  0  0  0  0  0  0  0  0  0  0  0
    9.1226  -17.5541   24.1619 O   0  0  0  0  0  0  0  0  0  0  0  0
   10.2168  -15.8004   25.1398 N   0  0  0  0  0  0  0  0  0  0  0  0
   10.9261  -16.7315   26.0243 C   0  0  1  0  0  0  0  0  0  0  0  0
   11.7324  -15.8956   27.0180 C   0  0  0  0  0  0  0  0  0  0  0  0
   10.8835  -15.1758   27.9702 C   0  0  0  0  0  0  0  0  0  0  0  0
   10.6635  -15.6544   29.2418 C   0  0  0  0  0  0  0  0  0  0  0  0
    9.8568  -14.9211   30.0931 C   0  0  0  0  0  0  0  0  0  0  0  0
    9.2637  -13.7309   29.7209 C   0  0  0  0  0  0  0  0  0  0  0  0
    9.4810  -13.2419   28.4394 C   0  0  0  0  0  0  0  0  0  0  0  0
   10.2860  -13.9784   27.5974 C   0  0  0  0  0  0  0  0  0  0  0  0
    9.9551  -17.5606   26.7264 C   0  0  0  0  0  0  0  0  0  0  0  0
    8.7327  -17.3185   26.6123 O   0  0  0  0  0  0  0  0  0  0  0  0
   10.3491  -18.6083   27.5142 O   0  0  0  0  0  0  0  0  0  0  0  0
  2  1  1  6
  3  2  1  0
  4  5  2  0
  4  3  1  0
  6  5  1  0
  7 12  2  0
  7  6  1  0
  8  7  1  0
  9 10  1  0
  9  8  2  0
 10 11  2  0
 11 12  1  0
 12  4  1  0
 13  2  1  0
 14 13  2  0
 15 13  1  0
 16 24  1  0
 16 15  1  0
 16 17  1  1
 18 17  1  0
 19 18  2  0
 20 19  1  0
 21 20  2  0
 21 22  1  0
 22 23  2  0
 23 18  1  0
 24 26  1  0
 25 24  2  0
 26 27  1  0
 27 28  1  1
 28 29  1  0
 29 30  2  0
 29 34  1  0
 30 31  1  0
 31 32  2  0
 33 32  1  0
 34 33  2  0
 35 37  1  0
 35 27  1  0
 36 35  2  0
M  END
$$$$
