WFF.pdb
     RDKit          3D

 37 40  0  0  1  0  0  0  0  0999 V2000
    6.4053  -17.9551   24.1295 N   0  0  0  0  0  0  0  0  0  0  0  0
    7.2842  -16.8197   24.0083 C   0  0  1  0  0  0  0  0  0  0  0  0
    7.7803  -16.3077   25.3603 C   0  0  0  0  0  0  0  0  0  0  0  0
    6.8748  -15.2223   25.8070 C   0  0  0  0  0  0  0  0  0  0  0  0
    5.6067  -15.3902   26.3829 C   0  0  0  0  0  0  0  0  0  0  0  0
    5.0814  -14.1862   26.6218 N   0  0  0  0  0  0  0  0  0  0  0  0
    5.9195  -13.2001   26.2420 C   0  0  0  0  0  0  0  0  0  0  0  0
    5.8370  -11.8232   26.2880 C   0  0  0  0  0  0  0  0  0  0  0  0
    6.8950  -11.0846   25.8180 C   0  0  0  0  0  0  0  0  0  0  0  0
    8.0146  -11.7018   25.3117 C   0  0  0  0  0  0  0  0  0  0  0  0
    8.0897  -13.0818   25.2687 C   0  0  0  0  0  0  0  0  0  0  0  0
    7.0429  -13.8565   25.7323 C   0  0  0  0  0  0  0  0  0  0  0  0
    8.4877  -17.0817   23.1947 C   0  0  0  0  0  0  0  0  0  0  0  0
    8.8648  -18.2510   23.0028 O   0  0  0  0  0  0  0  0  0  0  0  0
    9.1959  -16.0030   22.6422 N   0  0  0  0  0  0  0  0  0  0  0  0
   10.3589  -16.2764   21.7804 C   0  0  1  0  0  0  0  0  0  0  0  0
   10.3013  -15.2698   20.6799 C   0  0  0  0  0  0  0  0  0  0  0  0
    8.9913  -14.6690   20.3919 C   0  0  0  0  0  0  0  0  0  0  0  0
    7.9349  -15.3951   19.9012 C   0  0  0  0  0  0  0  0  0  0  0  0
    6.7296  -14.7800   19.6339 C   0  0  0  0  0  0  0  0  0  0  0  0
    6.5272  -13.4448   19.8392 C   0  0  0  0  0  0  0  0  0  0  0  0
    7.5716  -12.7095   20.3284 C   0  0  0  0  0  0  0  0  0  0  0  0
    8.7662  -13.3105   20.5949 C   0  0  0  0  0  0  0  0  0  0  0  0
   11.5554  -16.1970   22.6251 C   0  0  0  0  0  0  0  0  0  0  0  0
   12.6644  -16.5928   22.1051 O   0  0  0  0  0  0  0  0  0  0  0  0
   11.6402  -15.7252   23.9565 N   0  0  0  0  0  0  0  0  0  0  0  0
   12.7766  -16.1236   24.7946 C   0  0  1  0  0  0  0  0  0  0  0  0
   12.2203  -16.9297   25.9680 C   0  0  0  0  0  0  0  0  0  0  0  0
   11.2938  -16.1551   26.7969 C   0  0  0  0  0  0  0  0  0  0  0  0
   10.4153  -16.7697   27.6598 C   0  0  0  0  0  0  0  0  0  0  0  0
    9.5725  -15.9781   28.4189 C   0  0  0  0  0  0  0  0  0  0  0  0
    9.5756  -14.5991   28.3470 C   0  0  0  0  0  0  0  0  0  0  0  0
   10.4592  -13.9720   27.4783 C   0  0  0  0  0  0  0  0  0  0  0  0
   11.2955  -14.7677   26.7256 C   0  0  0  0  0  0  0  0  0  0  0  0
   13.6924  -16.9377   24.0062 C   0  0  0  0  0  0  0  0  0  0  0  0
   13.3521  -17.3314   22.8682 O   0  0  0  0  0  0  0  0  0  0  0  0
   14.9279  -17.2853   24.4821 O   0  0  0  0  0  0  0  0  0  0  0  0
  2  1  1  1
  3  2  1  0
  4  5  2  0
  4  3  1  0
  6  5  1  0
  7 12  2  0
  7  6  1  0
  8  7  1  0
  9 10  1  0
  9  8  2  0
 10 11  2  0
 11 12  1  0
 12  4  1  0
 13  2  1  0
 14 13  2  0
 15 13  1  0
 16 24  1  0
 16 15  1  0
 16 17  1  6
 18 17  1  0
 19 18  2  0
 20 19  1  0
 21 20  2  0
 21 22  1  0
 22 23  2  0
 23 18  1  0
 24 26  1  0
 25 24  2  0
 26 27  1  0
 27 28  1  1
 28 29  1  0
 29 30  2  0
 29 34  1  0
 30 31  1  0
 31 32  2  0
 33 32  1  0
 34 33  2  0
 35 37  1  0
 35 27  1  0
 36 35  2  0
M  END
$$$$
