WFF.pdb
     RDKit          3D

 37 40  0  0  1  0  0  0  0  0999 V2000
    9.6344  -18.9366   19.1619 N   0  0  0  0  0  0  0  0  0  0  0  0
    9.0692  -19.1240   20.4741 C   0  0  1  0  0  0  0  0  0  0  0  0
    9.6351  -20.3481   21.1935 C   0  0  0  0  0  0  0  0  0  0  0  0
    8.9911  -21.5581   20.6286 C   0  0  0  0  0  0  0  0  0  0  0  0
    9.6180  -22.5350   19.8408 C   0  0  0  0  0  0  0  0  0  0  0  0
    8.7118  -23.4517   19.4930 N   0  0  0  0  0  0  0  0  0  0  0  0
    7.4966  -23.1585   19.9991 C   0  0  0  0  0  0  0  0  0  0  0  0
    6.2697  -23.7865   19.9286 C   0  0  0  0  0  0  0  0  0  0  0  0
    5.2022  -23.2202   20.5811 C   0  0  0  0  0  0  0  0  0  0  0  0
    5.3503  -22.0518   21.2908 C   0  0  0  0  0  0  0  0  0  0  0  0
    6.5827  -21.4284   21.3566 C   0  0  0  0  0  0  0  0  0  0  0  0
    7.6785  -21.9698   20.7110 C   0  0  0  0  0  0  0  0  0  0  0  0
    9.2730  -17.9768   21.3803 C   0  0  0  0  0  0  0  0  0  0  0  0
   10.3197  -17.3092   21.3110 O   0  0  0  0  0  0  0  0  0  0  0  0
    8.2774  -17.6491   22.3141 N   0  0  0  0  0  0  0  0  0  0  0  0
    8.4601  -16.4635   23.1691 C   0  0  1  0  0  0  0  0  0  0  0  0
    7.1029  -15.8664   23.3403 C   0  0  0  0  0  0  0  0  0  0  0  0
    6.9849  -14.7291   24.2636 C   0  0  0  0  0  0  0  0  0  0  0  0
    7.4590  -13.4770   23.9612 C   0  0  0  0  0  0  0  0  0  0  0  0
    7.3361  -12.4462   24.8694 C   0  0  0  0  0  0  0  0  0  0  0  0
    6.7484  -12.6125   26.0912 C   0  0  0  0  0  0  0  0  0  0  0  0
    6.2712  -13.8553   26.4052 C   0  0  0  0  0  0  0  0  0  0  0  0
    6.3892  -14.8794   25.5127 C   0  0  0  0  0  0  0  0  0  0  0  0
    9.0946  -16.9160   24.4116 C   0  0  0  0  0  0  0  0  0  0  0  0
    8.8892  -18.1378   24.7607 O   0  0  0  0  0  0  0  0  0  0  0  0
    9.9216  -16.1646   25.2799 N   0  0  0  0  0  0  0  0  0  0  0  0
   11.0053  -16.8346   26.0073 C   0  0  1  0  0  0  0  0  0  0  0  0
   11.7741  -15.7603   26.7760 C   0  0  0  0  0  0  0  0  0  0  0  0
   10.9535  -15.0954   27.7909 C   0  0  0  0  0  0  0  0  0  0  0  0
   11.0223  -15.4528   29.1183 C   0  0  0  0  0  0  0  0  0  0  0  0
   10.2249  -14.7791   30.0258 C   0  0  0  0  0  0  0  0  0  0  0  0
    9.3639  -13.7648   29.6562 C   0  0  0  0  0  0  0  0  0  0  0  0
    9.2891  -13.3989   28.3186 C   0  0  0  0  0  0  0  0  0  0  0  0
   10.0867  -14.0749   27.4208 C   0  0  0  0  0  0  0  0  0  0  0  0
   10.4346  -17.8092   26.9279 C   0  0  0  0  0  0  0  0  0  0  0  0
   11.1902  -18.5317   27.6158 O   0  0  0  0  0  0  0  0  0  0  0  0
    9.0803  -17.9558   27.0621 O   0  0  0  0  0  0  0  0  0  0  0  0
  2  1  1  6
  3  2  1  0
  4  5  2  0
  4  3  1  0
  6  5  1  0
  7 12  2  0
  7  6  1  0
  8  7  1  0
  9 10  1  0
  9  8  2  0
 10 11  2  0
 11 12  1  0
 12  4  1  0
 13  2  1  0
 14 13  2  0
 15 13  1  0
 16 24  1  0
 16 15  1  0
 16 17  1  1
 18 17  1  0
 19 18  2  0
 20 19  1  0
 21 20  2  0
 21 22  1  0
 22 23  2  0
 23 18  1  0
 24 26  1  0
 25 24  2  0
 26 27  1  0
 27 28  1  1
 28 29  1  0
 29 30  2  0
 29 34  1  0
 30 31  1  0
 31 32  2  0
 33 32  1  0
 34 33  2  0
 35 37  1  0
 35 27  1  0
 36 35  2  0
M  END
$$$$
