WFF.pdb
     RDKit          3D

 37 40  0  0  1  0  0  0  0  0999 V2000
    8.3182  -16.6913   19.6565 N   0  0  0  0  0  0  0  0  0  0  0  0
    8.9040  -15.5051   20.2275 C   0  0  1  0  0  0  0  0  0  0  0  0
    8.6251  -14.2500   19.4010 C   0  0  0  0  0  0  0  0  0  0  0  0
    9.6510  -14.1582   18.3348 C   0  0  0  0  0  0  0  0  0  0  0  0
    9.4035  -14.0076   16.9622 C   0  0  0  0  0  0  0  0  0  0  0  0
   10.5710  -13.9971   16.3146 N   0  0  0  0  0  0  0  0  0  0  0  0
   11.6073  -14.1316   17.1671 C   0  0  0  0  0  0  0  0  0  0  0  0
   12.9753  -14.1705   16.9890 C   0  0  0  0  0  0  0  0  0  0  0  0
   13.7789  -14.3107   18.0938 C   0  0  0  0  0  0  0  0  0  0  0  0
   13.2342  -14.4102   19.3524 C   0  0  0  0  0  0  0  0  0  0  0  0
   11.8626  -14.3707   19.5227 C   0  0  0  0  0  0  0  0  0  0  0  0
   11.0237  -14.2316   18.4329 C   0  0  0  0  0  0  0  0  0  0  0  0
    8.4416  -15.2126   21.5985 C   0  0  0  0  0  0  0  0  0  0  0  0
    7.8414  -14.1502   21.8378 O   0  0  0  0  0  0  0  0  0  0  0  0
    8.6840  -16.1421   22.6220 N   0  0  0  0  0  0  0  0  0  0  0  0
    8.9096  -15.6542   23.9935 C   0  0  1  0  0  0  0  0  0  0  0  0
    7.5608  -15.5678   24.6267 C   0  0  0  0  0  0  0  0  0  0  0  0
    7.2038  -14.2941   25.2674 C   0  0  0  0  0  0  0  0  0  0  0  0
    6.0277  -14.1129   25.9514 C   0  0  0  0  0  0  0  0  0  0  0  0
    5.7337  -12.8924   26.5227 C   0  0  0  0  0  0  0  0  0  0  0  0
    6.5789  -11.8224   26.4404 C   0  0  0  0  0  0  0  0  0  0  0  0
    7.7547  -11.9895   25.7619 C   0  0  0  0  0  0  0  0  0  0  0  0
    8.0523  -13.1931   25.1943 C   0  0  0  0  0  0  0  0  0  0  0  0
    9.8351  -16.5893   24.6419 C   0  0  0  0  0  0  0  0  0  0  0  0
   10.2691  -17.5695   23.9294 O   0  0  0  0  0  0  0  0  0  0  0  0
   10.3204  -16.5392   25.9703 N   0  0  0  0  0  0  0  0  0  0  0  0
   11.2842  -17.5466   26.4273 C   0  0  1  0  0  0  0  0  0  0  0  0
   11.8311  -17.0790   27.7758 C   0  0  0  0  0  0  0  0  0  0  0  0
   11.2670  -15.7956   28.1999 C   0  0  0  0  0  0  0  0  0  0  0  0
   11.7180  -14.6044   27.6784 C   0  0  0  0  0  0  0  0  0  0  0  0
   11.1365  -13.4288   28.1177 C   0  0  0  0  0  0  0  0  0  0  0  0
   10.1240  -13.4004   29.0563 C   0  0  0  0  0  0  0  0  0  0  0  0
    9.6640  -14.5984   29.5871 C   0  0  0  0  0  0  0  0  0  0  0  0
   10.2485  -15.7652   29.1442 C   0  0  0  0  0  0  0  0  0  0  0  0
   10.6071  -18.8289   26.5694 C   0  0  0  0  0  0  0  0  0  0  0  0
    9.3678  -18.8989   26.4099 O   0  0  0  0  0  0  0  0  0  0  0  0
   11.2981  -19.9704   26.8747 O   0  0  0  0  0  0  0  0  0  0  0  0
  2  1  1  6
  3  2  1  0
  4  5  2  0
  4  3  1  0
  6  5  1  0
  7 12  2  0
  7  6  1  0
  8  7  1  0
  9 10  1  0
  9  8  2  0
 10 11  2  0
 11 12  1  0
 12  4  1  0
 13  2  1  0
 14 13  2  0
 15 13  1  0
 16 24  1  0
 16 15  1  0
 16 17  1  1
 18 17  1  0
 19 18  2  0
 20 19  1  0
 21 20  2  0
 21 22  1  0
 22 23  2  0
 23 18  1  0
 24 26  1  0
 25 24  2  0
 26 27  1  0
 27 28  1  1
 28 29  1  0
 29 30  2  0
 29 34  1  0
 30 31  1  0
 31 32  2  0
 33 32  1  0
 34 33  2  0
 35 37  1  0
 35 27  1  0
 36 35  2  0
M  END
$$$$
