WFF.pdb
     RDKit          3D

 37 40  0  0  1  0  0  0  0  0999 V2000
    9.6850  -18.9209   20.8667 N   0  0  0  0  0  0  0  0  0  0  0  0
    9.3130  -17.6155   21.3504 C   0  0  1  0  0  0  0  0  0  0  0  0
    7.8636  -17.2546   21.0261 C   0  0  0  0  0  0  0  0  0  0  0  0
    7.7906  -15.7932   20.7883 C   0  0  0  0  0  0  0  0  0  0  0  0
    8.1425  -15.1315   19.6024 C   0  0  0  0  0  0  0  0  0  0  0  0
    7.9740  -13.8187   19.7777 N   0  0  0  0  0  0  0  0  0  0  0  0
    7.5251  -13.5421   21.0190 C   0  0  0  0  0  0  0  0  0  0  0  0
    7.1993  -12.3658   21.6631 C   0  0  0  0  0  0  0  0  0  0  0  0
    6.7500  -12.4280   22.9593 C   0  0  0  0  0  0  0  0  0  0  0  0
    6.6264  -13.6361   23.6043 C   0  0  0  0  0  0  0  0  0  0  0  0
    6.9550  -14.8103   22.9524 C   0  0  0  0  0  0  0  0  0  0  0  0
    7.4114  -14.7849   21.6478 C   0  0  0  0  0  0  0  0  0  0  0  0
    9.4661  -17.4546   22.8097 C   0  0  0  0  0  0  0  0  0  0  0  0
    9.6646  -18.4509   23.5267 O   0  0  0  0  0  0  0  0  0  0  0  0
    9.3875  -16.1721   23.3749 N   0  0  0  0  0  0  0  0  0  0  0  0
    9.6226  -16.0111   24.8202 C   0  0  1  0  0  0  0  0  0  0  0  0
    9.3762  -14.5696   25.1191 C   0  0  0  0  0  0  0  0  0  0  0  0
    9.3533  -14.1753   26.5348 C   0  0  0  0  0  0  0  0  0  0  0  0
    8.3618  -13.3911   27.0696 C   0  0  0  0  0  0  0  0  0  0  0  0
    8.3947  -13.0371   28.4022 C   0  0  0  0  0  0  0  0  0  0  0  0
    9.3935  -13.4395   29.2427 C   0  0  0  0  0  0  0  0  0  0  0  0
   10.3877  -14.2218   28.7227 C   0  0  0  0  0  0  0  0  0  0  0  0
   10.3622  -14.5758   27.4062 C   0  0  0  0  0  0  0  0  0  0  0  0
    8.7291  -16.9449   25.5137 C   0  0  0  0  0  0  0  0  0  0  0  0
    7.5041  -16.5789   25.6631 O   0  0  0  0  0  0  0  0  0  0  0  0
    9.0533  -18.2186   26.0383 N   0  0  0  0  0  0  0  0  0  0  0  0
    8.3233  -18.7283   27.2044 C   0  0  1  0  0  0  0  0  0  0  0  0
    6.8692  -18.9339   26.7808 C   0  0  0  0  0  0  0  0  0  0  0  0
    6.7480  -19.5595   25.4619 C   0  0  0  0  0  0  0  0  0  0  0  0
    7.2203  -20.8299   25.2225 C   0  0  0  0  0  0  0  0  0  0  0  0
    7.0671  -21.3637   23.9557 C   0  0  0  0  0  0  0  0  0  0  0  0
    6.4612  -20.6762   22.9227 C   0  0  0  0  0  0  0  0  0  0  0  0
    5.9825  -19.3938   23.1568 C   0  0  0  0  0  0  0  0  0  0  0  0
    6.1389  -18.8691   24.4215 C   0  0  0  0  0  0  0  0  0  0  0  0
    8.9142  -19.9916   27.6262 C   0  0  0  0  0  0  0  0  0  0  0  0
    8.4026  -20.6327   28.5713 O   0  0  0  0  0  0  0  0  0  0  0  0
   10.0246  -20.5010   27.0087 O   0  0  0  0  0  0  0  0  0  0  0  0
  2  1  1  1
  3  2  1  0
  4  5  2  0
  4  3  1  0
  6  5  1  0
  7 12  2  0
  7  6  1  0
  8  7  1  0
  9 10  1  0
  9  8  2  0
 10 11  2  0
 11 12  1  0
 12  4  1  0
 13  2  1  0
 14 13  2  0
 15 13  1  0
 16 24  1  0
 16 15  1  0
 16 17  1  1
 18 17  1  0
 19 18  2  0
 20 19  1  0
 21 20  2  0
 21 22  1  0
 22 23  2  0
 23 18  1  0
 24 26  1  0
 25 24  2  0
 26 27  1  0
 27 28  1  6
 28 29  1  0
 29 30  2  0
 29 34  1  0
 30 31  1  0
 31 32  2  0
 33 32  1  0
 34 33  2  0
 35 37  1  0
 35 27  1  0
 36 35  2  0
M  END
$$$$
