WFF.pdb
     RDKit          3D

 37 40  0  0  1  0  0  0  0  0999 V2000
    8.4259  -19.1274   20.3911 N   0  0  0  0  0  0  0  0  0  0  0  0
    8.6091  -17.7289   20.0964 C   0  0  1  0  0  0  0  0  0  0  0  0
    7.4302  -17.1250   19.3336 C   0  0  0  0  0  0  0  0  0  0  0  0
    7.8515  -15.8111   18.7915 C   0  0  0  0  0  0  0  0  0  0  0  0
    8.3155  -15.5655   17.4907 C   0  0  0  0  0  0  0  0  0  0  0  0
    8.6290  -14.2720   17.3843 N   0  0  0  0  0  0  0  0  0  0  0  0
    8.4051  -13.6152   18.5408 C   0  0  0  0  0  0  0  0  0  0  0  0
    8.5616  -12.2981   18.9222 C   0  0  0  0  0  0  0  0  0  0  0  0
    8.2240  -11.9399   20.2043 C   0  0  0  0  0  0  0  0  0  0  0  0
    7.7397  -12.8723   21.0913 C   0  0  0  0  0  0  0  0  0  0  0  0
    7.5860  -14.1900   20.7018 C   0  0  0  0  0  0  0  0  0  0  0  0
    7.9169  -14.5861   19.4194 C   0  0  0  0  0  0  0  0  0  0  0  0
    8.8054  -16.8881   21.2936 C   0  0  0  0  0  0  0  0  0  0  0  0
    9.4147  -15.8081   21.2007 O   0  0  0  0  0  0  0  0  0  0  0  0
    8.2983  -17.3179   22.5300 N   0  0  0  0  0  0  0  0  0  0  0  0
    8.4366  -16.4400   23.7048 C   0  0  1  0  0  0  0  0  0  0  0  0
    7.0472  -16.0890   24.1221 C   0  0  0  0  0  0  0  0  0  0  0  0
    6.8454  -14.7643   24.7259 C   0  0  0  0  0  0  0  0  0  0  0  0
    7.0985  -13.5962   24.0510 C   0  0  0  0  0  0  0  0  0  0  0  0
    6.9063  -12.3779   24.6686 C   0  0  0  0  0  0  0  0  0  0  0  0
    6.4632  -12.2712   25.9563 C   0  0  0  0  0  0  0  0  0  0  0  0
    6.2067  -13.4277   26.6402 C   0  0  0  0  0  0  0  0  0  0  0  0
    6.3945  -14.6357   26.0365 C   0  0  0  0  0  0  0  0  0  0  0  0
    9.2137  -17.1747   24.7086 C   0  0  0  0  0  0  0  0  0  0  0  0
    9.1765  -18.4600   24.6498 O   0  0  0  0  0  0  0  0  0  0  0  0
   10.0151  -16.6345   25.7423 N   0  0  0  0  0  0  0  0  0  0  0  0
   10.9425  -17.5076   26.4705 C   0  0  1  0  0  0  0  0  0  0  0  0
   11.8079  -16.6161   27.3606 C   0  0  0  0  0  0  0  0  0  0  0  0
   11.0182  -15.6642   28.1453 C   0  0  0  0  0  0  0  0  0  0  0  0
   10.7099  -15.9018   29.4654 C   0  0  0  0  0  0  0  0  0  0  0  0
    9.9664  -14.9577   30.1503 C   0  0  0  0  0  0  0  0  0  0  0  0
    9.5210  -13.7886   29.5656 C   0  0  0  0  0  0  0  0  0  0  0  0
    9.8280  -13.5422   28.2339 C   0  0  0  0  0  0  0  0  0  0  0  0
   10.5692  -14.4877   27.5586 C   0  0  0  0  0  0  0  0  0  0  0  0
   10.1799  -18.4488   27.2803 C   0  0  0  0  0  0  0  0  0  0  0  0
   10.7795  -19.2995   27.9751 O   0  0  0  0  0  0  0  0  0  0  0  0
    8.8115  -18.4256   27.3020 O   0  0  0  0  0  0  0  0  0  0  0  0
  2  1  1  1
  3  2  1  0
  4  5  2  0
  4  3  1  0
  6  5  1  0
  7 12  2  0
  7  6  1  0
  8  7  1  0
  9 10  1  0
  9  8  2  0
 10 11  2  0
 11 12  1  0
 12  4  1  0
 13  2  1  0
 14 13  2  0
 15 13  1  0
 16 24  1  0
 16 15  1  0
 16 17  1  1
 18 17  1  0
 19 18  2  0
 20 19  1  0
 21 20  2  0
 21 22  1  0
 22 23  2  0
 23 18  1  0
 24 26  1  0
 25 24  2  0
 26 27  1  0
 27 28  1  1
 28 29  1  0
 29 30  2  0
 29 34  1  0
 30 31  1  0
 31 32  2  0
 33 32  1  0
 34 33  2  0
 35 37  1  0
 35 27  1  0
 36 35  2  0
M  END
$$$$
