WFF.pdb
     RDKit          3D

 37 40  0  0  1  0  0  0  0  0999 V2000
    9.9495  -17.9182   18.8634 N   0  0  0  0  0  0  0  0  0  0  0  0
   10.0141  -18.2740   20.2582 C   0  0  1  0  0  0  0  0  0  0  0  0
   11.2045  -19.1753   20.5851 C   0  0  0  0  0  0  0  0  0  0  0  0
   10.7010  -20.3644   21.3131 C   0  0  0  0  0  0  0  0  0  0  0  0
    9.8532  -21.3532   20.7920 C   0  0  0  0  0  0  0  0  0  0  0  0
    9.5920  -22.2435   21.7521 N   0  0  0  0  0  0  0  0  0  0  0  0
   10.2144  -21.9209   22.9042 C   0  0  0  0  0  0  0  0  0  0  0  0
   10.2611  -22.5157   24.1487 C   0  0  0  0  0  0  0  0  0  0  0  0
   11.0157  -21.9249   25.1324 C   0  0  0  0  0  0  0  0  0  0  0  0
   11.7113  -20.7649   24.8848 C   0  0  0  0  0  0  0  0  0  0  0  0
   11.6592  -20.1748   23.6355 C   0  0  0  0  0  0  0  0  0  0  0  0
   10.9089  -20.7415   22.6222 C   0  0  0  0  0  0  0  0  0  0  0  0
   10.1084  -17.1135   21.1656 C   0  0  0  0  0  0  0  0  0  0  0  0
   10.9880  -16.2535   20.9843 O   0  0  0  0  0  0  0  0  0  0  0  0
    9.1987  -16.9918   22.2277 N   0  0  0  0  0  0  0  0  0  0  0  0
    9.2917  -15.8231   23.1196 C   0  0  1  0  0  0  0  0  0  0  0  0
    7.9717  -15.1318   23.0311 C   0  0  0  0  0  0  0  0  0  0  0  0
    7.7469  -14.2680   21.8634 C   0  0  0  0  0  0  0  0  0  0  0  0
    7.1817  -14.7272   20.7000 C   0  0  0  0  0  0  0  0  0  0  0  0
    7.0056  -13.8783   19.6273 C   0  0  0  0  0  0  0  0  0  0  0  0
    7.3757  -12.5639   19.6647 C   0  0  0  0  0  0  0  0  0  0  0  0
    7.9399  -12.0932   20.8184 C   0  0  0  0  0  0  0  0  0  0  0  0
    8.1174  -12.9264   21.8831 C   0  0  0  0  0  0  0  0  0  0  0  0
    9.6374  -16.3207   24.4553 C   0  0  0  0  0  0  0  0  0  0  0  0
    9.0932  -17.4270   24.8251 O   0  0  0  0  0  0  0  0  0  0  0  0
   10.5136  -15.7280   25.3952 N   0  0  0  0  0  0  0  0  0  0  0  0
   10.2532  -15.8902   26.8300 C   0  0  1  0  0  0  0  0  0  0  0  0
    8.7479  -15.7334   27.0432 C   0  0  0  0  0  0  0  0  0  0  0  0
    8.2870  -14.3596   26.8290 C   0  0  0  0  0  0  0  0  0  0  0  0
    7.1031  -14.0912   26.1805 C   0  0  0  0  0  0  0  0  0  0  0  0
    6.7235  -12.7711   26.0182 C   0  0  0  0  0  0  0  0  0  0  0  0
    7.4817  -11.7128   26.4788 C   0  0  0  0  0  0  0  0  0  0  0  0
    8.6775  -11.9760   27.1339 C   0  0  0  0  0  0  0  0  0  0  0  0
    9.0486  -13.2938   27.2916 C   0  0  0  0  0  0  0  0  0  0  0  0
   10.6919  -17.2144   27.2508 C   0  0  0  0  0  0  0  0  0  0  0  0
   10.9838  -18.0753   26.3908 O   0  0  0  0  0  0  0  0  0  0  0  0
   10.7952  -17.5440   28.5753 O   0  0  0  0  0  0  0  0  0  0  0  0
  2  1  1  6
  3  2  1  0
  4  5  2  0
  4  3  1  0
  6  5  1  0
  7 12  2  0
  7  6  1  0
  8  7  1  0
  9 10  1  0
  9  8  2  0
 10 11  2  0
 11 12  1  0
 12  4  1  0
 13  2  1  0
 14 13  2  0
 15 13  1  0
 16 24  1  0
 16 15  1  0
 16 17  1  1
 18 17  1  0
 19 18  2  0
 20 19  1  0
 21 20  2  0
 21 22  1  0
 22 23  2  0
 23 18  1  0
 24 26  1  0
 25 24  2  0
 26 27  1  0
 27 28  1  6
 28 29  1  0
 29 30  2  0
 29 34  1  0
 30 31  1  0
 31 32  2  0
 33 32  1  0
 34 33  2  0
 35 37  1  0
 35 27  1  0
 36 35  2  0
M  END
$$$$
