WFF.pdb
     RDKit          3D

 37 40  0  0  1  0  0  0  0  0999 V2000
    7.9235  -21.4293   22.2327 N   0  0  0  0  0  0  0  0  0  0  0  0
    7.3029  -20.2438   22.7673 C   0  0  1  0  0  0  0  0  0  0  0  0
    7.2434  -20.2439   24.2946 C   0  0  0  0  0  0  0  0  0  0  0  0
    6.4774  -21.4361   24.7298 C   0  0  0  0  0  0  0  0  0  0  0  0
    6.9951  -22.5437   25.4178 C   0  0  0  0  0  0  0  0  0  0  0  0
    6.0132  -23.4285   25.6066 N   0  0  0  0  0  0  0  0  0  0  0  0
    4.8489  -22.9893   25.0866 C   0  0  0  0  0  0  0  0  0  0  0  0
    3.5782  -23.5251   25.0347 C   0  0  0  0  0  0  0  0  0  0  0  0
    2.5830  -22.8007   24.4258 C   0  0  0  0  0  0  0  0  0  0  0  0
    2.8447  -21.5667   23.8786 C   0  0  0  0  0  0  0  0  0  0  0  0
    4.1205  -21.0366   23.9342 C   0  0  0  0  0  0  0  0  0  0  0  0
    5.1466  -21.7387   24.5385 C   0  0  0  0  0  0  0  0  0  0  0  0
    7.9771  -18.9901   22.3765 C   0  0  0  0  0  0  0  0  0  0  0  0
    9.1433  -19.0205   21.9460 O   0  0  0  0  0  0  0  0  0  0  0  0
    7.2907  -17.7714   22.4940 N   0  0  0  0  0  0  0  0  0  0  0  0
    7.9752  -16.5244   22.1113 C   0  0  1  0  0  0  0  0  0  0  0  0
    6.8967  -15.5255   21.8528 C   0  0  0  0  0  0  0  0  0  0  0  0
    7.3162  -14.1902   21.4045 C   0  0  0  0  0  0  0  0  0  0  0  0
    7.3908  -13.1134   22.2526 C   0  0  0  0  0  0  0  0  0  0  0  0
    7.7767  -11.8771   21.7783 C   0  0  0  0  0  0  0  0  0  0  0  0
    8.0987  -11.6630   20.4682 C   0  0  0  0  0  0  0  0  0  0  0  0
    8.0290  -12.7276   19.6123 C   0  0  0  0  0  0  0  0  0  0  0  0
    7.6482  -13.9529   20.0737 C   0  0  0  0  0  0  0  0  0  0  0  0
    8.8882  -16.1752   23.2047 C   0  0  0  0  0  0  0  0  0  0  0  0
    9.8870  -15.4178   22.9120 O   0  0  0  0  0  0  0  0  0  0  0  0
    8.7986  -16.5692   24.5609 N   0  0  0  0  0  0  0  0  0  0  0  0
    9.7031  -15.9717   25.5496 C   0  0  1  0  0  0  0  0  0  0  0  0
    8.8515  -15.5191   26.7353 C   0  0  0  0  0  0  0  0  0  0  0  0
    7.9337  -14.4313   26.3891 C   0  0  0  0  0  0  0  0  0  0  0  0
    6.6000  -14.6665   26.1439 C   0  0  0  0  0  0  0  0  0  0  0  0
    5.7870  -13.5926   25.8291 C   0  0  0  0  0  0  0  0  0  0  0  0
    6.2569  -12.2965   25.7505 C   0  0  0  0  0  0  0  0  0  0  0  0
    7.6015  -12.0517   25.9965 C   0  0  0  0  0  0  0  0  0  0  0  0
    8.4049  -13.1269   26.3095 C   0  0  0  0  0  0  0  0  0  0  0  0
   10.6771  -16.9691   25.9735 C   0  0  0  0  0  0  0  0  0  0  0  0
   11.5714  -16.6567   26.7912 O   0  0  0  0  0  0  0  0  0  0  0  0
   10.6383  -18.2516   25.4970 O   0  0  0  0  0  0  0  0  0  0  0  0
  2  1  1  1
  3  2  1  0
  4  5  2  0
  4  3  1  0
  6  5  1  0
  7 12  2  0
  7  6  1  0
  8  7  1  0
  9 10  1  0
  9  8  2  0
 10 11  2  0
 11 12  1  0
 12  4  1  0
 13  2  1  0
 14 13  2  0
 15 13  1  0
 16 24  1  0
 16 15  1  0
 16 17  1  1
 18 17  1  0
 19 18  2  0
 20 19  1  0
 21 20  2  0
 21 22  1  0
 22 23  2  0
 23 18  1  0
 24 26  1  0
 25 24  2  0
 26 27  1  0
 27 28  1  1
 28 29  1  0
 29 30  2  0
 29 34  1  0
 30 31  1  0
 31 32  2  0
 33 32  1  0
 34 33  2  0
 35 37  1  0
 35 27  1  0
 36 35  2  0
M  END
$$$$
