RRH.pdb
     RDKit          3D

 33 33  0  0  1  0  0  0  0  0999 V2000
   33.3522  -25.3296  -16.6567 N   0  0  0  0  0  0  0  0  0  0  0  0
   33.0777  -25.0231  -15.2934 C   0  0  0  0  0  0  0  0  0  0  0  0
   33.8780  -25.5322  -14.4153 N   0  0  0  0  0  0  0  0  0  0  0  0
   31.9838  -24.2049  -14.9550 N   0  0  0  0  0  0  0  0  0  0  0  0
   31.1970  -23.6368  -16.0558 C   0  0  0  0  0  0  0  0  0  0  0  0
   30.6403  -22.3407  -15.6053 C   0  0  0  0  0  0  0  0  0  0  0  0
   29.1760  -22.1536  -15.7764 C   0  0  0  0  0  0  0  0  0  0  0  0
   28.7672  -22.1042  -17.2124 C   0  0  2  0  0  0  0  0  0  0  0  0
   29.5861  -21.1638  -17.9298 N   0  0  0  0  0  0  0  0  0  0  0  0
   27.3152  -21.7314  -17.3030 C   0  0  0  0  0  0  0  0  0  0  0  0
   26.9089  -20.6218  -16.9118 O   0  0  0  0  0  0  0  0  0  0  0  0
   33.8398  -25.3621  -13.4047 N   0  0  0  0  0  0  0  0  0  0  0  0
   22.6619  -27.2835  -17.8858 C   0  0  0  0  0  0  0  0  0  0  0  0
   23.9328  -27.8059  -18.2463 N   0  0  0  0  0  0  0  0  0  0  0  0
   24.2911  -28.9646  -17.8029 N   0  0  0  0  0  0  0  0  0  0  0  0
   24.7922  -27.0476  -19.0891 C   0  0  0  0  0  0  0  0  0  0  0  0
   24.3283  -25.7209  -19.4849 C   0  0  0  0  0  0  0  0  0  0  0  0
   24.8749  -24.7503  -18.4433 C   0  0  0  0  0  0  0  0  0  0  0  0
   24.3599  -23.3662  -18.8372 C   0  0  1  0  0  0  0  0  0  0  0  0
   24.9701  -22.3861  -17.8655 N   0  0  0  0  0  0  0  0  0  0  0  0
   26.3935  -22.6537  -17.8407 C   0  0  0  0  0  0  0  0  0  0  0  0
   24.4159  -22.4727  -16.5192 O   0  0  0  0  0  0  0  0  0  0  0  0
   25.1642  -22.8173  -15.5688 N   0  0  0  0  0  0  0  0  0  0  0  0
   25.2219  -29.3565  -18.0354 C   0  0  2  0  0  0  0  0  0  0  0  0
   23.0641  -22.1930  -16.1818 C   0  0  0  0  0  0  0  0  0  0  0  0
   22.6910  -21.8618  -14.8210 C   0  0  0  0  0  0  0  0  0  0  0  0
   23.4217  -20.6205  -14.3555 C   0  0  0  0  0  0  0  0  0  0  0  0
   22.9608  -20.1494  -13.0483 N   0  0  0  0  0  0  0  0  0  0  0  0
   21.9654  -20.7318  -12.2873 C   0  0  0  0  0  0  0  0  0  0  0  0
   21.8443  -20.0107  -11.1720 N   0  0  0  0  0  0  0  0  0  0  0  0
   22.7260  -18.9992  -11.2061 C   0  0  0  0  0  0  0  0  0  0  0  0
   23.4091  -19.0844  -12.3545 O   0  0  0  0  0  0  0  0  0  0  0  0
   21.2061  -21.6657  -14.7409 O   0  0  0  0  0  0  0  0  0  0  0  0
  1  2  1  0
  2  4  1  0
  3  2  2  0
  4  5  1  0
  6  5  1  0
  7  6  1  0
  8  9  1  6
  8  7  1  0
 10 20  1  0
 10  8  1  0
 11 10  2  0
 13 12  1  0
 14 13  2  0
 15 13  1  0
 16 15  1  0
 17 16  1  0
 17 18  1  0
 19 18  1  6
 19 20  1  0
 19 21  1  0
 21 22  2  0
 23 21  1  0
 23 24  1  0
 24 25  1  1
 25 26  1  0
 26 30  1  0
 26 27  2  0
 27 28  1  0
 29 28  1  0
 30 29  2  0
 31 32  1  0
 31 24  1  0
 33 31  2  0
M  END
$$$$
