RRH.pdb
     RDKit          3D

 33 33  0  0  1  0  0  0  0  0999 V2000
   22.4702  -19.0514  -17.8305 N   0  0  0  0  0  0  0  0  0  0  0  0
   22.4402  -20.3619  -18.3869 C   0  0  0  0  0  0  0  0  0  0  0  0
   21.5375  -20.5870  -19.2841 N   0  0  0  0  0  0  0  0  0  0  0  0
   23.3606  -21.3369  -17.9595 N   0  0  0  0  0  0  0  0  0  0  0  0
   24.2811  -20.9707  -16.8768 C   0  0  0  0  0  0  0  0  0  0  0  0
   25.4812  -20.3483  -17.4811 C   0  0  0  0  0  0  0  0  0  0  0  0
   26.5000  -19.8203  -16.5368 C   0  0  0  0  0  0  0  0  0  0  0  0
   27.5970  -20.7986  -16.2697 C   0  0  2  0  0  0  0  0  0  0  0  0
   27.5029  -21.9105  -17.1776 N   0  0  0  0  0  0  0  0  0  0  0  0
   27.5140  -21.2607  -14.8431 C   0  0  0  0  0  0  0  0  0  0  0  0
   26.8439  -22.2609  -14.5274 O   0  0  0  0  0  0  0  0  0  0  0  0
   21.4036  -21.4714  -19.7860 N   0  0  0  0  0  0  0  0  0  0  0  0
   34.2155  -22.7154  -11.1089 C   0  0  0  0  0  0  0  0  0  0  0  0
   33.7313  -23.3309  -12.2941 N   0  0  0  0  0  0  0  0  0  0  0  0
   34.5173  -24.0919  -12.9800 N   0  0  0  0  0  0  0  0  0  0  0  0
   32.3900  -23.1012  -12.7091 C   0  0  0  0  0  0  0  0  0  0  0  0
   31.5890  -22.1980  -11.8879 C   0  0  0  0  0  0  0  0  0  0  0  0
   30.2477  -22.0526  -12.5989 C   0  0  0  0  0  0  0  0  0  0  0  0
   29.5095  -20.9171  -11.8904 C   0  0  2  0  0  0  0  0  0  0  0  0
   28.1045  -20.9062  -12.4410 N   0  0  0  0  0  0  0  0  0  0  0  0
   28.2074  -20.5500  -13.8413 C   0  0  0  0  0  0  0  0  0  0  0  0
   27.2107  -19.9845  -11.7492 O   0  0  0  0  0  0  0  0  0  0  0  0
   26.9689  -18.8623  -12.2634 N   0  0  0  0  0  0  0  0  0  0  0  0
   34.2039  -24.5073  -13.8763 C   0  0  1  0  0  0  0  0  0  0  0  0
   26.5725  -20.2551  -10.5086 C   0  0  0  0  0  0  0  0  0  0  0  0
   25.1463  -20.0534  -10.3470 C   0  0  0  0  0  0  0  0  0  0  0  0
   24.3875  -20.6614  -11.5071 C   0  0  0  0  0  0  0  0  0  0  0  0
   22.9435  -20.4375  -11.4183 N   0  0  0  0  0  0  0  0  0  0  0  0
   22.2782  -19.8899  -10.3381 C   0  0  0  0  0  0  0  0  0  0  0  0
   20.9814  -19.8539  -10.6466 N   0  0  0  0  0  0  0  0  0  0  0  0
   20.8097  -20.3580  -11.8787 C   0  0  0  0  0  0  0  0  0  0  0  0
   22.0107  -20.7150  -12.3506 O   0  0  0  0  0  0  0  0  0  0  0  0
   24.6986  -20.6526   -9.0469 O   0  0  0  0  0  0  0  0  0  0  0  0
  1  2  1  0
  2  4  1  0
  3  2  2  0
  4  5  1  0
  6  5  1  0
  7  6  1  0
  8  9  1  6
  8  7  1  0
 10 20  1  0
 10  8  1  0
 11 10  2  0
 13 12  1  0
 14 13  2  0
 15 13  1  0
 16 15  1  0
 17 16  1  0
 17 18  1  0
 19 18  1  6
 19 20  1  0
 19 21  1  0
 21 22  2  0
 23 21  1  0
 23 24  1  0
 24 25  1  1
 25 26  1  0
 26 30  1  0
 26 27  2  0
 27 28  1  0
 29 28  1  0
 30 29  2  0
 31 32  1  0
 31 24  1  0
 33 31  2  0
M  END
$$$$
