RRH.pdb
     RDKit          3D

 33 33  0  0  1  0  0  0  0  0999 V2000
   23.6218  -23.9891  -14.5139 N   0  0  0  0  0  0  0  0  0  0  0  0
   24.7457  -24.1242  -15.3780 C   0  0  0  0  0  0  0  0  0  0  0  0
   24.4964  -24.4672  -16.5990 N   0  0  0  0  0  0  0  0  0  0  0  0
   26.0463  -23.8886  -14.8949 N   0  0  0  0  0  0  0  0  0  0  0  0
   26.1768  -23.3560  -13.5337 C   0  0  0  0  0  0  0  0  0  0  0  0
   26.5682  -21.9311  -13.6303 C   0  0  0  0  0  0  0  0  0  0  0  0
   26.9214  -21.2534  -12.3558 C   0  0  0  0  0  0  0  0  0  0  0  0
   25.7603  -20.5396  -11.7440 C   0  0  2  0  0  0  0  0  0  0  0  0
   24.8427  -21.4862  -11.1683 N   0  0  0  0  0  0  0  0  0  0  0  0
   25.0833  -19.7033  -12.7918 C   0  0  0  0  0  0  0  0  0  0  0  0
   23.8596  -19.7966  -12.9996 O   0  0  0  0  0  0  0  0  0  0  0  0
   25.2005  -24.6765  -17.3147 N   0  0  0  0  0  0  0  0  0  0  0  0
   30.0288  -17.0859  -18.0606 C   0  0  0  0  0  0  0  0  0  0  0  0
   28.9274  -16.9984  -18.9535 N   0  0  0  0  0  0  0  0  0  0  0  0
   29.0900  -17.3180  -20.1941 N   0  0  0  0  0  0  0  0  0  0  0  0
   27.6628  -16.5608  -18.4707 C   0  0  0  0  0  0  0  0  0  0  0  0
   27.5494  -16.3228  -17.0346 C   0  0  0  0  0  0  0  0  0  0  0  0
   26.4663  -17.2705  -16.5301 C   0  0  0  0  0  0  0  0  0  0  0  0
   26.3250  -16.9994  -15.0325 C   0  0  1  0  0  0  0  0  0  0  0  0
   25.2351  -17.9138  -14.5294 N   0  0  0  0  0  0  0  0  0  0  0  0
   25.8458  -18.7950  -13.5553 C   0  0  0  0  0  0  0  0  0  0  0  0
   24.5904  -18.6919  -15.5810 O   0  0  0  0  0  0  0  0  0  0  0  0
   25.0466  -19.8275  -15.8712 N   0  0  0  0  0  0  0  0  0  0  0  0
   28.2790  -17.3791  -20.8364 C   0  0  2  0  0  0  0  0  0  0  0  0
   23.4589  -18.2629  -16.3261 C   0  0  0  0  0  0  0  0  0  0  0  0
   22.2652  -19.0815  -16.4022 C   0  0  0  0  0  0  0  0  0  0  0  0
   22.1758  -20.0053  -15.2064 C   0  0  0  0  0  0  0  0  0  0  0  0
   21.0301  -20.9139  -15.2778 N   0  0  0  0  0  0  0  0  0  0  0  0
   20.0757  -20.9299  -16.2769 C   0  0  0  0  0  0  0  0  0  0  0  0
   19.2065  -21.8969  -15.9808 N   0  0  0  0  0  0  0  0  0  0  0  0
   19.5804  -22.4866  -14.8345 C   0  0  0  0  0  0  0  0  0  0  0  0
   20.6965  -21.8848  -14.4046 O   0  0  0  0  0  0  0  0  0  0  0  0
   21.0552  -18.1988  -16.4834 O   0  0  0  0  0  0  0  0  0  0  0  0
  1  2  1  0
  2  4  1  0
  3  2  2  0
  4  5  1  0
  6  5  1  0
  7  6  1  0
  8  9  1  6
  8  7  1  0
 10 20  1  0
 10  8  1  0
 11 10  2  0
 13 12  1  0
 14 13  2  0
 15 13  1  0
 16 15  1  0
 17 16  1  0
 17 18  1  0
 19 18  1  1
 19 20  1  0
 19 21  1  0
 21 22  2  0
 23 21  1  0
 23 24  1  0
 24 25  1  6
 25 26  1  0
 26 30  1  0
 26 27  2  0
 27 28  1  0
 29 28  1  0
 30 29  2  0
 31 32  1  0
 31 24  1  0
 33 31  2  0
M  END
$$$$
