RRH.pdb
     RDKit          3D

 33 33  0  0  1  0  0  0  0  0999 V2000
   27.4890  -26.7093  -16.3893 N   0  0  0  0  0  0  0  0  0  0  0  0
   28.8090  -26.3613  -16.7946 C   0  0  0  0  0  0  0  0  0  0  0  0
   29.5658  -27.3319  -17.1895 N   0  0  0  0  0  0  0  0  0  0  0  0
   29.2347  -25.0205  -16.7550 N   0  0  0  0  0  0  0  0  0  0  0  0
   28.2831  -23.9946  -17.1973 C   0  0  0  0  0  0  0  0  0  0  0  0
   27.5210  -23.5306  -16.0155 C   0  0  0  0  0  0  0  0  0  0  0  0
   27.9386  -22.2319  -15.4263 C   0  0  0  0  0  0  0  0  0  0  0  0
   27.7005  -21.0802  -16.3477 C   0  0  2  0  0  0  0  0  0  0  0  0
   28.8143  -20.1709  -16.3043 N   0  0  0  0  0  0  0  0  0  0  0  0
   26.4258  -20.3881  -15.9584 C   0  0  0  0  0  0  0  0  0  0  0  0
   26.3523  -19.7103  -14.9170 O   0  0  0  0  0  0  0  0  0  0  0  0
   30.5298  -27.2367  -17.5264 N   0  0  0  0  0  0  0  0  0  0  0  0
   20.2018  -16.9069  -20.0820 C   0  0  0  0  0  0  0  0  0  0  0  0
   19.9043  -16.4176  -18.7819 N   0  0  0  0  0  0  0  0  0  0  0  0
   18.7346  -15.9261  -18.5416 N   0  0  0  0  0  0  0  0  0  0  0  0
   20.8966  -16.4753  -17.7640 C   0  0  0  0  0  0  0  0  0  0  0  0
   22.1739  -17.0868  -18.1194 C   0  0  0  0  0  0  0  0  0  0  0  0
   22.4560  -18.1362  -17.0494 C   0  0  0  0  0  0  0  0  0  0  0  0
   23.7928  -18.7771  -17.4214 C   0  0  2  0  0  0  0  0  0  0  0  0
   24.0227  -19.8980  -16.4375 N   0  0  0  0  0  0  0  0  0  0  0  0
   25.2901  -20.5066  -16.7864 C   0  0  0  0  0  0  0  0  0  0  0  0
   22.9642  -20.9013  -16.4337 O   0  0  0  0  0  0  0  0  0  0  0  0
   22.4117  -21.2143  -17.5194 N   0  0  0  0  0  0  0  0  0  0  0  0
   18.4605  -15.6563  -17.5793 C   0  0  1  0  0  0  0  0  0  0  0  0
   22.4912  -21.5732  -15.2743 C   0  0  0  0  0  0  0  0  0  0  0  0
   21.2831  -21.1365  -14.6031 C   0  0  0  0  0  0  0  0  0  0  0  0
   21.3735  -19.6684  -14.2454 C   0  0  0  0  0  0  0  0  0  0  0  0
   21.4325  -19.4407  -12.8004 N   0  0  0  0  0  0  0  0  0  0  0  0
   21.5090  -20.4238  -11.8325 C   0  0  0  0  0  0  0  0  0  0  0  0
   21.5443  -19.8131  -10.6476 N   0  0  0  0  0  0  0  0  0  0  0  0
   21.4929  -18.4853  -10.8370 C   0  0  0  0  0  0  0  0  0  0  0  0
   21.4244  -18.2578  -12.1547 O   0  0  0  0  0  0  0  0  0  0  0  0
   20.0972  -21.3968  -15.4838 O   0  0  0  0  0  0  0  0  0  0  0  0
  1  2  1  0
  2  4  1  0
  3  2  2  0
  4  5  1  0
  6  5  1  0
  7  6  1  0
  8  9  1  1
  8  7  1  0
 10 20  1  0
 10  8  1  0
 11 10  2  0
 13 12  1  0
 14 13  2  0
 15 13  1  0
 16 15  1  0
 17 16  1  0
 17 18  1  0
 19 18  1  1
 19 20  1  0
 19 21  1  0
 21 22  2  0
 23 21  1  0
 23 24  1  0
 24 25  1  1
 25 26  1  0
 26 30  1  0
 26 27  2  0
 27 28  1  0
 29 28  1  0
 30 29  2  0
 31 32  1  0
 31 24  1  0
 33 31  2  0
M  END
$$$$
