RRH.pdb
     RDKit          3D

 33 33  0  0  1  0  0  0  0  0999 V2000
   23.7474  -27.9235  -16.5573 N   0  0  0  0  0  0  0  0  0  0  0  0
   23.2617  -26.6462  -16.9577 C   0  0  0  0  0  0  0  0  0  0  0  0
   23.8080  -26.1241  -18.0064 N   0  0  0  0  0  0  0  0  0  0  0  0
   22.2387  -26.0136  -16.2270 N   0  0  0  0  0  0  0  0  0  0  0  0
   21.6344  -26.7635  -15.1197 C   0  0  0  0  0  0  0  0  0  0  0  0
   20.2431  -27.1031  -15.4963 C   0  0  0  0  0  0  0  0  0  0  0  0
   19.9545  -28.5407  -15.7376 C   0  0  0  0  0  0  0  0  0  0  0  0
   19.6415  -29.2827  -14.4794 C   0  0  2  0  0  0  0  0  0  0  0  0
   19.1505  -30.5991  -14.7881 N   0  0  0  0  0  0  0  0  0  0  0  0
   18.6331  -28.5059  -13.6824 C   0  0  0  0  0  0  0  0  0  0  0  0
   17.5187  -28.2195  -14.1569 O   0  0  0  0  0  0  0  0  0  0  0  0
   23.5909  -25.1996  -18.3937 N   0  0  0  0  0  0  0  0  0  0  0  0
   18.5715  -25.1247   -6.2195 C   0  0  0  0  0  0  0  0  0  0  0  0
   17.1722  -25.3609   -6.2839 N   0  0  0  0  0  0  0  0  0  0  0  0
   16.3650  -24.5593   -5.6728 N   0  0  0  0  0  0  0  0  0  0  0  0
   16.6794  -26.4748   -7.0190 C   0  0  0  0  0  0  0  0  0  0  0  0
   17.6443  -27.2101   -7.8316 C   0  0  0  0  0  0  0  0  0  0  0  0
   17.3881  -26.7950   -9.2765 C   0  0  0  0  0  0  0  0  0  0  0  0
   18.4114  -27.5489  -10.1254 C   0  0  2  0  0  0  0  0  0  0  0  0
   18.0278  -27.3211  -11.5671 N   0  0  0  0  0  0  0  0  0  0  0  0
   18.9525  -28.0925  -12.3722 C   0  0  0  0  0  0  0  0  0  0  0  0
   18.0571  -25.9190  -11.9673 O   0  0  0  0  0  0  0  0  0  0  0  0
   19.1391  -25.4176  -12.3671 N   0  0  0  0  0  0  0  0  0  0  0  0
   15.3426  -24.7285   -5.6810 C   0  0  2  0  0  0  0  0  0  0  0  0
   16.9348  -25.0475  -11.9425 C   0  0  0  0  0  0  0  0  0  0  0  0
   17.0048  -23.7286  -12.5396 C   0  0  0  0  0  0  0  0  0  0  0  0
   17.4307  -23.8221  -13.9891 C   0  0  0  0  0  0  0  0  0  0  0  0
   17.4273  -22.5233  -14.6647 N   0  0  0  0  0  0  0  0  0  0  0  0
   17.1702  -21.3047  -14.0663 C   0  0  0  0  0  0  0  0  0  0  0  0
   17.2633  -20.3697  -15.0126 N   0  0  0  0  0  0  0  0  0  0  0  0
   17.5689  -20.9567  -16.1803 C   0  0  0  0  0  0  0  0  0  0  0  0
   17.6692  -22.2747  -15.9670 O   0  0  0  0  0  0  0  0  0  0  0  0
   15.6715  -23.0520  -12.4202 O   0  0  0  0  0  0  0  0  0  0  0  0
  1  2  1  0
  2  4  1  0
  3  2  2  0
  4  5  1  0
  6  5  1  0
  7  6  1  0
  8  9  1  6
  8  7  1  0
 10 20  1  0
 10  8  1  0
 11 10  2  0
 13 12  1  0
 14 13  2  0
 15 13  1  0
 16 15  1  0
 17 16  1  0
 17 18  1  0
 19 18  1  1
 19 20  1  0
 19 21  1  0
 21 22  2  0
 23 21  1  0
 23 24  1  0
 24 25  1  1
 25 26  1  0
 26 30  1  0
 26 27  2  0
 27 28  1  0
 29 28  1  0
 30 29  2  0
 31 32  1  0
 31 24  1  0
 33 31  2  0
M  END
$$$$
