RRH.pdb
     RDKit          3D

 33 33  0  0  1  0  0  0  0  0999 V2000
   27.2285  -25.8932  -18.3262 N   0  0  0  0  0  0  0  0  0  0  0  0
   27.5711  -25.9553  -16.9454 C   0  0  0  0  0  0  0  0  0  0  0  0
   28.8011  -26.2404  -16.6686 N   0  0  0  0  0  0  0  0  0  0  0  0
   26.5965  -25.7130  -15.9595 N   0  0  0  0  0  0  0  0  0  0  0  0
   25.2358  -25.4040  -16.4141 C   0  0  0  0  0  0  0  0  0  0  0  0
   24.9683  -23.9747  -16.1343 C   0  0  0  0  0  0  0  0  0  0  0  0
   24.0659  -23.6813  -14.9906 C   0  0  0  0  0  0  0  0  0  0  0  0
   22.7051  -24.2721  -15.1667 C   0  0  2  0  0  0  0  0  0  0  0  0
   22.6111  -24.9317  -16.4417 N   0  0  0  0  0  0  0  0  0  0  0  0
   21.6733  -23.1876  -15.0449 C   0  0  0  0  0  0  0  0  0  0  0  0
   21.2044  -22.6278  -16.0530 O   0  0  0  0  0  0  0  0  0  0  0  0
   29.1928  -26.3363  -15.7256 N   0  0  0  0  0  0  0  0  0  0  0  0
   16.4463  -24.7499   -9.1615 C   0  0  0  0  0  0  0  0  0  0  0  0
   17.7842  -25.1350   -9.4441 N   0  0  0  0  0  0  0  0  0  0  0  0
   18.2425  -26.2396   -8.9567 N   0  0  0  0  0  0  0  0  0  0  0  0
   18.5998  -24.3008  -10.2581 C   0  0  0  0  0  0  0  0  0  0  0  0
   17.9675  -23.1180  -10.8353 C   0  0  0  0  0  0  0  0  0  0  0  0
   18.5134  -22.9927  -12.2539 C   0  0  0  0  0  0  0  0  0  0  0  0
   19.6549  -21.9787  -12.1844 C   0  0  2  0  0  0  0  0  0  0  0  0
   20.1731  -21.8152  -13.5923 N   0  0  0  0  0  0  0  0  0  0  0  0
   21.2258  -22.7949  -13.7663 C   0  0  0  0  0  0  0  0  0  0  0  0
   20.6754  -20.4767  -13.8805 O   0  0  0  0  0  0  0  0  0  0  0  0
   21.5262  -19.9617  -13.1106 N   0  0  0  0  0  0  0  0  0  0  0  0
   19.2002  -26.5629   -9.1855 C   0  0  2  0  0  0  0  0  0  0  0  0
   20.2729  -19.6833  -14.9888 C   0  0  0  0  0  0  0  0  0  0  0  0
   20.9056  -18.4074  -15.2582 C   0  0  0  0  0  0  0  0  0  0  0  0
   20.8002  -17.4960  -14.0542 C   0  0  0  0  0  0  0  0  0  0  0  0
   19.4246  -17.0761  -13.7811 N   0  0  0  0  0  0  0  0  0  0  0  0
   18.3225  -17.3714  -14.5605 C   0  0  0  0  0  0  0  0  0  0  0  0
   17.2617  -16.8125  -13.9768 N   0  0  0  0  0  0  0  0  0  0  0  0
   17.6579  -16.1788  -12.8619 C   0  0  0  0  0  0  0  0  0  0  0  0
   18.9816  -16.3403  -12.7425 O   0  0  0  0  0  0  0  0  0  0  0  0
   22.3409  -18.6279  -15.6337 O   0  0  0  0  0  0  0  0  0  0  0  0
  1  2  1  0
  2  4  1  0
  3  2  2  0
  4  5  1  0
  6  5  1  0
  7  6  1  0
  8  9  1  6
  8  7  1  0
 10 20  1  0
 10  8  1  0
 11 10  2  0
 13 12  1  0
 14 13  2  0
 15 13  1  0
 16 15  1  0
 17 16  1  0
 17 18  1  0
 19 18  1  6
 19 20  1  0
 19 21  1  0
 21 22  2  0
 23 21  1  0
 23 24  1  0
 24 25  1  1
 25 26  1  0
 26 30  1  0
 26 27  2  0
 27 28  1  0
 29 28  1  0
 30 29  2  0
 31 32  1  0
 31 24  1  0
 33 31  2  0
M  END
$$$$
