RRH.pdb
     RDKit          3D

 33 33  0  0  1  0  0  0  0  0999 V2000
   29.5578  -25.1833  -19.2867 N   0  0  0  0  0  0  0  0  0  0  0  0
   29.1571  -23.9566  -19.8888 C   0  0  0  0  0  0  0  0  0  0  0  0
   29.8311  -23.5748  -20.9236 N   0  0  0  0  0  0  0  0  0  0  0  0
   28.0789  -23.2235  -19.3591 N   0  0  0  0  0  0  0  0  0  0  0  0
   27.2181  -23.8972  -18.3801 C   0  0  0  0  0  0  0  0  0  0  0  0
   26.1081  -22.9808  -18.0324 C   0  0  0  0  0  0  0  0  0  0  0  0
   25.0546  -23.5261  -17.1374 C   0  0  0  0  0  0  0  0  0  0  0  0
   25.6105  -24.0748  -15.8639 C   0  0  2  0  0  0  0  0  0  0  0  0
   25.5809  -25.5128  -15.8880 N   0  0  0  0  0  0  0  0  0  0  0  0
   24.8187  -23.5399  -14.7052 C   0  0  0  0  0  0  0  0  0  0  0  0
   23.8765  -24.1884  -14.2142 O   0  0  0  0  0  0  0  0  0  0  0  0
   29.7229  -22.6768  -21.4070 N   0  0  0  0  0  0  0  0  0  0  0  0
   30.2750  -20.2553  -11.4921 C   0  0  0  0  0  0  0  0  0  0  0  0
   29.7709  -21.2703  -10.6355 N   0  0  0  0  0  0  0  0  0  0  0  0
   30.5692  -21.8523   -9.8038 N   0  0  0  0  0  0  0  0  0  0  0  0
   28.3967  -21.6316  -10.7050 C   0  0  0  0  0  0  0  0  0  0  0  0
   27.5562  -20.8633  -11.6188 C   0  0  0  0  0  0  0  0  0  0  0  0
   26.1309  -21.3635  -11.4088 C   0  0  0  0  0  0  0  0  0  0  0  0
   25.2686  -20.6444  -12.4459 C   0  0  2  0  0  0  0  0  0  0  0  0
   24.3871  -21.6942  -13.0769 N   0  0  0  0  0  0  0  0  0  0  0  0
   25.1470  -22.2804  -14.1619 C   0  0  0  0  0  0  0  0  0  0  0  0
   23.1178  -21.1740  -13.5720 O   0  0  0  0  0  0  0  0  0  0  0  0
   23.1128  -20.4353  -14.5900 N   0  0  0  0  0  0  0  0  0  0  0  0
   30.2262  -22.6029   -9.1769 C   0  0  2  0  0  0  0  0  0  0  0  0
   21.8512  -21.4385  -12.9844 C   0  0  0  0  0  0  0  0  0  0  0  0
   20.6535  -20.7861  -13.4751 C   0  0  0  0  0  0  0  0  0  0  0  0
   19.4898  -21.7540  -13.4947 C   0  0  0  0  0  0  0  0  0  0  0  0
   18.2442  -21.1320  -13.9474 N   0  0  0  0  0  0  0  0  0  0  0  0
   17.8146  -19.8597  -13.6220 C   0  0  0  0  0  0  0  0  0  0  0  0
   16.6423  -19.6688  -14.2286 N   0  0  0  0  0  0  0  0  0  0  0  0
   16.3221  -20.7732  -14.9211 C   0  0  0  0  0  0  0  0  0  0  0  0
   17.3026  -21.6684  -14.7487 O   0  0  0  0  0  0  0  0  0  0  0  0
   20.3413  -19.5972  -12.6156 O   0  0  0  0  0  0  0  0  0  0  0  0
  1  2  1  0
  2  4  1  0
  3  2  2  0
  4  5  1  0
  6  5  1  0
  7  6  1  0
  8  9  1  6
  8  7  1  0
 10 20  1  0
 10  8  1  0
 11 10  2  0
 13 12  1  0
 14 13  2  0
 15 13  1  0
 16 15  1  0
 17 16  1  0
 17 18  1  0
 19 18  1  1
 19 20  1  0
 19 21  1  0
 21 22  2  0
 23 21  1  0
 23 24  1  0
 24 25  1  1
 25 26  1  0
 26 30  1  0
 26 27  2  0
 27 28  1  0
 29 28  1  0
 30 29  2  0
 31 32  1  0
 31 24  1  0
 33 31  2  0
M  END
$$$$
