RRH.pdb
     RDKit          3D

 33 33  0  0  1  0  0  0  0  0999 V2000
   17.9982  -31.8488  -16.9012 N   0  0  0  0  0  0  0  0  0  0  0  0
   18.9185  -31.6720  -15.8290 C   0  0  0  0  0  0  0  0  0  0  0  0
   18.4284  -31.7218  -14.6340 N   0  0  0  0  0  0  0  0  0  0  0  0
   20.2841  -31.4565  -16.0925 N   0  0  0  0  0  0  0  0  0  0  0  0
   20.7074  -31.4346  -17.4974 C   0  0  0  0  0  0  0  0  0  0  0  0
   22.1762  -31.2501  -17.5349 C   0  0  0  0  0  0  0  0  0  0  0  0
   22.7016  -29.9959  -16.9356 C   0  0  0  0  0  0  0  0  0  0  0  0
   24.1572  -29.7960  -17.2061 C   0  0  2  0  0  0  0  0  0  0  0  0
   24.9201  -30.8784  -16.6441 N   0  0  0  0  0  0  0  0  0  0  0  0
   24.5922  -28.4774  -16.6337 C   0  0  0  0  0  0  0  0  0  0  0  0
   25.5143  -28.4092  -15.8003 O   0  0  0  0  0  0  0  0  0  0  0  0
   18.9696  -31.6611  -13.7650 N   0  0  0  0  0  0  0  0  0  0  0  0
   30.6400  -24.6991  -17.7147 C   0  0  0  0  0  0  0  0  0  0  0  0
   29.9623  -25.7101  -16.9821 N   0  0  0  0  0  0  0  0  0  0  0  0
   30.6309  -26.7125  -16.5175 N   0  0  0  0  0  0  0  0  0  0  0  0
   28.5594  -25.6056  -16.7707 C   0  0  0  0  0  0  0  0  0  0  0  0
   27.8644  -24.5260  -17.4660 C   0  0  0  0  0  0  0  0  0  0  0  0
   26.4277  -24.5456  -16.9546 C   0  0  0  0  0  0  0  0  0  0  0  0
   25.8709  -25.9271  -17.2977 C   0  0  2  0  0  0  0  0  0  0  0  0
   24.4745  -25.9831  -16.7283 N   0  0  0  0  0  0  0  0  0  0  0  0
   23.9459  -27.2937  -17.0466 C   0  0  0  0  0  0  0  0  0  0  0  0
   23.5899  -24.9431  -17.2410 O   0  0  0  0  0  0  0  0  0  0  0  0
   23.4488  -24.8157  -18.4843 N   0  0  0  0  0  0  0  0  0  0  0  0
   30.1486  -27.4952  -16.0390 C   0  0  2  0  0  0  0  0  0  0  0  0
   22.8538  -24.0363  -16.4314 C   0  0  0  0  0  0  0  0  0  0  0  0
   21.9211  -23.0989  -17.0248 C   0  0  0  0  0  0  0  0  0  0  0  0
   20.9333  -23.8219  -17.9153 C   0  0  0  0  0  0  0  0  0  0  0  0
   19.9499  -22.9204  -18.5182 N   0  0  0  0  0  0  0  0  0  0  0  0
   20.2308  -21.7097  -19.1220 C   0  0  0  0  0  0  0  0  0  0  0  0
   19.0736  -21.1973  -19.5424 N   0  0  0  0  0  0  0  0  0  0  0  0
   18.0793  -22.0412  -19.2248 C   0  0  0  0  0  0  0  0  0  0  0  0
   18.6160  -23.0956  -18.5980 O   0  0  0  0  0  0  0  0  0  0  0  0
   21.2076  -22.3463  -15.9412 O   0  0  0  0  0  0  0  0  0  0  0  0
  1  2  1  0
  2  4  1  0
  3  2  2  0
  4  5  1  0
  6  5  1  0
  7  6  1  0
  8  9  1  1
  8  7  1  0
 10 20  1  0
 10  8  1  0
 11 10  2  0
 13 12  1  0
 14 13  2  0
 15 13  1  0
 16 15  1  0
 17 16  1  0
 17 18  1  0
 19 18  1  1
 19 20  1  0
 19 21  1  0
 21 22  2  0
 23 21  1  0
 23 24  1  0
 24 25  1  6
 25 26  1  0
 26 30  1  0
 26 27  2  0
 27 28  1  0
 29 28  1  0
 30 29  2  0
 31 32  1  0
 31 24  1  0
 33 31  2  0
M  END
$$$$
