RRH.pdb
     RDKit          3D

 33 33  0  0  1  0  0  0  0  0999 V2000
   21.8790  -15.3509  -16.6501 N   0  0  0  0  0  0  0  0  0  0  0  0
   21.6796  -16.7429  -16.4251 C   0  0  0  0  0  0  0  0  0  0  0  0
   20.9878  -17.0653  -15.3820 N   0  0  0  0  0  0  0  0  0  0  0  0
   22.2215  -17.6912  -17.3125 N   0  0  0  0  0  0  0  0  0  0  0  0
   23.0531  -17.1908  -18.4133 C   0  0  0  0  0  0  0  0  0  0  0  0
   24.4127  -17.7572  -18.2599 C   0  0  0  0  0  0  0  0  0  0  0  0
   24.5313  -18.9763  -17.4185 C   0  0  0  0  0  0  0  0  0  0  0  0
   25.9307  -19.4949  -17.3527 C   0  0  2  0  0  0  0  0  0  0  0  0
   26.2170  -20.3000  -18.5101 N   0  0  0  0  0  0  0  0  0  0  0  0
   26.1080  -20.2873  -16.0893 C   0  0  0  0  0  0  0  0  0  0  0  0
   25.5279  -21.3763  -15.9246 O   0  0  0  0  0  0  0  0  0  0  0  0
   20.6816  -18.0136  -15.1398 N   0  0  0  0  0  0  0  0  0  0  0  0
   32.7821  -21.3162  -10.7144 C   0  0  0  0  0  0  0  0  0  0  0  0
   31.6894  -21.8221   -9.9605 N   0  0  0  0  0  0  0  0  0  0  0  0
   31.9106  -22.3678   -8.8112 N   0  0  0  0  0  0  0  0  0  0  0  0
   30.3690  -21.7214  -10.4803 C   0  0  0  0  0  0  0  0  0  0  0  0
   30.2046  -20.9848  -11.7303 C   0  0  0  0  0  0  0  0  0  0  0  0
   28.7208  -21.0570  -12.0752 C   0  0  0  0  0  0  0  0  0  0  0  0
   28.5593  -20.3458  -13.4184 C   0  0  1  0  0  0  0  0  0  0  0  0
   27.1077  -20.4829  -13.8075 N   0  0  0  0  0  0  0  0  0  0  0  0
   26.9465  -19.7907  -15.0697 C   0  0  0  0  0  0  0  0  0  0  0  0
   26.1817  -19.9483  -12.8158 O   0  0  0  0  0  0  0  0  0  0  0  0
   25.7425  -18.7779  -12.9547 N   0  0  0  0  0  0  0  0  0  0  0  0
   31.1281  -22.7345   -8.2392 C   0  0  2  0  0  0  0  0  0  0  0  0
   25.7213  -20.6581  -11.6740 C   0  0  0  0  0  0  0  0  0  0  0  0
   24.3958  -20.4224  -11.1369 C   0  0  0  0  0  0  0  0  0  0  0  0
   23.3371  -20.7579  -12.1654 C   0  0  0  0  0  0  0  0  0  0  0  0
   21.9764  -20.5751  -11.6570 N   0  0  0  0  0  0  0  0  0  0  0  0
   21.4560  -19.3983  -11.1533 C   0  0  0  0  0  0  0  0  0  0  0  0
   20.1939  -19.6418  -10.7980 N   0  0  0  0  0  0  0  0  0  0  0  0
   19.9046  -20.9260  -11.0602 C   0  0  0  0  0  0  0  0  0  0  0  0
   20.9958  -21.4969  -11.5859 O   0  0  0  0  0  0  0  0  0  0  0  0
   24.2056  -21.2385   -9.8929 O   0  0  0  0  0  0  0  0  0  0  0  0
  1  2  1  0
  2  4  1  0
  3  2  2  0
  4  5  1  0
  6  5  1  0
  7  6  1  0
  8  9  1  6
  8  7  1  0
 10 20  1  0
 10  8  1  0
 11 10  2  0
 13 12  1  0
 14 13  2  0
 15 13  1  0
 16 15  1  0
 17 16  1  0
 17 18  1  0
 19 18  1  6
 19 20  1  0
 19 21  1  0
 21 22  2  0
 23 21  1  0
 23 24  1  0
 24 25  1  1
 25 26  1  0
 26 30  1  0
 26 27  2  0
 27 28  1  0
 29 28  1  0
 30 29  2  0
 31 32  1  0
 31 24  1  0
 33 31  2  0
M  END
$$$$
