RRH.pdb
     RDKit          3D

 33 33  0  0  1  0  0  0  0  0999 V2000
   27.7090  -14.2864  -16.6084 N   0  0  0  0  0  0  0  0  0  0  0  0
   28.0715  -14.2108  -17.9835 C   0  0  0  0  0  0  0  0  0  0  0  0
   27.1190  -14.3780  -18.8411 N   0  0  0  0  0  0  0  0  0  0  0  0
   29.4067  -13.9651  -18.3543 N   0  0  0  0  0  0  0  0  0  0  0  0
   30.3577  -13.6408  -17.2847 C   0  0  0  0  0  0  0  0  0  0  0  0
   30.9872  -12.3393  -17.6049 C   0  0  0  0  0  0  0  0  0  0  0  0
   32.0888  -11.8985  -16.7101 C   0  0  0  0  0  0  0  0  0  0  0  0
   32.6235  -10.5528  -17.0774 C   0  0  2  0  0  0  0  0  0  0  0  0
   32.3834  -10.2863  -18.4705 N   0  0  0  0  0  0  0  0  0  0  0  0
   34.0915  -10.4994  -16.7650 C   0  0  0  0  0  0  0  0  0  0  0  0
   34.9366  -10.9507  -17.5597 O   0  0  0  0  0  0  0  0  0  0  0  0
   27.2223  -14.3426  -19.8608 N   0  0  0  0  0  0  0  0  0  0  0  0
   38.3155   -3.8462  -16.4206 C   0  0  0  0  0  0  0  0  0  0  0  0
   37.6464   -3.9065  -15.1688 N   0  0  0  0  0  0  0  0  0  0  0  0
   37.5470   -2.8378  -14.4509 N   0  0  0  0  0  0  0  0  0  0  0  0
   37.0962   -5.1405  -14.7235 C   0  0  0  0  0  0  0  0  0  0  0  0
   36.9641   -6.2025  -15.7168 C   0  0  0  0  0  0  0  0  0  0  0  0
   36.4002   -7.4106  -14.9762 C   0  0  0  0  0  0  0  0  0  0  0  0
   36.4249   -8.5711  -15.9705 C   0  0  1  0  0  0  0  0  0  0  0  0
   35.9280   -9.7868  -15.2274 N   0  0  0  0  0  0  0  0  0  0  0  0
   34.5228   -9.9279  -15.5498 C   0  0  0  0  0  0  0  0  0  0  0  0
   36.1095   -9.7058  -13.7826 O   0  0  0  0  0  0  0  0  0  0  0  0
   35.1171   -9.8770  -13.0290 N   0  0  0  0  0  0  0  0  0  0  0  0
   37.0190   -2.8455  -13.5591 C   0  0  2  0  0  0  0  0  0  0  0  0
   37.3476   -9.4422  -13.1368 C   0  0  0  0  0  0  0  0  0  0  0  0
   37.4603   -9.5019  -11.6930 C   0  0  0  0  0  0  0  0  0  0  0  0
   37.1784  -10.9029  -11.1942 C   0  0  0  0  0  0  0  0  0  0  0  0
   37.2413  -11.0075   -9.7353 N   0  0  0  0  0  0  0  0  0  0  0  0
   38.2446  -11.6267   -9.0147 C   0  0  0  0  0  0  0  0  0  0  0  0
   37.9378  -11.5068   -7.7224 N   0  0  0  0  0  0  0  0  0  0  0  0
   36.7808  -10.8362   -7.6069 C   0  0  0  0  0  0  0  0  0  0  0  0
   36.3549  -10.5308   -8.8390 O   0  0  0  0  0  0  0  0  0  0  0  0
   38.8306   -9.0556  -11.2773 O   0  0  0  0  0  0  0  0  0  0  0  0
  1  2  1  0
  2  4  1  0
  3  2  2  0
  4  5  1  0
  6  5  1  0
  7  6  1  0
  8  9  1  6
  8  7  1  0
 10 20  1  0
 10  8  1  0
 11 10  2  0
 13 12  1  0
 14 13  2  0
 15 13  1  0
 16 15  1  0
 17 16  1  0
 17 18  1  0
 19 18  1  6
 19 20  1  0
 19 21  1  0
 21 22  2  0
 23 21  1  0
 23 24  1  0
 24 25  1  1
 25 26  1  0
 26 30  1  0
 26 27  2  0
 27 28  1  0
 29 28  1  0
 30 29  2  0
 31 32  1  0
 31 24  1  0
 33 31  2  0
M  END
$$$$
