RRH.pdb
     RDKit          3D

 33 33  0  0  1  0  0  0  0  0999 V2000
   15.8355  -19.9036  -12.4041 N   0  0  0  0  0  0  0  0  0  0  0  0
   15.8648  -19.8886  -13.8278 C   0  0  0  0  0  0  0  0  0  0  0  0
   15.3712  -18.8421  -14.4039 N   0  0  0  0  0  0  0  0  0  0  0  0
   16.4104  -20.9735  -14.5390 N   0  0  0  0  0  0  0  0  0  0  0  0
   17.7723  -21.3951  -14.1910 C   0  0  0  0  0  0  0  0  0  0  0  0
   18.6833  -20.2503  -14.4200 C   0  0  0  0  0  0  0  0  0  0  0  0
   20.1257  -20.4881  -14.1534 C   0  0  0  0  0  0  0  0  0  0  0  0
   20.7260  -21.4854  -15.0898 C   0  0  2  0  0  0  0  0  0  0  0  0
   19.9818  -22.7158  -15.0488 N   0  0  0  0  0  0  0  0  0  0  0  0
   22.1631  -21.7135  -14.7180 C   0  0  0  0  0  0  0  0  0  0  0  0
   22.5666  -22.8359  -14.3622 O   0  0  0  0  0  0  0  0  0  0  0  0
   15.3251  -18.6852  -15.4163 N   0  0  0  0  0  0  0  0  0  0  0  0
   28.7420  -23.9806  -16.7290 C   0  0  0  0  0  0  0  0  0  0  0  0
   27.5511  -24.7541  -16.7688 N   0  0  0  0  0  0  0  0  0  0  0  0
   27.5860  -25.9911  -16.4000 N   0  0  0  0  0  0  0  0  0  0  0  0
   26.3387  -24.1574  -17.2136 C   0  0  0  0  0  0  0  0  0  0  0  0
   26.3882  -22.7406  -17.5633 C   0  0  0  0  0  0  0  0  0  0  0  0
   26.1913  -21.9732  -16.2602 C   0  0  0  0  0  0  0  0  0  0  0  0
   24.6926  -21.6931  -16.1516 C   0  0  2  0  0  0  0  0  0  0  0  0
   24.4997  -20.8498  -14.9151 N   0  0  0  0  0  0  0  0  0  0  0  0
   23.0738  -20.6379  -14.7724 C   0  0  0  0  0  0  0  0  0  0  0  0
   25.1986  -19.5707  -14.9627 O   0  0  0  0  0  0  0  0  0  0  0  0
   25.1988  -18.9111  -16.0337 N   0  0  0  0  0  0  0  0  0  0  0  0
   26.7297  -26.5747  -16.4206 C   0  0  1  0  0  0  0  0  0  0  0  0
   25.8991  -18.9909  -13.8706 C   0  0  0  0  0  0  0  0  0  0  0  0
   27.3299  -19.1716  -13.7253 C   0  0  0  0  0  0  0  0  0  0  0  0
   27.6290  -20.3349  -12.8041 C   0  0  0  0  0  0  0  0  0  0  0  0
   26.6693  -20.4469  -11.7042 N   0  0  0  0  0  0  0  0  0  0  0  0
   25.5645  -19.6391  -11.5138 C   0  0  0  0  0  0  0  0  0  0  0  0
   24.9494  -20.0610  -10.4083 N   0  0  0  0  0  0  0  0  0  0  0  0
   25.6272  -21.1020   -9.8997 C   0  0  0  0  0  0  0  0  0  0  0  0
   26.6796  -21.3378  -10.6930 O   0  0  0  0  0  0  0  0  0  0  0  0
   27.9481  -19.3896  -15.0744 O   0  0  0  0  0  0  0  0  0  0  0  0
  1  2  1  0
  2  4  1  0
  3  2  2  0
  4  5  1  0
  6  5  1  0
  7  6  1  0
  8  9  1  1
  8  7  1  0
 10 20  1  0
 10  8  1  0
 11 10  2  0
 13 12  1  0
 14 13  2  0
 15 13  1  0
 16 15  1  0
 17 16  1  0
 17 18  1  0
 19 18  1  1
 19 20  1  0
 19 21  1  0
 21 22  2  0
 23 21  1  0
 23 24  1  0
 24 25  1  1
 25 26  1  0
 26 30  1  0
 26 27  2  0
 27 28  1  0
 29 28  1  0
 30 29  2  0
 31 32  1  0
 31 24  1  0
 33 31  2  0
M  END
$$$$
