DLF.pdb
     RDKit          3D

 28 28  0  0  1  0  0  0  0  0999 V2000
    8.8495  -18.6032   20.4777 N   0  0  0  0  0  0  0  0  0  0  0  0
   10.1861  -18.0773   20.3952 C   0  0  1  0  0  0  0  0  0  0  0  0
   10.6825  -17.9608   18.9796 C   0  0  0  0  0  0  0  0  0  0  0  0
   10.7741  -19.3202   18.4020 C   0  0  0  0  0  0  0  0  0  0  0  0
    9.8060  -20.0974   18.5396 O   0  0  0  0  0  0  0  0  0  0  0  0
   10.2033  -16.7249   21.0299 C   0  0  0  0  0  0  0  0  0  0  0  0
   11.2700  -16.0841   21.1371 O   0  0  0  0  0  0  0  0  0  0  0  0
   11.8946  -19.7095   17.7347 O   0  0  0  0  0  0  0  0  0  0  0  0
    8.7032  -13.0572   19.6580 C   0  0  0  0  0  0  0  0  0  0  0  0
    7.5677  -13.8491   20.3460 C   0  0  2  0  0  0  0  0  0  0  0  0
    6.2537  -13.2350   20.0349 C   0  0  0  0  0  0  0  0  0  0  0  0
    7.8794  -13.9941   21.7861 C   0  0  0  0  0  0  0  0  0  0  0  0
    9.0217  -14.8560   22.1391 C   0  0  2  0  0  0  0  0  0  0  0  0
    9.0155  -16.1357   21.5248 N   0  0  0  0  0  0  0  0  0  0  0  0
    9.2485  -14.9399   23.6188 C   0  0  0  0  0  0  0  0  0  0  0  0
    9.7970  -13.9755   24.2124 O   0  0  0  0  0  0  0  0  0  0  0  0
    8.8747  -16.0616   24.3991 N   0  0  0  0  0  0  0  0  0  0  0  0
    9.2242  -16.1877   25.8241 C   0  0  1  0  0  0  0  0  0  0  0  0
    8.0479  -15.8566   26.6726 C   0  0  0  0  0  0  0  0  0  0  0  0
    7.8389  -14.4021   26.7039 C   0  0  0  0  0  0  0  0  0  0  0  0
    8.9097  -13.6049   27.0543 C   0  0  0  0  0  0  0  0  0  0  0  0
    8.8109  -12.2421   27.1017 C   0  0  0  0  0  0  0  0  0  0  0  0
    7.6049  -11.6502   26.7896 C   0  0  0  0  0  0  0  0  0  0  0  0
    6.5221  -12.4163   26.4373 C   0  0  0  0  0  0  0  0  0  0  0  0
    6.6578  -13.7869   26.4000 C   0  0  0  0  0  0  0  0  0  0  0  0
    9.8749  -17.4658   26.0895 C   0  0  0  0  0  0  0  0  0  0  0  0
   10.3844  -17.8792   27.3088 O   0  0  0  0  0  0  0  0  0  0  0  0
    9.9965  -18.2876   25.1294 O   0  0  0  0  0  0  0  0  0  0  0  0
  2  3  1  0
  2  1  1  6
  4  3  1  0
  5  4  2  0
  6  2  1  0
  7  6  2  0
  8  4  1  0
 10  9  1  6
 10 12  1  0
 10 11  1  0
 13 12  1  1
 13 14  1  0
 14  6  1  0
 15 13  1  0
 15 16  2  0
 17 15  1  0
 18 17  1  0
 18 19  1  1
 19 20  1  0
 20 21  2  0
 20 25  1  0
 21 22  1  0
 22 23  2  0
 24 23  1  0
 25 24  2  0
 26 18  1  0
 27 26  1  0
 28 26  2  0
M  END
$$$$
