DLF.pdb
     RDKit          3D

 28 28  0  0  1  0  0  0  0  0999 V2000
    8.5282  -18.5159   19.9669 N   0  0  0  0  0  0  0  0  0  0  0  0
    9.9350  -18.2257   20.0499 C   0  0  1  0  0  0  0  0  0  0  0  0
   10.6082  -18.2043   18.7044 C   0  0  0  0  0  0  0  0  0  0  0  0
   10.9452  -19.5950   18.3273 C   0  0  0  0  0  0  0  0  0  0  0  0
   10.2983  -20.5306   18.8433 O   0  0  0  0  0  0  0  0  0  0  0  0
   10.1061  -16.8920   20.7010 C   0  0  0  0  0  0  0  0  0  0  0  0
   11.2014  -16.2936   20.6513 O   0  0  0  0  0  0  0  0  0  0  0  0
   11.9420  -19.8428   17.4342 O   0  0  0  0  0  0  0  0  0  0  0  0
    7.0144  -12.3007   20.5559 C   0  0  0  0  0  0  0  0  0  0  0  0
    8.1495  -13.3501   20.5666 C   0  0  2  0  0  0  0  0  0  0  0  0
    8.0524  -14.2219   19.3704 C   0  0  0  0  0  0  0  0  0  0  0  0
    8.1501  -14.0525   21.8700 C   0  0  0  0  0  0  0  0  0  0  0  0
    9.2113  -15.0513   22.0904 C   0  0  2  0  0  0  0  0  0  0  0  0
    9.0355  -16.2728   21.3892 N   0  0  0  0  0  0  0  0  0  0  0  0
    9.5074  -15.2708   23.5437 C   0  0  0  0  0  0  0  0  0  0  0  0
   10.5958  -14.8553   24.0190 O   0  0  0  0  0  0  0  0  0  0  0  0
    8.6170  -15.9303   24.4263 N   0  0  0  0  0  0  0  0  0  0  0  0
    8.9468  -16.1885   25.8382 C   0  0  1  0  0  0  0  0  0  0  0  0
    7.8436  -15.7170   26.7178 C   0  0  0  0  0  0  0  0  0  0  0  0
    7.6622  -14.2660   26.5697 C   0  0  0  0  0  0  0  0  0  0  0  0
    6.4604  -13.8156   26.0621 C   0  0  0  0  0  0  0  0  0  0  0  0
    6.1992  -12.4837   25.8976 C   0  0  0  0  0  0  0  0  0  0  0  0
    7.1670  -11.5664   26.2500 C   0  0  0  0  0  0  0  0  0  0  0  0
    8.3720  -11.9836   26.7576 C   0  0  0  0  0  0  0  0  0  0  0  0
    8.6008  -13.3337   26.9098 C   0  0  0  0  0  0  0  0  0  0  0  0
    9.3816  -17.5678   26.0275 C   0  0  0  0  0  0  0  0  0  0  0  0
    9.4927  -18.5271   25.0352 O   0  0  0  0  0  0  0  0  0  0  0  0
    9.6897  -17.9438   27.2004 O   0  0  0  0  0  0  0  0  0  0  0  0
  2  3  1  0
  2  1  1  6
  4  3  1  0
  5  4  2  0
  6  2  1  0
  7  6  2  0
  8  4  1  0
 10  9  1  1
 10 12  1  0
 10 11  1  0
 13 12  1  1
 13 14  1  0
 14  6  1  0
 15 13  1  0
 15 16  2  0
 17 15  1  0
 18 17  1  0
 18 19  1  1
 19 20  1  0
 20 21  2  0
 20 25  1  0
 21 22  1  0
 22 23  2  0
 24 23  1  0
 25 24  2  0
 26 18  1  0
 27 26  1  0
 28 26  2  0
M  END
$$$$
