DLF.pdb
     RDKit          3D

 28 28  0  0  1  0  0  0  0  0999 V2000
    7.8467  -17.6574   20.7259 N   0  0  0  0  0  0  0  0  0  0  0  0
    9.2583  -17.3926   20.6399 C   0  0  1  0  0  0  0  0  0  0  0  0
    9.6979  -17.0082   19.2531 C   0  0  0  0  0  0  0  0  0  0  0  0
    9.3048  -18.0883   18.3210 C   0  0  0  0  0  0  0  0  0  0  0  0
    9.5485  -19.2719   18.6366 O   0  0  0  0  0  0  0  0  0  0  0  0
    9.5902  -16.2811   21.5813 C   0  0  0  0  0  0  0  0  0  0  0  0
   10.7522  -15.8278   21.6488 O   0  0  0  0  0  0  0  0  0  0  0  0
    8.6893  -17.7905   17.1442 O   0  0  0  0  0  0  0  0  0  0  0  0
    7.3550  -13.8891   26.1175 C   0  0  0  0  0  0  0  0  0  0  0  0
    7.8797  -13.0312   24.9434 C   0  0  2  0  0  0  0  0  0  0  0  0
    7.2143  -11.7055   24.9403 C   0  0  0  0  0  0  0  0  0  0  0  0
    7.7658  -13.8055   23.6866 C   0  0  0  0  0  0  0  0  0  0  0  0
    8.9070  -14.6654   23.3255 C   0  0  2  0  0  0  0  0  0  0  0  0
    8.6005  -15.7138   22.4190 N   0  0  0  0  0  0  0  0  0  0  0  0
    9.6640  -15.1563   24.5230 C   0  0  0  0  0  0  0  0  0  0  0  0
   10.1972  -14.3208   25.2982 O   0  0  0  0  0  0  0  0  0  0  0  0
    9.8158  -16.5294   24.8361 N   0  0  0  0  0  0  0  0  0  0  0  0
   10.5194  -16.9940   26.0436 C   0  0  1  0  0  0  0  0  0  0  0  0
    9.5642  -17.1227   27.1769 C   0  0  0  0  0  0  0  0  0  0  0  0
    9.6446  -15.9390   28.0444 C   0  0  0  0  0  0  0  0  0  0  0  0
   10.3172  -16.0636   29.2432 C   0  0  0  0  0  0  0  0  0  0  0  0
   10.4501  -15.0142   30.1095 C   0  0  0  0  0  0  0  0  0  0  0  0
    9.8950  -13.7975   29.7726 C   0  0  0  0  0  0  0  0  0  0  0  0
    9.2204  -13.6426   28.5874 C   0  0  0  0  0  0  0  0  0  0  0  0
    9.1058  -14.7217   27.7384 C   0  0  0  0  0  0  0  0  0  0  0  0
   11.3387  -18.1646   25.7510 C   0  0  0  0  0  0  0  0  0  0  0  0
   12.2243  -18.7739   26.6236 O   0  0  0  0  0  0  0  0  0  0  0  0
   11.2476  -18.6871   24.5974 O   0  0  0  0  0  0  0  0  0  0  0  0
  2  3  1  0
  2  1  1  6
  4  3  1  0
  5  4  2  0
  6  2  1  0
  7  6  2  0
  8  4  1  0
 10  9  1  1
 10 12  1  0
 10 11  1  0
 13 12  1  1
 13 14  1  0
 14  6  1  0
 15 13  1  0
 15 16  2  0
 17 15  1  0
 18 17  1  0
 18 19  1  1
 19 20  1  0
 20 21  2  0
 20 25  1  0
 21 22  1  0
 22 23  2  0
 24 23  1  0
 25 24  2  0
 26 18  1  0
 27 26  1  0
 28 26  2  0
M  END
$$$$
