DLF.pdb
     RDKit          3D

 28 28  0  0  1  0  0  0  0  0999 V2000
   10.7059  -18.6365   19.1674 N   0  0  0  0  0  0  0  0  0  0  0  0
    9.4507  -18.3652   19.8163 C   0  0  1  0  0  0  0  0  0  0  0  0
    8.9903  -19.4961   20.6955 C   0  0  0  0  0  0  0  0  0  0  0  0
    8.8557  -20.7119   19.8627 C   0  0  0  0  0  0  0  0  0  0  0  0
    9.5503  -20.8117   18.8294 O   0  0  0  0  0  0  0  0  0  0  0  0
    9.6036  -17.1334   20.6478 C   0  0  0  0  0  0  0  0  0  0  0  0
   10.6872  -16.8758   21.2131 O   0  0  0  0  0  0  0  0  0  0  0  0
    7.9898  -21.6987   20.2217 O   0  0  0  0  0  0  0  0  0  0  0  0
    9.1712  -12.8613   19.6645 C   0  0  0  0  0  0  0  0  0  0  0  0
    7.8006  -13.5171   19.9497 C   0  0  2  0  0  0  0  0  0  0  0  0
    6.7026  -12.6047   19.5469 C   0  0  0  0  0  0  0  0  0  0  0  0
    7.7649  -13.9768   21.3566 C   0  0  0  0  0  0  0  0  0  0  0  0
    8.6189  -15.1261   21.7061 C   0  0  2  0  0  0  0  0  0  0  0  0
    8.5286  -16.2285   20.8165 N   0  0  0  0  0  0  0  0  0  0  0  0
    8.4723  -15.5421   23.1391 C   0  0  0  0  0  0  0  0  0  0  0  0
    7.4671  -16.2158   23.4840 O   0  0  0  0  0  0  0  0  0  0  0  0
    9.4162  -15.2141   24.1431 N   0  0  0  0  0  0  0  0  0  0  0  0
    9.2207  -15.5651   25.5599 C   0  0  1  0  0  0  0  0  0  0  0  0
    7.7929  -15.3915   25.9397 C   0  0  0  0  0  0  0  0  0  0  0  0
    7.5192  -13.9815   26.2515 C   0  0  0  0  0  0  0  0  0  0  0  0
    6.2154  -13.5404   26.1481 C   0  0  0  0  0  0  0  0  0  0  0  0
    5.8656  -12.2483   26.4267 C   0  0  0  0  0  0  0  0  0  0  0  0
    6.8463  -11.3629   26.8222 C   0  0  0  0  0  0  0  0  0  0  0  0
    8.1516  -11.7720   26.9343 C   0  0  0  0  0  0  0  0  0  0  0  0
    8.4681  -13.0815   26.6455 C   0  0  0  0  0  0  0  0  0  0  0  0
    9.8186  -16.8605   25.8627 C   0  0  0  0  0  0  0  0  0  0  0  0
    9.9776  -17.4056   27.1256 O   0  0  0  0  0  0  0  0  0  0  0  0
   10.2386  -17.5679   24.8957 O   0  0  0  0  0  0  0  0  0  0  0  0
  2  3  1  0
  2  1  1  1
  4  3  1  0
  5  4  2  0
  6  2  1  0
  7  6  2  0
  8  4  1  0
 10  9  1  1
 10 12  1  0
 10 11  1  0
 13 12  1  6
 13 14  1  0
 14  6  1  0
 15 13  1  0
 15 16  2  0
 17 15  1  0
 18 17  1  0
 18 19  1  6
 19 20  1  0
 20 21  2  0
 20 25  1  0
 21 22  1  0
 22 23  2  0
 24 23  1  0
 25 24  2  0
 26 18  1  0
 27 26  1  0
 28 26  2  0
M  END
$$$$
