DLF.pdb
     RDKit          3D

 28 28  0  0  1  0  0  0  0  0999 V2000
    8.3176  -18.3382   19.8460 N   0  0  0  0  0  0  0  0  0  0  0  0
    9.7233  -18.0321   19.8299 C   0  0  1  0  0  0  0  0  0  0  0  0
   10.2746  -17.8879   18.4373 C   0  0  0  0  0  0  0  0  0  0  0  0
   10.1996  -19.2042   17.7652 C   0  0  0  0  0  0  0  0  0  0  0  0
    9.5363  -20.1158   18.3029 O   0  0  0  0  0  0  0  0  0  0  0  0
    9.9387  -16.7543   20.5734 C   0  0  0  0  0  0  0  0  0  0  0  0
   11.0931  -16.3331   20.7969 O   0  0  0  0  0  0  0  0  0  0  0  0
   10.8431  -19.4105   16.5838 O   0  0  0  0  0  0  0  0  0  0  0  0
    8.9480  -12.8337   19.3705 C   0  0  0  0  0  0  0  0  0  0  0  0
    7.7254  -13.4751   20.0660 C   0  0  2  0  0  0  0  0  0  0  0  0
    6.5112  -12.6581   19.8236 C   0  0  0  0  0  0  0  0  0  0  0  0
    8.0517  -13.7270   21.4881 C   0  0  0  0  0  0  0  0  0  0  0  0
    9.0372  -14.7859   21.7702 C   0  0  2  0  0  0  0  0  0  0  0  0
    8.8442  -15.9894   21.0426 N   0  0  0  0  0  0  0  0  0  0  0  0
    9.2162  -15.0346   23.2378 C   0  0  0  0  0  0  0  0  0  0  0  0
    9.8948  -14.2242   23.9205 O   0  0  0  0  0  0  0  0  0  0  0  0
    8.6559  -16.1483   23.9104 N   0  0  0  0  0  0  0  0  0  0  0  0
    8.7536  -16.3245   25.3693 C   0  0  1  0  0  0  0  0  0  0  0  0
    7.4385  -16.0508   26.0089 C   0  0  0  0  0  0  0  0  0  0  0  0
    7.3177  -14.6211   26.3275 C   0  0  0  0  0  0  0  0  0  0  0  0
    6.0807  -14.0289   26.1721 C   0  0  0  0  0  0  0  0  0  0  0  0
    5.8721  -12.7072   26.4526 C   0  0  0  0  0  0  0  0  0  0  0  0
    6.9304  -11.9465   26.9037 C   0  0  0  0  0  0  0  0  0  0  0  0
    8.1723  -12.5071   27.0683 C   0  0  0  0  0  0  0  0  0  0  0  0
    8.3463  -13.8423   26.7760 C   0  0  0  0  0  0  0  0  0  0  0  0
    9.3813  -17.5991   25.6990 C   0  0  0  0  0  0  0  0  0  0  0  0
    9.7844  -18.0029   26.9605 O   0  0  0  0  0  0  0  0  0  0  0  0
    9.5868  -18.4273   24.7588 O   0  0  0  0  0  0  0  0  0  0  0  0
  2  3  1  0
  2  1  1  6
  4  3  1  0
  5  4  2  0
  6  2  1  0
  7  6  2  0
  8  4  1  0
 10  9  1  1
 10 12  1  0
 10 11  1  0
 13 12  1  1
 13 14  1  0
 14  6  1  0
 15 13  1  0
 15 16  2  0
 17 15  1  0
 18 17  1  0
 18 19  1  1
 19 20  1  0
 20 21  2  0
 20 25  1  0
 21 22  1  0
 22 23  2  0
 24 23  1  0
 25 24  2  0
 26 18  1  0
 27 26  1  0
 28 26  2  0
M  END
$$$$
