DLF.pdb
     RDKit          3D

 28 28  0  0  1  0  0  0  0  0999 V2000
   11.4540  -16.9524   17.5432 N   0  0  0  0  0  0  0  0  0  0  0  0
   11.0973  -17.6642   18.7416 C   0  0  1  0  0  0  0  0  0  0  0  0
   12.1206  -18.6940   19.1368 C   0  0  0  0  0  0  0  0  0  0  0  0
   12.2349  -19.6844   18.0432 C   0  0  0  0  0  0  0  0  0  0  0  0
   11.2045  -20.2774   17.6602 O   0  0  0  0  0  0  0  0  0  0  0  0
   10.9466  -16.6765   19.8523 C   0  0  0  0  0  0  0  0  0  0  0  0
   11.9494  -16.2215   20.4418 O   0  0  0  0  0  0  0  0  0  0  0  0
   13.4427  -19.9390   17.4698 O   0  0  0  0  0  0  0  0  0  0  0  0
    9.0399  -12.7459   19.9515 C   0  0  0  0  0  0  0  0  0  0  0  0
    7.9878  -13.8578   20.1670 C   0  0  2  0  0  0  0  0  0  0  0  0
    6.6192  -13.2932   20.0733 C   0  0  0  0  0  0  0  0  0  0  0  0
    8.2950  -14.5815   21.4216 C   0  0  0  0  0  0  0  0  0  0  0  0
    9.4993  -15.4313   21.4252 C   0  0  2  0  0  0  0  0  0  0  0  0
    9.6680  -16.2313   20.2649 N   0  0  0  0  0  0  0  0  0  0  0  0
    9.6423  -16.2278   22.6873 C   0  0  0  0  0  0  0  0  0  0  0  0
    8.7087  -16.9943   23.0398 O   0  0  0  0  0  0  0  0  0  0  0  0
   10.7872  -16.1654   23.5191 N   0  0  0  0  0  0  0  0  0  0  0  0
   10.7213  -15.7408   24.9278 C   0  0  1  0  0  0  0  0  0  0  0  0
    9.6577  -14.7161   25.1061 C   0  0  0  0  0  0  0  0  0  0  0  0
    9.5974  -14.2873   26.5106 C   0  0  0  0  0  0  0  0  0  0  0  0
    8.5862  -13.4222   26.8771 C   0  0  0  0  0  0  0  0  0  0  0  0
    8.4465  -12.9772   28.1622 C   0  0  0  0  0  0  0  0  0  0  0  0
    9.3435  -13.4072   29.1176 C   0  0  0  0  0  0  0  0  0  0  0  0
   10.3595  -14.2675   28.7837 C   0  0  0  0  0  0  0  0  0  0  0  0
   10.4701  -14.6955   27.4788 C   0  0  0  0  0  0  0  0  0  0  0  0
   10.6641  -16.8952   25.8174 C   0  0  0  0  0  0  0  0  0  0  0  0
   10.4901  -18.2123   25.4274 O   0  0  0  0  0  0  0  0  0  0  0  0
   10.7812  -16.6965   27.0659 O   0  0  0  0  0  0  0  0  0  0  0  0
  2  3  1  0
  2  1  1  6
  4  3  1  0
  5  4  2  0
  6  2  1  0
  7  6  2  0
  8  4  1  0
 10  9  1  1
 10 12  1  0
 10 11  1  0
 13 12  1  6
 13 14  1  0
 14  6  1  0
 15 13  1  0
 15 16  2  0
 17 15  1  0
 18 17  1  0
 18 19  1  6
 19 20  1  0
 20 21  2  0
 20 25  1  0
 21 22  1  0
 22 23  2  0
 24 23  1  0
 25 24  2  0
 26 18  1  0
 27 26  1  0
 28 26  2  0
M  END
$$$$
