DLF.pdb
     RDKit          3D

 28 28  0  0  1  0  0  0  0  0999 V2000
   10.2452  -17.8247   18.3665 N   0  0  0  0  0  0  0  0  0  0  0  0
   11.4387  -17.5119   19.1067 C   0  0  1  0  0  0  0  0  0  0  0  0
   12.3969  -16.6472   18.3332 C   0  0  0  0  0  0  0  0  0  0  0  0
   13.1429  -17.5058   17.3865 C   0  0  0  0  0  0  0  0  0  0  0  0
   12.7111  -18.6534   17.1486 O   0  0  0  0  0  0  0  0  0  0  0  0
   11.0459  -16.8017   20.3610 C   0  0  0  0  0  0  0  0  0  0  0  0
   11.9143  -16.3604   21.1428 O   0  0  0  0  0  0  0  0  0  0  0  0
   14.2768  -17.0471   16.7895 O   0  0  0  0  0  0  0  0  0  0  0  0
    8.5049  -13.1707   20.5940 C   0  0  0  0  0  0  0  0  0  0  0  0
    7.6438  -14.4543   20.5704 C   0  0  2  0  0  0  0  0  0  0  0  0
    6.2134  -14.1081   20.3843 C   0  0  0  0  0  0  0  0  0  0  0  0
    7.9528  -15.2692   21.7673 C   0  0  0  0  0  0  0  0  0  0  0  0
    9.2987  -15.8653   21.8408 C   0  0  2  0  0  0  0  0  0  0  0  0
    9.6841  -16.6106   20.6958 N   0  0  0  0  0  0  0  0  0  0  0  0
    9.5274  -16.6245   23.1133 C   0  0  0  0  0  0  0  0  0  0  0  0
    9.3967  -17.8759   23.1146 O   0  0  0  0  0  0  0  0  0  0  0  0
    9.8877  -16.0027   24.3340 N   0  0  0  0  0  0  0  0  0  0  0  0
   10.5483  -16.7316   25.4300 C   0  0  1  0  0  0  0  0  0  0  0  0
   11.4540  -15.8204   26.1802 C   0  0  0  0  0  0  0  0  0  0  0  0
   10.6705  -14.9216   27.0394 C   0  0  0  0  0  0  0  0  0  0  0  0
    9.8567  -13.9910   26.4255 C   0  0  0  0  0  0  0  0  0  0  0  0
    9.0855  -13.1199   27.1438 C   0  0  0  0  0  0  0  0  0  0  0  0
    9.1242  -13.1755   28.5213 C   0  0  0  0  0  0  0  0  0  0  0  0
    9.9235  -14.0901   29.1605 C   0  0  0  0  0  0  0  0  0  0  0  0
   10.6874  -14.9525   28.4049 C   0  0  0  0  0  0  0  0  0  0  0  0
    9.5748  -17.4741   26.2228 C   0  0  0  0  0  0  0  0  0  0  0  0
    8.2065  -17.4986   26.0124 O   0  0  0  0  0  0  0  0  0  0  0  0
    9.9991  -18.1659   27.1992 O   0  0  0  0  0  0  0  0  0  0  0  0
  2  3  1  0
  2  1  1  6
  4  3  1  0
  5  4  2  0
  6  2  1  0
  7  6  2  0
  8  4  1  0
 10  9  1  1
 10 12  1  0
 10 11  1  0
 13 12  1  6
 13 14  1  0
 14  6  1  0
 15 13  1  0
 15 16  2  0
 17 15  1  0
 18 17  1  0
 18 19  1  1
 19 20  1  0
 20 21  2  0
 20 25  1  0
 21 22  1  0
 22 23  2  0
 24 23  1  0
 25 24  2  0
 26 18  1  0
 27 26  1  0
 28 26  2  0
M  END
$$$$
