DLF.pdb
     RDKit          3D

 28 28  0  0  1  0  0  0  0  0999 V2000
    8.4755  -18.4899   20.2559 N   0  0  0  0  0  0  0  0  0  0  0  0
    9.8677  -18.1371   20.1692 C   0  0  1  0  0  0  0  0  0  0  0  0
   10.3735  -18.0957   18.7528 C   0  0  0  0  0  0  0  0  0  0  0  0
   10.3277  -19.4671   18.1988 C   0  0  0  0  0  0  0  0  0  0  0  0
    9.3532  -19.7962   17.4902 O   0  0  0  0  0  0  0  0  0  0  0  0
   10.0555  -16.7925   20.7927 C   0  0  0  0  0  0  0  0  0  0  0  0
   11.1871  -16.2664   20.8458 O   0  0  0  0  0  0  0  0  0  0  0  0
   11.3319  -20.3479   18.4600 O   0  0  0  0  0  0  0  0  0  0  0  0
    9.0158  -12.9852   19.4332 C   0  0  0  0  0  0  0  0  0  0  0  0
    7.8450  -13.6774   20.1679 C   0  0  2  0  0  0  0  0  0  0  0  0
    6.5670  -12.9926   19.8542 C   0  0  0  0  0  0  0  0  0  0  0  0
    8.1724  -13.7895   21.6074 C   0  0  0  0  0  0  0  0  0  0  0  0
    9.1368  -14.8349   21.9940 C   0  0  2  0  0  0  0  0  0  0  0  0
    8.9602  -16.0813   21.3380 N   0  0  0  0  0  0  0  0  0  0  0  0
    9.2581  -14.9900   23.4803 C   0  0  0  0  0  0  0  0  0  0  0  0
    9.8728  -14.1137   24.1418 O   0  0  0  0  0  0  0  0  0  0  0  0
    8.7115  -16.0850   24.1937 N   0  0  0  0  0  0  0  0  0  0  0  0
    8.9330  -16.2810   25.6364 C   0  0  1  0  0  0  0  0  0  0  0  0
    7.6642  -16.0699   26.3840 C   0  0  0  0  0  0  0  0  0  0  0  0
    7.3378  -14.6377   26.4341 C   0  0  0  0  0  0  0  0  0  0  0  0
    8.2835  -13.7795   26.9578 C   0  0  0  0  0  0  0  0  0  0  0  0
    8.0709  -12.4312   27.0363 C   0  0  0  0  0  0  0  0  0  0  0  0
    6.8760  -11.9171   26.5780 C   0  0  0  0  0  0  0  0  0  0  0  0
    5.9162  -12.7452   26.0519 C   0  0  0  0  0  0  0  0  0  0  0  0
    6.1644  -14.0990   25.9883 C   0  0  0  0  0  0  0  0  0  0  0  0
    9.6332  -17.5350   25.8901 C   0  0  0  0  0  0  0  0  0  0  0  0
   10.1048  -18.4104   24.9266 O   0  0  0  0  0  0  0  0  0  0  0  0
    9.8382  -17.8739   27.0964 O   0  0  0  0  0  0  0  0  0  0  0  0
  2  3  1  0
  2  1  1  6
  4  3  1  0
  5  4  2  0
  6  2  1  0
  7  6  2  0
  8  4  1  0
 10  9  1  6
 10 12  1  0
 10 11  1  0
 13 12  1  1
 13 14  1  0
 14  6  1  0
 15 13  1  0
 15 16  2  0
 17 15  1  0
 18 17  1  0
 18 19  1  1
 19 20  1  0
 20 21  2  0
 20 25  1  0
 21 22  1  0
 22 23  2  0
 24 23  1  0
 25 24  2  0
 26 18  1  0
 27 26  1  0
 28 26  2  0
M  END
$$$$
