DLF.pdb
     RDKit          3D

 28 28  0  0  1  0  0  0  0  0999 V2000
   11.7679  -18.1353   19.6062 N   0  0  0  0  0  0  0  0  0  0  0  0
   10.7140  -18.2404   20.5801 C   0  0  1  0  0  0  0  0  0  0  0  0
   10.9898  -19.2819   21.6304 C   0  0  0  0  0  0  0  0  0  0  0  0
   10.9455  -20.6155   20.9906 C   0  0  0  0  0  0  0  0  0  0  0  0
   11.9396  -21.3645   21.0944 O   0  0  0  0  0  0  0  0  0  0  0  0
   10.5476  -16.9122   21.2435 C   0  0  0  0  0  0  0  0  0  0  0  0
   11.5437  -16.2381   21.5803 O   0  0  0  0  0  0  0  0  0  0  0  0
    9.8393  -21.0121   20.3040 O   0  0  0  0  0  0  0  0  0  0  0  0
    8.5585  -13.1196   19.9738 C   0  0  0  0  0  0  0  0  0  0  0  0
    7.5108  -14.1325   20.4898 C   0  0  2  0  0  0  0  0  0  0  0  0
    6.1400  -13.6298   20.2277 C   0  0  0  0  0  0  0  0  0  0  0  0
    7.8098  -14.4648   21.9012 C   0  0  0  0  0  0  0  0  0  0  0  0
    9.0911  -15.1412   22.1716 C   0  0  2  0  0  0  0  0  0  0  0  0
    9.2613  -16.3839   21.5071 N   0  0  0  0  0  0  0  0  0  0  0  0
    9.3984  -15.2360   23.6361 C   0  0  0  0  0  0  0  0  0  0  0  0
   10.3025  -14.5089   24.1229 O   0  0  0  0  0  0  0  0  0  0  0  0
    8.7178  -16.1121   24.5169 N   0  0  0  0  0  0  0  0  0  0  0  0
    9.1109  -16.2824   25.9259 C   0  0  1  0  0  0  0  0  0  0  0  0
    8.0229  -15.8093   26.8234 C   0  0  0  0  0  0  0  0  0  0  0  0
    7.9358  -14.3426   26.7848 C   0  0  0  0  0  0  0  0  0  0  0  0
    6.7659  -13.7789   26.3172 C   0  0  0  0  0  0  0  0  0  0  0  0
    6.5916  -12.4243   26.2536 C   0  0  0  0  0  0  0  0  0  0  0  0
    7.6164  -11.6003   26.6695 C   0  0  0  0  0  0  0  0  0  0  0  0
    8.7916  -12.1312   27.1394 C   0  0  0  0  0  0  0  0  0  0  0  0
    8.9325  -13.5008   27.1895 C   0  0  0  0  0  0  0  0  0  0  0  0
    9.6094  -17.6316   26.1679 C   0  0  0  0  0  0  0  0  0  0  0  0
    9.7480  -18.6282   25.2168 O   0  0  0  0  0  0  0  0  0  0  0  0
    9.9516  -17.9412   27.3507 O   0  0  0  0  0  0  0  0  0  0  0  0
  2  3  1  0
  2  1  1  6
  4  3  1  0
  5  4  2  0
  6  2  1  0
  7  6  2  0
  8  4  1  0
 10  9  1  1
 10 12  1  0
 10 11  1  0
 13 12  1  1
 13 14  1  0
 14  6  1  0
 15 13  1  0
 15 16  2  0
 17 15  1  0
 18 17  1  0
 18 19  1  1
 19 20  1  0
 20 21  2  0
 20 25  1  0
 21 22  1  0
 22 23  2  0
 24 23  1  0
 25 24  2  0
 26 18  1  0
 27 26  1  0
 28 26  2  0
M  END
$$$$
