DLF.pdb
     RDKit          3D

 28 28  0  0  1  0  0  0  0  0999 V2000
   10.0963  -18.8056   19.5360 N   0  0  0  0  0  0  0  0  0  0  0  0
   11.2765  -18.0834   19.9305 C   0  0  1  0  0  0  0  0  0  0  0  0
   12.0067  -17.4743   18.7643 C   0  0  0  0  0  0  0  0  0  0  0  0
   13.3651  -17.0924   19.2100 C   0  0  0  0  0  0  0  0  0  0  0  0
   13.8807  -17.7128   20.1636 O   0  0  0  0  0  0  0  0  0  0  0  0
   10.8741  -16.9971   20.8739 C   0  0  0  0  0  0  0  0  0  0  0  0
   11.7314  -16.3855   21.5455 O   0  0  0  0  0  0  0  0  0  0  0  0
   14.0344  -16.0836   18.5881 O   0  0  0  0  0  0  0  0  0  0  0  0
    8.6184  -13.2248   20.2267 C   0  0  0  0  0  0  0  0  0  0  0  0
    7.6294  -14.4039   20.3727 C   0  0  2  0  0  0  0  0  0  0  0  0
    6.2505  -13.9582   20.0559 C   0  0  0  0  0  0  0  0  0  0  0  0
    7.8088  -15.0270   21.7038 C   0  0  0  0  0  0  0  0  0  0  0  0
    9.1141  -15.6543   21.9777 C   0  0  2  0  0  0  0  0  0  0  0  0
    9.5155  -16.6333   21.0315 N   0  0  0  0  0  0  0  0  0  0  0  0
    9.2351  -16.1477   23.3883 C   0  0  0  0  0  0  0  0  0  0  0  0
    9.4388  -17.3719   23.5961 O   0  0  0  0  0  0  0  0  0  0  0  0
    9.1310  -15.3004   24.5187 N   0  0  0  0  0  0  0  0  0  0  0  0
    9.0437  -15.8205   25.8938 C   0  0  1  0  0  0  0  0  0  0  0  0
    9.0833  -14.6990   26.8705 C   0  0  0  0  0  0  0  0  0  0  0  0
    8.0592  -13.6993   26.5360 C   0  0  0  0  0  0  0  0  0  0  0  0
    8.4833  -12.4271   26.2095 C   0  0  0  0  0  0  0  0  0  0  0  0
    7.6031  -11.4354   25.8763 C   0  0  0  0  0  0  0  0  0  0  0  0
    6.2532  -11.7177   25.8673 C   0  0  0  0  0  0  0  0  0  0  0  0
    5.8009  -12.9734   26.1873 C   0  0  0  0  0  0  0  0  0  0  0  0
    6.7163  -13.9486   26.5181 C   0  0  0  0  0  0  0  0  0  0  0  0
    7.9331  -16.7565   26.0270 C   0  0  0  0  0  0  0  0  0  0  0  0
    6.9566  -16.9976   25.0755 O   0  0  0  0  0  0  0  0  0  0  0  0
    7.8335  -17.4193   27.1053 O   0  0  0  0  0  0  0  0  0  0  0  0
  2  3  1  0
  2  1  1  6
  4  3  1  0
  5  4  2  0
  6  2  1  0
  7  6  2  0
  8  4  1  0
 10  9  1  1
 10 12  1  0
 10 11  1  0
 13 12  1  6
 13 14  1  0
 14  6  1  0
 15 13  1  0
 15 16  2  0
 17 15  1  0
 18 17  1  0
 18 19  1  1
 19 20  1  0
 20 21  2  0
 20 25  1  0
 21 22  1  0
 22 23  2  0
 24 23  1  0
 25 24  2  0
 26 18  1  0
 27 26  1  0
 28 26  2  0
M  END
$$$$
