DLF.pdb
     RDKit          3D

 28 28  0  0  1  0  0  0  0  0999 V2000
    9.5469  -18.7920   19.3500 N   0  0  0  0  0  0  0  0  0  0  0  0
    8.7147  -18.4563   20.4747 C   0  0  1  0  0  0  0  0  0  0  0  0
    8.6846  -19.5354   21.5228 C   0  0  0  0  0  0  0  0  0  0  0  0
    8.1293  -20.7645   20.9139 C   0  0  0  0  0  0  0  0  0  0  0  0
    7.0560  -20.6882   20.2796 O   0  0  0  0  0  0  0  0  0  0  0  0
    9.2324  -17.1963   21.0880 C   0  0  0  0  0  0  0  0  0  0  0  0
   10.4608  -16.9918   21.1848 O   0  0  0  0  0  0  0  0  0  0  0  0
    8.7811  -21.9520   21.0459 O   0  0  0  0  0  0  0  0  0  0  0  0
    8.8213  -13.2276   19.5230 C   0  0  0  0  0  0  0  0  0  0  0  0
    7.5987  -13.6436   20.3726 C   0  0  2  0  0  0  0  0  0  0  0  0
    6.4704  -12.7095   20.1383 C   0  0  0  0  0  0  0  0  0  0  0  0
    8.0174  -13.7974   21.7845 C   0  0  0  0  0  0  0  0  0  0  0  0
    8.8279  -14.9829   22.1159 C   0  0  2  0  0  0  0  0  0  0  0  0
    8.3480  -16.2039   21.5739 N   0  0  0  0  0  0  0  0  0  0  0  0
    9.1226  -15.0918   23.5819 C   0  0  0  0  0  0  0  0  0  0  0  0
    9.8655  -14.2337   24.1251 O   0  0  0  0  0  0  0  0  0  0  0  0
    8.6039  -16.1226   24.4035 N   0  0  0  0  0  0  0  0  0  0  0  0
    8.9317  -16.2360   25.8348 C   0  0  1  0  0  0  0  0  0  0  0  0
    7.7972  -15.7439   26.6619 C   0  0  0  0  0  0  0  0  0  0  0  0
    7.7395  -14.2759   26.6210 C   0  0  0  0  0  0  0  0  0  0  0  0
    6.5453  -13.6882   26.2553 C   0  0  0  0  0  0  0  0  0  0  0  0
    6.3960  -12.3304   26.1981 C   0  0  0  0  0  0  0  0  0  0  0  0
    7.4716  -11.5277   26.5156 C   0  0  0  0  0  0  0  0  0  0  0  0
    8.6720  -12.0827   26.8829 C   0  0  0  0  0  0  0  0  0  0  0  0
    8.7865  -13.4549   26.9298 C   0  0  0  0  0  0  0  0  0  0  0  0
    9.4329  -17.5688   26.1502 C   0  0  0  0  0  0  0  0  0  0  0  0
    9.6047  -18.6055   25.2487 O   0  0  0  0  0  0  0  0  0  0  0  0
    9.7446  -17.8228   27.3546 O   0  0  0  0  0  0  0  0  0  0  0  0
  2  3  1  0
  2  1  1  6
  4  3  1  0
  5  4  2  0
  6  2  1  0
  7  6  2  0
  8  4  1  0
 10  9  1  6
 10 12  1  0
 10 11  1  0
 13 12  1  1
 13 14  1  0
 14  6  1  0
 15 13  1  0
 15 16  2  0
 17 15  1  0
 18 17  1  0
 18 19  1  1
 19 20  1  0
 20 21  2  0
 20 25  1  0
 21 22  1  0
 22 23  2  0
 24 23  1  0
 25 24  2  0
 26 18  1  0
 27 26  1  0
 28 26  2  0
M  END
$$$$
