DLF.pdb
     RDKit          3D

 28 28  0  0  1  0  0  0  0  0999 V2000
    9.3222  -18.2053   19.0110 N   0  0  0  0  0  0  0  0  0  0  0  0
   10.6724  -17.8198   19.3246 C   0  0  1  0  0  0  0  0  0  0  0  0
   11.3930  -17.2083   18.1539 C   0  0  0  0  0  0  0  0  0  0  0  0
   11.8029  -18.2948   17.2367 C   0  0  0  0  0  0  0  0  0  0  0  0
   10.9535  -18.7745   16.4567 O   0  0  0  0  0  0  0  0  0  0  0  0
   10.6350  -16.8308   20.4438 C   0  0  0  0  0  0  0  0  0  0  0  0
   11.6926  -16.3923   20.9432 O   0  0  0  0  0  0  0  0  0  0  0  0
   13.0828  -18.7576   17.2478 O   0  0  0  0  0  0  0  0  0  0  0  0
    8.8999  -13.1133   20.1455 C   0  0  0  0  0  0  0  0  0  0  0  0
    7.8405  -14.0546   20.7631 C   0  0  2  0  0  0  0  0  0  0  0  0
    6.5049  -13.4095   20.7373 C   0  0  0  0  0  0  0  0  0  0  0  0
    8.3066  -14.5041   22.0946 C   0  0  0  0  0  0  0  0  0  0  0  0
    9.3524  -15.5422   22.1212 C   0  0  2  0  0  0  0  0  0  0  0  0
    9.4046  -16.3658   20.9663 N   0  0  0  0  0  0  0  0  0  0  0  0
    9.3404  -16.3442   23.3879 C   0  0  0  0  0  0  0  0  0  0  0  0
    8.2505  -16.5273   23.9894 O   0  0  0  0  0  0  0  0  0  0  0  0
   10.5054  -16.9165   23.9554 N   0  0  0  0  0  0  0  0  0  0  0  0
   10.9419  -16.6253   25.3315 C   0  0  1  0  0  0  0  0  0  0  0  0
   11.0665  -15.1563   25.5307 C   0  0  0  0  0  0  0  0  0  0  0  0
   10.3137  -14.7408   26.7227 C   0  0  0  0  0  0  0  0  0  0  0  0
    9.0774  -14.1573   26.5326 C   0  0  0  0  0  0  0  0  0  0  0  0
    8.3027  -13.7478   27.5821 C   0  0  0  0  0  0  0  0  0  0  0  0
    8.7732  -13.9243   28.8665 C   0  0  0  0  0  0  0  0  0  0  0  0
    9.9987  -14.5016   29.0874 C   0  0  0  0  0  0  0  0  0  0  0  0
   10.7525  -14.9025   28.0060 C   0  0  0  0  0  0  0  0  0  0  0  0
   10.1219  -17.3431   26.3008 C   0  0  0  0  0  0  0  0  0  0  0  0
   10.5597  -17.8636   27.5068 O   0  0  0  0  0  0  0  0  0  0  0  0
    8.8931  -17.5184   26.0337 O   0  0  0  0  0  0  0  0  0  0  0  0
  2  3  1  0
  2  1  1  6
  4  3  1  0
  5  4  2  0
  6  2  1  0
  7  6  2  0
  8  4  1  0
 10  9  1  1
 10 12  1  0
 10 11  1  0
 13 12  1  6
 13 14  1  0
 14  6  1  0
 15 13  1  0
 15 16  2  0
 17 15  1  0
 18 17  1  0
 18 19  1  1
 19 20  1  0
 20 21  2  0
 20 25  1  0
 21 22  1  0
 22 23  2  0
 24 23  1  0
 25 24  2  0
 26 18  1  0
 27 26  1  0
 28 26  2  0
M  END
$$$$
