GQY.pdb
     RDKit          3D

 26 26  0  0  1  0  0  0  0  0999 V2000
    6.9543  -19.3356   19.3434 N   0  0  0  0  0  0  0  0  0  0  0  0
    6.3230  -18.1138   19.8302 C   0  0  0  0  0  0  0  0  0  0  0  0
    7.3945  -17.1430   20.2714 C   0  0  0  0  0  0  0  0  0  0  0  0
    8.5757  -17.5443   20.4021 O   0  0  0  0  0  0  0  0  0  0  0  0
    9.8153  -12.6484   18.8567 N   0  0  0  0  0  0  0  0  0  0  0  0
    8.5898  -13.2981   18.5302 C   0  0  0  0  0  0  0  0  0  0  0  0
    8.5755  -13.9683   17.4746 O   0  0  0  0  0  0  0  0  0  0  0  0
    7.3876  -13.2032   19.3760 C   0  0  0  0  0  0  0  0  0  0  0  0
    7.6410  -13.4058   20.8344 C   0  0  0  0  0  0  0  0  0  0  0  0
    7.9350  -14.8207   21.1702 C   0  0  2  0  0  0  0  0  0  0  0  0
    7.0794  -15.7893   20.5386 N   0  0  0  0  0  0  0  0  0  0  0  0
    8.1446  -15.0572   22.6288 C   0  0  0  0  0  0  0  0  0  0  0  0
    7.1826  -15.2591   23.3665 O   0  0  0  0  0  0  0  0  0  0  0  0
    5.8257  -10.8928   27.4408 O   0  0  0  0  0  0  0  0  0  0  0  0
    6.4600  -12.0216   26.9239 C   0  0  0  0  0  0  0  0  0  0  0  0
    7.7944  -12.0026   26.5830 C   0  0  0  0  0  0  0  0  0  0  0  0
    8.4106  -13.1345   26.0701 C   0  0  0  0  0  0  0  0  0  0  0  0
    7.7312  -14.3179   25.8779 C   0  0  0  0  0  0  0  0  0  0  0  0
    8.3260  -15.5457   25.3330 C   0  0  0  0  0  0  0  0  0  0  0  0
    9.6379  -15.3444   24.6329 C   0  0  2  0  0  0  0  0  0  0  0  0
    9.4416  -15.0577   23.2109 N   0  0  0  0  0  0  0  0  0  0  0  0
   10.6228  -16.4154   24.8224 C   0  0  0  0  0  0  0  0  0  0  0  0
   11.1199  -16.9966   23.8463 O   0  0  0  0  0  0  0  0  0  0  0  0
    6.3952  -14.3180   26.2252 C   0  0  0  0  0  0  0  0  0  0  0  0
    5.7689  -13.1986   26.7369 C   0  0  0  0  0  0  0  0  0  0  0  0
   10.9922  -16.7714   26.0962 O   0  0  0  0  0  0  0  0  0  0  0  0
  2  3  1  0
  2  1  1  0
  3  4  2  0
  5  6  1  0
  6  8  1  0
  6  7  2  0
  8  9  1  0
 10  9  1  1
 10 12  1  0
 11 10  1  0
 11  3  1  0
 12 21  1  0
 13 12  2  0
 15 14  1  0
 16 15  2  0
 17 16  1  0
 18 17  2  0
 18 24  1  0
 19 18  1  0
 20 19  1  6
 21 20  1  0
 22 20  1  0
 23 22  2  0
 24 25  2  0
 25 15  1  0
 26 22  1  0
M  END
$$$$
