GQY.pdb
     RDKit          3D

 26 26  0  0  1  0  0  0  0  0999 V2000
    6.1298  -19.6759   20.1049 N   0  0  0  0  0  0  0  0  0  0  0  0
    5.8175  -18.6376   21.0810 C   0  0  0  0  0  0  0  0  0  0  0  0
    6.8121  -17.5080   20.9396 C   0  0  0  0  0  0  0  0  0  0  0  0
    8.0392  -17.7656   20.9087 O   0  0  0  0  0  0  0  0  0  0  0  0
    7.9081  -13.2636   17.6922 N   0  0  0  0  0  0  0  0  0  0  0  0
    8.4384  -12.7745   18.9211 C   0  0  0  0  0  0  0  0  0  0  0  0
    9.6368  -12.4178   18.9109 O   0  0  0  0  0  0  0  0  0  0  0  0
    7.6375  -12.6817   20.1538 C   0  0  0  0  0  0  0  0  0  0  0  0
    6.6257  -13.7690   20.3161 C   0  0  0  0  0  0  0  0  0  0  0  0
    7.1955  -14.9888   20.9396 C   0  0  2  0  0  0  0  0  0  0  0  0
    6.3740  -16.1656   20.8426 N   0  0  0  0  0  0  0  0  0  0  0  0
    7.7611  -14.7552   22.3008 C   0  0  0  0  0  0  0  0  0  0  0  0
    7.4257  -13.7655   22.9477 O   0  0  0  0  0  0  0  0  0  0  0  0
    6.4037  -10.3925   27.2249 O   0  0  0  0  0  0  0  0  0  0  0  0
    6.7516  -11.6374   26.7023 C   0  0  0  0  0  0  0  0  0  0  0  0
    7.7764  -11.7732   25.7922 C   0  0  0  0  0  0  0  0  0  0  0  0
    8.1102  -13.0191   25.2819 C   0  0  0  0  0  0  0  0  0  0  0  0
    7.4447  -14.1674   25.6528 C   0  0  0  0  0  0  0  0  0  0  0  0
    7.7467  -15.5117   25.1429 C   0  0  0  0  0  0  0  0  0  0  0  0
    8.9995  -15.5990   24.3214 C   0  0  2  0  0  0  0  0  0  0  0  0
    8.6930  -15.6519   22.8911 N   0  0  0  0  0  0  0  0  0  0  0  0
    9.9267  -16.6712   24.7005 C   0  0  0  0  0  0  0  0  0  0  0  0
    9.9923  -17.7149   24.0341 O   0  0  0  0  0  0  0  0  0  0  0  0
    6.4210  -14.0118   26.5656 C   0  0  0  0  0  0  0  0  0  0  0  0
    6.0780  -12.7777   27.0818 C   0  0  0  0  0  0  0  0  0  0  0  0
   10.7261  -16.5093   25.8053 O   0  0  0  0  0  0  0  0  0  0  0  0
  2  3  1  0
  2  1  1  0
  3  4  2  0
  5  6  1  0
  6  8  1  0
  6  7  2  0
  8  9  1  0
 10  9  1  1
 10 12  1  0
 11 10  1  0
 11  3  1  0
 12 21  1  0
 13 12  2  0
 15 14  1  0
 16 15  2  0
 17 16  1  0
 18 17  2  0
 18 24  1  0
 19 18  1  0
 20 19  1  1
 21 20  1  0
 22 20  1  0
 23 22  2  0
 24 25  2  0
 25 15  1  0
 26 22  1  0
M  END
$$$$
