GQY.pdb
     RDKit          3D

 26 26  0  0  1  0  0  0  0  0999 V2000
    5.7073  -19.6231   20.9011 N   0  0  0  0  0  0  0  0  0  0  0  0
    5.6846  -18.6631   21.9994 C   0  0  0  0  0  0  0  0  0  0  0  0
    6.7386  -17.6068   21.7573 C   0  0  0  0  0  0  0  0  0  0  0  0
    7.9516  -17.9228   21.8025 O   0  0  0  0  0  0  0  0  0  0  0  0
    7.8791  -13.6588   18.1089 N   0  0  0  0  0  0  0  0  0  0  0  0
    8.4654  -13.1283   19.2944 C   0  0  0  0  0  0  0  0  0  0  0  0
    9.6915  -12.8868   19.2527 O   0  0  0  0  0  0  0  0  0  0  0  0
    7.6895  -12.8669   20.5189 C   0  0  0  0  0  0  0  0  0  0  0  0
    6.6629  -13.9059   20.8330 C   0  0  0  0  0  0  0  0  0  0  0  0
    7.2562  -15.1354   21.4140 C   0  0  2  0  0  0  0  0  0  0  0  0
    6.3717  -16.2679   21.4817 N   0  0  0  0  0  0  0  0  0  0  0  0
    8.0254  -14.8917   22.6694 C   0  0  0  0  0  0  0  0  0  0  0  0
    8.0318  -13.7753   23.1833 O   0  0  0  0  0  0  0  0  0  0  0  0
    6.1575  -10.5937   27.1213 O   0  0  0  0  0  0  0  0  0  0  0  0
    6.6192  -11.8571   26.7548 C   0  0  0  0  0  0  0  0  0  0  0  0
    7.9656  -12.1443   26.7091 C   0  0  0  0  0  0  0  0  0  0  0  0
    8.4085  -13.4067   26.3425 C   0  0  0  0  0  0  0  0  0  0  0  0
    7.5390  -14.4228   26.0104 C   0  0  0  0  0  0  0  0  0  0  0  0
    7.9470  -15.7756   25.6080 C   0  0  0  0  0  0  0  0  0  0  0  0
    9.1531  -15.8228   24.7164 C   0  0  2  0  0  0  0  0  0  0  0  0
    8.7676  -15.9225   23.3079 N   0  0  0  0  0  0  0  0  0  0  0  0
   10.1511  -16.8414   25.0619 C   0  0  0  0  0  0  0  0  0  0  0  0
   10.4719  -17.7153   24.2426 O   0  0  0  0  0  0  0  0  0  0  0  0
    6.1940  -14.1165   26.0619 C   0  0  0  0  0  0  0  0  0  0  0  0
    5.7389  -12.8643   26.4251 C   0  0  0  0  0  0  0  0  0  0  0  0
   10.7309  -16.8197   26.3066 O   0  0  0  0  0  0  0  0  0  0  0  0
  2  3  1  0
  2  1  1  0
  3  4  2  0
  5  6  1  0
  6  8  1  0
  6  7  2  0
  8  9  1  0
 10  9  1  1
 10 12  1  0
 11 10  1  0
 11  3  1  0
 12 21  1  0
 13 12  2  0
 15 14  1  0
 16 15  2  0
 17 16  1  0
 18 17  2  0
 18 24  1  0
 19 18  1  0
 20 19  1  1
 21 20  1  0
 22 20  1  0
 23 22  2  0
 24 25  2  0
 25 15  1  0
 26 22  1  0
M  END
$$$$
