GQY.pdb
     RDKit          3D

 26 26  0  0  1  0  0  0  0  0999 V2000
    9.6679  -19.1375   19.5621 N   0  0  0  0  0  0  0  0  0  0  0  0
    8.6315  -18.4638   20.3368 C   0  0  0  0  0  0  0  0  0  0  0  0
    9.0643  -17.0423   20.6146 C   0  0  0  0  0  0  0  0  0  0  0  0
   10.2624  -16.7158   20.4382 O   0  0  0  0  0  0  0  0  0  0  0  0
    8.6738  -12.3681   18.6480 N   0  0  0  0  0  0  0  0  0  0  0  0
    7.9653  -13.5985   18.7695 C   0  0  0  0  0  0  0  0  0  0  0  0
    8.2738  -14.5039   17.9642 O   0  0  0  0  0  0  0  0  0  0  0  0
    6.9202  -13.8193   19.7837 C   0  0  0  0  0  0  0  0  0  0  0  0
    7.4003  -13.7267   21.1955 C   0  0  0  0  0  0  0  0  0  0  0  0
    8.4336  -14.7428   21.5134 C   0  0  2  0  0  0  0  0  0  0  0  0
    8.1339  -16.0785   21.0714 N   0  0  0  0  0  0  0  0  0  0  0  0
    8.9334  -14.6672   22.9176 C   0  0  0  0  0  0  0  0  0  0  0  0
    8.8925  -13.6033   23.5316 O   0  0  0  0  0  0  0  0  0  0  0  0
    6.0672  -10.7648   26.9029 O   0  0  0  0  0  0  0  0  0  0  0  0
    6.4798  -12.0422   26.5261 C   0  0  0  0  0  0  0  0  0  0  0  0
    5.6158  -12.9257   25.9178 C   0  0  0  0  0  0  0  0  0  0  0  0
    6.0422  -14.1931   25.5490 C   0  0  0  0  0  0  0  0  0  0  0  0
    7.3314  -14.6274   25.7683 C   0  0  0  0  0  0  0  0  0  0  0  0
    7.8393  -15.9578   25.4073 C   0  0  0  0  0  0  0  0  0  0  0  0
    9.2910  -15.9883   25.0285 C   0  0  2  0  0  0  0  0  0  0  0  0
    9.4668  -15.8021   23.5873 N   0  0  0  0  0  0  0  0  0  0  0  0
   10.0404  -17.1571   25.5031 C   0  0  0  0  0  0  0  0  0  0  0  0
   10.1386  -17.3949   26.7161 O   0  0  0  0  0  0  0  0  0  0  0  0
    8.1828  -13.7285   26.3788 C   0  0  0  0  0  0  0  0  0  0  0  0
    7.7719  -12.4638   26.7512 C   0  0  0  0  0  0  0  0  0  0  0  0
   10.6358  -17.9907   24.5885 O   0  0  0  0  0  0  0  0  0  0  0  0
  2  3  1  0
  2  1  1  0
  3  4  2  0
  5  6  1  0
  6  8  1  0
  6  7  2  0
  8  9  1  0
 10  9  1  1
 10 12  1  0
 11 10  1  0
 11  3  1  0
 12 21  1  0
 13 12  2  0
 15 14  1  0
 16 15  2  0
 17 16  1  0
 18 17  2  0
 18 24  1  0
 19 18  1  0
 20 19  1  6
 21 20  1  0
 22 20  1  0
 23 22  2  0
 24 25  2  0
 25 15  1  0
 26 22  1  0
M  END
$$$$
