GQY.pdb
     RDKit          3D

 26 26  0  0  1  0  0  0  0  0999 V2000
   12.2454  -17.5931   14.4529 N   0  0  0  0  0  0  0  0  0  0  0  0
   10.9930  -17.9132   15.1293 C   0  0  0  0  0  0  0  0  0  0  0  0
   10.7479  -16.9012   16.2251 C   0  0  0  0  0  0  0  0  0  0  0  0
   11.6582  -16.0974   16.5385 O   0  0  0  0  0  0  0  0  0  0  0  0
    8.2127  -12.3127   19.6394 N   0  0  0  0  0  0  0  0  0  0  0  0
    7.8229  -13.3604   18.7557 C   0  0  0  0  0  0  0  0  0  0  0  0
    7.8061  -13.0864   17.5357 O   0  0  0  0  0  0  0  0  0  0  0  0
    7.4556  -14.7063   19.2284 C   0  0  0  0  0  0  0  0  0  0  0  0
    7.7265  -15.8004   18.2478 C   0  0  0  0  0  0  0  0  0  0  0  0
    9.1769  -16.0231   18.0291 C   0  0  2  0  0  0  0  0  0  0  0  0
    9.5048  -16.8520   16.9001 N   0  0  0  0  0  0  0  0  0  0  0  0
    9.9218  -16.3729   19.2741 C   0  0  0  0  0  0  0  0  0  0  0  0
   10.1757  -17.5472   19.5330 O   0  0  0  0  0  0  0  0  0  0  0  0
   16.1613  -14.3557   17.5125 O   0  0  0  0  0  0  0  0  0  0  0  0
   15.2136  -14.4489   18.5308 C   0  0  0  0  0  0  0  0  0  0  0  0
   15.4791  -15.1289   19.6988 C   0  0  0  0  0  0  0  0  0  0  0  0
   14.5252  -15.2122   20.7024 C   0  0  0  0  0  0  0  0  0  0  0  0
   13.2824  -14.6285   20.5853 C   0  0  0  0  0  0  0  0  0  0  0  0
   12.2299  -14.6879   21.6086 C   0  0  0  0  0  0  0  0  0  0  0  0
   11.1750  -15.7251   21.3571 C   0  0  2  0  0  0  0  0  0  0  0  0
   10.3584  -15.3794   20.1925 N   0  0  0  0  0  0  0  0  0  0  0  0
   10.3316  -16.0570   22.5110 C   0  0  0  0  0  0  0  0  0  0  0  0
    9.1031  -15.8951   22.4631 O   0  0  0  0  0  0  0  0  0  0  0  0
   13.0345  -13.9514   19.4082 C   0  0  0  0  0  0  0  0  0  0  0  0
   13.9747  -13.8604   18.4008 C   0  0  0  0  0  0  0  0  0  0  0  0
   10.9162  -16.5514   23.6510 O   0  0  0  0  0  0  0  0  0  0  0  0
  2  3  1  0
  2  1  1  0
  3  4  2  0
  5  6  1  0
  6  8  1  0
  6  7  2  0
  8  9  1  0
 10  9  1  1
 10 12  1  0
 11 10  1  0
 11  3  1  0
 12 21  1  0
 13 12  2  0
 15 14  1  0
 16 15  2  0
 17 16  1  0
 18 17  2  0
 18 24  1  0
 19 18  1  0
 20 19  1  1
 21 20  1  0
 22 20  1  0
 23 22  2  0
 24 25  2  0
 25 15  1  0
 26 22  1  0
M  END
$$$$
