GQY.pdb
     RDKit          3D

 26 26  0  0  1  0  0  0  0  0999 V2000
    9.1810  -17.3820   15.3452 N   0  0  0  0  0  0  0  0  0  0  0  0
    8.1633  -17.3213   16.3887 C   0  0  0  0  0  0  0  0  0  0  0  0
    8.7086  -16.5514   17.5698 C   0  0  0  0  0  0  0  0  0  0  0  0
    9.9482  -16.4052   17.6928 O   0  0  0  0  0  0  0  0  0  0  0  0
    8.6771  -12.1358   18.2056 N   0  0  0  0  0  0  0  0  0  0  0  0
    8.0833  -12.4021   19.4733 C   0  0  0  0  0  0  0  0  0  0  0  0
    8.6082  -11.8494   20.4644 O   0  0  0  0  0  0  0  0  0  0  0  0
    6.9101  -13.2780   19.6354 C   0  0  0  0  0  0  0  0  0  0  0  0
    7.1759  -14.5296   20.4068 C   0  0  0  0  0  0  0  0  0  0  0  0
    8.2192  -15.3760   19.7771 C   0  0  2  0  0  0  0  0  0  0  0  0
    7.8369  -15.9958   18.5366 N   0  0  0  0  0  0  0  0  0  0  0  0
    8.8952  -16.3010   20.7334 C   0  0  0  0  0  0  0  0  0  0  0  0
    8.8017  -17.5177   20.5869 O   0  0  0  0  0  0  0  0  0  0  0  0
   15.2035  -14.0950   18.9372 O   0  0  0  0  0  0  0  0  0  0  0  0
   14.2794  -14.9182   19.5792 C   0  0  0  0  0  0  0  0  0  0  0  0
   13.1872  -15.4281   18.9126 C   0  0  0  0  0  0  0  0  0  0  0  0
   12.2770  -16.2459   19.5659 C   0  0  0  0  0  0  0  0  0  0  0  0
   12.4155  -16.5854   20.8943 C   0  0  0  0  0  0  0  0  0  0  0  0
   11.4829  -17.4398   21.6416 C   0  0  0  0  0  0  0  0  0  0  0  0
   10.5672  -16.6981   22.5707 C   0  0  2  0  0  0  0  0  0  0  0  0
    9.6595  -15.8195   21.8311 N   0  0  0  0  0  0  0  0  0  0  0  0
   11.2299  -15.9724   23.6603 C   0  0  0  0  0  0  0  0  0  0  0  0
   11.0042  -14.7673   23.8459 O   0  0  0  0  0  0  0  0  0  0  0  0
   13.5158  -16.0652   21.5457 C   0  0  0  0  0  0  0  0  0  0  0  0
   14.4299  -15.2499   20.9078 C   0  0  0  0  0  0  0  0  0  0  0  0
   12.1070  -16.6417   24.4779 O   0  0  0  0  0  0  0  0  0  0  0  0
  2  3  1  0
  2  1  1  0
  3  4  2  0
  5  6  1  0
  6  8  1  0
  6  7  2  0
  8  9  1  0
 10  9  1  1
 10 12  1  0
 11 10  1  0
 11  3  1  0
 12 21  1  0
 13 12  2  0
 15 14  1  0
 16 15  2  0
 17 16  1  0
 18 17  2  0
 18 24  1  0
 19 18  1  0
 20 19  1  6
 21 20  1  0
 22 20  1  0
 23 22  2  0
 24 25  2  0
 25 15  1  0
 26 22  1  0
M  END
$$$$
