GQY.pdb
     RDKit          3D

 26 26  0  0  1  0  0  0  0  0999 V2000
    7.9648  -13.3776   16.2605 N   0  0  0  0  0  0  0  0  0  0  0  0
    9.0163  -13.9889   17.0660 C   0  0  0  0  0  0  0  0  0  0  0  0
    8.3856  -14.7626   18.2013 C   0  0  0  0  0  0  0  0  0  0  0  0
    7.4127  -14.2686   18.8199 O   0  0  0  0  0  0  0  0  0  0  0  0
    7.0117  -18.5049   16.7431 N   0  0  0  0  0  0  0  0  0  0  0  0
    7.7738  -19.3057   17.6423 C   0  0  0  0  0  0  0  0  0  0  0  0
    8.4921  -20.1923   17.1308 O   0  0  0  0  0  0  0  0  0  0  0  0
    7.7371  -19.1186   19.1028 C   0  0  0  0  0  0  0  0  0  0  0  0
    8.8321  -18.2574   19.6427 C   0  0  0  0  0  0  0  0  0  0  0  0
    8.4543  -16.8237   19.6981 C   0  0  2  0  0  0  0  0  0  0  0  0
    8.8809  -16.0353   18.5731 N   0  0  0  0  0  0  0  0  0  0  0  0
    8.7216  -16.1863   21.0208 C   0  0  0  0  0  0  0  0  0  0  0  0
    9.8736  -15.9217   21.3576 O   0  0  0  0  0  0  0  0  0  0  0  0
    7.4860  -11.6327   28.5454 O   0  0  0  0  0  0  0  0  0  0  0  0
    7.3187  -12.2614   27.3123 C   0  0  0  0  0  0  0  0  0  0  0  0
    6.3202  -13.1880   27.1083 C   0  0  0  0  0  0  0  0  0  0  0  0
    6.1671  -13.8044   25.8752 C   0  0  0  0  0  0  0  0  0  0  0  0
    6.9923  -13.5265   24.8072 C   0  0  0  0  0  0  0  0  0  0  0  0
    6.8847  -14.1505   23.4816 C   0  0  0  0  0  0  0  0  0  0  0  0
    7.9414  -15.1748   23.1880 C   0  0  2  0  0  0  0  0  0  0  0  0
    7.6733  -15.8666   21.9262 N   0  0  0  0  0  0  0  0  0  0  0  0
    8.2056  -16.1330   24.2673 C   0  0  0  0  0  0  0  0  0  0  0  0
    7.5329  -17.1696   24.3707 O   0  0  0  0  0  0  0  0  0  0  0  0
    7.9868  -12.5955   25.0303 C   0  0  0  0  0  0  0  0  0  0  0  0
    8.1508  -11.9741   26.2526 C   0  0  0  0  0  0  0  0  0  0  0  0
    9.2093  -15.8720   25.1674 O   0  0  0  0  0  0  0  0  0  0  0  0
  2  3  1  0
  2  1  1  0
  3  4  2  0
  5  6  1  0
  6  8  1  0
  6  7  2  0
  8  9  1  0
 10  9  1  1
 10 12  1  0
 11 10  1  0
 11  3  1  0
 12 21  1  0
 13 12  2  0
 15 14  1  0
 16 15  2  0
 17 16  1  0
 18 17  2  0
 18 24  1  0
 19 18  1  0
 20 19  1  1
 21 20  1  0
 22 20  1  0
 23 22  2  0
 24 25  2  0
 25 15  1  0
 26 22  1  0
M  END
$$$$
