GQY.pdb
     RDKit          3D

 26 26  0  0  1  0  0  0  0  0999 V2000
    6.1023  -19.6690   20.0720 N   0  0  0  0  0  0  0  0  0  0  0  0
    6.0425  -18.8858   21.3014 C   0  0  0  0  0  0  0  0  0  0  0  0
    7.0235  -17.7395   21.2081 C   0  0  0  0  0  0  0  0  0  0  0  0
    8.2384  -17.9456   21.4417 O   0  0  0  0  0  0  0  0  0  0  0  0
    9.8778  -12.3212   19.1334 N   0  0  0  0  0  0  0  0  0  0  0  0
    8.6152  -12.9818   19.1389 C   0  0  0  0  0  0  0  0  0  0  0  0
    8.3396  -13.6706   18.1323 O   0  0  0  0  0  0  0  0  0  0  0  0
    7.6659  -12.8769   20.2602 C   0  0  0  0  0  0  0  0  0  0  0  0
    6.7157  -14.0243   20.3742 C   0  0  0  0  0  0  0  0  0  0  0  0
    7.3381  -15.2198   20.9941 C   0  0  2  0  0  0  0  0  0  0  0  0
    6.5860  -16.4388   20.8612 N   0  0  0  0  0  0  0  0  0  0  0  0
    7.8581  -14.9759   22.3716 C   0  0  0  0  0  0  0  0  0  0  0  0
    7.2624  -14.2154   23.1312 O   0  0  0  0  0  0  0  0  0  0  0  0
    5.4840  -11.2853   27.2255 O   0  0  0  0  0  0  0  0  0  0  0  0
    6.2201  -12.3609   26.7306 C   0  0  0  0  0  0  0  0  0  0  0  0
    7.5468  -12.2254   26.3861 C   0  0  0  0  0  0  0  0  0  0  0  0
    8.2652  -13.3057   25.8952 C   0  0  0  0  0  0  0  0  0  0  0  0
    7.6983  -14.5507   25.7292 C   0  0  0  0  0  0  0  0  0  0  0  0
    8.4042  -15.7291   25.2084 C   0  0  0  0  0  0  0  0  0  0  0  0
    9.4970  -15.4175   24.2284 C   0  0  2  0  0  0  0  0  0  0  0  0
    9.0414  -15.6023   22.8496 N   0  0  0  0  0  0  0  0  0  0  0  0
   10.7673  -16.1144   24.4603 C   0  0  0  0  0  0  0  0  0  0  0  0
   11.3864  -15.9624   25.5239 O   0  0  0  0  0  0  0  0  0  0  0  0
    6.3682  -14.6675   26.0797 C   0  0  0  0  0  0  0  0  0  0  0  0
    5.6410  -13.6006   26.5696 C   0  0  0  0  0  0  0  0  0  0  0  0
   11.2685  -16.9411   23.4850 O   0  0  0  0  0  0  0  0  0  0  0  0
  2  3  1  0
  2  1  1  0
  3  4  2  0
  5  6  1  0
  6  8  1  0
  6  7  2  0
  8  9  1  0
 10  9  1  1
 10 12  1  0
 11 10  1  0
 11  3  1  0
 12 21  1  0
 13 12  2  0
 15 14  1  0
 16 15  2  0
 17 16  1  0
 18 17  2  0
 18 24  1  0
 19 18  1  0
 20 19  1  1
 21 20  1  0
 22 20  1  0
 23 22  2  0
 24 25  2  0
 25 15  1  0
 26 22  1  0
M  END
$$$$
