GQY.pdb
     RDKit          3D

 26 26  0  0  1  0  0  0  0  0999 V2000
   10.8043  -24.8867   17.9451 N   0  0  0  0  0  0  0  0  0  0  0  0
   10.4443  -23.4733   17.9146 C   0  0  0  0  0  0  0  0  0  0  0  0
   11.7012  -22.6435   17.7839 C   0  0  0  0  0  0  0  0  0  0  0  0
   12.8213  -23.2024   17.8631 O   0  0  0  0  0  0  0  0  0  0  0  0
   10.4284  -18.2806   14.6806 N   0  0  0  0  0  0  0  0  0  0  0  0
   11.3840  -19.3171   14.4734 C   0  0  0  0  0  0  0  0  0  0  0  0
   11.1023  -20.1730   13.6064 O   0  0  0  0  0  0  0  0  0  0  0  0
   12.6472  -19.3986   15.2267 C   0  0  0  0  0  0  0  0  0  0  0  0
   12.5133  -19.1209   16.6886 C   0  0  0  0  0  0  0  0  0  0  0  0
   12.7347  -20.3293   17.5205 C   0  0  2  0  0  0  0  0  0  0  0  0
   11.6272  -21.2457   17.5743 N   0  0  0  0  0  0  0  0  0  0  0  0
   13.3429  -20.0350   18.8512 C   0  0  0  0  0  0  0  0  0  0  0  0
   12.8241  -19.2086   19.5985 O   0  0  0  0  0  0  0  0  0  0  0  0
   10.4902  -23.6718   23.5301 O   0  0  0  0  0  0  0  0  0  0  0  0
   11.6789  -23.1710   23.0010 C   0  0  0  0  0  0  0  0  0  0  0  0
   12.3654  -23.8436   22.0143 C   0  0  0  0  0  0  0  0  0  0  0  0
   13.5468  -23.3317   21.4983 C   0  0  0  0  0  0  0  0  0  0  0  0
   14.0867  -22.1428   21.9387 C   0  0  0  0  0  0  0  0  0  0  0  0
   15.3357  -21.5540   21.4372 C   0  0  0  0  0  0  0  0  0  0  0  0
   15.1494  -20.3398   20.5752 C   0  0  2  0  0  0  0  0  0  0  0  0
   14.5244  -20.6872   19.2980 N   0  0  0  0  0  0  0  0  0  0  0  0
   16.3521  -19.5252   20.3679 C   0  0  0  0  0  0  0  0  0  0  0  0
   16.7519  -19.2687   19.2224 O   0  0  0  0  0  0  0  0  0  0  0  0
   13.3850  -21.4829   22.9276 C   0  0  0  0  0  0  0  0  0  0  0  0
   12.2078  -21.9809   23.4503 C   0  0  0  0  0  0  0  0  0  0  0  0
   17.0357  -19.0459   21.4582 O   0  0  0  0  0  0  0  0  0  0  0  0
  2  3  1  0
  2  1  1  0
  3  4  2  0
  5  6  1  0
  6  8  1  0
  6  7  2  0
  8  9  1  0
 10  9  1  1
 10 12  1  0
 11 10  1  0
 11  3  1  0
 12 21  1  0
 13 12  2  0
 15 14  1  0
 16 15  2  0
 17 16  1  0
 18 17  2  0
 18 24  1  0
 19 18  1  0
 20 19  1  6
 21 20  1  0
 22 20  1  0
 23 22  2  0
 24 25  2  0
 25 15  1  0
 26 22  1  0
M  END
$$$$
