GQY.pdb
     RDKit          3D

 26 26  0  0  1  0  0  0  0  0999 V2000
    7.3168  -13.2058   17.9182 N   0  0  0  0  0  0  0  0  0  0  0  0
    8.5735  -13.0874   18.6495 C   0  0  0  0  0  0  0  0  0  0  0  0
    8.7716  -14.3218   19.4993 C   0  0  0  0  0  0  0  0  0  0  0  0
    7.8162  -14.7609   20.1830 O   0  0  0  0  0  0  0  0  0  0  0  0
   10.3213  -19.7404   17.9887 N   0  0  0  0  0  0  0  0  0  0  0  0
   11.4101  -18.8925   18.3436 C   0  0  0  0  0  0  0  0  0  0  0  0
   12.5153  -19.4479   18.5272 O   0  0  0  0  0  0  0  0  0  0  0  0
   11.2688  -17.4338   18.4915 C   0  0  0  0  0  0  0  0  0  0  0  0
   11.5009  -16.9283   19.8782 C   0  0  0  0  0  0  0  0  0  0  0  0
   10.3793  -16.0941   20.3755 C   0  0  2  0  0  0  0  0  0  0  0  0
   10.0214  -14.9853   19.5318 N   0  0  0  0  0  0  0  0  0  0  0  0
   10.4913  -15.7435   21.8218 C   0  0  0  0  0  0  0  0  0  0  0  0
   11.3727  -14.9777   22.2055 O   0  0  0  0  0  0  0  0  0  0  0  0
    6.0833  -11.4329   27.9713 O   0  0  0  0  0  0  0  0  0  0  0  0
    6.5712  -12.2306   26.9372 C   0  0  0  0  0  0  0  0  0  0  0  0
    7.7407  -12.9456   27.0723 C   0  0  0  0  0  0  0  0  0  0  0  0
    8.2125  -13.7348   26.0337 C   0  0  0  0  0  0  0  0  0  0  0  0
    7.5468  -13.8429   24.8320 C   0  0  0  0  0  0  0  0  0  0  0  0
    7.9992  -14.6553   23.6946 C   0  0  0  0  0  0  0  0  0  0  0  0
    9.2105  -15.4962   23.9728 C   0  0  2  0  0  0  0  0  0  0  0  0
    9.5993  -16.2723   22.7942 N   0  0  0  0  0  0  0  0  0  0  0  0
    9.1220  -16.3528   25.1608 C   0  0  0  0  0  0  0  0  0  0  0  0
    8.5610  -17.4572   25.1032 O   0  0  0  0  0  0  0  0  0  0  0  0
    6.3770  -13.1194   24.7150 C   0  0  0  0  0  0  0  0  0  0  0  0
    5.8956  -12.3299   25.7407 C   0  0  0  0  0  0  0  0  0  0  0  0
    9.6684  -15.9200   26.3440 O   0  0  0  0  0  0  0  0  0  0  0  0
  2  3  1  0
  2  1  1  0
  3  4  2  0
  5  6  1  0
  6  8  1  0
  6  7  2  0
  8  9  1  0
 10  9  1  6
 10 12  1  0
 11 10  1  0
 11  3  1  0
 12 21  1  0
 13 12  2  0
 15 14  1  0
 16 15  2  0
 17 16  1  0
 18 17  2  0
 18 24  1  0
 19 18  1  0
 20 19  1  6
 21 20  1  0
 22 20  1  0
 23 22  2  0
 24 25  2  0
 25 15  1  0
 26 22  1  0
M  END
$$$$
