GQY.pdb
     RDKit          3D

 26 26  0  0  1  0  0  0  0  0999 V2000
    8.2590  -12.3067   18.8282 N   0  0  0  0  0  0  0  0  0  0  0  0
    8.4930  -13.7464   18.7996 C   0  0  0  0  0  0  0  0  0  0  0  0
    8.1887  -14.3260   20.1622 C   0  0  0  0  0  0  0  0  0  0  0  0
    8.1028  -13.5621   21.1532 O   0  0  0  0  0  0  0  0  0  0  0  0
    5.8124  -17.7721   24.8720 N   0  0  0  0  0  0  0  0  0  0  0  0
    5.7960  -18.0439   23.4733 C   0  0  0  0  0  0  0  0  0  0  0  0
    4.6988  -17.9067   22.8894 O   0  0  0  0  0  0  0  0  0  0  0  0
    6.9955  -18.4647   22.7292 C   0  0  0  0  0  0  0  0  0  0  0  0
    7.1806  -17.7763   21.4161 C   0  0  0  0  0  0  0  0  0  0  0  0
    7.7129  -16.3994   21.5649 C   0  0  2  0  0  0  0  0  0  0  0  0
    8.0008  -15.7187   20.3309 N   0  0  0  0  0  0  0  0  0  0  0  0
    8.7944  -16.2845   22.5869 C   0  0  0  0  0  0  0  0  0  0  0  0
    9.9322  -16.6706   22.3285 O   0  0  0  0  0  0  0  0  0  0  0  0
    4.8224  -11.9948   27.2788 O   0  0  0  0  0  0  0  0  0  0  0  0
    6.0084  -12.5603   26.8126 C   0  0  0  0  0  0  0  0  0  0  0  0
    6.0350  -13.3375   25.6757 C   0  0  0  0  0  0  0  0  0  0  0  0
    7.2236  -13.8928   25.2249 C   0  0  0  0  0  0  0  0  0  0  0  0
    8.4202  -13.6991   25.8802 C   0  0  0  0  0  0  0  0  0  0  0  0
    9.7078  -14.2655   25.4566 C   0  0  0  0  0  0  0  0  0  0  0  0
    9.6197  -15.6465   24.8761 C   0  0  2  0  0  0  0  0  0  0  0  0
    8.5548  -15.7342   23.8756 N   0  0  0  0  0  0  0  0  0  0  0  0
    9.5125  -16.7345   25.8548 C   0  0  0  0  0  0  0  0  0  0  0  0
    8.5756  -17.5448   25.7988 O   0  0  0  0  0  0  0  0  0  0  0  0
    8.3740  -12.9176   27.0172 C   0  0  0  0  0  0  0  0  0  0  0  0
    7.1981  -12.3586   27.4773 C   0  0  0  0  0  0  0  0  0  0  0  0
   10.4632  -16.8494   26.8392 O   0  0  0  0  0  0  0  0  0  0  0  0
  2  3  1  0
  2  1  1  0
  3  4  2  0
  5  6  1  0
  6  8  1  0
  6  7  2  0
  8  9  1  0
 10  9  1  6
 10 12  1  0
 11 10  1  0
 11  3  1  0
 12 21  1  0
 13 12  2  0
 15 14  1  0
 16 15  2  0
 17 16  1  0
 18 17  2  0
 18 24  1  0
 19 18  1  0
 20 19  1  1
 21 20  1  0
 22 20  1  0
 23 22  2  0
 24 25  2  0
 25 15  1  0
 26 22  1  0
M  END
$$$$
