GMI.pdb
     RDKit          3D

 21 20  0  0  1  0  0  0  0  0999 V2000
   21.0041  -20.6784   -9.8691 N   0  0  0  0  0  0  0  0  0  0  0  0
   22.1670  -21.3017   -9.2679 C   0  0  0  0  0  0  0  0  0  0  0  0
   23.3883  -20.5842   -9.6853 C   0  0  0  0  0  0  0  0  0  0  0  0
   23.3430  -19.7426  -10.6068 O   0  0  0  0  0  0  0  0  0  0  0  0
   29.3011  -18.9527   -6.3708 C   0  0  0  0  0  0  0  0  0  0  0  0
   27.8982  -19.9915   -5.8843 S   0  0  0  0  0  0  0  0  0  0  0  0
   26.5316  -19.7390   -7.0750 C   0  0  0  0  0  0  0  0  0  0  0  0
   26.8619  -20.4338   -8.3601 C   0  0  0  0  0  0  0  0  0  0  0  0
   25.8395  -20.2640   -9.4284 C   0  0  2  0  0  0  0  0  0  0  0  0
   24.5965  -20.9000   -8.9916 N   0  0  0  0  0  0  0  0  0  0  0  0
   26.2413  -21.0094  -10.6757 C   0  0  0  0  0  0  0  0  0  0  0  0
   25.9529  -22.2201  -10.7021 O   0  0  0  0  0  0  0  0  0  0  0  0
   23.5632  -22.8755  -13.9804 C   0  0  0  0  0  0  0  0  0  0  0  0
   24.9465  -22.6067  -13.4682 C   0  0  0  0  0  0  0  0  0  0  0  0
   25.3775  -21.1868  -13.4756 C   0  0  2  0  0  0  0  0  0  0  0  0
   24.7854  -20.4044  -14.6442 C   0  0  0  0  0  0  0  0  0  0  0  0
   26.7677  -20.8411  -13.1122 C   0  0  2  0  0  0  0  0  0  0  0  0
   26.8974  -20.4041  -11.7497 N   0  0  0  0  0  0  0  0  0  0  0  0
   27.6125  -20.1661  -14.0983 C   0  0  0  0  0  0  0  0  0  0  0  0
   27.8282  -18.9271  -14.1798 O   0  0  0  0  0  0  0  0  0  0  0  0
   28.3099  -20.8755  -15.1035 O   0  0  0  0  0  0  0  0  0  0  0  0
  2  1  1  0
  3  2  1  0
  3 10  1  0
  4  3  2  0
  6  5  1  0
  7  8  1  0
  7  6  1  0
  9  8  1  1
  9 10  1  0
  9 11  1  0
 11 12  2  0
 13 14  1  0
 15 14  1  0
 15 16  1  6
 17 15  1  0
 18 11  1  0
 17 18  1  1
 19 17  1  0
 20 19  2  0
 21 19  1  0
M  END
$$$$
