GMI.pdb
     RDKit          3D

 21 20  0  0  1  0  0  0  0  0999 V2000
   30.8952  -22.0388  -11.6914 N   0  0  0  0  0  0  0  0  0  0  0  0
   30.4182  -20.8631  -10.9895 C   0  0  0  0  0  0  0  0  0  0  0  0
   29.2105  -21.2036  -10.2111 C   0  0  0  0  0  0  0  0  0  0  0  0
   28.5041  -22.1809  -10.5357 O   0  0  0  0  0  0  0  0  0  0  0  0
   27.9711  -18.2506   -4.2709 C   0  0  0  0  0  0  0  0  0  0  0  0
   27.1907  -19.8845   -4.3454 S   0  0  0  0  0  0  0  0  0  0  0  0
   26.6639  -20.2126   -6.0670 C   0  0  0  0  0  0  0  0  0  0  0  0
   27.8184  -19.9735   -6.9907 C   0  0  0  0  0  0  0  0  0  0  0  0
   27.7149  -20.6809   -8.2961 C   0  0  2  0  0  0  0  0  0  0  0  0
   28.9030  -20.3712   -9.0915 N   0  0  0  0  0  0  0  0  0  0  0  0
   26.5570  -20.1489   -9.1017 C   0  0  0  0  0  0  0  0  0  0  0  0
   26.5891  -18.9319   -9.3616 O   0  0  0  0  0  0  0  0  0  0  0  0
   24.5351  -20.4047  -14.3702 C   0  0  0  0  0  0  0  0  0  0  0  0
   24.0402  -20.1767  -12.9734 C   0  0  0  0  0  0  0  0  0  0  0  0
   24.9239  -20.6606  -11.8839 C   0  0  2  0  0  0  0  0  0  0  0  0
   25.6069  -21.9803  -12.2308 C   0  0  0  0  0  0  0  0  0  0  0  0
   24.5016  -20.5088  -10.4758 C   0  0  2  0  0  0  0  0  0  0  0  0
   25.5005  -20.9493   -9.5417 N   0  0  0  0  0  0  0  0  0  0  0  0
   23.1084  -20.7798  -10.1190 C   0  0  0  0  0  0  0  0  0  0  0  0
   22.7034  -21.4865   -9.1574 O   0  0  0  0  0  0  0  0  0  0  0  0
   22.0254  -20.2422  -10.8525 O   0  0  0  0  0  0  0  0  0  0  0  0
  2  1  1  0
  3  2  1  0
  3 10  1  0
  4  3  2  0
  6  5  1  0
  7  8  1  0
  7  6  1  0
  9  8  1  1
  9 10  1  0
  9 11  1  0
 11 12  2  0
 13 14  1  0
 15 14  1  0
 15 16  1  6
 17 15  1  0
 18 11  1  0
 17 18  1  1
 19 17  1  0
 20 19  2  0
 21 19  1  0
M  END
$$$$
