GMI.pdb
     RDKit          3D

 21 20  0  0  1  0  0  0  0  0999 V2000
   28.5946  -20.4361  -17.4874 N   0  0  0  0  0  0  0  0  0  0  0  0
   28.8960  -19.7299  -16.2574 C   0  0  0  0  0  0  0  0  0  0  0  0
   28.5209  -20.5651  -15.0989 C   0  0  0  0  0  0  0  0  0  0  0  0
   27.7143  -21.5087  -15.2348 O   0  0  0  0  0  0  0  0  0  0  0  0
   32.5268  -21.8561  -10.4742 C   0  0  0  0  0  0  0  0  0  0  0  0
   31.0762  -21.7812   -9.3907 S   0  0  0  0  0  0  0  0  0  0  0  0
   29.5652  -21.7533  -10.4228 C   0  0  0  0  0  0  0  0  0  0  0  0
   29.8539  -21.0285  -11.7013 C   0  0  0  0  0  0  0  0  0  0  0  0
   28.7155  -21.0000  -12.6596 C   0  0  2  0  0  0  0  0  0  0  0  0
   29.1190  -20.2402  -13.8429 N   0  0  0  0  0  0  0  0  0  0  0  0
   27.5512  -20.2349  -12.0835 C   0  0  0  0  0  0  0  0  0  0  0  0
   27.3491  -19.1063  -12.5684 O   0  0  0  0  0  0  0  0  0  0  0  0
   22.6253  -21.4789  -13.2642 C   0  0  0  0  0  0  0  0  0  0  0  0
   23.9964  -21.6029  -12.6703 C   0  0  0  0  0  0  0  0  0  0  0  0
   24.5993  -20.3468  -12.1599 C   0  0  2  0  0  0  0  0  0  0  0  0
   25.1899  -19.4890  -13.2751 C   0  0  0  0  0  0  0  0  0  0  0  0
   25.3588  -20.3608  -10.8921 C   0  0  2  0  0  0  0  0  0  0  0  0
   26.7342  -20.7371  -11.0683 N   0  0  0  0  0  0  0  0  0  0  0  0
   24.7010  -20.8391   -9.6755 C   0  0  0  0  0  0  0  0  0  0  0  0
   23.5738  -20.4803   -9.2407 O   0  0  0  0  0  0  0  0  0  0  0  0
   25.2937  -21.8047   -8.8292 O   0  0  0  0  0  0  0  0  0  0  0  0
  2  1  1  0
  3  2  1  0
  3 10  1  0
  4  3  2  0
  6  5  1  0
  7  8  1  0
  7  6  1  0
  9  8  1  1
  9 10  1  0
  9 11  1  0
 11 12  2  0
 13 14  1  0
 15 14  1  0
 15 16  1  6
 17 15  1  0
 18 11  1  0
 17 18  1  6
 19 17  1  0
 20 19  2  0
 21 19  1  0
M  END
$$$$
