GMI.pdb
     RDKit          3D

 21 20  0  0  1  0  0  0  0  0999 V2000
   19.9877  -14.7395  -16.9574 N   0  0  0  0  0  0  0  0  0  0  0  0
   20.9882  -13.9044  -17.5931 C   0  0  0  0  0  0  0  0  0  0  0  0
   21.5828  -12.9925  -16.5955 C   0  0  0  0  0  0  0  0  0  0  0  0
   20.9242  -12.6312  -15.5979 O   0  0  0  0  0  0  0  0  0  0  0  0
   28.0595  -11.1714  -16.0586 C   0  0  0  0  0  0  0  0  0  0  0  0
   27.4495  -12.8614  -15.8223 S   0  0  0  0  0  0  0  0  0  0  0  0
   25.6904  -12.7930  -15.3222 C   0  0  0  0  0  0  0  0  0  0  0  0
   25.0124  -11.6753  -16.0532 C   0  0  0  0  0  0  0  0  0  0  0  0
   23.5353  -11.6340  -15.8749 C   0  0  2  0  0  0  0  0  0  0  0  0
   22.9229  -12.5570  -16.8306 N   0  0  0  0  0  0  0  0  0  0  0  0
   22.9908  -10.2766  -16.2403 C   0  0  0  0  0  0  0  0  0  0  0  0
   23.4194   -9.7865  -17.3013 O   0  0  0  0  0  0  0  0  0  0  0  0
   18.8646   -7.0280  -18.2396 C   0  0  0  0  0  0  0  0  0  0  0  0
   19.9464   -6.9486  -17.2045 C   0  0  0  0  0  0  0  0  0  0  0  0
   20.5094   -8.2450  -16.7524 C   0  0  2  0  0  0  0  0  0  0  0  0
   19.4381   -9.3187  -16.5854 C   0  0  0  0  0  0  0  0  0  0  0  0
   21.5956   -8.2627  -15.7504 C   0  0  2  0  0  0  0  0  0  0  0  0
   22.0627   -9.5890  -15.4553 N   0  0  0  0  0  0  0  0  0  0  0  0
   21.5428   -7.3237  -14.6292 C   0  0  0  0  0  0  0  0  0  0  0  0
   21.3803   -6.0761  -14.7017 O   0  0  0  0  0  0  0  0  0  0  0  0
   21.6691   -7.7474  -13.2860 O   0  0  0  0  0  0  0  0  0  0  0  0
  2  1  1  0
  3  2  1  0
  3 10  1  0
  4  3  2  0
  6  5  1  0
  7  8  1  0
  7  6  1  0
  9  8  1  6
  9 10  1  0
  9 11  1  0
 11 12  2  0
 13 14  1  0
 15 14  1  0
 15 16  1  1
 17 15  1  0
 18 11  1  0
 17 18  1  1
 19 17  1  0
 20 19  2  0
 21 19  1  0
M  END
$$$$
