GMI.pdb
     RDKit          3D

 21 20  0  0  1  0  0  0  0  0999 V2000
   29.3385  -22.1773  -16.0818 N   0  0  0  0  0  0  0  0  0  0  0  0
   28.0387  -22.6238  -15.6197 C   0  0  0  0  0  0  0  0  0  0  0  0
   27.4424  -21.5970  -14.7419 C   0  0  0  0  0  0  0  0  0  0  0  0
   28.1655  -20.7456  -14.1836 O   0  0  0  0  0  0  0  0  0  0  0  0
   20.9316  -21.2580  -14.0086 C   0  0  0  0  0  0  0  0  0  0  0  0
   21.4381  -19.5227  -13.8805 S   0  0  0  0  0  0  0  0  0  0  0  0
   23.1955  -19.4533  -13.3745 C   0  0  0  0  0  0  0  0  0  0  0  0
   23.9815  -20.4388  -14.1832 C   0  0  0  0  0  0  0  0  0  0  0  0
   25.3947  -20.6016  -13.7455 C   0  0  2  0  0  0  0  0  0  0  0  0
   26.0245  -21.6319  -14.5713 N   0  0  0  0  0  0  0  0  0  0  0  0
   25.4595  -21.1370  -12.3377 C   0  0  0  0  0  0  0  0  0  0  0  0
   25.3788  -22.3739  -12.2222 O   0  0  0  0  0  0  0  0  0  0  0  0
   27.9222  -19.8702   -6.8608 C   0  0  0  0  0  0  0  0  0  0  0  0
   26.9887  -20.6952   -7.6950 C   0  0  0  0  0  0  0  0  0  0  0  0
   26.6607  -20.1494   -9.0354 C   0  0  2  0  0  0  0  0  0  0  0  0
   26.6399  -18.6237   -9.0538 C   0  0  0  0  0  0  0  0  0  0  0  0
   25.6351  -20.8140   -9.8664 C   0  0  2  0  0  0  0  0  0  0  0  0
   25.6008  -20.3188  -11.2147 N   0  0  0  0  0  0  0  0  0  0  0  0
   24.3469  -21.1587   -9.2637 C   0  0  0  0  0  0  0  0  0  0  0  0
   24.1525  -21.9735   -8.3221 O   0  0  0  0  0  0  0  0  0  0  0  0
   23.1332  -20.5766   -9.6972 O   0  0  0  0  0  0  0  0  0  0  0  0
  2  1  1  0
  3  2  1  0
  3 10  1  0
  4  3  2  0
  6  5  1  0
  7  8  1  0
  7  6  1  0
  9  8  1  6
  9 10  1  0
  9 11  1  0
 11 12  2  0
 13 14  1  0
 15 14  1  0
 15 16  1  1
 17 15  1  0
 18 11  1  0
 17 18  1  6
 19 17  1  0
 20 19  2  0
 21 19  1  0
M  END
$$$$
