GMI.pdb
     RDKit          3D

 21 20  0  0  1  0  0  0  0  0999 V2000
   27.4217  -23.7583  -16.2503 N   0  0  0  0  0  0  0  0  0  0  0  0
   27.3850  -22.4949  -15.5398 C   0  0  0  0  0  0  0  0  0  0  0  0
   26.3306  -22.5349  -14.5067 C   0  0  0  0  0  0  0  0  0  0  0  0
   25.4342  -23.4032  -14.5520 O   0  0  0  0  0  0  0  0  0  0  0  0
   27.4412  -20.3951   -8.7384 C   0  0  0  0  0  0  0  0  0  0  0  0
   25.6840  -19.9555   -8.6812 S   0  0  0  0  0  0  0  0  0  0  0  0
   24.8538  -20.6343  -10.1642 C   0  0  0  0  0  0  0  0  0  0  0  0
   25.8631  -20.8142  -11.2561 C   0  0  0  0  0  0  0  0  0  0  0  0
   25.3518  -21.5438  -12.4484 C   0  0  2  0  0  0  0  0  0  0  0  0
   26.3925  -21.5471  -13.4766 N   0  0  0  0  0  0  0  0  0  0  0  0
   24.1927  -20.8065  -13.0694 C   0  0  0  0  0  0  0  0  0  0  0  0
   24.4508  -19.6812  -13.5348 O   0  0  0  0  0  0  0  0  0  0  0  0
   19.0924  -21.8175  -16.2624 C   0  0  0  0  0  0  0  0  0  0  0  0
   19.7630  -20.9360  -15.2518 C   0  0  0  0  0  0  0  0  0  0  0  0
   21.0336  -21.4497  -14.6829 C   0  0  2  0  0  0  0  0  0  0  0  0
   20.9762  -22.9454  -14.3862 C   0  0  0  0  0  0  0  0  0  0  0  0
   21.7833  -20.6314  -13.7070 C   0  0  2  0  0  0  0  0  0  0  0  0
   22.8994  -21.3299  -13.1318 N   0  0  0  0  0  0  0  0  0  0  0  0
   21.0454  -19.7336  -12.8175 C   0  0  0  0  0  0  0  0  0  0  0  0
   20.4199  -18.6921  -13.1525 O   0  0  0  0  0  0  0  0  0  0  0  0
   20.9523  -19.9625  -11.4252 O   0  0  0  0  0  0  0  0  0  0  0  0
  2  1  1  0
  3  2  1  0
  3 10  1  0
  4  3  2  0
  6  5  1  0
  7  8  1  0
  7  6  1  0
  9  8  1  1
  9 10  1  0
  9 11  1  0
 11 12  2  0
 13 14  1  0
 15 14  1  0
 15 16  1  1
 17 15  1  0
 18 11  1  0
 17 18  1  1
 19 17  1  0
 20 19  2  0
 21 19  1  0
M  END
$$$$
