GMI.pdb
     RDKit          3D

 21 20  0  0  1  0  0  0  0  0999 V2000
   20.4946  -22.1498   -6.7046 N   0  0  0  0  0  0  0  0  0  0  0  0
   21.7585  -22.6062   -7.2494 C   0  0  0  0  0  0  0  0  0  0  0  0
   22.4630  -21.4760   -7.8874 C   0  0  0  0  0  0  0  0  0  0  0  0
   21.8178  -20.5492   -8.4206 O   0  0  0  0  0  0  0  0  0  0  0  0
   27.4869  -18.8674   -5.6947 C   0  0  0  0  0  0  0  0  0  0  0  0
   28.1891  -18.8907   -7.3651 S   0  0  0  0  0  0  0  0  0  0  0  0
   26.8648  -19.2995   -8.5601 C   0  0  0  0  0  0  0  0  0  0  0  0
   26.0138  -20.3964   -7.9979 C   0  0  0  0  0  0  0  0  0  0  0  0
   24.6220  -20.4229   -8.5247 C   0  0  2  0  0  0  0  0  0  0  0  0
   23.8911  -21.5023   -7.8608 N   0  0  0  0  0  0  0  0  0  0  0  0
   24.6114  -20.7872   -9.9875 C   0  0  0  0  0  0  0  0  0  0  0  0
   24.8105  -21.9876  -10.2503 O   0  0  0  0  0  0  0  0  0  0  0  0
   20.3969  -20.6928  -12.7179 C   0  0  0  0  0  0  0  0  0  0  0  0
   21.7917  -20.9114  -12.2131 C   0  0  0  0  0  0  0  0  0  0  0  0
   22.8527  -20.1052  -12.8661 C   0  0  2  0  0  0  0  0  0  0  0  0
   22.6740  -20.0235  -14.3793 C   0  0  0  0  0  0  0  0  0  0  0  0
   24.2483  -20.2080  -12.3906 C   0  0  2  0  0  0  0  0  0  0  0  0
   24.3945  -19.8558  -11.0054 N   0  0  0  0  0  0  0  0  0  0  0  0
   25.3346  -19.8066  -13.2853 C   0  0  0  0  0  0  0  0  0  0  0  0
   25.8998  -20.5276  -14.1507 O   0  0  0  0  0  0  0  0  0  0  0  0
   25.8796  -18.5017  -13.2694 O   0  0  0  0  0  0  0  0  0  0  0  0
  2  1  1  0
  3  2  1  0
  3 10  1  0
  4  3  2  0
  6  5  1  0
  7  8  1  0
  7  6  1  0
  9  8  1  1
  9 10  1  0
  9 11  1  0
 11 12  2  0
 13 14  1  0
 15 14  1  0
 15 16  1  6
 17 15  1  0
 18 11  1  0
 17 18  1  1
 19 17  1  0
 20 19  2  0
 21 19  1  0
M  END
$$$$
