GMI.pdb
     RDKit          3D

 21 20  0  0  1  0  0  0  0  0999 V2000
   27.5788  -22.9065  -16.8918 N   0  0  0  0  0  0  0  0  0  0  0  0
   27.3667  -21.7774  -16.0072 C   0  0  0  0  0  0  0  0  0  0  0  0
   26.3085  -22.1023  -15.0299 C   0  0  0  0  0  0  0  0  0  0  0  0
   25.6077  -23.1258  -15.1742 O   0  0  0  0  0  0  0  0  0  0  0  0
   26.9358  -20.8641   -8.7448 C   0  0  0  0  0  0  0  0  0  0  0  0
   25.2193  -20.3385   -8.9927 S   0  0  0  0  0  0  0  0  0  0  0  0
   24.5701  -21.1279  -10.5108 C   0  0  0  0  0  0  0  0  0  0  0  0
   25.5079  -20.8583  -11.6471 C   0  0  0  0  0  0  0  0  0  0  0  0
   25.1217  -21.5111  -12.9278 C   0  0  2  0  0  0  0  0  0  0  0  0
   26.1357  -21.2005  -13.9355 N   0  0  0  0  0  0  0  0  0  0  0  0
   23.8438  -20.9187  -13.4652 C   0  0  0  0  0  0  0  0  0  0  0  0
   23.8762  -19.7019  -13.7258 O   0  0  0  0  0  0  0  0  0  0  0  0
   19.9072  -21.2197  -17.7455 C   0  0  0  0  0  0  0  0  0  0  0  0
   19.9999  -20.9501  -16.2736 C   0  0  0  0  0  0  0  0  0  0  0  0
   21.2761  -21.3355  -15.6217 C   0  0  2  0  0  0  0  0  0  0  0  0
   21.8323  -22.6498  -16.1616 C   0  0  0  0  0  0  0  0  0  0  0  0
   21.4551  -21.1117  -14.1718 C   0  0  2  0  0  0  0  0  0  0  0  0
   22.6812  -21.6657  -13.6676 N   0  0  0  0  0  0  0  0  0  0  0  0
   20.2893  -21.1953  -13.2911 C   0  0  0  0  0  0  0  0  0  0  0  0
   20.1122  -22.0217  -12.3563 O   0  0  0  0  0  0  0  0  0  0  0  0
   19.1947  -20.3072  -13.4050 O   0  0  0  0  0  0  0  0  0  0  0  0
  2  1  1  0
  3  2  1  0
  3 10  1  0
  4  3  2  0
  6  5  1  0
  7  8  1  0
  7  6  1  0
  9  8  1  1
  9 10  1  0
  9 11  1  0
 11 12  2  0
 13 14  1  0
 15 14  1  0
 15 16  1  1
 17 15  1  0
 18 11  1  0
 17 18  1  1
 19 17  1  0
 20 19  2  0
 21 19  1  0
M  END
$$$$
