GMI.pdb
     RDKit          3D

 21 20  0  0  1  0  0  0  0  0999 V2000
   29.9572  -22.0048  -12.5983 N   0  0  0  0  0  0  0  0  0  0  0  0
   29.8060  -20.9521  -11.6127 C   0  0  0  0  0  0  0  0  0  0  0  0
   28.7107  -21.2937  -10.6832 C   0  0  0  0  0  0  0  0  0  0  0  0
   27.9237  -22.2261  -10.9494 O   0  0  0  0  0  0  0  0  0  0  0  0
   28.9370  -18.8404   -4.8705 C   0  0  0  0  0  0  0  0  0  0  0  0
   27.4887  -19.8844   -4.5596 S   0  0  0  0  0  0  0  0  0  0  0  0
   26.8492  -20.5038   -6.1586 C   0  0  0  0  0  0  0  0  0  0  0  0
   27.8450  -20.2063   -7.2371 C   0  0  0  0  0  0  0  0  0  0  0  0
   27.5178  -20.8122   -8.5566 C   0  0  2  0  0  0  0  0  0  0  0  0
   28.6046  -20.5154   -9.4900 N   0  0  0  0  0  0  0  0  0  0  0  0
   26.2990  -20.1589   -9.1571 C   0  0  0  0  0  0  0  0  0  0  0  0
   26.4798  -19.0396   -9.6711 O   0  0  0  0  0  0  0  0  0  0  0  0
   24.1092  -20.0311  -13.9612 C   0  0  0  0  0  0  0  0  0  0  0  0
   23.5747  -19.9256  -12.5644 C   0  0  0  0  0  0  0  0  0  0  0  0
   24.4550  -20.4492  -11.4907 C   0  0  2  0  0  0  0  0  0  0  0  0
   25.2053  -21.7083  -11.9149 C   0  0  0  0  0  0  0  0  0  0  0  0
   23.9947  -20.4205  -10.0865 C   0  0  2  0  0  0  0  0  0  0  0  0
   25.0338  -20.7501   -9.1505 N   0  0  0  0  0  0  0  0  0  0  0  0
   22.6512  -20.9064   -9.7695 C   0  0  0  0  0  0  0  0  0  0  0  0
   21.5699  -20.5140  -10.2845 O   0  0  0  0  0  0  0  0  0  0  0  0
   22.4243  -21.9200   -8.8098 O   0  0  0  0  0  0  0  0  0  0  0  0
  2  1  1  0
  3  2  1  0
  3 10  1  0
  4  3  2  0
  6  5  1  0
  7  8  1  0
  7  6  1  0
  9  8  1  1
  9 10  1  0
  9 11  1  0
 11 12  2  0
 13 14  1  0
 15 14  1  0
 15 16  1  6
 17 15  1  0
 18 11  1  0
 17 18  1  1
 19 17  1  0
 20 19  2  0
 21 19  1  0
M  END
$$$$
