GMI.pdb
     RDKit          3D

 21 20  0  0  1  0  0  0  0  0999 V2000
   20.4982  -20.4188  -12.1359 N   0  0  0  0  0  0  0  0  0  0  0  0
   21.5835  -21.3228  -11.8086 C   0  0  0  0  0  0  0  0  0  0  0  0
   22.8647  -20.5888  -11.8235 C   0  0  0  0  0  0  0  0  0  0  0  0
   23.0024  -19.5723  -12.5357 O   0  0  0  0  0  0  0  0  0  0  0  0
   27.9175  -19.5040   -7.2369 C   0  0  0  0  0  0  0  0  0  0  0  0
   26.5733  -20.7173   -7.1657 S   0  0  0  0  0  0  0  0  0  0  0  0
   25.3925  -20.3752   -8.5214 C   0  0  0  0  0  0  0  0  0  0  0  0
   25.9852  -20.8311   -9.8192 C   0  0  0  0  0  0  0  0  0  0  0  0
   25.2117  -20.4216  -11.0230 C   0  0  2  0  0  0  0  0  0  0  0  0
   23.9135  -21.0956  -10.9964 N   0  0  0  0  0  0  0  0  0  0  0  0
   25.8808  -20.9141  -12.2810 C   0  0  0  0  0  0  0  0  0  0  0  0
   25.5997  -22.0764  -12.6270 O   0  0  0  0  0  0  0  0  0  0  0  0
   26.9262  -17.9222  -17.4596 C   0  0  0  0  0  0  0  0  0  0  0  0
   27.0873  -19.2118  -16.7120 C   0  0  0  0  0  0  0  0  0  0  0  0
   26.8965  -19.1388  -15.2421 C   0  0  2  0  0  0  0  0  0  0  0  0
   27.4843  -17.8654  -14.6411 C   0  0  0  0  0  0  0  0  0  0  0  0
   27.0419  -20.3602  -14.4227 C   0  0  2  0  0  0  0  0  0  0  0  0
   26.7656  -20.1360  -13.0307 N   0  0  0  0  0  0  0  0  0  0  0  0
   28.1218  -21.2983  -14.7319 C   0  0  0  0  0  0  0  0  0  0  0  0
   28.3635  -21.8221  -15.8524 O   0  0  0  0  0  0  0  0  0  0  0  0
   29.0505  -21.7256  -13.7548 O   0  0  0  0  0  0  0  0  0  0  0  0
  2  1  1  0
  3  2  1  0
  3 10  1  0
  4  3  2  0
  6  5  1  0
  7  8  1  0
  7  6  1  0
  9  8  1  1
  9 10  1  0
  9 11  1  0
 11 12  2  0
 13 14  1  0
 15 14  1  0
 15 16  1  1
 17 15  1  0
 18 11  1  0
 17 18  1  1
 19 17  1  0
 20 19  2  0
 21 19  1  0
M  END
$$$$
