LVP.pdb
     RDKit          3D

 23 23  0  0  1  0  0  0  0  0999 V2000
   23.0421  -21.2956  -10.9359 C   0  0  0  0  0  0  0  0  0  0  0  0
   24.3260  -21.6651  -11.6916 C   0  0  2  0  0  0  0  0  0  0  0  0
   24.1425  -23.1072  -12.1055 C   0  0  0  0  0  0  0  0  0  0  0  0
   25.5461  -21.4232  -10.8679 C   0  0  0  0  0  0  0  0  0  0  0  0
   25.7113  -19.9926  -10.4856 C   0  0  2  0  0  0  0  0  0  0  0  0
   25.7697  -19.1733  -11.6553 N   0  0  0  0  0  0  0  0  0  0  0  0
   26.8111  -19.7527   -9.5379 C   0  0  0  0  0  0  0  0  0  0  0  0
   28.0074  -19.7397   -9.9208 O   0  0  0  0  0  0  0  0  0  0  0  0
   27.4165  -16.7106   -7.4105 C   0  0  0  0  0  0  0  0  0  0  0  0
   27.4086  -17.9116   -6.4710 C   0  0  2  0  0  0  0  0  0  0  0  0
   28.4429  -17.6538   -5.4028 C   0  0  0  0  0  0  0  0  0  0  0  0
   27.6804  -19.1931   -7.2440 C   0  0  2  0  0  0  0  0  0  0  0  0
   26.6082  -19.5193   -8.1233 N   0  0  0  0  0  0  0  0  0  0  0  0
   27.9834  -20.2519   -6.2810 C   0  0  0  0  0  0  0  0  0  0  0  0
   26.9624  -20.6931   -5.6291 O   0  0  0  0  0  0  0  0  0  0  0  0
   29.2108  -20.8383   -5.9788 N   0  0  0  0  0  0  0  0  0  0  0  0
   30.4827  -20.6240   -6.6149 C   0  0  0  0  0  0  0  0  0  0  0  0
   31.5524  -21.1295   -5.6549 C   0  0  0  0  0  0  0  0  0  0  0  0
   30.8492  -22.2315   -4.9387 C   0  0  0  0  0  0  0  0  0  0  0  0
   29.4134  -21.8124   -4.9118 C   0  0  1  0  0  0  0  0  0  0  0  0
   29.1271  -21.1857   -3.6017 C   0  0  0  0  0  0  0  0  0  0  0  0
   28.9376  -21.9141   -2.4408 O   0  0  0  0  0  0  0  0  0  0  0  0
   29.0550  -19.9204   -3.5587 O   0  0  0  0  0  0  0  0  0  0  0  0
  2  1  1  1
  2  3  1  0
  4  2  1  0
  4  5  1  0
  5  6  1  6
  7  5  1  0
  7  8  2  0
 10 12  1  0
 10 11  1  1
 10  9  1  0
 12 13  1  1
 13  7  1  0
 14 12  1  0
 15 14  2  0
 16 14  1  0
 17 16  1  0
 18 17  1  0
 19 18  1  0
 19 20  1  0
 20 21  1  1
 20 16  1  0
 21 22  1  0
 23 21  2  0
M  END
$$$$
