LVP.pdb
     RDKit          3D

 23 23  0  0  1  0  0  0  0  0999 V2000
   18.3121  -18.0115  -14.4334 C   0  0  0  0  0  0  0  0  0  0  0  0
   19.7316  -18.3062  -13.9294 C   0  0  2  0  0  0  0  0  0  0  0  0
   19.5780  -18.5917  -12.4531 C   0  0  0  0  0  0  0  0  0  0  0  0
   20.6737  -17.1903  -14.2345 C   0  0  0  0  0  0  0  0  0  0  0  0
   20.7873  -16.9123  -15.6939 C   0  0  2  0  0  0  0  0  0  0  0  0
   21.3158  -18.0532  -16.3735 N   0  0  0  0  0  0  0  0  0  0  0  0
   21.4883  -15.6573  -16.0081 C   0  0  0  0  0  0  0  0  0  0  0  0
   22.7382  -15.6242  -16.1296 O   0  0  0  0  0  0  0  0  0  0  0  0
   21.4777  -13.5820  -18.9948 C   0  0  0  0  0  0  0  0  0  0  0  0
   21.0781  -12.6342  -17.8692 C   0  0  2  0  0  0  0  0  0  0  0  0
   21.7075  -11.2948  -18.1643 C   0  0  0  0  0  0  0  0  0  0  0  0
   21.5117  -13.1945  -16.5232 C   0  0  2  0  0  0  0  0  0  0  0  0
   20.8113  -14.3913  -16.1969 N   0  0  0  0  0  0  0  0  0  0  0  0
   21.3594  -12.1413  -15.5195 C   0  0  0  0  0  0  0  0  0  0  0  0
   20.1516  -11.7182  -15.3639 O   0  0  0  0  0  0  0  0  0  0  0  0
   22.3320  -11.5428  -14.7208 N   0  0  0  0  0  0  0  0  0  0  0  0
   23.7448  -11.8091  -14.6853 C   0  0  0  0  0  0  0  0  0  0  0  0
   24.4065  -10.6164  -14.0062 C   0  0  0  0  0  0  0  0  0  0  0  0
   23.3478  -10.1518  -13.0655 C   0  0  0  0  0  0  0  0  0  0  0  0
   22.0592  -10.4944  -13.7438 C   0  0  1  0  0  0  0  0  0  0  0  0
   21.5514   -9.2875  -14.4341 C   0  0  0  0  0  0  0  0  0  0  0  0
   20.9404   -8.2383  -13.7708 O   0  0  0  0  0  0  0  0  0  0  0  0
   21.6904   -9.2284  -15.6931 O   0  0  0  0  0  0  0  0  0  0  0  0
  2  1  1  1
  2  3  1  0
  4  2  1  0
  4  5  1  0
  5  6  1  6
  7  5  1  0
  7  8  2  0
 10 12  1  0
 10 11  1  6
 10  9  1  0
 12 13  1  1
 13  7  1  0
 14 12  1  0
 15 14  2  0
 16 14  1  0
 17 16  1  0
 18 17  1  0
 19 18  1  0
 19 20  1  0
 20 21  1  6
 20 16  1  0
 21 22  1  0
 23 21  2  0
M  END
$$$$
