LVP.pdb
     RDKit          3D

 23 23  0  0  1  0  0  0  0  0999 V2000
   19.8473  -20.8456  -18.2971 C   0  0  0  0  0  0  0  0  0  0  0  0
   20.6495  -19.5852  -18.6493 C   0  0  2  0  0  0  0  0  0  0  0  0
   21.3331  -19.9026  -19.9595 C   0  0  0  0  0  0  0  0  0  0  0  0
   21.5880  -19.1989  -17.5558 C   0  0  0  0  0  0  0  0  0  0  0  0
   20.8920  -18.9193  -16.2684 C   0  0  2  0  0  0  0  0  0  0  0  0
   20.0288  -17.7889  -16.4099 N   0  0  0  0  0  0  0  0  0  0  0  0
   21.7948  -18.8350  -15.1096 C   0  0  0  0  0  0  0  0  0  0  0  0
   22.3576  -17.7550  -14.8018 O   0  0  0  0  0  0  0  0  0  0  0  0
   21.0175  -19.1207  -11.6625 C   0  0  0  0  0  0  0  0  0  0  0  0
   22.1654  -20.1122  -11.8180 C   0  0  2  0  0  0  0  0  0  0  0  0
   23.0359  -19.9885  -10.5915 C   0  0  0  0  0  0  0  0  0  0  0  0
   22.9324  -19.8404  -13.1031 C   0  0  2  0  0  0  0  0  0  0  0  0
   22.1001  -19.9617  -14.2528 N   0  0  0  0  0  0  0  0  0  0  0  0
   24.0980  -20.7239  -13.1350 C   0  0  0  0  0  0  0  0  0  0  0  0
   23.8178  -21.9820  -13.1593 O   0  0  0  0  0  0  0  0  0  0  0  0
   25.4513  -20.3914  -13.1422 N   0  0  0  0  0  0  0  0  0  0  0  0
   26.0501  -19.0874  -13.0455 C   0  0  0  0  0  0  0  0  0  0  0  0
   27.5066  -19.2938  -12.6489 C   0  0  0  0  0  0  0  0  0  0  0  0
   27.8267  -20.6112  -13.2684 C   0  0  0  0  0  0  0  0  0  0  0  0
   26.5336  -21.3633  -13.2524 C   0  0  1  0  0  0  0  0  0  0  0  0
   26.5217  -22.2606  -12.0753 C   0  0  0  0  0  0  0  0  0  0  0  0
   27.1883  -23.4725  -12.0420 O   0  0  0  0  0  0  0  0  0  0  0  0
   25.8644  -21.8862  -11.0575 O   0  0  0  0  0  0  0  0  0  0  0  0
  2  1  1  1
  2  3  1  0
  4  2  1  0
  4  5  1  0
  5  6  1  6
  7  5  1  0
  7  8  2  0
 10 12  1  0
 10 11  1  1
 10  9  1  0
 12 13  1  6
 13  7  1  0
 14 12  1  0
 15 14  2  0
 16 14  1  0
 17 16  1  0
 18 17  1  0
 19 18  1  0
 19 20  1  0
 20 21  1  1
 20 16  1  0
 21 22  1  0
 23 21  2  0
M  END
$$$$
