LVP.pdb
     RDKit          3D

 23 23  0  0  1  0  0  0  0  0999 V2000
   16.6848  -11.8903  -20.4288 C   0  0  0  0  0  0  0  0  0  0  0  0
   17.4386  -12.9687  -19.6385 C   0  0  2  0  0  0  0  0  0  0  0  0
   16.7114  -14.2601  -19.9352 C   0  0  0  0  0  0  0  0  0  0  0  0
   17.5188  -12.6402  -18.1854 C   0  0  0  0  0  0  0  0  0  0  0  0
   18.6024  -13.3838  -17.4834 C   0  0  2  0  0  0  0  0  0  0  0  0
   18.1343  -14.6722  -17.0790 N   0  0  0  0  0  0  0  0  0  0  0  0
   19.2449  -12.6198  -16.4024 C   0  0  0  0  0  0  0  0  0  0  0  0
   18.7212  -12.5399  -15.2634 O   0  0  0  0  0  0  0  0  0  0  0  0
   22.8753  -12.7664  -15.0978 C   0  0  0  0  0  0  0  0  0  0  0  0
   22.5563  -11.3055  -15.3961 C   0  0  2  0  0  0  0  0  0  0  0  0
   23.1510  -10.4788  -14.2825 C   0  0  0  0  0  0  0  0  0  0  0  0
   21.0542  -11.1055  -15.5280 C   0  0  2  0  0  0  0  0  0  0  0  0
   20.5003  -11.9157  -16.5605 N   0  0  0  0  0  0  0  0  0  0  0  0
   20.7979   -9.6769  -15.7111 C   0  0  0  0  0  0  0  0  0  0  0  0
   21.5001   -9.1199  -16.6377 O   0  0  0  0  0  0  0  0  0  0  0  0
   19.9090   -8.8500  -15.0272 N   0  0  0  0  0  0  0  0  0  0  0  0
   19.0233   -9.1922  -13.9470 C   0  0  0  0  0  0  0  0  0  0  0  0
   18.6203   -7.8878  -13.2704 C   0  0  0  0  0  0  0  0  0  0  0  0
   18.6598   -6.9135  -14.3976 C   0  0  0  0  0  0  0  0  0  0  0  0
   19.7264   -7.4306  -15.3103 C   0  0  1  0  0  0  0  0  0  0  0  0
   20.9832   -6.6996  -15.0327 C   0  0  0  0  0  0  0  0  0  0  0  0
   22.0542   -7.2648  -14.3636 O   0  0  0  0  0  0  0  0  0  0  0  0
   21.0658   -5.4994  -15.4335 O   0  0  0  0  0  0  0  0  0  0  0  0
  2  1  1  6
  2  3  1  0
  4  2  1  0
  4  5  1  0
  5  6  1  1
  7  5  1  0
  7  8  2  0
 10 12  1  0
 10 11  1  1
 10  9  1  0
 12 13  1  6
 13  7  1  0
 14 12  1  0
 15 14  2  0
 16 14  1  0
 17 16  1  0
 18 17  1  0
 19 18  1  0
 19 20  1  0
 20 21  1  1
 20 16  1  0
 21 22  1  0
 23 21  2  0
M  END
$$$$
