LVP.pdb
     RDKit          3D

 23 23  0  0  1  0  0  0  0  0999 V2000
   22.1260  -18.1673  -13.3162 C   0  0  0  0  0  0  0  0  0  0  0  0
   21.3025  -19.2496  -12.6046 C   0  0  2  0  0  0  0  0  0  0  0  0
   20.0235  -18.5632  -12.1834 C   0  0  0  0  0  0  0  0  0  0  0  0
   22.0556  -19.8700  -11.4760 C   0  0  0  0  0  0  0  0  0  0  0  0
   23.3596  -20.4518  -11.9016 C   0  0  2  0  0  0  0  0  0  0  0  0
   23.1543  -21.4214  -12.9315 N   0  0  0  0  0  0  0  0  0  0  0  0
   24.1873  -20.9375  -10.7862 C   0  0  0  0  0  0  0  0  0  0  0  0
   23.8174  -21.9056  -10.0763 O   0  0  0  0  0  0  0  0  0  0  0  0
   28.4076  -20.2919  -10.7051 C   0  0  0  0  0  0  0  0  0  0  0  0
   27.6171  -21.4556  -10.1172 C   0  0  2  0  0  0  0  0  0  0  0  0
   27.3554  -22.4328  -11.2368 C   0  0  0  0  0  0  0  0  0  0  0  0
   26.3334  -20.9548   -9.4728 C   0  0  2  0  0  0  0  0  0  0  0  0
   25.4621  -20.3529  -10.4255 N   0  0  0  0  0  0  0  0  0  0  0  0
   26.6933  -20.0626   -8.3709 C   0  0  0  0  0  0  0  0  0  0  0  0
   26.7626  -18.8156   -8.6903 O   0  0  0  0  0  0  0  0  0  0  0  0
   26.9674  -20.3766   -7.0412 N   0  0  0  0  0  0  0  0  0  0  0  0
   26.9434  -21.6666   -6.4059 C   0  0  0  0  0  0  0  0  0  0  0  0
   27.7368  -21.5410   -5.1112 C   0  0  0  0  0  0  0  0  0  0  0  0
   27.5079  -20.1188   -4.7285 C   0  0  0  0  0  0  0  0  0  0  0  0
   27.3445  -19.3966   -6.0284 C   0  0  1  0  0  0  0  0  0  0  0  0
   28.6380  -18.7751   -6.3911 C   0  0  0  0  0  0  0  0  0  0  0  0
   29.1524  -17.6670   -5.7419 O   0  0  0  0  0  0  0  0  0  0  0  0
   29.2928  -19.2948   -7.3446 O   0  0  0  0  0  0  0  0  0  0  0  0
  2  1  1  1
  2  3  1  0
  4  2  1  0
  4  5  1  0
  5  6  1  6
  7  5  1  0
  7  8  2  0
 10 12  1  0
 10 11  1  6
 10  9  1  0
 12 13  1  6
 13  7  1  0
 14 12  1  0
 15 14  2  0
 16 14  1  0
 17 16  1  0
 18 17  1  0
 19 18  1  0
 19 20  1  0
 20 21  1  6
 20 16  1  0
 21 22  1  0
 23 21  2  0
M  END
$$$$
