LVP.pdb
     RDKit          3D

 23 23  0  0  1  0  0  0  0  0999 V2000
   25.0840  -25.0895  -17.5714 C   0  0  0  0  0  0  0  0  0  0  0  0
   26.5282  -25.6089  -17.5976 C   0  0  2  0  0  0  0  0  0  0  0  0
   26.4409  -27.0490  -17.1470 C   0  0  0  0  0  0  0  0  0  0  0  0
   27.4371  -24.7688  -16.7646 C   0  0  0  0  0  0  0  0  0  0  0  0
   27.4681  -23.3441  -17.1996 C   0  0  2  0  0  0  0  0  0  0  0  0
   28.4602  -23.1591  -18.2118 N   0  0  0  0  0  0  0  0  0  0  0  0
   27.5679  -22.3844  -16.0887 C   0  0  0  0  0  0  0  0  0  0  0  0
   28.6027  -22.3166  -15.3798 O   0  0  0  0  0  0  0  0  0  0  0  0
   27.5337  -18.7083  -16.1133 C   0  0  0  0  0  0  0  0  0  0  0  0
   26.4394  -19.1014  -15.1269 C   0  0  2  0  0  0  0  0  0  0  0  0
   26.4852  -18.1136  -13.9871 C   0  0  0  0  0  0  0  0  0  0  0  0
   26.6352  -20.5356  -14.6593 C   0  0  2  0  0  0  0  0  0  0  0  0
   26.5080  -21.4647  -15.7317 N   0  0  0  0  0  0  0  0  0  0  0  0
   25.7046  -20.7885  -13.5593 C   0  0  0  0  0  0  0  0  0  0  0  0
   24.4747  -20.9309  -13.9183 O   0  0  0  0  0  0  0  0  0  0  0  0
   25.9668  -20.8942  -12.1947 N   0  0  0  0  0  0  0  0  0  0  0  0
   27.2117  -20.6821  -11.5065 C   0  0  0  0  0  0  0  0  0  0  0  0
   26.8778  -20.4760  -10.0342 C   0  0  0  0  0  0  0  0  0  0  0  0
   25.6496  -21.3028   -9.8625 C   0  0  0  0  0  0  0  0  0  0  0  0
   24.9684  -21.2531  -11.1935 C   0  0  1  0  0  0  0  0  0  0  0  0
   23.9120  -20.2173  -11.1469 C   0  0  0  0  0  0  0  0  0  0  0  0
   22.6709  -20.4289  -10.5736 O   0  0  0  0  0  0  0  0  0  0  0  0
   24.1730  -19.0882  -11.6617 O   0  0  0  0  0  0  0  0  0  0  0  0
  2  1  1  1
  2  3  1  0
  4  2  1  0
  4  5  1  0
  5  6  1  6
  7  5  1  0
  7  8  2  0
 10 12  1  0
 10 11  1  1
 10  9  1  0
 12 13  1  6
 13  7  1  0
 14 12  1  0
 15 14  2  0
 16 14  1  0
 17 16  1  0
 18 17  1  0
 19 18  1  0
 19 20  1  0
 20 21  1  1
 20 16  1  0
 21 22  1  0
 23 21  2  0
M  END
$$$$
