LVP.pdb
     RDKit          3D

 23 23  0  0  1  0  0  0  0  0999 V2000
   22.5260  -19.5009  -11.6886 C   0  0  0  0  0  0  0  0  0  0  0  0
   22.8558  -20.9998  -11.7105 C   0  0  2  0  0  0  0  0  0  0  0  0
   21.5690  -21.6954  -11.3297 C   0  0  0  0  0  0  0  0  0  0  0  0
   24.0073  -21.3296  -10.8211 C   0  0  0  0  0  0  0  0  0  0  0  0
   25.2785  -20.6873  -11.2590 C   0  0  2  0  0  0  0  0  0  0  0  0
   25.5492  -21.0105  -12.6247 N   0  0  0  0  0  0  0  0  0  0  0  0
   26.4127  -20.9345  -10.3548 C   0  0  0  0  0  0  0  0  0  0  0  0
   27.1896  -21.9045  -10.5374 O   0  0  0  0  0  0  0  0  0  0  0  0
   28.3806  -17.8129   -8.6332 C   0  0  0  0  0  0  0  0  0  0  0  0
   28.9532  -19.2162   -8.7994 C   0  0  2  0  0  0  0  0  0  0  0  0
   29.4319  -19.3407  -10.2250 C   0  0  0  0  0  0  0  0  0  0  0  0
   27.9074  -20.2626   -8.4455 C   0  0  2  0  0  0  0  0  0  0  0  0
   26.7164  -20.1013   -9.2101 N   0  0  0  0  0  0  0  0  0  0  0  0
   27.6809  -20.2118   -7.0012 C   0  0  0  0  0  0  0  0  0  0  0  0
   26.5738  -19.6520   -6.6506 O   0  0  0  0  0  0  0  0  0  0  0  0
   28.4908  -20.6811   -5.9688 N   0  0  0  0  0  0  0  0  0  0  0  0
   29.7220  -21.4179   -6.0654 C   0  0  0  0  0  0  0  0  0  0  0  0
   30.4237  -21.2924   -4.7188 C   0  0  0  0  0  0  0  0  0  0  0  0
   29.2813  -21.1735   -3.7689 C   0  0  0  0  0  0  0  0  0  0  0  0
   28.2060  -20.4881   -4.5511 C   0  0  1  0  0  0  0  0  0  0  0  0
   28.2320  -19.0438   -4.2279 C   0  0  0  0  0  0  0  0  0  0  0  0
   27.7914  -18.5315   -3.0207 O   0  0  0  0  0  0  0  0  0  0  0  0
   28.6821  -18.2522   -5.1104 O   0  0  0  0  0  0  0  0  0  0  0  0
  2  1  1  1
  2  3  1  0
  4  2  1  0
  4  5  1  0
  5  6  1  6
  7  5  1  0
  7  8  2  0
 10 12  1  0
 10 11  1  6
 10  9  1  0
 12 13  1  6
 13  7  1  0
 14 12  1  0
 15 14  2  0
 16 14  1  0
 17 16  1  0
 18 17  1  0
 19 18  1  0
 19 20  1  0
 20 21  1  6
 20 16  1  0
 21 22  1  0
 23 21  2  0
M  END
$$$$
