EPC.pdb
     RDKit          3D

 23 23  0  0  1  0  0  0  0  0999 V2000
   21.7985  -13.3618  -17.5505 N   0  0  0  0  0  0  0  0  0  0  0  0
   22.9155  -12.4295  -17.7737 C   0  0  1  0  0  0  0  0  0  0  0  0
   22.6250  -11.7315  -19.0748 C   0  0  0  0  0  0  0  0  0  0  0  0
   22.7615  -12.5814  -20.2917 C   0  0  0  0  0  0  0  0  0  0  0  0
   24.1609  -12.4600  -20.8482 C   0  0  0  0  0  0  0  0  0  0  0  0
   25.1551  -12.7946  -20.1555 O   0  0  0  0  0  0  0  0  0  0  0  0
   22.8970  -11.4282  -16.6841 C   0  0  0  0  0  0  0  0  0  0  0  0
   21.7904  -11.2672  -16.0539 O   0  0  0  0  0  0  0  0  0  0  0  0
   24.3841  -11.9798  -22.1282 O   0  0  0  0  0  0  0  0  0  0  0  0
   23.9819  -10.6283  -16.2677 N   0  0  0  0  0  0  0  0  0  0  0  0
   25.2861  -10.6479  -16.8437 C   0  0  0  0  0  0  0  0  0  0  0  0
   26.1610   -9.8543  -15.9154 C   0  0  0  0  0  0  0  0  0  0  0  0
   25.3375   -9.7137  -14.6366 C   0  0  0  0  0  0  0  0  0  0  0  0
   23.9289   -9.6818  -15.2015 C   0  0  1  0  0  0  0  0  0  0  0  0
   23.6115   -8.3026  -15.6385 C   0  0  0  0  0  0  0  0  0  0  0  0
   24.1207   -7.8362  -16.6869 O   0  0  0  0  0  0  0  0  0  0  0  0
   22.7365   -7.4577  -14.9123 N   0  0  0  0  0  0  0  0  0  0  0  0
   22.2272   -6.2039  -15.3757 C   0  0  1  0  0  0  0  0  0  0  0  0
   20.7010   -6.2757  -15.2535 C   0  0  0  0  0  0  0  0  0  0  0  0
   20.0033   -7.5836  -16.2606 S   0  0  0  0  0  0  0  0  0  0  0  0
   22.6669   -5.0505  -14.5886 C   0  0  0  0  0  0  0  0  0  0  0  0
   22.4608   -3.7757  -15.0879 O   0  0  0  0  0  0  0  0  0  0  0  0
   23.2216   -5.2276  -13.4785 O   0  0  0  0  0  0  0  0  0  0  0  0
  2  1  1  1
  3  2  1  0
  4  5  1  0
  4  3  1  0
  5  9  1  0
  6  5  2  0
  7 10  1  0
  7  2  1  0
  8  7  2  0
 10 14  1  0
 11 12  1  0
 11 10  1  0
 12 13  1  0
 13 14  1  0
 14 15  1  6
 15 17  1  0
 16 15  2  0
 18 17  1  0
 18 19  1  1
 20 19  1  0
 21 18  1  0
 21 22  1  0
 23 21  2  0
M  END
$$$$
