EPC.pdb
     RDKit          3D

 23 23  0  0  1  0  0  0  0  0999 V2000
   17.1948  -21.7754    2.9782 N   0  0  0  0  0  0  0  0  0  0  0  0
   17.6378  -20.5282    3.6223 C   0  0  1  0  0  0  0  0  0  0  0  0
   16.4038  -19.8991    4.2104 C   0  0  0  0  0  0  0  0  0  0  0  0
   15.4751  -19.2839    3.2199 C   0  0  0  0  0  0  0  0  0  0  0  0
   14.3333  -18.6051    3.9398 C   0  0  0  0  0  0  0  0  0  0  0  0
   14.0885  -17.3877    3.7441 O   0  0  0  0  0  0  0  0  0  0  0  0
   18.5580  -20.8872    4.7243 C   0  0  0  0  0  0  0  0  0  0  0  0
   18.4595  -22.0719    5.2086 O   0  0  0  0  0  0  0  0  0  0  0  0
   13.5312  -19.3016    4.8287 O   0  0  0  0  0  0  0  0  0  0  0  0
   19.5383  -20.0508    5.2985 N   0  0  0  0  0  0  0  0  0  0  0  0
   19.7841  -18.6967    4.9256 C   0  0  0  0  0  0  0  0  0  0  0  0
   21.0725  -18.3100    5.5947 C   0  0  0  0  0  0  0  0  0  0  0  0
   21.6821  -19.6345    6.0504 C   0  0  0  0  0  0  0  0  0  0  0  0
   20.4314  -20.4447    6.3391 C   0  0  1  0  0  0  0  0  0  0  0  0
   19.9462  -20.1213    7.7008 C   0  0  0  0  0  0  0  0  0  0  0  0
   19.2750  -19.0802    7.9046 O   0  0  0  0  0  0  0  0  0  0  0  0
   20.2087  -20.9516    8.8182 N   0  0  0  0  0  0  0  0  0  0  0  0
   19.7713  -20.6967   10.1560 C   0  0  1  0  0  0  0  0  0  0  0  0
   19.5337  -22.0625   10.8099 C   0  0  0  0  0  0  0  0  0  0  0  0
   18.4158  -23.0847    9.8524 S   0  0  0  0  0  0  0  0  0  0  0  0
   20.7512  -19.9899   10.9826 C   0  0  0  0  0  0  0  0  0  0  0  0
   20.3535  -19.4686   12.2021 O   0  0  0  0  0  0  0  0  0  0  0  0
   21.9320  -19.8646   10.5808 O   0  0  0  0  0  0  0  0  0  0  0  0
  2  1  1  1
  3  2  1  0
  4  5  1  0
  4  3  1  0
  5  9  1  0
  6  5  2  0
  7 10  1  0
  7  2  1  0
  8  7  2  0
 10 14  1  0
 11 12  1  0
 11 10  1  0
 12 13  1  0
 13 14  1  0
 14 15  1  1
 15 17  1  0
 16 15  2  0
 18 17  1  0
 18 19  1  1
 20 19  1  0
 21 18  1  0
 21 22  1  0
 23 21  2  0
M  END
$$$$
