EPC.pdb
     RDKit          3D

 23 23  0  0  1  0  0  0  0  0999 V2000
   19.6866  -12.2199  -18.2306 N   0  0  0  0  0  0  0  0  0  0  0  0
   21.0998  -11.8169  -18.1475 C   0  0  1  0  0  0  0  0  0  0  0  0
   21.4075  -11.1004  -19.4344 C   0  0  0  0  0  0  0  0  0  0  0  0
   20.7073   -9.7969  -19.6148 C   0  0  0  0  0  0  0  0  0  0  0  0
   21.6550   -8.7837  -20.2132 C   0  0  0  0  0  0  0  0  0  0  0  0
   21.6108   -7.5791  -19.8566 O   0  0  0  0  0  0  0  0  0  0  0  0
   21.2347  -10.8589  -17.0275 C   0  0  0  0  0  0  0  0  0  0  0  0
   20.1627  -10.2893  -16.6104 O   0  0  0  0  0  0  0  0  0  0  0  0
   22.5918   -9.1530  -21.1645 O   0  0  0  0  0  0  0  0  0  0  0  0
   22.4323  -10.5078  -16.3697 N   0  0  0  0  0  0  0  0  0  0  0  0
   23.7400  -10.9055  -16.7758 C   0  0  0  0  0  0  0  0  0  0  0  0
   24.6553  -10.5385  -15.6423 C   0  0  0  0  0  0  0  0  0  0  0  0
   23.7196  -10.2529  -14.4692 C   0  0  0  0  0  0  0  0  0  0  0  0
   22.5055   -9.7020  -15.1947 C   0  0  1  0  0  0  0  0  0  0  0  0
   22.7143   -8.2611  -15.4672 C   0  0  0  0  0  0  0  0  0  0  0  0
   23.4871   -7.8946  -16.3861 O   0  0  0  0  0  0  0  0  0  0  0  0
   22.0672   -7.2451  -14.7216 N   0  0  0  0  0  0  0  0  0  0  0  0
   22.1504   -5.8430  -14.9928 C   0  0  1  0  0  0  0  0  0  0  0  0
   20.8087   -5.4331  -15.6103 C   0  0  0  0  0  0  0  0  0  0  0  0
   19.4157   -5.9883  -14.6291 S   0  0  0  0  0  0  0  0  0  0  0  0
   22.3466   -5.0130  -13.8029 C   0  0  0  0  0  0  0  0  0  0  0  0
   22.5995   -3.6607  -13.9588 O   0  0  0  0  0  0  0  0  0  0  0  0
   22.2840   -5.5313  -12.6633 O   0  0  0  0  0  0  0  0  0  0  0  0
  2  1  1  6
  3  2  1  0
  4  5  1  0
  4  3  1  0
  5  9  1  0
  6  5  2  0
  7 10  1  0
  7  2  1  0
  8  7  2  0
 10 14  1  0
 11 12  1  0
 11 10  1  0
 12 13  1  0
 13 14  1  0
 14 15  1  6
 15 17  1  0
 16 15  2  0
 18 17  1  0
 18 19  1  1
 20 19  1  0
 21 18  1  0
 21 22  1  0
 23 21  2  0
M  END
$$$$
