EPC.pdb
     RDKit          3D

 23 23  0  0  1  0  0  0  0  0999 V2000
   20.6668  -11.4105  -19.5098 N   0  0  0  0  0  0  0  0  0  0  0  0
   21.9473  -11.1232  -18.8432 C   0  0  1  0  0  0  0  0  0  0  0  0
   22.7664  -10.3367  -19.8306 C   0  0  0  0  0  0  0  0  0  0  0  0
   23.2057  -11.0975  -21.0348 C   0  0  0  0  0  0  0  0  0  0  0  0
   24.0965  -10.2299  -21.8931 C   0  0  0  0  0  0  0  0  0  0  0  0
   25.2676   -9.9573  -21.5267 O   0  0  0  0  0  0  0  0  0  0  0  0
   21.6672  -10.2657  -17.6700 C   0  0  0  0  0  0  0  0  0  0  0  0
   20.6120   -9.5362  -17.7149 O   0  0  0  0  0  0  0  0  0  0  0  0
   23.6491   -9.7152  -23.0988 O   0  0  0  0  0  0  0  0  0  0  0  0
   22.4505  -10.1703  -16.5005 N   0  0  0  0  0  0  0  0  0  0  0  0
   23.6910  -10.8395  -16.2853 C   0  0  0  0  0  0  0  0  0  0  0  0
   24.0087  -10.6643  -14.8274 C   0  0  0  0  0  0  0  0  0  0  0  0
   22.7020  -10.1764  -14.2046 C   0  0  0  0  0  0  0  0  0  0  0  0
   22.1087   -9.3875  -15.3577 C   0  0  1  0  0  0  0  0  0  0  0  0
   22.6922   -8.0261  -15.3665 C   0  0  0  0  0  0  0  0  0  0  0  0
   23.6562   -7.7537  -16.1231 O   0  0  0  0  0  0  0  0  0  0  0  0
   22.2033   -6.9844  -14.5400 N   0  0  0  0  0  0  0  0  0  0  0  0
   22.3793   -5.5861  -14.7845 C   0  0  1  0  0  0  0  0  0  0  0  0
   21.5798   -5.2559  -16.0499 C   0  0  0  0  0  0  0  0  0  0  0  0
   21.5782   -3.5002  -16.4092 S   0  0  0  0  0  0  0  0  0  0  0  0
   21.8702   -4.7223  -13.7178 C   0  0  0  0  0  0  0  0  0  0  0  0
   22.5127   -3.5241  -13.4565 O   0  0  0  0  0  0  0  0  0  0  0  0
   20.8650   -5.0739  -13.0565 O   0  0  0  0  0  0  0  0  0  0  0  0
  2  1  1  6
  3  2  1  0
  4  5  1  0
  4  3  1  0
  5  9  1  0
  6  5  2  0
  7 10  1  0
  7  2  1  0
  8  7  2  0
 10 14  1  0
 11 12  1  0
 11 10  1  0
 12 13  1  0
 13 14  1  0
 14 15  1  6
 15 17  1  0
 16 15  2  0
 18 17  1  0
 18 19  1  6
 20 19  1  0
 21 18  1  0
 21 22  1  0
 23 21  2  0
M  END
$$$$
