EPC.pdb
     RDKit          3D

 23 23  0  0  1  0  0  0  0  0999 V2000
   12.2205   -9.8911  -11.8026 N   0  0  0  0  0  0  0  0  0  0  0  0
   13.5391  -10.0723  -11.1740 C   0  0  1  0  0  0  0  0  0  0  0  0
   14.1553  -11.2767  -11.8327 C   0  0  0  0  0  0  0  0  0  0  0  0
   13.6106  -12.5899  -11.3845 C   0  0  0  0  0  0  0  0  0  0  0  0
   14.2512  -13.7076  -12.1739 C   0  0  0  0  0  0  0  0  0  0  0  0
   15.4559  -14.0135  -11.9858 O   0  0  0  0  0  0  0  0  0  0  0  0
   14.3622   -8.8845  -11.4927 C   0  0  0  0  0  0  0  0  0  0  0  0
   14.3429   -8.4656  -12.7058 O   0  0  0  0  0  0  0  0  0  0  0  0
   13.5327  -14.4203  -13.1197 O   0  0  0  0  0  0  0  0  0  0  0  0
   15.1709   -8.1632  -10.5893 N   0  0  0  0  0  0  0  0  0  0  0  0
   15.3438   -8.4779   -9.2094 C   0  0  0  0  0  0  0  0  0  0  0  0
   16.0505   -7.2999   -8.6012 C   0  0  0  0  0  0  0  0  0  0  0  0
   15.9258   -6.1940   -9.6476 C   0  0  0  0  0  0  0  0  0  0  0  0
   15.9336   -7.0066  -10.9297 C   0  0  1  0  0  0  0  0  0  0  0  0
   17.3345   -7.3018  -11.3097 C   0  0  0  0  0  0  0  0  0  0  0  0
   18.0873   -7.9263  -10.5227 O   0  0  0  0  0  0  0  0  0  0  0  0
   17.8847   -6.9036  -12.5529 N   0  0  0  0  0  0  0  0  0  0  0  0
   19.1997   -7.2266  -13.0142 C   0  0  1  0  0  0  0  0  0  0  0  0
   19.0309   -7.9538  -14.3530 C   0  0  0  0  0  0  0  0  0  0  0  0
   17.9618   -9.3854  -14.2141 S   0  0  0  0  0  0  0  0  0  0  0  0
   20.0506   -6.0616  -13.2630 C   0  0  0  0  0  0  0  0  0  0  0  0
   21.3998   -6.2526  -13.5080 O   0  0  0  0  0  0  0  0  0  0  0  0
   19.5526   -4.9113  -13.2518 O   0  0  0  0  0  0  0  0  0  0  0  0
  2  1  1  6
  3  2  1  0
  4  5  1  0
  4  3  1  0
  5  9  1  0
  6  5  2  0
  7 10  1  0
  7  2  1  0
  8  7  2  0
 10 14  1  0
 11 12  1  0
 11 10  1  0
 12 13  1  0
 13 14  1  0
 14 15  1  1
 15 17  1  0
 16 15  2  0
 18 17  1  0
 18 19  1  6
 20 19  1  0
 21 18  1  0
 21 22  1  0
 23 21  2  0
M  END
$$$$
