EPC.pdb
     RDKit          3D

 23 23  0  0  1  0  0  0  0  0999 V2000
   21.3519  -14.5143  -16.6594 N   0  0  0  0  0  0  0  0  0  0  0  0
   20.6748  -13.3339  -17.2203 C   0  0  1  0  0  0  0  0  0  0  0  0
   19.4095  -13.1594  -16.4248 C   0  0  0  0  0  0  0  0  0  0  0  0
   18.3584  -14.1859  -16.6765 C   0  0  0  0  0  0  0  0  0  0  0  0
   17.1605  -13.9208  -15.7946 C   0  0  0  0  0  0  0  0  0  0  0  0
   16.1887  -13.2480  -16.2224 O   0  0  0  0  0  0  0  0  0  0  0  0
   21.5447  -12.1587  -16.9913 C   0  0  0  0  0  0  0  0  0  0  0  0
   22.2644  -12.1597  -15.9284 O   0  0  0  0  0  0  0  0  0  0  0  0
   17.1018  -14.4091  -14.4996 O   0  0  0  0  0  0  0  0  0  0  0  0
   21.6613  -11.0309  -17.8308 N   0  0  0  0  0  0  0  0  0  0  0  0
   20.9646  -10.8467  -19.0612 C   0  0  0  0  0  0  0  0  0  0  0  0
   21.6024   -9.6592  -19.7246 C   0  0  0  0  0  0  0  0  0  0  0  0
   22.9036   -9.4411  -18.9548 C   0  0  0  0  0  0  0  0  0  0  0  0
   22.5010   -9.9080  -17.5677 C   0  0  1  0  0  0  0  0  0  0  0  0
   21.8177   -8.8000  -16.8611 C   0  0  0  0  0  0  0  0  0  0  0  0
   20.6111   -8.5457  -17.0965 O   0  0  0  0  0  0  0  0  0  0  0  0
   22.4758   -7.9881  -15.9046 N   0  0  0  0  0  0  0  0  0  0  0  0
   21.8836   -6.8863  -15.2107 C   0  0  1  0  0  0  0  0  0  0  0  0
   22.6870   -6.6956  -13.9193 C   0  0  0  0  0  0  0  0  0  0  0  0
   22.1356   -5.2691  -12.9851 S   0  0  0  0  0  0  0  0  0  0  0  0
   21.9382   -5.6188  -15.9412 C   0  0  0  0  0  0  0  0  0  0  0  0
   23.0803   -5.3020  -16.6568 O   0  0  0  0  0  0  0  0  0  0  0  0
   20.9574   -4.8388  -15.9116 O   0  0  0  0  0  0  0  0  0  0  0  0
  2  1  1  1
  3  2  1  0
  4  5  1  0
  4  3  1  0
  5  9  1  0
  6  5  2  0
  7 10  1  0
  7  2  1  0
  8  7  2  0
 10 14  1  0
 11 12  1  0
 11 10  1  0
 12 13  1  0
 13 14  1  0
 14 15  1  6
 15 17  1  0
 16 15  2  0
 18 17  1  0
 18 19  1  1
 20 19  1  0
 21 18  1  0
 21 22  1  0
 23 21  2  0
M  END
$$$$
