EPC.pdb
     RDKit          3D

 23 23  0  0  1  0  0  0  0  0999 V2000
   18.2984  -12.6031  -17.5998 N   0  0  0  0  0  0  0  0  0  0  0  0
   17.5749  -11.3385  -17.3903 C   0  0  1  0  0  0  0  0  0  0  0  0
   16.9250  -11.4469  -16.0374 C   0  0  0  0  0  0  0  0  0  0  0  0
   15.9417  -12.5583  -15.8961 C   0  0  0  0  0  0  0  0  0  0  0  0
   15.4064  -12.5933  -14.4836 C   0  0  0  0  0  0  0  0  0  0  0  0
   16.1895  -12.5348  -13.5021 O   0  0  0  0  0  0  0  0  0  0  0  0
   18.5714  -10.2451  -17.3513 C   0  0  0  0  0  0  0  0  0  0  0  0
   19.7837  -10.5656  -17.0766 O   0  0  0  0  0  0  0  0  0  0  0  0
   14.0472  -12.6902  -14.2345 O   0  0  0  0  0  0  0  0  0  0  0  0
   18.3189   -8.8774  -17.5874 N   0  0  0  0  0  0  0  0  0  0  0  0
   17.0358   -8.3109  -17.8440 C   0  0  0  0  0  0  0  0  0  0  0  0
   17.2887   -6.9025  -18.3016 C   0  0  0  0  0  0  0  0  0  0  0  0
   18.7827   -6.8628  -18.6174 C   0  0  0  0  0  0  0  0  0  0  0  0
   19.3188   -7.8599  -17.6062 C   0  0  1  0  0  0  0  0  0  0  0  0
   19.5066   -7.1788  -16.3043 C   0  0  0  0  0  0  0  0  0  0  0  0
   18.5266   -6.9788  -15.5457 O   0  0  0  0  0  0  0  0  0  0  0  0
   20.7734   -6.7281  -15.8582 N   0  0  0  0  0  0  0  0  0  0  0  0
   21.0429   -6.1691  -14.5694 C   0  0  1  0  0  0  0  0  0  0  0  0
   22.4582   -6.6135  -14.1834 C   0  0  0  0  0  0  0  0  0  0  0  0
   22.5608   -8.3821  -13.9129 S   0  0  0  0  0  0  0  0  0  0  0  0
   21.0287   -4.7056  -14.5360 C   0  0  0  0  0  0  0  0  0  0  0  0
   21.0826   -4.0588  -13.3130 O   0  0  0  0  0  0  0  0  0  0  0  0
   20.9682   -4.0575  -15.6073 O   0  0  0  0  0  0  0  0  0  0  0  0
  2  1  1  1
  3  2  1  0
  4  5  1  0
  4  3  1  0
  5  9  1  0
  6  5  2  0
  7 10  1  0
  7  2  1  0
  8  7  2  0
 10 14  1  0
 11 12  1  0
 11 10  1  0
 12 13  1  0
 13 14  1  0
 14 15  1  1
 15 17  1  0
 16 15  2  0
 18 17  1  0
 18 19  1  6
 20 19  1  0
 21 18  1  0
 21 22  1  0
 23 21  2  0
M  END
$$$$
