EPC.pdb
     RDKit          3D

 23 23  0  0  1  0  0  0  0  0999 V2000
   27.3527  -23.2378  -15.7974 N   0  0  0  0  0  0  0  0  0  0  0  0
   27.1589  -22.1510  -14.8237 C   0  0  1  0  0  0  0  0  0  0  0  0
   27.1676  -20.8720  -15.6163 C   0  0  0  0  0  0  0  0  0  0  0  0
   26.2335  -20.8419  -16.7776 C   0  0  0  0  0  0  0  0  0  0  0  0
   26.4190  -19.5581  -17.5524 C   0  0  0  0  0  0  0  0  0  0  0  0
   27.2362  -19.4998  -18.5058 O   0  0  0  0  0  0  0  0  0  0  0  0
   25.8219  -22.3209  -14.2124 C   0  0  0  0  0  0  0  0  0  0  0  0
   25.0184  -23.1464  -14.7786 O   0  0  0  0  0  0  0  0  0  0  0  0
   25.6982  -18.4187  -17.2347 O   0  0  0  0  0  0  0  0  0  0  0  0
   25.3405  -21.6608  -13.0623 N   0  0  0  0  0  0  0  0  0  0  0  0
   25.9681  -20.5470  -12.4308 C   0  0  0  0  0  0  0  0  0  0  0  0
   25.2650  -20.3662  -11.1155 C   0  0  0  0  0  0  0  0  0  0  0  0
   24.4727  -21.6578  -10.9219 C   0  0  0  0  0  0  0  0  0  0  0  0
   24.1507  -22.0183  -12.3609 C   0  0  1  0  0  0  0  0  0  0  0  0
   22.9501  -21.2664  -12.7934 C   0  0  0  0  0  0  0  0  0  0  0  0
   23.0458  -20.0642  -13.1423 O   0  0  0  0  0  0  0  0  0  0  0  0
   21.6608  -21.8519  -12.8348 N   0  0  0  0  0  0  0  0  0  0  0  0
   20.5665  -21.3818  -13.6271 C   0  0  1  0  0  0  0  0  0  0  0  0
   19.9305  -22.6158  -14.2768 C   0  0  0  0  0  0  0  0  0  0  0  0
   18.4713  -22.2008  -15.2307 S   0  0  0  0  0  0  0  0  0  0  0  0
   19.5155  -20.7112  -12.8597 C   0  0  0  0  0  0  0  0  0  0  0  0
   18.7516  -19.7336  -13.4743 O   0  0  0  0  0  0  0  0  0  0  0  0
   19.3192  -21.0267  -11.6625 O   0  0  0  0  0  0  0  0  0  0  0  0
  2  1  1  6
  3  2  1  0
  4  5  1  0
  4  3  1  0
  5  9  1  0
  6  5  2  0
  7 10  1  0
  7  2  1  0
  8  7  2  0
 10 14  1  0
 11 12  1  0
 11 10  1  0
 12 13  1  0
 13 14  1  0
 14 15  1  6
 15 17  1  0
 16 15  2  0
 18 17  1  0
 18 19  1  1
 20 19  1  0
 21 18  1  0
 21 22  1  0
 23 21  2  0
M  END
$$$$
