EPC.pdb
     RDKit          3D

 23 23  0  0  1  0  0  0  0  0999 V2000
   23.2839  -21.5739  -17.6834 N   0  0  0  0  0  0  0  0  0  0  0  0
   24.1024  -20.4431  -17.2166 C   0  0  1  0  0  0  0  0  0  0  0  0
   23.1400  -19.3281  -16.9089 C   0  0  0  0  0  0  0  0  0  0  0  0
   22.3825  -18.8057  -18.0817 C   0  0  0  0  0  0  0  0  0  0  0  0
   21.4424  -17.7092  -17.6383 C   0  0  0  0  0  0  0  0  0  0  0  0
   21.7801  -16.5019  -17.7311 O   0  0  0  0  0  0  0  0  0  0  0  0
   24.7705  -20.8527  -15.9613 C   0  0  0  0  0  0  0  0  0  0  0  0
   24.1686  -21.7212  -15.2326 O   0  0  0  0  0  0  0  0  0  0  0  0
   20.1914  -18.0032  -17.1212 O   0  0  0  0  0  0  0  0  0  0  0  0
   26.0108  -20.3797  -15.4836 N   0  0  0  0  0  0  0  0  0  0  0  0
   26.8166  -19.3936  -16.1251 C   0  0  0  0  0  0  0  0  0  0  0  0
   28.1414  -19.4165  -15.4170 C   0  0  0  0  0  0  0  0  0  0  0  0
   28.1205  -20.7089  -14.6030 C   0  0  0  0  0  0  0  0  0  0  0  0
   26.6411  -20.8260  -14.2840 C   0  0  1  0  0  0  0  0  0  0  0  0
   26.3320  -19.9940  -13.0982 C   0  0  0  0  0  0  0  0  0  0  0  0
   25.8845  -18.8296  -13.2393 O   0  0  0  0  0  0  0  0  0  0  0  0
   26.5213  -20.4588  -11.7734 N   0  0  0  0  0  0  0  0  0  0  0  0
   25.6009  -20.2722  -10.6944 C   0  0  1  0  0  0  0  0  0  0  0  0
   24.3062  -20.9910  -11.0901 C   0  0  0  0  0  0  0  0  0  0  0  0
   23.1001  -20.9889   -9.7647 S   0  0  0  0  0  0  0  0  0  0  0  0
   26.0416  -20.8504   -9.4238 C   0  0  0  0  0  0  0  0  0  0  0  0
   26.5560  -22.1357   -9.4106 O   0  0  0  0  0  0  0  0  0  0  0  0
   25.9494  -20.1807   -8.3681 O   0  0  0  0  0  0  0  0  0  0  0  0
  2  1  1  1
  3  2  1  0
  4  5  1  0
  4  3  1  0
  5  9  1  0
  6  5  2  0
  7 10  1  0
  7  2  1  0
  8  7  2  0
 10 14  1  0
 11 12  1  0
 11 10  1  0
 12 13  1  0
 13 14  1  0
 14 15  1  1
 15 17  1  0
 16 15  2  0
 18 17  1  0
 18 19  1  6
 20 19  1  0
 21 18  1  0
 21 22  1  0
 23 21  2  0
M  END
$$$$
