EPC.pdb
     RDKit          3D

 23 23  0  0  1  0  0  0  0  0999 V2000
   15.6662  -11.0670  -16.1485 N   0  0  0  0  0  0  0  0  0  0  0  0
   15.8053   -9.6586  -16.5530 C   0  0  1  0  0  0  0  0  0  0  0  0
   14.9362   -8.8655  -15.6149 C   0  0  0  0  0  0  0  0  0  0  0  0
   13.4741   -9.1306  -15.7320 C   0  0  0  0  0  0  0  0  0  0  0  0
   12.9487   -9.6933  -14.4319 C   0  0  0  0  0  0  0  0  0  0  0  0
   12.3475  -10.7969  -14.4101 O   0  0  0  0  0  0  0  0  0  0  0  0
   17.2154   -9.2619  -16.3424 C   0  0  0  0  0  0  0  0  0  0  0  0
   17.9163   -9.9862  -15.5475 O   0  0  0  0  0  0  0  0  0  0  0  0
   13.1146   -9.0121  -13.2372 O   0  0  0  0  0  0  0  0  0  0  0  0
   17.8689   -8.1596  -16.9324 N   0  0  0  0  0  0  0  0  0  0  0  0
   17.2447   -7.1808  -17.7603 C   0  0  0  0  0  0  0  0  0  0  0  0
   18.3609   -6.3814  -18.3704 C   0  0  0  0  0  0  0  0  0  0  0  0
   19.6166   -7.2102  -18.1066 C   0  0  0  0  0  0  0  0  0  0  0  0
   19.2577   -7.8673  -16.7862 C   0  0  1  0  0  0  0  0  0  0  0  0
   19.5605   -6.9310  -15.6791 C   0  0  0  0  0  0  0  0  0  0  0  0
   18.7480   -6.0235  -15.3753 O   0  0  0  0  0  0  0  0  0  0  0  0
   20.7559   -7.0096  -14.9228 N   0  0  0  0  0  0  0  0  0  0  0  0
   21.0685   -6.1976  -13.7874 C   0  0  1  0  0  0  0  0  0  0  0  0
   21.8435   -7.0874  -12.8091 C   0  0  0  0  0  0  0  0  0  0  0  0
   20.8368   -8.4250  -12.1696 S   0  0  0  0  0  0  0  0  0  0  0  0
   21.9221   -5.0474  -14.0899 C   0  0  0  0  0  0  0  0  0  0  0  0
   22.1163   -4.0786  -13.1200 O   0  0  0  0  0  0  0  0  0  0  0  0
   22.4648   -4.9520  -15.2159 O   0  0  0  0  0  0  0  0  0  0  0  0
  2  1  1  1
  3  2  1  0
  4  5  1  0
  4  3  1  0
  5  9  1  0
  6  5  2  0
  7 10  1  0
  7  2  1  0
  8  7  2  0
 10 14  1  0
 11 12  1  0
 11 10  1  0
 12 13  1  0
 13 14  1  0
 14 15  1  1
 15 17  1  0
 16 15  2  0
 18 17  1  0
 18 19  1  1
 20 19  1  0
 21 18  1  0
 21 22  1  0
 23 21  2  0
M  END
$$$$
