EPC.pdb
     RDKit          3D

 23 23  0  0  1  0  0  0  0  0999 V2000
   18.1642  -12.8589  -16.7515 N   0  0  0  0  0  0  0  0  0  0  0  0
   18.2098  -11.5109  -17.3409 C   0  0  1  0  0  0  0  0  0  0  0  0
   16.8871  -10.8688  -17.0208 C   0  0  0  0  0  0  0  0  0  0  0  0
   15.7199  -11.4216  -17.7652 C   0  0  0  0  0  0  0  0  0  0  0  0
   14.4633  -10.6801  -17.3730 C   0  0  0  0  0  0  0  0  0  0  0  0
   13.5025  -11.2895  -16.8385 O   0  0  0  0  0  0  0  0  0  0  0  0
   19.2824  -10.7524  -16.6594 C   0  0  0  0  0  0  0  0  0  0  0  0
   19.6063  -11.1290  -15.4757 O   0  0  0  0  0  0  0  0  0  0  0  0
   14.3373   -9.3179  -17.5906 O   0  0  0  0  0  0  0  0  0  0  0  0
   19.9877   -9.6496  -17.1853 N   0  0  0  0  0  0  0  0  0  0  0  0
   19.7190   -9.0239  -18.4381 C   0  0  0  0  0  0  0  0  0  0  0  0
   20.8743   -8.0985  -18.6952 C   0  0  0  0  0  0  0  0  0  0  0  0
   21.9424   -8.5282  -17.6913 C   0  0  0  0  0  0  0  0  0  0  0  0
   21.0797   -9.0011  -16.5353 C   0  0  1  0  0  0  0  0  0  0  0  0
   20.6823   -7.8330  -15.7157 C   0  0  0  0  0  0  0  0  0  0  0  0
   19.7394   -7.0906  -16.0842 O   0  0  0  0  0  0  0  0  0  0  0  0
   21.3311   -7.5010  -14.5009 N   0  0  0  0  0  0  0  0  0  0  0  0
   20.9683   -6.4163  -13.6418 C   0  0  1  0  0  0  0  0  0  0  0  0
   21.3373   -6.8410  -12.2159 C   0  0  0  0  0  0  0  0  0  0  0  0
   20.4096   -8.2765  -11.6771 S   0  0  0  0  0  0  0  0  0  0  0  0
   21.6836   -5.1689  -13.9166 C   0  0  0  0  0  0  0  0  0  0  0  0
   21.2161   -3.9884  -13.3647 O   0  0  0  0  0  0  0  0  0  0  0  0
   22.7047   -5.1823  -14.6436 O   0  0  0  0  0  0  0  0  0  0  0  0
  2  1  1  1
  3  2  1  0
  4  5  1  0
  4  3  1  0
  5  9  1  0
  6  5  2  0
  7 10  1  0
  7  2  1  0
  8  7  2  0
 10 14  1  0
 11 12  1  0
 11 10  1  0
 12 13  1  0
 13 14  1  0
 14 15  1  6
 15 17  1  0
 16 15  2  0
 18 17  1  0
 18 19  1  1
 20 19  1  0
 21 18  1  0
 21 22  1  0
 23 21  2  0
M  END
$$$$
