EPC.pdb
     RDKit          3D

 23 23  0  0  1  0  0  0  0  0999 V2000
   24.1538  -21.6793  -17.9649 N   0  0  0  0  0  0  0  0  0  0  0  0
   24.2139  -20.4935  -17.0950 C   0  0  1  0  0  0  0  0  0  0  0  0
   22.8289  -20.3144  -16.5346 C   0  0  0  0  0  0  0  0  0  0  0  0
   21.8272  -19.7621  -17.4903 C   0  0  0  0  0  0  0  0  0  0  0  0
   21.7802  -18.2566  -17.3715 C   0  0  0  0  0  0  0  0  0  0  0  0
   21.9181  -17.5309  -18.3886 O   0  0  0  0  0  0  0  0  0  0  0  0
   25.1410  -20.7928  -15.9811 C   0  0  0  0  0  0  0  0  0  0  0  0
   25.3590  -22.0296  -15.7153 O   0  0  0  0  0  0  0  0  0  0  0  0
   21.5852  -17.6401  -16.1465 O   0  0  0  0  0  0  0  0  0  0  0  0
   25.8126  -19.8474  -15.1777 N   0  0  0  0  0  0  0  0  0  0  0  0
   25.6776  -18.4321  -15.2872 C   0  0  0  0  0  0  0  0  0  0  0  0
   26.7682  -17.8449  -14.4370 C   0  0  0  0  0  0  0  0  0  0  0  0
   27.7094  -19.0148  -14.1563 C   0  0  0  0  0  0  0  0  0  0  0  0
   26.7309  -20.1751  -14.1362 C   0  0  1  0  0  0  0  0  0  0  0  0
   26.1099  -20.2642  -12.7944 C   0  0  0  0  0  0  0  0  0  0  0  0
   24.9959  -19.7290  -12.5740 O   0  0  0  0  0  0  0  0  0  0  0  0
   26.7272  -20.9428  -11.7149 N   0  0  0  0  0  0  0  0  0  0  0  0
   26.1343  -21.1629  -10.4318 C   0  0  1  0  0  0  0  0  0  0  0  0
   27.1949  -20.7969   -9.3874 C   0  0  0  0  0  0  0  0  0  0  0  0
   26.5338  -20.8048   -7.7218 S   0  0  0  0  0  0  0  0  0  0  0  0
   24.9614  -20.3292  -10.1626 C   0  0  0  0  0  0  0  0  0  0  0  0
   23.7863  -20.9328   -9.7482 O   0  0  0  0  0  0  0  0  0  0  0  0
   25.0324  -19.0863  -10.3090 O   0  0  0  0  0  0  0  0  0  0  0  0
  2  1  1  6
  3  2  1  0
  4  5  1  0
  4  3  1  0
  5  9  1  0
  6  5  2  0
  7 10  1  0
  7  2  1  0
  8  7  2  0
 10 14  1  0
 11 12  1  0
 11 10  1  0
 12 13  1  0
 13 14  1  0
 14 15  1  1
 15 17  1  0
 16 15  2  0
 18 17  1  0
 18 19  1  1
 20 19  1  0
 21 18  1  0
 21 22  1  0
 23 21  2  0
M  END
$$$$
