EPC.pdb
     RDKit          3D

 23 23  0  0  1  0  0  0  0  0999 V2000
   23.9522  -20.9750  -14.2248 N   0  0  0  0  0  0  0  0  0  0  0  0
   22.6422  -20.3586  -13.9591 C   0  0  1  0  0  0  0  0  0  0  0  0
   21.8975  -20.3773  -15.2665 C   0  0  0  0  0  0  0  0  0  0  0  0
   20.8937  -19.2886  -15.4373 C   0  0  0  0  0  0  0  0  0  0  0  0
   21.5875  -18.0105  -15.8470 C   0  0  0  0  0  0  0  0  0  0  0  0
   21.8924  -17.8062  -17.0493 O   0  0  0  0  0  0  0  0  0  0  0  0
   21.9232  -21.2171  -12.9916 C   0  0  0  0  0  0  0  0  0  0  0  0
   21.9055  -22.4789  -13.2269 O   0  0  0  0  0  0  0  0  0  0  0  0
   21.9041  -17.0362  -14.9147 O   0  0  0  0  0  0  0  0  0  0  0  0
   21.2512  -20.7829  -11.8296 N   0  0  0  0  0  0  0  0  0  0  0  0
   21.0757  -19.4220  -11.4419 C   0  0  0  0  0  0  0  0  0  0  0  0
   20.5606  -19.4564  -10.0310 C   0  0  0  0  0  0  0  0  0  0  0  0
   20.8099  -20.8896   -9.5650 C   0  0  0  0  0  0  0  0  0  0  0  0
   20.6501  -21.6498  -10.8691 C   0  0  1  0  0  0  0  0  0  0  0  0
   19.2111  -21.9060  -11.1093 C   0  0  0  0  0  0  0  0  0  0  0  0
   18.5127  -21.0685  -11.7314 O   0  0  0  0  0  0  0  0  0  0  0  0
   18.5632  -23.0828  -10.6595 N   0  0  0  0  0  0  0  0  0  0  0  0
   17.2301  -23.4726  -11.0018 C   0  0  1  0  0  0  0  0  0  0  0  0
   17.1329  -24.9810  -10.7475 C   0  0  0  0  0  0  0  0  0  0  0  0
   18.5697  -25.8626  -11.3557 S   0  0  0  0  0  0  0  0  0  0  0  0
   16.1919  -22.8331  -10.1915 C   0  0  0  0  0  0  0  0  0  0  0  0
   14.8835  -22.8412  -10.6440 O   0  0  0  0  0  0  0  0  0  0  0  0
   16.4960  -22.2887   -9.1041 O   0  0  0  0  0  0  0  0  0  0  0  0
  2  1  1  6
  3  2  1  0
  4  5  1  0
  4  3  1  0
  5  9  1  0
  6  5  2  0
  7 10  1  0
  7  2  1  0
  8  7  2  0
 10 14  1  0
 11 12  1  0
 11 10  1  0
 12 13  1  0
 13 14  1  0
 14 15  1  6
 15 17  1  0
 16 15  2  0
 18 17  1  0
 18 19  1  1
 20 19  1  0
 21 18  1  0
 21 22  1  0
 23 21  2  0
M  END
$$$$
