EPC.pdb
     RDKit          3D

 23 23  0  0  1  0  0  0  0  0999 V2000
   18.3618  -12.4941  -16.2243 N   0  0  0  0  0  0  0  0  0  0  0  0
   18.8078  -11.1764  -16.7055 C   0  0  1  0  0  0  0  0  0  0  0  0
   17.5574  -10.3905  -16.9937 C   0  0  0  0  0  0  0  0  0  0  0  0
   16.7941  -10.8357  -18.1942 C   0  0  0  0  0  0  0  0  0  0  0  0
   15.6264   -9.9070  -18.4333 C   0  0  0  0  0  0  0  0  0  0  0  0
   15.5456   -9.2435  -19.4979 O   0  0  0  0  0  0  0  0  0  0  0  0
   19.5408  -10.5139  -15.6037 C   0  0  0  0  0  0  0  0  0  0  0  0
   19.2713  -10.8941  -14.4077 O   0  0  0  0  0  0  0  0  0  0  0  0
   14.6206   -9.7632  -17.4919 O   0  0  0  0  0  0  0  0  0  0  0  0
   20.5119   -9.4996  -15.7392 N   0  0  0  0  0  0  0  0  0  0  0  0
   20.8849   -8.8777  -16.9669 C   0  0  0  0  0  0  0  0  0  0  0  0
   22.1219   -8.0792  -16.6678 C   0  0  0  0  0  0  0  0  0  0  0  0
   22.5915   -8.5921  -15.3077 C   0  0  0  0  0  0  0  0  0  0  0  0
   21.2662   -8.9502  -14.6600 C   0  0  1  0  0  0  0  0  0  0  0  0
   20.6683   -7.7303  -14.0697 C   0  0  0  0  0  0  0  0  0  0  0  0
   20.0699   -6.9008  -14.7976 O   0  0  0  0  0  0  0  0  0  0  0  0
   20.7393   -7.4432  -12.6842 N   0  0  0  0  0  0  0  0  0  0  0  0
   20.1451   -6.3097  -12.0453 C   0  0  1  0  0  0  0  0  0  0  0  0
   20.0429   -6.6477  -10.5537 C   0  0  0  0  0  0  0  0  0  0  0  0
   19.5653   -5.2277   -9.5704 S   0  0  0  0  0  0  0  0  0  0  0  0
   20.9319   -5.0799  -12.1536 C   0  0  0  0  0  0  0  0  0  0  0  0
   22.3116   -5.1669  -12.2297 O   0  0  0  0  0  0  0  0  0  0  0  0
   20.3526   -3.9685  -12.1761 O   0  0  0  0  0  0  0  0  0  0  0  0
  2  1  1  1
  3  2  1  0
  4  5  1  0
  4  3  1  0
  5  9  1  0
  6  5  2  0
  7 10  1  0
  7  2  1  0
  8  7  2  0
 10 14  1  0
 11 12  1  0
 11 10  1  0
 12 13  1  0
 13 14  1  0
 14 15  1  6
 15 17  1  0
 16 15  2  0
 18 17  1  0
 18 19  1  1
 20 19  1  0
 21 18  1  0
 21 22  1  0
 23 21  2  0
M  END
$$$$
