MML.pdb
     RDKit          3D

 25 24  0  0  1  0  0  0  0  0999 V2000
   25.5935  -17.0221  -16.3411 C   0  0  0  0  0  0  0  0  0  0  0  0
   27.2293  -16.4254  -15.8802 S   0  0  0  0  0  0  0  0  0  0  0  0
   28.2546  -17.8624  -15.3759 C   0  0  0  0  0  0  0  0  0  0  0  0
   27.3968  -18.7432  -14.5228 C   0  0  0  0  0  0  0  0  0  0  0  0
   28.1196  -19.8719  -13.8521 C   0  0  2  0  0  0  0  0  0  0  0  0
   28.7858  -20.6310  -14.9085 N   0  0  0  0  0  0  0  0  0  0  0  0
   27.2128  -20.8193  -13.1612 C   0  0  0  0  0  0  0  0  0  0  0  0
   27.6464  -21.9881  -12.9626 O   0  0  0  0  0  0  0  0  0  0  0  0
   28.4156  -20.9632   -7.4713 C   0  0  0  0  0  0  0  0  0  0  0  0
   26.9174  -19.9610   -7.6853 S   0  0  0  0  0  0  0  0  0  0  0  0
   25.9080  -20.7561   -8.9565 C   0  0  0  0  0  0  0  0  0  0  0  0
   26.2581  -20.3672  -10.3367 C   0  0  0  0  0  0  0  0  0  0  0  0
   25.3621  -20.8884  -11.4365 C   0  0  2  0  0  0  0  0  0  0  0  0
   25.9163  -20.4608  -12.7322 N   0  0  0  0  0  0  0  0  0  0  0  0
   23.9837  -20.3665  -11.3881 C   0  0  0  0  0  0  0  0  0  0  0  0
   23.8211  -19.1176  -11.1523 O   0  0  0  0  0  0  0  0  0  0  0  0
   20.8444  -21.5874  -15.4056 C   0  0  0  0  0  0  0  0  0  0  0  0
   21.5828  -20.2808  -15.0804 C   0  0  2  0  0  0  0  0  0  0  0  0
   22.3918  -19.9495  -16.3351 C   0  0  0  0  0  0  0  0  0  0  0  0
   22.4917  -20.5877  -13.9422 C   0  0  0  0  0  0  0  0  0  0  0  0
   21.8359  -20.8630  -12.6316 C   0  0  2  0  0  0  0  0  0  0  0  0
   22.8013  -21.1241  -11.5829 N   0  0  0  0  0  0  0  0  0  0  0  0
   20.7634  -21.8677  -12.6583 C   0  0  0  0  0  0  0  0  0  0  0  0
   21.0126  -23.1206  -12.7018 O   0  0  0  0  0  0  0  0  0  0  0  0
   19.4187  -21.5290  -12.6380 O   0  0  0  0  0  0  0  0  0  0  0  0
  1  2  1  0
  3  2  1  0
  4  3  1  0
  5  6  1  6
  5  4  1  0
  7  5  1  0
  8  7  2  0
 10  9  1  0
 10 11  1  0
 11 12  1  0
 13 12  1  1
 13 14  1  0
 14  7  1  0
 15 13  1  0
 15 16  2  0
 18 17  1  6
 18 20  1  0
 18 19  1  0
 21 20  1  6
 21 22  1  0
 22 15  1  0
 23 21  1  0
 24 23  2  0
 25 23  1  0
M  END
$$$$
