MML.pdb
     RDKit          3D

 25 24  0  0  1  0  0  0  0  0999 V2000
   25.5944  -15.5691  -16.8252 C   0  0  0  0  0  0  0  0  0  0  0  0
   26.8971  -16.1339  -17.9335 S   0  0  0  0  0  0  0  0  0  0  0  0
   27.9539  -17.3327  -17.0299 C   0  0  0  0  0  0  0  0  0  0  0  0
   27.0422  -18.3113  -16.3585 C   0  0  0  0  0  0  0  0  0  0  0  0
   27.7060  -19.2136  -15.3628 C   0  0  2  0  0  0  0  0  0  0  0  0
   28.5735  -20.1115  -16.1224 N   0  0  0  0  0  0  0  0  0  0  0  0
   26.7510  -20.0750  -14.6258 C   0  0  0  0  0  0  0  0  0  0  0  0
   26.3719  -21.1337  -15.1993 O   0  0  0  0  0  0  0  0  0  0  0  0
   26.6730  -20.1430   -8.3004 C   0  0  0  0  0  0  0  0  0  0  0  0
   25.0004  -20.8332   -8.4447 S   0  0  0  0  0  0  0  0  0  0  0  0
   24.7002  -21.1703  -10.1950 C   0  0  0  0  0  0  0  0  0  0  0  0
   25.5434  -20.3825  -11.1153 C   0  0  0  0  0  0  0  0  0  0  0  0
   25.3486  -20.6294  -12.5935 C   0  0  2  0  0  0  0  0  0  0  0  0
   26.2686  -19.7533  -13.3384 N   0  0  0  0  0  0  0  0  0  0  0  0
   23.9942  -20.3125  -13.0834 C   0  0  0  0  0  0  0  0  0  0  0  0
   23.6506  -19.0798  -13.1475 O   0  0  0  0  0  0  0  0  0  0  0  0
   21.6896  -20.7107  -16.8480 C   0  0  0  0  0  0  0  0  0  0  0  0
   21.8065  -22.0399  -16.0878 C   0  0  2  0  0  0  0  0  0  0  0  0
   21.1130  -23.0757  -16.9735 C   0  0  0  0  0  0  0  0  0  0  0  0
   21.0565  -21.8594  -14.8147 C   0  0  0  0  0  0  0  0  0  0  0  0
   21.6509  -20.9117  -13.8288 C   0  0  2  0  0  0  0  0  0  0  0  0
   23.0199  -21.2544  -13.4998 N   0  0  0  0  0  0  0  0  0  0  0  0
   20.8416  -20.6552  -12.6289 C   0  0  0  0  0  0  0  0  0  0  0  0
   21.0685  -21.2511  -11.5212 O   0  0  0  0  0  0  0  0  0  0  0  0
   19.7853  -19.7566  -12.6156 O   0  0  0  0  0  0  0  0  0  0  0  0
  1  2  1  0
  3  2  1  0
  4  3  1  0
  5  6  1  6
  5  4  1  0
  7  5  1  0
  8  7  2  0
 10  9  1  0
 10 11  1  0
 11 12  1  0
 13 12  1  1
 13 14  1  0
 14  7  1  0
 15 13  1  0
 15 16  2  0
 18 17  1  6
 18 20  1  0
 18 19  1  0
 21 20  1  1
 21 22  1  0
 22 15  1  0
 23 21  1  0
 24 23  2  0
 25 23  1  0
M  END
$$$$
