MML.pdb
     RDKit          3D

 25 24  0  0  1  0  0  0  0  0999 V2000
   26.7226  -16.1478  -15.2919 C   0  0  0  0  0  0  0  0  0  0  0  0
   28.1251  -16.5270  -16.3565 S   0  0  0  0  0  0  0  0  0  0  0  0
   28.7897  -18.1717  -15.8834 C   0  0  0  0  0  0  0  0  0  0  0  0
   27.7188  -18.8796  -15.1143 C   0  0  0  0  0  0  0  0  0  0  0  0
   28.1119  -20.2194  -14.5697 C   0  0  2  0  0  0  0  0  0  0  0  0
   28.2731  -21.1088  -15.7182 N   0  0  0  0  0  0  0  0  0  0  0  0
   27.0712  -20.8294  -13.7083 C   0  0  0  0  0  0  0  0  0  0  0  0
   26.3367  -21.7122  -14.2323 O   0  0  0  0  0  0  0  0  0  0  0  0
   26.8482  -19.5490   -7.3708 C   0  0  0  0  0  0  0  0  0  0  0  0
   25.5589  -20.8267   -7.3747 S   0  0  0  0  0  0  0  0  0  0  0  0
   25.0774  -21.1084   -9.0940 C   0  0  0  0  0  0  0  0  0  0  0  0
   26.1063  -20.7244  -10.0802 C   0  0  0  0  0  0  0  0  0  0  0  0
   25.7896  -20.9973  -11.5325 C   0  0  2  0  0  0  0  0  0  0  0  0
   26.8848  -20.4608  -12.3581 N   0  0  0  0  0  0  0  0  0  0  0  0
   24.5571  -20.3453  -12.0127 C   0  0  0  0  0  0  0  0  0  0  0  0
   24.6148  -19.1032  -12.3221 O   0  0  0  0  0  0  0  0  0  0  0  0
   23.4073  -20.0385  -16.2952 C   0  0  0  0  0  0  0  0  0  0  0  0
   23.0836  -20.8122  -15.0088 C   0  0  2  0  0  0  0  0  0  0  0  0
   22.1707  -21.9589  -15.4444 C   0  0  0  0  0  0  0  0  0  0  0  0
   22.3452  -19.8662  -14.1279 C   0  0  0  0  0  0  0  0  0  0  0  0
   22.1276  -20.3097  -12.7211 C   0  0  2  0  0  0  0  0  0  0  0  0
   23.2943  -20.9699  -12.1706 N   0  0  0  0  0  0  0  0  0  0  0  0
   20.8951  -21.0740  -12.4810 C   0  0  0  0  0  0  0  0  0  0  0  0
   20.9107  -22.2206  -11.9163 O   0  0  0  0  0  0  0  0  0  0  0  0
   19.6413  -20.6081  -12.8471 O   0  0  0  0  0  0  0  0  0  0  0  0
  1  2  1  0
  3  2  1  0
  4  3  1  0
  5  6  1  6
  5  4  1  0
  7  5  1  0
  8  7  2  0
 10  9  1  0
 10 11  1  0
 11 12  1  0
 13 12  1  1
 13 14  1  0
 14  7  1  0
 15 13  1  0
 15 16  2  0
 18 17  1  6
 18 20  1  0
 18 19  1  0
 21 20  1  6
 21 22  1  0
 22 15  1  0
 23 21  1  0
 24 23  2  0
 25 23  1  0
M  END
$$$$
