MML.pdb
     RDKit          3D

 25 24  0  0  1  0  0  0  0  0999 V2000
   25.6626  -15.0517  -14.1870 C   0  0  0  0  0  0  0  0  0  0  0  0
   26.6628  -13.9635  -15.2164 S   0  0  0  0  0  0  0  0  0  0  0  0
   26.2858  -14.3166  -16.9781 C   0  0  0  0  0  0  0  0  0  0  0  0
   25.2873  -13.2983  -17.4319 C   0  0  0  0  0  0  0  0  0  0  0  0
   23.8535  -13.6836  -17.2272 C   0  0  2  0  0  0  0  0  0  0  0  0
   23.5831  -14.7950  -18.1369 N   0  0  0  0  0  0  0  0  0  0  0  0
   22.9010  -12.6058  -17.5852 C   0  0  0  0  0  0  0  0  0  0  0  0
   22.6339  -12.4587  -18.8101 O   0  0  0  0  0  0  0  0  0  0  0  0
   18.4975  -14.5513  -16.7673 C   0  0  0  0  0  0  0  0  0  0  0  0
   17.8358  -12.9897  -17.4141 S   0  0  0  0  0  0  0  0  0  0  0  0
   19.2424  -11.9483  -17.8656 C   0  0  0  0  0  0  0  0  0  0  0  0
   19.9234  -11.3211  -16.7160 C   0  0  0  0  0  0  0  0  0  0  0  0
   21.2974  -10.7463  -16.9722 C   0  0  2  0  0  0  0  0  0  0  0  0
   22.3022  -11.7645  -16.6222 N   0  0  0  0  0  0  0  0  0  0  0  0
   21.6152   -9.5595  -16.1566 C   0  0  0  0  0  0  0  0  0  0  0  0
   21.9356   -9.7411  -14.9293 O   0  0  0  0  0  0  0  0  0  0  0  0
   24.6766   -6.4251  -16.9931 C   0  0  0  0  0  0  0  0  0  0  0  0
   23.3348   -6.1358  -17.6816 C   0  0  2  0  0  0  0  0  0  0  0  0
   23.5614   -4.8578  -18.4902 C   0  0  0  0  0  0  0  0  0  0  0  0
   22.3506   -5.8932  -16.5915 C   0  0  0  0  0  0  0  0  0  0  0  0
   21.9624   -7.0812  -15.7783 C   0  0  2  0  0  0  0  0  0  0  0  0
   21.6033   -8.2151  -16.6062 N   0  0  0  0  0  0  0  0  0  0  0  0
   20.9698   -6.8303  -14.7236 C   0  0  0  0  0  0  0  0  0  0  0  0
   19.7400   -7.1488  -14.8641 O   0  0  0  0  0  0  0  0  0  0  0  0
   21.2961   -6.2363  -13.5136 O   0  0  0  0  0  0  0  0  0  0  0  0
  1  2  1  0
  3  2  1  0
  4  3  1  0
  5  6  1  6
  5  4  1  0
  7  5  1  0
  8  7  2  0
 10  9  1  0
 10 11  1  0
 11 12  1  0
 13 12  1  1
 13 14  1  0
 14  7  1  0
 15 13  1  0
 15 16  2  0
 18 17  1  1
 18 20  1  0
 18 19  1  0
 21 20  1  6
 21 22  1  0
 22 15  1  0
 23 21  1  0
 24 23  2  0
 25 23  1  0
M  END
$$$$
