MML.pdb
     RDKit          3D

 25 24  0  0  1  0  0  0  0  0999 V2000
   20.3484  -23.1027  -13.2202 C   0  0  0  0  0  0  0  0  0  0  0  0
   20.3234  -21.5203  -14.0802 S   0  0  0  0  0  0  0  0  0  0  0  0
   21.9470  -20.6981  -13.8380 C   0  0  0  0  0  0  0  0  0  0  0  0
   22.4890  -21.1628  -12.5228 C   0  0  0  0  0  0  0  0  0  0  0  0
   23.2628  -20.1320  -11.7580 C   0  0  2  0  0  0  0  0  0  0  0  0
   23.9890  -19.3345  -12.7442 N   0  0  0  0  0  0  0  0  0  0  0  0
   24.2834  -20.7165  -10.8558 C   0  0  0  0  0  0  0  0  0  0  0  0
   23.8656  -21.4285   -9.9008 O   0  0  0  0  0  0  0  0  0  0  0  0
   30.2274  -21.3136  -12.9677 C   0  0  0  0  0  0  0  0  0  0  0  0
   30.6675  -21.7847  -11.2709 S   0  0  0  0  0  0  0  0  0  0  0  0
   29.1393  -21.8360  -10.3068 C   0  0  0  0  0  0  0  0  0  0  0  0
   27.9700  -21.2570  -10.9968 C   0  0  0  0  0  0  0  0  0  0  0  0
   26.6849  -21.1795  -10.2054 C   0  0  2  0  0  0  0  0  0  0  0  0
   25.6684  -20.5050  -11.0304 N   0  0  0  0  0  0  0  0  0  0  0  0
   26.7902  -20.3941   -8.9616 C   0  0  0  0  0  0  0  0  0  0  0  0
   26.4403  -19.1620   -8.9966 O   0  0  0  0  0  0  0  0  0  0  0  0
   29.1480  -20.9752   -3.2685 C   0  0  0  0  0  0  0  0  0  0  0  0
   28.3460  -20.0297   -4.1747 C   0  0  2  0  0  0  0  0  0  0  0  0
   27.0878  -19.6775   -3.3803 C   0  0  0  0  0  0  0  0  0  0  0  0
   27.9914  -20.8161   -5.3878 C   0  0  0  0  0  0  0  0  0  0  0  0
   27.5044  -20.0342   -6.5604 C   0  0  2  0  0  0  0  0  0  0  0  0
   27.2460  -20.8783   -7.7096 N   0  0  0  0  0  0  0  0  0  0  0  0
   28.3056  -18.8528   -6.9112 C   0  0  0  0  0  0  0  0  0  0  0  0
   29.3401  -18.9357   -7.6574 O   0  0  0  0  0  0  0  0  0  0  0  0
   27.9972  -17.5777   -6.4613 O   0  0  0  0  0  0  0  0  0  0  0  0
  1  2  1  0
  3  2  1  0
  4  3  1  0
  5  6  1  6
  5  4  1  0
  7  5  1  0
  8  7  2  0
 10  9  1  0
 10 11  1  0
 11 12  1  0
 13 12  1  6
 13 14  1  0
 14  7  1  0
 15 13  1  0
 15 16  2  0
 18 17  1  1
 18 20  1  0
 18 19  1  0
 21 20  1  1
 21 22  1  0
 22 15  1  0
 23 21  1  0
 24 23  2  0
 25 23  1  0
M  END
$$$$
