MML.pdb
     RDKit          3D

 25 24  0  0  1  0  0  0  0  0999 V2000
   27.8021  -15.7279  -16.4815 C   0  0  0  0  0  0  0  0  0  0  0  0
   28.8377  -16.9367  -17.3246 S   0  0  0  0  0  0  0  0  0  0  0  0
   28.6237  -18.5640  -16.5022 C   0  0  0  0  0  0  0  0  0  0  0  0
   27.8782  -18.3233  -15.2271 C   0  0  0  0  0  0  0  0  0  0  0  0
   28.0515  -19.3846  -14.1832 C   0  0  2  0  0  0  0  0  0  0  0  0
   27.6312  -20.6452  -14.7919 N   0  0  0  0  0  0  0  0  0  0  0  0
   27.1888  -19.1832  -12.9948 C   0  0  0  0  0  0  0  0  0  0  0  0
   27.2386  -18.0535  -12.4338 O   0  0  0  0  0  0  0  0  0  0  0  0
   20.0164  -20.4706  -10.3733 C   0  0  0  0  0  0  0  0  0  0  0  0
   21.2816  -20.8177  -11.6277 S   0  0  0  0  0  0  0  0  0  0  0  0
   22.8638  -20.2284  -10.9821 C   0  0  0  0  0  0  0  0  0  0  0  0
   24.0070  -20.4516  -11.8887 C   0  0  0  0  0  0  0  0  0  0  0  0
   25.3501  -19.9352  -11.4269 C   0  0  2  0  0  0  0  0  0  0  0  0
   26.3385  -20.1903  -12.4884 N   0  0  0  0  0  0  0  0  0  0  0  0
   25.8674  -20.6009  -10.2169 C   0  0  0  0  0  0  0  0  0  0  0  0
   26.4109  -21.7535  -10.3500 O   0  0  0  0  0  0  0  0  0  0  0  0
   29.0127  -20.4036   -7.0396 C   0  0  0  0  0  0  0  0  0  0  0  0
   27.8984  -19.3506   -6.9511 C   0  0  2  0  0  0  0  0  0  0  0  0
   28.3058  -18.4251   -5.8040 C   0  0  0  0  0  0  0  0  0  0  0  0
   26.6531  -20.0894   -6.6053 C   0  0  0  0  0  0  0  0  0  0  0  0
   26.0274  -20.8768   -7.7061 C   0  0  2  0  0  0  0  0  0  0  0  0
   25.8236  -20.0798   -8.8991 N   0  0  0  0  0  0  0  0  0  0  0  0
   24.8246  -21.6370   -7.3370 C   0  0  0  0  0  0  0  0  0  0  0  0
   23.6658  -21.3217   -7.7744 O   0  0  0  0  0  0  0  0  0  0  0  0
   24.8637  -22.7395   -6.4965 O   0  0  0  0  0  0  0  0  0  0  0  0
  1  2  1  0
  3  2  1  0
  4  3  1  0
  5  6  1  6
  5  4  1  0
  7  5  1  0
  8  7  2  0
 10  9  1  0
 10 11  1  0
 11 12  1  0
 13 12  1  6
 13 14  1  0
 14  7  1  0
 15 13  1  0
 15 16  2  0
 18 17  1  1
 18 20  1  0
 18 19  1  0
 21 20  1  1
 21 22  1  0
 22 15  1  0
 23 21  1  0
 24 23  2  0
 25 23  1  0
M  END
$$$$
