MML.pdb
     RDKit          3D

 25 24  0  0  1  0  0  0  0  0999 V2000
   25.1264  -16.8538  -18.2470 C   0  0  0  0  0  0  0  0  0  0  0  0
   26.7666  -16.1100  -18.2696 S   0  0  0  0  0  0  0  0  0  0  0  0
   27.8856  -17.1313  -17.2327 C   0  0  0  0  0  0  0  0  0  0  0  0
   27.0314  -18.1041  -16.4819 C   0  0  0  0  0  0  0  0  0  0  0  0
   27.7764  -19.0135  -15.5522 C   0  0  2  0  0  0  0  0  0  0  0  0
   28.4819  -19.9827  -16.3882 N   0  0  0  0  0  0  0  0  0  0  0  0
   26.8870  -19.7955  -14.6608 C   0  0  0  0  0  0  0  0  0  0  0  0
   26.4504  -20.8936  -15.1047 O   0  0  0  0  0  0  0  0  0  0  0  0
   24.4700  -22.3025   -8.0098 C   0  0  0  0  0  0  0  0  0  0  0  0
   25.6752  -21.6760   -9.2138 S   0  0  0  0  0  0  0  0  0  0  0  0
   24.9169  -20.2714  -10.0620 C   0  0  0  0  0  0  0  0  0  0  0  0
   25.7802  -19.6434  -11.0813 C   0  0  0  0  0  0  0  0  0  0  0  0
   25.5954  -20.1089  -12.5072 C   0  0  2  0  0  0  0  0  0  0  0  0
   26.5259  -19.3588  -13.3676 N   0  0  0  0  0  0  0  0  0  0  0  0
   24.2466  -19.8636  -13.0506 C   0  0  0  0  0  0  0  0  0  0  0  0
   23.8718  -18.6480  -13.2045 O   0  0  0  0  0  0  0  0  0  0  0  0
   21.8723  -18.8637  -16.3665 C   0  0  0  0  0  0  0  0  0  0  0  0
   22.4107  -20.2917  -16.1951 C   0  0  2  0  0  0  0  0  0  0  0  0
   22.1823  -20.9754  -17.5436 C   0  0  0  0  0  0  0  0  0  0  0  0
   21.5746  -20.9289  -15.1412 C   0  0  0  0  0  0  0  0  0  0  0  0
   21.9187  -20.5869  -13.7313 C   0  0  2  0  0  0  0  0  0  0  0  0
   23.3095  -20.8582  -13.4281 N   0  0  0  0  0  0  0  0  0  0  0  0
   21.0137  -21.1304  -12.7084 C   0  0  0  0  0  0  0  0  0  0  0  0
   19.7640  -20.8621  -12.7010 O   0  0  0  0  0  0  0  0  0  0  0  0
   21.4491  -21.9648  -11.6898 O   0  0  0  0  0  0  0  0  0  0  0  0
  1  2  1  0
  3  2  1  0
  4  3  1  0
  5  6  1  6
  5  4  1  0
  7  5  1  0
  8  7  2  0
 10  9  1  0
 10 11  1  0
 11 12  1  0
 13 12  1  1
 13 14  1  0
 14  7  1  0
 15 13  1  0
 15 16  2  0
 18 17  1  6
 18 20  1  0
 18 19  1  0
 21 20  1  6
 21 22  1  0
 22 15  1  0
 23 21  1  0
 24 23  2  0
 25 23  1  0
M  END
$$$$
