MML.pdb
     RDKit          3D

 25 24  0  0  1  0  0  0  0  0999 V2000
   23.3379  -24.9436  -14.5138 C   0  0  0  0  0  0  0  0  0  0  0  0
   23.5577  -23.4841  -15.5461 S   0  0  0  0  0  0  0  0  0  0  0  0
   25.1959  -23.5911  -16.3678 C   0  0  0  0  0  0  0  0  0  0  0  0
   25.7598  -24.9430  -16.0612 C   0  0  0  0  0  0  0  0  0  0  0  0
   27.1380  -25.1894  -16.5958 C   0  0  2  0  0  0  0  0  0  0  0  0
   27.0709  -24.9843  -18.0413 N   0  0  0  0  0  0  0  0  0  0  0  0
   27.6057  -26.5808  -16.3897 C   0  0  0  0  0  0  0  0  0  0  0  0
   27.8545  -26.9334  -15.2035 O   0  0  0  0  0  0  0  0  0  0  0  0
   25.4363  -32.3582  -18.9125 C   0  0  0  0  0  0  0  0  0  0  0  0
   26.7953  -32.5481  -17.7244 S   0  0  0  0  0  0  0  0  0  0  0  0
   26.8977  -31.0191  -16.7659 C   0  0  0  0  0  0  0  0  0  0  0  0
   27.0480  -29.8010  -17.5859 C   0  0  0  0  0  0  0  0  0  0  0  0
   28.2021  -28.8885  -17.2404 C   0  0  2  0  0  0  0  0  0  0  0  0
   27.7752  -27.4951  -17.4523 N   0  0  0  0  0  0  0  0  0  0  0  0
   29.3969  -29.0837  -18.0824 C   0  0  0  0  0  0  0  0  0  0  0  0
   29.6552  -28.2007  -18.9743 O   0  0  0  0  0  0  0  0  0  0  0  0
   33.4542  -28.6462  -20.4632 C   0  0  0  0  0  0  0  0  0  0  0  0
   32.5318  -27.9683  -19.4395 C   0  0  2  0  0  0  0  0  0  0  0  0
   33.2858  -26.7204  -18.9786 C   0  0  0  0  0  0  0  0  0  0  0  0
   32.3810  -28.9298  -18.3132 C   0  0  0  0  0  0  0  0  0  0  0  0
   31.6182  -30.1764  -18.6091 C   0  0  2  0  0  0  0  0  0  0  0  0
   30.3042  -30.1697  -17.9981 N   0  0  0  0  0  0  0  0  0  0  0  0
   32.3374  -31.4338  -18.3597 C   0  0  0  0  0  0  0  0  0  0  0  0
   32.1100  -32.1480  -17.3244 O   0  0  0  0  0  0  0  0  0  0  0  0
   33.3038  -31.9281  -19.2229 O   0  0  0  0  0  0  0  0  0  0  0  0
  1  2  1  0
  3  2  1  0
  4  3  1  0
  5  6  1  6
  5  4  1  0
  7  5  1  0
  8  7  2  0
 10  9  1  0
 10 11  1  0
 11 12  1  0
 13 12  1  6
 13 14  1  0
 14  7  1  0
 15 13  1  0
 15 16  2  0
 18 17  1  6
 18 20  1  0
 18 19  1  0
 21 20  1  1
 21 22  1  0
 22 15  1  0
 23 21  1  0
 24 23  2  0
 25 23  1  0
M  END
$$$$
