TAK.pdb
     RDKit          3D

 22 21  0  0  1  0  0  0  0  0999 V2000
    7.4147  -19.0081   18.9045 C   0  0  0  0  0  0  0  0  0  0  0  0
    8.0042  -18.4862   17.6111 C   0  0  1  0  0  0  0  0  0  0  0  0
    7.4534  -19.2308   16.5691 O   0  0  0  0  0  0  0  0  0  0  0  0
    7.5956  -17.0377   17.4920 C   0  0  2  0  0  0  0  0  0  0  0  0
    7.9665  -16.5811   16.1670 N   0  0  0  0  0  0  0  0  0  0  0  0
    8.2792  -16.1987   18.5376 C   0  0  0  0  0  0  0  0  0  0  0  0
    9.5311  -16.0699   18.5248 O   0  0  0  0  0  0  0  0  0  0  0  0
    7.1312  -14.1332   21.5305 C   0  0  0  0  0  0  0  0  0  0  0  0
    8.1387  -14.8640   20.6730 C   0  0  2  0  0  0  0  0  0  0  0  0
    7.5331  -15.5403   19.5522 N   0  0  0  0  0  0  0  0  0  0  0  0
    8.9457  -15.8254   21.4945 C   0  0  0  0  0  0  0  0  0  0  0  0
    8.4760  -16.9491   21.7963 O   0  0  0  0  0  0  0  0  0  0  0  0
   10.2301  -15.4779   21.9321 N   0  0  0  0  0  0  0  0  0  0  0  0
   11.0632  -16.3677   22.7742 C   0  0  1  0  0  0  0  0  0  0  0  0
   12.4998  -15.9932   22.6623 C   0  0  0  0  0  0  0  0  0  0  0  0
   13.3821  -16.9118   23.4230 C   0  0  0  0  0  0  0  0  0  0  0  0
   14.8486  -16.5056   23.3473 C   0  0  0  0  0  0  0  0  0  0  0  0
   15.7266  -17.4450   24.1344 C   0  0  0  0  0  0  0  0  0  0  0  0
   17.0975  -16.9637   23.9728 N   0  0  0  0  0  0  0  0  0  0  0  0
   10.5350  -16.4300   24.1330 C   0  0  0  0  0  0  0  0  0  0  0  0
   10.5190  -17.4366   24.8568 O   0  0  0  0  0  0  0  0  0  0  0  0
    9.9930  -15.2491   24.6820 O   0  0  0  0  0  0  0  0  0  0  0  0
  2  4  1  0
  2  1  1  1
  3  2  1  0
  4  5  1  6
  4  6  1  0
  6  7  2  0
  9  8  1  1
 10  6  1  0
 10  9  1  0
 11  9  1  0
 11 13  1  0
 12 11  2  0
 14 13  1  0
 14 15  1  1
 15 16  1  0
 16 17  1  0
 18 17  1  0
 19 18  1  0
 20 14  1  0
 21 20  2  0
 22 20  1  0
M  END
$$$$
