TAK.pdb
     RDKit          3D

 22 21  0  0  1  0  0  0  0  0999 V2000
    9.1372  -12.7276   17.3603 C   0  0  0  0  0  0  0  0  0  0  0  0
    9.0868  -13.3663   18.7323 C   0  0  1  0  0  0  0  0  0  0  0  0
    8.1543  -12.6590   19.4897 O   0  0  0  0  0  0  0  0  0  0  0  0
    8.6303  -14.7925   18.5393 C   0  0  2  0  0  0  0  0  0  0  0  0
    7.3329  -14.7580   17.8934 N   0  0  0  0  0  0  0  0  0  0  0  0
    8.5313  -15.5083   19.8593 C   0  0  0  0  0  0  0  0  0  0  0  0
    7.5258  -15.3373   20.5967 O   0  0  0  0  0  0  0  0  0  0  0  0
   10.5541  -18.2057   21.6208 C   0  0  0  0  0  0  0  0  0  0  0  0
    9.5061  -17.1198   21.5367 C   0  0  2  0  0  0  0  0  0  0  0  0
    9.5610  -16.3844   20.2973 N   0  0  0  0  0  0  0  0  0  0  0  0
    9.6047  -16.1869   22.7073 C   0  0  0  0  0  0  0  0  0  0  0  0
   10.4037  -15.2198   22.6800 O   0  0  0  0  0  0  0  0  0  0  0  0
    8.8066  -16.3865   23.8409 N   0  0  0  0  0  0  0  0  0  0  0  0
    8.9498  -15.5856   25.0790 C   0  0  1  0  0  0  0  0  0  0  0  0
    7.6354  -15.0151   25.4834 C   0  0  0  0  0  0  0  0  0  0  0  0
    7.7482  -13.6071   25.9370 C   0  0  0  0  0  0  0  0  0  0  0  0
    6.4275  -13.0570   26.4609 C   0  0  0  0  0  0  0  0  0  0  0  0
    6.5966  -11.6848   27.0620 C   0  0  0  0  0  0  0  0  0  0  0  0
    5.3068  -11.3289   27.6508 N   0  0  0  0  0  0  0  0  0  0  0  0
    9.6445  -16.3521   26.1081 C   0  0  0  0  0  0  0  0  0  0  0  0
   10.0614  -15.9029   27.1860 O   0  0  0  0  0  0  0  0  0  0  0  0
    9.8669  -17.7240   25.8675 O   0  0  0  0  0  0  0  0  0  0  0  0
  2  4  1  0
  2  1  1  6
  3  2  1  0
  4  5  1  1
  4  6  1  0
  6  7  2  0
  9  8  1  6
 10  6  1  0
 10  9  1  0
 11  9  1  0
 11 13  1  0
 12 11  2  0
 14 13  1  0
 14 15  1  1
 15 16  1  0
 16 17  1  0
 18 17  1  0
 19 18  1  0
 20 14  1  0
 21 20  2  0
 22 20  1  0
M  END
$$$$
