TAK.pdb
     RDKit          3D

 22 21  0  0  1  0  0  0  0  0999 V2000
   10.1886  -13.8333   16.9116 C   0  0  0  0  0  0  0  0  0  0  0  0
    9.8336  -14.3593   18.2865 C   0  0  1  0  0  0  0  0  0  0  0  0
   10.6356  -13.6912   19.2106 O   0  0  0  0  0  0  0  0  0  0  0  0
    8.3789  -14.0318   18.5230 C   0  0  2  0  0  0  0  0  0  0  0  0
    8.2333  -12.5911   18.4550 N   0  0  0  0  0  0  0  0  0  0  0  0
    7.9267  -14.5338   19.8676 C   0  0  0  0  0  0  0  0  0  0  0  0
    7.6611  -13.7190   20.7893 O   0  0  0  0  0  0  0  0  0  0  0  0
    7.2082  -17.9671   21.3664 C   0  0  0  0  0  0  0  0  0  0  0  0
    7.3540  -16.4628   21.3880 C   0  0  2  0  0  0  0  0  0  0  0  0
    7.7912  -15.9251   20.1232 N   0  0  0  0  0  0  0  0  0  0  0  0
    8.2735  -16.0285   22.4908 C   0  0  0  0  0  0  0  0  0  0  0  0
    9.5051  -15.9142   22.2795 O   0  0  0  0  0  0  0  0  0  0  0  0
    7.7664  -15.7467   23.7657 N   0  0  0  0  0  0  0  0  0  0  0  0
    8.6137  -15.2683   24.8829 C   0  0  1  0  0  0  0  0  0  0  0  0
    7.7674  -14.7281   25.9822 C   0  0  0  0  0  0  0  0  0  0  0  0
    7.2617  -13.3652   25.6858 C   0  0  0  0  0  0  0  0  0  0  0  0
    6.3208  -12.8461   26.7659 C   0  0  0  0  0  0  0  0  0  0  0  0
    5.8596  -11.4411   26.4724 C   0  0  0  0  0  0  0  0  0  0  0  0
    4.9123  -11.0873   27.5282 N   0  0  0  0  0  0  0  0  0  0  0  0
    9.5722  -16.2959   25.2760 C   0  0  0  0  0  0  0  0  0  0  0  0
    9.3931  -17.5201   25.1952 O   0  0  0  0  0  0  0  0  0  0  0  0
   10.8139  -15.8723   25.7942 O   0  0  0  0  0  0  0  0  0  0  0  0
  2  4  1  0
  2  1  1  6
  3  2  1  0
  4  5  1  1
  4  6  1  0
  6  7  2  0
  9  8  1  6
 10  6  1  0
 10  9  1  0
 11  9  1  0
 11 13  1  0
 12 11  2  0
 14 13  1  0
 14 15  1  1
 15 16  1  0
 16 17  1  0
 18 17  1  0
 19 18  1  0
 20 14  1  0
 21 20  2  0
 22 20  1  0
M  END
$$$$
