TAK.pdb
     RDKit          3D

 22 21  0  0  1  0  0  0  0  0999 V2000
    6.0133  -18.0867   18.4983 C   0  0  0  0  0  0  0  0  0  0  0  0
    6.7626  -17.7262   19.7639 C   0  0  1  0  0  0  0  0  0  0  0  0
    7.5655  -18.8152   20.1000 O   0  0  0  0  0  0  0  0  0  0  0  0
    7.6184  -16.5244   19.4435 C   0  0  2  0  0  0  0  0  0  0  0  0
    8.5325  -16.9023   18.3837 N   0  0  0  0  0  0  0  0  0  0  0  0
    8.3898  -16.0756   20.6552 C   0  0  0  0  0  0  0  0  0  0  0  0
    9.5701  -16.4733   20.8355 O   0  0  0  0  0  0  0  0  0  0  0  0
    7.7200  -13.6946   23.5560 C   0  0  0  0  0  0  0  0  0  0  0  0
    8.4949  -14.7467   22.7962 C   0  0  2  0  0  0  0  0  0  0  0  0
    7.8076  -15.2014   21.6125 N   0  0  0  0  0  0  0  0  0  0  0  0
    8.8379  -15.9063   23.6840 C   0  0  0  0  0  0  0  0  0  0  0  0
    7.9563  -16.7390   24.0061 O   0  0  0  0  0  0  0  0  0  0  0  0
   10.1445  -16.0702   24.1613 N   0  0  0  0  0  0  0  0  0  0  0  0
   10.5450  -17.1882   25.0471 C   0  0  1  0  0  0  0  0  0  0  0  0
   11.8995  -17.6838   24.6777 C   0  0  0  0  0  0  0  0  0  0  0  0
   11.8501  -18.7200   23.6172 C   0  0  0  0  0  0  0  0  0  0  0  0
   13.2278  -19.2795   23.2857 C   0  0  0  0  0  0  0  0  0  0  0  0
   13.1512  -20.3599   22.2370 C   0  0  0  0  0  0  0  0  0  0  0  0
   14.5302  -20.7185   21.9104 N   0  0  0  0  0  0  0  0  0  0  0  0
   10.3724  -16.8193   26.4483 C   0  0  0  0  0  0  0  0  0  0  0  0
   10.2945  -15.6621   26.8867 O   0  0  0  0  0  0  0  0  0  0  0  0
   10.2853  -17.8606   27.3958 O   0  0  0  0  0  0  0  0  0  0  0  0
  2  4  1  0
  2  1  1  6
  3  2  1  0
  4  5  1  6
  4  6  1  0
  6  7  2  0
  9  8  1  1
 10  6  1  0
 10  9  1  0
 11  9  1  0
 11 13  1  0
 12 11  2  0
 14 13  1  0
 14 15  1  1
 15 16  1  0
 16 17  1  0
 18 17  1  0
 19 18  1  0
 20 14  1  0
 21 20  2  0
 22 20  1  0
M  END
$$$$
