TAK.pdb
     RDKit          3D

 22 21  0  0  1  0  0  0  0  0999 V2000
    8.4836  -12.1064   18.0589 C   0  0  0  0  0  0  0  0  0  0  0  0
    8.0547  -13.2958   18.8921 C   0  0  1  0  0  0  0  0  0  0  0  0
    7.9507  -14.3913   18.0363 O   0  0  0  0  0  0  0  0  0  0  0  0
    9.1393  -13.5325   19.9154 C   0  0  2  0  0  0  0  0  0  0  0  0
   10.3227  -13.9826   19.2095 N   0  0  0  0  0  0  0  0  0  0  0  0
    8.7127  -14.5676   20.9210 C   0  0  0  0  0  0  0  0  0  0  0  0
    7.7564  -14.3309   21.7042 O   0  0  0  0  0  0  0  0  0  0  0  0
    9.6163  -18.1888   21.6370 C   0  0  0  0  0  0  0  0  0  0  0  0
    9.0363  -16.8351   21.9768 C   0  0  2  0  0  0  0  0  0  0  0  0
    9.3742  -15.8225   21.0071 N   0  0  0  0  0  0  0  0  0  0  0  0
    9.4490  -16.4045   23.3533 C   0  0  0  0  0  0  0  0  0  0  0  0
   10.6058  -15.9636   23.5580 O   0  0  0  0  0  0  0  0  0  0  0  0
    8.5478  -16.4905   24.4221 N   0  0  0  0  0  0  0  0  0  0  0  0
    8.8808  -16.0456   25.7954 C   0  0  1  0  0  0  0  0  0  0  0  0
    7.7397  -15.2962   26.3896 C   0  0  0  0  0  0  0  0  0  0  0  0
    7.6844  -13.8899   25.9206 C   0  0  0  0  0  0  0  0  0  0  0  0
    6.4933  -13.1319   26.4935 C   0  0  0  0  0  0  0  0  0  0  0  0
    6.4525  -11.7075   26.0014 C   0  0  0  0  0  0  0  0  0  0  0  0
    5.3006  -11.0795   26.6463 N   0  0  0  0  0  0  0  0  0  0  0  0
    9.3790  -17.1635   26.5899 C   0  0  0  0  0  0  0  0  0  0  0  0
    9.2339  -18.3646   26.3184 O   0  0  0  0  0  0  0  0  0  0  0  0
   10.0891  -16.8647   27.7715 O   0  0  0  0  0  0  0  0  0  0  0  0
  2  4  1  0
  2  1  1  6
  3  2  1  0
  4  5  1  6
  4  6  1  0
  6  7  2  0
  9  8  1  6
 10  6  1  0
 10  9  1  0
 11  9  1  0
 11 13  1  0
 12 11  2  0
 14 13  1  0
 14 15  1  1
 15 16  1  0
 16 17  1  0
 18 17  1  0
 19 18  1  0
 20 14  1  0
 21 20  2  0
 22 20  1  0
M  END
$$$$
