TAK.pdb
     RDKit          3D

 22 21  0  0  1  0  0  0  0  0999 V2000
   10.9374  -13.6191   17.0598 C   0  0  0  0  0  0  0  0  0  0  0  0
   10.5077  -14.0819   18.4361 C   0  0  1  0  0  0  0  0  0  0  0  0
   10.4522  -12.9572   19.2580 O   0  0  0  0  0  0  0  0  0  0  0  0
    9.1339  -14.6905   18.2887 C   0  0  2  0  0  0  0  0  0  0  0  0
    8.2438  -13.6585   17.7943 N   0  0  0  0  0  0  0  0  0  0  0  0
    8.6341  -15.2151   19.6077 C   0  0  0  0  0  0  0  0  0  0  0  0
    7.8097  -14.5451   20.2824 O   0  0  0  0  0  0  0  0  0  0  0  0
    9.0941  -18.4468   21.5749 C   0  0  0  0  0  0  0  0  0  0  0  0
    8.6170  -17.0288   21.3601 C   0  0  2  0  0  0  0  0  0  0  0  0
    9.0781  -16.4663   20.1147 N   0  0  0  0  0  0  0  0  0  0  0  0
    9.0086  -16.1505   22.5115 C   0  0  0  0  0  0  0  0  0  0  0  0
   10.1666  -15.6717   22.5767 O   0  0  0  0  0  0  0  0  0  0  0  0
    8.0861  -15.8571   23.5238 N   0  0  0  0  0  0  0  0  0  0  0  0
    8.4044  -14.9815   24.6757 C   0  0  1  0  0  0  0  0  0  0  0  0
    7.2084  -14.1877   25.0709 C   0  0  0  0  0  0  0  0  0  0  0  0
    7.4792  -13.2994   26.2278 C   0  0  0  0  0  0  0  0  0  0  0  0
    6.2349  -12.5527   26.6918 C   0  0  0  0  0  0  0  0  0  0  0  0
    6.5050  -11.7403   27.9328 C   0  0  0  0  0  0  0  0  0  0  0  0
    5.2228  -11.1684   28.3405 N   0  0  0  0  0  0  0  0  0  0  0  0
    9.0291  -15.7505   25.7470 C   0  0  0  0  0  0  0  0  0  0  0  0
    8.7789  -16.9315   26.0296 O   0  0  0  0  0  0  0  0  0  0  0  0
   10.0036  -15.1052   26.5367 O   0  0  0  0  0  0  0  0  0  0  0  0
  2  4  1  0
  2  1  1  6
  3  2  1  0
  4  5  1  1
  4  6  1  0
  6  7  2  0
  9  8  1  1
 10  6  1  0
 10  9  1  0
 11  9  1  0
 11 13  1  0
 12 11  2  0
 14 13  1  0
 14 15  1  1
 15 16  1  0
 16 17  1  0
 18 17  1  0
 19 18  1  0
 20 14  1  0
 21 20  2  0
 22 20  1  0
M  END
$$$$
