TAK.pdb
     RDKit          3D

 22 21  0  0  1  0  0  0  0  0999 V2000
    6.8781  -14.3185   25.5539 C   0  0  0  0  0  0  0  0  0  0  0  0
    6.5227  -15.7750   25.7670 C   0  0  1  0  0  0  0  0  0  0  0  0
    5.4534  -15.8189   26.6605 O   0  0  0  0  0  0  0  0  0  0  0  0
    6.1066  -16.3291   24.4256 C   0  0  2  0  0  0  0  0  0  0  0  0
    5.5554  -17.6518   24.6453 N   0  0  0  0  0  0  0  0  0  0  0  0
    7.2818  -16.4083   23.4890 C   0  0  0  0  0  0  0  0  0  0  0  0
    8.1099  -17.3503   23.5929 O   0  0  0  0  0  0  0  0  0  0  0  0
    8.6039  -14.2550   20.6303 C   0  0  0  0  0  0  0  0  0  0  0  0
    8.6184  -15.4213   21.5916 C   0  0  2  0  0  0  0  0  0  0  0  0
    7.4798  -15.4307   22.4768 N   0  0  0  0  0  0  0  0  0  0  0  0
    9.8961  -15.4535   22.3771 C   0  0  0  0  0  0  0  0  0  0  0  0
   10.1704  -14.5268   23.1774 O   0  0  0  0  0  0  0  0  0  0  0  0
   10.7942  -16.5175   22.2246 N   0  0  0  0  0  0  0  0  0  0  0  0
   12.0400  -16.6409   23.0169 C   0  0  1  0  0  0  0  0  0  0  0  0
   12.0724  -17.9455   23.7337 C   0  0  0  0  0  0  0  0  0  0  0  0
   12.1580  -17.7775   25.2052 C   0  0  0  0  0  0  0  0  0  0  0  0
   12.2881  -19.1079   25.9362 C   0  0  0  0  0  0  0  0  0  0  0  0
   12.5764  -18.9102   27.4027 C   0  0  0  0  0  0  0  0  0  0  0  0
   12.7015  -20.2458   27.9839 N   0  0  0  0  0  0  0  0  0  0  0  0
   13.2056  -16.3512   22.1883 C   0  0  0  0  0  0  0  0  0  0  0  0
   13.2500  -16.4270   20.9515 O   0  0  0  0  0  0  0  0  0  0  0  0
   14.3906  -15.9488   22.8390 O   0  0  0  0  0  0  0  0  0  0  0  0
  2  4  1  0
  2  1  1  6
  3  2  1  0
  4  5  1  1
  4  6  1  0
  6  7  2  0
  9  8  1  1
 10  6  1  0
 10  9  1  0
 11  9  1  0
 11 13  1  0
 12 11  2  0
 14 13  1  0
 14 15  1  6
 15 16  1  0
 16 17  1  0
 18 17  1  0
 19 18  1  0
 20 14  1  0
 21 20  2  0
 22 20  1  0
M  END
$$$$
