TAK.pdb
     RDKit          3D

 22 21  0  0  1  0  0  0  0  0999 V2000
    5.9637  -17.7548   18.6262 C   0  0  0  0  0  0  0  0  0  0  0  0
    7.1587  -17.9853   17.7252 C   0  0  1  0  0  0  0  0  0  0  0  0
    6.7136  -18.6993   16.6135 O   0  0  0  0  0  0  0  0  0  0  0  0
    7.6646  -16.6261   17.3058 C   0  0  2  0  0  0  0  0  0  0  0  0
    8.6363  -16.8229   16.2481 N   0  0  0  0  0  0  0  0  0  0  0  0
    8.3013  -15.9084   18.4651 C   0  0  0  0  0  0  0  0  0  0  0  0
    9.3352  -16.3779   19.0077 O   0  0  0  0  0  0  0  0  0  0  0  0
    7.5515  -12.7081   20.4023 C   0  0  0  0  0  0  0  0  0  0  0  0
    8.2995  -13.9856   20.0972 C   0  0  2  0  0  0  0  0  0  0  0  0
    7.7540  -14.6968   18.9674 N   0  0  0  0  0  0  0  0  0  0  0  0
    8.3550  -14.8762   21.3031 C   0  0  0  0  0  0  0  0  0  0  0  0
    7.3630  -15.5770   21.6183 O   0  0  0  0  0  0  0  0  0  0  0  0
    9.5137  -14.9339   22.0879 N   0  0  0  0  0  0  0  0  0  0  0  0
    9.8414  -16.0870   22.9584 C   0  0  1  0  0  0  0  0  0  0  0  0
    9.9067  -17.3404   22.1574 C   0  0  0  0  0  0  0  0  0  0  0  0
   10.2103  -18.5277   22.9934 C   0  0  0  0  0  0  0  0  0  0  0  0
   10.3619  -19.7982   22.1663 C   0  0  0  0  0  0  0  0  0  0  0  0
   10.7051  -20.9855   23.0296 C   0  0  0  0  0  0  0  0  0  0  0  0
   10.8241  -22.1314   22.1296 N   0  0  0  0  0  0  0  0  0  0  0  0
   11.0195  -15.7987   23.7696 C   0  0  0  0  0  0  0  0  0  0  0  0
   12.0428  -15.2188   23.3773 O   0  0  0  0  0  0  0  0  0  0  0  0
   11.0051  -16.2104   25.1186 O   0  0  0  0  0  0  0  0  0  0  0  0
  2  4  1  0
  2  1  1  1
  3  2  1  0
  4  5  1  6
  4  6  1  0
  6  7  2  0
  9  8  1  1
 10  6  1  0
 10  9  1  0
 11  9  1  0
 11 13  1  0
 12 11  2  0
 14 13  1  0
 14 15  1  6
 15 16  1  0
 16 17  1  0
 18 17  1  0
 19 18  1  0
 20 14  1  0
 21 20  2  0
 22 20  1  0
M  END
$$$$
