TAK.pdb
     RDKit          3D

 22 21  0  0  1  0  0  0  0  0999 V2000
    6.9085  -17.9149   17.6676 C   0  0  0  0  0  0  0  0  0  0  0  0
    7.9104  -17.6342   16.5673 C   0  0  1  0  0  0  0  0  0  0  0  0
    7.4200  -18.2113   15.3969 O   0  0  0  0  0  0  0  0  0  0  0  0
    7.9924  -16.1342   16.4165 C   0  0  2  0  0  0  0  0  0  0  0  0
    8.7981  -15.8509   15.2451 N   0  0  0  0  0  0  0  0  0  0  0  0
    8.6126  -15.5047   17.6346 C   0  0  0  0  0  0  0  0  0  0  0  0
    9.8259  -15.7066   17.9014 O   0  0  0  0  0  0  0  0  0  0  0  0
    7.3782  -13.2142   20.4233 C   0  0  0  0  0  0  0  0  0  0  0  0
    8.3513  -14.1529   19.7476 C   0  0  2  0  0  0  0  0  0  0  0  0
    7.8492  -14.6767   18.5012 N   0  0  0  0  0  0  0  0  0  0  0  0
    8.7457  -15.2704   20.6675 C   0  0  0  0  0  0  0  0  0  0  0  0
    8.0268  -16.2942   20.7639 O   0  0  0  0  0  0  0  0  0  0  0  0
    9.9193  -15.1814   21.4269 N   0  0  0  0  0  0  0  0  0  0  0  0
   10.3747  -16.2585   22.3365 C   0  0  1  0  0  0  0  0  0  0  0  0
   11.8585  -16.3755   22.3009 C   0  0  0  0  0  0  0  0  0  0  0  0
   12.3553  -17.4958   23.1370 C   0  0  0  0  0  0  0  0  0  0  0  0
   13.8761  -17.5871   23.1436 C   0  0  0  0  0  0  0  0  0  0  0  0
   14.3618  -18.7028   24.0336 C   0  0  0  0  0  0  0  0  0  0  0  0
   15.8219  -18.6296   24.0299 N   0  0  0  0  0  0  0  0  0  0  0  0
    9.7902  -16.0908   23.6629 C   0  0  0  0  0  0  0  0  0  0  0  0
    9.2862  -15.0474   24.1040 O   0  0  0  0  0  0  0  0  0  0  0  0
    9.7929  -17.2052   24.5277 O   0  0  0  0  0  0  0  0  0  0  0  0
  2  4  1  0
  2  1  1  1
  3  2  1  0
  4  5  1  6
  4  6  1  0
  6  7  2  0
  9  8  1  1
 10  6  1  0
 10  9  1  0
 11  9  1  0
 11 13  1  0
 12 11  2  0
 14 13  1  0
 14 15  1  1
 15 16  1  0
 16 17  1  0
 18 17  1  0
 19 18  1  0
 20 14  1  0
 21 20  2  0
 22 20  1  0
M  END
$$$$
