TAK.pdb
     RDKit          3D

 22 21  0  0  1  0  0  0  0  0999 V2000
   10.1185  -12.7125   19.4975 C   0  0  0  0  0  0  0  0  0  0  0  0
    8.7322  -12.9231   18.9259 C   0  0  1  0  0  0  0  0  0  0  0  0
    8.5739  -12.0269   17.8698 O   0  0  0  0  0  0  0  0  0  0  0  0
    8.6743  -14.3442   18.4193 C   0  0  2  0  0  0  0  0  0  0  0  0
    7.4066  -14.5196   17.7383 N   0  0  0  0  0  0  0  0  0  0  0  0
    8.7905  -15.3247   19.5549 C   0  0  0  0  0  0  0  0  0  0  0  0
    7.8849  -15.3922   20.4262 O   0  0  0  0  0  0  0  0  0  0  0  0
   10.7447  -18.4152   20.3005 C   0  0  0  0  0  0  0  0  0  0  0  0
   10.0918  -17.1269   20.7463 C   0  0  2  0  0  0  0  0  0  0  0  0
    9.9145  -16.1871   19.6668 N   0  0  0  0  0  0  0  0  0  0  0  0
   10.8591  -16.4978   21.8715 C   0  0  0  0  0  0  0  0  0  0  0  0
   11.8164  -15.7236   21.6293 O   0  0  0  0  0  0  0  0  0  0  0  0
   10.5143  -16.7684   23.2018 N   0  0  0  0  0  0  0  0  0  0  0  0
   11.1922  -16.1328   24.3557 C   0  0  1  0  0  0  0  0  0  0  0  0
   10.2283  -15.9164   25.4696 C   0  0  0  0  0  0  0  0  0  0  0  0
   10.8810  -15.3562   26.6783 C   0  0  0  0  0  0  0  0  0  0  0  0
    9.9179  -15.2241   27.8514 C   0  0  0  0  0  0  0  0  0  0  0  0
   10.5646  -14.5355   29.0263 C   0  0  0  0  0  0  0  0  0  0  0  0
    9.5965  -14.5868   30.1205 N   0  0  0  0  0  0  0  0  0  0  0  0
   12.4029  -16.8674   24.7074 C   0  0  0  0  0  0  0  0  0  0  0  0
   12.5260  -18.1011   24.7053 O   0  0  0  0  0  0  0  0  0  0  0  0
   13.5385  -16.1203   25.0841 O   0  0  0  0  0  0  0  0  0  0  0  0
  2  4  1  0
  2  1  1  6
  3  2  1  0
  4  5  1  1
  4  6  1  0
  6  7  2  0
  9  8  1  6
 10  6  1  0
 10  9  1  0
 11  9  1  0
 11 13  1  0
 12 11  2  0
 14 13  1  0
 14 15  1  1
 15 16  1  0
 16 17  1  0
 18 17  1  0
 19 18  1  0
 20 14  1  0
 21 20  2  0
 22 20  1  0
M  END
$$$$
