TAK.pdb
     RDKit          3D

 22 21  0  0  1  0  0  0  0  0999 V2000
    9.3291  -19.7892   18.6409 C   0  0  0  0  0  0  0  0  0  0  0  0
    8.4740  -18.5886   18.2938 C   0  0  1  0  0  0  0  0  0  0  0  0
    7.3880  -19.0486   17.5505 O   0  0  0  0  0  0  0  0  0  0  0  0
    8.0006  -17.9917   19.5973 C   0  0  2  0  0  0  0  0  0  0  0  0
    6.5552  -17.8958   19.5406 N   0  0  0  0  0  0  0  0  0  0  0  0
    8.6006  -16.6286   19.8134 C   0  0  0  0  0  0  0  0  0  0  0  0
    9.8335  -16.5094   20.0365 O   0  0  0  0  0  0  0  0  0  0  0  0
    7.3900  -13.0758   19.3071 C   0  0  0  0  0  0  0  0  0  0  0  0
    8.3301  -14.1216   19.8614 C   0  0  2  0  0  0  0  0  0  0  0  0
    7.7958  -15.4582   19.7707 N   0  0  0  0  0  0  0  0  0  0  0  0
    8.7136  -13.8028   21.2762 C   0  0  0  0  0  0  0  0  0  0  0  0
    9.3430  -12.7496   21.5391 O   0  0  0  0  0  0  0  0  0  0  0  0
    8.3729  -14.6770   22.3162 N   0  0  0  0  0  0  0  0  0  0  0  0
    8.6316  -14.3725   23.7428 C   0  0  1  0  0  0  0  0  0  0  0  0
    7.4041  -13.8326   24.3895 C   0  0  0  0  0  0  0  0  0  0  0  0
    7.6477  -13.4007   25.7878 C   0  0  0  0  0  0  0  0  0  0  0  0
    6.5086  -12.5542   26.3421 C   0  0  0  0  0  0  0  0  0  0  0  0
    6.7718  -12.1323   27.7653 C   0  0  0  0  0  0  0  0  0  0  0  0
    5.6246  -11.3249   28.1767 N   0  0  0  0  0  0  0  0  0  0  0  0
    9.2396  -15.5191   24.4098 C   0  0  0  0  0  0  0  0  0  0  0  0
    9.2758  -16.6769   23.9676 O   0  0  0  0  0  0  0  0  0  0  0  0
    9.8418  -15.3045   25.6671 O   0  0  0  0  0  0  0  0  0  0  0  0
  2  4  1  0
  2  1  1  1
  3  2  1  0
  4  5  1  6
  4  6  1  0
  6  7  2  0
  9  8  1  1
 10  6  1  0
 10  9  1  0
 11  9  1  0
 11 13  1  0
 12 11  2  0
 14 13  1  0
 14 15  1  1
 15 16  1  0
 16 17  1  0
 18 17  1  0
 19 18  1  0
 20 14  1  0
 21 20  2  0
 22 20  1  0
M  END
$$$$
