TAK.pdb
     RDKit          3D

 22 21  0  0  1  0  0  0  0  0999 V2000
    7.5130  -12.8593   18.1318 C   0  0  0  0  0  0  0  0  0  0  0  0
    8.0887  -14.0929   17.4685 C   0  0  1  0  0  0  0  0  0  0  0  0
    8.5176  -13.7223   16.1949 O   0  0  0  0  0  0  0  0  0  0  0  0
    9.2627  -14.5382   18.3069 C   0  0  2  0  0  0  0  0  0  0  0  0
    9.9644  -15.5719   17.5716 N   0  0  0  0  0  0  0  0  0  0  0  0
    8.8019  -15.0723   19.6362 C   0  0  0  0  0  0  0  0  0  0  0  0
    8.1233  -14.3457   20.4079 O   0  0  0  0  0  0  0  0  0  0  0  0
    9.0420  -18.4391   21.4135 C   0  0  0  0  0  0  0  0  0  0  0  0
    8.6165  -16.9975   21.2548 C   0  0  2  0  0  0  0  0  0  0  0  0
    9.1201  -16.3957   20.0447 N   0  0  0  0  0  0  0  0  0  0  0  0
    9.0147  -16.1856   22.4518 C   0  0  0  0  0  0  0  0  0  0  0  0
   10.2212  -15.9061   22.6538 O   0  0  0  0  0  0  0  0  0  0  0  0
    8.0443  -15.7322   23.3543 N   0  0  0  0  0  0  0  0  0  0  0  0
    8.3633  -14.8670   24.5140 C   0  0  1  0  0  0  0  0  0  0  0  0
    7.1761  -14.0548   24.8981 C   0  0  0  0  0  0  0  0  0  0  0  0
    7.4782  -13.0975   25.9904 C   0  0  0  0  0  0  0  0  0  0  0  0
    6.2690  -12.2550   26.3767 C   0  0  0  0  0  0  0  0  0  0  0  0
    6.6136  -11.2433   27.4399 C   0  0  0  0  0  0  0  0  0  0  0  0
    5.3936  -10.4795   27.6958 N   0  0  0  0  0  0  0  0  0  0  0  0
    8.9617  -15.6510   25.5893 C   0  0  0  0  0  0  0  0  0  0  0  0
    8.6523  -16.8119   25.8960 O   0  0  0  0  0  0  0  0  0  0  0  0
    9.9818  -15.0469   26.3535 O   0  0  0  0  0  0  0  0  0  0  0  0
  2  4  1  0
  2  1  1  1
  3  2  1  0
  4  5  1  6
  4  6  1  0
  6  7  2  0
  9  8  1  1
 10  6  1  0
 10  9  1  0
 11  9  1  0
 11 13  1  0
 12 11  2  0
 14 13  1  0
 14 15  1  1
 15 16  1  0
 16 17  1  0
 18 17  1  0
 19 18  1  0
 20 14  1  0
 21 20  2  0
 22 20  1  0
M  END
$$$$
