TAK.pdb
     RDKit          3D

 22 21  0  0  1  0  0  0  0  0999 V2000
    6.4413  -18.2353   18.8288 C   0  0  0  0  0  0  0  0  0  0  0  0
    7.4639  -18.2448   17.7120 C   0  0  1  0  0  0  0  0  0  0  0  0
    6.9138  -18.9556   16.6463 O   0  0  0  0  0  0  0  0  0  0  0  0
    7.6991  -16.8070   17.3161 C   0  0  2  0  0  0  0  0  0  0  0  0
    8.5036  -16.8063   16.1101 N   0  0  0  0  0  0  0  0  0  0  0  0
    8.4089  -16.0573   18.4109 C   0  0  0  0  0  0  0  0  0  0  0  0
    9.5234  -16.4616   18.8333 O   0  0  0  0  0  0  0  0  0  0  0  0
    7.5401  -13.0598   20.6050 C   0  0  0  0  0  0  0  0  0  0  0  0
    8.3672  -14.2461   20.1655 C   0  0  2  0  0  0  0  0  0  0  0  0
    7.8416  -14.8880   18.9858 N   0  0  0  0  0  0  0  0  0  0  0  0
    8.5189  -15.2375   21.2811 C   0  0  0  0  0  0  0  0  0  0  0  0
    7.5237  -15.8778   21.6983 O   0  0  0  0  0  0  0  0  0  0  0  0
    9.7720  -15.4577   21.8670 N   0  0  0  0  0  0  0  0  0  0  0  0
    9.9866  -16.4178   22.9747 C   0  0  1  0  0  0  0  0  0  0  0  0
   10.2440  -17.7821   22.4370 C   0  0  0  0  0  0  0  0  0  0  0  0
   10.4769  -18.7767   23.5127 C   0  0  0  0  0  0  0  0  0  0  0  0
   10.9122  -20.1315   22.9683 C   0  0  0  0  0  0  0  0  0  0  0  0
   11.1671  -21.1201   24.0776 C   0  0  0  0  0  0  0  0  0  0  0  0
   11.6010  -22.3599   23.4358 N   0  0  0  0  0  0  0  0  0  0  0  0
   10.9893  -15.9109   23.9057 C   0  0  0  0  0  0  0  0  0  0  0  0
   11.8977  -15.1145   23.6264 O   0  0  0  0  0  0  0  0  0  0  0  0
   10.9307  -16.3582   25.2421 O   0  0  0  0  0  0  0  0  0  0  0  0
  2  4  1  0
  2  1  1  1
  3  2  1  0
  4  5  1  6
  4  6  1  0
  6  7  2  0
  9  8  1  1
 10  6  1  0
 10  9  1  0
 11  9  1  0
 11 13  1  0
 12 11  2  0
 14 13  1  0
 14 15  1  6
 15 16  1  0
 16 17  1  0
 18 17  1  0
 19 18  1  0
 20 14  1  0
 21 20  2  0
 22 20  1  0
M  END
$$$$
