GRY.pdb
     RDKit          3D

 28 28  0  0  1  0  0  0  0  0999 V2000
    7.0904  -12.9225   18.2862 N   0  0  0  0  0  0  0  0  0  0  0  0
    8.3083  -13.5905   18.5773 C   0  0  0  0  0  0  0  0  0  0  0  0
    8.2005  -14.5337   19.7253 C   0  0  0  0  0  0  0  0  0  0  0  0
    7.2599  -14.3501   20.5869 O   0  0  0  0  0  0  0  0  0  0  0  0
    7.7683  -22.7494   18.4660 N   0  0  0  0  0  0  0  0  0  0  0  0
    8.5757  -21.7865   19.2051 C   0  0  0  0  0  0  0  0  0  0  0  0
    8.6655  -21.9982   20.4284 N   0  0  0  0  0  0  0  0  0  0  0  0
    9.2102  -20.7396   18.4628 N   0  0  0  0  0  0  0  0  0  0  0  0
   10.0891  -19.8564   19.2419 C   0  0  0  0  0  0  0  0  0  0  0  0
    9.2339  -18.7727   19.8103 C   0  0  0  0  0  0  0  0  0  0  0  0
    9.8735  -17.6943   20.5579 C   0  0  0  0  0  0  0  0  0  0  0  0
    9.1034  -16.5152   21.0305 C   0  0  2  0  0  0  0  0  0  0  0  0
    9.1056  -15.6030   19.8671 N   0  0  0  0  0  0  0  0  0  0  0  0
    9.8314  -15.8628   22.1607 C   0  0  0  0  0  0  0  0  0  0  0  0
   10.7341  -14.9930   21.9112 O   0  0  0  0  0  0  0  0  0  0  0  0
    9.2401  -21.4843   21.1599 O   0  0  0  0  0  0  0  0  0  0  0  0
    5.9902  -10.6544   27.8098 C   0  0  0  0  0  0  0  0  0  0  0  0
    6.4627  -11.5745   26.8826 C   0  0  0  0  0  0  0  0  0  0  0  0
    7.6879  -11.3833   26.2433 C   0  0  0  0  0  0  0  0  0  0  0  0
    8.1812  -12.2821   25.3304 C   0  0  0  0  0  0  0  0  0  0  0  0
    7.5051  -13.4148   24.9898 C   0  0  0  0  0  0  0  0  0  0  0  0
    7.9474  -14.3967   23.9974 C   0  0  2  0  0  0  0  0  0  0  0  0
    9.1502  -15.1905   24.5146 N   0  0  0  0  0  0  0  0  0  0  0  0
    9.5883  -16.1402   23.5206 C   0  0  0  0  0  0  0  0  0  0  0  0
    8.8018  -15.8019   25.7888 O   0  0  0  0  0  0  0  0  0  0  0  0
    7.9152  -16.6559   25.9909 C   0  0  0  0  0  0  0  0  0  0  0  0
    6.2656  -13.6335   25.6157 C   0  0  0  0  0  0  0  0  0  0  0  0
    5.7744  -12.7265   26.5323 O   0  0  0  0  0  0  0  0  0  0  0  0
  1  2  1  0
  3  2  1  0
  3  4  2  0
  5  6  1  0
  6  7  2  0
  8  6  1  0
  8  9  1  0
 10  9  1  0
 11 10  1  0
 12 13  1  0
 12 11  1  6
 13  3  1  0
 14 12  1  0
 15 14  2  0
 17 16  1  0
 17 18  2  0
 19 18  1  0
 20 19  2  0
 21 20  1  0
 22 21  1  6
 22 23  1  0
 23 14  1  0
 24 22  1  0
 24 28  1  0
 25 24  2  0
 26 27  2  0
 26 20  1  0
 27 17  1  0
M  END
$$$$
