GRY.pdb
     RDKit          3D

 28 28  0  0  1  0  0  0  0  0999 V2000
    7.7266  -12.6501   17.8480 N   0  0  0  0  0  0  0  0  0  0  0  0
    8.8204  -13.4717   18.2254 C   0  0  0  0  0  0  0  0  0  0  0  0
    8.4945  -14.4092   19.3364 C   0  0  0  0  0  0  0  0  0  0  0  0
    7.4752  -14.1504   20.0812 O   0  0  0  0  0  0  0  0  0  0  0  0
   11.2577  -20.5051   17.2924 N   0  0  0  0  0  0  0  0  0  0  0  0
    9.8712  -20.9166   17.4760 C   0  0  0  0  0  0  0  0  0  0  0  0
    9.3289  -21.4152   16.4727 N   0  0  0  0  0  0  0  0  0  0  0  0
    9.2939  -20.7527   18.7757 N   0  0  0  0  0  0  0  0  0  0  0  0
    8.4346  -19.5720   18.9407 C   0  0  0  0  0  0  0  0  0  0  0  0
    9.3261  -18.3744   18.9424 C   0  0  0  0  0  0  0  0  0  0  0  0
    9.6708  -17.7587   20.2202 C   0  0  0  0  0  0  0  0  0  0  0  0
    9.0250  -16.5005   20.6743 C   0  0  2  0  0  0  0  0  0  0  0  0
    9.2817  -15.5533   19.5686 N   0  0  0  0  0  0  0  0  0  0  0  0
    9.7082  -16.0044   21.9073 C   0  0  0  0  0  0  0  0  0  0  0  0
   10.6291  -15.1239   21.8073 O   0  0  0  0  0  0  0  0  0  0  0  0
    8.3364  -21.7760   16.3536 O   0  0  0  0  0  0  0  0  0  0  0  0
    6.2084  -11.4058   28.2985 C   0  0  0  0  0  0  0  0  0  0  0  0
    6.5809  -12.2397   27.2518 C   0  0  0  0  0  0  0  0  0  0  0  0
    7.5195  -13.2541   27.4427 C   0  0  0  0  0  0  0  0  0  0  0  0
    7.8976  -14.0970   26.4273 C   0  0  0  0  0  0  0  0  0  0  0  0
    7.3825  -13.9947   25.1702 C   0  0  0  0  0  0  0  0  0  0  0  0
    7.7662  -14.8290   24.0294 C   0  0  1  0  0  0  0  0  0  0  0  0
    9.0520  -15.6044   24.3293 N   0  0  0  0  0  0  0  0  0  0  0  0
    9.4023  -16.4452   23.2102 C   0  0  0  0  0  0  0  0  0  0  0  0
    8.8836  -16.3366   25.5760 O   0  0  0  0  0  0  0  0  0  0  0  0
    8.2045  -17.3682   25.7516 C   0  0  0  0  0  0  0  0  0  0  0  0
    6.4362  -12.9797   24.9465 C   0  0  0  0  0  0  0  0  0  0  0  0
    6.0601  -12.1349   25.9706 O   0  0  0  0  0  0  0  0  0  0  0  0
  1  2  1  0
  3  2  1  0
  3  4  2  0
  5  6  1  0
  6  7  2  0
  8  6  1  0
  8  9  1  0
 10  9  1  0
 11 10  1  0
 12 13  1  0
 12 11  1  6
 13  3  1  0
 14 12  1  0
 15 14  2  0
 17 16  1  0
 17 18  2  0
 19 18  1  0
 20 19  2  0
 21 20  1  0
 22 21  1  6
 22 23  1  0
 23 14  1  0
 24 22  1  0
 24 28  1  0
 25 24  2  0
 26 27  2  0
 26 20  1  0
 27 17  1  0
M  END
$$$$
