GRY.pdb
     RDKit          3D

 28 28  0  0  1  0  0  0  0  0999 V2000
   10.6088  -21.8141   17.4384 N   0  0  0  0  0  0  0  0  0  0  0  0
   11.5201  -20.8351   16.9641 C   0  0  0  0  0  0  0  0  0  0  0  0
   12.6239  -21.4089   16.1444 C   0  0  0  0  0  0  0  0  0  0  0  0
   12.8973  -22.6619   16.2707 O   0  0  0  0  0  0  0  0  0  0  0  0
   14.9356  -20.0318    9.3627 N   0  0  0  0  0  0  0  0  0  0  0  0
   13.6857  -19.2903    9.2488 C   0  0  0  0  0  0  0  0  0  0  0  0
   13.0805  -19.4337    8.1706 N   0  0  0  0  0  0  0  0  0  0  0  0
   13.2614  -18.5214   10.3794 N   0  0  0  0  0  0  0  0  0  0  0  0
   14.1932  -18.5022   11.5156 C   0  0  0  0  0  0  0  0  0  0  0  0
   13.9633  -19.7542   12.2959 C   0  0  0  0  0  0  0  0  0  0  0  0
   14.7615  -19.9894   13.4952 C   0  0  0  0  0  0  0  0  0  0  0  0
   14.4619  -21.1140   14.4182 C   0  0  2  0  0  0  0  0  0  0  0  0
   13.3531  -20.6012   15.2507 N   0  0  0  0  0  0  0  0  0  0  0  0
   15.6460  -21.3727   15.2922 C   0  0  0  0  0  0  0  0  0  0  0  0
   15.5538  -21.1812   16.5525 O   0  0  0  0  0  0  0  0  0  0  0  0
   12.1452  -19.0321    7.8652 O   0  0  0  0  0  0  0  0  0  0  0  0
   17.4152  -22.0043   21.9850 C   0  0  0  0  0  0  0  0  0  0  0  0
   17.4912  -22.3438   20.6401 C   0  0  0  0  0  0  0  0  0  0  0  0
   16.4317  -22.9903   20.0030 C   0  0  0  0  0  0  0  0  0  0  0  0
   16.4784  -23.3282   18.6732 C   0  0  0  0  0  0  0  0  0  0  0  0
   17.5619  -23.0558   17.8935 C   0  0  0  0  0  0  0  0  0  0  0  0
   17.7002  -23.4209   16.4820 C   0  0  2  0  0  0  0  0  0  0  0  0
   18.0277  -22.1912   15.6306 N   0  0  0  0  0  0  0  0  0  0  0  0
   16.8922  -21.8281   14.8177 C   0  0  0  0  0  0  0  0  0  0  0  0
   19.2334  -22.4564   14.8595 O   0  0  0  0  0  0  0  0  0  0  0  0
   19.2937  -22.8404   13.6742 C   0  0  0  0  0  0  0  0  0  0  0  0
   18.6467  -22.4072   18.5084 C   0  0  0  0  0  0  0  0  0  0  0  0
   18.5946  -22.0703   19.8455 O   0  0  0  0  0  0  0  0  0  0  0  0
  1  2  1  0
  3  2  1  0
  3  4  2  0
  5  6  1  0
  6  7  2  0
  8  6  1  0
  8  9  1  0
 10  9  1  0
 11 10  1  0
 12 13  1  0
 12 11  1  6
 13  3  1  0
 14 12  1  0
 15 14  2  0
 17 16  1  0
 17 18  2  0
 19 18  1  0
 20 19  2  0
 21 20  1  0
 22 21  1  1
 22 23  1  0
 23 14  1  0
 24 22  1  0
 24 28  1  0
 25 24  2  0
 26 27  2  0
 26 20  1  0
 27 17  1  0
M  END
$$$$
