GRY.pdb
     RDKit          3D

 28 28  0  0  1  0  0  0  0  0999 V2000
    8.1307  -12.1877   18.3094 N   0  0  0  0  0  0  0  0  0  0  0  0
    8.3172  -13.5485   18.6663 C   0  0  0  0  0  0  0  0  0  0  0  0
    7.7838  -13.8795   20.0173 C   0  0  0  0  0  0  0  0  0  0  0  0
    7.6618  -12.9304   20.8805 O   0  0  0  0  0  0  0  0  0  0  0  0
    2.5489  -20.0286   19.6902 N   0  0  0  0  0  0  0  0  0  0  0  0
    2.9027  -19.4964   21.0004 C   0  0  0  0  0  0  0  0  0  0  0  0
    1.9757  -19.4720   21.8307 N   0  0  0  0  0  0  0  0  0  0  0  0
    4.2625  -19.1037   21.2153 N   0  0  0  0  0  0  0  0  0  0  0  0
    4.9833  -18.6435   20.0201 C   0  0  0  0  0  0  0  0  0  0  0  0
    5.3892  -17.2282   20.2673 C   0  0  0  0  0  0  0  0  0  0  0  0
    6.2720  -16.9385   21.3931 C   0  0  0  0  0  0  0  0  0  0  0  0
    6.7982  -15.5705   21.6342 C   0  0  2  0  0  0  0  0  0  0  0  0
    7.4203  -15.1997   20.3453 N   0  0  0  0  0  0  0  0  0  0  0  0
    7.8566  -15.6203   22.6879 C   0  0  0  0  0  0  0  0  0  0  0  0
    9.0413  -15.9839   22.3753 O   0  0  0  0  0  0  0  0  0  0  0  0
    1.9979  -19.1942   22.8563 O   0  0  0  0  0  0  0  0  0  0  0  0
   11.6564  -15.1866   30.7420 C   0  0  0  0  0  0  0  0  0  0  0  0
   10.7791  -15.0665   29.6716 C   0  0  0  0  0  0  0  0  0  0  0  0
   10.7526  -13.9092   28.8930 C   0  0  0  0  0  0  0  0  0  0  0  0
    9.9018  -13.7695   27.8246 C   0  0  0  0  0  0  0  0  0  0  0  0
    9.0294  -14.7501   27.4593 C   0  0  0  0  0  0  0  0  0  0  0  0
    8.0662  -14.6575   26.3600 C   0  0  1  0  0  0  0  0  0  0  0  0
    8.6414  -15.2673   25.0788 N   0  0  0  0  0  0  0  0  0  0  0  0
    7.6411  -15.2837   24.0391 C   0  0  0  0  0  0  0  0  0  0  0  0
    9.1851  -16.5828   25.3828 O   0  0  0  0  0  0  0  0  0  0  0  0
   10.3630  -16.8519   25.6927 C   0  0  0  0  0  0  0  0  0  0  0  0
    9.0311  -15.9275   28.2271 C   0  0  0  0  0  0  0  0  0  0  0  0
    9.8880  -16.0623   29.3003 O   0  0  0  0  0  0  0  0  0  0  0  0
  1  2  1  0
  3  2  1  0
  3  4  2  0
  5  6  1  0
  6  7  2  0
  8  6  1  0
  8  9  1  0
 10  9  1  0
 11 10  1  0
 12 13  1  0
 12 11  1  6
 13  3  1  0
 14 12  1  0
 15 14  2  0
 17 16  1  0
 17 18  2  0
 19 18  1  0
 20 19  2  0
 21 20  1  0
 22 21  1  6
 22 23  1  0
 23 14  1  0
 24 22  1  0
 24 28  1  0
 25 24  2  0
 26 27  2  0
 26 20  1  0
 27 17  1  0
M  END
$$$$
