GRY.pdb
     RDKit          3D

 28 28  0  0  1  0  0  0  0  0999 V2000
   13.1432  -17.4145   18.4343 N   0  0  0  0  0  0  0  0  0  0  0  0
   11.9031  -17.7440   19.0406 C   0  0  0  0  0  0  0  0  0  0  0  0
   11.3810  -16.6694   19.9306 C   0  0  0  0  0  0  0  0  0  0  0  0
   12.2253  -15.9035   20.5317 O   0  0  0  0  0  0  0  0  0  0  0  0
    6.7582  -13.1094   15.9235 N   0  0  0  0  0  0  0  0  0  0  0  0
    8.0364  -13.6951   16.3086 C   0  0  0  0  0  0  0  0  0  0  0  0
    8.5230  -14.4932   15.4867 N   0  0  0  0  0  0  0  0  0  0  0  0
    8.6178  -13.2714   17.5463 N   0  0  0  0  0  0  0  0  0  0  0  0
    7.7806  -13.4697   18.7378 C   0  0  0  0  0  0  0  0  0  0  0  0
    7.9123  -14.9025   19.1360 C   0  0  0  0  0  0  0  0  0  0  0  0
    8.0883  -15.2241   20.5490 C   0  0  0  0  0  0  0  0  0  0  0  0
    9.4227  -15.5623   21.1071 C   0  0  2  0  0  0  0  0  0  0  0  0
    9.9958  -16.4931   20.1117 N   0  0  0  0  0  0  0  0  0  0  0  0
    9.2537  -16.2832   22.4052 C   0  0  0  0  0  0  0  0  0  0  0  0
    9.7593  -17.4480   22.5504 O   0  0  0  0  0  0  0  0  0  0  0  0
    9.4471  -15.0167   15.5229 O   0  0  0  0  0  0  0  0  0  0  0  0
   10.9628  -14.9161   30.9385 C   0  0  0  0  0  0  0  0  0  0  0  0
   10.5907  -14.8318   29.6028 C   0  0  0  0  0  0  0  0  0  0  0  0
   10.9935  -15.8013   28.6839 C   0  0  0  0  0  0  0  0  0  0  0  0
   10.6316  -15.7458   27.3608 C   0  0  0  0  0  0  0  0  0  0  0  0
    9.8592  -14.7404   26.8619 C   0  0  0  0  0  0  0  0  0  0  0  0
    9.4677  -14.5928   25.4585 C   0  0  2  0  0  0  0  0  0  0  0  0
    8.9355  -15.9150   24.8992 N   0  0  0  0  0  0  0  0  0  0  0  0
    8.5611  -15.7585   23.5145 C   0  0  0  0  0  0  0  0  0  0  0  0
    7.8482  -16.3840   25.7457 O   0  0  0  0  0  0  0  0  0  0  0  0
    6.6483  -16.0502   25.6754 C   0  0  0  0  0  0  0  0  0  0  0  0
    9.4402  -13.7469   27.7636 C   0  0  0  0  0  0  0  0  0  0  0  0
    9.8073  -13.8074   29.0924 O   0  0  0  0  0  0  0  0  0  0  0  0
  1  2  1  0
  3  2  1  0
  3  4  2  0
  5  6  1  0
  6  7  2  0
  8  6  1  0
  8  9  1  0
 10  9  1  0
 11 10  1  0
 12 13  1  0
 12 11  1  6
 13  3  1  0
 14 12  1  0
 15 14  2  0
 17 16  1  0
 17 18  2  0
 19 18  1  0
 20 19  2  0
 21 20  1  0
 22 21  1  6
 22 23  1  0
 23 14  1  0
 24 22  1  0
 24 28  1  0
 25 24  2  0
 26 27  2  0
 26 20  1  0
 27 17  1  0
M  END
$$$$
