GRY.pdb
     RDKit          3D

 28 28  0  0  1  0  0  0  0  0999 V2000
    5.2142  -20.1635   23.2338 N   0  0  0  0  0  0  0  0  0  0  0  0
    5.1397  -18.7578   23.0537 C   0  0  0  0  0  0  0  0  0  0  0  0
    6.4076  -18.1630   22.5458 C   0  0  0  0  0  0  0  0  0  0  0  0
    7.4326  -18.9304   22.4001 O   0  0  0  0  0  0  0  0  0  0  0  0
    8.2289  -13.7866   17.0877 N   0  0  0  0  0  0  0  0  0  0  0  0
    8.1641  -12.8826   18.2296 C   0  0  0  0  0  0  0  0  0  0  0  0
    9.0901  -12.0542   18.3032 N   0  0  0  0  0  0  0  0  0  0  0  0
    7.0429  -13.0024   19.1118 N   0  0  0  0  0  0  0  0  0  0  0  0
    6.1446  -14.1336   18.8412 C   0  0  0  0  0  0  0  0  0  0  0  0
    6.6346  -15.2892   19.6495 C   0  0  0  0  0  0  0  0  0  0  0  0
    7.2782  -15.0246   20.9327 C   0  0  0  0  0  0  0  0  0  0  0  0
    7.7389  -16.1297   21.8119 C   0  0  2  0  0  0  0  0  0  0  0  0
    6.4858  -16.7927   22.2312 N   0  0  0  0  0  0  0  0  0  0  0  0
    8.4145  -15.5611   23.0174 C   0  0  0  0  0  0  0  0  0  0  0  0
    7.9310  -14.5198   23.5792 O   0  0  0  0  0  0  0  0  0  0  0  0
    9.2551  -11.2915   19.0246 O   0  0  0  0  0  0  0  0  0  0  0  0
   11.0142  -14.4068   31.1143 C   0  0  0  0  0  0  0  0  0  0  0  0
   10.5346  -14.7519   29.8570 C   0  0  0  0  0  0  0  0  0  0  0  0
   10.3414  -13.7824   28.8726 C   0  0  0  0  0  0  0  0  0  0  0  0
    9.8775  -14.0988   27.6199 C   0  0  0  0  0  0  0  0  0  0  0  0
    9.5747  -15.3776   27.2603 C   0  0  0  0  0  0  0  0  0  0  0  0
    9.0384  -15.7851   25.9600 C   0  0  2  0  0  0  0  0  0  0  0  0
   10.1278  -15.7463   24.8848 N   0  0  0  0  0  0  0  0  0  0  0  0
    9.5766  -16.1044   23.6003 C   0  0  0  0  0  0  0  0  0  0  0  0
   11.2337  -16.5968   25.3001 O   0  0  0  0  0  0  0  0  0  0  0  0
   12.3147  -16.2267   25.8006 C   0  0  0  0  0  0  0  0  0  0  0  0
    9.7566  -16.3764   28.2325 C   0  0  0  0  0  0  0  0  0  0  0  0
   10.2228  -16.0527   29.4903 O   0  0  0  0  0  0  0  0  0  0  0  0
  1  2  1  0
  3  2  1  0
  3  4  2  0
  5  6  1  0
  6  7  2  0
  8  6  1  0
  8  9  1  0
 10  9  1  0
 11 10  1  0
 12 13  1  0
 12 11  1  6
 13  3  1  0
 14 12  1  0
 15 14  2  0
 17 16  1  0
 17 18  2  0
 19 18  1  0
 20 19  2  0
 21 20  1  0
 22 21  1  6
 22 23  1  0
 23 14  1  0
 24 22  1  0
 24 28  1  0
 25 24  2  0
 26 27  2  0
 26 20  1  0
 27 17  1  0
M  END
$$$$
