GRY.pdb
     RDKit          3D

 28 28  0  0  1  0  0  0  0  0999 V2000
    5.6243  -20.8375   23.4804 N   0  0  0  0  0  0  0  0  0  0  0  0
    5.2579  -19.5036   23.1636 C   0  0  0  0  0  0  0  0  0  0  0  0
    6.4153  -18.6573   22.7589 C   0  0  0  0  0  0  0  0  0  0  0  0
    7.6057  -19.1227   22.9237 O   0  0  0  0  0  0  0  0  0  0  0  0
    7.6351  -14.2608   16.9273 N   0  0  0  0  0  0  0  0  0  0  0  0
    8.3760  -13.2910   17.7245 C   0  0  0  0  0  0  0  0  0  0  0  0
    9.5626  -13.1238   17.3878 N   0  0  0  0  0  0  0  0  0  0  0  0
    7.6712  -12.6066   18.7658 N   0  0  0  0  0  0  0  0  0  0  0  0
    6.6715  -13.4089   19.4846 C   0  0  0  0  0  0  0  0  0  0  0  0
    7.4142  -14.4381   20.2708 C   0  0  0  0  0  0  0  0  0  0  0  0
    6.6544  -15.3789   21.0884 C   0  0  0  0  0  0  0  0  0  0  0  0
    7.3242  -16.4741   21.8355 C   0  0  2  0  0  0  0  0  0  0  0  0
    6.2145  -17.3771   22.2080 N   0  0  0  0  0  0  0  0  0  0  0  0
    7.9424  -15.9252   23.0803 C   0  0  0  0  0  0  0  0  0  0  0  0
    7.3344  -15.0128   23.7371 O   0  0  0  0  0  0  0  0  0  0  0  0
   10.2849  -12.4500   17.7798 O   0  0  0  0  0  0  0  0  0  0  0  0
   11.1865  -14.0461   30.7527 C   0  0  0  0  0  0  0  0  0  0  0  0
   10.6033  -14.5377   29.5917 C   0  0  0  0  0  0  0  0  0  0  0  0
   10.5467  -15.9093   29.3432 C   0  0  0  0  0  0  0  0  0  0  0  0
    9.9677  -16.4206   28.2083 C   0  0  0  0  0  0  0  0  0  0  0  0
    9.4147  -15.6216   27.2533 C   0  0  0  0  0  0  0  0  0  0  0  0
    8.8173  -16.0909   26.0013 C   0  0  2  0  0  0  0  0  0  0  0  0
    9.7847  -15.8987   24.8302 N   0  0  0  0  0  0  0  0  0  0  0  0
    9.1799  -16.3526   23.6013 C   0  0  0  0  0  0  0  0  0  0  0  0
   11.0415  -16.5645   25.1398 O   0  0  0  0  0  0  0  0  0  0  0  0
   11.2531  -17.7938   25.1538 C   0  0  0  0  0  0  0  0  0  0  0  0
    9.4591  -14.2343   27.4746 C   0  0  0  0  0  0  0  0  0  0  0  0
   10.0428  -13.7257   28.6169 O   0  0  0  0  0  0  0  0  0  0  0  0
  1  2  1  0
  3  2  1  0
  3  4  2  0
  5  6  1  0
  6  7  2  0
  8  6  1  0
  8  9  1  0
 10  9  1  0
 11 10  1  0
 12 13  1  0
 12 11  1  6
 13  3  1  0
 14 12  1  0
 15 14  2  0
 17 16  1  0
 17 18  2  0
 19 18  1  0
 20 19  2  0
 21 20  1  0
 22 21  1  6
 22 23  1  0
 23 14  1  0
 24 22  1  0
 24 28  1  0
 25 24  2  0
 26 27  2  0
 26 20  1  0
 27 17  1  0
M  END
$$$$
