GRY.pdb
     RDKit          3D

 28 28  0  0  1  0  0  0  0  0999 V2000
   13.3814  -18.7839   20.4498 N   0  0  0  0  0  0  0  0  0  0  0  0
   12.1268  -19.0920   21.0373 C   0  0  0  0  0  0  0  0  0  0  0  0
   11.4874  -17.9227   21.7029 C   0  0  0  0  0  0  0  0  0  0  0  0
   12.2339  -17.1066   22.3644 O   0  0  0  0  0  0  0  0  0  0  0  0
    6.9065  -12.4092   18.7926 N   0  0  0  0  0  0  0  0  0  0  0  0
    8.1583  -12.9776   19.2777 C   0  0  0  0  0  0  0  0  0  0  0  0
    9.1832  -12.3404   18.9729 N   0  0  0  0  0  0  0  0  0  0  0  0
    8.0864  -14.1625   20.0779 N   0  0  0  0  0  0  0  0  0  0  0  0
    6.9488  -14.2299   21.0057 C   0  0  0  0  0  0  0  0  0  0  0  0
    7.1509  -15.4340   21.8649 C   0  0  0  0  0  0  0  0  0  0  0  0
    8.1703  -16.4058   21.4814 C   0  0  0  0  0  0  0  0  0  0  0  0
    9.4037  -16.5953   22.2872 C   0  0  2  0  0  0  0  0  0  0  0  0
   10.0981  -17.7122   21.6120 N   0  0  0  0  0  0  0  0  0  0  0  0
    9.0360  -17.0184   23.6724 C   0  0  0  0  0  0  0  0  0  0  0  0
    8.6038  -18.2038   23.8761 O   0  0  0  0  0  0  0  0  0  0  0  0
   10.2034  -12.5879   19.1376 O   0  0  0  0  0  0  0  0  0  0  0  0
    5.5927  -11.1855   25.9481 C   0  0  0  0  0  0  0  0  0  0  0  0
    6.4688  -12.2253   26.2332 C   0  0  0  0  0  0  0  0  0  0  0  0
    7.6235  -12.0041   26.9842 C   0  0  0  0  0  0  0  0  0  0  0  0
    8.5003  -13.0161   27.2872 C   0  0  0  0  0  0  0  0  0  0  0  0
    8.2994  -14.2981   26.8721 C   0  0  0  0  0  0  0  0  0  0  0  0
    9.2083  -15.4191   27.1212 C   0  0  1  0  0  0  0  0  0  0  0  0
    8.9100  -16.5835   26.1728 N   0  0  0  0  0  0  0  0  0  0  0  0
    9.1358  -16.1853   24.8044 C   0  0  0  0  0  0  0  0  0  0  0  0
    7.5590  -17.0639   26.4228 O   0  0  0  0  0  0  0  0  0  0  0  0
    6.5703  -16.9402   25.6722 C   0  0  0  0  0  0  0  0  0  0  0  0
    7.1452  -14.5514   26.1108 C   0  0  0  0  0  0  0  0  0  0  0  0
    6.2676  -13.5303   25.8087 O   0  0  0  0  0  0  0  0  0  0  0  0
  1  2  1  0
  3  2  1  0
  3  4  2  0
  5  6  1  0
  6  7  2  0
  8  6  1  0
  8  9  1  0
 10  9  1  0
 11 10  1  0
 12 13  1  0
 12 11  1  6
 13  3  1  0
 14 12  1  0
 15 14  2  0
 17 16  1  0
 17 18  2  0
 19 18  1  0
 20 19  2  0
 21 20  1  0
 22 21  1  1
 22 23  1  0
 23 14  1  0
 24 22  1  0
 24 28  1  0
 25 24  2  0
 26 27  2  0
 26 20  1  0
 27 17  1  0
M  END
$$$$
