GRY.pdb
     RDKit          3D

 28 28  0  0  1  0  0  0  0  0999 V2000
   13.5333  -13.3538   20.4714 N   0  0  0  0  0  0  0  0  0  0  0  0
   12.8197  -14.5656   20.6617 C   0  0  0  0  0  0  0  0  0  0  0  0
   11.5194  -14.3772   21.3638 C   0  0  0  0  0  0  0  0  0  0  0  0
   11.2943  -13.2525   21.9512 O   0  0  0  0  0  0  0  0  0  0  0  0
    8.3363  -12.5869   17.9633 N   0  0  0  0  0  0  0  0  0  0  0  0
    7.8907  -13.9342   17.6296 C   0  0  0  0  0  0  0  0  0  0  0  0
    8.5457  -14.5036   16.7374 N   0  0  0  0  0  0  0  0  0  0  0  0
    6.7956  -14.4777   18.3745 N   0  0  0  0  0  0  0  0  0  0  0  0
    7.0234  -14.6196   19.8194 C   0  0  0  0  0  0  0  0  0  0  0  0
    7.9507  -15.7743   20.0085 C   0  0  0  0  0  0  0  0  0  0  0  0
    8.3442  -16.1426   21.3651 C   0  0  0  0  0  0  0  0  0  0  0  0
    9.2940  -15.3127   22.1496 C   0  0  2  0  0  0  0  0  0  0  0  0
   10.5565  -15.4043   21.3857 N   0  0  0  0  0  0  0  0  0  0  0  0
    9.4967  -15.9242   23.4979 C   0  0  0  0  0  0  0  0  0  0  0  0
   10.5381  -16.6311   23.7199 O   0  0  0  0  0  0  0  0  0  0  0  0
    8.4799  -15.5056   16.3896 O   0  0  0  0  0  0  0  0  0  0  0  0
    7.3445  -10.2850   26.9660 C   0  0  0  0  0  0  0  0  0  0  0  0
    7.4076  -11.6720   26.9196 C   0  0  0  0  0  0  0  0  0  0  0  0
    6.3159  -12.4251   26.4869 C   0  0  0  0  0  0  0  0  0  0  0  0
    6.3561  -13.7959   26.4231 C   0  0  0  0  0  0  0  0  0  0  0  0
    7.4624  -14.5063   26.7802 C   0  0  0  0  0  0  0  0  0  0  0  0
    7.5657  -15.9671   26.7775 C   0  0  2  0  0  0  0  0  0  0  0  0
    8.6964  -16.4317   25.8556 N   0  0  0  0  0  0  0  0  0  0  0  0
    8.6013  -15.7730   24.5753 C   0  0  0  0  0  0  0  0  0  0  0  0
    8.6674  -17.8842   25.7654 O   0  0  0  0  0  0  0  0  0  0  0  0
    8.4533  -18.5659   24.7429 C   0  0  0  0  0  0  0  0  0  0  0  0
    8.5779  -13.7747   27.2232 C   0  0  0  0  0  0  0  0  0  0  0  0
    8.5318  -12.3970   27.2858 O   0  0  0  0  0  0  0  0  0  0  0  0
  1  2  1  0
  3  2  1  0
  3  4  2  0
  5  6  1  0
  6  7  2  0
  8  6  1  0
  8  9  1  0
 10  9  1  0
 11 10  1  0
 12 13  1  0
 12 11  1  6
 13  3  1  0
 14 12  1  0
 15 14  2  0
 17 16  1  0
 17 18  2  0
 19 18  1  0
 20 19  2  0
 21 20  1  0
 22 21  1  1
 22 23  1  0
 23 14  1  0
 24 22  1  0
 24 28  1  0
 25 24  2  0
 26 27  2  0
 26 20  1  0
 27 17  1  0
M  END
$$$$
