GRY.pdb
     RDKit          3D

 28 28  0  0  1  0  0  0  0  0999 V2000
    7.8131  -12.6516   17.7765 N   0  0  0  0  0  0  0  0  0  0  0  0
    8.6192  -13.7888   18.0429 C   0  0  0  0  0  0  0  0  0  0  0  0
    8.2564  -14.4814   19.3110 C   0  0  0  0  0  0  0  0  0  0  0  0
    7.4383  -13.8987   20.1185 O   0  0  0  0  0  0  0  0  0  0  0  0
    9.4183  -20.4740   24.6407 N   0  0  0  0  0  0  0  0  0  0  0  0
    8.2272  -20.8536   23.8907 C   0  0  0  0  0  0  0  0  0  0  0  0
    7.1768  -20.9087   24.5561 N   0  0  0  0  0  0  0  0  0  0  0  0
    8.3688  -21.0777   22.4838 N   0  0  0  0  0  0  0  0  0  0  0  0
    9.1739  -20.0814   21.7635 C   0  0  0  0  0  0  0  0  0  0  0  0
    8.2538  -18.9753   21.3651 C   0  0  0  0  0  0  0  0  0  0  0  0
    8.7803  -17.8845   20.5504 C   0  0  0  0  0  0  0  0  0  0  0  0
    8.4958  -16.4640   20.8785 C   0  0  2  0  0  0  0  0  0  0  0  0
    8.7944  -15.7450   19.6217 N   0  0  0  0  0  0  0  0  0  0  0  0
    9.4381  -15.9977   21.9404 C   0  0  0  0  0  0  0  0  0  0  0  0
   10.4538  -15.2923   21.6173 O   0  0  0  0  0  0  0  0  0  0  0  0
    6.1836  -21.1020   24.2312 O   0  0  0  0  0  0  0  0  0  0  0  0
    5.8571  -10.9721   27.9408 C   0  0  0  0  0  0  0  0  0  0  0  0
    6.2773  -11.8763   26.9734 C   0  0  0  0  0  0  0  0  0  0  0  0
    7.3151  -11.5580   26.0972 C   0  0  0  0  0  0  0  0  0  0  0  0
    7.7549  -12.4372   25.1390 C   0  0  0  0  0  0  0  0  0  0  0  0
    7.2045  -13.6736   24.9820 C   0  0  0  0  0  0  0  0  0  0  0  0
    7.5921  -14.6472   23.9591 C   0  0  2  0  0  0  0  0  0  0  0  0
    8.9038  -15.3410   24.3363 N   0  0  0  0  0  0  0  0  0  0  0  0
    9.2848  -16.2829   23.3118 C   0  0  0  0  0  0  0  0  0  0  0  0
    8.7597  -15.9424   25.6540 O   0  0  0  0  0  0  0  0  0  0  0  0
    9.1228  -15.4540   26.7429 C   0  0  0  0  0  0  0  0  0  0  0  0
    6.1544  -14.0219   25.8489 C   0  0  0  0  0  0  0  0  0  0  0  0
    5.7160  -13.1341   26.8100 O   0  0  0  0  0  0  0  0  0  0  0  0
  1  2  1  0
  3  2  1  0
  3  4  2  0
  5  6  1  0
  6  7  2  0
  8  6  1  0
  8  9  1  0
 10  9  1  0
 11 10  1  0
 12 13  1  0
 12 11  1  6
 13  3  1  0
 14 12  1  0
 15 14  2  0
 17 16  1  0
 17 18  2  0
 19 18  1  0
 20 19  2  0
 21 20  1  0
 22 21  1  6
 22 23  1  0
 23 14  1  0
 24 22  1  0
 24 28  1  0
 25 24  2  0
 26 27  2  0
 26 20  1  0
 27 17  1  0
M  END
$$$$
