GRY.pdb
     RDKit          3D

 28 28  0  0  1  0  0  0  0  0999 V2000
    6.9234  -12.5357   19.0851 N   0  0  0  0  0  0  0  0  0  0  0  0
    8.1529  -12.8048   19.7408 C   0  0  0  0  0  0  0  0  0  0  0  0
    8.0792  -13.9638   20.6738 C   0  0  0  0  0  0  0  0  0  0  0  0
    7.0102  -14.1220   21.3759 O   0  0  0  0  0  0  0  0  0  0  0  0
   10.3451  -21.7700   20.9064 N   0  0  0  0  0  0  0  0  0  0  0  0
   10.1198  -21.0856   19.6391 C   0  0  0  0  0  0  0  0  0  0  0  0
    9.4847  -21.7377   18.7900 N   0  0  0  0  0  0  0  0  0  0  0  0
   10.6005  -19.7432   19.5118 N   0  0  0  0  0  0  0  0  0  0  0  0
   11.3105  -19.2128   20.6841 C   0  0  0  0  0  0  0  0  0  0  0  0
   10.3486  -18.3465   21.4278 C   0  0  0  0  0  0  0  0  0  0  0  0
   10.0626  -17.0118   20.9105 C   0  0  0  0  0  0  0  0  0  0  0  0
    9.0781  -16.1179   21.5723 C   0  0  2  0  0  0  0  0  0  0  0  0
    9.1530  -14.8677   20.7868 N   0  0  0  0  0  0  0  0  0  0  0  0
    9.5186  -15.8387   22.9727 C   0  0  0  0  0  0  0  0  0  0  0  0
   10.6077  -15.2017   23.1763 O   0  0  0  0  0  0  0  0  0  0  0  0
    9.2076  -21.4648   17.8011 O   0  0  0  0  0  0  0  0  0  0  0  0
    5.8579  -10.6202   26.0257 C   0  0  0  0  0  0  0  0  0  0  0  0
    6.3902  -11.8999   26.1197 C   0  0  0  0  0  0  0  0  0  0  0  0
    5.8420  -12.9591   25.3959 C   0  0  0  0  0  0  0  0  0  0  0  0
    6.3551  -14.2307   25.4643 C   0  0  0  0  0  0  0  0  0  0  0  0
    7.4290  -14.5383   26.2442 C   0  0  0  0  0  0  0  0  0  0  0  0
    8.0052  -15.8757   26.3991 C   0  0  2  0  0  0  0  0  0  0  0  0
    9.2222  -16.0537   25.4872 N   0  0  0  0  0  0  0  0  0  0  0  0
    8.8007  -16.2338   24.1191 C   0  0  0  0  0  0  0  0  0  0  0  0
   10.0371  -17.1486   25.9932 O   0  0  0  0  0  0  0  0  0  0  0  0
   10.2478  -18.2440   25.4349 C   0  0  0  0  0  0  0  0  0  0  0  0
    8.0013  -13.4917   26.9877 C   0  0  0  0  0  0  0  0  0  0  0  0
    7.4813  -12.2156   26.9156 O   0  0  0  0  0  0  0  0  0  0  0  0
  1  2  1  0
  3  2  1  0
  3  4  2  0
  5  6  1  0
  6  7  2  0
  8  6  1  0
  8  9  1  0
 10  9  1  0
 11 10  1  0
 12 13  1  0
 12 11  1  6
 13  3  1  0
 14 12  1  0
 15 14  2  0
 17 16  1  0
 17 18  2  0
 19 18  1  0
 20 19  2  0
 21 20  1  0
 22 21  1  6
 22 23  1  0
 23 14  1  0
 24 22  1  0
 24 28  1  0
 25 24  2  0
 26 27  2  0
 26 20  1  0
 27 17  1  0
M  END
$$$$
