GRY.pdb
     RDKit          3D

 28 28  0  0  1  0  0  0  0  0999 V2000
   13.6203  -17.5689   19.5442 N   0  0  0  0  0  0  0  0  0  0  0  0
   12.6432  -18.0815   20.4366 C   0  0  0  0  0  0  0  0  0  0  0  0
   12.0444  -17.0373   21.3143 C   0  0  0  0  0  0  0  0  0  0  0  0
   12.8335  -16.2632   21.9767 O   0  0  0  0  0  0  0  0  0  0  0  0
    7.9021  -15.2407   17.4813 N   0  0  0  0  0  0  0  0  0  0  0  0
    7.8905  -13.8537   17.9302 C   0  0  0  0  0  0  0  0  0  0  0  0
    8.5153  -13.0570   17.2062 N   0  0  0  0  0  0  0  0  0  0  0  0
    7.1412  -13.5410   19.1092 N   0  0  0  0  0  0  0  0  0  0  0  0
    7.0744  -14.6087   20.1167 C   0  0  0  0  0  0  0  0  0  0  0  0
    8.4439  -14.7590   20.6918 C   0  0  0  0  0  0  0  0  0  0  0  0
    8.6539  -15.7348   21.7569 C   0  0  0  0  0  0  0  0  0  0  0  0
    9.9963  -15.9553   22.3534 C   0  0  2  0  0  0  0  0  0  0  0  0
   10.6471  -16.8978   21.4186 N   0  0  0  0  0  0  0  0  0  0  0  0
    9.8493  -16.6161   23.6855 C   0  0  0  0  0  0  0  0  0  0  0  0
    9.6123  -17.8707   23.7446 O   0  0  0  0  0  0  0  0  0  0  0  0
    8.6510  -12.0091   17.3195 O   0  0  0  0  0  0  0  0  0  0  0  0
    6.2363  -10.3552   26.7882 C   0  0  0  0  0  0  0  0  0  0  0  0
    6.5706  -11.6755   26.5144 C   0  0  0  0  0  0  0  0  0  0  0  0
    7.8902  -12.1167   26.6160 C   0  0  0  0  0  0  0  0  0  0  0  0
    8.2449  -13.4179   26.3598 C   0  0  0  0  0  0  0  0  0  0  0  0
    7.3321  -14.3587   25.9885 C   0  0  0  0  0  0  0  0  0  0  0  0
    7.6407  -15.7521   25.6603 C   0  0  2  0  0  0  0  0  0  0  0  0
    9.0800  -16.0982   26.0513 N   0  0  0  0  0  0  0  0  0  0  0  0
    9.9585  -15.9409   24.9174 C   0  0  0  0  0  0  0  0  0  0  0  0
    9.1064  -17.4353   26.6258 O   0  0  0  0  0  0  0  0  0  0  0  0
    9.2503  -18.5109   26.0106 C   0  0  0  0  0  0  0  0  0  0  0  0
    5.9941  -13.9431   25.8749 C   0  0  0  0  0  0  0  0  0  0  0  0
    5.6433  -12.6338   26.1331 O   0  0  0  0  0  0  0  0  0  0  0  0
  1  2  1  0
  3  2  1  0
  3  4  2  0
  5  6  1  0
  6  7  2  0
  8  6  1  0
  8  9  1  0
 10  9  1  0
 11 10  1  0
 12 13  1  0
 12 11  1  6
 13  3  1  0
 14 12  1  0
 15 14  2  0
 17 16  1  0
 17 18  2  0
 19 18  1  0
 20 19  2  0
 21 20  1  0
 22 21  1  1
 22 23  1  0
 23 14  1  0
 24 22  1  0
 24 28  1  0
 25 24  2  0
 26 27  2  0
 26 20  1  0
 27 17  1  0
M  END
$$$$
