GRY.pdb
     RDKit          3D

 28 28  0  0  1  0  0  0  0  0999 V2000
    5.7763  -20.7638   23.7517 N   0  0  0  0  0  0  0  0  0  0  0  0
    5.6209  -19.3533   23.7685 C   0  0  0  0  0  0  0  0  0  0  0  0
    6.8076  -18.6257   23.2379 C   0  0  0  0  0  0  0  0  0  0  0  0
    7.8966  -19.2857   23.0396 O   0  0  0  0  0  0  0  0  0  0  0  0
    9.3860  -12.3219   18.8043 N   0  0  0  0  0  0  0  0  0  0  0  0
    8.5350  -13.3562   18.2286 C   0  0  0  0  0  0  0  0  0  0  0  0
    8.9054  -13.7932   17.1236 N   0  0  0  0  0  0  0  0  0  0  0  0
    7.4056  -13.7919   18.9930 N   0  0  0  0  0  0  0  0  0  0  0  0
    7.3086  -13.2354   20.3496 C   0  0  0  0  0  0  0  0  0  0  0  0
    8.0219  -14.1754   21.2642 C   0  0  0  0  0  0  0  0  0  0  0  0
    7.2494  -15.2041   21.9539 C   0  0  0  0  0  0  0  0  0  0  0  0
    7.8690  -16.4856   22.3783 C   0  0  2  0  0  0  0  0  0  0  0  0
    6.7424  -17.2471   22.9584 N   0  0  0  0  0  0  0  0  0  0  0  0
    8.8792  -16.2227   23.4476 C   0  0  0  0  0  0  0  0  0  0  0  0
   10.0503  -15.8252   23.1252 O   0  0  0  0  0  0  0  0  0  0  0  0
    8.4726  -14.5544   16.5214 O   0  0  0  0  0  0  0  0  0  0  0  0
    5.0428  -11.8901   26.5774 C   0  0  0  0  0  0  0  0  0  0  0  0
    6.2157  -12.6331   26.5322 C   0  0  0  0  0  0  0  0  0  0  0  0
    6.1827  -14.0274   26.5658 C   0  0  0  0  0  0  0  0  0  0  0  0
    7.3267  -14.7845   26.5131 C   0  0  0  0  0  0  0  0  0  0  0  0
    8.5649  -14.2226   26.4273 C   0  0  0  0  0  0  0  0  0  0  0  0
    9.8288  -14.9619   26.4080 C   0  0  1  0  0  0  0  0  0  0  0  0
    9.6217  -16.3814   25.8726 N   0  0  0  0  0  0  0  0  0  0  0  0
    8.6292  -16.3816   24.8252 C   0  0  0  0  0  0  0  0  0  0  0  0
    9.2948  -17.2635   26.9832 O   0  0  0  0  0  0  0  0  0  0  0  0
    8.2428  -17.9166   27.1350 C   0  0  0  0  0  0  0  0  0  0  0  0
    8.6302  -12.8188   26.3944 C   0  0  0  0  0  0  0  0  0  0  0  0
    7.4771  -12.0628   26.4481 O   0  0  0  0  0  0  0  0  0  0  0  0
  1  2  1  0
  3  2  1  0
  3  4  2  0
  5  6  1  0
  6  7  2  0
  8  6  1  0
  8  9  1  0
 10  9  1  0
 11 10  1  0
 12 13  1  0
 12 11  1  1
 13  3  1  0
 14 12  1  0
 15 14  2  0
 17 16  1  0
 17 18  2  0
 19 18  1  0
 20 19  2  0
 21 20  1  0
 22 21  1  6
 22 23  1  0
 23 14  1  0
 24 22  1  0
 24 28  1  0
 25 24  2  0
 26 27  2  0
 26 20  1  0
 27 17  1  0
M  END
$$$$
