GRY.pdb
     RDKit          3D

 28 28  0  0  1  0  0  0  0  0999 V2000
    7.1901  -20.6988   22.0485 N   0  0  0  0  0  0  0  0  0  0  0  0
    6.5722  -19.4342   22.2302 C   0  0  0  0  0  0  0  0  0  0  0  0
    7.4889  -18.2897   21.9673 C   0  0  0  0  0  0  0  0  0  0  0  0
    8.7528  -18.5226   21.8720 O   0  0  0  0  0  0  0  0  0  0  0  0
    8.1710  -12.7916   16.4436 N   0  0  0  0  0  0  0  0  0  0  0  0
    8.4282  -14.0970   17.0393 C   0  0  0  0  0  0  0  0  0  0  0  0
    8.7834  -14.9834   16.2409 N   0  0  0  0  0  0  0  0  0  0  0  0
    8.2942  -14.2197   18.4594 N   0  0  0  0  0  0  0  0  0  0  0  0
    7.3918  -13.2493   19.0947 C   0  0  0  0  0  0  0  0  0  0  0  0
    7.4380  -13.5011   20.5655 C   0  0  0  0  0  0  0  0  0  0  0  0
    6.9373  -14.7741   21.0750 C   0  0  0  0  0  0  0  0  0  0  0  0
    7.8538  -15.7992   21.6368 C   0  0  2  0  0  0  0  0  0  0  0  0
    6.9869  -16.9818   21.8256 N   0  0  0  0  0  0  0  0  0  0  0  0
    8.3539  -15.3459   22.9700 C   0  0  0  0  0  0  0  0  0  0  0  0
    7.5927  -14.6522   23.7269 O   0  0  0  0  0  0  0  0  0  0  0  0
    9.0415  -15.9966   16.4314 O   0  0  0  0  0  0  0  0  0  0  0  0
   10.9744  -14.5716   31.0531 C   0  0  0  0  0  0  0  0  0  0  0  0
   10.5397  -14.9218   29.7810 C   0  0  0  0  0  0  0  0  0  0  0  0
   10.6998  -16.2221   29.3015 C   0  0  0  0  0  0  0  0  0  0  0  0
   10.2707  -16.5956   28.0521 C   0  0  0  0  0  0  0  0  0  0  0  0
    9.6644  -15.7205   27.2019 C   0  0  0  0  0  0  0  0  0  0  0  0
    9.2179  -16.0347   25.8430 C   0  0  2  0  0  0  0  0  0  0  0  0
   10.1126  -15.3530   24.8042 N   0  0  0  0  0  0  0  0  0  0  0  0
    9.6383  -15.6369   23.4714 C   0  0  0  0  0  0  0  0  0  0  0  0
   11.4925  -15.7582   25.0285 O   0  0  0  0  0  0  0  0  0  0  0  0
   12.3704  -15.1168   25.6399 C   0  0  0  0  0  0  0  0  0  0  0  0
    9.4916  -14.4017   27.6564 C   0  0  0  0  0  0  0  0  0  0  0  0
    9.9252  -14.0315   28.9129 O   0  0  0  0  0  0  0  0  0  0  0  0
  1  2  1  0
  3  2  1  0
  3  4  2  0
  5  6  1  0
  6  7  2  0
  8  6  1  0
  8  9  1  0
 10  9  1  0
 11 10  1  0
 12 13  1  0
 12 11  1  1
 13  3  1  0
 14 12  1  0
 15 14  2  0
 17 16  1  0
 17 18  2  0
 19 18  1  0
 20 19  2  0
 21 20  1  0
 22 21  1  1
 22 23  1  0
 23 14  1  0
 24 22  1  0
 24 28  1  0
 25 24  2  0
 26 27  2  0
 26 20  1  0
 27 17  1  0
M  END
$$$$
