GRY.pdb
     RDKit          3D

 28 28  0  0  1  0  0  0  0  0999 V2000
    7.1036  -20.8397   22.3103 N   0  0  0  0  0  0  0  0  0  0  0  0
    6.6624  -19.5685   22.7611 C   0  0  0  0  0  0  0  0  0  0  0  0
    7.6752  -18.4932   22.5678 C   0  0  0  0  0  0  0  0  0  0  0  0
    8.8490  -18.8211   22.1488 O   0  0  0  0  0  0  0  0  0  0  0  0
    9.0149  -13.9925   17.8617 N   0  0  0  0  0  0  0  0  0  0  0  0
    8.4037  -13.0570   18.7979 C   0  0  0  0  0  0  0  0  0  0  0  0
    8.2910  -11.8889   18.3828 N   0  0  0  0  0  0  0  0  0  0  0  0
    7.9608  -13.5697   20.0591 N   0  0  0  0  0  0  0  0  0  0  0  0
    6.8710  -14.5534   19.9933 C   0  0  0  0  0  0  0  0  0  0  0  0
    6.4611  -14.8523   21.3974 C   0  0  0  0  0  0  0  0  0  0  0  0
    7.4820  -14.8525   22.4408 C   0  0  0  0  0  0  0  0  0  0  0  0
    8.3318  -16.0441   22.6943 C   0  0  2  0  0  0  0  0  0  0  0  0
    7.3585  -17.1478   22.8365 N   0  0  0  0  0  0  0  0  0  0  0  0
    9.0624  -15.8715   23.9864 C   0  0  0  0  0  0  0  0  0  0  0  0
   10.0838  -15.1048   24.0361 O   0  0  0  0  0  0  0  0  0  0  0  0
    7.9699  -11.0185   18.9011 O   0  0  0  0  0  0  0  0  0  0  0  0
    6.2876  -10.8032   26.3031 C   0  0  0  0  0  0  0  0  0  0  0  0
    6.8199  -12.0504   26.6044 C   0  0  0  0  0  0  0  0  0  0  0  0
    6.0202  -13.1935   26.5907 C   0  0  0  0  0  0  0  0  0  0  0  0
    6.5239  -14.4383   26.8756 C   0  0  0  0  0  0  0  0  0  0  0  0
    7.8345  -14.6353   27.1917 C   0  0  0  0  0  0  0  0  0  0  0  0
    8.4337  -15.9238   27.5459 C   0  0  2  0  0  0  0  0  0  0  0  0
    9.3918  -16.3988   26.4502 N   0  0  0  0  0  0  0  0  0  0  0  0
    8.6974  -16.5067   25.1900 C   0  0  0  0  0  0  0  0  0  0  0  0
   10.0197  -17.6411   26.8759 O   0  0  0  0  0  0  0  0  0  0  0  0
    9.9531  -18.7473   26.3034 C   0  0  0  0  0  0  0  0  0  0  0  0
    8.6648  -13.5014   27.2163 C   0  0  0  0  0  0  0  0  0  0  0  0
    8.1530  -12.2524   26.9296 O   0  0  0  0  0  0  0  0  0  0  0  0
  1  2  1  0
  3  2  1  0
  3  4  2  0
  5  6  1  0
  6  7  2  0
  8  6  1  0
  8  9  1  0
 10  9  1  0
 11 10  1  0
 12 13  1  0
 12 11  1  1
 13  3  1  0
 14 12  1  0
 15 14  2  0
 17 16  1  0
 17 18  2  0
 19 18  1  0
 20 19  2  0
 21 20  1  0
 22 21  1  6
 22 23  1  0
 23 14  1  0
 24 22  1  0
 24 28  1  0
 25 24  2  0
 26 27  2  0
 26 20  1  0
 27 17  1  0
M  END
$$$$
