GRY.pdb
     RDKit          3D

 28 28  0  0  1  0  0  0  0  0999 V2000
    7.4176  -19.9243   20.6115 N   0  0  0  0  0  0  0  0  0  0  0  0
    6.8517  -18.7922   21.2534 C   0  0  0  0  0  0  0  0  0  0  0  0
    7.7448  -17.5999   21.2356 C   0  0  0  0  0  0  0  0  0  0  0  0
    8.9434  -17.7352   20.7821 O   0  0  0  0  0  0  0  0  0  0  0  0
    9.4179  -14.1356   16.5894 N   0  0  0  0  0  0  0  0  0  0  0  0
    7.9968  -13.8738   16.3967 C   0  0  0  0  0  0  0  0  0  0  0  0
    7.6334  -13.7668   15.2111 N   0  0  0  0  0  0  0  0  0  0  0  0
    7.1667  -13.8111   17.5614 N   0  0  0  0  0  0  0  0  0  0  0  0
    7.8706  -13.9322   18.8458 C   0  0  0  0  0  0  0  0  0  0  0  0
    6.8318  -13.9531   19.9179 C   0  0  0  0  0  0  0  0  0  0  0  0
    7.2621  -14.0534   21.3092 C   0  0  0  0  0  0  0  0  0  0  0  0
    8.1506  -15.1513   21.7691 C   0  0  2  0  0  0  0  0  0  0  0  0
    7.2905  -16.3520   21.7036 N   0  0  0  0  0  0  0  0  0  0  0  0
    8.5449  -14.9133   23.1907 C   0  0  0  0  0  0  0  0  0  0  0  0
    7.6454  -14.8829   24.0982 O   0  0  0  0  0  0  0  0  0  0  0  0
    6.6717  -13.5400   14.8198 O   0  0  0  0  0  0  0  0  0  0  0  0
   11.0381  -15.3372   31.3316 C   0  0  0  0  0  0  0  0  0  0  0  0
   10.5955  -15.2614   30.0170 C   0  0  0  0  0  0  0  0  0  0  0  0
   10.4501  -14.0290   29.3795 C   0  0  0  0  0  0  0  0  0  0  0  0
   10.0235  -13.9278   28.0786 C   0  0  0  0  0  0  0  0  0  0  0  0
    9.7132  -15.0229   27.3299 C   0  0  0  0  0  0  0  0  0  0  0  0
    9.2143  -14.9916   25.9534 C   0  0  2  0  0  0  0  0  0  0  0  0
   10.3736  -14.9316   24.9549 N   0  0  0  0  0  0  0  0  0  0  0  0
    9.8730  -14.7171   23.6188 C   0  0  0  0  0  0  0  0  0  0  0  0
   11.1762  -16.1386   25.0879 O   0  0  0  0  0  0  0  0  0  0  0  0
   12.3027  -16.2333   25.6153 C   0  0  0  0  0  0  0  0  0  0  0  0
    9.8472  -16.2791   27.9464 C   0  0  0  0  0  0  0  0  0  0  0  0
   10.2760  -16.3750   29.2544 O   0  0  0  0  0  0  0  0  0  0  0  0
  1  2  1  0
  3  2  1  0
  3  4  2  0
  5  6  1  0
  6  7  2  0
  8  6  1  0
  8  9  1  0
 10  9  1  0
 11 10  1  0
 12 13  1  0
 12 11  1  1
 13  3  1  0
 14 12  1  0
 15 14  2  0
 17 16  1  0
 17 18  2  0
 19 18  1  0
 20 19  2  0
 21 20  1  0
 22 21  1  1
 22 23  1  0
 23 14  1  0
 24 22  1  0
 24 28  1  0
 25 24  2  0
 26 27  2  0
 26 20  1  0
 27 17  1  0
M  END
$$$$
