GRY.pdb
     RDKit          3D

 28 28  0  0  1  0  0  0  0  0999 V2000
    9.0671  -20.8460   20.5069 N   0  0  0  0  0  0  0  0  0  0  0  0
    8.2088  -20.1168   21.3704 C   0  0  0  0  0  0  0  0  0  0  0  0
    8.6419  -18.7061   21.5743 C   0  0  0  0  0  0  0  0  0  0  0  0
    9.9037  -18.4447   21.5833 O   0  0  0  0  0  0  0  0  0  0  0  0
    8.5340  -13.9533   17.6715 N   0  0  0  0  0  0  0  0  0  0  0  0
    8.1754  -13.1014   18.7988 C   0  0  0  0  0  0  0  0  0  0  0  0
    8.6198  -11.9398   18.7479 N   0  0  0  0  0  0  0  0  0  0  0  0
    7.3286  -13.6565   19.8109 N   0  0  0  0  0  0  0  0  0  0  0  0
    7.6841  -13.3069   21.1933 C   0  0  0  0  0  0  0  0  0  0  0  0
    6.7803  -14.0848   22.0915 C   0  0  0  0  0  0  0  0  0  0  0  0
    6.7978  -15.5423   22.0121 C   0  0  0  0  0  0  0  0  0  0  0  0
    8.0550  -16.3137   22.1882 C   0  0  2  0  0  0  0  0  0  0  0  0
    7.6945  -17.6798   21.7531 N   0  0  0  0  0  0  0  0  0  0  0  0
    8.4229  -16.3464   23.6362 C   0  0  0  0  0  0  0  0  0  0  0  0
    7.6820  -16.9821   24.4611 O   0  0  0  0  0  0  0  0  0  0  0  0
    8.5460  -11.1590   19.4650 O   0  0  0  0  0  0  0  0  0  0  0  0
    6.3248  -10.6421   26.4199 C   0  0  0  0  0  0  0  0  0  0  0  0
    6.9325  -11.8913   26.4328 C   0  0  0  0  0  0  0  0  0  0  0  0
    6.1730  -13.0569   26.5368 C   0  0  0  0  0  0  0  0  0  0  0  0
    6.7486  -14.3032   26.5424 C   0  0  0  0  0  0  0  0  0  0  0  0
    8.0963  -14.4799   26.4493 C   0  0  0  0  0  0  0  0  0  0  0  0
    8.7837  -15.7724   26.4895 C   0  0  2  0  0  0  0  0  0  0  0  0
    9.9933  -15.7757   25.5507 N   0  0  0  0  0  0  0  0  0  0  0  0
    9.5601  -15.7131   24.1757 C   0  0  0  0  0  0  0  0  0  0  0  0
   10.8199  -16.9365   25.8472 O   0  0  0  0  0  0  0  0  0  0  0  0
   11.1479  -17.8430   25.0556 C   0  0  0  0  0  0  0  0  0  0  0  0
    8.8883  -13.3233   26.3461 C   0  0  0  0  0  0  0  0  0  0  0  0
    8.3045  -12.0730   26.3414 O   0  0  0  0  0  0  0  0  0  0  0  0
  1  2  1  0
  3  2  1  0
  3  4  2  0
  5  6  1  0
  6  7  2  0
  8  6  1  0
  8  9  1  0
 10  9  1  0
 11 10  1  0
 12 13  1  0
 12 11  1  1
 13  3  1  0
 14 12  1  0
 15 14  2  0
 17 16  1  0
 17 18  2  0
 19 18  1  0
 20 19  2  0
 21 20  1  0
 22 21  1  1
 22 23  1  0
 23 14  1  0
 24 22  1  0
 24 28  1  0
 25 24  2  0
 26 27  2  0
 26 20  1  0
 27 17  1  0
M  END
$$$$
