PWP.pdb
     RDKit          3D

 29 32  0  0  1  0  0  0  0  0999 V2000
   21.2239  -20.2934  -12.7523 N   0  0  0  0  0  0  0  0  0  0  0  0
   20.8906  -20.9061  -14.0286 C   0  0  0  0  0  0  0  0  0  0  0  0
   21.0394  -22.3995  -13.8067 C   0  0  0  0  0  0  0  0  0  0  0  0
   22.2620  -22.4392  -12.9040 C   0  0  0  0  0  0  0  0  0  0  0  0
   22.0330  -21.2565  -12.0227 C   0  0  1  0  0  0  0  0  0  0  0  0
   23.2537  -20.5827  -11.5619 C   0  0  0  0  0  0  0  0  0  0  0  0
   23.6848  -19.5373  -12.1448 O   0  0  0  0  0  0  0  0  0  0  0  0
   23.9918  -21.0797  -10.4495 N   0  0  0  0  0  0  0  0  0  0  0  0
   25.2851  -20.5090  -10.0808 C   0  0  1  0  0  0  0  0  0  0  0  0
   25.4821  -20.7048   -8.6146 C   0  0  0  0  0  0  0  0  0  0  0  0
   26.4383  -19.7832   -7.9749 C   0  0  0  0  0  0  0  0  0  0  0  0
   26.7464  -18.4774   -8.2419 C   0  0  0  0  0  0  0  0  0  0  0  0
   27.7096  -18.0940   -7.3591 N   0  0  0  0  0  0  0  0  0  0  0  0
   28.0202  -19.0970   -6.5513 C   0  0  0  0  0  0  0  0  0  0  0  0
   28.9329  -19.2115   -5.4967 C   0  0  0  0  0  0  0  0  0  0  0  0
   29.0122  -20.4192   -4.8517 C   0  0  0  0  0  0  0  0  0  0  0  0
   28.2449  -21.5142   -5.1877 C   0  0  0  0  0  0  0  0  0  0  0  0
   27.3476  -21.3850   -6.2323 C   0  0  0  0  0  0  0  0  0  0  0  0
   27.2516  -20.1715   -6.8988 C   0  0  0  0  0  0  0  0  0  0  0  0
   26.3815  -21.2740  -10.7576 C   0  0  0  0  0  0  0  0  0  0  0  0
   26.3296  -22.5255  -10.6989 O   0  0  0  0  0  0  0  0  0  0  0  0
   27.4400  -20.6187  -11.4423 N   0  0  0  0  0  0  0  0  0  0  0  0
   27.7913  -19.2221  -11.4694 C   0  0  0  0  0  0  0  0  0  0  0  0
   28.1329  -19.0043  -12.9324 C   0  0  0  0  0  0  0  0  0  0  0  0
   28.5207  -20.3607  -13.4651 C   0  0  0  0  0  0  0  0  0  0  0  0
   28.3912  -21.2904  -12.2840 C   0  0  1  0  0  0  0  0  0  0  0  0
   29.6906  -21.3639  -11.5903 C   0  0  0  0  0  0  0  0  0  0  0  0
   30.7540  -22.1347  -12.0818 O   0  0  0  0  0  0  0  0  0  0  0  0
   29.9108  -20.7454  -10.5330 O   0  0  0  0  0  0  0  0  0  0  0  0
  1  2  1  0
  1  5  1  0
  2  3  1  0
  3  4  1  0
  5  4  1  0
  5  6  1  6
  6  7  2  0
  8  6  1  0
  9  8  1  0
  9 10  1  1
 11 19  1  0
 11 10  1  0
 12 11  2  0
 13 12  1  0
 13 14  1  0
 14 15  1  0
 14 19  2  0
 15 16  2  0
 16 17  1  0
 18 17  2  0
 19 18  1  0
 20  9  1  0
 21 20  2  0
 22 20  1  0
 22 26  1  0
 23 22  1  0
 24 25  1  0
 24 23  1  0
 25 26  1  0
 26 27  1  1
 27 29  2  0
 27 28  1  0
M  END
$$$$
