PWP.pdb
     RDKit          3D

 29 32  0  0  1  0  0  0  0  0999 V2000
   22.3474  -21.6044  -11.9791 N   0  0  0  0  0  0  0  0  0  0  0  0
   20.9367  -21.4223  -11.6754 C   0  0  0  0  0  0  0  0  0  0  0  0
   20.4595  -20.3392  -12.6245 C   0  0  0  0  0  0  0  0  0  0  0  0
   21.6646  -19.4124  -12.6380 C   0  0  0  0  0  0  0  0  0  0  0  0
   22.7992  -20.3820  -12.6242 C   0  0  1  0  0  0  0  0  0  0  0  0
   24.0066  -19.9116  -11.9334 C   0  0  0  0  0  0  0  0  0  0  0  0
   24.6069  -18.8548  -12.3095 O   0  0  0  0  0  0  0  0  0  0  0  0
   24.5423  -20.6246  -10.8225 N   0  0  0  0  0  0  0  0  0  0  0  0
   25.8119  -20.2369  -10.2127 C   0  0  1  0  0  0  0  0  0  0  0  0
   25.6653  -20.3251   -8.7302 C   0  0  0  0  0  0  0  0  0  0  0  0
   26.6228  -19.5209   -7.9497 C   0  0  0  0  0  0  0  0  0  0  0  0
   27.0027  -18.2117   -8.0641 C   0  0  0  0  0  0  0  0  0  0  0  0
   27.9297  -17.9672   -7.0972 N   0  0  0  0  0  0  0  0  0  0  0  0
   28.1492  -19.0604   -6.3819 C   0  0  0  0  0  0  0  0  0  0  0  0
   28.9942  -19.3253   -5.2983 C   0  0  0  0  0  0  0  0  0  0  0  0
   28.9834  -20.5942   -4.7780 C   0  0  0  0  0  0  0  0  0  0  0  0
   28.1893  -21.6106   -5.2649 C   0  0  0  0  0  0  0  0  0  0  0  0
   27.3598  -21.3327   -6.3362 C   0  0  0  0  0  0  0  0  0  0  0  0
   27.3554  -20.0551   -6.8782 C   0  0  0  0  0  0  0  0  0  0  0  0
   26.8716  -21.2272  -10.5894 C   0  0  0  0  0  0  0  0  0  0  0  0
   26.5634  -22.4420  -10.5481 O   0  0  0  0  0  0  0  0  0  0  0  0
   28.1747  -20.8177  -10.9807 N   0  0  0  0  0  0  0  0  0  0  0  0
   28.7648  -19.5038  -10.9768 C   0  0  0  0  0  0  0  0  0  0  0  0
   29.5195  -19.4858  -12.2940 C   0  0  0  0  0  0  0  0  0  0  0  0
   29.7861  -20.9317  -12.6289 C   0  0  0  0  0  0  0  0  0  0  0  0
   29.1802  -21.7102  -11.4873 C   0  0  1  0  0  0  0  0  0  0  0  0
   30.2111  -21.9213  -10.4540 C   0  0  0  0  0  0  0  0  0  0  0  0
   31.1807  -22.9282  -10.5650 O   0  0  0  0  0  0  0  0  0  0  0  0
   30.2740  -21.2166   -9.4301 O   0  0  0  0  0  0  0  0  0  0  0  0
  1  2  1  0
  1  5  1  0
  2  3  1  0
  3  4  1  0
  5  4  1  0
  5  6  1  1
  6  7  2  0
  8  6  1  0
  9  8  1  0
  9 10  1  1
 11 19  1  0
 11 10  1  0
 12 11  2  0
 13 12  1  0
 13 14  1  0
 14 15  1  0
 14 19  2  0
 15 16  2  0
 16 17  1  0
 18 17  2  0
 19 18  1  0
 20  9  1  0
 21 20  2  0
 22 20  1  0
 22 26  1  0
 23 22  1  0
 24 25  1  0
 24 23  1  0
 25 26  1  0
 26 27  1  1
 27 29  2  0
 27 28  1  0
M  END
$$$$
