PWP.pdb
     RDKit          3D

 29 32  0  0  1  0  0  0  0  0999 V2000
   28.1803  -18.0182  -16.0691 N   0  0  0  0  0  0  0  0  0  0  0  0
   29.5613  -18.0181  -16.5253 C   0  0  0  0  0  0  0  0  0  0  0  0
   29.4886  -17.7781  -18.0215 C   0  0  0  0  0  0  0  0  0  0  0  0
   28.2562  -18.5899  -18.3869 C   0  0  0  0  0  0  0  0  0  0  0  0
   27.3553  -18.3214  -17.2276 C   0  0  1  0  0  0  0  0  0  0  0  0
   26.4516  -19.4247  -16.8779 C   0  0  0  0  0  0  0  0  0  0  0  0
   25.6043  -19.8686  -17.7167 O   0  0  0  0  0  0  0  0  0  0  0  0
   26.4958  -20.0302  -15.5892 N   0  0  0  0  0  0  0  0  0  0  0  0
   25.5229  -21.0458  -15.1940 C   0  0  1  0  0  0  0  0  0  0  0  0
   26.1363  -21.8924  -14.1291 C   0  0  0  0  0  0  0  0  0  0  0  0
   26.7764  -21.1561  -13.0243 C   0  0  0  0  0  0  0  0  0  0  0  0
   28.0177  -20.5908  -12.9189 C   0  0  0  0  0  0  0  0  0  0  0  0
   28.1131  -20.0381  -11.6782 N   0  0  0  0  0  0  0  0  0  0  0  0
   26.9911  -20.2297  -11.0005 C   0  0  0  0  0  0  0  0  0  0  0  0
   26.5949  -19.8655   -9.7087 C   0  0  0  0  0  0  0  0  0  0  0  0
   25.3364  -20.2291   -9.3026 C   0  0  0  0  0  0  0  0  0  0  0  0
   24.4520  -20.9283  -10.0961 C   0  0  0  0  0  0  0  0  0  0  0  0
   24.8587  -21.2809  -11.3703 C   0  0  0  0  0  0  0  0  0  0  0  0
   26.1285  -20.9231  -11.8011 C   0  0  0  0  0  0  0  0  0  0  0  0
   24.3325  -20.3833  -14.5700 C   0  0  0  0  0  0  0  0  0  0  0  0
   24.5088  -19.2549  -14.0522 O   0  0  0  0  0  0  0  0  0  0  0  0
   23.0516  -20.9982  -14.5614 N   0  0  0  0  0  0  0  0  0  0  0  0
   22.6497  -22.2911  -15.0528 C   0  0  0  0  0  0  0  0  0  0  0  0
   21.3216  -21.9832  -15.7205 C   0  0  0  0  0  0  0  0  0  0  0  0
   20.8130  -20.7297  -15.0541 C   0  0  0  0  0  0  0  0  0  0  0  0
   21.8668  -20.3815  -14.0321 C   0  0  1  0  0  0  0  0  0  0  0  0
   21.5159  -21.0191  -12.7493 C   0  0  0  0  0  0  0  0  0  0  0  0
   21.8273  -22.3585  -12.4743 O   0  0  0  0  0  0  0  0  0  0  0  0
   20.9257  -20.4014  -11.8444 O   0  0  0  0  0  0  0  0  0  0  0  0
  1  2  1  0
  1  5  1  0
  2  3  1  0
  3  4  1  0
  5  4  1  0
  5  6  1  1
  6  7  2  0
  8  6  1  0
  9  8  1  0
  9 10  1  1
 11 19  1  0
 11 10  1  0
 12 11  2  0
 13 12  1  0
 13 14  1  0
 14 15  1  0
 14 19  2  0
 15 16  2  0
 16 17  1  0
 18 17  2  0
 19 18  1  0
 20  9  1  0
 21 20  2  0
 22 20  1  0
 22 26  1  0
 23 22  1  0
 24 25  1  0
 24 23  1  0
 25 26  1  0
 26 27  1  1
 27 29  2  0
 27 28  1  0
M  END
$$$$
