PWP.pdb
     RDKit          3D

 29 32  0  0  1  0  0  0  0  0999 V2000
   27.0887  -16.4146  -16.8517 N   0  0  0  0  0  0  0  0  0  0  0  0
   28.2582  -15.5585  -16.9729 C   0  0  0  0  0  0  0  0  0  0  0  0
   29.0604  -16.1370  -18.1233 C   0  0  0  0  0  0  0  0  0  0  0  0
   28.8620  -17.6271  -17.8961 C   0  0  0  0  0  0  0  0  0  0  0  0
   27.4335  -17.6860  -17.4676 C   0  0  1  0  0  0  0  0  0  0  0  0
   27.1155  -18.7620  -16.5203 C   0  0  0  0  0  0  0  0  0  0  0  0
   27.3074  -19.9820  -16.8259 O   0  0  0  0  0  0  0  0  0  0  0  0
   26.5822  -18.4723  -15.2315 N   0  0  0  0  0  0  0  0  0  0  0  0
   26.2772  -19.5374  -14.2793 C   0  0  1  0  0  0  0  0  0  0  0  0
   26.9497  -19.2162  -12.9864 C   0  0  0  0  0  0  0  0  0  0  0  0
   27.0340  -20.3280  -12.0225 C   0  0  0  0  0  0  0  0  0  0  0  0
   27.5877  -21.5742  -12.1313 C   0  0  0  0  0  0  0  0  0  0  0  0
   27.3835  -22.2189  -10.9495 N   0  0  0  0  0  0  0  0  0  0  0  0
   26.7284  -21.4366  -10.1047 C   0  0  0  0  0  0  0  0  0  0  0  0
   26.2840  -21.6286   -8.7917 C   0  0  0  0  0  0  0  0  0  0  0  0
   25.6180  -20.5932   -8.1872 C   0  0  0  0  0  0  0  0  0  0  0  0
   25.3675  -19.3855   -8.8032 C   0  0  0  0  0  0  0  0  0  0  0  0
   25.8132  -19.2114  -10.1010 C   0  0  0  0  0  0  0  0  0  0  0  0
   26.4891  -20.2466  -10.7314 C   0  0  0  0  0  0  0  0  0  0  0  0
   24.8059  -19.5497  -13.9957 C   0  0  0  0  0  0  0  0  0  0  0  0
   24.2233  -18.4409  -13.9353 O   0  0  0  0  0  0  0  0  0  0  0  0
   24.0900  -20.7618  -13.8033 N   0  0  0  0  0  0  0  0  0  0  0  0
   24.5829  -22.1082  -13.6656 C   0  0  0  0  0  0  0  0  0  0  0  0
   23.5950  -22.9000  -14.5032 C   0  0  0  0  0  0  0  0  0  0  0  0
   22.3371  -22.0693  -14.5408 C   0  0  0  0  0  0  0  0  0  0  0  0
   22.6582  -20.8457  -13.7186 C   0  0  1  0  0  0  0  0  0  0  0  0
   22.2657  -21.0951  -12.3191 C   0  0  0  0  0  0  0  0  0  0  0  0
   20.9529  -20.8963  -11.8677 O   0  0  0  0  0  0  0  0  0  0  0  0
   23.0790  -21.4950  -11.4662 O   0  0  0  0  0  0  0  0  0  0  0  0
  1  2  1  0
  1  5  1  0
  2  3  1  0
  3  4  1  0
  5  4  1  0
  5  6  1  1
  6  7  2  0
  8  6  1  0
  9  8  1  0
  9 10  1  1
 11 19  1  0
 11 10  1  0
 12 11  2  0
 13 12  1  0
 13 14  1  0
 14 15  1  0
 14 19  2  0
 15 16  2  0
 16 17  1  0
 18 17  2  0
 19 18  1  0
 20  9  1  0
 21 20  2  0
 22 20  1  0
 22 26  1  0
 23 22  1  0
 24 25  1  0
 24 23  1  0
 25 26  1  0
 26 27  1  1
 27 29  2  0
 27 28  1  0
M  END
$$$$
