PWP.pdb
     RDKit          3D

 29 32  0  0  1  0  0  0  0  0999 V2000
   27.8352  -23.0213  -17.3815 N   0  0  0  0  0  0  0  0  0  0  0  0
   27.8489  -22.9058  -18.8313 C   0  0  0  0  0  0  0  0  0  0  0  0
   29.2380  -22.4052  -19.1799 C   0  0  0  0  0  0  0  0  0  0  0  0
   29.4904  -21.4304  -18.0408 C   0  0  0  0  0  0  0  0  0  0  0  0
   28.8850  -22.1485  -16.8808 C   0  0  1  0  0  0  0  0  0  0  0  0
   28.3113  -21.2789  -15.8459 C   0  0  0  0  0  0  0  0  0  0  0  0
   29.0112  -20.3749  -15.2879 O   0  0  0  0  0  0  0  0  0  0  0  0
   26.9547  -21.4220  -15.4353 N   0  0  0  0  0  0  0  0  0  0  0  0
   26.3643  -20.5286  -14.4417 C   0  0  1  0  0  0  0  0  0  0  0  0
   25.3063  -19.7170  -15.1118 C   0  0  0  0  0  0  0  0  0  0  0  0
   25.7735  -18.8448  -16.2043 C   0  0  0  0  0  0  0  0  0  0  0  0
   25.8305  -19.0467  -17.5561 C   0  0  0  0  0  0  0  0  0  0  0  0
   26.3569  -17.9233  -18.1172 N   0  0  0  0  0  0  0  0  0  0  0  0
   26.6326  -17.0265  -17.1820 C   0  0  0  0  0  0  0  0  0  0  0  0
   27.1775  -15.7388  -17.2406 C   0  0  0  0  0  0  0  0  0  0  0  0
   27.3385  -15.0614  -16.0591 C   0  0  0  0  0  0  0  0  0  0  0  0
   26.9934  -15.5811  -14.8296 C   0  0  0  0  0  0  0  0  0  0  0  0
   26.4561  -16.8550  -14.7886 C   0  0  0  0  0  0  0  0  0  0  0  0
   26.2850  -17.5583  -15.9727 C   0  0  0  0  0  0  0  0  0  0  0  0
   25.6690  -21.3386  -13.3900 C   0  0  0  0  0  0  0  0  0  0  0  0
   25.3748  -22.5230  -13.6783 O   0  0  0  0  0  0  0  0  0  0  0  0
   25.3531  -20.7977  -12.1147 N   0  0  0  0  0  0  0  0  0  0  0  0
   25.5901  -19.4764  -11.5926 C   0  0  0  0  0  0  0  0  0  0  0  0
   26.0478  -19.7677  -10.1748 C   0  0  0  0  0  0  0  0  0  0  0  0
   25.4742  -21.1196   -9.8326 C   0  0  0  0  0  0  0  0  0  0  0  0
   24.7094  -21.5371  -11.0643 C   0  0  1  0  0  0  0  0  0  0  0  0
   23.3119  -21.0843  -10.9342 C   0  0  0  0  0  0  0  0  0  0  0  0
   22.8036  -20.0138  -11.6839 O   0  0  0  0  0  0  0  0  0  0  0  0
   22.5112  -21.6290  -10.1524 O   0  0  0  0  0  0  0  0  0  0  0  0
  1  2  1  0
  1  5  1  0
  2  3  1  0
  3  4  1  0
  5  4  1  0
  5  6  1  1
  6  7  2  0
  8  6  1  0
  9  8  1  0
  9 10  1  6
 11 19  1  0
 11 10  1  0
 12 11  2  0
 13 12  1  0
 13 14  1  0
 14 15  1  0
 14 19  2  0
 15 16  2  0
 16 17  1  0
 18 17  2  0
 19 18  1  0
 20  9  1  0
 21 20  2  0
 22 20  1  0
 22 26  1  0
 23 22  1  0
 24 25  1  0
 24 23  1  0
 25 26  1  0
 26 27  1  1
 27 29  2  0
 27 28  1  0
M  END
$$$$
