PWP.pdb
     RDKit          3D

 29 32  0  0  1  0  0  0  0  0999 V2000
   27.7196  -17.9834  -17.3616 N   0  0  0  0  0  0  0  0  0  0  0  0
   28.6340  -16.8549  -17.4370 C   0  0  0  0  0  0  0  0  0  0  0  0
   29.9615  -17.4439  -17.8756 C   0  0  0  0  0  0  0  0  0  0  0  0
   29.9654  -18.7563  -17.1081 C   0  0  0  0  0  0  0  0  0  0  0  0
   28.5368  -19.1765  -17.2089 C   0  0  1  0  0  0  0  0  0  0  0  0
   28.0338  -19.9396  -16.0596 C   0  0  0  0  0  0  0  0  0  0  0  0
   28.6115  -21.0070  -15.6783 O   0  0  0  0  0  0  0  0  0  0  0  0
   26.8839  -19.5082  -15.3378 N   0  0  0  0  0  0  0  0  0  0  0  0
   26.4149  -20.2285  -14.1566 C   0  0  1  0  0  0  0  0  0  0  0  0
   26.7709  -19.4283  -12.9483 C   0  0  0  0  0  0  0  0  0  0  0  0
   26.2357  -19.9353  -11.6720 C   0  0  0  0  0  0  0  0  0  0  0  0
   24.9504  -20.0606  -11.2208 C   0  0  0  0  0  0  0  0  0  0  0  0
   25.0056  -20.5774   -9.9622 N   0  0  0  0  0  0  0  0  0  0  0  0
   26.2641  -20.7822   -9.6026 C   0  0  0  0  0  0  0  0  0  0  0  0
   26.8409  -21.2848   -8.4309 C   0  0  0  0  0  0  0  0  0  0  0  0
   28.2089  -21.3665   -8.3792 C   0  0  0  0  0  0  0  0  0  0  0  0
   29.0348  -20.9820   -9.4139 C   0  0  0  0  0  0  0  0  0  0  0  0
   28.4493  -20.4873  -10.5652 C   0  0  0  0  0  0  0  0  0  0  0  0
   27.0665  -20.3958  -10.6384 C   0  0  0  0  0  0  0  0  0  0  0  0
   24.9188  -20.3097  -14.1805 C   0  0  0  0  0  0  0  0  0  0  0  0
   24.2918  -19.2681  -14.4879 O   0  0  0  0  0  0  0  0  0  0  0  0
   24.2287  -21.5126  -13.8713 N   0  0  0  0  0  0  0  0  0  0  0  0
   24.6660  -22.6524  -13.1070 C   0  0  0  0  0  0  0  0  0  0  0  0
   24.1391  -23.8138  -13.9305 C   0  0  0  0  0  0  0  0  0  0  0  0
   22.9815  -23.2585  -14.7214 C   0  0  0  0  0  0  0  0  0  0  0  0
   22.8932  -21.8095  -14.3104 C   0  0  1  0  0  0  0  0  0  0  0  0
   21.9668  -21.6933  -13.1688 C   0  0  0  0  0  0  0  0  0  0  0  0
   20.5751  -21.7524  -13.3308 O   0  0  0  0  0  0  0  0  0  0  0  0
   22.3721  -21.5369  -12.0026 O   0  0  0  0  0  0  0  0  0  0  0  0
  1  2  1  0
  1  5  1  0
  2  3  1  0
  3  4  1  0
  5  4  1  0
  5  6  1  1
  6  7  2  0
  8  6  1  0
  9  8  1  0
  9 10  1  1
 11 19  1  0
 11 10  1  0
 12 11  2  0
 13 12  1  0
 13 14  1  0
 14 15  1  0
 14 19  2  0
 15 16  2  0
 16 17  1  0
 18 17  2  0
 19 18  1  0
 20  9  1  0
 21 20  2  0
 22 20  1  0
 22 26  1  0
 23 22  1  0
 24 25  1  0
 24 23  1  0
 25 26  1  0
 26 27  1  1
 27 29  2  0
 27 28  1  0
M  END
$$$$
