PWP.pdb
     RDKit          3D

 29 32  0  0  1  0  0  0  0  0999 V2000
   28.1717  -21.1323  -13.4843 N   0  0  0  0  0  0  0  0  0  0  0  0
   27.6018  -21.4912  -14.7734 C   0  0  0  0  0  0  0  0  0  0  0  0
   27.5609  -20.1987  -15.5668 C   0  0  0  0  0  0  0  0  0  0  0  0
   27.1771  -19.2040  -14.4830 C   0  0  0  0  0  0  0  0  0  0  0  0
   27.9601  -19.7037  -13.3147 C   0  0  1  0  0  0  0  0  0  0  0  0
   27.3309  -19.4797  -12.0069 C   0  0  0  0  0  0  0  0  0  0  0  0
   26.8881  -18.3325  -11.6807 O   0  0  0  0  0  0  0  0  0  0  0  0
   27.1984  -20.5395  -11.0643 N   0  0  0  0  0  0  0  0  0  0  0  0
   26.6540  -20.3042   -9.7292 C   0  0  1  0  0  0  0  0  0  0  0  0
   25.5055  -21.2341   -9.5215 C   0  0  0  0  0  0  0  0  0  0  0  0
   24.3027  -20.9447  -10.3229 C   0  0  0  0  0  0  0  0  0  0  0  0
   24.0850  -20.9993  -11.6723 C   0  0  0  0  0  0  0  0  0  0  0  0
   22.7961  -20.6213  -11.8960 N   0  0  0  0  0  0  0  0  0  0  0  0
   22.1952  -20.3324  -10.7513 C   0  0  0  0  0  0  0  0  0  0  0  0
   20.8984  -19.9018  -10.4486 C   0  0  0  0  0  0  0  0  0  0  0  0
   20.5911  -19.6857   -9.1296 C   0  0  0  0  0  0  0  0  0  0  0  0
   21.4874  -19.8698   -8.0984 C   0  0  0  0  0  0  0  0  0  0  0  0
   22.7650  -20.2955   -8.4141 C   0  0  0  0  0  0  0  0  0  0  0  0
   23.0971  -20.5199   -9.7427 C   0  0  0  0  0  0  0  0  0  0  0  0
   27.6796  -20.6670   -8.6988 C   0  0  0  0  0  0  0  0  0  0  0  0
   28.4682  -21.6013   -8.9773 O   0  0  0  0  0  0  0  0  0  0  0  0
   27.7654  -19.9858   -7.4548 N   0  0  0  0  0  0  0  0  0  0  0  0
   26.9284  -18.9436   -6.9182 C   0  0  0  0  0  0  0  0  0  0  0  0
   27.9440  -18.0056   -6.2913 C   0  0  0  0  0  0  0  0  0  0  0  0
   29.1560  -18.8546   -6.0012 C   0  0  0  0  0  0  0  0  0  0  0  0
   28.7777  -20.2388   -6.4672 C   0  0  1  0  0  0  0  0  0  0  0  0
   28.1835  -20.9767   -5.3369 C   0  0  0  0  0  0  0  0  0  0  0  0
   28.9632  -21.4857   -4.2883 O   0  0  0  0  0  0  0  0  0  0  0  0
   26.9594  -21.1855   -5.2550 O   0  0  0  0  0  0  0  0  0  0  0  0
  1  2  1  0
  1  5  1  0
  2  3  1  0
  3  4  1  0
  5  4  1  0
  5  6  1  1
  6  7  2  0
  8  6  1  0
  9  8  1  0
  9 10  1  1
 11 19  1  0
 11 10  1  0
 12 11  2  0
 13 12  1  0
 13 14  1  0
 14 15  1  0
 14 19  2  0
 15 16  2  0
 16 17  1  0
 18 17  2  0
 19 18  1  0
 20  9  1  0
 21 20  2  0
 22 20  1  0
 22 26  1  0
 23 22  1  0
 24 25  1  0
 24 23  1  0
 25 26  1  0
 26 27  1  1
 27 29  2  0
 27 28  1  0
M  END
$$$$
