PWP.pdb
     RDKit          3D

 29 32  0  0  1  0  0  0  0  0999 V2000
   22.8104  -21.2100  -11.7370 N   0  0  0  0  0  0  0  0  0  0  0  0
   21.5286  -20.5330  -11.8547 C   0  0  0  0  0  0  0  0  0  0  0  0
   21.5799  -19.8072  -13.1859 C   0  0  0  0  0  0  0  0  0  0  0  0
   23.0265  -19.3398  -13.2069 C   0  0  0  0  0  0  0  0  0  0  0  0
   23.7371  -20.5097  -12.6119 C   0  0  1  0  0  0  0  0  0  0  0  0
   24.9410  -20.1754  -11.8406 C   0  0  0  0  0  0  0  0  0  0  0  0
   25.8844  -19.4976  -12.3595 O   0  0  0  0  0  0  0  0  0  0  0  0
   25.0892  -20.6006  -10.4890 N   0  0  0  0  0  0  0  0  0  0  0  0
   26.3021  -20.3067   -9.7296 C   0  0  1  0  0  0  0  0  0  0  0  0
   25.9594  -20.3186   -8.2772 C   0  0  0  0  0  0  0  0  0  0  0  0
   26.7705  -19.4285   -7.4273 C   0  0  0  0  0  0  0  0  0  0  0  0
   26.9213  -18.0689   -7.4335 C   0  0  0  0  0  0  0  0  0  0  0  0
   27.7987  -17.7485   -6.4428 N   0  0  0  0  0  0  0  0  0  0  0  0
   28.2052  -18.8422   -5.8155 C   0  0  0  0  0  0  0  0  0  0  0  0
   29.0893  -19.0455   -4.7499 C   0  0  0  0  0  0  0  0  0  0  0  0
   29.2977  -20.3353   -4.3329 C   0  0  0  0  0  0  0  0  0  0  0  0
   28.6855  -21.4297   -4.9060 C   0  0  0  0  0  0  0  0  0  0  0  0
   27.8145  -21.2120   -5.9582 C   0  0  0  0  0  0  0  0  0  0  0  0
   27.5896  -19.9145   -6.3962 C   0  0  0  0  0  0  0  0  0  0  0  0
   27.3001  -21.4056   -9.9346 C   0  0  0  0  0  0  0  0  0  0  0  0
   26.8574  -22.5760  -10.0152 O   0  0  0  0  0  0  0  0  0  0  0  0
   28.6928  -21.1433  -10.0368 N   0  0  0  0  0  0  0  0  0  0  0  0
   29.4164  -19.9188   -9.8099 C   0  0  0  0  0  0  0  0  0  0  0  0
   30.4134  -19.9170  -10.9547 C   0  0  0  0  0  0  0  0  0  0  0  0
   30.5744  -21.3618  -11.3552 C   0  0  0  0  0  0  0  0  0  0  0  0
   29.6702  -22.1247  -10.4188 C   0  0  1  0  0  0  0  0  0  0  0  0
   30.4457  -22.5294   -9.2314 C   0  0  0  0  0  0  0  0  0  0  0  0
   30.2342  -21.9505   -7.9718 O   0  0  0  0  0  0  0  0  0  0  0  0
   31.3277  -23.4057   -9.2858 O   0  0  0  0  0  0  0  0  0  0  0  0
  1  2  1  0
  1  5  1  0
  2  3  1  0
  3  4  1  0
  5  4  1  0
  5  6  1  1
  6  7  2  0
  8  6  1  0
  9  8  1  0
  9 10  1  1
 11 19  1  0
 11 10  1  0
 12 11  2  0
 13 12  1  0
 13 14  1  0
 14 15  1  0
 14 19  2  0
 15 16  2  0
 16 17  1  0
 18 17  2  0
 19 18  1  0
 20  9  1  0
 21 20  2  0
 22 20  1  0
 22 26  1  0
 23 22  1  0
 24 25  1  0
 24 23  1  0
 25 26  1  0
 26 27  1  1
 27 29  2  0
 27 28  1  0
M  END
$$$$
