PWP.pdb
     RDKit          3D

 29 32  0  0  1  0  0  0  0  0999 V2000
   23.0413  -21.2243  -11.8997 N   0  0  0  0  0  0  0  0  0  0  0  0
   21.6994  -20.6647  -11.9361 C   0  0  0  0  0  0  0  0  0  0  0  0
   21.5583  -20.0524  -13.3170 C   0  0  0  0  0  0  0  0  0  0  0  0
   22.9492  -19.4740  -13.5224 C   0  0  0  0  0  0  0  0  0  0  0  0
   23.8141  -20.5286  -12.9162 C   0  0  1  0  0  0  0  0  0  0  0  0
   25.0525  -20.0347  -12.3007 C   0  0  0  0  0  0  0  0  0  0  0  0
   25.8747  -19.3239  -12.9620 O   0  0  0  0  0  0  0  0  0  0  0  0
   25.3706  -20.3371  -10.9454 N   0  0  0  0  0  0  0  0  0  0  0  0
   26.6652  -19.9783  -10.3715 C   0  0  1  0  0  0  0  0  0  0  0  0
   26.4235  -19.2216   -9.1082 C   0  0  0  0  0  0  0  0  0  0  0  0
   26.4568  -20.0241   -7.8723 C   0  0  0  0  0  0  0  0  0  0  0  0
   25.7292  -21.1171   -7.4885 C   0  0  0  0  0  0  0  0  0  0  0  0
   26.1461  -21.4707   -6.2414 N   0  0  0  0  0  0  0  0  0  0  0  0
   27.1003  -20.6516   -5.8248 C   0  0  0  0  0  0  0  0  0  0  0  0
   27.8395  -20.5900   -4.6382 C   0  0  0  0  0  0  0  0  0  0  0  0
   28.7728  -19.5920   -4.5206 C   0  0  0  0  0  0  0  0  0  0  0  0
   29.0158  -18.6565   -5.5037 C   0  0  0  0  0  0  0  0  0  0  0  0
   28.2769  -18.7309   -6.6706 C   0  0  0  0  0  0  0  0  0  0  0  0
   27.3269  -19.7329   -6.8101 C   0  0  0  0  0  0  0  0  0  0  0  0
   27.4023  -21.2231   -9.9808 C   0  0  0  0  0  0  0  0  0  0  0  0
   26.7223  -22.2617   -9.8038 O   0  0  0  0  0  0  0  0  0  0  0  0
   28.8135  -21.2379   -9.8167 N   0  0  0  0  0  0  0  0  0  0  0  0
   29.7374  -20.1383   -9.7075 C   0  0  0  0  0  0  0  0  0  0  0  0
   30.8993  -20.6076  -10.5645 C   0  0  0  0  0  0  0  0  0  0  0  0
   30.8056  -22.1124  -10.5867 C   0  0  0  0  0  0  0  0  0  0  0  0
   29.6016  -22.4365   -9.7372 C   0  0  1  0  0  0  0  0  0  0  0  0
   30.0417  -22.6400   -8.3443 C   0  0  0  0  0  0  0  0  0  0  0  0
   29.1725  -22.4702   -7.2570 O   0  0  0  0  0  0  0  0  0  0  0  0
   31.2070  -22.9731   -8.0618 O   0  0  0  0  0  0  0  0  0  0  0  0
  1  2  1  0
  1  5  1  0
  2  3  1  0
  3  4  1  0
  5  4  1  0
  5  6  1  1
  6  7  2  0
  8  6  1  0
  9  8  1  0
  9 10  1  1
 11 19  1  0
 11 10  1  0
 12 11  2  0
 13 12  1  0
 13 14  1  0
 14 15  1  0
 14 19  2  0
 15 16  2  0
 16 17  1  0
 18 17  2  0
 19 18  1  0
 20  9  1  0
 21 20  2  0
 22 20  1  0
 22 26  1  0
 23 22  1  0
 24 25  1  0
 24 23  1  0
 25 26  1  0
 26 27  1  1
 27 29  2  0
 27 28  1  0
M  END
$$$$
