PWP.pdb
     RDKit          3D

 29 32  0  0  1  0  0  0  0  0999 V2000
   26.9220  -21.2255  -14.0289 N   0  0  0  0  0  0  0  0  0  0  0  0
   27.1665  -20.6343  -15.3351 C   0  0  0  0  0  0  0  0  0  0  0  0
   28.6336  -20.2481  -15.3315 C   0  0  0  0  0  0  0  0  0  0  0  0
   28.8018  -19.7573  -13.9024 C   0  0  0  0  0  0  0  0  0  0  0  0
   27.9619  -20.7289  -13.1420 C   0  0  1  0  0  0  0  0  0  0  0  0
   27.3232  -20.1841  -11.9372 C   0  0  0  0  0  0  0  0  0  0  0  0
   26.8718  -18.9948  -11.9156 O   0  0  0  0  0  0  0  0  0  0  0  0
   27.1905  -20.9702  -10.7566 N   0  0  0  0  0  0  0  0  0  0  0  0
   26.7252  -20.3834   -9.5023 C   0  0  1  0  0  0  0  0  0  0  0  0
   25.4267  -21.0232   -9.1396 C   0  0  0  0  0  0  0  0  0  0  0  0
   24.2833  -20.6685   -9.9995 C   0  0  0  0  0  0  0  0  0  0  0  0
   24.1715  -20.5858  -11.3604 C   0  0  0  0  0  0  0  0  0  0  0  0
   22.8959  -20.2041  -11.6452 N   0  0  0  0  0  0  0  0  0  0  0  0
   22.2024  -20.0434  -10.5279 C   0  0  0  0  0  0  0  0  0  0  0  0
   20.8772  -19.6641  -10.2861 C   0  0  0  0  0  0  0  0  0  0  0  0
   20.4646  -19.5900   -8.9803 C   0  0  0  0  0  0  0  0  0  0  0  0
   21.2825  -19.8680   -7.9058 C   0  0  0  0  0  0  0  0  0  0  0  0
   22.5895  -20.2414   -8.1616 C   0  0  0  0  0  0  0  0  0  0  0  0
   23.0277  -20.3223   -9.4758 C   0  0  0  0  0  0  0  0  0  0  0  0
   27.6838  -20.7262   -8.4028 C   0  0  0  0  0  0  0  0  0  0  0  0
   28.3870  -21.7534   -8.5533 O   0  0  0  0  0  0  0  0  0  0  0  0
   27.8007  -19.9264   -7.2343 N   0  0  0  0  0  0  0  0  0  0  0  0
   27.1131  -18.7115   -6.8798 C   0  0  0  0  0  0  0  0  0  0  0  0
   28.2267  -17.8761   -6.2742 C   0  0  0  0  0  0  0  0  0  0  0  0
   29.2626  -18.8635   -5.7993 C   0  0  0  0  0  0  0  0  0  0  0  0
   28.6934  -20.2168   -6.1466 C   0  0  1  0  0  0  0  0  0  0  0  0
   27.9161  -20.7165   -4.9972 C   0  0  0  0  0  0  0  0  0  0  0  0
   26.5194  -20.8343   -5.0382 O   0  0  0  0  0  0  0  0  0  0  0  0
   28.4595  -21.0597   -3.9315 O   0  0  0  0  0  0  0  0  0  0  0  0
  1  2  1  0
  1  5  1  0
  2  3  1  0
  3  4  1  0
  5  4  1  0
  5  6  1  1
  6  7  2  0
  8  6  1  0
  9  8  1  0
  9 10  1  1
 11 19  1  0
 11 10  1  0
 12 11  2  0
 13 12  1  0
 13 14  1  0
 14 15  1  0
 14 19  2  0
 15 16  2  0
 16 17  1  0
 18 17  2  0
 19 18  1  0
 20  9  1  0
 21 20  2  0
 22 20  1  0
 22 26  1  0
 23 22  1  0
 24 25  1  0
 24 23  1  0
 25 26  1  0
 26 27  1  1
 27 29  2  0
 27 28  1  0
M  END
$$$$
