PWP.pdb
     RDKit          3D

 29 32  0  0  1  0  0  0  0  0999 V2000
   21.2376  -20.1075  -12.3780 N   0  0  0  0  0  0  0  0  0  0  0  0
   20.8096  -20.6046  -13.6761 C   0  0  0  0  0  0  0  0  0  0  0  0
   20.9689  -22.1114  -13.6001 C   0  0  0  0  0  0  0  0  0  0  0  0
   22.2542  -22.2280  -12.7965 C   0  0  0  0  0  0  0  0  0  0  0  0
   22.0945  -21.1296  -11.7987 C   0  0  1  0  0  0  0  0  0  0  0  0
   23.3480  -20.4961  -11.3701 C   0  0  0  0  0  0  0  0  0  0  0  0
   23.8239  -19.4957  -11.9957 O   0  0  0  0  0  0  0  0  0  0  0  0
   24.0690  -20.9829  -10.2420 N   0  0  0  0  0  0  0  0  0  0  0  0
   25.3766  -20.4384   -9.8843 C   0  0  1  0  0  0  0  0  0  0  0  0
   25.5729  -20.6189   -8.4160 C   0  0  0  0  0  0  0  0  0  0  0  0
   26.5705  -19.7285   -7.7958 C   0  0  0  0  0  0  0  0  0  0  0  0
   26.9760  -18.4638   -8.1236 C   0  0  0  0  0  0  0  0  0  0  0  0
   27.9361  -18.0961   -7.2308 N   0  0  0  0  0  0  0  0  0  0  0  0
   28.1520  -19.0698   -6.3588 C   0  0  0  0  0  0  0  0  0  0  0  0
   29.0222  -19.1847   -5.2689 C   0  0  0  0  0  0  0  0  0  0  0  0
   28.9983  -20.3561   -4.5560 C   0  0  0  0  0  0  0  0  0  0  0  0
   28.1679  -21.4146   -4.8573 C   0  0  0  0  0  0  0  0  0  0  0  0
   27.3138  -21.2853   -5.9375 C   0  0  0  0  0  0  0  0  0  0  0  0
   27.3221  -20.1083   -6.6727 C   0  0  0  0  0  0  0  0  0  0  0  0
   26.4525  -21.2385  -10.5533 C   0  0  0  0  0  0  0  0  0  0  0  0
   26.3389  -22.4871  -10.5295 O   0  0  0  0  0  0  0  0  0  0  0  0
   27.5593  -20.6184  -11.1930 N   0  0  0  0  0  0  0  0  0  0  0  0
   27.9491  -19.2319  -11.2157 C   0  0  0  0  0  0  0  0  0  0  0  0
   28.3645  -19.0378  -12.6628 C   0  0  0  0  0  0  0  0  0  0  0  0
   28.7401  -20.4092  -13.1649 C   0  0  0  0  0  0  0  0  0  0  0  0
   28.5304  -21.3234  -11.9831 C   0  0  1  0  0  0  0  0  0  0  0  0
   29.7934  -21.4245  -11.2285 C   0  0  0  0  0  0  0  0  0  0  0  0
   29.9802  -20.7749   -9.9998 O   0  0  0  0  0  0  0  0  0  0  0  0
   30.7588  -22.0917  -11.6428 O   0  0  0  0  0  0  0  0  0  0  0  0
  1  2  1  0
  1  5  1  0
  2  3  1  0
  3  4  1  0
  5  4  1  0
  5  6  1  6
  6  7  2  0
  8  6  1  0
  9  8  1  0
  9 10  1  1
 11 19  1  0
 11 10  1  0
 12 11  2  0
 13 12  1  0
 13 14  1  0
 14 15  1  0
 14 19  2  0
 15 16  2  0
 16 17  1  0
 18 17  2  0
 19 18  1  0
 20  9  1  0
 21 20  2  0
 22 20  1  0
 22 26  1  0
 23 22  1  0
 24 25  1  0
 24 23  1  0
 25 26  1  0
 26 27  1  1
 27 29  2  0
 27 28  1  0
M  END
$$$$
