PWP.pdb
     RDKit          3D

 29 32  0  0  1  0  0  0  0  0999 V2000
   24.2269  -16.3870  -19.4873 N   0  0  0  0  0  0  0  0  0  0  0  0
   23.7982  -15.0067  -19.6494 C   0  0  0  0  0  0  0  0  0  0  0  0
   24.8118  -14.3803  -20.5885 C   0  0  0  0  0  0  0  0  0  0  0  0
   26.0967  -15.0375  -20.1102 C   0  0  0  0  0  0  0  0  0  0  0  0
   25.6417  -16.4292  -19.8206 C   0  0  1  0  0  0  0  0  0  0  0  0
   26.3565  -17.0986  -18.7264 C   0  0  0  0  0  0  0  0  0  0  0  0
   27.6273  -17.1595  -18.7145 O   0  0  0  0  0  0  0  0  0  0  0  0
   25.6489  -17.7003  -17.6463 N   0  0  0  0  0  0  0  0  0  0  0  0
   26.3506  -18.4232  -16.5883 C   0  0  1  0  0  0  0  0  0  0  0  0
   25.8327  -17.9461  -15.2726 C   0  0  0  0  0  0  0  0  0  0  0  0
   26.5351  -18.4699  -14.0873 C   0  0  0  0  0  0  0  0  0  0  0  0
   27.8389  -18.3556  -13.6896 C   0  0  0  0  0  0  0  0  0  0  0  0
   27.9726  -19.0381  -12.5190 N   0  0  0  0  0  0  0  0  0  0  0  0
   26.8148  -19.5750  -12.1636 C   0  0  0  0  0  0  0  0  0  0  0  0
   26.4340  -20.3565  -11.0670 C   0  0  0  0  0  0  0  0  0  0  0  0
   25.1256  -20.7616  -10.9977 C   0  0  0  0  0  0  0  0  0  0  0  0
   24.1772  -20.4399  -11.9452 C   0  0  0  0  0  0  0  0  0  0  0  0
   24.5694  -19.6669  -13.0230 C   0  0  0  0  0  0  0  0  0  0  0  0
   25.8890  -19.2465  -13.1128 C   0  0  0  0  0  0  0  0  0  0  0  0
   26.0130  -19.8809  -16.6688 C   0  0  0  0  0  0  0  0  0  0  0  0
   24.8677  -20.1836  -17.0800 O   0  0  0  0  0  0  0  0  0  0  0  0
   26.9453  -20.8873  -16.2989 N   0  0  0  0  0  0  0  0  0  0  0  0
   28.1880  -20.7694  -15.5803 C   0  0  0  0  0  0  0  0  0  0  0  0
   29.0973  -21.7076  -16.3533 C   0  0  0  0  0  0  0  0  0  0  0  0
   28.1805  -22.6935  -17.0326 C   0  0  0  0  0  0  0  0  0  0  0  0
   26.7914  -22.2810  -16.6127 C   0  0  1  0  0  0  0  0  0  0  0  0
   26.4238  -23.0190  -15.3899 C   0  0  0  0  0  0  0  0  0  0  0  0
   26.0326  -24.3653  -15.4226 O   0  0  0  0  0  0  0  0  0  0  0  0
   26.4422  -22.4854  -14.2658 O   0  0  0  0  0  0  0  0  0  0  0  0
  1  2  1  0
  1  5  1  0
  2  3  1  0
  3  4  1  0
  5  4  1  0
  5  6  1  1
  6  7  2  0
  8  6  1  0
  9  8  1  0
  9 10  1  1
 11 19  1  0
 11 10  1  0
 12 11  2  0
 13 12  1  0
 13 14  1  0
 14 15  1  0
 14 19  2  0
 15 16  2  0
 16 17  1  0
 18 17  2  0
 19 18  1  0
 20  9  1  0
 21 20  2  0
 22 20  1  0
 22 26  1  0
 23 22  1  0
 24 25  1  0
 24 23  1  0
 25 26  1  0
 26 27  1  1
 27 29  2  0
 27 28  1  0
M  END
$$$$
