PWP.pdb
     RDKit          3D

 29 32  0  0  1  0  0  0  0  0999 V2000
   20.7671  -20.7416  -15.3115 N   0  0  0  0  0  0  0  0  0  0  0  0
   19.4609  -21.1281  -14.8016 C   0  0  0  0  0  0  0  0  0  0  0  0
   18.7270  -19.8242  -14.5513 C   0  0  0  0  0  0  0  0  0  0  0  0
   19.8536  -18.9541  -14.0170 C   0  0  0  0  0  0  0  0  0  0  0  0
   21.0008  -19.3745  -14.8743 C   0  0  1  0  0  0  0  0  0  0  0  0
   22.3151  -19.3140  -14.2223 C   0  0  0  0  0  0  0  0  0  0  0  0
   22.7461  -18.2292  -13.7162 O   0  0  0  0  0  0  0  0  0  0  0  0
   23.1470  -20.4673  -14.1377 N   0  0  0  0  0  0  0  0  0  0  0  0
   24.5224  -20.3771  -13.6537 C   0  0  1  0  0  0  0  0  0  0  0  0
   24.7303  -21.4453  -12.6326 C   0  0  0  0  0  0  0  0  0  0  0  0
   25.3426  -21.0020  -11.3672 C   0  0  0  0  0  0  0  0  0  0  0  0
   24.7870  -20.4709  -10.2355 C   0  0  0  0  0  0  0  0  0  0  0  0
   25.7988  -20.2235   -9.3586 N   0  0  0  0  0  0  0  0  0  0  0  0
   26.9623  -20.5740   -9.8862 C   0  0  0  0  0  0  0  0  0  0  0  0
   28.2735  -20.5196   -9.4003 C   0  0  0  0  0  0  0  0  0  0  0  0
   29.2757  -20.9706  -10.2208 C   0  0  0  0  0  0  0  0  0  0  0  0
   29.0569  -21.4696  -11.4873 C   0  0  0  0  0  0  0  0  0  0  0  0
   27.7553  -21.5166  -11.9529 C   0  0  0  0  0  0  0  0  0  0  0  0
   26.7261  -21.0649  -11.1389 C   0  0  0  0  0  0  0  0  0  0  0  0
   25.4690  -20.6787  -14.7755 C   0  0  0  0  0  0  0  0  0  0  0  0
   25.1217  -21.5576  -15.5997 O   0  0  0  0  0  0  0  0  0  0  0  0
   26.7107  -20.0014  -14.9106 N   0  0  0  0  0  0  0  0  0  0  0  0
   27.4471  -19.2304  -13.9421 C   0  0  0  0  0  0  0  0  0  0  0  0
   27.9261  -18.0496  -14.7672 C   0  0  0  0  0  0  0  0  0  0  0  0
   27.9425  -18.5325  -16.1957 C   0  0  0  0  0  0  0  0  0  0  0  0
   27.4805  -19.9669  -16.1233 C   0  0  1  0  0  0  0  0  0  0  0  0
   28.6595  -20.8409  -15.9782 C   0  0  0  0  0  0  0  0  0  0  0  0
   29.5365  -21.0904  -17.0436 O   0  0  0  0  0  0  0  0  0  0  0  0
   28.9374  -21.4020  -14.9026 O   0  0  0  0  0  0  0  0  0  0  0  0
  1  2  1  0
  1  5  1  0
  2  3  1  0
  3  4  1  0
  5  4  1  0
  5  6  1  1
  6  7  2  0
  8  6  1  0
  9  8  1  0
  9 10  1  1
 11 19  1  0
 11 10  1  0
 12 11  2  0
 13 12  1  0
 13 14  1  0
 14 15  1  0
 14 19  2  0
 15 16  2  0
 16 17  1  0
 18 17  2  0
 19 18  1  0
 20  9  1  0
 21 20  2  0
 22 20  1  0
 22 26  1  0
 23 22  1  0
 24 25  1  0
 24 23  1  0
 25 26  1  0
 26 27  1  1
 27 29  2  0
 27 28  1  0
M  END
$$$$
