PWP.pdb
     RDKit          3D

 29 32  0  0  1  0  0  0  0  0999 V2000
   26.3769  -20.6110  -14.0263 N   0  0  0  0  0  0  0  0  0  0  0  0
   27.3714  -20.8006  -15.0705 C   0  0  0  0  0  0  0  0  0  0  0  0
   28.2010  -21.9890  -14.6222 C   0  0  0  0  0  0  0  0  0  0  0  0
   28.2774  -21.7421  -13.1240 C   0  0  0  0  0  0  0  0  0  0  0  0
   26.9053  -21.2367  -12.8247 C   0  0  1  0  0  0  0  0  0  0  0  0
   26.8295  -20.2668  -11.7247 C   0  0  0  0  0  0  0  0  0  0  0  0
   26.9099  -19.0167  -11.9468 O   0  0  0  0  0  0  0  0  0  0  0  0
   26.6647  -20.6964  -10.3765 N   0  0  0  0  0  0  0  0  0  0  0  0
   26.9334  -19.7988   -9.2557 C   0  0  1  0  0  0  0  0  0  0  0  0
   25.6675  -19.0871   -8.9122 C   0  0  0  0  0  0  0  0  0  0  0  0
   24.4257  -19.8231   -9.2101 C   0  0  0  0  0  0  0  0  0  0  0  0
   23.7419  -19.9986  -10.3818 C   0  0  0  0  0  0  0  0  0  0  0  0
   22.6453  -20.7578  -10.1075 N   0  0  0  0  0  0  0  0  0  0  0  0
   22.6088  -21.0668   -8.8198 C   0  0  0  0  0  0  0  0  0  0  0  0
   21.7044  -21.8100   -8.0530 C   0  0  0  0  0  0  0  0  0  0  0  0
   21.9631  -21.9402   -6.7124 C   0  0  0  0  0  0  0  0  0  0  0  0
   23.0588  -21.3809   -6.0901 C   0  0  0  0  0  0  0  0  0  0  0  0
   23.9432  -20.6492   -6.8618 C   0  0  0  0  0  0  0  0  0  0  0  0
   23.7001  -20.5047   -8.2205 C   0  0  0  0  0  0  0  0  0  0  0  0
   27.3039  -20.6034   -8.0471 C   0  0  0  0  0  0  0  0  0  0  0  0
   27.1770  -21.8485   -8.1249 O   0  0  0  0  0  0  0  0  0  0  0  0
   27.7822  -19.9914   -6.8574 N   0  0  0  0  0  0  0  0  0  0  0  0
   27.8558  -18.5962   -6.5073 C   0  0  0  0  0  0  0  0  0  0  0  0
   29.2137  -18.5042   -5.8347 C   0  0  0  0  0  0  0  0  0  0  0  0
   29.5147  -19.8950   -5.3358 C   0  0  0  0  0  0  0  0  0  0  0  0
   28.3151  -20.7170   -5.7376 C   0  0  1  0  0  0  0  0  0  0  0  0
   27.3357  -20.7019   -4.6352 C   0  0  0  0  0  0  0  0  0  0  0  0
   27.5302  -21.4368   -3.4568 O   0  0  0  0  0  0  0  0  0  0  0  0
   26.2859  -20.0359   -4.6934 O   0  0  0  0  0  0  0  0  0  0  0  0
  1  2  1  0
  1  5  1  0
  2  3  1  0
  3  4  1  0
  5  4  1  0
  5  6  1  1
  6  7  2  0
  8  6  1  0
  9  8  1  0
  9 10  1  1
 11 19  1  0
 11 10  1  0
 12 11  2  0
 13 12  1  0
 13 14  1  0
 14 15  1  0
 14 19  2  0
 15 16  2  0
 16 17  1  0
 18 17  2  0
 19 18  1  0
 20  9  1  0
 21 20  2  0
 22 20  1  0
 22 26  1  0
 23 22  1  0
 24 25  1  0
 24 23  1  0
 25 26  1  0
 26 27  1  1
 27 29  2  0
 27 28  1  0
M  END
$$$$
