CEY.pdb
     RDKit          3D

 28 28  0  0  1  0  0  0  0  0999 V2000
   23.3378   -3.6510  -24.0637 N   0  0  0  0  0  0  0  0  0  0  0  0
   22.8954   -4.6542  -23.1353 C   0  0  1  0  0  0  0  0  0  0  0  0
   23.9794   -5.6666  -22.8626 C   0  0  0  0  0  0  0  0  0  0  0  0
   24.0116   -6.8650  -24.2288 S   0  0  0  0  0  0  0  0  0  0  0  0
   22.3558   -4.0823  -21.8685 C   0  0  0  0  0  0  0  0  0  0  0  0
   23.0072   -3.1670  -21.3407 O   0  0  0  0  0  0  0  0  0  0  0  0
   21.1604   -4.5852  -21.3307 N   0  0  0  0  0  0  0  0  0  0  0  0
   20.6087   -4.1103  -20.0875 C   0  0  1  0  0  0  0  0  0  0  0  0
   19.3266   -3.3742  -20.2546 C   0  0  0  0  0  0  0  0  0  0  0  0
   19.4904   -2.0141  -20.8827 C   0  0  0  0  0  0  0  0  0  0  0  0
   18.1426   -1.3754  -20.9085 C   0  0  0  0  0  0  0  0  0  0  0  0
   17.3257   -1.5569  -21.8421 O   0  0  0  0  0  0  0  0  0  0  0  0
   20.6500   -5.0704  -18.9698 C   0  0  0  0  0  0  0  0  0  0  0  0
   20.9422   -6.2832  -19.0259 O   0  0  0  0  0  0  0  0  0  0  0  0
   17.7461   -0.5351  -19.8628 O   0  0  0  0  0  0  0  0  0  0  0  0
   22.4649   -9.2328  -11.7358 O   0  0  0  0  0  0  0  0  0  0  0  0
   22.2748   -8.3533  -12.8005 C   0  0  0  0  0  0  0  0  0  0  0  0
   22.3494   -8.8185  -14.1049 C   0  0  0  0  0  0  0  0  0  0  0  0
   22.1676   -7.9819  -15.1738 C   0  0  0  0  0  0  0  0  0  0  0  0
   21.9003   -6.6277  -14.9840 C   0  0  0  0  0  0  0  0  0  0  0  0
   21.7257   -5.7764  -16.1575 C   0  0  0  0  0  0  0  0  0  0  0  0
   20.2891   -5.4852  -16.5243 C   0  0  2  0  0  0  0  0  0  0  0  0
   20.3220   -4.5770  -17.6626 N   0  0  0  0  0  0  0  0  0  0  0  0
   19.6341   -4.8050  -15.3922 C   0  0  0  0  0  0  0  0  0  0  0  0
   19.6876   -3.5605  -15.3176 O   0  0  0  0  0  0  0  0  0  0  0  0
   21.8270   -6.1683  -13.6990 C   0  0  0  0  0  0  0  0  0  0  0  0
   22.0102   -7.0127  -12.6260 C   0  0  0  0  0  0  0  0  0  0  0  0
   18.9510   -5.4840  -14.3898 O   0  0  0  0  0  0  0  0  0  0  0  0
  2  5  1  0
  2  1  1  6
  3  2  1  0
  3  4  1  0
  5  6  2  0
  7  5  1  0
  7  8  1  0
  8 13  1  0
  8  9  1  6
 10  9  1  0
 10 11  1  0
 11 15  1  0
 11 12  2  0
 13 14  2  0
 16 17  1  0
 17 27  2  0
 18 17  1  0
 18 19  2  0
 19 20  1  0
 20 26  2  0
 20 21  1  0
 22 21  1  1
 22 23  1  0
 22 24  1  0
 23 13  1  0
 24 25  2  0
 24 28  1  0
 27 26  1  0
M  END
$$$$
