CEY.pdb
     RDKit          3D

 28 28  0  0  1  0  0  0  0  0999 V2000
   25.7696  -15.3603  -18.3349 N   0  0  0  0  0  0  0  0  0  0  0  0
   25.3985  -14.2047  -17.5662 C   0  0  1  0  0  0  0  0  0  0  0  0
   26.6033  -13.5575  -16.9307 C   0  0  0  0  0  0  0  0  0  0  0  0
   27.4153  -14.7749  -15.8525 S   0  0  0  0  0  0  0  0  0  0  0  0
   24.5986  -13.2159  -18.3444 C   0  0  0  0  0  0  0  0  0  0  0  0
   24.4496  -13.4401  -19.5561 O   0  0  0  0  0  0  0  0  0  0  0  0
   24.0552  -12.0952  -17.6966 N   0  0  0  0  0  0  0  0  0  0  0  0
   23.1398  -11.1919  -18.3459 C   0  0  1  0  0  0  0  0  0  0  0  0
   22.0439  -11.8860  -19.0745 C   0  0  0  0  0  0  0  0  0  0  0  0
   22.4965  -12.5572  -20.3457 C   0  0  0  0  0  0  0  0  0  0  0  0
   21.2731  -12.8594  -21.1442 C   0  0  0  0  0  0  0  0  0  0  0  0
   21.1554  -12.5365  -22.3498 O   0  0  0  0  0  0  0  0  0  0  0  0
   22.7314  -10.0227  -17.5466 C   0  0  0  0  0  0  0  0  0  0  0  0
   22.5463   -9.9787  -16.3124 O   0  0  0  0  0  0  0  0  0  0  0  0
   20.1977  -13.5288  -20.5508 O   0  0  0  0  0  0  0  0  0  0  0  0
   22.2426   -2.3651  -13.8032 O   0  0  0  0  0  0  0  0  0  0  0  0
   22.4142   -3.5971  -14.4323 C   0  0  0  0  0  0  0  0  0  0  0  0
   23.3318   -3.7262  -15.4641 C   0  0  0  0  0  0  0  0  0  0  0  0
   23.5253   -4.9218  -16.1034 C   0  0  0  0  0  0  0  0  0  0  0  0
   22.8019   -6.0542  -15.7354 C   0  0  0  0  0  0  0  0  0  0  0  0
   23.0380   -7.3019  -16.4563 C   0  0  0  0  0  0  0  0  0  0  0  0
   22.0229   -7.6185  -17.5298 C   0  0  2  0  0  0  0  0  0  0  0  0
   22.5180   -8.7870  -18.2446 N   0  0  0  0  0  0  0  0  0  0  0  0
   21.9483   -6.4837  -18.4679 C   0  0  0  0  0  0  0  0  0  0  0  0
   21.3009   -5.4678  -18.1426 O   0  0  0  0  0  0  0  0  0  0  0  0
   21.8972   -5.9279  -14.7190 C   0  0  0  0  0  0  0  0  0  0  0  0
   21.7051   -4.7238  -14.0779 C   0  0  0  0  0  0  0  0  0  0  0  0
   22.5684   -6.4841  -19.7120 O   0  0  0  0  0  0  0  0  0  0  0  0
  2  5  1  0
  2  1  1  6
  3  2  1  0
  3  4  1  0
  5  6  2  0
  7  5  1  0
  7  8  1  0
  8 13  1  0
  8  9  1  1
 10  9  1  0
 10 11  1  0
 11 15  1  0
 11 12  2  0
 13 14  2  0
 16 17  1  0
 17 27  2  0
 18 17  1  0
 18 19  2  0
 19 20  1  0
 20 26  2  0
 20 21  1  0
 22 21  1  1
 22 23  1  0
 22 24  1  0
 23 13  1  0
 24 25  2  0
 24 28  1  0
 27 26  1  0
M  END
$$$$
