CEY.pdb
     RDKit          3D

 28 28  0  0  1  0  0  0  0  0999 V2000
   27.8451  -24.4911  -18.2294 N   0  0  0  0  0  0  0  0  0  0  0  0
   27.7021  -23.3366  -17.3863 C   0  0  1  0  0  0  0  0  0  0  0  0
   28.9927  -22.5623  -17.2916 C   0  0  0  0  0  0  0  0  0  0  0  0
   30.2350  -23.6029  -16.4684 S   0  0  0  0  0  0  0  0  0  0  0  0
   26.5686  -22.4552  -17.7878 C   0  0  0  0  0  0  0  0  0  0  0  0
   26.8535  -21.4154  -18.4029 O   0  0  0  0  0  0  0  0  0  0  0  0
   25.2525  -22.8225  -17.4655 N   0  0  0  0  0  0  0  0  0  0  0  0
   24.1036  -22.1179  -17.9745 C   0  0  1  0  0  0  0  0  0  0  0  0
   24.1834  -21.8362  -19.4333 C   0  0  0  0  0  0  0  0  0  0  0  0
   23.0372  -21.0049  -19.9497 C   0  0  0  0  0  0  0  0  0  0  0  0
   23.2446  -20.8315  -21.4167 C   0  0  0  0  0  0  0  0  0  0  0  0
   23.6451  -19.7557  -21.9207 O   0  0  0  0  0  0  0  0  0  0  0  0
   22.7986  -22.6035  -17.4909 C   0  0  0  0  0  0  0  0  0  0  0  0
   22.0336  -23.4090  -18.0613 O   0  0  0  0  0  0  0  0  0  0  0  0
   22.9904  -21.8942  -22.2901 O   0  0  0  0  0  0  0  0  0  0  0  0
   23.7298  -28.4087  -15.1947 O   0  0  0  0  0  0  0  0  0  0  0  0
   23.1113  -27.1709  -15.0259 C   0  0  0  0  0  0  0  0  0  0  0  0
   23.8128  -26.1177  -14.4585 C   0  0  0  0  0  0  0  0  0  0  0  0
   23.2356  -24.8889  -14.2784 C   0  0  0  0  0  0  0  0  0  0  0  0
   21.9166  -24.6558  -14.6618 C   0  0  0  0  0  0  0  0  0  0  0  0
   21.3450  -23.3309  -14.4377 C   0  0  0  0  0  0  0  0  0  0  0  0
   21.0526  -22.5432  -15.6935 C   0  0  2  0  0  0  0  0  0  0  0  0
   22.3370  -22.1085  -16.2253 N   0  0  0  0  0  0  0  0  0  0  0  0
   20.2579  -21.3533  -15.3384 C   0  0  0  0  0  0  0  0  0  0  0  0
   20.7760  -20.2230  -15.4430 O   0  0  0  0  0  0  0  0  0  0  0  0
   21.2244  -25.6931  -15.2207 C   0  0  0  0  0  0  0  0  0  0  0  0
   21.8080  -26.9280  -15.4006 C   0  0  0  0  0  0  0  0  0  0  0  0
   18.9449  -21.4234  -14.8873 O   0  0  0  0  0  0  0  0  0  0  0  0
  2  5  1  0
  2  1  1  6
  3  2  1  0
  3  4  1  0
  5  6  2  0
  7  5  1  0
  7  8  1  0
  8 13  1  0
  8  9  1  6
 10  9  1  0
 10 11  1  0
 11 15  1  0
 11 12  2  0
 13 14  2  0
 16 17  1  0
 17 27  2  0
 18 17  1  0
 18 19  2  0
 19 20  1  0
 20 26  2  0
 20 21  1  0
 22 21  1  1
 22 23  1  0
 22 24  1  0
 23 13  1  0
 24 25  2  0
 24 28  1  0
 27 26  1  0
M  END
$$$$
