CEY.pdb
     RDKit          3D

 28 28  0  0  1  0  0  0  0  0999 V2000
   28.8542  -23.7410  -16.9582 N   0  0  0  0  0  0  0  0  0  0  0  0
   27.4421  -24.0051  -16.9794 C   0  0  1  0  0  0  0  0  0  0  0  0
   27.1121  -25.2869  -16.2565 C   0  0  0  0  0  0  0  0  0  0  0  0
   27.8537  -26.6743  -17.1669 S   0  0  0  0  0  0  0  0  0  0  0  0
   26.6259  -22.8675  -16.4670 C   0  0  0  0  0  0  0  0  0  0  0  0
   26.7832  -22.5518  -15.2769 O   0  0  0  0  0  0  0  0  0  0  0  0
   25.7315  -22.2093  -17.3259 N   0  0  0  0  0  0  0  0  0  0  0  0
   24.9384  -21.0827  -16.9049 C   0  0  1  0  0  0  0  0  0  0  0  0
   24.8240  -20.0219  -17.9419 C   0  0  0  0  0  0  0  0  0  0  0  0
   24.0057  -18.8353  -17.5017 C   0  0  0  0  0  0  0  0  0  0  0  0
   24.0034  -17.8589  -18.6296 C   0  0  0  0  0  0  0  0  0  0  0  0
   25.0387  -17.2639  -19.0114 O   0  0  0  0  0  0  0  0  0  0  0  0
   23.6895  -21.4177  -16.1973 C   0  0  0  0  0  0  0  0  0  0  0  0
   22.8304  -22.2577  -16.5375 O   0  0  0  0  0  0  0  0  0  0  0  0
   22.8131  -17.5755  -19.3076 O   0  0  0  0  0  0  0  0  0  0  0  0
   17.9800  -20.7947   -9.3376 O   0  0  0  0  0  0  0  0  0  0  0  0
   19.0779  -20.7514  -10.1955 C   0  0  0  0  0  0  0  0  0  0  0  0
   19.6085  -19.5293  -10.5803 C   0  0  0  0  0  0  0  0  0  0  0  0
   20.6864  -19.4508  -11.4214 C   0  0  0  0  0  0  0  0  0  0  0  0
   21.2885  -20.6037  -11.9208 C   0  0  0  0  0  0  0  0  0  0  0  0
   22.4282  -20.4650  -12.8231 C   0  0  0  0  0  0  0  0  0  0  0  0
   22.2130  -21.0231  -14.2107 C   0  0  2  0  0  0  0  0  0  0  0  0
   23.4106  -20.7121  -14.9790 N   0  0  0  0  0  0  0  0  0  0  0  0
   21.0614  -20.3405  -14.8282 C   0  0  0  0  0  0  0  0  0  0  0  0
   21.2151  -19.1955  -15.2999 O   0  0  0  0  0  0  0  0  0  0  0  0
   20.7661  -21.8086  -11.5425 C   0  0  0  0  0  0  0  0  0  0  0  0
   19.6818  -21.8839  -10.6960 C   0  0  0  0  0  0  0  0  0  0  0  0
   19.7966  -20.9109  -14.9145 O   0  0  0  0  0  0  0  0  0  0  0  0
  2  5  1  0
  2  1  1  1
  3  2  1  0
  3  4  1  0
  5  6  2  0
  7  5  1  0
  7  8  1  0
  8 13  1  0
  8  9  1  6
 10  9  1  0
 10 11  1  0
 11 15  1  0
 11 12  2  0
 13 14  2  0
 16 17  1  0
 17 27  2  0
 18 17  1  0
 18 19  2  0
 19 20  1  0
 20 26  2  0
 20 21  1  0
 22 21  1  1
 22 23  1  0
 22 24  1  0
 23 13  1  0
 24 25  2  0
 24 28  1  0
 27 26  1  0
M  END
$$$$
