CEY.pdb
     RDKit          3D

 28 28  0  0  1  0  0  0  0  0999 V2000
   17.6887  -10.5815  -15.7203 N   0  0  0  0  0  0  0  0  0  0  0  0
   19.1195  -10.6992  -15.7741 C   0  0  1  0  0  0  0  0  0  0  0  0
   19.5489  -11.7132  -16.8045 C   0  0  0  0  0  0  0  0  0  0  0  0
   18.7824  -13.3112  -16.4012 S   0  0  0  0  0  0  0  0  0  0  0  0
   19.8072   -9.3923  -15.9794 C   0  0  0  0  0  0  0  0  0  0  0  0
   19.0913   -8.4147  -16.2485 O   0  0  0  0  0  0  0  0  0  0  0  0
   21.2041   -9.3144  -15.8635 N   0  0  0  0  0  0  0  0  0  0  0  0
   21.9201   -8.0663  -15.9342 C   0  0  1  0  0  0  0  0  0  0  0  0
   21.3534   -7.0107  -15.0519 C   0  0  0  0  0  0  0  0  0  0  0  0
   22.0525   -5.6815  -15.1775 C   0  0  0  0  0  0  0  0  0  0  0  0
   21.8225   -4.9406  -13.9033 C   0  0  0  0  0  0  0  0  0  0  0  0
   22.7541   -4.4169  -13.2478 O   0  0  0  0  0  0  0  0  0  0  0  0
   23.3898   -8.1791  -15.9279 C   0  0  0  0  0  0  0  0  0  0  0  0
   24.1029   -8.7105  -15.0512 O   0  0  0  0  0  0  0  0  0  0  0  0
   20.5262   -4.8085  -13.3946 O   0  0  0  0  0  0  0  0  0  0  0  0
   29.7664  -12.8066  -16.5337 O   0  0  0  0  0  0  0  0  0  0  0  0
   28.6449  -12.0192  -16.7894 C   0  0  0  0  0  0  0  0  0  0  0  0
   28.4020  -11.5560  -18.0738 C   0  0  0  0  0  0  0  0  0  0  0  0
   27.3100  -10.7806  -18.3596 C   0  0  0  0  0  0  0  0  0  0  0  0
   26.4020  -10.4299  -17.3628 C   0  0  0  0  0  0  0  0  0  0  0  0
   25.2600   -9.5920  -17.7178 C   0  0  0  0  0  0  0  0  0  0  0  0
   25.4220   -8.1250  -17.3940 C   0  0  2  0  0  0  0  0  0  0  0  0
   24.1000   -7.6235  -17.0444 N   0  0  0  0  0  0  0  0  0  0  0  0
   25.8954   -7.4183  -18.5982 C   0  0  0  0  0  0  0  0  0  0  0  0
   25.0750   -6.7849  -19.2930 O   0  0  0  0  0  0  0  0  0  0  0  0
   26.6406  -10.8856  -16.0967 C   0  0  0  0  0  0  0  0  0  0  0  0
   27.7401  -11.6655  -15.8126 C   0  0  0  0  0  0  0  0  0  0  0  0
   27.2241   -7.4193  -19.0068 O   0  0  0  0  0  0  0  0  0  0  0  0
  2  5  1  0
  2  1  1  6
  3  2  1  0
  3  4  1  0
  5  6  2  0
  7  5  1  0
  7  8  1  0
  8 13  1  0
  8  9  1  1
 10  9  1  0
 10 11  1  0
 11 15  1  0
 11 12  2  0
 13 14  2  0
 16 17  1  0
 17 27  2  0
 18 17  1  0
 18 19  2  0
 19 20  1  0
 20 26  2  0
 20 21  1  0
 22 21  1  6
 22 23  1  0
 22 24  1  0
 23 13  1  0
 24 25  2  0
 24 28  1  0
 27 26  1  0
M  END
$$$$
