CEY.pdb
     RDKit          3D

 28 28  0  0  1  0  0  0  0  0999 V2000
   19.7540  -23.4505  -17.1016 N   0  0  0  0  0  0  0  0  0  0  0  0
   18.6549  -22.5253  -17.0994 C   0  0  1  0  0  0  0  0  0  0  0  0
   17.4191  -23.1416  -16.4935 C   0  0  0  0  0  0  0  0  0  0  0  0
   17.1509  -24.7710  -17.2530 S   0  0  0  0  0  0  0  0  0  0  0  0
   18.9862  -21.2242  -16.4510 C   0  0  0  0  0  0  0  0  0  0  0  0
   19.1855  -21.2394  -15.2260 O   0  0  0  0  0  0  0  0  0  0  0  0
   19.0600  -20.0574  -17.2282 N   0  0  0  0  0  0  0  0  0  0  0  0
   19.3568  -18.7660  -16.6627 C   0  0  1  0  0  0  0  0  0  0  0  0
   20.3154  -17.9718  -17.4776 C   0  0  0  0  0  0  0  0  0  0  0  0
   20.1621  -18.1818  -18.9621 C   0  0  0  0  0  0  0  0  0  0  0  0
   21.1010  -17.2409  -19.6394 C   0  0  0  0  0  0  0  0  0  0  0  0
   21.8794  -16.4893  -19.0062 O   0  0  0  0  0  0  0  0  0  0  0  0
   18.1959  -18.0219  -16.1419 C   0  0  0  0  0  0  0  0  0  0  0  0
   18.2077  -16.9266  -15.5421 O   0  0  0  0  0  0  0  0  0  0  0  0
   21.1367  -17.1722  -21.0361 O   0  0  0  0  0  0  0  0  0  0  0  0
   17.1759  -13.0610  -19.9737 O   0  0  0  0  0  0  0  0  0  0  0  0
   16.6252  -14.1239  -19.2594 C   0  0  0  0  0  0  0  0  0  0  0  0
   16.7451  -15.4186  -19.7418 C   0  0  0  0  0  0  0  0  0  0  0  0
   16.2162  -16.4854  -19.0653 C   0  0  0  0  0  0  0  0  0  0  0  0
   15.5363  -16.3032  -17.8629 C   0  0  0  0  0  0  0  0  0  0  0  0
   14.9816  -17.4727  -17.1869 C   0  0  0  0  0  0  0  0  0  0  0  0
   15.7031  -17.8788  -15.9229 C   0  0  2  0  0  0  0  0  0  0  0  0
   16.8978  -18.6027  -16.3353 N   0  0  0  0  0  0  0  0  0  0  0  0
   14.8388  -18.7890  -15.1496 C   0  0  0  0  0  0  0  0  0  0  0  0
   13.7242  -18.3847  -14.7608 O   0  0  0  0  0  0  0  0  0  0  0  0
   15.4173  -15.0277  -17.3869 C   0  0  0  0  0  0  0  0  0  0  0  0
   15.9508  -13.9568  -18.0699 C   0  0  0  0  0  0  0  0  0  0  0  0
   15.2033  -20.0909  -14.8259 O   0  0  0  0  0  0  0  0  0  0  0  0
  2  5  1  0
  2  1  1  1
  3  2  1  0
  3  4  1  0
  5  6  2  0
  7  5  1  0
  7  8  1  0
  8 13  1  0
  8  9  1  6
 10  9  1  0
 10 11  1  0
 11 15  1  0
 11 12  2  0
 13 14  2  0
 16 17  1  0
 17 27  2  0
 18 17  1  0
 18 19  2  0
 19 20  1  0
 20 26  2  0
 20 21  1  0
 22 21  1  6
 22 23  1  0
 22 24  1  0
 23 13  1  0
 24 25  2  0
 24 28  1  0
 27 26  1  0
M  END
$$$$
