CEY.pdb
     RDKit          3D

 28 28  0  0  1  0  0  0  0  0999 V2000
   20.2064  -12.3036  -15.9605 N   0  0  0  0  0  0  0  0  0  0  0  0
   19.4559  -11.0878  -16.1111 C   0  0  1  0  0  0  0  0  0  0  0  0
   18.0636  -11.3613  -16.6216 C   0  0  0  0  0  0  0  0  0  0  0  0
   18.1772  -11.9185  -18.3480 S   0  0  0  0  0  0  0  0  0  0  0  0
   19.4265  -10.2605  -14.8710 C   0  0  0  0  0  0  0  0  0  0  0  0
   19.1769  -10.8486  -13.8068 O   0  0  0  0  0  0  0  0  0  0  0  0
   19.6764   -8.8812  -14.9476 N   0  0  0  0  0  0  0  0  0  0  0  0
   19.6557   -8.0235  -13.7903 C   0  0  1  0  0  0  0  0  0  0  0  0
   20.6374   -6.9080  -13.8656 C   0  0  0  0  0  0  0  0  0  0  0  0
   20.7026   -6.0773  -12.6098 C   0  0  0  0  0  0  0  0  0  0  0  0
   21.6884   -4.9849  -12.8548 C   0  0  0  0  0  0  0  0  0  0  0  0
   21.3436   -3.8018  -13.0855 O   0  0  0  0  0  0  0  0  0  0  0  0
   18.3152   -7.6589  -13.2974 C   0  0  0  0  0  0  0  0  0  0  0  0
   17.3438   -7.2614  -13.9739 O   0  0  0  0  0  0  0  0  0  0  0  0
   23.0595   -5.2613  -12.8326 O   0  0  0  0  0  0  0  0  0  0  0  0
   11.6653   -7.8032   -7.4028 O   0  0  0  0  0  0  0  0  0  0  0  0
   12.9127   -7.8597   -8.0225 C   0  0  0  0  0  0  0  0  0  0  0  0
   13.1656   -8.8272   -8.9834 C   0  0  0  0  0  0  0  0  0  0  0  0
   14.3796   -8.9107   -9.6117 C   0  0  0  0  0  0  0  0  0  0  0  0
   15.4063   -8.0207   -9.3037 C   0  0  0  0  0  0  0  0  0  0  0  0
   16.6854   -8.1597   -9.9944 C   0  0  0  0  0  0  0  0  0  0  0  0
   16.7587   -7.4785  -11.3411 C   0  0  2  0  0  0  0  0  0  0  0  0
   18.0786   -7.7660  -11.8859 N   0  0  0  0  0  0  0  0  0  0  0  0
   16.6306   -6.0224  -11.1488 C   0  0  0  0  0  0  0  0  0  0  0  0
   17.6354   -5.3630  -10.8130 O   0  0  0  0  0  0  0  0  0  0  0  0
   15.1582   -7.0671   -8.3567 C   0  0  0  0  0  0  0  0  0  0  0  0
   13.9358   -6.9858   -7.7267 C   0  0  0  0  0  0  0  0  0  0  0  0
   15.4351   -5.3351  -11.3237 O   0  0  0  0  0  0  0  0  0  0  0  0
  2  5  1  0
  2  1  1  1
  3  2  1  0
  3  4  1  0
  5  6  2  0
  7  5  1  0
  7  8  1  0
  8 13  1  0
  8  9  1  6
 10  9  1  0
 10 11  1  0
 11 15  1  0
 11 12  2  0
 13 14  2  0
 16 17  1  0
 17 27  2  0
 18 17  1  0
 18 19  2  0
 19 20  1  0
 20 26  2  0
 20 21  1  0
 22 21  1  1
 22 23  1  0
 22 24  1  0
 23 13  1  0
 24 25  2  0
 24 28  1  0
 27 26  1  0
M  END
$$$$
