CEY.pdb
     RDKit          3D

 28 28  0  0  1  0  0  0  0  0999 V2000
   18.2833   -9.7369  -20.0667 N   0  0  0  0  0  0  0  0  0  0  0  0
   18.0859   -9.0683  -18.8106 C   0  0  1  0  0  0  0  0  0  0  0  0
   18.2073  -10.0270  -17.6529 C   0  0  0  0  0  0  0  0  0  0  0  0
   17.7097   -9.1661  -16.1314 S   0  0  0  0  0  0  0  0  0  0  0  0
   18.9752   -7.8851  -18.6310 C   0  0  0  0  0  0  0  0  0  0  0  0
   20.1855   -8.0511  -18.8505 O   0  0  0  0  0  0  0  0  0  0  0  0
   18.4271   -6.6560  -18.2310 N   0  0  0  0  0  0  0  0  0  0  0  0
   19.2413   -5.5144  -17.9004 C   0  0  1  0  0  0  0  0  0  0  0  0
   19.0203   -4.3518  -18.8021 C   0  0  0  0  0  0  0  0  0  0  0  0
   20.0134   -4.2693  -19.9328 C   0  0  0  0  0  0  0  0  0  0  0  0
   19.6878   -3.0425  -20.7166 C   0  0  0  0  0  0  0  0  0  0  0  0
   19.3914   -1.9519  -20.1739 O   0  0  0  0  0  0  0  0  0  0  0  0
   19.3317   -5.1970  -16.4638 C   0  0  0  0  0  0  0  0  0  0  0  0
   18.3884   -4.9473  -15.6844 O   0  0  0  0  0  0  0  0  0  0  0  0
   19.7057   -3.0799  -22.1148 O   0  0  0  0  0  0  0  0  0  0  0  0
   22.8891  -11.0141  -14.1068 O   0  0  0  0  0  0  0  0  0  0  0  0
   22.2096   -9.7983  -14.0495 C   0  0  0  0  0  0  0  0  0  0  0  0
   22.1799   -9.0765  -12.8656 C   0  0  0  0  0  0  0  0  0  0  0  0
   21.5219   -7.8789  -12.7747 C   0  0  0  0  0  0  0  0  0  0  0  0
   20.8568   -7.3437  -13.8757 C   0  0  0  0  0  0  0  0  0  0  0  0
   20.1611   -6.0689  -13.7230 C   0  0  0  0  0  0  0  0  0  0  0  0
   20.7958   -4.9064  -14.4502 C   0  0  2  0  0  0  0  0  0  0  0  0
   20.6401   -5.1666  -15.8748 N   0  0  0  0  0  0  0  0  0  0  0  0
   22.2340   -4.8678  -14.1284 C   0  0  0  0  0  0  0  0  0  0  0  0
   23.0658   -5.0596  -15.0386 O   0  0  0  0  0  0  0  0  0  0  0  0
   20.8852   -8.0543  -15.0427 C   0  0  0  0  0  0  0  0  0  0  0  0
   21.5482   -9.2587  -15.1308 C   0  0  0  0  0  0  0  0  0  0  0  0
   22.7202   -4.6262  -12.8487 O   0  0  0  0  0  0  0  0  0  0  0  0
  2  5  1  0
  2  1  1  6
  3  2  1  0
  3  4  1  0
  5  6  2  0
  7  5  1  0
  7  8  1  0
  8 13  1  0
  8  9  1  6
 10  9  1  0
 10 11  1  0
 11 15  1  0
 11 12  2  0
 13 14  2  0
 16 17  1  0
 17 27  2  0
 18 17  1  0
 18 19  2  0
 19 20  1  0
 20 26  2  0
 20 21  1  0
 22 21  1  1
 22 23  1  0
 22 24  1  0
 23 13  1  0
 24 25  2  0
 24 28  1  0
 27 26  1  0
M  END
$$$$
