CEY.pdb
     RDKit          3D

 28 28  0  0  1  0  0  0  0  0999 V2000
   27.1352  -25.8198  -17.3318 N   0  0  0  0  0  0  0  0  0  0  0  0
   25.8340  -25.3386  -16.9581 C   0  0  1  0  0  0  0  0  0  0  0  0
   25.0812  -26.3637  -16.1477 C   0  0  0  0  0  0  0  0  0  0  0  0
   24.7112  -27.7888  -17.2135 S   0  0  0  0  0  0  0  0  0  0  0  0
   25.8747  -24.0204  -16.2628 C   0  0  0  0  0  0  0  0  0  0  0  0
   26.9345  -23.7160  -15.6929 O   0  0  0  0  0  0  0  0  0  0  0  0
   24.7427  -23.1901  -16.2769 N   0  0  0  0  0  0  0  0  0  0  0  0
   24.7231  -21.8943  -15.6478 C   0  0  1  0  0  0  0  0  0  0  0  0
   23.9095  -20.8920  -16.3876 C   0  0  0  0  0  0  0  0  0  0  0  0
   23.8563  -19.5445  -15.7147 C   0  0  0  0  0  0  0  0  0  0  0  0
   23.0276  -18.6535  -16.5776 C   0  0  0  0  0  0  0  0  0  0  0  0
   22.3048  -17.7416  -16.1112 O   0  0  0  0  0  0  0  0  0  0  0  0
   24.5436  -21.9043  -14.1848 C   0  0  0  0  0  0  0  0  0  0  0  0
   23.6212  -22.4462  -13.5404 O   0  0  0  0  0  0  0  0  0  0  0  0
   23.0370  -18.8183  -17.9667 O   0  0  0  0  0  0  0  0  0  0  0  0
   26.8611  -20.0410   -5.7765 O   0  0  0  0  0  0  0  0  0  0  0  0
   26.7933  -20.1139   -7.1669 C   0  0  0  0  0  0  0  0  0  0  0  0
   27.0242  -21.3211   -7.8092 C   0  0  0  0  0  0  0  0  0  0  0  0
   26.9654  -21.4279   -9.1733 C   0  0  0  0  0  0  0  0  0  0  0  0
   26.6698  -20.3200   -9.9647 C   0  0  0  0  0  0  0  0  0  0  0  0
   26.6303  -20.4849  -11.4151 C   0  0  0  0  0  0  0  0  0  0  0  0
   25.3833  -21.1530  -11.9458 C   0  0  2  0  0  0  0  0  0  0  0  0
   25.5273  -21.2217  -13.3936 N   0  0  0  0  0  0  0  0  0  0  0  0
   24.2156  -20.3126  -11.6236 C   0  0  0  0  0  0  0  0  0  0  0  0
   23.6151  -20.4946  -10.5449 O   0  0  0  0  0  0  0  0  0  0  0  0
   26.4425  -19.1298   -9.3327 C   0  0  0  0  0  0  0  0  0  0  0  0
   26.5023  -19.0259   -7.9602 C   0  0  0  0  0  0  0  0  0  0  0  0
   23.7410  -19.3152  -12.4675 O   0  0  0  0  0  0  0  0  0  0  0  0
  2  5  1  0
  2  1  1  1
  3  2  1  0
  3  4  1  0
  5  6  2  0
  7  5  1  0
  7  8  1  0
  8 13  1  0
  8  9  1  6
 10  9  1  0
 10 11  1  0
 11 15  1  0
 11 12  2  0
 13 14  2  0
 16 17  1  0
 17 27  2  0
 18 17  1  0
 18 19  2  0
 19 20  1  0
 20 26  2  0
 20 21  1  0
 22 21  1  1
 22 23  1  0
 22 24  1  0
 23 13  1  0
 24 25  2  0
 24 28  1  0
 27 26  1  0
M  END
$$$$
