CEY.pdb
     RDKit          3D

 28 28  0  0  1  0  0  0  0  0999 V2000
   23.7694  -13.1142  -18.6116 N   0  0  0  0  0  0  0  0  0  0  0  0
   23.3737  -12.9589  -17.2392 C   0  0  1  0  0  0  0  0  0  0  0  0
   24.5243  -12.4880  -16.3857 C   0  0  0  0  0  0  0  0  0  0  0  0
   25.7857  -13.7958  -16.3387 S   0  0  0  0  0  0  0  0  0  0  0  0
   22.1786  -12.0837  -17.0699 C   0  0  0  0  0  0  0  0  0  0  0  0
   22.1229  -11.0630  -17.7741 O   0  0  0  0  0  0  0  0  0  0  0  0
   21.1831  -12.4354  -16.1446 N   0  0  0  0  0  0  0  0  0  0  0  0
   20.0139  -11.6250  -15.9174 C   0  0  1  0  0  0  0  0  0  0  0  0
   18.8114  -12.4170  -15.5426 C   0  0  0  0  0  0  0  0  0  0  0  0
   18.3216  -13.3248  -16.6413 C   0  0  0  0  0  0  0  0  0  0  0  0
   17.1193  -14.0380  -16.1206 C   0  0  0  0  0  0  0  0  0  0  0  0
   16.0503  -14.1247  -16.7697 O   0  0  0  0  0  0  0  0  0  0  0  0
   20.2377  -10.3982  -15.1316 C   0  0  0  0  0  0  0  0  0  0  0  0
   20.9164  -10.2815  -14.0898 O   0  0  0  0  0  0  0  0  0  0  0  0
   17.1563  -14.6443  -14.8605 O   0  0  0  0  0  0  0  0  0  0  0  0
   23.1508   -2.3836  -14.3905 O   0  0  0  0  0  0  0  0  0  0  0  0
   22.7613   -3.7019  -14.6217 C   0  0  0  0  0  0  0  0  0  0  0  0
   21.5954   -4.1899  -14.0509 C   0  0  0  0  0  0  0  0  0  0  0  0
   21.1836   -5.4796  -14.2576 C   0  0  0  0  0  0  0  0  0  0  0  0
   21.9275   -6.3485  -15.0531 C   0  0  0  0  0  0  0  0  0  0  0  0
   21.4505   -7.7169  -15.2325 C   0  0  0  0  0  0  0  0  0  0  0  0
   19.9691   -7.9093  -15.0051 C   0  0  2  0  0  0  0  0  0  0  0  0
   19.6161   -9.1918  -15.5985 N   0  0  0  0  0  0  0  0  0  0  0  0
   19.2341   -6.8419  -15.7078 C   0  0  0  0  0  0  0  0  0  0  0  0
   19.1153   -6.9012  -16.9485 O   0  0  0  0  0  0  0  0  0  0  0  0
   23.0767   -5.8686  -15.6157 C   0  0  0  0  0  0  0  0  0  0  0  0
   23.4880   -4.5706  -15.4059 C   0  0  0  0  0  0  0  0  0  0  0  0
   18.6584   -5.7585  -15.0542 O   0  0  0  0  0  0  0  0  0  0  0  0
  2  5  1  0
  2  1  1  6
  3  2  1  0
  3  4  1  0
  5  6  2  0
  7  5  1  0
  7  8  1  0
  8 13  1  0
  8  9  1  1
 10  9  1  0
 10 11  1  0
 11 15  1  0
 11 12  2  0
 13 14  2  0
 16 17  1  0
 17 27  2  0
 18 17  1  0
 18 19  2  0
 19 20  1  0
 20 26  2  0
 20 21  1  0
 22 21  1  6
 22 23  1  0
 22 24  1  0
 23 13  1  0
 24 25  2  0
 24 28  1  0
 27 26  1  0
M  END
$$$$
