TIQ.pdb
     RDKit          3D

 25 24  0  0  1  0  0  0  0  0999 V2000
    5.8785  -17.5498   22.5495 C   0  0  0  0  0  0  0  0  0  0  0  0
    6.6332  -16.9477   21.3818 C   0  0  1  0  0  0  0  0  0  0  0  0
    5.9539  -17.3078   20.2222 O   0  0  0  0  0  0  0  0  0  0  0  0
    6.6782  -15.4607   21.5748 C   0  0  2  0  0  0  0  0  0  0  0  0
    7.0028  -14.8359   20.3084 N   0  0  0  0  0  0  0  0  0  0  0  0
    7.5796  -15.0214   22.6340 C   0  0  0  0  0  0  0  0  0  0  0  0
    8.8146  -15.0114   22.4169 O   0  0  0  0  0  0  0  0  0  0  0  0
    5.7841  -11.3315   26.2497 C   0  0  0  0  0  0  0  0  0  0  0  0
    6.6434  -12.1297   25.2942 C   0  0  0  0  0  0  0  0  0  0  0  0
    7.1784  -13.3854   25.9401 C   0  0  2  0  0  0  0  0  0  0  0  0
    8.0987  -12.9646   27.0665 C   0  0  0  0  0  0  0  0  0  0  0  0
    7.9545  -14.2429   25.0031 C   0  0  2  0  0  0  0  0  0  0  0  0
    7.0986  -14.6070   23.8977 N   0  0  0  0  0  0  0  0  0  0  0  0
    8.5128  -15.4565   25.6566 C   0  0  0  0  0  0  0  0  0  0  0  0
    7.8253  -16.2394   26.3524 O   0  0  0  0  0  0  0  0  0  0  0  0
    7.9253  -20.5707   25.8773 N   0  0  0  0  0  0  0  0  0  0  0  0
    9.3559  -20.3014   25.9508 C   0  0  0  0  0  0  0  0  0  0  0  0
    9.9088  -20.8417   26.9286 O   0  0  0  0  0  0  0  0  0  0  0  0
    9.9746  -19.4733   24.9426 C   0  0  0  0  0  0  0  0  0  0  0  0
    9.6891  -18.0381   24.8403 C   0  0  0  0  0  0  0  0  0  0  0  0
   10.3632  -17.1060   25.8097 C   0  0  2  0  0  0  0  0  0  0  0  0
    9.8866  -15.7473   25.4886 N   0  0  0  0  0  0  0  0  0  0  0  0
   11.8094  -17.1958   25.7224 C   0  0  0  0  0  0  0  0  0  0  0  0
   12.5648  -18.0290   26.2608 O   0  0  0  0  0  0  0  0  0  0  0  0
   12.4454  -16.2202   24.9208 O   0  0  0  0  0  0  0  0  0  0  0  0
  2  1  1  1
  3  2  1  0
  4  2  1  0
  4  6  1  0
  4  5  1  6
  6 13  1  0
  7  6  2  0
  9 10  1  0
  9  8  1  0
 10 12  1  0
 10 11  1  1
 12 14  1  0
 12 13  1  6
 14 15  2  0
 16 17  1  0
 17 19  1  0
 18 17  2  0
 19 20  1  0
 21 20  1  6
 21 23  1  0
 22 14  1  0
 22 21  1  0
 23 24  2  0
 23 25  1  0
M  END
$$$$
