TIQ.pdb
     RDKit          3D

 25 24  0  0  1  0  0  0  0  0999 V2000
    6.3335  -14.1376   18.6175 C   0  0  0  0  0  0  0  0  0  0  0  0
    6.9411  -14.5465   19.9438 C   0  0  1  0  0  0  0  0  0  0  0  0
    7.9394  -15.4763   19.6709 O   0  0  0  0  0  0  0  0  0  0  0  0
    7.4795  -13.3138   20.6079 C   0  0  2  0  0  0  0  0  0  0  0  0
    8.4332  -12.6834   19.7174 N   0  0  0  0  0  0  0  0  0  0  0  0
    8.0545  -13.5472   21.9279 C   0  0  0  0  0  0  0  0  0  0  0  0
    9.2943  -13.7028   22.0328 O   0  0  0  0  0  0  0  0  0  0  0  0
    5.5624  -11.3005   26.2680 C   0  0  0  0  0  0  0  0  0  0  0  0
    6.6082  -11.8015   25.2965 C   0  0  0  0  0  0  0  0  0  0  0  0
    6.8061  -13.2942   25.4096 C   0  0  2  0  0  0  0  0  0  0  0  0
    7.3414  -13.5814   26.7966 C   0  0  0  0  0  0  0  0  0  0  0  0
    7.7750  -13.8350   24.4175 C   0  0  2  0  0  0  0  0  0  0  0  0
    7.2519  -13.6029   23.0910 N   0  0  0  0  0  0  0  0  0  0  0  0
    8.0672  -15.2789   24.6213 C   0  0  0  0  0  0  0  0  0  0  0  0
    7.1791  -16.1624   24.6448 O   0  0  0  0  0  0  0  0  0  0  0  0
   12.7255  -18.5743   21.9021 N   0  0  0  0  0  0  0  0  0  0  0  0
   12.5997  -19.1059   23.2534 C   0  0  0  0  0  0  0  0  0  0  0  0
   13.5525  -19.8380   23.5849 O   0  0  0  0  0  0  0  0  0  0  0  0
   11.4432  -18.7615   24.0463 C   0  0  0  0  0  0  0  0  0  0  0  0
   10.8758  -17.4087   24.0373 C   0  0  0  0  0  0  0  0  0  0  0  0
    9.7030  -17.1212   24.9343 C   0  0  2  0  0  0  0  0  0  0  0  0
    9.4113  -15.6815   24.7981 N   0  0  0  0  0  0  0  0  0  0  0  0
    9.9825  -17.4781   26.3133 C   0  0  0  0  0  0  0  0  0  0  0  0
    9.9229  -18.6037   26.8464 O   0  0  0  0  0  0  0  0  0  0  0  0
   10.3795  -16.4187   27.1612 O   0  0  0  0  0  0  0  0  0  0  0  0
  2  1  1  6
  3  2  1  0
  4  2  1  0
  4  6  1  0
  4  5  1  6
  6 13  1  0
  7  6  2  0
  9 10  1  0
  9  8  1  0
 10 12  1  0
 10 11  1  1
 12 14  1  0
 12 13  1  6
 14 15  2  0
 16 17  1  0
 17 19  1  0
 18 17  2  0
 19 20  1  0
 21 20  1  6
 21 23  1  0
 22 14  1  0
 22 21  1  0
 23 24  2  0
 23 25  1  0
M  END
$$$$
