TIQ.pdb
     RDKit          3D

 25 24  0  0  1  0  0  0  0  0999 V2000
    6.6084  -17.1846   19.8527 C   0  0  0  0  0  0  0  0  0  0  0  0
    7.2027  -16.8479   21.2051 C   0  0  1  0  0  0  0  0  0  0  0  0
    8.2627  -17.7234   21.4192 O   0  0  0  0  0  0  0  0  0  0  0  0
    7.6471  -15.4155   21.1736 C   0  0  2  0  0  0  0  0  0  0  0  0
    8.5156  -15.2218   20.0301 N   0  0  0  0  0  0  0  0  0  0  0  0
    8.2768  -14.9566   22.4067 C   0  0  0  0  0  0  0  0  0  0  0  0
    9.5284  -14.9411   22.4816 O   0  0  0  0  0  0  0  0  0  0  0  0
    6.7300  -11.5958   27.3382 C   0  0  0  0  0  0  0  0  0  0  0  0
    7.6754  -12.6136   26.7392 C   0  0  0  0  0  0  0  0  0  0  0  0
    7.1485  -13.1665   25.4365 C   0  0  2  0  0  0  0  0  0  0  0  0
    5.8688  -13.9164   25.7415 C   0  0  0  0  0  0  0  0  0  0  0  0
    8.0915  -14.1087   24.7743 C   0  0  2  0  0  0  0  0  0  0  0  0
    7.5144  -14.5295   23.5186 N   0  0  0  0  0  0  0  0  0  0  0  0
    8.4230  -15.2861   25.6203 C   0  0  0  0  0  0  0  0  0  0  0  0
    7.5891  -16.1713   25.9219 O   0  0  0  0  0  0  0  0  0  0  0  0
   13.7718  -18.3240   25.1587 N   0  0  0  0  0  0  0  0  0  0  0  0
   12.7042  -17.8172   24.3056 C   0  0  0  0  0  0  0  0  0  0  0  0
   12.9440  -17.9447   23.0890 O   0  0  0  0  0  0  0  0  0  0  0  0
   11.5275  -17.2385   24.9100 C   0  0  0  0  0  0  0  0  0  0  0  0
   11.3731  -17.1463   26.3658 C   0  0  0  0  0  0  0  0  0  0  0  0
   10.0781  -16.6116   26.9133 C   0  0  2  0  0  0  0  0  0  0  0  0
    9.7422  -15.4193   26.1121 N   0  0  0  0  0  0  0  0  0  0  0  0
   10.1846  -16.2900   28.3248 C   0  0  0  0  0  0  0  0  0  0  0  0
   10.1249  -15.1691   28.8675 O   0  0  0  0  0  0  0  0  0  0  0  0
   10.3736  -17.3849   29.1991 O   0  0  0  0  0  0  0  0  0  0  0  0
  2  1  1  6
  3  2  1  0
  4  2  1  0
  4  6  1  0
  4  5  1  6
  6 13  1  0
  7  6  2  0
  9 10  1  0
  9  8  1  0
 10 12  1  0
 10 11  1  1
 12 14  1  0
 12 13  1  6
 14 15  2  0
 16 17  1  0
 17 19  1  0
 18 17  2  0
 19 20  1  0
 21 20  1  6
 21 23  1  0
 22 14  1  0
 22 21  1  0
 23 24  2  0
 23 25  1  0
M  END
$$$$
