TIQ.pdb
     RDKit          3D

 25 24  0  0  1  0  0  0  0  0999 V2000
    6.7670  -16.8578   21.2474 C   0  0  0  0  0  0  0  0  0  0  0  0
    7.5390  -15.8800   20.3853 C   0  0  1  0  0  0  0  0  0  0  0  0
    7.0826  -16.0318   19.0798 O   0  0  0  0  0  0  0  0  0  0  0  0
    7.2930  -14.4984   20.9156 C   0  0  2  0  0  0  0  0  0  0  0  0
    7.6777  -13.5353   19.9036 N   0  0  0  0  0  0  0  0  0  0  0  0
    7.9440  -14.2219   22.1913 C   0  0  0  0  0  0  0  0  0  0  0  0
    9.1638  -13.9314   22.2017 O   0  0  0  0  0  0  0  0  0  0  0  0
    5.2737  -11.6779   26.1908 C   0  0  0  0  0  0  0  0  0  0  0  0
    6.3629  -12.1699   25.2634 C   0  0  0  0  0  0  0  0  0  0  0  0
    6.8444  -13.5482   25.6491 C   0  0  2  0  0  0  0  0  0  0  0  0
    7.4803  -13.4444   27.0194 C   0  0  0  0  0  0  0  0  0  0  0  0
    7.8570  -14.1010   24.7086 C   0  0  2  0  0  0  0  0  0  0  0  0
    7.2371  -14.2729   23.4151 N   0  0  0  0  0  0  0  0  0  0  0  0
    8.4484  -15.3810   25.1815 C   0  0  0  0  0  0  0  0  0  0  0  0
    7.7634  -16.3935   25.4565 O   0  0  0  0  0  0  0  0  0  0  0  0
   14.4930  -16.9429   23.8107 N   0  0  0  0  0  0  0  0  0  0  0  0
   13.9491  -18.0880   24.5299 C   0  0  0  0  0  0  0  0  0  0  0  0
   14.7436  -19.0456   24.6035 O   0  0  0  0  0  0  0  0  0  0  0  0
   12.6084  -18.0200   25.0619 C   0  0  0  0  0  0  0  0  0  0  0  0
   11.7940  -16.8051   24.9501 C   0  0  0  0  0  0  0  0  0  0  0  0
   10.4500  -16.7828   25.6252 C   0  0  2  0  0  0  0  0  0  0  0  0
    9.8521  -15.4667   25.3303 N   0  0  0  0  0  0  0  0  0  0  0  0
   10.5643  -17.0056   27.0551 C   0  0  0  0  0  0  0  0  0  0  0  0
   10.5401  -16.1611   27.9720 O   0  0  0  0  0  0  0  0  0  0  0  0
   10.7158  -18.3503   27.4643 O   0  0  0  0  0  0  0  0  0  0  0  0
  2  1  1  1
  3  2  1  0
  4  2  1  0
  4  6  1  0
  4  5  1  6
  6 13  1  0
  7  6  2  0
  9 10  1  0
  9  8  1  0
 10 12  1  0
 10 11  1  1
 12 14  1  0
 12 13  1  6
 14 15  2  0
 16 17  1  0
 17 19  1  0
 18 17  2  0
 19 20  1  0
 21 20  1  6
 21 23  1  0
 22 14  1  0
 22 21  1  0
 23 24  2  0
 23 25  1  0
M  END
$$$$
