TIQ.pdb
     RDKit          3D

 25 24  0  0  1  0  0  0  0  0999 V2000
    6.4795  -16.5389   21.0479 C   0  0  0  0  0  0  0  0  0  0  0  0
    7.3445  -15.5856   20.2488 C   0  0  1  0  0  0  0  0  0  0  0  0
    6.8925  -15.6227   18.9335 O   0  0  0  0  0  0  0  0  0  0  0  0
    7.2137  -14.2199   20.8556 C   0  0  2  0  0  0  0  0  0  0  0  0
    7.6466  -13.2351   19.8849 N   0  0  0  0  0  0  0  0  0  0  0  0
    7.9113  -14.0601   22.1266 C   0  0  0  0  0  0  0  0  0  0  0  0
    9.1542  -13.8940   22.1219 O   0  0  0  0  0  0  0  0  0  0  0  0
    5.3389  -11.4704   26.1135 C   0  0  0  0  0  0  0  0  0  0  0  0
    6.4368  -11.9765   25.2040 C   0  0  0  0  0  0  0  0  0  0  0  0
    6.9032  -13.3555   25.6054 C   0  0  2  0  0  0  0  0  0  0  0  0
    7.5857  -13.2342   26.9517 C   0  0  0  0  0  0  0  0  0  0  0  0
    7.8734  -13.9497   24.6456 C   0  0  2  0  0  0  0  0  0  0  0  0
    7.2242  -14.0874   23.3624 N   0  0  0  0  0  0  0  0  0  0  0  0
    8.4136  -15.2574   25.1036 C   0  0  0  0  0  0  0  0  0  0  0  0
    7.6874  -16.2356   25.3965 O   0  0  0  0  0  0  0  0  0  0  0  0
   14.3619  -17.1323   23.7069 N   0  0  0  0  0  0  0  0  0  0  0  0
   13.8688  -18.1343   24.6437 C   0  0  0  0  0  0  0  0  0  0  0  0
   14.6991  -19.0317   24.8866 O   0  0  0  0  0  0  0  0  0  0  0  0
   12.5326  -18.0103   25.1766 C   0  0  0  0  0  0  0  0  0  0  0  0
   11.6745  -16.8659   24.8512 C   0  0  0  0  0  0  0  0  0  0  0  0
   10.3518  -16.7427   25.5569 C   0  0  2  0  0  0  0  0  0  0  0  0
    9.8149  -15.4115   25.2163 N   0  0  0  0  0  0  0  0  0  0  0  0
   10.4925  -16.9071   26.9922 C   0  0  0  0  0  0  0  0  0  0  0  0
   10.6257  -16.0227   27.8609 O   0  0  0  0  0  0  0  0  0  0  0  0
   10.4693  -18.2373   27.4706 O   0  0  0  0  0  0  0  0  0  0  0  0
  2  1  1  1
  3  2  1  0
  4  2  1  0
  4  6  1  0
  4  5  1  6
  6 13  1  0
  7  6  2  0
  9 10  1  0
  9  8  1  0
 10 12  1  0
 10 11  1  1
 12 14  1  0
 12 13  1  6
 14 15  2  0
 16 17  1  0
 17 19  1  0
 18 17  2  0
 19 20  1  0
 21 20  1  6
 21 23  1  0
 22 14  1  0
 22 21  1  0
 23 24  2  0
 23 25  1  0
M  END
$$$$
