TIQ.pdb
     RDKit          3D

 25 24  0  0  1  0  0  0  0  0999 V2000
    6.2604  -14.6970   18.8597 C   0  0  0  0  0  0  0  0  0  0  0  0
    6.9365  -14.9364   20.1942 C   0  0  1  0  0  0  0  0  0  0  0  0
    8.0018  -15.8021   19.9673 O   0  0  0  0  0  0  0  0  0  0  0  0
    7.3873  -13.6101   20.7312 C   0  0  2  0  0  0  0  0  0  0  0  0
    8.2419  -12.9753   19.7482 N   0  0  0  0  0  0  0  0  0  0  0  0
    8.0350  -13.6813   22.0361 C   0  0  0  0  0  0  0  0  0  0  0  0
    9.2865  -13.7362   22.0921 O   0  0  0  0  0  0  0  0  0  0  0  0
    5.5450  -11.2059   26.1746 C   0  0  0  0  0  0  0  0  0  0  0  0
    6.6201  -11.7327   25.2498 C   0  0  0  0  0  0  0  0  0  0  0  0
    6.9456  -13.1787   25.5383 C   0  0  2  0  0  0  0  0  0  0  0  0
    7.5951  -13.2381   26.9048 C   0  0  0  0  0  0  0  0  0  0  0  0
    7.8858  -13.7771   24.5516 C   0  0  2  0  0  0  0  0  0  0  0  0
    7.2902  -13.6901   23.2383 N   0  0  0  0  0  0  0  0  0  0  0  0
    8.2442  -15.1842   24.8732 C   0  0  0  0  0  0  0  0  0  0  0  0
    7.3971  -16.1011   24.9804 O   0  0  0  0  0  0  0  0  0  0  0  0
   13.6722  -17.7831   22.9554 N   0  0  0  0  0  0  0  0  0  0  0  0
   13.1673  -18.7271   23.9447 C   0  0  0  0  0  0  0  0  0  0  0  0
   13.8966  -19.7279   24.0870 O   0  0  0  0  0  0  0  0  0  0  0  0
   11.9312  -18.4396   24.6333 C   0  0  0  0  0  0  0  0  0  0  0  0
   11.2716  -17.1339   24.5234 C   0  0  0  0  0  0  0  0  0  0  0  0
    9.9718  -16.9279   25.2518 C   0  0  2  0  0  0  0  0  0  0  0  0
    9.6063  -15.5104   25.0690 N   0  0  0  0  0  0  0  0  0  0  0  0
   10.0850  -17.2699   26.6580 C   0  0  0  0  0  0  0  0  0  0  0  0
   10.1957  -16.5005   27.6328 O   0  0  0  0  0  0  0  0  0  0  0  0
   10.0603  -18.6496   26.9660 O   0  0  0  0  0  0  0  0  0  0  0  0
  2  1  1  6
  3  2  1  0
  4  2  1  0
  4  6  1  0
  4  5  1  6
  6 13  1  0
  7  6  2  0
  9 10  1  0
  9  8  1  0
 10 12  1  0
 10 11  1  1
 12 14  1  0
 12 13  1  6
 14 15  2  0
 16 17  1  0
 17 19  1  0
 18 17  2  0
 19 20  1  0
 21 20  1  6
 21 23  1  0
 22 14  1  0
 22 21  1  0
 23 24  2  0
 23 25  1  0
M  END
$$$$
