TIQ.pdb
     RDKit          3D

 25 24  0  0  1  0  0  0  0  0999 V2000
    7.9946  -18.6747   14.4893 C   0  0  0  0  0  0  0  0  0  0  0  0
    8.7877  -17.9581   15.5631 C   0  0  1  0  0  0  0  0  0  0  0  0
   10.0869  -18.4537   15.5160 O   0  0  0  0  0  0  0  0  0  0  0  0
    8.7309  -16.4863   15.2783 C   0  0  2  0  0  0  0  0  0  0  0  0
    9.2122  -16.2532   13.9315 N   0  0  0  0  0  0  0  0  0  0  0  0
    9.4398  -15.6607   16.2495 C   0  0  0  0  0  0  0  0  0  0  0  0
   10.5641  -15.1950   15.9469 O   0  0  0  0  0  0  0  0  0  0  0  0
    6.3598  -13.0523   20.0340 C   0  0  0  0  0  0  0  0  0  0  0  0
    7.4534  -13.2654   19.0108 C   0  0  0  0  0  0  0  0  0  0  0  0
    8.5486  -14.1593   19.5417 C   0  0  2  0  0  0  0  0  0  0  0  0
    9.2696  -13.3998   20.6355 C   0  0  0  0  0  0  0  0  0  0  0  0
    9.5477  -14.5419   18.5068 C   0  0  2  0  0  0  0  0  0  0  0  0
    8.8938  -15.3718   17.5217 N   0  0  0  0  0  0  0  0  0  0  0  0
   10.7330  -15.2372   19.0756 C   0  0  0  0  0  0  0  0  0  0  0  0
   10.7142  -16.4336   19.4471 O   0  0  0  0  0  0  0  0  0  0  0  0
   16.5963  -13.4650   17.3529 N   0  0  0  0  0  0  0  0  0  0  0  0
   16.8116  -14.4147   18.4374 C   0  0  0  0  0  0  0  0  0  0  0  0
   18.0166  -14.6026   18.6950 O   0  0  0  0  0  0  0  0  0  0  0  0
   15.6731  -15.0261   19.0814 C   0  0  0  0  0  0  0  0  0  0  0  0
   14.3057  -14.5489   18.8483 C   0  0  0  0  0  0  0  0  0  0  0  0
   13.1739  -15.2649   19.5332 C   0  0  2  0  0  0  0  0  0  0  0  0
   11.9440  -14.5186   19.2064 N   0  0  0  0  0  0  0  0  0  0  0  0
   13.3805  -15.3458   20.9677 C   0  0  0  0  0  0  0  0  0  0  0  0
   14.1651  -16.0853   21.5939 O   0  0  0  0  0  0  0  0  0  0  0  0
   12.5993  -14.4720   21.7584 O   0  0  0  0  0  0  0  0  0  0  0  0
  2  1  1  6
  3  2  1  0
  4  2  1  0
  4  6  1  0
  4  5  1  6
  6 13  1  0
  7  6  2  0
  9 10  1  0
  9  8  1  0
 10 12  1  0
 10 11  1  1
 12 14  1  0
 12 13  1  6
 14 15  2  0
 16 17  1  0
 17 19  1  0
 18 17  2  0
 19 20  1  0
 21 20  1  6
 21 23  1  0
 22 14  1  0
 22 21  1  0
 23 24  2  0
 23 25  1  0
M  END
$$$$
