TIQ.pdb
     RDKit          3D

 25 24  0  0  1  0  0  0  0  0999 V2000
    7.9381  -19.3318   18.7318 C   0  0  0  0  0  0  0  0  0  0  0  0
    8.7498  -19.0626   17.4811 C   0  0  1  0  0  0  0  0  0  0  0  0
    8.1868  -19.8140   16.4544 O   0  0  0  0  0  0  0  0  0  0  0  0
    8.6974  -17.5897   17.2013 C   0  0  2  0  0  0  0  0  0  0  0  0
    9.3362  -17.3345   15.9259 N   0  0  0  0  0  0  0  0  0  0  0  0
    9.2633  -16.7589   18.2581 C   0  0  0  0  0  0  0  0  0  0  0  0
   10.5014  -16.5608   18.2794 O   0  0  0  0  0  0  0  0  0  0  0  0
    6.6762  -12.3285   20.0442 C   0  0  0  0  0  0  0  0  0  0  0  0
    7.7557  -13.3158   19.6587 C   0  0  0  0  0  0  0  0  0  0  0  0
    7.9620  -14.3630   20.7269 C   0  0  2  0  0  0  0  0  0  0  0  0
    8.4442  -13.6549   21.9755 C   0  0  0  0  0  0  0  0  0  0  0  0
    8.9744  -15.3891   20.3556 C   0  0  2  0  0  0  0  0  0  0  0  0
    8.4541  -16.1716   19.2582 N   0  0  0  0  0  0  0  0  0  0  0  0
    9.3523  -16.2680   21.4941 C   0  0  0  0  0  0  0  0  0  0  0  0
    8.5357  -17.0072   22.0914 O   0  0  0  0  0  0  0  0  0  0  0  0
   14.2593  -20.1458   21.6235 N   0  0  0  0  0  0  0  0  0  0  0  0
   13.7748  -18.9562   20.9346 C   0  0  0  0  0  0  0  0  0  0  0  0
   14.5236  -18.5835   20.0104 O   0  0  0  0  0  0  0  0  0  0  0  0
   12.5395  -18.3428   21.3618 C   0  0  0  0  0  0  0  0  0  0  0  0
   12.3815  -17.7805   22.7074 C   0  0  0  0  0  0  0  0  0  0  0  0
   11.0666  -17.1426   23.0640 C   0  0  2  0  0  0  0  0  0  0  0  0
   10.6979  -16.2748   21.9294 N   0  0  0  0  0  0  0  0  0  0  0  0
   11.1542  -16.3895   24.3019 C   0  0  0  0  0  0  0  0  0  0  0  0
   11.3387  -16.8218   25.4567 O   0  0  0  0  0  0  0  0  0  0  0  0
   11.0204  -14.9868   24.1867 O   0  0  0  0  0  0  0  0  0  0  0  0
  2  1  1  1
  3  2  1  0
  4  2  1  0
  4  6  1  0
  4  5  1  6
  6 13  1  0
  7  6  2  0
  9 10  1  0
  9  8  1  0
 10 12  1  0
 10 11  1  1
 12 14  1  0
 12 13  1  6
 14 15  2  0
 16 17  1  0
 17 19  1  0
 18 17  2  0
 19 20  1  0
 21 20  1  6
 21 23  1  0
 22 14  1  0
 22 21  1  0
 23 24  2  0
 23 25  1  0
M  END
$$$$
