TIQ.pdb
     RDKit          3D

 25 24  0  0  1  0  0  0  0  0999 V2000
    6.2391  -16.5221   20.0326 C   0  0  0  0  0  0  0  0  0  0  0  0
    7.0047  -16.3497   21.3286 C   0  0  1  0  0  0  0  0  0  0  0  0
    8.1526  -17.1304   21.2363 O   0  0  0  0  0  0  0  0  0  0  0  0
    7.3208  -14.8923   21.4911 C   0  0  2  0  0  0  0  0  0  0  0  0
    8.0098  -14.4295   20.3034 N   0  0  0  0  0  0  0  0  0  0  0  0
    8.0694  -14.5733   22.7016 C   0  0  0  0  0  0  0  0  0  0  0  0
    9.3191  -14.4901   22.6401 O   0  0  0  0  0  0  0  0  0  0  0  0
    5.5876  -11.5255   26.3511 C   0  0  0  0  0  0  0  0  0  0  0  0
    6.7461  -12.0824   25.5534 C   0  0  0  0  0  0  0  0  0  0  0  0
    7.2275  -13.3997   26.1131 C   0  0  2  0  0  0  0  0  0  0  0  0
    7.9996  -13.1035   27.3815 C   0  0  0  0  0  0  0  0  0  0  0  0
    8.1264  -14.1386   25.1849 C   0  0  2  0  0  0  0  0  0  0  0  0
    7.4243  -14.3557   23.9411 N   0  0  0  0  0  0  0  0  0  0  0  0
    8.6068  -15.4283   25.7485 C   0  0  0  0  0  0  0  0  0  0  0  0
    7.8371  -16.3473   26.1132 O   0  0  0  0  0  0  0  0  0  0  0  0
   13.6135  -15.5138   24.1314 N   0  0  0  0  0  0  0  0  0  0  0  0
   12.7224  -16.4550   23.4645 C   0  0  0  0  0  0  0  0  0  0  0  0
   12.8152  -16.4245   22.2219 O   0  0  0  0  0  0  0  0  0  0  0  0
   11.8533  -17.2923   24.2572 C   0  0  0  0  0  0  0  0  0  0  0  0
   11.8055  -17.1896   25.7198 C   0  0  0  0  0  0  0  0  0  0  0  0
   10.4739  -16.9418   26.3742 C   0  0  2  0  0  0  0  0  0  0  0  0
    9.9995  -15.6343   25.8824 N   0  0  0  0  0  0  0  0  0  0  0  0
   10.5765  -16.9589   27.8221 C   0  0  0  0  0  0  0  0  0  0  0  0
   10.8205  -17.9285   28.5670 O   0  0  0  0  0  0  0  0  0  0  0  0
   10.3822  -15.7193   28.4736 O   0  0  0  0  0  0  0  0  0  0  0  0
  2  1  1  6
  3  2  1  0
  4  2  1  0
  4  6  1  0
  4  5  1  6
  6 13  1  0
  7  6  2  0
  9 10  1  0
  9  8  1  0
 10 12  1  0
 10 11  1  1
 12 14  1  0
 12 13  1  6
 14 15  2  0
 16 17  1  0
 17 19  1  0
 18 17  2  0
 19 20  1  0
 21 20  1  6
 21 23  1  0
 22 14  1  0
 22 21  1  0
 23 24  2  0
 23 25  1  0
M  END
$$$$
