TIQ.pdb
     RDKit          3D

 25 24  0  0  1  0  0  0  0  0999 V2000
    6.2682  -17.6433   22.9959 C   0  0  0  0  0  0  0  0  0  0  0  0
    6.7206  -16.9638   21.7195 C   0  0  1  0  0  0  0  0  0  0  0  0
    5.8880  -17.4093   20.6978 O   0  0  0  0  0  0  0  0  0  0  0  0
    6.6250  -15.4807   21.9238 C   0  0  2  0  0  0  0  0  0  0  0  0
    6.7609  -14.8236   20.6395 N   0  0  0  0  0  0  0  0  0  0  0  0
    7.5701  -14.9484   22.8990 C   0  0  0  0  0  0  0  0  0  0  0  0
    8.7620  -14.7661   22.5546 O   0  0  0  0  0  0  0  0  0  0  0  0
    5.7689  -11.4561   26.5906 C   0  0  0  0  0  0  0  0  0  0  0  0
    6.7085  -12.1402   25.6222 C   0  0  0  0  0  0  0  0  0  0  0  0
    7.3418  -13.3682   26.2316 C   0  0  2  0  0  0  0  0  0  0  0  0
    8.3119  -12.9023   27.2969 C   0  0  0  0  0  0  0  0  0  0  0  0
    8.0952  -14.1908   25.2462 C   0  0  2  0  0  0  0  0  0  0  0  0
    7.1786  -14.6330   24.2208 N   0  0  0  0  0  0  0  0  0  0  0  0
    8.7859  -15.3515   25.8687 C   0  0  0  0  0  0  0  0  0  0  0  0
    8.1970  -16.2034   26.5739 O   0  0  0  0  0  0  0  0  0  0  0  0
   14.7773  -17.0833   24.1217 N   0  0  0  0  0  0  0  0  0  0  0  0
   14.2935  -18.1368   25.0053 C   0  0  0  0  0  0  0  0  0  0  0  0
   15.1105  -19.0659   25.1567 O   0  0  0  0  0  0  0  0  0  0  0  0
   12.9796  -18.0219   25.5929 C   0  0  0  0  0  0  0  0  0  0  0  0
   12.1299  -16.8488   25.3612 C   0  0  0  0  0  0  0  0  0  0  0  0
   10.8164  -16.7644   26.0895 C   0  0  2  0  0  0  0  0  0  0  0  0
   10.1757  -15.5073   25.6587 N   0  0  0  0  0  0  0  0  0  0  0  0
   10.9982  -16.8015   27.5292 C   0  0  0  0  0  0  0  0  0  0  0  0
   11.0912  -17.8002   28.2698 O   0  0  0  0  0  0  0  0  0  0  0  0
   11.0884  -15.5479   28.1766 O   0  0  0  0  0  0  0  0  0  0  0  0
  2  1  1  1
  3  2  1  0
  4  2  1  0
  4  6  1  0
  4  5  1  6
  6 13  1  0
  7  6  2  0
  9 10  1  0
  9  8  1  0
 10 12  1  0
 10 11  1  1
 12 14  1  0
 12 13  1  6
 14 15  2  0
 16 17  1  0
 17 19  1  0
 18 17  2  0
 19 20  1  0
 21 20  1  6
 21 23  1  0
 22 14  1  0
 22 21  1  0
 23 24  2  0
 23 25  1  0
M  END
$$$$
