TIQ.pdb
     RDKit          3D

 25 24  0  0  1  0  0  0  0  0999 V2000
    6.5910  -16.3741   21.0305 C   0  0  0  0  0  0  0  0  0  0  0  0
    7.4567  -15.3658   20.3030 C   0  0  1  0  0  0  0  0  0  0  0  0
    6.9892  -15.2887   18.9949 O   0  0  0  0  0  0  0  0  0  0  0  0
    7.3474  -14.0544   21.0232 C   0  0  2  0  0  0  0  0  0  0  0  0
    7.8350  -13.0029   20.1535 N   0  0  0  0  0  0  0  0  0  0  0  0
    8.0132  -14.0264   22.3207 C   0  0  0  0  0  0  0  0  0  0  0  0
    9.2534  -13.8461   22.3645 O   0  0  0  0  0  0  0  0  0  0  0  0
    5.8987  -11.4826   26.5318 C   0  0  0  0  0  0  0  0  0  0  0  0
    6.8462  -12.1205   25.5399 C   0  0  0  0  0  0  0  0  0  0  0  0
    7.0371  -13.5925   25.8172 C   0  0  2  0  0  0  0  0  0  0  0  0
    7.6717  -13.7222   27.1859 C   0  0  0  0  0  0  0  0  0  0  0  0
    7.9238  -14.2660   24.8294 C   0  0  2  0  0  0  0  0  0  0  0  0
    7.2984  -14.1971   23.5289 N   0  0  0  0  0  0  0  0  0  0  0  0
    8.2279  -15.6760   25.1914 C   0  0  0  0  0  0  0  0  0  0  0  0
    7.3472  -16.5587   25.3136 O   0  0  0  0  0  0  0  0  0  0  0  0
   13.0642  -18.8155   23.0134 N   0  0  0  0  0  0  0  0  0  0  0  0
   11.9698  -17.9808   22.5339 C   0  0  0  0  0  0  0  0  0  0  0  0
   12.0275  -17.7485   21.3106 O   0  0  0  0  0  0  0  0  0  0  0  0
   10.9705  -17.5163   23.4669 C   0  0  0  0  0  0  0  0  0  0  0  0
   11.0104  -17.8825   24.8868 C   0  0  0  0  0  0  0  0  0  0  0  0
    9.8724  -17.4455   25.7683 C   0  0  2  0  0  0  0  0  0  0  0  0
    9.5754  -16.0456   25.4100 N   0  0  0  0  0  0  0  0  0  0  0  0
   10.2041  -17.5745   27.1756 C   0  0  0  0  0  0  0  0  0  0  0  0
   10.3509  -16.6689   28.0199 O   0  0  0  0  0  0  0  0  0  0  0  0
   10.3769  -18.8932   27.6550 O   0  0  0  0  0  0  0  0  0  0  0  0
  2  1  1  1
  3  2  1  0
  4  2  1  0
  4  6  1  0
  4  5  1  6
  6 13  1  0
  7  6  2  0
  9 10  1  0
  9  8  1  0
 10 12  1  0
 10 11  1  1
 12 14  1  0
 12 13  1  6
 14 15  2  0
 16 17  1  0
 17 19  1  0
 18 17  2  0
 19 20  1  0
 21 20  1  6
 21 23  1  0
 22 14  1  0
 22 21  1  0
 23 24  2  0
 23 25  1  0
M  END
$$$$
