TIQ.pdb
     RDKit          3D

 25 24  0  0  1  0  0  0  0  0999 V2000
    5.5588  -16.3080   19.8780 C   0  0  0  0  0  0  0  0  0  0  0  0
    6.4295  -16.2149   21.1143 C   0  0  1  0  0  0  0  0  0  0  0  0
    7.4699  -17.1249   20.9554 O   0  0  0  0  0  0  0  0  0  0  0  0
    6.9229  -14.8030   21.2299 C   0  0  2  0  0  0  0  0  0  0  0  0
    7.5958  -14.4421   19.9984 N   0  0  0  0  0  0  0  0  0  0  0  0
    7.7685  -14.5574   22.3927 C   0  0  0  0  0  0  0  0  0  0  0  0
    9.0141  -14.5511   22.2489 O   0  0  0  0  0  0  0  0  0  0  0  0
    5.8309  -11.3647   26.3392 C   0  0  0  0  0  0  0  0  0  0  0  0
    6.8213  -12.0154   25.3989 C   0  0  0  0  0  0  0  0  0  0  0  0
    7.2126  -13.3963   25.8683 C   0  0  2  0  0  0  0  0  0  0  0  0
    8.0472  -13.2347   27.1213 C   0  0  0  0  0  0  0  0  0  0  0  0
    8.0179  -14.1500   24.8687 C   0  0  2  0  0  0  0  0  0  0  0  0
    7.2217  -14.3266   23.6763 N   0  0  0  0  0  0  0  0  0  0  0  0
    8.4948  -15.4624   25.3805 C   0  0  0  0  0  0  0  0  0  0  0  0
    7.7228  -16.3685   25.7713 O   0  0  0  0  0  0  0  0  0  0  0  0
   13.7379  -19.9734   23.6649 N   0  0  0  0  0  0  0  0  0  0  0  0
   13.6110  -18.8034   24.5249 C   0  0  0  0  0  0  0  0  0  0  0  0
   14.6580  -18.1310   24.5987 O   0  0  0  0  0  0  0  0  0  0  0  0
   12.3538  -18.5412   25.1849 C   0  0  0  0  0  0  0  0  0  0  0  0
   11.6255  -17.2833   24.9871 C   0  0  0  0  0  0  0  0  0  0  0  0
   10.3519  -17.0678   25.7579 C   0  0  2  0  0  0  0  0  0  0  0  0
    9.8869  -15.7063   25.4313 N   0  0  0  0  0  0  0  0  0  0  0  0
   10.5551  -17.2312   27.1859 C   0  0  0  0  0  0  0  0  0  0  0  0
   10.6084  -16.3474   28.0638 O   0  0  0  0  0  0  0  0  0  0  0  0
   10.7054  -18.5601   27.6442 O   0  0  0  0  0  0  0  0  0  0  0  0
  2  1  1  6
  3  2  1  0
  4  2  1  0
  4  6  1  0
  4  5  1  6
  6 13  1  0
  7  6  2  0
  9 10  1  0
  9  8  1  0
 10 12  1  0
 10 11  1  1
 12 14  1  0
 12 13  1  6
 14 15  2  0
 16 17  1  0
 17 19  1  0
 18 17  2  0
 19 20  1  0
 21 20  1  6
 21 23  1  0
 22 14  1  0
 22 21  1  0
 23 24  2  0
 23 25  1  0
M  END
$$$$
