TIQ.pdb
     RDKit          3D

 25 24  0  0  1  0  0  0  0  0999 V2000
    6.4261  -16.5791   21.5104 C   0  0  0  0  0  0  0  0  0  0  0  0
    7.2505  -15.6445   20.6489 C   0  0  1  0  0  0  0  0  0  0  0  0
    6.7001  -15.6682   19.3713 O   0  0  0  0  0  0  0  0  0  0  0  0
    7.1977  -14.2775   21.2645 C   0  0  2  0  0  0  0  0  0  0  0  0
    7.5880  -13.3016   20.2669 N   0  0  0  0  0  0  0  0  0  0  0  0
    7.9855  -14.1391   22.4842 C   0  0  0  0  0  0  0  0  0  0  0  0
    9.2327  -14.0439   22.3956 O   0  0  0  0  0  0  0  0  0  0  0  0
    5.7802  -11.5388   26.6751 C   0  0  0  0  0  0  0  0  0  0  0  0
    6.8337  -12.0451   25.7147 C   0  0  0  0  0  0  0  0  0  0  0  0
    7.2628  -13.4539   26.0484 C   0  0  2  0  0  0  0  0  0  0  0  0
    8.0556  -13.3979   27.3373 C   0  0  0  0  0  0  0  0  0  0  0  0
    8.1231  -14.0693   25.0012 C   0  0  2  0  0  0  0  0  0  0  0  0
    7.3810  -14.1097   23.7624 N   0  0  0  0  0  0  0  0  0  0  0  0
    8.6024  -15.4278   25.3705 C   0  0  0  0  0  0  0  0  0  0  0  0
    7.8340  -16.3996   25.5576 O   0  0  0  0  0  0  0  0  0  0  0  0
   13.8491  -17.7876   23.0835 N   0  0  0  0  0  0  0  0  0  0  0  0
   13.8839  -16.6667   24.0145 C   0  0  0  0  0  0  0  0  0  0  0  0
   14.9016  -15.9573   23.8928 O   0  0  0  0  0  0  0  0  0  0  0  0
   12.7983  -16.4871   24.9495 C   0  0  0  0  0  0  0  0  0  0  0  0
   11.5835  -17.3071   24.8889 C   0  0  0  0  0  0  0  0  0  0  0  0
   10.4662  -16.9985   25.8476 C   0  0  2  0  0  0  0  0  0  0  0  0
    9.9926  -15.6404   25.5196 N   0  0  0  0  0  0  0  0  0  0  0  0
   10.9041  -17.0890   27.2286 C   0  0  0  0  0  0  0  0  0  0  0  0
   11.0089  -16.1718   28.0666 O   0  0  0  0  0  0  0  0  0  0  0  0
   11.2505  -18.3807   27.6873 O   0  0  0  0  0  0  0  0  0  0  0  0
  2  1  1  1
  3  2  1  0
  4  2  1  0
  4  6  1  0
  4  5  1  6
  6 13  1  0
  7  6  2  0
  9 10  1  0
  9  8  1  0
 10 12  1  0
 10 11  1  1
 12 14  1  0
 12 13  1  6
 14 15  2  0
 16 17  1  0
 17 19  1  0
 18 17  2  0
 19 20  1  0
 21 20  1  6
 21 23  1  0
 22 14  1  0
 22 21  1  0
 23 24  2  0
 23 25  1  0
M  END
$$$$
