WTW.pdb
     RDKit          3D

 36 39  0  0  1  0  0  0  0  0999 V2000
   27.7705  -21.7501  -15.7367 N   0  0  0  0  0  0  0  0  0  0  0  0
   26.7149  -20.8365  -15.4109 C   0  0  1  0  0  0  0  0  0  0  0  0
   25.9385  -20.2953  -16.5682 C   0  0  0  0  0  0  0  0  0  0  0  0
   26.7391  -19.5905  -17.5897 C   0  0  0  0  0  0  0  0  0  0  0  0
   27.5465  -20.2064  -18.5681 C   0  0  0  0  0  0  0  0  0  0  0  0
   28.1199  -19.2587  -19.3169 N   0  0  0  0  0  0  0  0  0  0  0  0
   27.7181  -18.0467  -18.8670 C   0  0  0  0  0  0  0  0  0  0  0  0
   28.0314  -16.7526  -19.2909 C   0  0  0  0  0  0  0  0  0  0  0  0
   27.5098  -15.6456  -18.6670 C   0  0  0  0  0  0  0  0  0  0  0  0
   26.6609  -15.8425  -17.6010 C   0  0  0  0  0  0  0  0  0  0  0  0
   26.3465  -17.1208  -17.1768 C   0  0  0  0  0  0  0  0  0  0  0  0
   26.8726  -18.2446  -17.8092 C   0  0  0  0  0  0  0  0  0  0  0  0
   25.7837  -21.4626  -14.4024 C   0  0  0  0  0  0  0  0  0  0  0  0
   25.3179  -22.6298  -14.5464 O   0  0  0  0  0  0  0  0  0  0  0  0
   26.3096  -21.9364  -10.6974 C   0  0  0  0  0  0  0  0  0  0  0  0
   24.9925  -21.2631  -10.8436 C   0  0  1  0  0  0  0  0  0  0  0  0
   25.0031  -19.9923  -10.2839 O   0  0  0  0  0  0  0  0  0  0  0  0
   24.4558  -21.1575  -12.2356 C   0  0  2  0  0  0  0  0  0  0  0  0
   25.3909  -20.7670  -13.2401 N   0  0  0  0  0  0  0  0  0  0  0  0
   23.1332  -20.4705  -12.3255 C   0  0  0  0  0  0  0  0  0  0  0  0
   23.0804  -19.2189  -12.2942 O   0  0  0  0  0  0  0  0  0  0  0  0
   21.9051  -21.1564  -12.4381 N   0  0  0  0  0  0  0  0  0  0  0  0
   20.6584  -20.4215  -12.6319 C   0  0  1  0  0  0  0  0  0  0  0  0
   20.5460  -19.6702  -13.8833 C   0  0  0  0  0  0  0  0  0  0  0  0
   20.8771  -20.4146  -15.1290 C   0  0  0  0  0  0  0  0  0  0  0  0
   20.4546  -21.7404  -15.3431 C   0  0  0  0  0  0  0  0  0  0  0  0
   20.9106  -22.1045  -16.5437 N   0  0  0  0  0  0  0  0  0  0  0  0
   21.6012  -21.1184  -17.1353 C   0  0  0  0  0  0  0  0  0  0  0  0
   22.2597  -20.9912  -18.3517 C   0  0  0  0  0  0  0  0  0  0  0  0
   22.8757  -19.7909  -18.6330 C   0  0  0  0  0  0  0  0  0  0  0  0
   22.8692  -18.7167  -17.7627 C   0  0  0  0  0  0  0  0  0  0  0  0
   22.2154  -18.8551  -16.5612 C   0  0  0  0  0  0  0  0  0  0  0  0
   21.5786  -20.0634  -16.2501 C   0  0  0  0  0  0  0  0  0  0  0  0
   19.5335  -21.4828  -12.6386 C   0  0  0  0  0  0  0  0  0  0  0  0
   19.7874  -22.7027  -12.6522 O   0  0  0  0  0  0  0  0  0  0  0  0
   18.2263  -21.0204  -12.6306 O   0  0  0  0  0  0  0  0  0  0  0  0
  2  1  1  6
  3  2  1  0
  3  4  1  0
  4 12  1  0
  5  4  2  0
  5  6  1  0
  6  7  1  0
  7  8  1  0
  8  9  2  0
 10  9  1  0
 11 10  2  0
 12  7  2  0
 12 11  1  0
 13  2  1  0
 14 13  2  0
 16 15  1  6
 16 17  1  0
 18 19  1  6
 18 16  1  0
 19 13  1  0
 20 21  2  0
 20 18  1  0
 22 20  1  0
 23 24  1  6
 23 22  1  0
 24 25  1  0
 25 26  2  0
 26 27  1  0
 28 27  1  0
 29 28  2  0
 30 29  1  0
 31 32  1  0
 31 30  2  0
 32 33  2  0
 33 25  1  0
 33 28  1  0
 34 36  1  0
 34 23  1  0
 35 34  2  0
M  END
$$$$
