WTW.pdb
     RDKit          3D

 36 39  0  0  1  0  0  0  0  0999 V2000
   28.4672  -20.7993   -9.2435 N   0  0  0  0  0  0  0  0  0  0  0  0
   27.0377  -20.9054   -9.2299 C   0  0  1  0  0  0  0  0  0  0  0  0
   26.3352  -20.1343   -8.1589 C   0  0  0  0  0  0  0  0  0  0  0  0
   27.1922  -19.6767   -7.0466 C   0  0  0  0  0  0  0  0  0  0  0  0
   27.5849  -18.3434   -6.8083 C   0  0  0  0  0  0  0  0  0  0  0  0
   28.3562  -18.3067   -5.7168 N   0  0  0  0  0  0  0  0  0  0  0  0
   28.4826  -19.5641   -5.2312 C   0  0  0  0  0  0  0  0  0  0  0  0
   29.1821  -20.0640   -4.1297 C   0  0  0  0  0  0  0  0  0  0  0  0
   29.1831  -21.4037   -3.8263 C   0  0  0  0  0  0  0  0  0  0  0  0
   28.4707  -22.2534   -4.6424 C   0  0  0  0  0  0  0  0  0  0  0  0
   27.7759  -21.7648   -5.7339 C   0  0  0  0  0  0  0  0  0  0  0  0
   27.7717  -20.4067   -6.0423 C   0  0  0  0  0  0  0  0  0  0  0  0
   26.4808  -20.5459  -10.5852 C   0  0  0  0  0  0  0  0  0  0  0  0
   26.9894  -19.6392  -11.3057 O   0  0  0  0  0  0  0  0  0  0  0  0
   26.4946  -22.0490  -13.7436 C   0  0  0  0  0  0  0  0  0  0  0  0
   25.0410  -21.8807  -13.4826 C   0  0  1  0  0  0  0  0  0  0  0  0
   24.4110  -23.1034  -13.2914 O   0  0  0  0  0  0  0  0  0  0  0  0
   24.6741  -20.9818  -12.3450 C   0  0  2  0  0  0  0  0  0  0  0  0
   25.3585  -21.2157  -11.1151 N   0  0  0  0  0  0  0  0  0  0  0  0
   23.2053  -20.7566  -12.1989 C   0  0  0  0  0  0  0  0  0  0  0  0
   22.6003  -21.2299  -11.2088 O   0  0  0  0  0  0  0  0  0  0  0  0
   22.4313  -20.0336  -13.1315 N   0  0  0  0  0  0  0  0  0  0  0  0
   20.9999  -19.8405  -12.9183 C   0  0  1  0  0  0  0  0  0  0  0  0
   20.3497  -18.8588  -13.7882 C   0  0  0  0  0  0  0  0  0  0  0  0
   20.6679  -18.9535  -15.2392 C   0  0  0  0  0  0  0  0  0  0  0  0
   19.9255  -19.7667  -16.1164 C   0  0  0  0  0  0  0  0  0  0  0  0
   20.4630  -19.6213  -17.3297 N   0  0  0  0  0  0  0  0  0  0  0  0
   21.5029  -18.7742  -17.3165 C   0  0  0  0  0  0  0  0  0  0  0  0
   22.3757  -18.2962  -18.2856 C   0  0  0  0  0  0  0  0  0  0  0  0
   23.3521  -17.4050  -17.8960 C   0  0  0  0  0  0  0  0  0  0  0  0
   23.5014  -16.9712  -16.5917 C   0  0  0  0  0  0  0  0  0  0  0  0
   22.6325  -17.4524  -15.6412 C   0  0  0  0  0  0  0  0  0  0  0  0
   21.6288  -18.3576  -16.0096 C   0  0  0  0  0  0  0  0  0  0  0  0
   20.3370  -21.2081  -13.2047 C   0  0  0  0  0  0  0  0  0  0  0  0
   20.9337  -22.1037  -13.8329 O   0  0  0  0  0  0  0  0  0  0  0  0
   19.0466  -21.3976  -12.7340 O   0  0  0  0  0  0  0  0  0  0  0  0
  2  1  1  6
  3  2  1  0
  3  4  1  0
  4 12  1  0
  5  4  2  0
  5  6  1  0
  6  7  1  0
  7  8  1  0
  8  9  2  0
 10  9  1  0
 11 10  2  0
 12  7  2  0
 12 11  1  0
 13  2  1  0
 14 13  2  0
 16 15  1  1
 16 17  1  0
 18 19  1  1
 18 16  1  0
 19 13  1  0
 20 21  2  0
 20 18  1  0
 22 20  1  0
 23 24  1  6
 23 22  1  0
 24 25  1  0
 25 26  2  0
 26 27  1  0
 28 27  1  0
 29 28  2  0
 30 29  1  0
 31 32  1  0
 31 30  2  0
 32 33  2  0
 33 25  1  0
 33 28  1  0
 34 36  1  0
 34 23  1  0
 35 34  2  0
M  END
$$$$
