WTW.pdb
     RDKit          3D

 36 39  0  0  1  0  0  0  0  0999 V2000
   22.4956  -19.0851  -16.7204 N   0  0  0  0  0  0  0  0  0  0  0  0
   23.7117  -19.8000  -16.4654 C   0  0  1  0  0  0  0  0  0  0  0  0
   24.7576  -19.7110  -17.5300 C   0  0  0  0  0  0  0  0  0  0  0  0
   24.3221  -20.1295  -18.8778 C   0  0  0  0  0  0  0  0  0  0  0  0
   23.6538  -19.3139  -19.8142 C   0  0  0  0  0  0  0  0  0  0  0  0
   23.4184  -20.0269  -20.9205 N   0  0  0  0  0  0  0  0  0  0  0  0
   23.9076  -21.2769  -20.7446 C   0  0  0  0  0  0  0  0  0  0  0  0
   23.9097  -22.3954  -21.5821 C   0  0  0  0  0  0  0  0  0  0  0  0
   24.4596  -23.5899  -21.1850 C   0  0  0  0  0  0  0  0  0  0  0  0
   25.0154  -23.6610  -19.9274 C   0  0  0  0  0  0  0  0  0  0  0  0
   25.0169  -22.5574  -19.0938 C   0  0  0  0  0  0  0  0  0  0  0  0
   24.4618  -21.3447  -19.4950 C   0  0  0  0  0  0  0  0  0  0  0  0
   24.2843  -19.3851  -15.1327 C   0  0  0  0  0  0  0  0  0  0  0  0
   24.6832  -18.2063  -14.9062 O   0  0  0  0  0  0  0  0  0  0  0  0
   21.9120  -19.1646  -12.8511 C   0  0  0  0  0  0  0  0  0  0  0  0
   22.8732  -20.0398  -12.1302 C   0  0  1  0  0  0  0  0  0  0  0  0
   22.4111  -21.3466  -12.0465 O   0  0  0  0  0  0  0  0  0  0  0  0
   24.2691  -20.0699  -12.6665 C   0  0  2  0  0  0  0  0  0  0  0  0
   24.3973  -20.3034  -14.0682 N   0  0  0  0  0  0  0  0  0  0  0  0
   25.2265  -20.8457  -11.8232 C   0  0  0  0  0  0  0  0  0  0  0  0
   25.7663  -21.8774  -12.2862 O   0  0  0  0  0  0  0  0  0  0  0  0
   25.5662  -20.4885  -10.5009 N   0  0  0  0  0  0  0  0  0  0  0  0
   26.1463  -21.4721   -9.5912 C   0  0  1  0  0  0  0  0  0  0  0  0
   27.5179  -21.2080   -9.1527 C   0  0  0  0  0  0  0  0  0  0  0  0
   27.6952  -20.0905   -8.1856 C   0  0  0  0  0  0  0  0  0  0  0  0
   26.9284  -18.9119   -8.2553 C   0  0  0  0  0  0  0  0  0  0  0  0
   27.3302  -18.1271   -7.2531 N   0  0  0  0  0  0  0  0  0  0  0  0
   28.3035  -18.7003   -6.5296 C   0  0  0  0  0  0  0  0  0  0  0  0
   29.0388  -18.3143   -5.4163 C   0  0  0  0  0  0  0  0  0  0  0  0
   29.9836  -19.1906   -4.9275 C   0  0  0  0  0  0  0  0  0  0  0  0
   30.2313  -20.4270   -5.4944 C   0  0  0  0  0  0  0  0  0  0  0  0
   29.4982  -20.7974   -6.5969 C   0  0  0  0  0  0  0  0  0  0  0  0
   28.5296  -19.9272   -7.1136 C   0  0  0  0  0  0  0  0  0  0  0  0
   25.2567  -21.4608   -8.3262 C   0  0  0  0  0  0  0  0  0  0  0  0
   25.5340  -22.1520   -7.3272 O   0  0  0  0  0  0  0  0  0  0  0  0
   24.1329  -20.6488   -8.3493 O   0  0  0  0  0  0  0  0  0  0  0  0
  2  1  1  6
  3  2  1  0
  3  4  1  0
  4 12  1  0
  5  4  2  0
  5  6  1  0
  6  7  1  0
  7  8  1  0
  8  9  2  0
 10  9  1  0
 11 10  2  0
 12  7  2  0
 12 11  1  0
 13  2  1  0
 14 13  2  0
 16 15  1  6
 16 17  1  0
 18 19  1  6
 18 16  1  0
 19 13  1  0
 20 21  2  0
 20 18  1  0
 22 20  1  0
 23 24  1  1
 23 22  1  0
 24 25  1  0
 25 26  2  0
 26 27  1  0
 28 27  1  0
 29 28  2  0
 30 29  1  0
 31 32  1  0
 31 30  2  0
 32 33  2  0
 33 25  1  0
 33 28  1  0
 34 36  1  0
 34 23  1  0
 35 34  2  0
M  END
$$$$
