WTW.pdb
     RDKit          3D

 36 39  0  0  1  0  0  0  0  0999 V2000
   28.1441  -21.6584   -9.7234 N   0  0  0  0  0  0  0  0  0  0  0  0
   26.9262  -21.0055  -10.1049 C   0  0  1  0  0  0  0  0  0  0  0  0
   26.4744  -19.8929   -9.2143 C   0  0  0  0  0  0  0  0  0  0  0  0
   26.4383  -20.2142   -7.7733 C   0  0  0  0  0  0  0  0  0  0  0  0
   25.3719  -20.8448   -7.0997 C   0  0  0  0  0  0  0  0  0  0  0  0
   25.6899  -20.9725   -5.8073 N   0  0  0  0  0  0  0  0  0  0  0  0
   26.9234  -20.4508   -5.6094 C   0  0  0  0  0  0  0  0  0  0  0  0
   27.7012  -20.3280   -4.4551 C   0  0  0  0  0  0  0  0  0  0  0  0
   28.9423  -19.7401   -4.4836 C   0  0  0  0  0  0  0  0  0  0  0  0
   29.4083  -19.2685   -5.6902 C   0  0  0  0  0  0  0  0  0  0  0  0
   28.6435  -19.3874   -6.8365 C   0  0  0  0  0  0  0  0  0  0  0  0
   27.3858  -19.9849   -6.8104 C   0  0  0  0  0  0  0  0  0  0  0  0
   27.0226  -20.5273  -11.5326 C   0  0  0  0  0  0  0  0  0  0  0  0
   27.9377  -19.7463  -11.9232 O   0  0  0  0  0  0  0  0  0  0  0  0
   28.4065  -21.8838  -14.2089 C   0  0  0  0  0  0  0  0  0  0  0  0
   26.9940  -21.7711  -14.6581 C   0  0  1  0  0  0  0  0  0  0  0  0
   26.3506  -23.0014  -14.6354 O   0  0  0  0  0  0  0  0  0  0  0  0
   26.1440  -20.7843  -13.9228 C   0  0  2  0  0  0  0  0  0  0  0  0
   26.0880  -20.9384  -12.5055 N   0  0  0  0  0  0  0  0  0  0  0  0
   24.8221  -20.5238  -14.5664 C   0  0  0  0  0  0  0  0  0  0  0  0
   23.7675  -20.8431  -13.9697 O   0  0  0  0  0  0  0  0  0  0  0  0
   24.6786  -19.9332  -15.8400 N   0  0  0  0  0  0  0  0  0  0  0  0
   23.3554  -19.6019  -16.3607 C   0  0  1  0  0  0  0  0  0  0  0  0
   23.1898  -18.2387  -16.8679 C   0  0  0  0  0  0  0  0  0  0  0  0
   23.9185  -17.1701  -16.1313 C   0  0  0  0  0  0  0  0  0  0  0  0
   23.2681  -16.3049  -15.2311 C   0  0  0  0  0  0  0  0  0  0  0  0
   24.1976  -15.4787  -14.7459 N   0  0  0  0  0  0  0  0  0  0  0  0
   25.4101  -15.7350  -15.2592 C   0  0  0  0  0  0  0  0  0  0  0  0
   26.6722  -15.1813  -15.0867 C   0  0  0  0  0  0  0  0  0  0  0  0
   27.7205  -15.7222  -15.7993 C   0  0  0  0  0  0  0  0  0  0  0  0
   27.5713  -16.7824  -16.6742 C   0  0  0  0  0  0  0  0  0  0  0  0
   26.3170  -17.3210  -16.8377 C   0  0  0  0  0  0  0  0  0  0  0  0
   25.2336  -16.7925  -16.1240 C   0  0  0  0  0  0  0  0  0  0  0  0
   23.1123  -20.5600  -17.5502 C   0  0  0  0  0  0  0  0  0  0  0  0
   24.0351  -21.2387  -18.0406 O   0  0  0  0  0  0  0  0  0  0  0  0
   21.8216  -20.6324  -18.0517 O   0  0  0  0  0  0  0  0  0  0  0  0
  2  1  1  1
  3  2  1  0
  3  4  1  0
  4 12  1  0
  5  4  2  0
  5  6  1  0
  6  7  1  0
  7  8  1  0
  8  9  2  0
 10  9  1  0
 11 10  2  0
 12  7  2  0
 12 11  1  0
 13  2  1  0
 14 13  2  0
 16 15  1  1
 16 17  1  0
 18 19  1  1
 18 16  1  0
 19 13  1  0
 20 21  2  0
 20 18  1  0
 22 20  1  0
 23 24  1  6
 23 22  1  0
 24 25  1  0
 25 26  2  0
 26 27  1  0
 28 27  1  0
 29 28  2  0
 30 29  1  0
 31 32  1  0
 31 30  2  0
 32 33  2  0
 33 25  1  0
 33 28  1  0
 34 36  1  0
 34 23  1  0
 35 34  2  0
M  END
$$$$
