WTW.pdb
     RDKit          3D

 36 39  0  0  1  0  0  0  0  0999 V2000
   20.3198  -19.4687  -14.5209 N   0  0  0  0  0  0  0  0  0  0  0  0
   21.6640  -18.9709  -14.5027 C   0  0  1  0  0  0  0  0  0  0  0  0
   21.8139  -17.4888  -14.6291 C   0  0  0  0  0  0  0  0  0  0  0  0
   21.6385  -16.9517  -15.9936 C   0  0  0  0  0  0  0  0  0  0  0  0
   20.5644  -16.1472  -16.4270 C   0  0  0  0  0  0  0  0  0  0  0  0
   20.7383  -15.8504  -17.7190 N   0  0  0  0  0  0  0  0  0  0  0  0
   21.8849  -16.4288  -18.1475 C   0  0  0  0  0  0  0  0  0  0  0  0
   22.5059  -16.4348  -19.3993 C   0  0  0  0  0  0  0  0  0  0  0  0
   23.6805  -17.1131  -19.6159 C   0  0  0  0  0  0  0  0  0  0  0  0
   24.2390  -17.7956  -18.5587 C   0  0  0  0  0  0  0  0  0  0  0  0
   23.6296  -17.7932  -17.3171 C   0  0  0  0  0  0  0  0  0  0  0  0
   22.4397  -17.1045  -17.0946 C   0  0  0  0  0  0  0  0  0  0  0  0
   22.3812  -19.4668  -13.2715 C   0  0  0  0  0  0  0  0  0  0  0  0
   21.9025  -19.3278  -12.1089 O   0  0  0  0  0  0  0  0  0  0  0  0
   23.1762  -23.0439  -12.8235 C   0  0  0  0  0  0  0  0  0  0  0  0
   24.4495  -22.3191  -12.5724 C   0  0  1  0  0  0  0  0  0  0  0  0
   25.3745  -22.5457  -13.5830 O   0  0  0  0  0  0  0  0  0  0  0  0
   24.3382  -20.8426  -12.3615 C   0  0  2  0  0  0  0  0  0  0  0  0
   23.6288  -20.1177  -13.3650 N   0  0  0  0  0  0  0  0  0  0  0  0
   25.6085  -20.1958  -11.9171 C   0  0  0  0  0  0  0  0  0  0  0  0
   26.0706  -19.2266  -12.5630 O   0  0  0  0  0  0  0  0  0  0  0  0
   26.3470  -20.6207  -10.7921 N   0  0  0  0  0  0  0  0  0  0  0  0
   27.6904  -20.1042  -10.5467 C   0  0  1  0  0  0  0  0  0  0  0  0
   27.8404  -19.2423   -9.3729 C   0  0  0  0  0  0  0  0  0  0  0  0
   27.3213  -19.7853   -8.0879 C   0  0  0  0  0  0  0  0  0  0  0  0
   26.2764  -20.7276   -8.0415 C   0  0  0  0  0  0  0  0  0  0  0  0
   26.0595  -21.0042   -6.7537 N   0  0  0  0  0  0  0  0  0  0  0  0
   26.8827  -20.3149   -5.9497 C   0  0  0  0  0  0  0  0  0  0  0  0
   27.0594  -20.2452   -4.5737 C   0  0  0  0  0  0  0  0  0  0  0  0
   28.0361  -19.4033   -4.0873 C   0  0  0  0  0  0  0  0  0  0  0  0
   28.8400  -18.6287   -4.9030 C   0  0  0  0  0  0  0  0  0  0  0  0
   28.6547  -18.7051   -6.2631 C   0  0  0  0  0  0  0  0  0  0  0  0
   27.6707  -19.5545   -6.7853 C   0  0  0  0  0  0  0  0  0  0  0  0
   28.5886  -21.3420  -10.3170 C   0  0  0  0  0  0  0  0  0  0  0  0
   29.8194  -21.2342  -10.1553 O   0  0  0  0  0  0  0  0  0  0  0  0
   27.9669  -22.5814  -10.2998 O   0  0  0  0  0  0  0  0  0  0  0  0
  2  1  1  1
  3  2  1  0
  3  4  1  0
  4 12  1  0
  5  4  2  0
  5  6  1  0
  6  7  1  0
  7  8  1  0
  8  9  2  0
 10  9  1  0
 11 10  2  0
 12  7  2  0
 12 11  1  0
 13  2  1  0
 14 13  2  0
 16 15  1  6
 16 17  1  0
 18 19  1  6
 18 16  1  0
 19 13  1  0
 20 21  2  0
 20 18  1  0
 22 20  1  0
 23 24  1  1
 23 22  1  0
 24 25  1  0
 25 26  2  0
 26 27  1  0
 28 27  1  0
 29 28  2  0
 30 29  1  0
 31 32  1  0
 31 30  2  0
 32 33  2  0
 33 25  1  0
 33 28  1  0
 34 36  1  0
 34 23  1  0
 35 34  2  0
M  END
$$$$
