WTW.pdb
     RDKit          3D

 36 39  0  0  1  0  0  0  0  0999 V2000
   25.0631  -17.5904  -16.1804 N   0  0  0  0  0  0  0  0  0  0  0  0
   26.0032  -17.8626  -15.1331 C   0  0  1  0  0  0  0  0  0  0  0  0
   26.5224  -16.6707  -14.3948 C   0  0  0  0  0  0  0  0  0  0  0  0
   27.1772  -15.6462  -15.2331 C   0  0  0  0  0  0  0  0  0  0  0  0
   26.8222  -14.2826  -15.2894 C   0  0  0  0  0  0  0  0  0  0  0  0
   27.6301  -13.6592  -16.1533 N   0  0  0  0  0  0  0  0  0  0  0  0
   28.5005  -14.5619  -16.6637 C   0  0  0  0  0  0  0  0  0  0  0  0
   29.5285  -14.4278  -17.6005 C   0  0  0  0  0  0  0  0  0  0  0  0
   30.2910  -15.5019  -17.9899 C   0  0  0  0  0  0  0  0  0  0  0  0
   30.0159  -16.7290  -17.4293 C   0  0  0  0  0  0  0  0  0  0  0  0
   29.0001  -16.8682  -16.5011 C   0  0  0  0  0  0  0  0  0  0  0  0
   28.2270  -15.7802  -16.1033 C   0  0  0  0  0  0  0  0  0  0  0  0
   25.4230  -18.8653  -14.1667 C   0  0  0  0  0  0  0  0  0  0  0  0
   24.2597  -18.7443  -13.6849 O   0  0  0  0  0  0  0  0  0  0  0  0
   25.3244  -22.8082  -14.2840 C   0  0  0  0  0  0  0  0  0  0  0  0
   26.0038  -22.3642  -13.0387 C   0  0  1  0  0  0  0  0  0  0  0  0
   27.3525  -22.6951  -13.0464 O   0  0  0  0  0  0  0  0  0  0  0  0
   25.8795  -20.9127  -12.7001 C   0  0  2  0  0  0  0  0  0  0  0  0
   26.1595  -19.9962  -13.7570 N   0  0  0  0  0  0  0  0  0  0  0  0
   26.4858  -20.5419  -11.3869 C   0  0  0  0  0  0  0  0  0  0  0  0
   27.7069  -20.2681  -11.3223 O   0  0  0  0  0  0  0  0  0  0  0  0
   25.7564  -20.4859  -10.1801 N   0  0  0  0  0  0  0  0  0  0  0  0
   25.9253  -21.5178   -9.1612 C   0  0  1  0  0  0  0  0  0  0  0  0
   27.1904  -21.4897   -8.4250 C   0  0  0  0  0  0  0  0  0  0  0  0
   27.4930  -20.2338   -7.6857 C   0  0  0  0  0  0  0  0  0  0  0  0
   26.9357  -18.9951   -8.0555 C   0  0  0  0  0  0  0  0  0  0  0  0
   27.4026  -18.0868   -7.1958 N   0  0  0  0  0  0  0  0  0  0  0  0
   28.2251  -18.6345   -6.2888 C   0  0  0  0  0  0  0  0  0  0  0  0
   28.9485  -18.1382   -5.2120 C   0  0  0  0  0  0  0  0  0  0  0  0
   29.7066  -19.0237   -4.4767 C   0  0  0  0  0  0  0  0  0  0  0  0
   29.7800  -20.3741   -4.7637 C   0  0  0  0  0  0  0  0  0  0  0  0
   29.0607  -20.8534   -5.8329 C   0  0  0  0  0  0  0  0  0  0  0  0
   28.2797  -19.9761   -6.5962 C   0  0  0  0  0  0  0  0  0  0  0  0
   24.7963  -21.2883   -8.1295 C   0  0  0  0  0  0  0  0  0  0  0  0
   24.7642  -21.9074   -7.0486 O   0  0  0  0  0  0  0  0  0  0  0  0
   23.8165  -20.3637   -8.4578 O   0  0  0  0  0  0  0  0  0  0  0  0
  2  1  1  6
  3  2  1  0
  3  4  1  0
  4 12  1  0
  5  4  2  0
  5  6  1  0
  6  7  1  0
  7  8  1  0
  8  9  2  0
 10  9  1  0
 11 10  2  0
 12  7  2  0
 12 11  1  0
 13  2  1  0
 14 13  2  0
 16 15  1  6
 16 17  1  0
 18 19  1  6
 18 16  1  0
 19 13  1  0
 20 21  2  0
 20 18  1  0
 22 20  1  0
 23 24  1  1
 23 22  1  0
 24 25  1  0
 25 26  2  0
 26 27  1  0
 28 27  1  0
 29 28  2  0
 30 29  1  0
 31 32  1  0
 31 30  2  0
 32 33  2  0
 33 25  1  0
 33 28  1  0
 34 36  1  0
 34 23  1  0
 35 34  2  0
M  END
$$$$
