WTW.pdb
     RDKit          3D

 36 39  0  0  1  0  0  0  0  0999 V2000
   24.6189  -21.6768  -19.7420 N   0  0  0  0  0  0  0  0  0  0  0  0
   24.5454  -20.9605  -18.5025 C   0  0  1  0  0  0  0  0  0  0  0  0
   23.3227  -21.2053  -17.6777 C   0  0  0  0  0  0  0  0  0  0  0  0
   22.0403  -20.9148  -18.3503 C   0  0  0  0  0  0  0  0  0  0  0  0
   21.1352  -21.8778  -18.8421 C   0  0  0  0  0  0  0  0  0  0  0  0
   20.0872  -21.2505  -19.3860 N   0  0  0  0  0  0  0  0  0  0  0  0
   20.2713  -19.9143  -19.2684 C   0  0  0  0  0  0  0  0  0  0  0  0
   19.4864  -18.8332  -19.6779 C   0  0  0  0  0  0  0  0  0  0  0  0
   19.8824  -17.5355  -19.4639 C   0  0  0  0  0  0  0  0  0  0  0  0
   21.0851  -17.3214  -18.8290 C   0  0  0  0  0  0  0  0  0  0  0  0
   21.8664  -18.3872  -18.4208 C   0  0  0  0  0  0  0  0  0  0  0  0
   21.4660  -19.7038  -18.6349 C   0  0  0  0  0  0  0  0  0  0  0  0
   25.7879  -21.2146  -17.6853 C   0  0  0  0  0  0  0  0  0  0  0  0
   26.3564  -22.3441  -17.6537 O   0  0  0  0  0  0  0  0  0  0  0  0
   29.7181  -19.1834  -15.3722 C   0  0  0  0  0  0  0  0  0  0  0  0
   28.4605  -19.0783  -16.1578 C   0  0  1  0  0  0  0  0  0  0  0  0
   28.7149  -18.8106  -17.4964 O   0  0  0  0  0  0  0  0  0  0  0  0
   27.5348  -20.2506  -16.0822 C   0  0  2  0  0  0  0  0  0  0  0  0
   26.3782  -20.1910  -16.9154 N   0  0  0  0  0  0  0  0  0  0  0  0
   27.2679  -20.7242  -14.6915 C   0  0  0  0  0  0  0  0  0  0  0  0
   28.0124  -21.5911  -14.1774 O   0  0  0  0  0  0  0  0  0  0  0  0
   26.1988  -20.2532  -13.8999 N   0  0  0  0  0  0  0  0  0  0  0  0
   26.1906  -20.4714  -12.4563 C   0  0  1  0  0  0  0  0  0  0  0  0
   25.2779  -19.6250  -11.6859 C   0  0  0  0  0  0  0  0  0  0  0  0
   23.8258  -19.8062  -11.9582 C   0  0  0  0  0  0  0  0  0  0  0  0
   22.9626  -20.4246  -11.0339 C   0  0  0  0  0  0  0  0  0  0  0  0
   21.7441  -20.4234  -11.5790 N   0  0  0  0  0  0  0  0  0  0  0  0
   21.7407  -19.8512  -12.7922 C   0  0  0  0  0  0  0  0  0  0  0  0
   20.7604  -19.6057  -13.7450 C   0  0  0  0  0  0  0  0  0  0  0  0
   21.1334  -18.9720  -14.9107 C   0  0  0  0  0  0  0  0  0  0  0  0
   22.4318  -18.5755  -15.1722 C   0  0  0  0  0  0  0  0  0  0  0  0
   23.3936  -18.8252  -14.2222 C   0  0  0  0  0  0  0  0  0  0  0  0
   23.0421  -19.4657  -13.0269 C   0  0  0  0  0  0  0  0  0  0  0  0
   25.7353  -21.9347  -12.2481 C   0  0  0  0  0  0  0  0  0  0  0  0
   25.2915  -22.6202  -13.1893 O   0  0  0  0  0  0  0  0  0  0  0  0
   25.8397  -22.4544  -10.9668 O   0  0  0  0  0  0  0  0  0  0  0  0
  2  1  1  6
  3  2  1  0
  3  4  1  0
  4 12  1  0
  5  4  2  0
  5  6  1  0
  6  7  1  0
  7  8  1  0
  8  9  2  0
 10  9  1  0
 11 10  2  0
 12  7  2  0
 12 11  1  0
 13  2  1  0
 14 13  2  0
 16 15  1  1
 16 17  1  0
 18 19  1  1
 18 16  1  0
 19 13  1  0
 20 21  2  0
 20 18  1  0
 22 20  1  0
 23 24  1  1
 23 22  1  0
 24 25  1  0
 25 26  2  0
 26 27  1  0
 28 27  1  0
 29 28  2  0
 30 29  1  0
 31 32  1  0
 31 30  2  0
 32 33  2  0
 33 25  1  0
 33 28  1  0
 34 36  1  0
 34 23  1  0
 35 34  2  0
M  END
$$$$
