WTW.pdb
     RDKit          3D

 36 39  0  0  1  0  0  0  0  0999 V2000
   19.0328  -18.3343  -15.8398 N   0  0  0  0  0  0  0  0  0  0  0  0
   20.3787  -17.8410  -15.8220 C   0  0  1  0  0  0  0  0  0  0  0  0
   20.5775  -16.5073  -15.1765 C   0  0  0  0  0  0  0  0  0  0  0  0
   19.7865  -15.4027  -15.7556 C   0  0  0  0  0  0  0  0  0  0  0  0
   18.6375  -14.8250  -15.1770 C   0  0  0  0  0  0  0  0  0  0  0  0
   18.1883  -13.8550  -15.9800 N   0  0  0  0  0  0  0  0  0  0  0  0
   18.9992  -13.7750  -17.0611 C   0  0  0  0  0  0  0  0  0  0  0  0
   18.9628  -12.9455  -18.1850 C   0  0  0  0  0  0  0  0  0  0  0  0
   19.8973  -13.0501  -19.1863 C   0  0  0  0  0  0  0  0  0  0  0  0
   20.8827  -14.0027  -19.0560 C   0  0  0  0  0  0  0  0  0  0  0  0
   20.9245  -14.8265  -17.9459 C   0  0  0  0  0  0  0  0  0  0  0  0
   19.9794  -14.7209  -16.9284 C   0  0  0  0  0  0  0  0  0  0  0  0
   21.2955  -18.8655  -15.2006 C   0  0  0  0  0  0  0  0  0  0  0  0
   21.0608  -19.3857  -14.0718 O   0  0  0  0  0  0  0  0  0  0  0  0
   22.2226  -22.2080  -16.7023 C   0  0  0  0  0  0  0  0  0  0  0  0
   23.4886  -21.4860  -16.4100 C   0  0  1  0  0  0  0  0  0  0  0  0
   24.1148  -21.0603  -17.5740 O   0  0  0  0  0  0  0  0  0  0  0  0
   23.3837  -20.3188  -15.4807 C   0  0  2  0  0  0  0  0  0  0  0  0
   22.4653  -19.2952  -15.8609 N   0  0  0  0  0  0  0  0  0  0  0  0
   24.7003  -19.8132  -14.9905 C   0  0  0  0  0  0  0  0  0  0  0  0
   25.0025  -18.6082  -15.1542 O   0  0  0  0  0  0  0  0  0  0  0  0
   25.6558  -20.6268  -14.3449 N   0  0  0  0  0  0  0  0  0  0  0  0
   26.9026  -20.0547  -13.8449 C   0  0  1  0  0  0  0  0  0  0  0  0
   26.7885  -19.2157  -12.6507 C   0  0  0  0  0  0  0  0  0  0  0  0
   26.2684  -19.8827  -11.4259 C   0  0  0  0  0  0  0  0  0  0  0  0
   25.4511  -21.0274  -11.4871 C   0  0  0  0  0  0  0  0  0  0  0  0
   25.1670  -21.3697  -10.2285 N   0  0  0  0  0  0  0  0  0  0  0  0
   25.7354  -20.5365   -9.3442 C   0  0  0  0  0  0  0  0  0  0  0  0
   25.7500  -20.4581   -7.9576 C   0  0  0  0  0  0  0  0  0  0  0  0
   26.4675  -19.4367   -7.3734 C   0  0  0  0  0  0  0  0  0  0  0  0
   27.1661  -18.4919   -8.1021 C   0  0  0  0  0  0  0  0  0  0  0  0
   27.1429  -18.5791   -9.4740 C   0  0  0  0  0  0  0  0  0  0  0  0
   26.4236  -19.6086  -10.0944 C   0  0  0  0  0  0  0  0  0  0  0  0
   27.8033  -21.2549  -13.4705 C   0  0  0  0  0  0  0  0  0  0  0  0
   27.3809  -22.4263  -13.5140 O   0  0  0  0  0  0  0  0  0  0  0  0
   29.1041  -20.9736  -13.0812 O   0  0  0  0  0  0  0  0  0  0  0  0
  2  1  1  1
  3  2  1  0
  3  4  1  0
  4 12  1  0
  5  4  2  0
  5  6  1  0
  6  7  1  0
  7  8  1  0
  8  9  2  0
 10  9  1  0
 11 10  2  0
 12  7  2  0
 12 11  1  0
 13  2  1  0
 14 13  2  0
 16 15  1  6
 16 17  1  0
 18 19  1  6
 18 16  1  0
 19 13  1  0
 20 21  2  0
 20 18  1  0
 22 20  1  0
 23 24  1  1
 23 22  1  0
 24 25  1  0
 25 26  2  0
 26 27  1  0
 28 27  1  0
 29 28  2  0
 30 29  1  0
 31 32  1  0
 31 30  2  0
 32 33  2  0
 33 25  1  0
 33 28  1  0
 34 36  1  0
 34 23  1  0
 35 34  2  0
M  END
$$$$
