WTW.pdb
     RDKit          3D

 36 39  0  0  1  0  0  0  0  0999 V2000
   28.3778  -21.0582  -10.9922 N   0  0  0  0  0  0  0  0  0  0  0  0
   27.1276  -21.3571  -10.3577 C   0  0  1  0  0  0  0  0  0  0  0  0
   26.9537  -20.8232   -8.9721 C   0  0  0  0  0  0  0  0  0  0  0  0
   28.1421  -20.9302   -8.1017 C   0  0  0  0  0  0  0  0  0  0  0  0
   29.3291  -21.6239   -8.4155 C   0  0  0  0  0  0  0  0  0  0  0  0
   30.1840  -21.5051   -7.3943 N   0  0  0  0  0  0  0  0  0  0  0  0
   29.6026  -20.7598   -6.4250 C   0  0  0  0  0  0  0  0  0  0  0  0
   30.0615  -20.3565   -5.1684 C   0  0  0  0  0  0  0  0  0  0  0  0
   29.2821  -19.6008   -4.3269 C   0  0  0  0  0  0  0  0  0  0  0  0
   28.0227  -19.2454   -4.7549 C   0  0  0  0  0  0  0  0  0  0  0  0
   27.5628  -19.6411   -5.9978 C   0  0  0  0  0  0  0  0  0  0  0  0
   28.3520  -20.4056   -6.8535 C   0  0  0  0  0  0  0  0  0  0  0  0
   25.9841  -20.9147  -11.2368 C   0  0  0  0  0  0  0  0  0  0  0  0
   25.5211  -19.7381  -11.2017 O   0  0  0  0  0  0  0  0  0  0  0  0
   23.5768  -21.9425  -15.5087 C   0  0  0  0  0  0  0  0  0  0  0  0
   24.5254  -22.3041  -14.4229 C   0  0  1  0  0  0  0  0  0  0  0  0
   25.8445  -22.2271  -14.8499 O   0  0  0  0  0  0  0  0  0  0  0  0
   24.3989  -21.5286  -13.1502 C   0  0  2  0  0  0  0  0  0  0  0  0
   25.3776  -21.8030  -12.1490 N   0  0  0  0  0  0  0  0  0  0  0  0
   23.0010  -21.4326  -12.6346 C   0  0  0  0  0  0  0  0  0  0  0  0
   22.6043  -22.2401  -11.7623 O   0  0  0  0  0  0  0  0  0  0  0  0
   22.0695  -20.4718  -13.0827 N   0  0  0  0  0  0  0  0  0  0  0  0
   20.7065  -20.4576  -12.5595 C   0  0  1  0  0  0  0  0  0  0  0  0
   20.2334  -19.1732  -12.0403 C   0  0  0  0  0  0  0  0  0  0  0  0
   18.8298  -19.1408  -11.5460 C   0  0  0  0  0  0  0  0  0  0  0  0
   18.4849  -19.5539  -10.2451 C   0  0  0  0  0  0  0  0  0  0  0  0
   17.1648  -19.3964  -10.1245 N   0  0  0  0  0  0  0  0  0  0  0  0
   16.6154  -18.9113  -11.2479 C   0  0  0  0  0  0  0  0  0  0  0  0
   15.3219  -18.5772  -11.6280 C   0  0  0  0  0  0  0  0  0  0  0  0
   15.1263  -18.0877  -12.9014 C   0  0  0  0  0  0  0  0  0  0  0  0
   16.1535  -17.9185  -13.8112 C   0  0  0  0  0  0  0  0  0  0  0  0
   17.4293  -18.2540  -13.4239 C   0  0  0  0  0  0  0  0  0  0  0  0
   17.6574  -18.7517  -12.1345 C   0  0  0  0  0  0  0  0  0  0  0  0
   19.7892  -20.8313  -13.7471 C   0  0  0  0  0  0  0  0  0  0  0  0
   20.0280  -20.4379  -14.9051 O   0  0  0  0  0  0  0  0  0  0  0  0
   18.6852  -21.6233  -13.4701 O   0  0  0  0  0  0  0  0  0  0  0  0
  2  1  1  6
  3  2  1  0
  3  4  1  0
  4 12  1  0
  5  4  2  0
  5  6  1  0
  6  7  1  0
  7  8  1  0
  8  9  2  0
 10  9  1  0
 11 10  2  0
 12  7  2  0
 12 11  1  0
 13  2  1  0
 14 13  2  0
 16 15  1  6
 16 17  1  0
 18 19  1  1
 18 16  1  0
 19 13  1  0
 20 21  2  0
 20 18  1  0
 22 20  1  0
 23 24  1  6
 23 22  1  0
 24 25  1  0
 25 26  2  0
 26 27  1  0
 28 27  1  0
 29 28  2  0
 30 29  1  0
 31 32  1  0
 31 30  2  0
 32 33  2  0
 33 25  1  0
 33 28  1  0
 34 36  1  0
 34 23  1  0
 35 34  2  0
M  END
$$$$
