WTW.pdb
     RDKit          3D

 36 39  0  0  1  0  0  0  0  0999 V2000
   24.7070  -17.2742  -15.8960 N   0  0  0  0  0  0  0  0  0  0  0  0
   25.7058  -17.6745  -14.9488 C   0  0  1  0  0  0  0  0  0  0  0  0
   26.4916  -16.5684  -14.3208 C   0  0  0  0  0  0  0  0  0  0  0  0
   27.3239  -15.7795  -15.2516 C   0  0  0  0  0  0  0  0  0  0  0  0
   27.2221  -14.3895  -15.4664 C   0  0  0  0  0  0  0  0  0  0  0  0
   28.1322  -14.0231  -16.3746 N   0  0  0  0  0  0  0  0  0  0  0  0
   28.8262  -15.1192  -16.7617 C   0  0  0  0  0  0  0  0  0  0  0  0
   29.8643  -15.2787  -17.6833 C   0  0  0  0  0  0  0  0  0  0  0  0
   30.4207  -16.5093  -17.9337 C   0  0  0  0  0  0  0  0  0  0  0  0
   29.9260  -17.5957  -17.2477 C   0  0  0  0  0  0  0  0  0  0  0  0
   28.8989  -17.4445  -16.3339 C   0  0  0  0  0  0  0  0  0  0  0  0
   28.3346  -16.1974  -16.0769 C   0  0  0  0  0  0  0  0  0  0  0  0
   25.0874  -18.5471  -13.8847 C   0  0  0  0  0  0  0  0  0  0  0  0
   23.9356  -18.3231  -13.4125 O   0  0  0  0  0  0  0  0  0  0  0  0
   24.3839  -22.8827  -11.8568 C   0  0  0  0  0  0  0  0  0  0  0  0
   24.8102  -21.8994  -12.8867 C   0  0  1  0  0  0  0  0  0  0  0  0
   23.7884  -21.6262  -13.7865 O   0  0  0  0  0  0  0  0  0  0  0  0
   25.3454  -20.5992  -12.3769 C   0  0  2  0  0  0  0  0  0  0  0  0
   25.7733  -19.6657  -13.3674 N   0  0  0  0  0  0  0  0  0  0  0  0
   26.2782  -20.7392  -11.2193 C   0  0  0  0  0  0  0  0  0  0  0  0
   27.5134  -20.6318  -11.4009 O   0  0  0  0  0  0  0  0  0  0  0  0
   25.8493  -20.9995   -9.9003 N   0  0  0  0  0  0  0  0  0  0  0  0
   26.6994  -21.7441   -8.9758 C   0  0  1  0  0  0  0  0  0  0  0  0
   27.9510  -21.0906   -8.5891 C   0  0  0  0  0  0  0  0  0  0  0  0
   27.8429  -20.0186   -7.5622 C   0  0  0  0  0  0  0  0  0  0  0  0
   27.0654  -18.8628   -7.7660 C   0  0  0  0  0  0  0  0  0  0  0  0
   27.1808  -18.1176   -6.6645 N   0  0  0  0  0  0  0  0  0  0  0  0
   27.9756  -18.6959   -5.7517 C   0  0  0  0  0  0  0  0  0  0  0  0
   28.4049  -18.3438   -4.4785 C   0  0  0  0  0  0  0  0  0  0  0  0
   29.2414  -19.2136   -3.8127 C   0  0  0  0  0  0  0  0  0  0  0  0
   29.6708  -20.4112   -4.3540 C   0  0  0  0  0  0  0  0  0  0  0  0
   29.2404  -20.7480   -5.6155 C   0  0  0  0  0  0  0  0  0  0  0  0
   28.3877  -19.8837   -6.3143 C   0  0  0  0  0  0  0  0  0  0  0  0
   25.8677  -21.9287   -7.6851 C   0  0  0  0  0  0  0  0  0  0  0  0
   24.7130  -21.4718   -7.5820 O   0  0  0  0  0  0  0  0  0  0  0  0
   26.4616  -22.6241   -6.6428 O   0  0  0  0  0  0  0  0  0  0  0  0
  2  1  1  1
  3  2  1  0
  3  4  1  0
  4 12  1  0
  5  4  2  0
  5  6  1  0
  6  7  1  0
  7  8  1  0
  8  9  2  0
 10  9  1  0
 11 10  2  0
 12  7  2  0
 12 11  1  0
 13  2  1  0
 14 13  2  0
 16 15  1  1
 16 17  1  0
 18 19  1  6
 18 16  1  0
 19 13  1  0
 20 21  2  0
 20 18  1  0
 22 20  1  0
 23 24  1  1
 23 22  1  0
 24 25  1  0
 25 26  2  0
 26 27  1  0
 28 27  1  0
 29 28  2  0
 30 29  1  0
 31 32  1  0
 31 30  2  0
 32 33  2  0
 33 25  1  0
 33 28  1  0
 34 36  1  0
 34 23  1  0
 35 34  2  0
M  END
$$$$
