WTW.pdb
     RDKit          3D

 36 39  0  0  1  0  0  0  0  0999 V2000
   23.8864  -17.8771  -17.0802 N   0  0  0  0  0  0  0  0  0  0  0  0
   24.1251  -18.4594  -15.7922 C   0  0  1  0  0  0  0  0  0  0  0  0
   22.9777  -19.2038  -15.1887 C   0  0  0  0  0  0  0  0  0  0  0  0
   21.6635  -18.5406  -15.3082 C   0  0  0  0  0  0  0  0  0  0  0  0
   20.4610  -19.1663  -15.6968 C   0  0  0  0  0  0  0  0  0  0  0  0
   19.4789  -18.2591  -15.6929 N   0  0  0  0  0  0  0  0  0  0  0  0
   19.9920  -17.0643  -15.3161 C   0  0  0  0  0  0  0  0  0  0  0  0
   19.3973  -15.8090  -15.1641 C   0  0  0  0  0  0  0  0  0  0  0  0
   20.1258  -14.7102  -14.7785 C   0  0  0  0  0  0  0  0  0  0  0  0
   21.4721  -14.8757  -14.5425 C   0  0  0  0  0  0  0  0  0  0  0  0
   22.0666  -16.1156  -14.6907 C   0  0  0  0  0  0  0  0  0  0  0  0
   21.3296  -17.2315  -15.0795 C   0  0  0  0  0  0  0  0  0  0  0  0
   25.3509  -19.3375  -15.8422 C   0  0  0  0  0  0  0  0  0  0  0  0
   25.4453  -20.3216  -16.6313 O   0  0  0  0  0  0  0  0  0  0  0  0
   29.1958  -18.4823  -16.0231 C   0  0  0  0  0  0  0  0  0  0  0  0
   28.9227  -19.2891  -14.8049 C   0  0  1  0  0  0  0  0  0  0  0  0
   29.1132  -18.5467  -13.6469 O   0  0  0  0  0  0  0  0  0  0  0  0
   27.5768  -19.9370  -14.7300 C   0  0  2  0  0  0  0  0  0  0  0  0
   26.4590  -19.0939  -15.0044 N   0  0  0  0  0  0  0  0  0  0  0  0
   27.3984  -20.8301  -13.5468 C   0  0  0  0  0  0  0  0  0  0  0  0
   28.1038  -21.8597  -13.4343 O   0  0  0  0  0  0  0  0  0  0  0  0
   26.4568  -20.5891  -12.5237 N   0  0  0  0  0  0  0  0  0  0  0  0
   26.3326  -21.5086  -11.3964 C   0  0  1  0  0  0  0  0  0  0  0  0
   27.4515  -21.5193  -10.4525 C   0  0  0  0  0  0  0  0  0  0  0  0
   27.3794  -20.5372   -9.3363 C   0  0  0  0  0  0  0  0  0  0  0  0
   26.3284  -19.6073   -9.2246 C   0  0  0  0  0  0  0  0  0  0  0  0
   26.5615  -18.8877   -8.1247 N   0  0  0  0  0  0  0  0  0  0  0  0
   27.6865  -19.2739   -7.5047 C   0  0  0  0  0  0  0  0  0  0  0  0
   28.3511  -18.8612   -6.3570 C   0  0  0  0  0  0  0  0  0  0  0  0
   29.5159  -19.5123   -6.0127 C   0  0  0  0  0  0  0  0  0  0  0  0
   30.0494  -20.5490   -6.7558 C   0  0  0  0  0  0  0  0  0  0  0  0
   29.3833  -20.9477   -7.8905 C   0  0  0  0  0  0  0  0  0  0  0  0
   28.1956  -20.3051   -8.2630 C   0  0  0  0  0  0  0  0  0  0  0  0
   25.0813  -21.0534  -10.6097 C   0  0  0  0  0  0  0  0  0  0  0  0
   24.4900  -19.9909  -10.8823 O   0  0  0  0  0  0  0  0  0  0  0  0
   24.6433  -21.8773   -9.5841 O   0  0  0  0  0  0  0  0  0  0  0  0
  2  1  1  6
  3  2  1  0
  3  4  1  0
  4 12  1  0
  5  4  2  0
  5  6  1  0
  6  7  1  0
  7  8  1  0
  8  9  2  0
 10  9  1  0
 11 10  2  0
 12  7  2  0
 12 11  1  0
 13  2  1  0
 14 13  2  0
 16 15  1  6
 16 17  1  0
 18 19  1  1
 18 16  1  0
 19 13  1  0
 20 21  2  0
 20 18  1  0
 22 20  1  0
 23 24  1  1
 23 22  1  0
 24 25  1  0
 25 26  2  0
 26 27  1  0
 28 27  1  0
 29 28  2  0
 30 29  1  0
 31 32  1  0
 31 30  2  0
 32 33  2  0
 33 25  1  0
 33 28  1  0
 34 36  1  0
 34 23  1  0
 35 34  2  0
M  END
$$$$
