WTW.pdb
     RDKit          3D

 36 39  0  0  1  0  0  0  0  0999 V2000
   28.3399  -20.6277   -9.8358 N   0  0  0  0  0  0  0  0  0  0  0  0
   26.9342  -20.8282   -9.6389 C   0  0  1  0  0  0  0  0  0  0  0  0
   26.3249  -20.0974   -8.4858 C   0  0  0  0  0  0  0  0  0  0  0  0
   27.2724  -19.6809   -7.4321 C   0  0  0  0  0  0  0  0  0  0  0  0
   27.9678  -18.4548   -7.3920 C   0  0  0  0  0  0  0  0  0  0  0  0
   28.7332  -18.4256   -6.2961 N   0  0  0  0  0  0  0  0  0  0  0  0
   28.5648  -19.5848   -5.6172 C   0  0  0  0  0  0  0  0  0  0  0  0
   29.1348  -20.0524   -4.4303 C   0  0  0  0  0  0  0  0  0  0  0  0
   28.8242  -21.2902   -3.9223 C   0  0  0  0  0  0  0  0  0  0  0  0
   27.9274  -22.0696   -4.6180 C   0  0  0  0  0  0  0  0  0  0  0  0
   27.3594  -21.6124   -5.7933 C   0  0  0  0  0  0  0  0  0  0  0  0
   27.6713  -20.3569   -6.3090 C   0  0  0  0  0  0  0  0  0  0  0  0
   26.1855  -20.5166  -10.9111 C   0  0  0  0  0  0  0  0  0  0  0  0
   26.3654  -19.4429  -11.5551 O   0  0  0  0  0  0  0  0  0  0  0  0
   25.9721  -22.6412  -14.0965 C   0  0  0  0  0  0  0  0  0  0  0  0
   24.5849  -22.3556  -13.6453 C   0  0  1  0  0  0  0  0  0  0  0  0
   23.9525  -23.5013  -13.1807 O   0  0  0  0  0  0  0  0  0  0  0  0
   24.4339  -21.2853  -12.6116 C   0  0  2  0  0  0  0  0  0  0  0  0
   25.2445  -21.4211  -11.4454 N   0  0  0  0  0  0  0  0  0  0  0  0
   23.0169  -20.9042  -12.3353 C   0  0  0  0  0  0  0  0  0  0  0  0
   22.5140  -21.1545  -11.2152 O   0  0  0  0  0  0  0  0  0  0  0  0
   22.1818  -20.2714  -13.2806 N   0  0  0  0  0  0  0  0  0  0  0  0
   20.8213  -19.8785  -12.9251 C   0  0  1  0  0  0  0  0  0  0  0  0
   20.6012  -18.4457  -12.7210 C   0  0  0  0  0  0  0  0  0  0  0  0
   21.1635  -17.5397  -13.7595 C   0  0  0  0  0  0  0  0  0  0  0  0
   22.0534  -17.9976  -14.7496 C   0  0  0  0  0  0  0  0  0  0  0  0
   22.3590  -16.9465  -15.5135 N   0  0  0  0  0  0  0  0  0  0  0  0
   21.7375  -15.8318  -15.1006 C   0  0  0  0  0  0  0  0  0  0  0  0
   21.7177  -14.5142  -15.5396 C   0  0  0  0  0  0  0  0  0  0  0  0
   20.9352  -13.6129  -14.8504 C   0  0  0  0  0  0  0  0  0  0  0  0
   20.1768  -13.9600  -13.7477 C   0  0  0  0  0  0  0  0  0  0  0  0
   20.2058  -15.2669  -13.3218 C   0  0  0  0  0  0  0  0  0  0  0  0
   20.9906  -16.2048  -14.0050 C   0  0  0  0  0  0  0  0  0  0  0  0
   19.9284  -20.3089  -14.1124 C   0  0  0  0  0  0  0  0  0  0  0  0
   19.2721  -19.4784  -14.7698 O   0  0  0  0  0  0  0  0  0  0  0  0
   19.8863  -21.6613  -14.4157 O   0  0  0  0  0  0  0  0  0  0  0  0
  2  1  1  6
  3  2  1  0
  3  4  1  0
  4 12  1  0
  5  4  2  0
  5  6  1  0
  6  7  1  0
  7  8  1  0
  8  9  2  0
 10  9  1  0
 11 10  2  0
 12  7  2  0
 12 11  1  0
 13  2  1  0
 14 13  2  0
 16 15  1  1
 16 17  1  0
 18 19  1  1
 18 16  1  0
 19 13  1  0
 20 21  2  0
 20 18  1  0
 22 20  1  0
 23 24  1  6
 23 22  1  0
 24 25  1  0
 25 26  2  0
 26 27  1  0
 28 27  1  0
 29 28  2  0
 30 29  1  0
 31 32  1  0
 31 30  2  0
 32 33  2  0
 33 25  1  0
 33 28  1  0
 34 36  1  0
 34 23  1  0
 35 34  2  0
M  END
$$$$
