WTW.pdb
     RDKit          3D

 36 39  0  0  1  0  0  0  0  0999 V2000
   23.5041  -20.8446  -16.8169 N   0  0  0  0  0  0  0  0  0  0  0  0
   23.9384  -20.0493  -15.7062 C   0  0  1  0  0  0  0  0  0  0  0  0
   22.8931  -19.7213  -14.6889 C   0  0  0  0  0  0  0  0  0  0  0  0
   21.9119  -18.6972  -15.1011 C   0  0  0  0  0  0  0  0  0  0  0  0
   20.5401  -18.9232  -15.3369 C   0  0  0  0  0  0  0  0  0  0  0  0
   19.9651  -17.7696  -15.6922 N   0  0  0  0  0  0  0  0  0  0  0  0
   20.9074  -16.7975  -15.6972 C   0  0  0  0  0  0  0  0  0  0  0  0
   20.8301  -15.4362  -16.0029 C   0  0  0  0  0  0  0  0  0  0  0  0
   21.9371  -14.6245  -15.9547 C   0  0  0  0  0  0  0  0  0  0  0  0
   23.1397  -15.1895  -15.5941 C   0  0  0  0  0  0  0  0  0  0  0  0
   23.2228  -16.5362  -15.2898 C   0  0  0  0  0  0  0  0  0  0  0  0
   22.1014  -17.3607  -15.3360 C   0  0  0  0  0  0  0  0  0  0  0  0
   25.1297  -20.6955  -15.0434 C   0  0  0  0  0  0  0  0  0  0  0  0
   25.2577  -21.9512  -14.9599 O   0  0  0  0  0  0  0  0  0  0  0  0
   29.3111  -19.7759  -12.3362 C   0  0  0  0  0  0  0  0  0  0  0  0
   28.2419  -19.3259  -13.2657 C   0  0  1  0  0  0  0  0  0  0  0  0
   28.7551  -18.9930  -14.5123 O   0  0  0  0  0  0  0  0  0  0  0  0
   27.1004  -20.2712  -13.4662 C   0  0  2  0  0  0  0  0  0  0  0  0
   26.1660  -19.9186  -14.4852 N   0  0  0  0  0  0  0  0  0  0  0  0
   26.4757  -20.7463  -12.1959 C   0  0  0  0  0  0  0  0  0  0  0  0
   25.2286  -20.7318  -12.0742 O   0  0  0  0  0  0  0  0  0  0  0  0
   27.2175  -21.2154  -11.0909 N   0  0  0  0  0  0  0  0  0  0  0  0
   26.5418  -21.6348   -9.8664 C   0  0  1  0  0  0  0  0  0  0  0  0
   27.4004  -21.8351   -8.6977 C   0  0  0  0  0  0  0  0  0  0  0  0
   27.5537  -20.6678   -7.7869 C   0  0  0  0  0  0  0  0  0  0  0  0
   26.9240  -19.4342   -8.0390 C   0  0  0  0  0  0  0  0  0  0  0  0
   27.2608  -18.6148   -7.0405 N   0  0  0  0  0  0  0  0  0  0  0  0
   28.0646  -19.2161   -6.1509 C   0  0  0  0  0  0  0  0  0  0  0  0
   28.6756  -18.8140   -4.9701 C   0  0  0  0  0  0  0  0  0  0  0  0
   29.4534  -19.7316   -4.2974 C   0  0  0  0  0  0  0  0  0  0  0  0
   29.6528  -21.0245   -4.7448 C   0  0  0  0  0  0  0  0  0  0  0  0
   29.0441  -21.4104   -5.9156 C   0  0  0  0  0  0  0  0  0  0  0  0
   28.2459  -20.4990   -6.6188 C   0  0  0  0  0  0  0  0  0  0  0  0
   25.5540  -20.4986   -9.5129 C   0  0  0  0  0  0  0  0  0  0  0  0
   25.8043  -19.3084   -9.7843 O   0  0  0  0  0  0  0  0  0  0  0  0
   24.3751  -20.8587   -8.8780 O   0  0  0  0  0  0  0  0  0  0  0  0
  2  1  1  6
  3  2  1  0
  3  4  1  0
  4 12  1  0
  5  4  2  0
  5  6  1  0
  6  7  1  0
  7  8  1  0
  8  9  2  0
 10  9  1  0
 11 10  2  0
 12  7  2  0
 12 11  1  0
 13  2  1  0
 14 13  2  0
 16 15  1  1
 16 17  1  0
 18 19  1  6
 18 16  1  0
 19 13  1  0
 20 21  2  0
 20 18  1  0
 22 20  1  0
 23 24  1  1
 23 22  1  0
 24 25  1  0
 25 26  2  0
 26 27  1  0
 28 27  1  0
 29 28  2  0
 30 29  1  0
 31 32  1  0
 31 30  2  0
 32 33  2  0
 33 25  1  0
 33 28  1  0
 34 36  1  0
 34 23  1  0
 35 34  2  0
M  END
$$$$
