WTW.pdb
     RDKit          3D

 36 39  0  0  1  0  0  0  0  0999 V2000
   28.0678  -22.2853  -13.9521 N   0  0  0  0  0  0  0  0  0  0  0  0
   27.1049  -21.5261  -13.2095 C   0  0  1  0  0  0  0  0  0  0  0  0
   27.6130  -20.2752  -12.5675 C   0  0  0  0  0  0  0  0  0  0  0  0
   28.2363  -20.4561  -11.2409 C   0  0  0  0  0  0  0  0  0  0  0  0
   29.6093  -20.6716  -11.0018 C   0  0  0  0  0  0  0  0  0  0  0  0
   29.8070  -20.7902   -9.6848 N   0  0  0  0  0  0  0  0  0  0  0  0
   28.6168  -20.6598   -9.0529 C   0  0  0  0  0  0  0  0  0  0  0  0
   28.2784  -20.7131   -7.6982 C   0  0  0  0  0  0  0  0  0  0  0  0
   26.9799  -20.5662   -7.2753 C   0  0  0  0  0  0  0  0  0  0  0  0
   26.0071  -20.3629   -8.2281 C   0  0  0  0  0  0  0  0  0  0  0  0
   26.3356  -20.3087   -9.5706 C   0  0  0  0  0  0  0  0  0  0  0  0
   27.6518  -20.4553  -10.0016 C   0  0  0  0  0  0  0  0  0  0  0  0
   25.9087  -21.2210  -14.0768 C   0  0  0  0  0  0  0  0  0  0  0  0
   26.0222  -20.7174  -15.2315 O   0  0  0  0  0  0  0  0  0  0  0  0
   23.6002  -23.3953  -15.7829 C   0  0  0  0  0  0  0  0  0  0  0  0
   22.7488  -22.5839  -14.8738 C   0  0  1  0  0  0  0  0  0  0  0  0
   22.2834  -23.3356  -13.8030 O   0  0  0  0  0  0  0  0  0  0  0  0
   23.3646  -21.3320  -14.3348 C   0  0  2  0  0  0  0  0  0  0  0  0
   24.5971  -21.4909  -13.6339 N   0  0  0  0  0  0  0  0  0  0  0  0
   22.3919  -20.4152  -13.6693 C   0  0  0  0  0  0  0  0  0  0  0  0
   22.3097  -20.3990  -12.4191 O   0  0  0  0  0  0  0  0  0  0  0  0
   21.5303  -19.5484  -14.3749 N   0  0  0  0  0  0  0  0  0  0  0  0
   20.5946  -18.6859  -13.6591 C   0  0  1  0  0  0  0  0  0  0  0  0
   20.5663  -17.2839  -14.0794 C   0  0  0  0  0  0  0  0  0  0  0  0
   20.4172  -17.0384  -15.5399 C   0  0  0  0  0  0  0  0  0  0  0  0
   19.1603  -16.8322  -16.1395 C   0  0  0  0  0  0  0  0  0  0  0  0
   19.3781  -16.6402  -17.4425 N   0  0  0  0  0  0  0  0  0  0  0  0
   20.6833  -16.7048  -17.7451 C   0  0  0  0  0  0  0  0  0  0  0  0
   21.4131  -16.5765  -18.9199 C   0  0  0  0  0  0  0  0  0  0  0  0
   22.7836  -16.7032  -18.8489 C   0  0  0  0  0  0  0  0  0  0  0  0
   23.4586  -16.9530  -17.6685 C   0  0  0  0  0  0  0  0  0  0  0  0
   22.7253  -17.0794  -16.5124 C   0  0  0  0  0  0  0  0  0  0  0  0
   21.3308  -16.9530  -16.5549 C   0  0  0  0  0  0  0  0  0  0  0  0
   19.1869  -19.2673  -13.9273 C   0  0  0  0  0  0  0  0  0  0  0  0
   18.9883  -20.1076  -14.8257 O   0  0  0  0  0  0  0  0  0  0  0  0
   18.1505  -18.8129  -13.1259 O   0  0  0  0  0  0  0  0  0  0  0  0
  2  1  1  6
  3  2  1  0
  3  4  1  0
  4 12  1  0
  5  4  2  0
  5  6  1  0
  6  7  1  0
  7  8  1  0
  8  9  2  0
 10  9  1  0
 11 10  2  0
 12  7  2  0
 12 11  1  0
 13  2  1  0
 14 13  2  0
 16 15  1  1
 16 17  1  0
 18 19  1  1
 18 16  1  0
 19 13  1  0
 20 21  2  0
 20 18  1  0
 22 20  1  0
 23 24  1  6
 23 22  1  0
 24 25  1  0
 25 26  2  0
 26 27  1  0
 28 27  1  0
 29 28  2  0
 30 29  1  0
 31 32  1  0
 31 30  2  0
 32 33  2  0
 33 25  1  0
 33 28  1  0
 34 36  1  0
 34 23  1  0
 35 34  2  0
M  END
$$$$
