WTW.pdb
     RDKit          3D

 36 39  0  0  1  0  0  0  0  0999 V2000
   26.0226  -18.3627  -16.3525 N   0  0  0  0  0  0  0  0  0  0  0  0
   26.8823  -18.8609  -15.3192 C   0  0  1  0  0  0  0  0  0  0  0  0
   28.2362  -18.2323  -15.2358 C   0  0  0  0  0  0  0  0  0  0  0  0
   29.0237  -18.2640  -16.4848 C   0  0  0  0  0  0  0  0  0  0  0  0
   29.7240  -19.3810  -16.9852 C   0  0  0  0  0  0  0  0  0  0  0  0
   30.3194  -19.0414  -18.1331 N   0  0  0  0  0  0  0  0  0  0  0  0
   30.0351  -17.7456  -18.4037 C   0  0  0  0  0  0  0  0  0  0  0  0
   30.4163  -16.9168  -19.4620 C   0  0  0  0  0  0  0  0  0  0  0  0
   30.0154  -15.6047  -19.5281 C   0  0  0  0  0  0  0  0  0  0  0  0
   29.2197  -15.1186  -18.5152 C   0  0  0  0  0  0  0  0  0  0  0  0
   28.8385  -15.9339  -17.4651 C   0  0  0  0  0  0  0  0  0  0  0  0
   29.2421  -17.2651  -17.3970 C   0  0  0  0  0  0  0  0  0  0  0  0
   26.1845  -18.7806  -13.9840 C   0  0  0  0  0  0  0  0  0  0  0  0
   25.7907  -17.6837  -13.4925 O   0  0  0  0  0  0  0  0  0  0  0  0
   22.9505  -19.6287  -13.0640 C   0  0  0  0  0  0  0  0  0  0  0  0
   23.7658  -20.4505  -12.1315 C   0  0  1  0  0  0  0  0  0  0  0  0
   23.7030  -21.8004  -12.4513 O   0  0  0  0  0  0  0  0  0  0  0  0
   25.2054  -20.0669  -11.9996 C   0  0  2  0  0  0  0  0  0  0  0  0
   25.9345  -19.9390  -13.2193 N   0  0  0  0  0  0  0  0  0  0  0  0
   25.9327  -20.8011  -10.9218 C   0  0  0  0  0  0  0  0  0  0  0  0
   26.9671  -21.4504  -11.2022 O   0  0  0  0  0  0  0  0  0  0  0  0
   25.5160  -20.8193   -9.5737 N   0  0  0  0  0  0  0  0  0  0  0  0
   26.1195  -21.7473   -8.6218 C   0  0  1  0  0  0  0  0  0  0  0  0
   27.4550  -21.3912   -8.1392 C   0  0  0  0  0  0  0  0  0  0  0  0
   27.5566  -20.1281   -7.3582 C   0  0  0  0  0  0  0  0  0  0  0  0
   26.7823  -18.9935   -7.6664 C   0  0  0  0  0  0  0  0  0  0  0  0
   27.1094  -18.0481   -6.7826 N   0  0  0  0  0  0  0  0  0  0  0  0
   28.0405  -18.4751   -5.9166 C   0  0  0  0  0  0  0  0  0  0  0  0
   28.6979  -17.8978   -4.8379 C   0  0  0  0  0  0  0  0  0  0  0  0
   29.6193  -18.6624   -4.1553 C   0  0  0  0  0  0  0  0  0  0  0  0
   29.9175  -19.9686   -4.4966 C   0  0  0  0  0  0  0  0  0  0  0  0
   29.2614  -20.5286   -5.5672 C   0  0  0  0  0  0  0  0  0  0  0  0
   28.3180  -19.7751   -6.2776 C   0  0  0  0  0  0  0  0  0  0  0  0
   25.1835  -21.7655   -7.3908 C   0  0  0  0  0  0  0  0  0  0  0  0
   24.1601  -21.0565   -7.3388 O   0  0  0  0  0  0  0  0  0  0  0  0
   25.5312  -22.6043   -6.3429 O   0  0  0  0  0  0  0  0  0  0  0  0
  2  1  1  6
  3  2  1  0
  3  4  1  0
  4 12  1  0
  5  4  2  0
  5  6  1  0
  6  7  1  0
  7  8  1  0
  8  9  2  0
 10  9  1  0
 11 10  2  0
 12  7  2  0
 12 11  1  0
 13  2  1  0
 14 13  2  0
 16 15  1  6
 16 17  1  0
 18 19  1  6
 18 16  1  0
 19 13  1  0
 20 21  2  0
 20 18  1  0
 22 20  1  0
 23 24  1  1
 23 22  1  0
 24 25  1  0
 25 26  2  0
 26 27  1  0
 28 27  1  0
 29 28  2  0
 30 29  1  0
 31 32  1  0
 31 30  2  0
 32 33  2  0
 33 25  1  0
 33 28  1  0
 34 36  1  0
 34 23  1  0
 35 34  2  0
M  END
$$$$
