FGG.pdb
     RDKit          3D

 20 20  0  0  1  0  0  0  0  0999 V2000
    7.4048  -15.9912   25.9844 N   0  0  0  0  0  0  0  0  0  0  0  0
    7.5856  -15.3768   24.6897 C   0  0  1  0  0  0  0  0  0  0  0  0
    8.3630  -14.0710   24.8141 C   0  0  0  0  0  0  0  0  0  0  0  0
    7.5804  -13.1788   25.7049 C   0  0  0  0  0  0  0  0  0  0  0  0
    8.1232  -12.6903   26.8674 C   0  0  0  0  0  0  0  0  0  0  0  0
    7.4026  -11.8606   27.7006 C   0  0  0  0  0  0  0  0  0  0  0  0
    6.1064  -11.5094   27.3648 C   0  0  0  0  0  0  0  0  0  0  0  0
    5.5467  -11.9871   26.2077 C   0  0  0  0  0  0  0  0  0  0  0  0
    6.2899  -12.8238   25.3789 C   0  0  0  0  0  0  0  0  0  0  0  0
    8.3094  -16.3009   23.7546 C   0  0  0  0  0  0  0  0  0  0  0  0
    9.0272  -17.2313   24.2076 O   0  0  0  0  0  0  0  0  0  0  0  0
    8.2110  -16.1597   22.3504 N   0  0  0  0  0  0  0  0  0  0  0  0
    8.9832  -16.9551   21.4192 C   0  0  0  0  0  0  0  0  0  0  0  0
   10.3546  -16.4205   21.3573 C   0  0  0  0  0  0  0  0  0  0  0  0
   10.7333  -15.7889   20.3431 O   0  0  0  0  0  0  0  0  0  0  0  0
   11.2963  -16.5925   22.4253 N   0  0  0  0  0  0  0  0  0  0  0  0
   12.6523  -16.1114   22.2417 C   0  0  0  0  0  0  0  0  0  0  0  0
   13.5101  -16.4284   23.3859 C   0  0  0  0  0  0  0  0  0  0  0  0
   14.8462  -16.0292   23.4859 O   0  0  0  0  0  0  0  0  0  0  0  0
   13.0232  -17.0948   24.3309 O   0  0  0  0  0  0  0  0  0  0  0  0
  2  1  1  1
  2 10  1  0
  3  2  1  0
  4  3  1  0
  4  5  2  0
  6  5  1  0
  7  6  2  0
  8  9  2  0
  8  7  1  0
  9  4  1  0
 10 11  2  0
 12 10  1  0
 12 13  1  0
 13 14  1  0
 14 15  2  0
 16 17  1  0
 16 14  1  0
 18 19  1  0
 18 17  1  0
 20 18  2  0
M  END
$$$$
