FGG.pdb
     RDKit          3D

 20 20  0  0  1  0  0  0  0  0999 V2000
    6.9850  -16.1281   25.8232 N   0  0  0  0  0  0  0  0  0  0  0  0
    7.6847  -15.5066   24.7230 C   0  0  1  0  0  0  0  0  0  0  0  0
    8.4666  -14.2870   25.1984 C   0  0  0  0  0  0  0  0  0  0  0  0
    7.4911  -13.3553   25.8166 C   0  0  0  0  0  0  0  0  0  0  0  0
    7.6274  -12.9558   27.1229 C   0  0  0  0  0  0  0  0  0  0  0  0
    6.7252  -12.0902   27.7048 C   0  0  0  0  0  0  0  0  0  0  0  0
    5.6590  -11.6108   26.9634 C   0  0  0  0  0  0  0  0  0  0  0  0
    5.5056  -11.9982   25.6570 C   0  0  0  0  0  0  0  0  0  0  0  0
    6.4269  -12.8730   25.0867 C   0  0  0  0  0  0  0  0  0  0  0  0
    8.6240  -16.4772   24.0688 C   0  0  0  0  0  0  0  0  0  0  0  0
    8.9028  -17.5700   24.6294 O   0  0  0  0  0  0  0  0  0  0  0  0
    9.2206  -16.2008   22.8162 N   0  0  0  0  0  0  0  0  0  0  0  0
   10.1157  -17.1204   22.1460 C   0  0  0  0  0  0  0  0  0  0  0  0
   11.4322  -16.4777   21.9906 C   0  0  0  0  0  0  0  0  0  0  0  0
   11.5835  -15.5595   21.1510 O   0  0  0  0  0  0  0  0  0  0  0  0
   12.5725  -16.8615   22.7712 N   0  0  0  0  0  0  0  0  0  0  0  0
   13.6878  -15.9397   22.8738 C   0  0  0  0  0  0  0  0  0  0  0  0
   14.6859  -16.3873   23.8479 C   0  0  0  0  0  0  0  0  0  0  0  0
   14.5883  -17.5857   24.5612 O   0  0  0  0  0  0  0  0  0  0  0  0
   15.6854  -15.6582   24.0569 O   0  0  0  0  0  0  0  0  0  0  0  0
  2  1  1  1
  2 10  1  0
  3  2  1  0
  4  3  1  0
  4  5  2  0
  6  5  1  0
  7  6  2  0
  8  9  2  0
  8  7  1  0
  9  4  1  0
 10 11  2  0
 12 10  1  0
 12 13  1  0
 13 14  1  0
 14 15  2  0
 16 17  1  0
 16 14  1  0
 18 19  1  0
 18 17  1  0
 20 18  2  0
M  END
$$$$
