FGG.pdb
     RDKit          3D

 20 20  0  0  1  0  0  0  0  0999 V2000
    7.3993  -16.2232   26.0459 N   0  0  0  0  0  0  0  0  0  0  0  0
    7.7490  -15.5768   24.8025 C   0  0  1  0  0  0  0  0  0  0  0  0
    8.5641  -14.3141   25.0593 C   0  0  0  0  0  0  0  0  0  0  0  0
    7.6762  -13.3554   25.7626 C   0  0  0  0  0  0  0  0  0  0  0  0
    7.9517  -12.9489   27.0446 C   0  0  0  0  0  0  0  0  0  0  0  0
    7.1315  -12.0584   27.7051 C   0  0  0  0  0  0  0  0  0  0  0  0
    6.0071  -11.5605   27.0693 C   0  0  0  0  0  0  0  0  0  0  0  0
    5.7151  -11.9546   25.7888 C   0  0  0  0  0  0  0  0  0  0  0  0
    6.5550  -12.8547   25.1380 C   0  0  0  0  0  0  0  0  0  0  0  0
    8.5310  -16.5038   23.9183 C   0  0  0  0  0  0  0  0  0  0  0  0
    8.6899  -17.7103   24.2427 O   0  0  0  0  0  0  0  0  0  0  0  0
    9.1086  -16.0591   22.7059 N   0  0  0  0  0  0  0  0  0  0  0  0
    9.7733  -16.9458   21.7742 C   0  0  0  0  0  0  0  0  0  0  0  0
   11.2150  -16.6431   21.7724 C   0  0  0  0  0  0  0  0  0  0  0  0
   11.9563  -17.1398   20.8923 O   0  0  0  0  0  0  0  0  0  0  0  0
   11.8228  -15.7887   22.7511 N   0  0  0  0  0  0  0  0  0  0  0  0
   13.2523  -15.5538   22.6781 C   0  0  0  0  0  0  0  0  0  0  0  0
   13.9954  -16.3688   23.6420 C   0  0  0  0  0  0  0  0  0  0  0  0
   14.6225  -15.8460   24.7769 O   0  0  0  0  0  0  0  0  0  0  0  0
   14.0763  -17.6049   23.4423 O   0  0  0  0  0  0  0  0  0  0  0  0
  2  1  1  1
  2 10  1  0
  3  2  1  0
  4  3  1  0
  4  5  2  0
  6  5  1  0
  7  6  2  0
  8  9  2  0
  8  7  1  0
  9  4  1  0
 10 11  2  0
 12 10  1  0
 12 13  1  0
 13 14  1  0
 14 15  2  0
 16 17  1  0
 16 14  1  0
 18 19  1  0
 18 17  1  0
 20 18  2  0
M  END
$$$$
