FGG.pdb
     RDKit          3D

 20 20  0  0  1  0  0  0  0  0999 V2000
    6.1838  -16.5404   25.6782 N   0  0  0  0  0  0  0  0  0  0  0  0
    7.4430  -16.0596   25.1589 C   0  0  1  0  0  0  0  0  0  0  0  0
    8.1053  -15.1033   26.1446 C   0  0  0  0  0  0  0  0  0  0  0  0
    7.2505  -13.8928   26.2217 C   0  0  0  0  0  0  0  0  0  0  0  0
    6.1461  -13.8600   27.0366 C   0  0  0  0  0  0  0  0  0  0  0  0
    5.3466  -12.7389   27.1140 C   0  0  0  0  0  0  0  0  0  0  0  0
    5.6575  -11.6215   26.3582 C   0  0  0  0  0  0  0  0  0  0  0  0
    6.7565  -11.6349   25.5383 C   0  0  0  0  0  0  0  0  0  0  0  0
    7.5519  -12.7761   25.4734 C   0  0  0  0  0  0  0  0  0  0  0  0
    8.3737  -17.2008   24.8693 C   0  0  0  0  0  0  0  0  0  0  0  0
    8.0484  -18.3799   25.1694 O   0  0  0  0  0  0  0  0  0  0  0  0
    9.6321  -16.9930   24.2572 N   0  0  0  0  0  0  0  0  0  0  0  0
    9.8294  -16.0946   23.1391 C   0  0  0  0  0  0  0  0  0  0  0  0
   11.2165  -16.2253   22.6603 C   0  0  0  0  0  0  0  0  0  0  0  0
   11.6391  -15.4670   21.7563 O   0  0  0  0  0  0  0  0  0  0  0  0
   12.1249  -17.1999   23.1913 N   0  0  0  0  0  0  0  0  0  0  0  0
   13.0034  -16.8128   24.2786 C   0  0  0  0  0  0  0  0  0  0  0  0
   14.3119  -16.3633   23.7975 C   0  0  0  0  0  0  0  0  0  0  0  0
   15.5208  -16.9548   24.1761 O   0  0  0  0  0  0  0  0  0  0  0  0
   14.3551  -15.3944   23.0016 O   0  0  0  0  0  0  0  0  0  0  0  0
  2  1  1  1
  2 10  1  0
  3  2  1  0
  4  3  1  0
  4  5  2  0
  6  5  1  0
  7  6  2  0
  8  9  2  0
  8  7  1  0
  9  4  1  0
 10 11  2  0
 12 10  1  0
 12 13  1  0
 13 14  1  0
 14 15  2  0
 16 17  1  0
 16 14  1  0
 18 19  1  0
 18 17  1  0
 20 18  2  0
M  END
$$$$
