FGG.pdb
     RDKit          3D

 20 20  0  0  1  0  0  0  0  0999 V2000
    8.2477  -18.1148   20.5459 N   0  0  0  0  0  0  0  0  0  0  0  0
    8.2747  -16.8897   21.3105 C   0  0  1  0  0  0  0  0  0  0  0  0
    6.9070  -16.2158   21.3017 C   0  0  0  0  0  0  0  0  0  0  0  0
    7.1296  -14.7772   21.0137 C   0  0  0  0  0  0  0  0  0  0  0  0
    7.3311  -14.3380   19.7287 C   0  0  0  0  0  0  0  0  0  0  0  0
    7.5387  -13.0028   19.4528 C   0  0  0  0  0  0  0  0  0  0  0  0
    7.5452  -12.0820   20.4864 C   0  0  0  0  0  0  0  0  0  0  0  0
    7.3457  -12.5012   21.7767 C   0  0  0  0  0  0  0  0  0  0  0  0
    7.1378  -13.8535   22.0358 C   0  0  0  0  0  0  0  0  0  0  0  0
    8.6922  -17.1519   22.7279 C   0  0  0  0  0  0  0  0  0  0  0  0
    8.2670  -18.1673   23.3397 O   0  0  0  0  0  0  0  0  0  0  0  0
    9.5667  -16.2782   23.4160 N   0  0  0  0  0  0  0  0  0  0  0  0
    9.9654  -16.4807   24.7930 C   0  0  0  0  0  0  0  0  0  0  0  0
   11.4005  -16.8114   24.8310 C   0  0  0  0  0  0  0  0  0  0  0  0
   11.9755  -16.9714   25.9332 O   0  0  0  0  0  0  0  0  0  0  0  0
   12.1870  -16.9620   23.6411 N   0  0  0  0  0  0  0  0  0  0  0  0
   13.5929  -17.2934   23.7735 C   0  0  0  0  0  0  0  0  0  0  0  0
   14.3647  -16.9075   22.5899 C   0  0  0  0  0  0  0  0  0  0  0  0
   14.8408  -15.6124   22.3647 O   0  0  0  0  0  0  0  0  0  0  0  0
   14.6148  -17.7841   21.7279 O   0  0  0  0  0  0  0  0  0  0  0  0
  2  1  1  6
  2 10  1  0
  3  2  1  0
  4  3  1  0
  4  5  2  0
  6  5  1  0
  7  6  2  0
  8  9  2  0
  8  7  1  0
  9  4  1  0
 10 11  2  0
 12 10  1  0
 12 13  1  0
 13 14  1  0
 14 15  2  0
 16 17  1  0
 16 14  1  0
 18 19  1  0
 18 17  1  0
 20 18  2  0
M  END
$$$$
