FGG.pdb
     RDKit          3D

 20 20  0  0  1  0  0  0  0  0999 V2000
    7.3158  -16.2242   25.8732 N   0  0  0  0  0  0  0  0  0  0  0  0
    7.1959  -15.5363   24.6088 C   0  0  1  0  0  0  0  0  0  0  0  0
    7.9685  -14.2221   24.6320 C   0  0  0  0  0  0  0  0  0  0  0  0
    7.3164  -13.3486   25.6388 C   0  0  0  0  0  0  0  0  0  0  0  0
    7.9854  -12.9568   26.7718 C   0  0  0  0  0  0  0  0  0  0  0  0
    7.3865  -12.1451   27.7123 C   0  0  0  0  0  0  0  0  0  0  0  0
    6.0859  -11.7134   27.5168 C   0  0  0  0  0  0  0  0  0  0  0  0
    5.4010  -12.0940   26.3914 C   0  0  0  0  0  0  0  0  0  0  0  0
    6.0225  -12.9139   25.4529 C   0  0  0  0  0  0  0  0  0  0  0  0
    7.7006  -16.3917   23.4837 C   0  0  0  0  0  0  0  0  0  0  0  0
    8.2845  -17.4813   23.7245 O   0  0  0  0  0  0  0  0  0  0  0  0
    7.5396  -16.0077   22.1317 N   0  0  0  0  0  0  0  0  0  0  0  0
    8.0077  -16.8091   21.0204 C   0  0  0  0  0  0  0  0  0  0  0  0
    9.4614  -16.6202   20.8743 C   0  0  0  0  0  0  0  0  0  0  0  0
   10.0654  -17.1452   19.9096 O   0  0  0  0  0  0  0  0  0  0  0  0
   10.2340  -15.8476   21.8034 N   0  0  0  0  0  0  0  0  0  0  0  0
   11.6686  -15.7568   21.6092 C   0  0  0  0  0  0  0  0  0  0  0  0
   12.4037  -16.6648   22.4928 C   0  0  0  0  0  0  0  0  0  0  0  0
   13.5672  -16.3040   23.1788 O   0  0  0  0  0  0  0  0  0  0  0  0
   11.9689  -17.8318   22.6455 O   0  0  0  0  0  0  0  0  0  0  0  0
  2  1  1  1
  2 10  1  0
  3  2  1  0
  4  3  1  0
  4  5  2  0
  6  5  1  0
  7  6  2  0
  8  9  2  0
  8  7  1  0
  9  4  1  0
 10 11  2  0
 12 10  1  0
 12 13  1  0
 13 14  1  0
 14 15  2  0
 16 17  1  0
 16 14  1  0
 18 19  1  0
 18 17  1  0
 20 18  2  0
M  END
$$$$
