FGG.pdb
     RDKit          3D

 20 20  0  0  1  0  0  0  0  0999 V2000
   10.1312  -16.2025   19.5877 N   0  0  0  0  0  0  0  0  0  0  0  0
   10.1012  -16.1600   21.0312 C   0  0  1  0  0  0  0  0  0  0  0  0
    8.6703  -16.0218   21.5391 C   0  0  0  0  0  0  0  0  0  0  0  0
    8.1451  -14.7334   21.0233 C   0  0  0  0  0  0  0  0  0  0  0  0
    8.5523  -13.5388   21.5634 C   0  0  0  0  0  0  0  0  0  0  0  0
    8.0690  -12.3371   21.0897 C   0  0  0  0  0  0  0  0  0  0  0  0
    7.1553  -12.3276   20.0499 C   0  0  0  0  0  0  0  0  0  0  0  0
    6.7363  -13.5105   19.4972 C   0  0  0  0  0  0  0  0  0  0  0  0
    7.2356  -14.7140   19.9888 C   0  0  0  0  0  0  0  0  0  0  0  0
   10.7211  -17.3951   21.6165 C   0  0  0  0  0  0  0  0  0  0  0  0
   10.7168  -18.4768   20.9714 O   0  0  0  0  0  0  0  0  0  0  0  0
   11.3235  -17.3860   22.8964 N   0  0  0  0  0  0  0  0  0  0  0  0
   12.0795  -18.5029   23.4229 C   0  0  0  0  0  0  0  0  0  0  0  0
   13.4960  -18.3374   23.0534 C   0  0  0  0  0  0  0  0  0  0  0  0
   14.3029  -19.2791   23.2354 O   0  0  0  0  0  0  0  0  0  0  0  0
   14.0055  -17.1240   22.4832 N   0  0  0  0  0  0  0  0  0  0  0  0
   15.3850  -17.0909   22.0359 C   0  0  0  0  0  0  0  0  0  0  0  0
   16.3115  -16.7797   23.1268 C   0  0  0  0  0  0  0  0  0  0  0  0
   16.2277  -15.6227   23.9072 O   0  0  0  0  0  0  0  0  0  0  0  0
   17.2328  -17.5933   23.3785 O   0  0  0  0  0  0  0  0  0  0  0  0
  2  1  1  6
  2 10  1  0
  3  2  1  0
  4  3  1  0
  4  5  2  0
  6  5  1  0
  7  6  2  0
  8  9  2  0
  8  7  1  0
  9  4  1  0
 10 11  2  0
 12 10  1  0
 12 13  1  0
 13 14  1  0
 14 15  2  0
 16 17  1  0
 16 14  1  0
 18 19  1  0
 18 17  1  0
 20 18  2  0
M  END
$$$$
