FGG.pdb
     RDKit          3D

 20 20  0  0  1  0  0  0  0  0999 V2000
    8.5184  -13.8737   23.3416 N   0  0  0  0  0  0  0  0  0  0  0  0
    8.9044  -14.7500   24.4231 C   0  0  1  0  0  0  0  0  0  0  0  0
    7.6870  -15.1733   25.2377 C   0  0  0  0  0  0  0  0  0  0  0  0
    7.1213  -13.9456   25.8497 C   0  0  0  0  0  0  0  0  0  0  0  0
    7.8305  -13.2319   26.7838 C   0  0  0  0  0  0  0  0  0  0  0  0
    7.3119  -12.0899   27.3573 C   0  0  0  0  0  0  0  0  0  0  0  0
    6.0525  -11.6488   26.9888 C   0  0  0  0  0  0  0  0  0  0  0  0
    5.3287  -12.3480   26.0575 C   0  0  0  0  0  0  0  0  0  0  0  0
    5.8690  -13.4989   25.4893 C   0  0  0  0  0  0  0  0  0  0  0  0
    9.6034  -15.9707   23.8999 C   0  0  0  0  0  0  0  0  0  0  0  0
    9.9426  -16.8957   24.6844 O   0  0  0  0  0  0  0  0  0  0  0  0
    9.9010  -16.1215   22.5252 N   0  0  0  0  0  0  0  0  0  0  0  0
   10.6336  -17.2516   21.9936 C   0  0  0  0  0  0  0  0  0  0  0  0
   12.0702  -16.9255   21.9796 C   0  0  0  0  0  0  0  0  0  0  0  0
   12.8303  -17.4885   21.1572 O   0  0  0  0  0  0  0  0  0  0  0  0
   12.6520  -15.9743   22.8816 N   0  0  0  0  0  0  0  0  0  0  0  0
   14.0683  -15.6829   22.7674 C   0  0  0  0  0  0  0  0  0  0  0  0
   14.8504  -16.3214   23.8286 C   0  0  0  0  0  0  0  0  0  0  0  0
   15.5836  -15.6113   24.7840 O   0  0  0  0  0  0  0  0  0  0  0  0
   14.8663  -17.5746   23.8873 O   0  0  0  0  0  0  0  0  0  0  0  0
  2  1  1  6
  2 10  1  0
  3  2  1  0
  4  3  1  0
  4  5  2  0
  6  5  1  0
  7  6  2  0
  8  9  2  0
  8  7  1  0
  9  4  1  0
 10 11  2  0
 12 10  1  0
 12 13  1  0
 13 14  1  0
 14 15  2  0
 16 17  1  0
 16 14  1  0
 18 19  1  0
 18 17  1  0
 20 18  2  0
M  END
$$$$
