FGG.pdb
     RDKit          3D

 20 20  0  0  1  0  0  0  0  0999 V2000
    8.2514  -17.1148   19.8344 N   0  0  0  0  0  0  0  0  0  0  0  0
    9.6431  -16.9527   20.1854 C   0  0  1  0  0  0  0  0  0  0  0  0
   10.1241  -15.5439   19.8556 C   0  0  0  0  0  0  0  0  0  0  0  0
    9.0621  -14.6049   20.2941 C   0  0  0  0  0  0  0  0  0  0  0  0
    8.1309  -14.1283   19.4051 C   0  0  0  0  0  0  0  0  0  0  0  0
    7.1408  -13.2553   19.8047 C   0  0  0  0  0  0  0  0  0  0  0  0
    7.0786  -12.8475   21.1261 C   0  0  0  0  0  0  0  0  0  0  0  0
    7.9998  -13.3124   22.0291 C   0  0  0  0  0  0  0  0  0  0  0  0
    8.9923  -14.1934   21.6070 C   0  0  0  0  0  0  0  0  0  0  0  0
    9.8628  -17.2258   21.6447 C   0  0  0  0  0  0  0  0  0  0  0  0
    8.8897  -17.2368   22.4441 O   0  0  0  0  0  0  0  0  0  0  0  0
   11.1542  -17.4770   22.1648 N   0  0  0  0  0  0  0  0  0  0  0  0
   11.4044  -17.7471   23.5650 C   0  0  0  0  0  0  0  0  0  0  0  0
   12.8252  -18.0962   23.7377 C   0  0  0  0  0  0  0  0  0  0  0  0
   13.2021  -19.2798   23.5711 O   0  0  0  0  0  0  0  0  0  0  0  0
   13.8180  -17.1247   24.0950 N   0  0  0  0  0  0  0  0  0  0  0  0
   15.1164  -17.1875   23.4514 C   0  0  0  0  0  0  0  0  0  0  0  0
   15.9437  -16.0195   23.7626 C   0  0  0  0  0  0  0  0  0  0  0  0
   16.3185  -15.0619   22.8154 O   0  0  0  0  0  0  0  0  0  0  0  0
   16.3402  -15.8657   24.9430 O   0  0  0  0  0  0  0  0  0  0  0  0
  2  1  1  1
  2 10  1  0
  3  2  1  0
  4  3  1  0
  4  5  2  0
  6  5  1  0
  7  6  2  0
  8  9  2  0
  8  7  1  0
  9  4  1  0
 10 11  2  0
 12 10  1  0
 12 13  1  0
 13 14  1  0
 14 15  2  0
 16 17  1  0
 16 14  1  0
 18 19  1  0
 18 17  1  0
 20 18  2  0
M  END
$$$$
