FGG.pdb
     RDKit          3D

 20 20  0  0  1  0  0  0  0  0999 V2000
    7.1963  -16.2665   25.7823 N   0  0  0  0  0  0  0  0  0  0  0  0
    7.0560  -15.4862   24.5749 C   0  0  1  0  0  0  0  0  0  0  0  0
    7.8887  -14.2114   24.6544 C   0  0  0  0  0  0  0  0  0  0  0  0
    7.2568  -13.3386   25.6746 C   0  0  0  0  0  0  0  0  0  0  0  0
    7.9476  -12.9491   26.7952 C   0  0  0  0  0  0  0  0  0  0  0  0
    7.3675  -12.1381   27.7480 C   0  0  0  0  0  0  0  0  0  0  0  0
    6.0638  -11.7047   27.5778 C   0  0  0  0  0  0  0  0  0  0  0  0
    5.3574  -12.0830   26.4652 C   0  0  0  0  0  0  0  0  0  0  0  0
    5.9600  -12.9023   25.5139 C   0  0  0  0  0  0  0  0  0  0  0  0
    7.4740  -16.2806   23.3722 C   0  0  0  0  0  0  0  0  0  0  0  0
    8.1719  -17.3203   23.5067 O   0  0  0  0  0  0  0  0  0  0  0  0
    7.1028  -15.8932   22.0632 N   0  0  0  0  0  0  0  0  0  0  0  0
    7.4440  -16.6609   20.8841 C   0  0  0  0  0  0  0  0  0  0  0  0
    8.8831  -16.5030   20.6112 C   0  0  0  0  0  0  0  0  0  0  0  0
    9.3528  -16.8657   19.5072 O   0  0  0  0  0  0  0  0  0  0  0  0
    9.7907  -15.9421   21.5697 N   0  0  0  0  0  0  0  0  0  0  0  0
   11.1969  -15.8508   21.2259 C   0  0  0  0  0  0  0  0  0  0  0  0
   11.8420  -17.1653   21.1868 C   0  0  0  0  0  0  0  0  0  0  0  0
   12.6499  -17.6000   20.1318 O   0  0  0  0  0  0  0  0  0  0  0  0
   11.6625  -17.9476   22.1511 O   0  0  0  0  0  0  0  0  0  0  0  0
  2  1  1  1
  2 10  1  0
  3  2  1  0
  4  3  1  0
  4  5  2  0
  6  5  1  0
  7  6  2  0
  8  9  2  0
  8  7  1  0
  9  4  1  0
 10 11  2  0
 12 10  1  0
 12 13  1  0
 13 14  1  0
 14 15  2  0
 16 17  1  0
 16 14  1  0
 18 19  1  0
 18 17  1  0
 20 18  2  0
M  END
$$$$
