FGG.pdb
     RDKit          3D

 20 20  0  0  1  0  0  0  0  0999 V2000
    6.7771  -16.3669   25.8260 N   0  0  0  0  0  0  0  0  0  0  0  0
    7.1390  -15.7015   24.5961 C   0  0  1  0  0  0  0  0  0  0  0  0
    8.1312  -14.5747   24.8619 C   0  0  0  0  0  0  0  0  0  0  0  0
    7.4238  -13.5496   25.6687 C   0  0  0  0  0  0  0  0  0  0  0  0
    6.0777  -13.3321   25.5093 C   0  0  0  0  0  0  0  0  0  0  0  0
    5.4130  -12.3814   26.2552 C   0  0  0  0  0  0  0  0  0  0  0  0
    6.1100  -11.6283   27.1843 C   0  0  0  0  0  0  0  0  0  0  0  0
    7.4550  -11.8308   27.3580 C   0  0  0  0  0  0  0  0  0  0  0  0
    8.1091  -12.7954   26.5957 C   0  0  0  0  0  0  0  0  0  0  0  0
    7.7356  -16.6708   23.6180 C   0  0  0  0  0  0  0  0  0  0  0  0
    8.3452  -17.6943   24.0269 O   0  0  0  0  0  0  0  0  0  0  0  0
    7.6346  -16.4702   22.2213 N   0  0  0  0  0  0  0  0  0  0  0  0
    8.2865  -17.3236   21.2502 C   0  0  0  0  0  0  0  0  0  0  0  0
    8.0992  -16.7484   19.9069 C   0  0  0  0  0  0  0  0  0  0  0  0
    7.2177  -15.8778   19.7177 O   0  0  0  0  0  0  0  0  0  0  0  0
    8.8950  -17.1463   18.7820 N   0  0  0  0  0  0  0  0  0  0  0  0
    9.2163  -16.1563   17.7718 C   0  0  0  0  0  0  0  0  0  0  0  0
    9.9360  -16.7391   16.6370 C   0  0  0  0  0  0  0  0  0  0  0  0
    9.6433  -16.4459   15.3017 O   0  0  0  0  0  0  0  0  0  0  0  0
   10.8672  -17.5467   16.8713 O   0  0  0  0  0  0  0  0  0  0  0  0
  2  1  1  1
  2 10  1  0
  3  2  1  0
  4  3  1  0
  4  5  2  0
  6  5  1  0
  7  6  2  0
  8  9  2  0
  8  7  1  0
  9  4  1  0
 10 11  2  0
 12 10  1  0
 12 13  1  0
 13 14  1  0
 14 15  2  0
 16 17  1  0
 16 14  1  0
 18 19  1  0
 18 17  1  0
 20 18  2  0
M  END
$$$$
