FGG.pdb
     RDKit          3D

 20 20  0  0  1  0  0  0  0  0999 V2000
    5.9612  -16.3274   25.3321 N   0  0  0  0  0  0  0  0  0  0  0  0
    7.2637  -16.1094   24.7470 C   0  0  1  0  0  0  0  0  0  0  0  0
    8.1688  -15.3479   25.7091 C   0  0  0  0  0  0  0  0  0  0  0  0
    7.5816  -13.9965   25.8857 C   0  0  0  0  0  0  0  0  0  0  0  0
    6.2677  -13.8407   26.2518 C   0  0  0  0  0  0  0  0  0  0  0  0
    5.7145  -12.5884   26.4180 C   0  0  0  0  0  0  0  0  0  0  0  0
    6.4930  -11.4623   26.2134 C   0  0  0  0  0  0  0  0  0  0  0  0
    7.8076  -11.5973   25.8473 C   0  0  0  0  0  0  0  0  0  0  0  0
    8.3486  -12.8701   25.6843 C   0  0  0  0  0  0  0  0  0  0  0  0
    7.9108  -17.4126   24.3795 C   0  0  0  0  0  0  0  0  0  0  0  0
    7.2173  -18.4574   24.2624 O   0  0  0  0  0  0  0  0  0  0  0  0
    9.3041  -17.5103   24.1551 N   0  0  0  0  0  0  0  0  0  0  0  0
    9.8760  -17.8685   22.8742 C   0  0  0  0  0  0  0  0  0  0  0  0
   10.9939  -16.9557   22.5782 C   0  0  0  0  0  0  0  0  0  0  0  0
   11.4944  -16.9335   21.4293 O   0  0  0  0  0  0  0  0  0  0  0  0
   11.5477  -16.0729   23.5636 N   0  0  0  0  0  0  0  0  0  0  0  0
   12.7659  -15.3523   23.2461 C   0  0  0  0  0  0  0  0  0  0  0  0
   13.9656  -16.1025   23.6247 C   0  0  0  0  0  0  0  0  0  0  0  0
   15.2671  -15.6293   23.4331 O   0  0  0  0  0  0  0  0  0  0  0  0
   13.8222  -17.2328   24.1502 O   0  0  0  0  0  0  0  0  0  0  0  0
  2  1  1  1
  2 10  1  0
  3  2  1  0
  4  3  1  0
  4  5  2  0
  6  5  1  0
  7  6  2  0
  8  9  2  0
  8  7  1  0
  9  4  1  0
 10 11  2  0
 12 10  1  0
 12 13  1  0
 13 14  1  0
 14 15  2  0
 16 17  1  0
 16 14  1  0
 18 19  1  0
 18 17  1  0
 20 18  2  0
M  END
$$$$
