GLA.pdb
     RDKit          3D

 18 17  0  0  1  0  0  0  0  0999 V2000
    5.2171  -17.3980   21.3283 N   0  0  0  0  0  0  0  0  0  0  0  0
    5.1204  -17.1310   22.7423 C   0  0  0  0  0  0  0  0  0  0  0  0
    6.2882  -16.3556   23.1695 C   0  0  0  0  0  0  0  0  0  0  0  0
    7.2307  -16.1700   22.3789 O   0  0  0  0  0  0  0  0  0  0  0  0
    7.3935  -12.0822   24.8995 C   0  0  0  0  0  0  0  0  0  0  0  0
    6.5646  -13.0351   25.7811 C   0  0  2  0  0  0  0  0  0  0  0  0
    6.2056  -12.2746   27.0138 C   0  0  0  0  0  0  0  0  0  0  0  0
    7.4334  -14.2197   26.0228 C   0  0  0  0  0  0  0  0  0  0  0  0
    7.6501  -15.1260   24.8623 C   0  0  2  0  0  0  0  0  0  0  0  0
    6.4266  -15.7816   24.4634 N   0  0  0  0  0  0  0  0  0  0  0  0
    8.7269  -16.1315   25.1255 C   0  0  0  0  0  0  0  0  0  0  0  0
    8.5835  -17.0689   25.9473 O   0  0  0  0  0  0  0  0  0  0  0  0
   11.8980  -17.0626   23.3797 C   0  0  0  0  0  0  0  0  0  0  0  0
   10.9023  -17.1316   24.5391 C   0  0  2  0  0  0  0  0  0  0  0  0
    9.9541  -16.0444   24.4392 N   0  0  0  0  0  0  0  0  0  0  0  0
   11.6406  -17.1100   25.8182 C   0  0  0  0  0  0  0  0  0  0  0  0
   11.4718  -16.1242   26.7742 O   0  0  0  0  0  0  0  0  0  0  0  0
   12.4631  -18.0277   26.0564 O   0  0  0  0  0  0  0  0  0  0  0  0
  1  2  1  0
  2  3  1  0
  3  4  2  0
  3 10  1  0
  6  5  1  6
  7  6  1  0
  8  6  1  0
  9  8  1  1
 10  9  1  0
 11  9  1  0
 11 15  1  0
 12 11  2  0
 14 13  1  6
 14 15  1  0
 14 16  1  0
 16 17  1  0
 18 16  2  0
M  END
$$$$
