GLA.pdb
     RDKit          3D

 18 17  0  0  1  0  0  0  0  0999 V2000
    7.2489  -15.1291   19.3564 N   0  0  0  0  0  0  0  0  0  0  0  0
    6.5304  -15.4475   20.5658 C   0  0  0  0  0  0  0  0  0  0  0  0
    7.2555  -14.9035   21.7171 C   0  0  0  0  0  0  0  0  0  0  0  0
    8.4840  -14.7207   21.6447 O   0  0  0  0  0  0  0  0  0  0  0  0
    6.1837  -12.4540   27.2613 C   0  0  0  0  0  0  0  0  0  0  0  0
    7.2925  -12.9769   26.3287 C   0  0  2  0  0  0  0  0  0  0  0  0
    8.2722  -11.8636   26.1621 C   0  0  0  0  0  0  0  0  0  0  0  0
    6.6050  -13.3819   25.0718 C   0  0  0  0  0  0  0  0  0  0  0  0
    7.4228  -14.1444   24.0895 C   0  0  2  0  0  0  0  0  0  0  0  0
    6.6371  -14.5583   22.9506 N   0  0  0  0  0  0  0  0  0  0  0  0
    8.1053  -15.3199   24.7159 C   0  0  0  0  0  0  0  0  0  0  0  0
    7.4699  -16.2402   25.2849 O   0  0  0  0  0  0  0  0  0  0  0  0
   11.4175  -16.8683   24.2292 C   0  0  0  0  0  0  0  0  0  0  0  0
   10.1433  -16.6655   25.0513 C   0  0  2  0  0  0  0  0  0  0  0  0
    9.5101  -15.4199   24.6787 N   0  0  0  0  0  0  0  0  0  0  0  0
   10.4781  -16.7110   26.4892 C   0  0  0  0  0  0  0  0  0  0  0  0
   10.2028  -15.6757   27.3646 O   0  0  0  0  0  0  0  0  0  0  0  0
   11.0399  -17.7361   26.9463 O   0  0  0  0  0  0  0  0  0  0  0  0
  1  2  1  0
  2  3  1  0
  3  4  2  0
  3 10  1  0
  6  5  1  1
  7  6  1  0
  8  6  1  0
  9  8  1  1
 10  9  1  0
 11  9  1  0
 11 15  1  0
 12 11  2  0
 14 13  1  6
 14 15  1  0
 14 16  1  0
 16 17  1  0
 18 16  2  0
M  END
$$$$
