GLA.pdb
     RDKit          3D

 18 17  0  0  1  0  0  0  0  0999 V2000
    9.6894  -18.5658   17.1284 N   0  0  0  0  0  0  0  0  0  0  0  0
    8.6756  -18.2015   18.0874 C   0  0  0  0  0  0  0  0  0  0  0  0
    9.2433  -17.2626   19.0588 C   0  0  0  0  0  0  0  0  0  0  0  0
   10.4590  -17.3022   19.3202 O   0  0  0  0  0  0  0  0  0  0  0  0
    9.2567  -12.6421   19.4865 C   0  0  0  0  0  0  0  0  0  0  0  0
    7.9461  -13.3710   19.8379 C   0  0  2  0  0  0  0  0  0  0  0  0
    6.9253  -12.3143   20.0994 C   0  0  0  0  0  0  0  0  0  0  0  0
    8.2620  -14.2234   21.0170 C   0  0  0  0  0  0  0  0  0  0  0  0
    9.0838  -15.4357   20.7528 C   0  0  2  0  0  0  0  0  0  0  0  0
    8.4810  -16.2781   19.7463 N   0  0  0  0  0  0  0  0  0  0  0  0
    9.3558  -16.2156   22.0009 C   0  0  0  0  0  0  0  0  0  0  0  0
    8.4354  -16.6496   22.7351 O   0  0  0  0  0  0  0  0  0  0  0  0
   11.2689  -18.6500   23.3402 C   0  0  0  0  0  0  0  0  0  0  0  0
   10.9343  -17.1850   23.6272 C   0  0  2  0  0  0  0  0  0  0  0  0
   10.6836  -16.4851   22.3868 N   0  0  0  0  0  0  0  0  0  0  0  0
   12.0370  -16.5745   24.3973 C   0  0  0  0  0  0  0  0  0  0  0  0
   12.3341  -16.9239   25.7026 O   0  0  0  0  0  0  0  0  0  0  0  0
   12.7433  -15.6950   23.8469 O   0  0  0  0  0  0  0  0  0  0  0  0
  1  2  1  0
  2  3  1  0
  3  4  2  0
  3 10  1  0
  6  5  1  1
  7  6  1  0
  8  6  1  0
  9  8  1  1
 10  9  1  0
 11  9  1  0
 11 15  1  0
 12 11  2  0
 14 13  1  6
 14 15  1  0
 14 16  1  0
 16 17  1  0
 18 16  2  0
M  END
$$$$
