GLA.pdb
     RDKit          3D

 18 17  0  0  1  0  0  0  0  0999 V2000
    7.3361  -19.1768   23.5744 N   0  0  0  0  0  0  0  0  0  0  0  0
    6.8463  -18.4705   24.7326 C   0  0  0  0  0  0  0  0  0  0  0  0
    7.1858  -17.0500   24.6126 C   0  0  0  0  0  0  0  0  0  0  0  0
    7.9340  -16.6679   23.6950 O   0  0  0  0  0  0  0  0  0  0  0  0
    5.6775  -11.5480   26.9157 C   0  0  0  0  0  0  0  0  0  0  0  0
    6.7245  -12.3005   26.0731 C   0  0  2  0  0  0  0  0  0  0  0  0
    6.7426  -11.6486   24.7308 C   0  0  0  0  0  0  0  0  0  0  0  0
    6.2841  -13.7226   26.0580 C   0  0  0  0  0  0  0  0  0  0  0  0
    7.2293  -14.6989   25.4511 C   0  0  2  0  0  0  0  0  0  0  0  0
    6.7068  -16.0445   25.4973 N   0  0  0  0  0  0  0  0  0  0  0  0
    8.5856  -14.6368   26.0807 C   0  0  0  0  0  0  0  0  0  0  0  0
    9.4354  -13.7709   25.7601 O   0  0  0  0  0  0  0  0  0  0  0  0
   10.3980  -14.2062   28.4715 C   0  0  0  0  0  0  0  0  0  0  0  0
   10.2595  -15.5019   27.6700 C   0  0  2  0  0  0  0  0  0  0  0  0
    8.9453  -15.5721   27.0709 N   0  0  0  0  0  0  0  0  0  0  0  0
   10.5301  -16.6538   28.5542 C   0  0  0  0  0  0  0  0  0  0  0  0
    9.6444  -17.7029   28.7245 O   0  0  0  0  0  0  0  0  0  0  0  0
   11.6146  -16.6893   29.1850 O   0  0  0  0  0  0  0  0  0  0  0  0
  1  2  1  0
  2  3  1  0
  3  4  2  0
  3 10  1  0
  6  5  1  1
  7  6  1  0
  8  6  1  0
  9  8  1  1
 10  9  1  0
 11  9  1  0
 11 15  1  0
 12 11  2  0
 14 13  1  1
 14 15  1  0
 14 16  1  0
 16 17  1  0
 18 16  2  0
M  END
$$$$
