GLA.pdb
     RDKit          3D

 18 17  0  0  1  0  0  0  0  0999 V2000
    8.5368  -20.3602   19.4621 N   0  0  0  0  0  0  0  0  0  0  0  0
    7.8856  -19.4853   20.4060 C   0  0  0  0  0  0  0  0  0  0  0  0
    8.4026  -18.1242   20.2407 C   0  0  0  0  0  0  0  0  0  0  0  0
    9.3140  -17.9034   19.4230 O   0  0  0  0  0  0  0  0  0  0  0  0
    7.2383  -12.3567   21.8895 C   0  0  0  0  0  0  0  0  0  0  0  0
    8.0880  -13.2172   20.9355 C   0  0  2  0  0  0  0  0  0  0  0  0
    7.9307  -12.6286   19.5732 C   0  0  0  0  0  0  0  0  0  0  0  0
    7.5640  -14.6044   21.0683 C   0  0  0  0  0  0  0  0  0  0  0  0
    8.5401  -15.7030   20.8336 C   0  0  2  0  0  0  0  0  0  0  0  0
    7.9228  -17.0015   20.9703 N   0  0  0  0  0  0  0  0  0  0  0  0
    9.7389  -15.5916   21.7226 C   0  0  0  0  0  0  0  0  0  0  0  0
   10.6748  -14.7888   21.4898 O   0  0  0  0  0  0  0  0  0  0  0  0
   10.5568  -16.4643   25.1969 C   0  0  0  0  0  0  0  0  0  0  0  0
   10.9851  -16.2556   23.7432 C   0  0  2  0  0  0  0  0  0  0  0  0
    9.8442  -16.4059   22.8674 N   0  0  0  0  0  0  0  0  0  0  0  0
   12.0686  -17.2035   23.4128 C   0  0  0  0  0  0  0  0  0  0  0  0
   11.9329  -18.2134   22.4770 O   0  0  0  0  0  0  0  0  0  0  0  0
   13.1690  -17.0934   24.0063 O   0  0  0  0  0  0  0  0  0  0  0  0
  1  2  1  0
  2  3  1  0
  3  4  2  0
  3 10  1  0
  6  5  1  1
  7  6  1  0
  8  6  1  0
  9  8  1  1
 10  9  1  0
 11  9  1  0
 11 15  1  0
 12 11  2  0
 14 13  1  1
 14 15  1  0
 14 16  1  0
 16 17  1  0
 18 16  2  0
M  END
$$$$
