GLA.pdb
     RDKit          3D

 18 17  0  0  1  0  0  0  0  0999 V2000
    6.0569  -18.5699   23.1227 N   0  0  0  0  0  0  0  0  0  0  0  0
    5.8176  -17.8220   24.3326 C   0  0  0  0  0  0  0  0  0  0  0  0
    6.9139  -16.8718   24.5391 C   0  0  0  0  0  0  0  0  0  0  0  0
    7.9137  -16.9101   23.7996 O   0  0  0  0  0  0  0  0  0  0  0  0
    6.9221  -12.1470   24.6928 C   0  0  0  0  0  0  0  0  0  0  0  0
    6.4026  -12.9856   25.8757 C   0  0  2  0  0  0  0  0  0  0  0  0
    5.7806  -12.0295   26.8379 C   0  0  0  0  0  0  0  0  0  0  0  0
    7.5894  -13.7083   26.4101 C   0  0  0  0  0  0  0  0  0  0  0  0
    8.0038  -14.9320   25.6713 C   0  0  2  0  0  0  0  0  0  0  0  0
    6.9179  -15.8772   25.5559 N   0  0  0  0  0  0  0  0  0  0  0  0
    9.2059  -15.5803   26.2834 C   0  0  0  0  0  0  0  0  0  0  0  0
   10.3301  -15.0233   26.3065 O   0  0  0  0  0  0  0  0  0  0  0  0
   10.2750  -17.6241   28.8528 C   0  0  0  0  0  0  0  0  0  0  0  0
   10.2902  -17.5333   27.3258 C   0  0  2  0  0  0  0  0  0  0  0  0
    9.0974  -16.8608   26.8607 N   0  0  0  0  0  0  0  0  0  0  0  0
   10.4210  -18.8904   26.7576 C   0  0  0  0  0  0  0  0  0  0  0  0
   11.5007  -19.7174   27.0112 O   0  0  0  0  0  0  0  0  0  0  0  0
    9.5118  -19.3211   26.0071 O   0  0  0  0  0  0  0  0  0  0  0  0
  1  2  1  0
  2  3  1  0
  3  4  2  0
  3 10  1  0
  6  5  1  6
  7  6  1  0
  8  6  1  0
  9  8  1  1
 10  9  1  0
 11  9  1  0
 11 15  1  0
 12 11  2  0
 14 13  1  1
 14 15  1  0
 14 16  1  0
 16 17  1  0
 18 16  2  0
M  END
$$$$
