GLA.pdb
     RDKit          3D

 18 17  0  0  1  0  0  0  0  0999 V2000
    9.0821  -18.7625   17.2413 N   0  0  0  0  0  0  0  0  0  0  0  0
    8.5108  -18.5395   18.5468 C   0  0  0  0  0  0  0  0  0  0  0  0
    9.1384  -17.3634   19.1553 C   0  0  0  0  0  0  0  0  0  0  0  0
   10.3420  -17.1269   18.9472 O   0  0  0  0  0  0  0  0  0  0  0  0
    8.8194  -12.7244   19.3600 C   0  0  0  0  0  0  0  0  0  0  0  0
    7.6743  -13.5468   19.9803 C   0  0  2  0  0  0  0  0  0  0  0  0
    6.6188  -12.5730   20.3862 C   0  0  0  0  0  0  0  0  0  0  0  0
    8.2837  -14.2976   21.1122 C   0  0  0  0  0  0  0  0  0  0  0  0
    9.1645  -15.4404   20.7470 C   0  0  2  0  0  0  0  0  0  0  0  0
    8.4495  -16.4436   19.9933 N   0  0  0  0  0  0  0  0  0  0  0  0
    9.8237  -16.0494   21.9447 C   0  0  0  0  0  0  0  0  0  0  0  0
    9.1678  -16.5085   22.9109 O   0  0  0  0  0  0  0  0  0  0  0  0
   11.9844  -18.2467   22.9364 C   0  0  0  0  0  0  0  0  0  0  0  0
   11.8525  -16.7395   23.1630 C   0  0  2  0  0  0  0  0  0  0  0  0
   11.2290  -16.1216   22.0139 N   0  0  0  0  0  0  0  0  0  0  0  0
   13.1857  -16.1701   23.4458 C   0  0  0  0  0  0  0  0  0  0  0  0
   13.8506  -16.3561   24.6447 O   0  0  0  0  0  0  0  0  0  0  0  0
   13.7491  -15.4827   22.5595 O   0  0  0  0  0  0  0  0  0  0  0  0
  1  2  1  0
  2  3  1  0
  3  4  2  0
  3 10  1  0
  6  5  1  1
  7  6  1  0
  8  6  1  0
  9  8  1  1
 10  9  1  0
 11  9  1  0
 11 15  1  0
 12 11  2  0
 14 13  1  6
 14 15  1  0
 14 16  1  0
 16 17  1  0
 18 16  2  0
M  END
$$$$
