GLA.pdb
     RDKit          3D

 18 17  0  0  1  0  0  0  0  0999 V2000
    7.8586  -13.0300   19.9429 N   0  0  0  0  0  0  0  0  0  0  0  0
    7.1481  -13.8389   20.9027 C   0  0  0  0  0  0  0  0  0  0  0  0
    7.8238  -13.7559   22.2003 C   0  0  0  0  0  0  0  0  0  0  0  0
    9.0314  -13.4607   22.2515 O   0  0  0  0  0  0  0  0  0  0  0  0
    7.4060  -11.2103   25.9981 C   0  0  0  0  0  0  0  0  0  0  0  0
    6.3012  -12.2622   25.7849 C   0  0  2  0  0  0  0  0  0  0  0  0
    5.2980  -12.0555   26.8701 C   0  0  0  0  0  0  0  0  0  0  0  0
    6.9875  -13.5827   25.8278 C   0  0  0  0  0  0  0  0  0  0  0  0
    7.8994  -13.8889   24.6921 C   0  0  2  0  0  0  0  0  0  0  0  0
    7.1789  -13.9959   23.4450 N   0  0  0  0  0  0  0  0  0  0  0  0
    8.7139  -15.1199   24.9391 C   0  0  0  0  0  0  0  0  0  0  0  0
    9.3098  -15.3238   26.0244 O   0  0  0  0  0  0  0  0  0  0  0  0
    9.3576  -18.3385   23.1286 C   0  0  0  0  0  0  0  0  0  0  0  0
    9.6703  -17.2549   24.1623 C   0  0  2  0  0  0  0  0  0  0  0  0
    8.8314  -16.0994   23.9334 N   0  0  0  0  0  0  0  0  0  0  0  0
   11.1075  -16.9202   24.0987 C   0  0  0  0  0  0  0  0  0  0  0  0
   12.1061  -17.7857   24.5083 O   0  0  0  0  0  0  0  0  0  0  0  0
   11.4469  -15.7973   23.6522 O   0  0  0  0  0  0  0  0  0  0  0  0
  1  2  1  0
  2  3  1  0
  3  4  2  0
  3 10  1  0
  6  5  1  1
  7  6  1  0
  8  6  1  0
  9  8  1  1
 10  9  1  0
 11  9  1  0
 11 15  1  0
 12 11  2  0
 14 13  1  6
 14 15  1  0
 14 16  1  0
 16 17  1  0
 18 16  2  0
M  END
$$$$
