GLA.pdb
     RDKit          3D

 18 17  0  0  1  0  0  0  0  0999 V2000
    7.7793  -16.0518   21.1021 N   0  0  0  0  0  0  0  0  0  0  0  0
    6.9560  -15.9661   22.2833 C   0  0  0  0  0  0  0  0  0  0  0  0
    7.7259  -15.3481   23.3662 C   0  0  0  0  0  0  0  0  0  0  0  0
    8.9497  -15.1691   23.2314 O   0  0  0  0  0  0  0  0  0  0  0  0
    7.4708  -11.4766   25.2358 C   0  0  0  0  0  0  0  0  0  0  0  0
    6.4731  -12.4811   25.8423 C   0  0  2  0  0  0  0  0  0  0  0  0
    5.5638  -11.6985   26.7299 C   0  0  0  0  0  0  0  0  0  0  0  0
    7.3014  -13.4937   26.5529 C   0  0  0  0  0  0  0  0  0  0  0  0
    7.9917  -14.4978   25.6983 C   0  0  2  0  0  0  0  0  0  0  0  0
    7.1575  -14.9246   24.5993 N   0  0  0  0  0  0  0  0  0  0  0  0
    8.4701  -15.6761   26.4873 C   0  0  0  0  0  0  0  0  0  0  0  0
    9.1915  -15.5532   27.5066 O   0  0  0  0  0  0  0  0  0  0  0  0
    7.5591  -19.2912   26.6318 C   0  0  0  0  0  0  0  0  0  0  0  0
    8.4718  -18.1007   26.9321 C   0  0  2  0  0  0  0  0  0  0  0  0
    8.1116  -16.9800   26.0922 N   0  0  0  0  0  0  0  0  0  0  0  0
    9.8798  -18.5061   26.7451 C   0  0  0  0  0  0  0  0  0  0  0  0
   10.5161  -19.4307   27.5538 O   0  0  0  0  0  0  0  0  0  0  0  0
   10.5373  -17.9905   25.8085 O   0  0  0  0  0  0  0  0  0  0  0  0
  1  2  1  0
  2  3  1  0
  3  4  2  0
  3 10  1  0
  6  5  1  1
  7  6  1  0
  8  6  1  0
  9  8  1  1
 10  9  1  0
 11  9  1  0
 11 15  1  0
 12 11  2  0
 14 13  1  6
 14 15  1  0
 14 16  1  0
 16 17  1  0
 18 16  2  0
M  END
$$$$
