GLA.pdb
     RDKit          3D

 18 17  0  0  1  0  0  0  0  0999 V2000
    7.1017  -19.0379   16.8717 N   0  0  0  0  0  0  0  0  0  0  0  0
    6.8560  -18.9693   18.2912 C   0  0  0  0  0  0  0  0  0  0  0  0
    7.6380  -17.8710   18.8653 C   0  0  0  0  0  0  0  0  0  0  0  0
    8.8253  -17.7144   18.5281 O   0  0  0  0  0  0  0  0  0  0  0  0
    6.9943  -12.7480   22.2003 C   0  0  0  0  0  0  0  0  0  0  0  0
    7.9844  -13.6220   21.4077 C   0  0  2  0  0  0  0  0  0  0  0  0
    8.5452  -12.7603   20.3260 C   0  0  0  0  0  0  0  0  0  0  0  0
    7.1939  -14.7845   20.9176 C   0  0  0  0  0  0  0  0  0  0  0  0
    7.9746  -15.9529   20.4274 C   0  0  2  0  0  0  0  0  0  0  0  0
    7.1218  -16.9415   19.8100 N   0  0  0  0  0  0  0  0  0  0  0  0
    8.8032  -16.5714   21.5094 C   0  0  0  0  0  0  0  0  0  0  0  0
    8.3028  -16.9927   22.5802 O   0  0  0  0  0  0  0  0  0  0  0  0
   11.7797  -18.5117   21.7148 C   0  0  0  0  0  0  0  0  0  0  0  0
   10.9731  -17.3802   22.3546 C   0  0  2  0  0  0  0  0  0  0  0  0
   10.1967  -16.6966   21.3440 N   0  0  0  0  0  0  0  0  0  0  0  0
   11.8919  -16.4661   23.0630 C   0  0  0  0  0  0  0  0  0  0  0  0
   12.0449  -15.1333   22.7250 O   0  0  0  0  0  0  0  0  0  0  0  0
   12.5703  -16.9135   24.0196 O   0  0  0  0  0  0  0  0  0  0  0  0
  1  2  1  0
  2  3  1  0
  3  4  2  0
  3 10  1  0
  6  5  1  1
  7  6  1  0
  8  6  1  0
  9  8  1  1
 10  9  1  0
 11  9  1  0
 11 15  1  0
 12 11  2  0
 14 13  1  6
 14 15  1  0
 14 16  1  0
 16 17  1  0
 18 16  2  0
M  END
$$$$
