GLA.pdb
     RDKit          3D

 18 17  0  0  1  0  0  0  0  0999 V2000
    7.2063  -16.2169   20.8116 N   0  0  0  0  0  0  0  0  0  0  0  0
    6.5479  -16.0612   22.0854 C   0  0  0  0  0  0  0  0  0  0  0  0
    7.4835  -15.4678   23.0446 C   0  0  0  0  0  0  0  0  0  0  0  0
    8.6786  -15.3189   22.7323 O   0  0  0  0  0  0  0  0  0  0  0  0
    7.3641  -11.5226   24.9525 C   0  0  0  0  0  0  0  0  0  0  0  0
    6.4960  -12.5496   25.7036 C   0  0  2  0  0  0  0  0  0  0  0  0
    5.7434  -11.7928   26.7467 C   0  0  0  0  0  0  0  0  0  0  0  0
    7.4448  -13.5611   26.2450 C   0  0  0  0  0  0  0  0  0  0  0  0
    8.0849  -14.4636   25.2496 C   0  0  2  0  0  0  0  0  0  0  0  0
    7.1126  -15.0362   24.3481 N   0  0  0  0  0  0  0  0  0  0  0  0
    8.8968  -15.5379   25.9028 C   0  0  0  0  0  0  0  0  0  0  0  0
    9.0069  -15.6319   27.1492 O   0  0  0  0  0  0  0  0  0  0  0  0
    9.9276  -18.8947   25.2704 C   0  0  0  0  0  0  0  0  0  0  0  0
   10.3662  -17.5116   25.7554 C   0  0  2  0  0  0  0  0  0  0  0  0
    9.5710  -16.4893   25.1122 N   0  0  0  0  0  0  0  0  0  0  0  0
   11.8100  -17.3388   25.4959 C   0  0  0  0  0  0  0  0  0  0  0  0
   12.3146  -16.3973   24.6166 O   0  0  0  0  0  0  0  0  0  0  0  0
   12.6248  -18.0788   26.0990 O   0  0  0  0  0  0  0  0  0  0  0  0
  1  2  1  0
  2  3  1  0
  3  4  2  0
  3 10  1  0
  6  5  1  1
  7  6  1  0
  8  6  1  0
  9  8  1  1
 10  9  1  0
 11  9  1  0
 11 15  1  0
 12 11  2  0
 14 13  1  6
 14 15  1  0
 14 16  1  0
 16 17  1  0
 18 16  2  0
M  END
$$$$
