GLA.pdb
     RDKit          3D

 18 17  0  0  1  0  0  0  0  0999 V2000
    7.6632  -15.7990   20.8869 N   0  0  0  0  0  0  0  0  0  0  0  0
    6.8120  -15.6273   22.0385 C   0  0  0  0  0  0  0  0  0  0  0  0
    7.6210  -15.1823   23.1764 C   0  0  0  0  0  0  0  0  0  0  0  0
    8.8617  -15.1674   23.0854 O   0  0  0  0  0  0  0  0  0  0  0  0
    7.4114  -11.3195   25.1123 C   0  0  0  0  0  0  0  0  0  0  0  0
    6.4089  -12.3159   25.7245 C   0  0  2  0  0  0  0  0  0  0  0  0
    5.5376  -11.5329   26.6491 C   0  0  0  0  0  0  0  0  0  0  0  0
    7.2339  -13.3580   26.3951 C   0  0  0  0  0  0  0  0  0  0  0  0
    7.9260  -14.3265   25.5017 C   0  0  2  0  0  0  0  0  0  0  0  0
    7.0733  -14.7527   24.4168 N   0  0  0  0  0  0  0  0  0  0  0  0
    8.4554  -15.5077   26.2530 C   0  0  0  0  0  0  0  0  0  0  0  0
    9.2073  -15.3867   27.2504 O   0  0  0  0  0  0  0  0  0  0  0  0
    7.7835  -19.1864   26.2848 C   0  0  0  0  0  0  0  0  0  0  0  0
    8.6249  -17.9444   26.5850 C   0  0  2  0  0  0  0  0  0  0  0  0
    8.1122  -16.8120   25.8461 N   0  0  0  0  0  0  0  0  0  0  0  0
   10.0392  -18.2240   26.2639 C   0  0  0  0  0  0  0  0  0  0  0  0
   10.8000  -19.1592   26.9425 O   0  0  0  0  0  0  0  0  0  0  0  0
   10.5842  -17.5855   25.3307 O   0  0  0  0  0  0  0  0  0  0  0  0
  1  2  1  0
  2  3  1  0
  3  4  2  0
  3 10  1  0
  6  5  1  1
  7  6  1  0
  8  6  1  0
  9  8  1  1
 10  9  1  0
 11  9  1  0
 11 15  1  0
 12 11  2  0
 14 13  1  6
 14 15  1  0
 14 16  1  0
 16 17  1  0
 18 16  2  0
M  END
$$$$
