GLA.pdb
     RDKit          3D

 18 17  0  0  1  0  0  0  0  0999 V2000
    7.7817  -13.2976   19.7622 N   0  0  0  0  0  0  0  0  0  0  0  0
    6.9148  -13.8838   20.7548 C   0  0  0  0  0  0  0  0  0  0  0  0
    7.6281  -13.9668   22.0322 C   0  0  0  0  0  0  0  0  0  0  0  0
    8.8700  -14.0403   22.0438 O   0  0  0  0  0  0  0  0  0  0  0  0
    7.9167  -11.3954   25.8653 C   0  0  0  0  0  0  0  0  0  0  0  0
    6.5960  -12.1691   25.6934 C   0  0  2  0  0  0  0  0  0  0  0  0
    5.7097  -11.7594   26.8219 C   0  0  0  0  0  0  0  0  0  0  0  0
    6.9690  -13.6104   25.6988 C   0  0  0  0  0  0  0  0  0  0  0  0
    7.7409  -14.0960   24.5227 C   0  0  2  0  0  0  0  0  0  0  0  0
    6.9831  -13.9697   23.2998 N   0  0  0  0  0  0  0  0  0  0  0  0
    8.2203  -15.5021   24.7044 C   0  0  0  0  0  0  0  0  0  0  0  0
    7.4393  -16.4842   24.6928 O   0  0  0  0  0  0  0  0  0  0  0  0
   11.1537  -17.3995   23.9988 C   0  0  0  0  0  0  0  0  0  0  0  0
   10.0485  -17.1252   25.0204 C   0  0  2  0  0  0  0  0  0  0  0  0
    9.5921  -15.7586   24.8970 N   0  0  0  0  0  0  0  0  0  0  0  0
   10.5527  -17.4229   26.3764 C   0  0  0  0  0  0  0  0  0  0  0  0
   11.0192  -18.6692   26.7549 O   0  0  0  0  0  0  0  0  0  0  0  0
   10.5614  -16.5051   27.2325 O   0  0  0  0  0  0  0  0  0  0  0  0
  1  2  1  0
  2  3  1  0
  3  4  2  0
  3 10  1  0
  6  5  1  1
  7  6  1  0
  8  6  1  0
  9  8  1  1
 10  9  1  0
 11  9  1  0
 11 15  1  0
 12 11  2  0
 14 13  1  6
 14 15  1  0
 14 16  1  0
 16 17  1  0
 18 16  2  0
M  END
$$$$
