GLA.pdb
     RDKit          3D

 18 17  0  0  1  0  0  0  0  0999 V2000
    6.8189  -15.2638   20.1215 N   0  0  0  0  0  0  0  0  0  0  0  0
    6.1681  -15.2616   21.4086 C   0  0  0  0  0  0  0  0  0  0  0  0
    7.1542  -14.9584   22.4492 C   0  0  0  0  0  0  0  0  0  0  0  0
    8.3654  -14.9333   22.1656 O   0  0  0  0  0  0  0  0  0  0  0  0
    7.7075  -11.4335   25.1712 C   0  0  0  0  0  0  0  0  0  0  0  0
    6.6086  -12.3986   25.6544 C   0  0  2  0  0  0  0  0  0  0  0  0
    5.9622  -11.7546   26.8354 C   0  0  0  0  0  0  0  0  0  0  0  0
    7.3022  -13.6804   25.9583 C   0  0  0  0  0  0  0  0  0  0  0  0
    7.8394  -14.4319   24.7914 C   0  0  2  0  0  0  0  0  0  0  0  0
    6.8165  -14.6819   23.8029 N   0  0  0  0  0  0  0  0  0  0  0  0
    8.5024  -15.7098   25.2005 C   0  0  0  0  0  0  0  0  0  0  0  0
    7.8569  -16.6854   25.6544 O   0  0  0  0  0  0  0  0  0  0  0  0
   11.7441  -17.3143   24.4632 C   0  0  0  0  0  0  0  0  0  0  0  0
   10.5124  -17.1289   25.3513 C   0  0  2  0  0  0  0  0  0  0  0  0
    9.8994  -15.8472   25.0816 N   0  0  0  0  0  0  0  0  0  0  0  0
   10.9065  -17.2698   26.7678 C   0  0  0  0  0  0  0  0  0  0  0  0
   10.7176  -16.2743   27.7098 O   0  0  0  0  0  0  0  0  0  0  0  0
   11.4395  -18.3427   27.1424 O   0  0  0  0  0  0  0  0  0  0  0  0
  1  2  1  0
  2  3  1  0
  3  4  2  0
  3 10  1  0
  6  5  1  1
  7  6  1  0
  8  6  1  0
  9  8  1  1
 10  9  1  0
 11  9  1  0
 11 15  1  0
 12 11  2  0
 14 13  1  6
 14 15  1  0
 14 16  1  0
 16 17  1  0
 18 16  2  0
M  END
$$$$
