MGW.pdb
     RDKit          3D

 27 28  0  0  1  0  0  0  0  0999 V2000
    7.9110  -11.8576   19.8951 C   0  0  0  0  0  0  0  0  0  0  0  0
    6.4775  -12.9231   19.7552 S   0  0  0  0  0  0  0  0  0  0  0  0
    6.8536  -14.6725   19.7935 C   0  0  0  0  0  0  0  0  0  0  0  0
    8.2257  -14.9876   20.3566 C   0  0  0  0  0  0  0  0  0  0  0  0
    8.4104  -16.5092   20.3051 C   0  0  2  0  0  0  0  0  0  0  0  0
    7.3819  -17.0928   21.1165 N   0  0  0  0  0  0  0  0  0  0  0  0
    9.7493  -16.8660   20.8940 C   0  0  0  0  0  0  0  0  0  0  0  0
   10.6906  -17.2407   20.1650 O   0  0  0  0  0  0  0  0  0  0  0  0
    9.9889  -16.7873   22.2956 N   0  0  0  0  0  0  0  0  0  0  0  0
   11.2652  -16.5874   22.8860 C   0  0  0  0  0  0  0  0  0  0  0  0
   11.3396  -16.5084   24.3310 C   0  0  0  0  0  0  0  0  0  0  0  0
   12.4730  -16.3169   24.8550 O   0  0  0  0  0  0  0  0  0  0  0  0
   10.2293  -16.6291   25.1899 N   0  0  0  0  0  0  0  0  0  0  0  0
   10.3684  -16.6283   26.6243 C   0  0  1  0  0  0  0  0  0  0  0  0
    9.4359  -15.7696   27.3931 C   0  0  0  0  0  0  0  0  0  0  0  0
    8.1941  -15.3953   26.7141 C   0  0  0  0  0  0  0  0  0  0  0  0
    7.2203  -16.1253   26.0979 C   0  0  0  0  0  0  0  0  0  0  0  0
    6.2753  -15.2782   25.6266 N   0  0  0  0  0  0  0  0  0  0  0  0
    6.5977  -14.0275   25.9131 C   0  0  0  0  0  0  0  0  0  0  0  0
    5.9807  -12.8102   25.6558 C   0  0  0  0  0  0  0  0  0  0  0  0
    6.5804  -11.6549   26.0891 C   0  0  0  0  0  0  0  0  0  0  0  0
    7.7653  -11.6815   26.7648 C   0  0  0  0  0  0  0  0  0  0  0  0
    8.3756  -12.9053   27.0181 C   0  0  0  0  0  0  0  0  0  0  0  0
    7.7808  -14.0578   26.5871 C   0  0  0  0  0  0  0  0  0  0  0  0
   10.1861  -18.0609   27.0771 C   0  0  0  0  0  0  0  0  0  0  0  0
    9.7257  -18.8867   26.2788 O   0  0  0  0  0  0  0  0  0  0  0  0
   10.5251  -18.4509   28.3628 O   0  0  0  0  0  0  0  0  0  0  0  0
  2  3  1  0
  2  1  1  0
  4  5  1  0
  4  3  1  0
  5  6  1  1
  5  7  1  0
  7  8  2  0
  9  7  1  0
  9 10  1  0
 11 10  1  0
 11 12  2  0
 13 11  1  0
 14 13  1  0
 14 15  1  1
 16 17  2  0
 16 15  1  0
 18 17  1  0
 19 24  2  0
 19 18  1  0
 20 19  1  0
 21 22  1  0
 21 20  2  0
 22 23  2  0
 23 24  1  0
 24 16  1  0
 25 14  1  0
 26 25  2  0
 27 25  1  0
M  END
$$$$
