MGW.pdb
     RDKit          3D

 27 28  0  0  1  0  0  0  0  0999 V2000
    7.7595  -12.1290   20.2947 C   0  0  0  0  0  0  0  0  0  0  0  0
    7.1444  -13.2322   21.5653 S   0  0  0  0  0  0  0  0  0  0  0  0
    6.5434  -14.8017   20.9499 C   0  0  0  0  0  0  0  0  0  0  0  0
    7.4218  -15.4100   19.8741 C   0  0  0  0  0  0  0  0  0  0  0  0
    7.8727  -16.7900   20.3683 C   0  0  2  0  0  0  0  0  0  0  0  0
    7.1312  -17.0808   21.5610 N   0  0  0  0  0  0  0  0  0  0  0  0
    9.3376  -16.7388   20.7124 C   0  0  0  0  0  0  0  0  0  0  0  0
   10.1833  -16.3895   19.8634 O   0  0  0  0  0  0  0  0  0  0  0  0
    9.8078  -17.0830   22.0118 N   0  0  0  0  0  0  0  0  0  0  0  0
   11.0259  -16.6211   22.5776 C   0  0  0  0  0  0  0  0  0  0  0  0
   11.0764  -16.4253   24.0125 C   0  0  0  0  0  0  0  0  0  0  0  0
   12.0953  -15.8562   24.4960 O   0  0  0  0  0  0  0  0  0  0  0  0
   10.0616  -16.8265   24.9037 N   0  0  0  0  0  0  0  0  0  0  0  0
   10.2069  -16.7063   26.3324 C   0  0  1  0  0  0  0  0  0  0  0  0
    9.0077  -16.2958   27.1015 C   0  0  0  0  0  0  0  0  0  0  0  0
    7.9127  -15.7101   26.3263 C   0  0  0  0  0  0  0  0  0  0  0  0
    7.0093  -16.2419   25.4534 C   0  0  0  0  0  0  0  0  0  0  0  0
    6.2006  -15.2515   25.0084 N   0  0  0  0  0  0  0  0  0  0  0  0
    6.5438  -14.0983   25.5586 C   0  0  0  0  0  0  0  0  0  0  0  0
    6.0454  -12.8078   25.4363 C   0  0  0  0  0  0  0  0  0  0  0  0
    6.6331  -11.7963   26.1528 C   0  0  0  0  0  0  0  0  0  0  0  0
    7.6923  -12.0352   26.9788 C   0  0  0  0  0  0  0  0  0  0  0  0
    8.1843  -13.3309   27.0951 C   0  0  0  0  0  0  0  0  0  0  0  0
    7.6012  -14.3405   26.3821 C   0  0  0  0  0  0  0  0  0  0  0  0
   10.6605  -18.0595   26.8361 C   0  0  0  0  0  0  0  0  0  0  0  0
   10.6900  -19.0123   26.0472 O   0  0  0  0  0  0  0  0  0  0  0  0
   11.0375  -18.2388   28.1573 O   0  0  0  0  0  0  0  0  0  0  0  0
  2  3  1  0
  2  1  1  0
  4  5  1  0
  4  3  1  0
  5  6  1  1
  5  7  1  0
  7  8  2  0
  9  7  1  0
  9 10  1  0
 11 10  1  0
 11 12  2  0
 13 11  1  0
 14 13  1  0
 14 15  1  1
 16 17  2  0
 16 15  1  0
 18 17  1  0
 19 24  2  0
 19 18  1  0
 20 19  1  0
 21 22  1  0
 21 20  2  0
 22 23  2  0
 23 24  1  0
 24 16  1  0
 25 14  1  0
 26 25  2  0
 27 25  1  0
M  END
$$$$
