MGW.pdb
     RDKit          3D

 27 28  0  0  1  0  0  0  0  0999 V2000
    8.1921  -12.0144   19.8384 C   0  0  0  0  0  0  0  0  0  0  0  0
    7.3624  -13.5773   19.5572 S   0  0  0  0  0  0  0  0  0  0  0  0
    8.4668  -14.9550   19.2642 C   0  0  0  0  0  0  0  0  0  0  0  0
    7.7574  -16.2904   19.1532 C   0  0  0  0  0  0  0  0  0  0  0  0
    7.8104  -16.9603   20.5318 C   0  0  2  0  0  0  0  0  0  0  0  0
    6.8772  -16.2739   21.3773 N   0  0  0  0  0  0  0  0  0  0  0  0
    9.1919  -16.7989   21.1083 C   0  0  0  0  0  0  0  0  0  0  0  0
   10.1102  -17.5867   20.8016 O   0  0  0  0  0  0  0  0  0  0  0  0
    9.4989  -15.7465   22.0172 N   0  0  0  0  0  0  0  0  0  0  0  0
   10.7760  -15.5313   22.6007 C   0  0  0  0  0  0  0  0  0  0  0  0
   10.9584  -15.9015   23.9898 C   0  0  0  0  0  0  0  0  0  0  0  0
   12.0361  -15.5628   24.5552 O   0  0  0  0  0  0  0  0  0  0  0  0
   10.0107  -16.6129   24.7518 N   0  0  0  0  0  0  0  0  0  0  0  0
   10.1018  -16.7120   26.1867 C   0  0  1  0  0  0  0  0  0  0  0  0
    8.8326  -16.6482   26.9503 C   0  0  0  0  0  0  0  0  0  0  0  0
    7.7474  -15.8811   26.3364 C   0  0  0  0  0  0  0  0  0  0  0  0
    6.6368  -16.2484   25.6345 C   0  0  0  0  0  0  0  0  0  0  0  0
    5.9535  -15.1323   25.2877 N   0  0  0  0  0  0  0  0  0  0  0  0
    6.5770  -14.0556   25.7374 C   0  0  0  0  0  0  0  0  0  0  0  0
    6.2994  -12.6976   25.6503 C   0  0  0  0  0  0  0  0  0  0  0  0
    7.1624  -11.8029   26.2307 C   0  0  0  0  0  0  0  0  0  0  0  0
    8.2817  -12.2221   26.8885 C   0  0  0  0  0  0  0  0  0  0  0  0
    8.5513  -13.5840   26.9709 C   0  0  0  0  0  0  0  0  0  0  0  0
    7.6937  -14.4777   26.3931 C   0  0  0  0  0  0  0  0  0  0  0  0
   10.7771  -18.0328   26.4868 C   0  0  0  0  0  0  0  0  0  0  0  0
   11.0952  -18.2903   27.6545 O   0  0  0  0  0  0  0  0  0  0  0  0
   11.0400  -18.9448   25.4773 O   0  0  0  0  0  0  0  0  0  0  0  0
  2  3  1  0
  2  1  1  0
  4  5  1  0
  4  3  1  0
  5  6  1  1
  5  7  1  0
  7  8  2  0
  9  7  1  0
  9 10  1  0
 11 10  1  0
 11 12  2  0
 13 11  1  0
 14 13  1  0
 14 15  1  1
 16 17  2  0
 16 15  1  0
 18 17  1  0
 19 24  2  0
 19 18  1  0
 20 19  1  0
 21 22  1  0
 21 20  2  0
 22 23  2  0
 23 24  1  0
 24 16  1  0
 25 14  1  0
 26 25  2  0
 27 25  1  0
M  END
$$$$
