MGW.pdb
     RDKit          3D

 27 28  0  0  1  0  0  0  0  0999 V2000
    7.7216  -11.9521   18.1927 C   0  0  0  0  0  0  0  0  0  0  0  0
    8.1731  -12.6954   19.7591 S   0  0  0  0  0  0  0  0  0  0  0  0
    7.0340  -13.9506   20.3340 C   0  0  0  0  0  0  0  0  0  0  0  0
    7.4445  -14.5896   21.6463 C   0  0  0  0  0  0  0  0  0  0  0  0
    8.5441  -15.6138   21.3399 C   0  0  2  0  0  0  0  0  0  0  0  0
    8.0874  -16.4168   20.2429 N   0  0  0  0  0  0  0  0  0  0  0  0
    8.7409  -16.5032   22.5388 C   0  0  0  0  0  0  0  0  0  0  0  0
    7.9733  -16.4343   23.5205 O   0  0  0  0  0  0  0  0  0  0  0  0
    9.8026  -17.4506   22.5943 N   0  0  0  0  0  0  0  0  0  0  0  0
   10.9622  -17.3164   23.4035 C   0  0  0  0  0  0  0  0  0  0  0  0
   10.8495  -16.5517   24.6292 C   0  0  0  0  0  0  0  0  0  0  0  0
   11.3491  -15.3917   24.6503 O   0  0  0  0  0  0  0  0  0  0  0  0
   10.2168  -17.0172   25.7988 N   0  0  0  0  0  0  0  0  0  0  0  0
   10.3350  -16.3273   27.0586 C   0  0  1  0  0  0  0  0  0  0  0  0
    9.0763  -15.9980   27.7693 C   0  0  0  0  0  0  0  0  0  0  0  0
    7.9721  -15.5163   26.9375 C   0  0  0  0  0  0  0  0  0  0  0  0
    6.9870  -16.1578   26.2453 C   0  0  0  0  0  0  0  0  0  0  0  0
    6.2122  -15.2313   25.6337 N   0  0  0  0  0  0  0  0  0  0  0  0
    6.6557  -14.0142   25.9023 C   0  0  0  0  0  0  0  0  0  0  0  0
    6.2274  -12.7481   25.5250 C   0  0  0  0  0  0  0  0  0  0  0  0
    6.9165  -11.6505   25.9751 C   0  0  0  0  0  0  0  0  0  0  0  0
    8.0085  -11.7808   26.7824 C   0  0  0  0  0  0  0  0  0  0  0  0
    8.4297  -13.0528   27.1552 C   0  0  0  0  0  0  0  0  0  0  0  0
    7.7456  -14.1481   26.7079 C   0  0  0  0  0  0  0  0  0  0  0  0
   11.1771  -17.2080   27.9563 C   0  0  0  0  0  0  0  0  0  0  0  0
   11.4245  -18.3659   27.5969 O   0  0  0  0  0  0  0  0  0  0  0  0
   11.6667  -16.7350   29.1631 O   0  0  0  0  0  0  0  0  0  0  0  0
  2  3  1  0
  2  1  1  0
  4  5  1  0
  4  3  1  0
  5  6  1  6
  5  7  1  0
  7  8  2  0
  9  7  1  0
  9 10  1  0
 11 10  1  0
 11 12  2  0
 13 11  1  0
 14 13  1  0
 14 15  1  1
 16 17  2  0
 16 15  1  0
 18 17  1  0
 19 24  2  0
 19 18  1  0
 20 19  1  0
 21 22  1  0
 21 20  2  0
 22 23  2  0
 23 24  1  0
 24 16  1  0
 25 14  1  0
 26 25  2  0
 27 25  1  0
M  END
$$$$
