MGW.pdb
     RDKit          3D

 27 28  0  0  1  0  0  0  0  0999 V2000
    7.4907  -12.1748   17.1503 C   0  0  0  0  0  0  0  0  0  0  0  0
    7.8350  -12.8709   18.7648 S   0  0  0  0  0  0  0  0  0  0  0  0
    6.8659  -14.3220   19.1630 C   0  0  0  0  0  0  0  0  0  0  0  0
    7.0523  -14.8059   20.5878 C   0  0  0  0  0  0  0  0  0  0  0  0
    8.5556  -14.7899   20.8905 C   0  0  2  0  0  0  0  0  0  0  0  0
    9.2328  -15.2703   19.7212 N   0  0  0  0  0  0  0  0  0  0  0  0
    8.8411  -15.7289   22.0324 C   0  0  0  0  0  0  0  0  0  0  0  0
    8.2858  -15.5781   23.1400 O   0  0  0  0  0  0  0  0  0  0  0  0
    9.7481  -16.8174   21.8897 N   0  0  0  0  0  0  0  0  0  0  0  0
   10.0750  -17.7359   22.9226 C   0  0  0  0  0  0  0  0  0  0  0  0
   10.4596  -17.1982   24.2122 C   0  0  0  0  0  0  0  0  0  0  0  0
   11.5617  -16.5861   24.2925 O   0  0  0  0  0  0  0  0  0  0  0  0
    9.6828  -17.3116   25.3821 N   0  0  0  0  0  0  0  0  0  0  0  0
   10.1251  -16.7835   26.6479 C   0  0  1  0  0  0  0  0  0  0  0  0
    9.1135  -16.0916   27.4821 C   0  0  0  0  0  0  0  0  0  0  0  0
    7.9993  -15.4708   26.7635 C   0  0  0  0  0  0  0  0  0  0  0  0
    6.9650  -15.9853   26.0380 C   0  0  0  0  0  0  0  0  0  0  0  0
    6.2052  -14.9628   25.5796 N   0  0  0  0  0  0  0  0  0  0  0  0
    6.7060  -13.8054   25.9796 C   0  0  0  0  0  0  0  0  0  0  0  0
    6.3144  -12.4877   25.7816 C   0  0  0  0  0  0  0  0  0  0  0  0
    7.0623  -11.4803   26.3364 C   0  0  0  0  0  0  0  0  0  0  0  0
    8.1772  -11.7493   27.0751 C   0  0  0  0  0  0  0  0  0  0  0  0
    8.5614  -13.0720   27.2682 C   0  0  0  0  0  0  0  0  0  0  0  0
    7.8187  -14.0777   26.7163 C   0  0  0  0  0  0  0  0  0  0  0  0
   10.6781  -17.9524   27.4345 C   0  0  0  0  0  0  0  0  0  0  0  0
   11.2417  -17.7339   28.5141 O   0  0  0  0  0  0  0  0  0  0  0  0
   10.5611  -19.2494   26.9612 O   0  0  0  0  0  0  0  0  0  0  0  0
  2  3  1  0
  2  1  1  0
  4  5  1  0
  4  3  1  0
  5  6  1  6
  5  7  1  0
  7  8  2  0
  9  7  1  0
  9 10  1  0
 11 10  1  0
 11 12  2  0
 13 11  1  0
 14 13  1  0
 14 15  1  1
 16 17  2  0
 16 15  1  0
 18 17  1  0
 19 24  2  0
 19 18  1  0
 20 19  1  0
 21 22  1  0
 21 20  2  0
 22 23  2  0
 23 24  1  0
 24 16  1  0
 25 14  1  0
 26 25  2  0
 27 25  1  0
M  END
$$$$
