MGW.pdb
     RDKit          3D

 27 28  0  0  1  0  0  0  0  0999 V2000
    8.0536  -11.4853   20.2580 C   0  0  0  0  0  0  0  0  0  0  0  0
    7.2975  -13.0193   19.7241 S   0  0  0  0  0  0  0  0  0  0  0  0
    7.6299  -14.4154   20.7937 C   0  0  0  0  0  0  0  0  0  0  0  0
    6.9391  -15.6931   20.3587 C   0  0  0  0  0  0  0  0  0  0  0  0
    7.2916  -16.7821   21.3794 C   0  0  2  0  0  0  0  0  0  0  0  0
    6.8091  -16.3436   22.6568 N   0  0  0  0  0  0  0  0  0  0  0  0
    8.7885  -16.9261   21.4533 C   0  0  0  0  0  0  0  0  0  0  0  0
    9.3682  -17.8833   20.9005 O   0  0  0  0  0  0  0  0  0  0  0  0
    9.5920  -15.9796   22.1510 N   0  0  0  0  0  0  0  0  0  0  0  0
   10.9351  -16.2039   22.5552 C   0  0  0  0  0  0  0  0  0  0  0  0
   11.1742  -16.5890   23.9316 C   0  0  0  0  0  0  0  0  0  0  0  0
   12.3718  -16.7430   24.3028 O   0  0  0  0  0  0  0  0  0  0  0  0
   10.1576  -16.8008   24.8837 N   0  0  0  0  0  0  0  0  0  0  0  0
   10.3668  -16.5683   26.2905 C   0  0  1  0  0  0  0  0  0  0  0  0
    9.6821  -15.3986   26.8913 C   0  0  0  0  0  0  0  0  0  0  0  0
    8.3257  -15.1279   26.4117 C   0  0  0  0  0  0  0  0  0  0  0  0
    7.3244  -15.9380   25.9622 C   0  0  0  0  0  0  0  0  0  0  0  0
    6.2577  -15.1703   25.6369 N   0  0  0  0  0  0  0  0  0  0  0  0
    6.5277  -13.8942   25.8582 C   0  0  0  0  0  0  0  0  0  0  0  0
    5.7902  -12.7295   25.6897 C   0  0  0  0  0  0  0  0  0  0  0  0
    6.3631  -11.5258   26.0135 C   0  0  0  0  0  0  0  0  0  0  0  0
    7.6373  -11.4539   26.4956 C   0  0  0  0  0  0  0  0  0  0  0  0
    8.3681  -12.6256   26.6612 C   0  0  0  0  0  0  0  0  0  0  0  0
    7.8002  -13.8262   26.3390 C   0  0  0  0  0  0  0  0  0  0  0  0
    9.9033  -17.8173   27.0087 C   0  0  0  0  0  0  0  0  0  0  0  0
    9.1950  -18.6292   26.4002 O   0  0  0  0  0  0  0  0  0  0  0  0
   10.2600  -18.0562   28.3261 O   0  0  0  0  0  0  0  0  0  0  0  0
  2  3  1  0
  2  1  1  0
  4  5  1  0
  4  3  1  0
  5  6  1  1
  5  7  1  0
  7  8  2  0
  9  7  1  0
  9 10  1  0
 11 10  1  0
 11 12  2  0
 13 11  1  0
 14 13  1  0
 14 15  1  1
 16 17  2  0
 16 15  1  0
 18 17  1  0
 19 24  2  0
 19 18  1  0
 20 19  1  0
 21 22  1  0
 21 20  2  0
 22 23  2  0
 23 24  1  0
 24 16  1  0
 25 14  1  0
 26 25  2  0
 27 25  1  0
M  END
$$$$
