MGW.pdb
     RDKit          3D

 27 28  0  0  1  0  0  0  0  0999 V2000
    5.9417  -16.6048   24.6205 C   0  0  0  0  0  0  0  0  0  0  0  0
    6.0049  -17.7066   23.2092 S   0  0  0  0  0  0  0  0  0  0  0  0
    6.1743  -16.8755   21.6331 C   0  0  0  0  0  0  0  0  0  0  0  0
    7.0813  -15.6614   21.6799 C   0  0  0  0  0  0  0  0  0  0  0  0
    8.2002  -15.8780   20.6537 C   0  0  2  0  0  0  0  0  0  0  0  0
    8.1288  -17.2447   20.2247 N   0  0  0  0  0  0  0  0  0  0  0  0
    9.5323  -15.6505   21.3176 C   0  0  0  0  0  0  0  0  0  0  0  0
    9.8895  -14.5050   21.6613 O   0  0  0  0  0  0  0  0  0  0  0  0
   10.4262  -16.7282   21.5775 N   0  0  0  0  0  0  0  0  0  0  0  0
   11.7384  -16.5797   22.1004 C   0  0  0  0  0  0  0  0  0  0  0  0
   11.8837  -16.4168   23.5330 C   0  0  0  0  0  0  0  0  0  0  0  0
   13.0496  -16.2676   23.9957 O   0  0  0  0  0  0  0  0  0  0  0  0
   10.8085  -16.4116   24.4434 N   0  0  0  0  0  0  0  0  0  0  0  0
   11.0121  -16.3133   25.8667 C   0  0  1  0  0  0  0  0  0  0  0  0
   10.2683  -15.2501   26.5839 C   0  0  0  0  0  0  0  0  0  0  0  0
    8.8232  -15.2057   26.3541 C   0  0  0  0  0  0  0  0  0  0  0  0
    7.8966  -16.1741   26.1001 C   0  0  0  0  0  0  0  0  0  0  0  0
    6.6830  -15.5893   25.9653 N   0  0  0  0  0  0  0  0  0  0  0  0
    6.7861  -14.2797   26.1222 C   0  0  0  0  0  0  0  0  0  0  0  0
    5.8584  -13.2471   26.0785 C   0  0  0  0  0  0  0  0  0  0  0  0
    6.2852  -11.9593   26.2822 C   0  0  0  0  0  0  0  0  0  0  0  0
    7.5977  -11.6776   26.5261 C   0  0  0  0  0  0  0  0  0  0  0  0
    8.5194  -12.7183   26.5683 C   0  0  0  0  0  0  0  0  0  0  0  0
    8.0972  -14.0021   26.3651 C   0  0  0  0  0  0  0  0  0  0  0  0
   10.6203  -17.6526   26.4529 C   0  0  0  0  0  0  0  0  0  0  0  0
    9.9812  -18.4480   25.7530 O   0  0  0  0  0  0  0  0  0  0  0  0
   10.9659  -17.9911   27.7513 O   0  0  0  0  0  0  0  0  0  0  0  0
  2  3  1  0
  2  1  1  0
  4  5  1  0
  4  3  1  0
  5  6  1  1
  5  7  1  0
  7  8  2  0
  9  7  1  0
  9 10  1  0
 11 10  1  0
 11 12  2  0
 13 11  1  0
 14 13  1  0
 14 15  1  1
 16 17  2  0
 16 15  1  0
 18 17  1  0
 19 24  2  0
 19 18  1  0
 20 19  1  0
 21 22  1  0
 21 20  2  0
 22 23  2  0
 23 24  1  0
 24 16  1  0
 25 14  1  0
 26 25  2  0
 27 25  1  0
M  END
$$$$
