MGW.pdb
     RDKit          3D

 27 28  0  0  1  0  0  0  0  0999 V2000
    8.2118  -12.5015   17.6161 C   0  0  0  0  0  0  0  0  0  0  0  0
    8.4569  -12.8929   19.3471 S   0  0  0  0  0  0  0  0  0  0  0  0
    7.1964  -13.9526   20.0482 C   0  0  0  0  0  0  0  0  0  0  0  0
    7.6882  -14.7993   21.2059 C   0  0  0  0  0  0  0  0  0  0  0  0
    8.5682  -15.9131   20.6254 C   0  0  2  0  0  0  0  0  0  0  0  0
    7.6951  -16.9599   20.1796 N   0  0  0  0  0  0  0  0  0  0  0  0
    9.4583  -16.4577   21.7108 C   0  0  0  0  0  0  0  0  0  0  0  0
   10.4192  -15.7908   22.1463 O   0  0  0  0  0  0  0  0  0  0  0  0
    9.2356  -17.7451   22.2775 N   0  0  0  0  0  0  0  0  0  0  0  0
   10.0943  -18.3713   23.2198 C   0  0  0  0  0  0  0  0  0  0  0  0
   10.5612  -17.5819   24.3418 C   0  0  0  0  0  0  0  0  0  0  0  0
   11.6195  -16.9088   24.1913 O   0  0  0  0  0  0  0  0  0  0  0  0
    9.9100  -17.5144   25.5893 N   0  0  0  0  0  0  0  0  0  0  0  0
   10.4494  -16.7621   26.6939 C   0  0  1  0  0  0  0  0  0  0  0  0
    9.8208  -15.4526   26.9906 C   0  0  0  0  0  0  0  0  0  0  0  0
    8.3715  -15.3741   26.8000 C   0  0  0  0  0  0  0  0  0  0  0  0
    7.3992  -16.3252   26.6955 C   0  0  0  0  0  0  0  0  0  0  0  0
    6.2057  -15.7093   26.5253 N   0  0  0  0  0  0  0  0  0  0  0  0
    6.3656  -14.3960   26.5157 C   0  0  0  0  0  0  0  0  0  0  0  0
    5.4783  -13.3373   26.3719 C   0  0  0  0  0  0  0  0  0  0  0  0
    5.9624  -12.0540   26.4018 C   0  0  0  0  0  0  0  0  0  0  0  0
    7.2926  -11.8017   26.5698 C   0  0  0  0  0  0  0  0  0  0  0  0
    8.1735  -12.8683   26.7133 C   0  0  0  0  0  0  0  0  0  0  0  0
    7.6942  -14.1479   26.6833 C   0  0  0  0  0  0  0  0  0  0  0  0
   10.3252  -17.6429   27.9184 C   0  0  0  0  0  0  0  0  0  0  0  0
    9.5776  -18.6279   27.8735 O   0  0  0  0  0  0  0  0  0  0  0  0
   11.0320  -17.3587   29.0758 O   0  0  0  0  0  0  0  0  0  0  0  0
  2  3  1  0
  2  1  1  0
  4  5  1  0
  4  3  1  0
  5  6  1  1
  5  7  1  0
  7  8  2  0
  9  7  1  0
  9 10  1  0
 11 10  1  0
 11 12  2  0
 13 11  1  0
 14 13  1  0
 14 15  1  1
 16 17  2  0
 16 15  1  0
 18 17  1  0
 19 24  2  0
 19 18  1  0
 20 19  1  0
 21 22  1  0
 21 20  2  0
 22 23  2  0
 23 24  1  0
 24 16  1  0
 25 14  1  0
 26 25  2  0
 27 25  1  0
M  END
$$$$
