MGW.pdb
     RDKit          3D

 27 28  0  0  1  0  0  0  0  0999 V2000
    9.6573  -12.4021   20.0991 C   0  0  0  0  0  0  0  0  0  0  0  0
    8.1717  -12.8113   19.1852 S   0  0  0  0  0  0  0  0  0  0  0  0
    8.4222  -13.9904   17.8622 C   0  0  0  0  0  0  0  0  0  0  0  0
    9.4238  -15.0780   18.1981 C   0  0  0  0  0  0  0  0  0  0  0  0
    8.6470  -16.3903   18.3605 C   0  0  2  0  0  0  0  0  0  0  0  0
    7.3888  -16.2284   17.6916 N   0  0  0  0  0  0  0  0  0  0  0  0
    8.3870  -16.6344   19.8233 C   0  0  0  0  0  0  0  0  0  0  0  0
    7.3778  -16.1588   20.3828 O   0  0  0  0  0  0  0  0  0  0  0  0
    9.2773  -17.4139   20.6158 N   0  0  0  0  0  0  0  0  0  0  0  0
    9.0217  -17.8209   21.9524 C   0  0  0  0  0  0  0  0  0  0  0  0
    9.6182  -17.0477   23.0230 C   0  0  0  0  0  0  0  0  0  0  0  0
   10.5390  -16.2362   22.7239 O   0  0  0  0  0  0  0  0  0  0  0  0
    9.2362  -17.1403   24.3759 N   0  0  0  0  0  0  0  0  0  0  0  0
    9.9525  -16.4543   25.4215 C   0  0  1  0  0  0  0  0  0  0  0  0
    9.1854  -16.0825   26.6345 C   0  0  0  0  0  0  0  0  0  0  0  0
    7.8612  -15.5009   26.4079 C   0  0  0  0  0  0  0  0  0  0  0  0
    6.6485  -16.0495   26.1089 C   0  0  0  0  0  0  0  0  0  0  0  0
    5.7362  -15.0549   26.0026 N   0  0  0  0  0  0  0  0  0  0  0  0
    6.3095  -13.8827   26.2212 C   0  0  0  0  0  0  0  0  0  0  0  0
    5.8257  -12.5809   26.2268 C   0  0  0  0  0  0  0  0  0  0  0  0
    6.6913  -11.5500   26.4909 C   0  0  0  0  0  0  0  0  0  0  0  0
    8.0114  -11.7805   26.7471 C   0  0  0  0  0  0  0  0  0  0  0  0
    8.4867  -13.0875   26.7395 C   0  0  0  0  0  0  0  0  0  0  0  0
    7.6268  -14.1166   26.4761 C   0  0  0  0  0  0  0  0  0  0  0  0
   11.0912  -17.3625   25.8331 C   0  0  0  0  0  0  0  0  0  0  0  0
   11.1447  -18.5057   25.3625 O   0  0  0  0  0  0  0  0  0  0  0  0
   12.0620  -16.9306   26.7224 O   0  0  0  0  0  0  0  0  0  0  0  0
  2  3  1  0
  2  1  1  0
  4  5  1  0
  4  3  1  0
  5  6  1  6
  5  7  1  0
  7  8  2  0
  9  7  1  0
  9 10  1  0
 11 10  1  0
 11 12  2  0
 13 11  1  0
 14 13  1  0
 14 15  1  1
 16 17  2  0
 16 15  1  0
 18 17  1  0
 19 24  2  0
 19 18  1  0
 20 19  1  0
 21 22  1  0
 21 20  2  0
 22 23  2  0
 23 24  1  0
 24 16  1  0
 25 14  1  0
 26 25  2  0
 27 25  1  0
M  END
$$$$
