MGW.pdb
     RDKit          3D

 27 28  0  0  1  0  0  0  0  0999 V2000
    7.2944  -11.6358   20.2382 C   0  0  0  0  0  0  0  0  0  0  0  0
    6.6293  -12.9735   21.2271 S   0  0  0  0  0  0  0  0  0  0  0  0
    7.1982  -14.6002   20.7435 C   0  0  0  0  0  0  0  0  0  0  0  0
    8.2852  -14.5752   19.6867 C   0  0  0  0  0  0  0  0  0  0  0  0
    8.6504  -16.0289   19.3621 C   0  0  2  0  0  0  0  0  0  0  0  0
    7.4230  -16.7507   19.1911 N   0  0  0  0  0  0  0  0  0  0  0  0
    9.4006  -16.6228   20.5246 C   0  0  0  0  0  0  0  0  0  0  0  0
   10.5517  -16.2339   20.8103 O   0  0  0  0  0  0  0  0  0  0  0  0
    8.8262  -17.6422   21.3362 N   0  0  0  0  0  0  0  0  0  0  0  0
    9.4754  -18.2559   22.4405 C   0  0  0  0  0  0  0  0  0  0  0  0
   10.0151  -17.3955   23.4741 C   0  0  0  0  0  0  0  0  0  0  0  0
   10.9570  -16.6142   23.1607 O   0  0  0  0  0  0  0  0  0  0  0  0
    9.5560  -17.3720   24.8059 N   0  0  0  0  0  0  0  0  0  0  0  0
   10.2893  -16.7115   25.8561 C   0  0  1  0  0  0  0  0  0  0  0  0
    9.4993  -15.9758   26.8723 C   0  0  0  0  0  0  0  0  0  0  0  0
    8.1987  -15.4661   26.4343 C   0  0  0  0  0  0  0  0  0  0  0  0
    7.0896  -16.0761   25.9258 C   0  0  0  0  0  0  0  0  0  0  0  0
    6.1487  -15.1336   25.6826 N   0  0  0  0  0  0  0  0  0  0  0  0
    6.6038  -13.9363   26.0137 C   0  0  0  0  0  0  0  0  0  0  0  0
    6.0467  -12.6654   25.9583 C   0  0  0  0  0  0  0  0  0  0  0  0
    6.7906  -11.5932   26.3816 C   0  0  0  0  0  0  0  0  0  0  0  0
    8.0606  -11.7535   26.8536 C   0  0  0  0  0  0  0  0  0  0  0  0
    8.6099  -13.0301   26.9056 C   0  0  0  0  0  0  0  0  0  0  0  0
    7.8714  -14.1001   26.4841 C   0  0  0  0  0  0  0  0  0  0  0  0
   11.0971  -17.7817   26.5582 C   0  0  0  0  0  0  0  0  0  0  0  0
   11.9007  -17.4448   27.4368 O   0  0  0  0  0  0  0  0  0  0  0  0
   10.9474  -19.1192   26.2288 O   0  0  0  0  0  0  0  0  0  0  0  0
  2  3  1  0
  2  1  1  0
  4  5  1  0
  4  3  1  0
  5  6  1  1
  5  7  1  0
  7  8  2  0
  9  7  1  0
  9 10  1  0
 11 10  1  0
 11 12  2  0
 13 11  1  0
 14 13  1  0
 14 15  1  1
 16 17  2  0
 16 15  1  0
 18 17  1  0
 19 24  2  0
 19 18  1  0
 20 19  1  0
 21 22  1  0
 21 20  2  0
 22 23  2  0
 23 24  1  0
 24 16  1  0
 25 14  1  0
 26 25  2  0
 27 25  1  0
M  END
$$$$
