MGW.pdb
     RDKit          3D

 27 28  0  0  1  0  0  0  0  0999 V2000
    7.3827  -11.8154   19.1441 C   0  0  0  0  0  0  0  0  0  0  0  0
    7.3235  -13.0257   17.8244 S   0  0  0  0  0  0  0  0  0  0  0  0
    8.3063  -14.4912   18.1247 C   0  0  0  0  0  0  0  0  0  0  0  0
    9.3276  -14.3223   19.2326 C   0  0  0  0  0  0  0  0  0  0  0  0
   10.0430  -15.6668   19.4132 C   0  0  2  0  0  0  0  0  0  0  0  0
    9.4300  -16.6019   18.5151 N   0  0  0  0  0  0  0  0  0  0  0  0
    9.8401  -16.1504   20.8246 C   0  0  0  0  0  0  0  0  0  0  0  0
   10.2735  -15.4955   21.7947 O   0  0  0  0  0  0  0  0  0  0  0  0
    9.1488  -17.3642   21.1015 N   0  0  0  0  0  0  0  0  0  0  0  0
    8.8511  -17.8438   22.4049 C   0  0  0  0  0  0  0  0  0  0  0  0
    9.6557  -17.3568   23.5073 C   0  0  0  0  0  0  0  0  0  0  0  0
   10.8376  -16.9870   23.2584 O   0  0  0  0  0  0  0  0  0  0  0  0
    9.2045  -17.2668   24.8389 N   0  0  0  0  0  0  0  0  0  0  0  0
   10.0365  -16.7474   25.8949 C   0  0  1  0  0  0  0  0  0  0  0  0
    9.5146  -15.5888   26.6585 C   0  0  0  0  0  0  0  0  0  0  0  0
    8.1340  -15.1952   26.3714 C   0  0  0  0  0  0  0  0  0  0  0  0
    7.0046  -15.9116   26.1027 C   0  0  0  0  0  0  0  0  0  0  0  0
    5.9795  -15.0491   25.9076 N   0  0  0  0  0  0  0  0  0  0  0  0
    6.3995  -13.8015   26.0396 C   0  0  0  0  0  0  0  0  0  0  0  0
    5.7594  -12.5734   25.9368 C   0  0  0  0  0  0  0  0  0  0  0  0
    6.4860  -11.4256   26.1287 C   0  0  0  0  0  0  0  0  0  0  0  0
    7.8186  -11.4700   26.4175 C   0  0  0  0  0  0  0  0  0  0  0  0
    8.4510  -12.7046   26.5187 C   0  0  0  0  0  0  0  0  0  0  0  0
    7.7298  -13.8497   26.3274 C   0  0  0  0  0  0  0  0  0  0  0  0
   10.2751  -17.8897   26.8587 C   0  0  0  0  0  0  0  0  0  0  0  0
    9.5372  -18.8815   26.8053 O   0  0  0  0  0  0  0  0  0  0  0  0
   11.2997  -17.8346   27.7899 O   0  0  0  0  0  0  0  0  0  0  0  0
  2  3  1  0
  2  1  1  0
  4  5  1  0
  4  3  1  0
  5  6  1  6
  5  7  1  0
  7  8  2  0
  9  7  1  0
  9 10  1  0
 11 10  1  0
 11 12  2  0
 13 11  1  0
 14 13  1  0
 14 15  1  1
 16 17  2  0
 16 15  1  0
 18 17  1  0
 19 24  2  0
 19 18  1  0
 20 19  1  0
 21 22  1  0
 21 20  2  0
 22 23  2  0
 23 24  1  0
 24 16  1  0
 25 14  1  0
 26 25  2  0
 27 25  1  0
M  END
$$$$
