MGW.pdb
     RDKit          3D

 27 28  0  0  1  0  0  0  0  0999 V2000
    8.0754  -11.8488   20.9124 C   0  0  0  0  0  0  0  0  0  0  0  0
    7.2047  -13.2477   21.6157 S   0  0  0  0  0  0  0  0  0  0  0  0
    7.0618  -14.6539   20.5177 C   0  0  0  0  0  0  0  0  0  0  0  0
    8.2939  -14.8882   19.6657 C   0  0  0  0  0  0  0  0  0  0  0  0
    8.5121  -16.4033   19.5717 C   0  0  2  0  0  0  0  0  0  0  0  0
    7.2185  -17.0225   19.5672 N   0  0  0  0  0  0  0  0  0  0  0  0
    9.2662  -16.8717   20.7878 C   0  0  0  0  0  0  0  0  0  0  0  0
   10.3107  -16.2958   21.1552 O   0  0  0  0  0  0  0  0  0  0  0  0
    8.8159  -17.9810   21.5591 N   0  0  0  0  0  0  0  0  0  0  0  0
    8.0791  -17.8764   22.7689 C   0  0  0  0  0  0  0  0  0  0  0  0
    8.8034  -17.5380   23.9775 C   0  0  0  0  0  0  0  0  0  0  0  0
    8.5434  -18.1934   25.0256 O   0  0  0  0  0  0  0  0  0  0  0  0
    9.7808  -16.5266   24.0592 N   0  0  0  0  0  0  0  0  0  0  0  0
   10.4591  -16.2163   25.2923 C   0  0  1  0  0  0  0  0  0  0  0  0
    9.7326  -15.3693   26.2685 C   0  0  0  0  0  0  0  0  0  0  0  0
    8.2973  -15.2006   26.0346 C   0  0  0  0  0  0  0  0  0  0  0  0
    7.2982  -16.0812   25.7393 C   0  0  0  0  0  0  0  0  0  0  0  0
    6.1363  -15.3964   25.6222 N   0  0  0  0  0  0  0  0  0  0  0  0
    6.3424  -14.1062   25.8303 C   0  0  0  0  0  0  0  0  0  0  0  0
    5.5005  -13.0017   25.8229 C   0  0  0  0  0  0  0  0  0  0  0  0
    6.0273  -11.7611   26.0783 C   0  0  0  0  0  0  0  0  0  0  0  0
    7.3562  -11.5949   26.3384 C   0  0  0  0  0  0  0  0  0  0  0  0
    8.1916  -12.7069   26.3440 C   0  0  0  0  0  0  0  0  0  0  0  0
    7.6697  -13.9440   26.0893 C   0  0  0  0  0  0  0  0  0  0  0  0
   10.7834  -17.5392   25.9521 C   0  0  0  0  0  0  0  0  0  0  0  0
   10.3920  -18.5853   25.4193 O   0  0  0  0  0  0  0  0  0  0  0  0
   11.5050  -17.5887   27.1339 O   0  0  0  0  0  0  0  0  0  0  0  0
  2  3  1  0
  2  1  1  0
  4  5  1  0
  4  3  1  0
  5  6  1  1
  5  7  1  0
  7  8  2  0
  9  7  1  0
  9 10  1  0
 11 10  1  0
 11 12  2  0
 13 11  1  0
 14 13  1  0
 14 15  1  1
 16 17  2  0
 16 15  1  0
 18 17  1  0
 19 24  2  0
 19 18  1  0
 20 19  1  0
 21 22  1  0
 21 20  2  0
 22 23  2  0
 23 24  1  0
 24 16  1  0
 25 14  1  0
 26 25  2  0
 27 25  1  0
M  END
$$$$
