MGW.pdb
     RDKit          3D

 27 28  0  0  1  0  0  0  0  0999 V2000
    6.4366  -13.9597   16.3152 C   0  0  0  0  0  0  0  0  0  0  0  0
    7.1917  -12.7223   17.3681 S   0  0  0  0  0  0  0  0  0  0  0  0
    8.6498  -13.2870   18.2391 C   0  0  0  0  0  0  0  0  0  0  0  0
    8.3559  -13.8515   19.6153 C   0  0  0  0  0  0  0  0  0  0  0  0
    9.6975  -14.2102   20.2661 C   0  0  2  0  0  0  0  0  0  0  0  0
   10.4523  -14.9607   19.3050 N   0  0  0  0  0  0  0  0  0  0  0  0
    9.4477  -15.0809   21.4687 C   0  0  0  0  0  0  0  0  0  0  0  0
    8.7700  -14.6653   22.4309 O   0  0  0  0  0  0  0  0  0  0  0  0
    9.9711  -16.4028   21.5500 N   0  0  0  0  0  0  0  0  0  0  0  0
    9.8303  -17.2585   22.6750 C   0  0  0  0  0  0  0  0  0  0  0  0
   10.1424  -16.7172   23.9825 C   0  0  0  0  0  0  0  0  0  0  0  0
   11.0305  -15.8218   24.0550 O   0  0  0  0  0  0  0  0  0  0  0  0
    9.5178  -17.1232   25.1783 N   0  0  0  0  0  0  0  0  0  0  0  0
    9.9303  -16.6218   26.4650 C   0  0  1  0  0  0  0  0  0  0  0  0
    8.8697  -16.0944   27.3565 C   0  0  0  0  0  0  0  0  0  0  0  0
    7.6944  -15.5248   26.6950 C   0  0  0  0  0  0  0  0  0  0  0  0
    6.6356  -16.0872   26.0443 C   0  0  0  0  0  0  0  0  0  0  0  0
    5.8166  -15.0994   25.6128 N   0  0  0  0  0  0  0  0  0  0  0  0
    6.3024  -13.9183   25.9584 C   0  0  0  0  0  0  0  0  0  0  0  0
    5.8567  -12.6183   25.7585 C   0  0  0  0  0  0  0  0  0  0  0  0
    6.6034  -11.5759   26.2465 C   0  0  0  0  0  0  0  0  0  0  0  0
    7.7691  -11.7935   26.9211 C   0  0  0  0  0  0  0  0  0  0  0  0
    8.2073  -13.0990   27.1166 C   0  0  0  0  0  0  0  0  0  0  0  0
    7.4658  -14.1393   26.6311 C   0  0  0  0  0  0  0  0  0  0  0  0
   10.6268  -17.7650   27.1713 C   0  0  0  0  0  0  0  0  0  0  0  0
   10.5644  -18.8988   26.6797 O   0  0  0  0  0  0  0  0  0  0  0  0
   11.3244  -17.5557   28.3500 O   0  0  0  0  0  0  0  0  0  0  0  0
  2  3  1  0
  2  1  1  0
  4  5  1  0
  4  3  1  0
  5  6  1  6
  5  7  1  0
  7  8  2  0
  9  7  1  0
  9 10  1  0
 11 10  1  0
 11 12  2  0
 13 11  1  0
 14 13  1  0
 14 15  1  1
 16 17  2  0
 16 15  1  0
 18 17  1  0
 19 24  2  0
 19 18  1  0
 20 19  1  0
 21 22  1  0
 21 20  2  0
 22 23  2  0
 23 24  1  0
 24 16  1  0
 25 14  1  0
 26 25  2  0
 27 25  1  0
M  END
$$$$
