MGW.pdb
     RDKit          3D

 27 28  0  0  1  0  0  0  0  0999 V2000
   10.8040  -21.3493   23.8316 C   0  0  0  0  0  0  0  0  0  0  0  0
   10.1242  -22.3995   22.5491 S   0  0  0  0  0  0  0  0  0  0  0  0
    8.4098  -22.0672   22.1570 C   0  0  0  0  0  0  0  0  0  0  0  0
    7.9961  -20.6301   22.4069 C   0  0  0  0  0  0  0  0  0  0  0  0
    7.6161  -20.0146   21.0546 C   0  0  2  0  0  0  0  0  0  0  0  0
    8.7231  -20.2176   20.1658 N   0  0  0  0  0  0  0  0  0  0  0  0
    7.4017  -18.5343   21.2267 C   0  0  0  0  0  0  0  0  0  0  0  0
    6.6190  -18.0969   22.0950 O   0  0  0  0  0  0  0  0  0  0  0  0
    8.0818  -17.5856   20.4108 N   0  0  0  0  0  0  0  0  0  0  0  0
    8.4489  -16.2786   20.8284 C   0  0  0  0  0  0  0  0  0  0  0  0
    9.3491  -16.1546   21.9572 C   0  0  0  0  0  0  0  0  0  0  0  0
   10.5761  -16.3834   21.7626 O   0  0  0  0  0  0  0  0  0  0  0  0
    8.9450  -15.7931   23.2575 N   0  0  0  0  0  0  0  0  0  0  0  0
    9.8944  -15.5617   24.3168 C   0  0  1  0  0  0  0  0  0  0  0  0
    9.5389  -14.5415   25.3320 C   0  0  0  0  0  0  0  0  0  0  0  0
    8.1284  -14.4800   25.7192 C   0  0  0  0  0  0  0  0  0  0  0  0
    7.1806  -15.4410   25.9170 C   0  0  0  0  0  0  0  0  0  0  0  0
    6.0198  -14.8399   26.2695 N   0  0  0  0  0  0  0  0  0  0  0  0
    6.1776  -13.5270   26.3084 C   0  0  0  0  0  0  0  0  0  0  0  0
    5.3144  -12.4801   26.6045 C   0  0  0  0  0  0  0  0  0  0  0  0
    5.7864  -11.1930   26.5530 C   0  0  0  0  0  0  0  0  0  0  0  0
    7.0817  -10.9256   26.2183 C   0  0  0  0  0  0  0  0  0  0  0  0
    7.9388  -11.9805   25.9237 C   0  0  0  0  0  0  0  0  0  0  0  0
    7.4713  -13.2638   25.9736 C   0  0  0  0  0  0  0  0  0  0  0  0
   10.0917  -16.8885   25.0179 C   0  0  0  0  0  0  0  0  0  0  0  0
    9.2925  -17.8068   24.7964 O   0  0  0  0  0  0  0  0  0  0  0  0
   11.1461  -17.0811   25.8960 O   0  0  0  0  0  0  0  0  0  0  0  0
  2  3  1  0
  2  1  1  0
  4  5  1  0
  4  3  1  0
  5  6  1  6
  5  7  1  0
  7  8  2  0
  9  7  1  0
  9 10  1  0
 11 10  1  0
 11 12  2  0
 13 11  1  0
 14 13  1  0
 14 15  1  1
 16 17  2  0
 16 15  1  0
 18 17  1  0
 19 24  2  0
 19 18  1  0
 20 19  1  0
 21 22  1  0
 21 20  2  0
 22 23  2  0
 23 24  1  0
 24 16  1  0
 25 14  1  0
 26 25  2  0
 27 25  1  0
M  END
$$$$
