MGW.pdb
     RDKit          3D

 27 28  0  0  1  0  0  0  0  0999 V2000
    6.5307  -19.9400   24.9501 C   0  0  0  0  0  0  0  0  0  0  0  0
    5.4453  -20.0805   23.5316 S   0  0  0  0  0  0  0  0  0  0  0  0
    6.1918  -19.5869   21.9815 C   0  0  0  0  0  0  0  0  0  0  0  0
    6.5804  -18.1221   21.9326 C   0  0  0  0  0  0  0  0  0  0  0  0
    7.3301  -17.8845   20.6159 C   0  0  2  0  0  0  0  0  0  0  0  0
    7.3998  -19.1421   19.9301 N   0  0  0  0  0  0  0  0  0  0  0  0
    8.7308  -17.4231   20.9196 C   0  0  0  0  0  0  0  0  0  0  0  0
    9.6747  -18.2375   20.9800 O   0  0  0  0  0  0  0  0  0  0  0  0
    9.0273  -16.0486   21.1455 N   0  0  0  0  0  0  0  0  0  0  0  0
   10.3025  -15.5499   21.5230 C   0  0  0  0  0  0  0  0  0  0  0  0
   10.6851  -15.6507   22.9171 C   0  0  0  0  0  0  0  0  0  0  0  0
   11.7624  -15.0971   23.2759 O   0  0  0  0  0  0  0  0  0  0  0  0
    9.9324  -16.3245   23.8991 N   0  0  0  0  0  0  0  0  0  0  0  0
   10.2805  -16.2755   25.2967 C   0  0  1  0  0  0  0  0  0  0  0  0
    9.1735  -16.4085   26.2739 C   0  0  0  0  0  0  0  0  0  0  0  0
    7.9080  -15.7706   25.9068 C   0  0  0  0  0  0  0  0  0  0  0  0
    6.7385  -16.2582   25.4015 C   0  0  0  0  0  0  0  0  0  0  0  0
    5.8726  -15.2299   25.2410 N   0  0  0  0  0  0  0  0  0  0  0  0
    6.4344  -14.0946   25.6228 C   0  0  0  0  0  0  0  0  0  0  0  0
    5.9833  -12.7815   25.6554 C   0  0  0  0  0  0  0  0  0  0  0  0
    6.8250  -11.7994   26.1128 C   0  0  0  0  0  0  0  0  0  0  0  0
    8.0898  -12.0892   26.5341 C   0  0  0  0  0  0  0  0  0  0  0  0
    8.5327  -13.4072   26.4980 C   0  0  0  0  0  0  0  0  0  0  0  0
    7.6966  -14.3875   26.0422 C   0  0  0  0  0  0  0  0  0  0  0  0
   11.2692  -17.3962   25.5355 C   0  0  0  0  0  0  0  0  0  0  0  0
   11.5059  -18.1909   24.6171 O   0  0  0  0  0  0  0  0  0  0  0  0
   11.9032  -17.5391   26.7593 O   0  0  0  0  0  0  0  0  0  0  0  0
  2  3  1  0
  2  1  1  0
  4  5  1  0
  4  3  1  0
  5  6  1  1
  5  7  1  0
  7  8  2  0
  9  7  1  0
  9 10  1  0
 11 10  1  0
 11 12  2  0
 13 11  1  0
 14 13  1  0
 14 15  1  1
 16 17  2  0
 16 15  1  0
 18 17  1  0
 19 24  2  0
 19 18  1  0
 20 19  1  0
 21 22  1  0
 21 20  2  0
 22 23  2  0
 23 24  1  0
 24 16  1  0
 25 14  1  0
 26 25  2  0
 27 25  1  0
M  END
$$$$
