MGW.pdb
     RDKit          3D

 27 28  0  0  1  0  0  0  0  0999 V2000
    7.9825  -12.6978   17.8150 C   0  0  0  0  0  0  0  0  0  0  0  0
    6.7284  -12.9359   19.0720 S   0  0  0  0  0  0  0  0  0  0  0  0
    6.9567  -14.4030   20.0715 C   0  0  0  0  0  0  0  0  0  0  0  0
    8.0954  -15.2875   19.6025 C   0  0  0  0  0  0  0  0  0  0  0  0
    8.2697  -16.4069   20.6362 C   0  0  2  0  0  0  0  0  0  0  0  0
    6.9614  -16.8939   20.9645 N   0  0  0  0  0  0  0  0  0  0  0  0
    8.8986  -15.8387   21.8806 C   0  0  0  0  0  0  0  0  0  0  0  0
    8.2059  -15.5722   22.8842 O   0  0  0  0  0  0  0  0  0  0  0  0
   10.2984  -15.5882   21.9573 N   0  0  0  0  0  0  0  0  0  0  0  0
   10.9453  -14.9513   23.0497 C   0  0  0  0  0  0  0  0  0  0  0  0
   11.1335  -15.7157   24.2663 C   0  0  0  0  0  0  0  0  0  0  0  0
   12.3149  -15.8892   24.6786 O   0  0  0  0  0  0  0  0  0  0  0  0
   10.0841  -16.2763   25.0208 N   0  0  0  0  0  0  0  0  0  0  0  0
   10.2480  -16.6421   26.4051 C   0  0  1  0  0  0  0  0  0  0  0  0
    9.2821  -16.0710   27.3740 C   0  0  0  0  0  0  0  0  0  0  0  0
    8.0794  -15.4615   26.8037 C   0  0  0  0  0  0  0  0  0  0  0  0
    7.0363  -15.9692   26.0859 C   0  0  0  0  0  0  0  0  0  0  0  0
    6.1759  -14.9639   25.8000 N   0  0  0  0  0  0  0  0  0  0  0  0
    6.6197  -13.8242   26.3044 C   0  0  0  0  0  0  0  0  0  0  0  0
    6.1227  -12.5274   26.2895 C   0  0  0  0  0  0  0  0  0  0  0  0
    6.8339  -11.5345   26.9143 C   0  0  0  0  0  0  0  0  0  0  0  0
    8.0137  -11.7979   27.5466 C   0  0  0  0  0  0  0  0  0  0  0  0
    8.5034  -13.0996   27.5565 C   0  0  0  0  0  0  0  0  0  0  0  0
    7.7974  -14.0907   26.9344 C   0  0  0  0  0  0  0  0  0  0  0  0
   10.1550  -18.1515   26.4672 C   0  0  0  0  0  0  0  0  0  0  0  0
    9.7617  -18.7682   25.4691 O   0  0  0  0  0  0  0  0  0  0  0  0
   10.5011  -18.8404   27.6185 O   0  0  0  0  0  0  0  0  0  0  0  0
  2  3  1  0
  2  1  1  0
  4  5  1  0
  4  3  1  0
  5  6  1  1
  5  7  1  0
  7  8  2  0
  9  7  1  0
  9 10  1  0
 11 10  1  0
 11 12  2  0
 13 11  1  0
 14 13  1  0
 14 15  1  1
 16 17  2  0
 16 15  1  0
 18 17  1  0
 19 24  2  0
 19 18  1  0
 20 19  1  0
 21 22  1  0
 21 20  2  0
 22 23  2  0
 23 24  1  0
 24 16  1  0
 25 14  1  0
 26 25  2  0
 27 25  1  0
M  END
$$$$
