MGW.pdb
     RDKit          3D

 27 28  0  0  1  0  0  0  0  0999 V2000
    0.2208  -20.6203   21.6442 C   0  0  0  0  0  0  0  0  0  0  0  0
    1.3539  -19.2885   21.2541 S   0  0  0  0  0  0  0  0  0  0  0  0
    2.9395  -19.8310   20.6255 C   0  0  0  0  0  0  0  0  0  0  0  0
    3.9085  -18.6960   20.3578 C   0  0  0  0  0  0  0  0  0  0  0  0
    5.1251  -18.8997   21.2691 C   0  0  2  0  0  0  0  0  0  0  0  0
    4.6774  -18.7417   22.6224 N   0  0  0  0  0  0  0  0  0  0  0  0
    6.1493  -17.8364   20.9732 C   0  0  0  0  0  0  0  0  0  0  0  0
    7.1063  -18.0647   20.2052 O   0  0  0  0  0  0  0  0  0  0  0  0
    6.0621  -16.5392   21.5542 N   0  0  0  0  0  0  0  0  0  0  0  0
    6.9708  -15.4779   21.2984 C   0  0  0  0  0  0  0  0  0  0  0  0
    8.1074  -15.3292   22.1851 C   0  0  0  0  0  0  0  0  0  0  0  0
    8.8886  -14.3565   21.9866 O   0  0  0  0  0  0  0  0  0  0  0  0
    8.3966  -16.1979   23.2559 N   0  0  0  0  0  0  0  0  0  0  0  0
    9.5460  -16.0094   24.1046 C   0  0  1  0  0  0  0  0  0  0  0  0
    9.2971  -15.5120   25.4788 C   0  0  0  0  0  0  0  0  0  0  0  0
    7.9400  -15.0396   25.7586 C   0  0  0  0  0  0  0  0  0  0  0  0
    6.7248  -15.6594   25.7517 C   0  0  0  0  0  0  0  0  0  0  0  0
    5.7746  -14.7558   26.0885 N   0  0  0  0  0  0  0  0  0  0  0  0
    6.3258  -13.5743   26.3139 C   0  0  0  0  0  0  0  0  0  0  0  0
    5.8011  -12.3410   26.6777 C   0  0  0  0  0  0  0  0  0  0  0  0
    6.6512  -11.2759   26.8350 C   0  0  0  0  0  0  0  0  0  0  0  0
    7.9954  -11.4070   26.6417 C   0  0  0  0  0  0  0  0  0  0  0  0
    8.5117  -12.6461   26.2779 C   0  0  0  0  0  0  0  0  0  0  0  0
    7.6671  -13.7089   26.1199 C   0  0  0  0  0  0  0  0  0  0  0  0
   10.2392  -17.3516   24.1978 C   0  0  0  0  0  0  0  0  0  0  0  0
   11.3750  -17.4057   24.6858 O   0  0  0  0  0  0  0  0  0  0  0  0
    9.6210  -18.5063   23.7457 O   0  0  0  0  0  0  0  0  0  0  0  0
  2  3  1  0
  2  1  1  0
  4  5  1  0
  4  3  1  0
  5  6  1  1
  5  7  1  0
  7  8  2  0
  9  7  1  0
  9 10  1  0
 11 10  1  0
 11 12  2  0
 13 11  1  0
 14 13  1  0
 14 15  1  1
 16 17  2  0
 16 15  1  0
 18 17  1  0
 19 24  2  0
 19 18  1  0
 20 19  1  0
 21 22  1  0
 21 20  2  0
 22 23  2  0
 23 24  1  0
 24 16  1  0
 25 14  1  0
 26 25  2  0
 27 25  1  0
M  END
$$$$
