VMM.pdb
     RDKit          3D

 24 23  0  0  1  0  0  0  0  0999 V2000
   19.1877   -9.2803  -20.9956 C   0  0  0  0  0  0  0  0  0  0  0  0
   20.4650  -10.0446  -21.1690 C   0  0  2  0  0  0  0  0  0  0  0  0
   20.4899  -10.6247  -22.5595 C   0  0  0  0  0  0  0  0  0  0  0  0
   20.6144  -11.1447  -20.1575 C   0  0  2  0  0  0  0  0  0  0  0  0
   19.4893  -12.0454  -20.2675 N   0  0  0  0  0  0  0  0  0  0  0  0
   20.7111  -10.6326  -18.7705 C   0  0  0  0  0  0  0  0  0  0  0  0
   19.6608  -10.3726  -18.1279 O   0  0  0  0  0  0  0  0  0  0  0  0
   22.2697   -9.9814  -11.9883 C   0  0  0  0  0  0  0  0  0  0  0  0
   22.1627  -10.6699  -13.6769 S   0  0  0  0  0  0  0  0  0  0  0  0
   23.4424   -9.8411  -14.6668 C   0  0  0  0  0  0  0  0  0  0  0  0
   23.3336  -10.3623  -16.0703 C   0  0  0  0  0  0  0  0  0  0  0  0
   22.1166   -9.8499  -16.8043 C   0  0  2  0  0  0  0  0  0  0  0  0
   21.9520  -10.4144  -18.1116 N   0  0  0  0  0  0  0  0  0  0  0  0
   22.2362   -8.3629  -16.8439 C   0  0  0  0  0  0  0  0  0  0  0  0
   23.0352   -7.8359  -17.6611 O   0  0  0  0  0  0  0  0  0  0  0  0
   19.2611   -1.4484  -17.9252 C   0  0  0  0  0  0  0  0  0  0  0  0
   19.1565   -3.2488  -17.8773 S   0  0  0  0  0  0  0  0  0  0  0  0
   20.4559   -3.9863  -16.9141 C   0  0  0  0  0  0  0  0  0  0  0  0
   20.4931   -5.4620  -16.8055 C   0  0  0  0  0  0  0  0  0  0  0  0
   21.6234   -6.0248  -16.0588 C   0  0  2  0  0  0  0  0  0  0  0  0
   21.4915   -7.5097  -16.0026 N   0  0  0  0  0  0  0  0  0  0  0  0
   21.7535   -5.5611  -14.6866 C   0  0  0  0  0  0  0  0  0  0  0  0
   21.2498   -6.3060  -13.7546 O   0  0  0  0  0  0  0  0  0  0  0  0
   22.3568   -4.4178  -14.2182 O   0  0  0  0  0  0  0  0  0  0  0  0
  2  1  1  1
  2  4  1  0
  3  2  1  0
  4  5  1  1
  4  6  1  0
  6  7  2  0
  9  8  1  0
 10  9  1  0
 12 11  1  6
 11 10  1  0
 12 14  1  0
 13  6  1  0
 13 12  1  0
 14 15  2  0
 16 17  1  0
 17 18  1  0
 18 19  1  0
 20 19  1  1
 20 22  1  0
 21 20  1  0
 21 14  1  0
 22 23  2  0
 22 24  1  0
M  END
$$$$
