VMM.pdb
     RDKit          3D

 24 23  0  0  1  0  0  0  0  0999 V2000
   13.8939  -10.3613  -10.7457 C   0  0  0  0  0  0  0  0  0  0  0  0
   14.6047  -10.4135  -12.0640 C   0  0  2  0  0  0  0  0  0  0  0  0
   13.9425  -11.4596  -12.9229 C   0  0  0  0  0  0  0  0  0  0  0  0
   16.0650  -10.7306  -11.9136 C   0  0  2  0  0  0  0  0  0  0  0  0
   16.2068  -12.0049  -11.2466 N   0  0  0  0  0  0  0  0  0  0  0  0
   16.7987   -9.6872  -11.1595 C   0  0  0  0  0  0  0  0  0  0  0  0
   16.9327   -9.7978   -9.9132 O   0  0  0  0  0  0  0  0  0  0  0  0
   20.5181   -4.6822  -13.7155 C   0  0  0  0  0  0  0  0  0  0  0  0
   21.2364   -5.1687  -12.1080 S   0  0  0  0  0  0  0  0  0  0  0  0
   19.8644   -5.7664  -11.0761 C   0  0  0  0  0  0  0  0  0  0  0  0
   19.1823   -6.8708  -11.8301 C   0  0  0  0  0  0  0  0  0  0  0  0
   17.9913   -7.4449  -11.0992 C   0  0  2  0  0  0  0  0  0  0  0  0
   17.3720   -8.5437  -11.7803 N   0  0  0  0  0  0  0  0  0  0  0  0
   17.0426   -6.3150  -10.8744 C   0  0  0  0  0  0  0  0  0  0  0  0
   16.3604   -5.8885  -11.8421 O   0  0  0  0  0  0  0  0  0  0  0  0
   12.0155   -2.9917   -5.8079 C   0  0  0  0  0  0  0  0  0  0  0  0
   13.2332   -4.2712   -6.1752 S   0  0  0  0  0  0  0  0  0  0  0  0
   14.1014   -3.9754   -7.6979 C   0  0  0  0  0  0  0  0  0  0  0  0
   15.1382   -4.9477   -8.1107 C   0  0  0  0  0  0  0  0  0  0  0  0
   15.8189   -4.6643   -9.3790 C   0  0  2  0  0  0  0  0  0  0  0  0
   16.8708   -5.6945   -9.6191 N   0  0  0  0  0  0  0  0  0  0  0  0
   16.4732   -3.3679   -9.4563 C   0  0  0  0  0  0  0  0  0  0  0  0
   17.7533   -3.3331   -9.2638 O   0  0  0  0  0  0  0  0  0  0  0  0
   15.9174   -2.1379   -9.7186 O   0  0  0  0  0  0  0  0  0  0  0  0
  2  1  1  1
  2  4  1  0
  3  2  1  0
  4  5  1  1
  4  6  1  0
  6  7  2  0
  9  8  1  0
 10  9  1  0
 12 11  1  6
 11 10  1  0
 12 14  1  0
 13  6  1  0
 13 12  1  0
 14 15  2  0
 16 17  1  0
 17 18  1  0
 18 19  1  0
 20 19  1  1
 20 22  1  0
 21 20  1  0
 21 14  1  0
 22 23  2  0
 22 24  1  0
M  END
$$$$
