VMM.pdb
     RDKit          3D

 24 23  0  0  1  0  0  0  0  0999 V2000
   23.9283  -20.0580  -15.4413 C   0  0  0  0  0  0  0  0  0  0  0  0
   23.8272  -20.5851  -14.0421 C   0  0  2  0  0  0  0  0  0  0  0  0
   22.9075  -19.6854  -13.2578 C   0  0  0  0  0  0  0  0  0  0  0  0
   25.1642  -20.6610  -13.3621 C   0  0  2  0  0  0  0  0  0  0  0  0
   26.0320  -21.5341  -14.1195 N   0  0  0  0  0  0  0  0  0  0  0  0
   25.0649  -21.1442  -11.9649 C   0  0  0  0  0  0  0  0  0  0  0  0
   24.8022  -22.3544  -11.7416 O   0  0  0  0  0  0  0  0  0  0  0  0
   28.7357  -19.6144   -6.7859 C   0  0  0  0  0  0  0  0  0  0  0  0
   27.0550  -19.3325   -6.1281 S   0  0  0  0  0  0  0  0  0  0  0  0
   25.9255  -20.3697   -7.1041 C   0  0  0  0  0  0  0  0  0  0  0  0
   25.9477  -19.8557   -8.5143 C   0  0  0  0  0  0  0  0  0  0  0  0
   25.1222  -20.6893   -9.4662 C   0  0  2  0  0  0  0  0  0  0  0  0
   25.2543  -20.2972  -10.8386 N   0  0  0  0  0  0  0  0  0  0  0  0
   23.7100  -20.6081   -8.9907 C   0  0  0  0  0  0  0  0  0  0  0  0
   23.0534  -19.5558   -9.2037 O   0  0  0  0  0  0  0  0  0  0  0  0
   19.7227  -25.8419   -8.3463 C   0  0  0  0  0  0  0  0  0  0  0  0
   18.9355  -24.6474   -7.2471 S   0  0  0  0  0  0  0  0  0  0  0  0
   19.6750  -23.0338   -7.3448 C   0  0  0  0  0  0  0  0  0  0  0  0
   21.0965  -22.9404   -7.7463 C   0  0  0  0  0  0  0  0  0  0  0  0
   21.6375  -21.5844   -7.8908 C   0  0  2  0  0  0  0  0  0  0  0  0
   23.0678  -21.6621   -8.3073 N   0  0  0  0  0  0  0  0  0  0  0  0
   21.5923  -20.7668   -6.6890 C   0  0  0  0  0  0  0  0  0  0  0  0
   20.6120  -19.9284   -6.5740 O   0  0  0  0  0  0  0  0  0  0  0  0
   22.4591  -20.7573   -5.6216 O   0  0  0  0  0  0  0  0  0  0  0  0
  2  1  1  6
  2  4  1  0
  3  2  1  0
  4  5  1  6
  4  6  1  0
  6  7  2  0
  9  8  1  0
 10  9  1  0
 12 11  1  1
 11 10  1  0
 12 14  1  0
 13  6  1  0
 13 12  1  0
 14 15  2  0
 16 17  1  0
 17 18  1  0
 18 19  1  0
 20 19  1  1
 20 22  1  0
 21 20  1  0
 21 14  1  0
 22 23  2  0
 22 24  1  0
M  END
$$$$
