VMM.pdb
     RDKit          3D

 24 23  0  0  1  0  0  0  0  0999 V2000
   27.8807  -16.6665  -17.3129 C   0  0  0  0  0  0  0  0  0  0  0  0
   27.3055  -17.1093  -16.0018 C   0  0  2  0  0  0  0  0  0  0  0  0
   28.2120  -18.1586  -15.4122 C   0  0  0  0  0  0  0  0  0  0  0  0
   25.9160  -17.6614  -16.1447 C   0  0  2  0  0  0  0  0  0  0  0  0
   25.0833  -16.6828  -16.8065 N   0  0  0  0  0  0  0  0  0  0  0  0
   25.3143  -18.0310  -14.8421 C   0  0  0  0  0  0  0  0  0  0  0  0
   24.8882  -17.1294  -14.0746 O   0  0  0  0  0  0  0  0  0  0  0  0
   20.6742  -21.5047  -13.9111 C   0  0  0  0  0  0  0  0  0  0  0  0
   21.0723  -20.9224  -12.2261 S   0  0  0  0  0  0  0  0  0  0  0  0
   22.8595  -21.1606  -11.9940 C   0  0  0  0  0  0  0  0  0  0  0  0
   23.5306  -20.8266  -13.2945 C   0  0  0  0  0  0  0  0  0  0  0  0
   24.6299  -19.8001  -13.1522 C   0  0  2  0  0  0  0  0  0  0  0  0
   25.1891  -19.3774  -14.4026 N   0  0  0  0  0  0  0  0  0  0  0  0
   25.6571  -20.3967  -12.2488 C   0  0  0  0  0  0  0  0  0  0  0  0
   26.1706  -21.5040  -12.5550 O   0  0  0  0  0  0  0  0  0  0  0  0
   28.2969  -17.7561   -6.5023 C   0  0  0  0  0  0  0  0  0  0  0  0
   27.4420  -19.2799   -6.0531 S   0  0  0  0  0  0  0  0  0  0  0  0
   27.1103  -20.3199   -7.4562 C   0  0  0  0  0  0  0  0  0  0  0  0
   26.7054  -19.6731   -8.7244 C   0  0  0  0  0  0  0  0  0  0  0  0
   26.5880  -20.5567   -9.8895 C   0  0  2  0  0  0  0  0  0  0  0  0
   26.0854  -19.7755  -11.0568 N   0  0  0  0  0  0  0  0  0  0  0  0
   25.6906  -21.6887   -9.7222 C   0  0  0  0  0  0  0  0  0  0  0  0
   26.0722  -22.8290  -10.2031 O   0  0  0  0  0  0  0  0  0  0  0  0
   24.4631  -21.7297   -9.1039 O   0  0  0  0  0  0  0  0  0  0  0  0
  2  1  1  6
  2  4  1  0
  3  2  1  0
  4  5  1  1
  4  6  1  0
  6  7  2  0
  9  8  1  0
 10  9  1  0
 12 11  1  6
 11 10  1  0
 12 14  1  0
 13  6  1  0
 13 12  1  0
 14 15  2  0
 16 17  1  0
 17 18  1  0
 18 19  1  0
 20 19  1  1
 20 22  1  0
 21 20  1  0
 21 14  1  0
 22 23  2  0
 22 24  1  0
M  END
$$$$
