VMM.pdb
     RDKit          3D

 24 23  0  0  1  0  0  0  0  0999 V2000
   26.0261  -21.8283  -18.3145 C   0  0  0  0  0  0  0  0  0  0  0  0
   24.7261  -22.3988  -17.8347 C   0  0  2  0  0  0  0  0  0  0  0  0
   23.6689  -22.1164  -18.8706 C   0  0  0  0  0  0  0  0  0  0  0  0
   24.3051  -21.8272  -16.5112 C   0  0  2  0  0  0  0  0  0  0  0  0
   24.0105  -20.4216  -16.6744 N   0  0  0  0  0  0  0  0  0  0  0  0
   25.3362  -22.0034  -15.4618 C   0  0  0  0  0  0  0  0  0  0  0  0
   25.6133  -23.1593  -15.0489 O   0  0  0  0  0  0  0  0  0  0  0  0
   31.1516  -21.7432  -11.6104 C   0  0  0  0  0  0  0  0  0  0  0  0
   29.9044  -21.5755  -12.9345 S   0  0  0  0  0  0  0  0  0  0  0  0
   28.9205  -20.0965  -12.5484 C   0  0  0  0  0  0  0  0  0  0  0  0
   27.9367  -19.9062  -13.6661 C   0  0  0  0  0  0  0  0  0  0  0  0
   26.8794  -20.9839  -13.7202 C   0  0  2  0  0  0  0  0  0  0  0  0
   26.0450  -20.9147  -14.8837 N   0  0  0  0  0  0  0  0  0  0  0  0
   26.0934  -20.8752  -12.4562 C   0  0  0  0  0  0  0  0  0  0  0  0
   25.1423  -20.0532  -12.3972 O   0  0  0  0  0  0  0  0  0  0  0  0
   26.9290  -18.0425   -6.6388 C   0  0  0  0  0  0  0  0  0  0  0  0
   26.9155  -19.8381   -6.4647 S   0  0  0  0  0  0  0  0  0  0  0  0
   25.9141  -20.6393   -7.6958 C   0  0  0  0  0  0  0  0  0  0  0  0
   26.5139  -20.8971   -9.0241 C   0  0  0  0  0  0  0  0  0  0  0  0
   25.6206  -21.4771  -10.0329 C   0  0  2  0  0  0  0  0  0  0  0  0
   26.3659  -21.6553  -11.3128 N   0  0  0  0  0  0  0  0  0  0  0  0
   24.4373  -20.6897  -10.3405 C   0  0  0  0  0  0  0  0  0  0  0  0
   23.3353  -21.0087   -9.7396 O   0  0  0  0  0  0  0  0  0  0  0  0
   24.3139  -19.6198  -11.1954 O   0  0  0  0  0  0  0  0  0  0  0  0
  2  1  1  6
  2  4  1  0
  3  2  1  0
  4  5  1  6
  4  6  1  0
  6  7  2  0
  9  8  1  0
 10  9  1  0
 12 11  1  6
 11 10  1  0
 12 14  1  0
 13  6  1  0
 13 12  1  0
 14 15  2  0
 16 17  1  0
 17 18  1  0
 18 19  1  0
 20 19  1  1
 20 22  1  0
 21 20  1  0
 21 14  1  0
 22 23  2  0
 22 24  1  0
M  END
$$$$
