VMM.pdb
     RDKit          3D

 24 23  0  0  1  0  0  0  0  0999 V2000
   24.6619  -16.8175  -16.1937 C   0  0  0  0  0  0  0  0  0  0  0  0
   26.0721  -16.3167  -16.1133 C   0  0  2  0  0  0  0  0  0  0  0  0
   26.1894  -15.0800  -16.9660 C   0  0  0  0  0  0  0  0  0  0  0  0
   27.0697  -17.3431  -16.5681 C   0  0  2  0  0  0  0  0  0  0  0  0
   26.7759  -17.7171  -17.9329 N   0  0  0  0  0  0  0  0  0  0  0  0
   27.0753  -18.5504  -15.7090 C   0  0  0  0  0  0  0  0  0  0  0  0
   26.2869  -19.4981  -15.9616 O   0  0  0  0  0  0  0  0  0  0  0  0
   30.8368  -22.7364  -10.1435 C   0  0  0  0  0  0  0  0  0  0  0  0
   30.8590  -21.2678  -11.2296 S   0  0  0  0  0  0  0  0  0  0  0  0
   29.1876  -21.0998  -11.9242 C   0  0  0  0  0  0  0  0  0  0  0  0
   29.2179  -19.9585  -12.8988 C   0  0  0  0  0  0  0  0  0  0  0  0
   27.9241  -19.7898  -13.6603 C   0  0  2  0  0  0  0  0  0  0  0  0
   27.9412  -18.6999  -14.5912 N   0  0  0  0  0  0  0  0  0  0  0  0
   26.8443  -19.6427  -12.6407 C   0  0  0  0  0  0  0  0  0  0  0  0
   26.7157  -18.5435  -12.0415 O   0  0  0  0  0  0  0  0  0  0  0  0
   19.5216  -21.3716  -10.4172 C   0  0  0  0  0  0  0  0  0  0  0  0
   20.8757  -21.5951  -11.5882 S   0  0  0  0  0  0  0  0  0  0  0  0
   22.4222  -20.9666  -10.9771 C   0  0  0  0  0  0  0  0  0  0  0  0
   23.6025  -21.0298  -11.8679 C   0  0  0  0  0  0  0  0  0  0  0  0
   24.8565  -20.5072  -11.3142 C   0  0  2  0  0  0  0  0  0  0  0  0
   25.9517  -20.6844  -12.3114 N   0  0  0  0  0  0  0  0  0  0  0  0
   25.3019  -21.1386  -10.0823 C   0  0  0  0  0  0  0  0  0  0  0  0
   26.0748  -22.1724  -10.1871 O   0  0  0  0  0  0  0  0  0  0  0  0
   25.0209  -20.7849   -8.7836 O   0  0  0  0  0  0  0  0  0  0  0  0
  2  1  1  6
  2  4  1  0
  3  2  1  0
  4  5  1  6
  4  6  1  0
  6  7  2  0
  9  8  1  0
 10  9  1  0
 12 11  1  1
 11 10  1  0
 12 14  1  0
 13  6  1  0
 13 12  1  0
 14 15  2  0
 16 17  1  0
 17 18  1  0
 18 19  1  0
 20 19  1  6
 20 22  1  0
 21 20  1  0
 21 14  1  0
 22 23  2  0
 22 24  1  0
M  END
$$$$
