VMM.pdb
     RDKit          3D

 24 23  0  0  1  0  0  0  0  0999 V2000
   22.6486  -18.9584  -16.8641 C   0  0  0  0  0  0  0  0  0  0  0  0
   22.9903  -18.5829  -15.4541 C   0  0  2  0  0  0  0  0  0  0  0  0
   23.7304  -17.2705  -15.4750 C   0  0  0  0  0  0  0  0  0  0  0  0
   23.8273  -19.6266  -14.7717 C   0  0  2  0  0  0  0  0  0  0  0  0
   23.2178  -20.9229  -14.9641 N   0  0  0  0  0  0  0  0  0  0  0  0
   23.9951  -19.3632  -13.3232 C   0  0  0  0  0  0  0  0  0  0  0  0
   24.5788  -18.3146  -12.9445 O   0  0  0  0  0  0  0  0  0  0  0  0
   20.2895  -21.9887   -8.7886 C   0  0  0  0  0  0  0  0  0  0  0  0
   21.7912  -21.8617   -7.7563 S   0  0  0  0  0  0  0  0  0  0  0  0
   22.9146  -20.7073   -8.5987 C   0  0  0  0  0  0  0  0  0  0  0  0
   22.8398  -20.9991  -10.0693 C   0  0  0  0  0  0  0  0  0  0  0  0
   23.7019  -20.0813  -10.9041 C   0  0  2  0  0  0  0  0  0  0  0  0
   23.5226  -20.2490  -12.3164 N   0  0  0  0  0  0  0  0  0  0  0  0
   25.1135  -20.3211  -10.4832 C   0  0  0  0  0  0  0  0  0  0  0  0
   25.7977  -21.1780  -11.1007 O   0  0  0  0  0  0  0  0  0  0  0  0
   27.6520  -18.0564   -4.7619 C   0  0  0  0  0  0  0  0  0  0  0  0
   29.1011  -18.7965   -5.5410 S   0  0  0  0  0  0  0  0  0  0  0  0
   28.7418  -19.4932   -7.1365 C   0  0  0  0  0  0  0  0  0  0  0  0
   27.3704  -19.3411   -7.6720 C   0  0  0  0  0  0  0  0  0  0  0  0
   27.1424  -19.8726   -9.0202 C   0  0  2  0  0  0  0  0  0  0  0  0
   25.7253  -19.6286   -9.4171 N   0  0  0  0  0  0  0  0  0  0  0  0
   27.3839  -21.2983   -9.1745 C   0  0  0  0  0  0  0  0  0  0  0  0
   26.4217  -22.1044   -8.8561 O   0  0  0  0  0  0  0  0  0  0  0  0
   28.5145  -21.9353   -9.6290 O   0  0  0  0  0  0  0  0  0  0  0  0
  2  1  1  6
  2  4  1  0
  3  2  1  0
  4  5  1  1
  4  6  1  0
  6  7  2  0
  9  8  1  0
 10  9  1  0
 12 11  1  1
 11 10  1  0
 12 14  1  0
 13  6  1  0
 13 12  1  0
 14 15  2  0
 16 17  1  0
 17 18  1  0
 18 19  1  0
 20 19  1  1
 20 22  1  0
 21 20  1  0
 21 14  1  0
 22 23  2  0
 22 24  1  0
M  END
$$$$
