VMM.pdb
     RDKit          3D

 24 23  0  0  1  0  0  0  0  0999 V2000
   20.7430  -10.7575    6.9187 C   0  0  0  0  0  0  0  0  0  0  0  0
   19.8716  -11.9757    6.9684 C   0  0  2  0  0  0  0  0  0  0  0  0
   20.7519  -13.1861    7.1438 C   0  0  0  0  0  0  0  0  0  0  0  0
   19.0358  -12.1313    5.7303 C   0  0  2  0  0  0  0  0  0  0  0  0
   18.0969  -11.0354    5.6517 N   0  0  0  0  0  0  0  0  0  0  0  0
   18.3046  -13.4196    5.6960 C   0  0  0  0  0  0  0  0  0  0  0  0
   17.4727  -13.6878    6.6013 O   0  0  0  0  0  0  0  0  0  0  0  0
   16.4404  -19.8064    1.3711 C   0  0  0  0  0  0  0  0  0  0  0  0
   17.5211  -18.3427    1.5338 S   0  0  0  0  0  0  0  0  0  0  0  0
   17.1212  -17.5659    3.1278 C   0  0  0  0  0  0  0  0  0  0  0  0
   17.9895  -16.3492    3.2660 C   0  0  0  0  0  0  0  0  0  0  0  0
   17.8591  -15.6729    4.6105 C   0  0  2  0  0  0  0  0  0  0  0  0
   18.4954  -14.3900    4.6744 N   0  0  0  0  0  0  0  0  0  0  0  0
   18.4063  -16.6239    5.6221 C   0  0  0  0  0  0  0  0  0  0  0  0
   19.6534  -16.7111    5.7665 O   0  0  0  0  0  0  0  0  0  0  0  0
   16.8353  -16.8112   11.7930 C   0  0  0  0  0  0  0  0  0  0  0  0
   18.2329  -17.9313   11.5761 S   0  0  0  0  0  0  0  0  0  0  0  0
   18.3025  -18.6336    9.9445 C   0  0  0  0  0  0  0  0  0  0  0  0
   17.9802  -17.7600    8.7940 C   0  0  0  0  0  0  0  0  0  0  0  0
   18.1522  -18.3558    7.4645 C   0  0  2  0  0  0  0  0  0  0  0  0
   17.5877  -17.4385    6.4324 N   0  0  0  0  0  0  0  0  0  0  0  0
   17.5119  -19.6477    7.2756 C   0  0  0  0  0  0  0  0  0  0  0  0
   16.3676  -19.6638    6.6693 O   0  0  0  0  0  0  0  0  0  0  0  0
   17.9590  -20.8928    7.6506 O   0  0  0  0  0  0  0  0  0  0  0  0
  2  1  1  6
  2  4  1  0
  3  2  1  0
  4  5  1  1
  4  6  1  0
  6  7  2  0
  9  8  1  0
 10  9  1  0
 12 11  1  6
 11 10  1  0
 12 14  1  0
 13  6  1  0
 13 12  1  0
 14 15  2  0
 16 17  1  0
 17 18  1  0
 18 19  1  0
 20 19  1  1
 20 22  1  0
 21 20  1  0
 21 14  1  0
 22 23  2  0
 22 24  1  0
M  END
$$$$
