VMM.pdb
     RDKit          3D

 24 23  0  0  1  0  0  0  0  0999 V2000
   17.5036  -14.8762  -15.9412 C   0  0  0  0  0  0  0  0  0  0  0  0
   18.3699  -13.7558  -16.4314 C   0  0  2  0  0  0  0  0  0  0  0  0
   18.9270  -13.0250  -15.2373 C   0  0  0  0  0  0  0  0  0  0  0  0
   17.6197  -12.7956  -17.3093 C   0  0  2  0  0  0  0  0  0  0  0  0
   17.1025  -13.5072  -18.4561 N   0  0  0  0  0  0  0  0  0  0  0  0
   18.4607  -11.6626  -17.7615 C   0  0  0  0  0  0  0  0  0  0  0  0
   19.4144  -11.8728  -18.5552 O   0  0  0  0  0  0  0  0  0  0  0  0
   18.0115   -4.7565  -18.4403 C   0  0  0  0  0  0  0  0  0  0  0  0
   16.7127   -6.0105  -18.7192 S   0  0  0  0  0  0  0  0  0  0  0  0
   17.5564   -7.6074  -18.9247 C   0  0  0  0  0  0  0  0  0  0  0  0
   18.3195   -7.8792  -17.6608 C   0  0  0  0  0  0  0  0  0  0  0  0
   19.0608   -9.1953  -17.6829 C   0  0  2  0  0  0  0  0  0  0  0  0
   18.2445  -10.3223  -17.3390 N   0  0  0  0  0  0  0  0  0  0  0  0
   20.2276   -9.0439  -16.7648 C   0  0  0  0  0  0  0  0  0  0  0  0
   20.0534   -9.1882  -15.5268 O   0  0  0  0  0  0  0  0  0  0  0  0
   27.5445  -10.8558  -15.0409 C   0  0  0  0  0  0  0  0  0  0  0  0
   26.1197  -10.9517  -16.1435 S   0  0  0  0  0  0  0  0  0  0  0  0
   24.9112   -9.6903  -15.8144 C   0  0  0  0  0  0  0  0  0  0  0  0
   23.6514   -9.7107  -16.5910 C   0  0  0  0  0  0  0  0  0  0  0  0
   22.6918   -8.6425  -16.2907 C   0  0  2  0  0  0  0  0  0  0  0  0
   21.5289   -8.7439  -17.2195 N   0  0  0  0  0  0  0  0  0  0  0  0
   23.2111   -7.2896  -16.4116 C   0  0  0  0  0  0  0  0  0  0  0  0
   23.6951   -6.7385  -15.3443 O   0  0  0  0  0  0  0  0  0  0  0  0
   23.2723   -6.4878  -17.5271 O   0  0  0  0  0  0  0  0  0  0  0  0
  2  1  1  1
  2  4  1  0
  3  2  1  0
  4  5  1  6
  4  6  1  0
  6  7  2  0
  9  8  1  0
 10  9  1  0
 12 11  1  1
 11 10  1  0
 12 14  1  0
 13  6  1  0
 13 12  1  0
 14 15  2  0
 16 17  1  0
 17 18  1  0
 18 19  1  0
 20 19  1  6
 20 22  1  0
 21 20  1  0
 21 14  1  0
 22 23  2  0
 22 24  1  0
M  END
$$$$
