VMM.pdb
     RDKit          3D

 24 23  0  0  1  0  0  0  0  0999 V2000
   29.1285  -18.2634  -16.0108 C   0  0  0  0  0  0  0  0  0  0  0  0
   28.2757  -18.2958  -14.7789 C   0  0  2  0  0  0  0  0  0  0  0  0
   28.8916  -19.2580  -13.7964 C   0  0  0  0  0  0  0  0  0  0  0  0
   26.8616  -18.7074  -15.0736 C   0  0  2  0  0  0  0  0  0  0  0  0
   26.3022  -17.8090  -16.0580 N   0  0  0  0  0  0  0  0  0  0  0  0
   26.0079  -18.7164  -13.8626 C   0  0  0  0  0  0  0  0  0  0  0  0
   25.7044  -17.6291  -13.3065 O   0  0  0  0  0  0  0  0  0  0  0  0
   20.0084  -20.6768  -12.6447 C   0  0  0  0  0  0  0  0  0  0  0  0
   21.0156  -21.6501  -11.4721 S   0  0  0  0  0  0  0  0  0  0  0  0
   22.4923  -20.6591  -11.0959 C   0  0  0  0  0  0  0  0  0  0  0  0
   23.3988  -20.7310  -12.2902 C   0  0  0  0  0  0  0  0  0  0  0  0
   24.7016  -19.9913  -12.0956 C   0  0  2  0  0  0  0  0  0  0  0  0
   25.5019  -19.9117  -13.2822 N   0  0  0  0  0  0  0  0  0  0  0  0
   25.4176  -20.6738  -10.9781 C   0  0  0  0  0  0  0  0  0  0  0  0
   25.8676  -21.8349  -11.1600 O   0  0  0  0  0  0  0  0  0  0  0  0
   28.7671  -17.9525   -6.0208 C   0  0  0  0  0  0  0  0  0  0  0  0
   28.2803  -19.5231   -5.2784 S   0  0  0  0  0  0  0  0  0  0  0  0
   27.3743  -20.5614   -6.4014 C   0  0  0  0  0  0  0  0  0  0  0  0
   26.9024  -19.9694   -7.6732 C   0  0  0  0  0  0  0  0  0  0  0  0
   26.1119  -20.8503   -8.5399 C   0  0  2  0  0  0  0  0  0  0  0  0
   25.6171  -20.0768   -9.7156 N   0  0  0  0  0  0  0  0  0  0  0  0
   24.9474  -21.4555   -7.9133 C   0  0  0  0  0  0  0  0  0  0  0  0
   23.7911  -20.9332   -8.1725 O   0  0  0  0  0  0  0  0  0  0  0  0
   24.8907  -22.5374   -7.0665 O   0  0  0  0  0  0  0  0  0  0  0  0
  2  1  1  6
  2  4  1  0
  3  2  1  0
  4  5  1  6
  4  6  1  0
  6  7  2  0
  9  8  1  0
 10  9  1  0
 12 11  1  6
 11 10  1  0
 12 14  1  0
 13  6  1  0
 13 12  1  0
 14 15  2  0
 16 17  1  0
 17 18  1  0
 18 19  1  0
 20 19  1  1
 20 22  1  0
 21 20  1  0
 21 14  1  0
 22 23  2  0
 22 24  1  0
M  END
$$$$
