VMM.pdb
     RDKit          3D

 24 23  0  0  1  0  0  0  0  0999 V2000
   15.5019  -14.3395  -17.0908 C   0  0  0  0  0  0  0  0  0  0  0  0
   16.9744  -14.5988  -16.9879 C   0  0  2  0  0  0  0  0  0  0  0  0
   17.1832  -16.0648  -16.7093 C   0  0  0  0  0  0  0  0  0  0  0  0
   17.6248  -13.7798  -15.9099 C   0  0  2  0  0  0  0  0  0  0  0  0
   17.1117  -14.1957  -14.6243 N   0  0  0  0  0  0  0  0  0  0  0  0
   17.4044  -12.3256  -16.0895 C   0  0  0  0  0  0  0  0  0  0  0  0
   18.0055  -11.7137  -17.0103 O   0  0  0  0  0  0  0  0  0  0  0  0
   12.9954   -7.1912  -13.0438 C   0  0  0  0  0  0  0  0  0  0  0  0
   12.8724   -8.0066  -14.6738 S   0  0  0  0  0  0  0  0  0  0  0  0
   14.5722   -8.3174  -15.2380 C   0  0  0  0  0  0  0  0  0  0  0  0
   14.8766   -9.7634  -14.9743 C   0  0  0  0  0  0  0  0  0  0  0  0
   16.2755  -10.1625  -15.3819 C   0  0  2  0  0  0  0  0  0  0  0  0
   16.5323  -11.5676  -15.2610 N   0  0  0  0  0  0  0  0  0  0  0  0
   17.2111   -9.3458  -14.5544 C   0  0  0  0  0  0  0  0  0  0  0  0
   17.4750   -9.7199  -13.3821 O   0  0  0  0  0  0  0  0  0  0  0  0
   22.4704  -10.5902  -14.4525 C   0  0  0  0  0  0  0  0  0  0  0  0
   22.7942   -8.9749  -13.7171 S   0  0  0  0  0  0  0  0  0  0  0  0
   21.3668   -7.9155  -13.7322 C   0  0  0  0  0  0  0  0  0  0  0  0
   20.1126   -8.4420  -14.3157 C   0  0  0  0  0  0  0  0  0  0  0  0
   18.9678   -7.5247  -14.3171 C   0  0  2  0  0  0  0  0  0  0  0  0
   17.8204   -8.1635  -15.0248 N   0  0  0  0  0  0  0  0  0  0  0  0
   19.2003   -6.2427  -14.9630 C   0  0  0  0  0  0  0  0  0  0  0  0
   18.6620   -6.0539  -16.1256 O   0  0  0  0  0  0  0  0  0  0  0  0
   19.9231   -5.1667  -14.5044 O   0  0  0  0  0  0  0  0  0  0  0  0
  2  1  1  1
  2  4  1  0
  3  2  1  0
  4  5  1  1
  4  6  1  0
  6  7  2  0
  9  8  1  0
 10  9  1  0
 12 11  1  1
 11 10  1  0
 12 14  1  0
 13  6  1  0
 13 12  1  0
 14 15  2  0
 16 17  1  0
 17 18  1  0
 18 19  1  0
 20 19  1  6
 20 22  1  0
 21 20  1  0
 21 14  1  0
 22 23  2  0
 22 24  1  0
M  END
$$$$
