VMM.pdb
     RDKit          3D

 24 23  0  0  1  0  0  0  0  0999 V2000
   28.4706  -17.6096  -17.0701 C   0  0  0  0  0  0  0  0  0  0  0  0
   27.7474  -18.7409  -16.4044 C   0  0  2  0  0  0  0  0  0  0  0  0
   27.2627  -19.6907  -17.4690 C   0  0  0  0  0  0  0  0  0  0  0  0
   26.5853  -18.2688  -15.5784 C   0  0  2  0  0  0  0  0  0  0  0  0
   27.0274  -17.2089  -14.7008 N   0  0  0  0  0  0  0  0  0  0  0  0
   25.9758  -19.3578  -14.7795 C   0  0  0  0  0  0  0  0  0  0  0  0
   25.4451  -20.3373  -15.3646 O   0  0  0  0  0  0  0  0  0  0  0  0
   27.0757  -20.9279   -8.5165 C   0  0  0  0  0  0  0  0  0  0  0  0
   25.2526  -20.8182   -8.4806 S   0  0  0  0  0  0  0  0  0  0  0  0
   24.6779  -21.0211  -10.1931 C   0  0  0  0  0  0  0  0  0  0  0  0
   25.4917  -20.0984  -11.0532 C   0  0  0  0  0  0  0  0  0  0  0  0
   25.2248  -20.2694  -12.5303 C   0  0  2  0  0  0  0  0  0  0  0  0
   25.9575  -19.3566  -13.3578 N   0  0  0  0  0  0  0  0  0  0  0  0
   23.7498  -20.1381  -12.7160 C   0  0  0  0  0  0  0  0  0  0  0  0
   23.2035  -19.0256  -12.4980 O   0  0  0  0  0  0  0  0  0  0  0  0
   20.2343  -23.8522  -16.8812 C   0  0  0  0  0  0  0  0  0  0  0  0
   18.9346  -23.1780  -15.8271 S   0  0  0  0  0  0  0  0  0  0  0  0
   19.5529  -22.0121  -14.6360 C   0  0  0  0  0  0  0  0  0  0  0  0
   20.9958  -22.0474  -14.3084 C   0  0  0  0  0  0  0  0  0  0  0  0
   21.4609  -21.0503  -13.3381 C   0  0  2  0  0  0  0  0  0  0  0  0
   22.9291  -21.2093  -13.1275 N   0  0  0  0  0  0  0  0  0  0  0  0
   20.8368  -21.1221  -12.0265 C   0  0  0  0  0  0  0  0  0  0  0  0
   21.3909  -21.8900  -11.1432 O   0  0  0  0  0  0  0  0  0  0  0  0
   19.7157  -20.4698  -11.5702 O   0  0  0  0  0  0  0  0  0  0  0  0
  2  1  1  6
  2  4  1  0
  3  2  1  0
  4  5  1  1
  4  6  1  0
  6  7  2  0
  9  8  1  0
 10  9  1  0
 12 11  1  1
 11 10  1  0
 12 14  1  0
 13  6  1  0
 13 12  1  0
 14 15  2  0
 16 17  1  0
 17 18  1  0
 18 19  1  0
 20 19  1  6
 20 22  1  0
 21 20  1  0
 21 14  1  0
 22 23  2  0
 22 24  1  0
M  END
$$$$
