VMM.pdb
     RDKit          3D

 24 23  0  0  1  0  0  0  0  0999 V2000
   18.1661  -10.1975  -19.0706 C   0  0  0  0  0  0  0  0  0  0  0  0
   19.3959  -10.4583  -19.8863 C   0  0  2  0  0  0  0  0  0  0  0  0
   18.9751  -11.0227  -21.2185 C   0  0  0  0  0  0  0  0  0  0  0  0
   20.3405  -11.4088  -19.2080 C   0  0  2  0  0  0  0  0  0  0  0  0
   19.6584  -12.6590  -18.9612 N   0  0  0  0  0  0  0  0  0  0  0  0
   20.8727  -10.8698  -17.9346 C   0  0  0  0  0  0  0  0  0  0  0  0
   20.5849  -11.4378  -16.8492 O   0  0  0  0  0  0  0  0  0  0  0  0
   26.7487   -9.8657  -16.6644 C   0  0  0  0  0  0  0  0  0  0  0  0
   25.9750  -10.0482  -15.0197 S   0  0  0  0  0  0  0  0  0  0  0  0
   24.3123   -9.3227  -15.1352 C   0  0  0  0  0  0  0  0  0  0  0  0
   23.7013   -9.8002  -16.4206 C   0  0  0  0  0  0  0  0  0  0  0  0
   22.3368   -9.2096  -16.6879 C   0  0  2  0  0  0  0  0  0  0  0  0
   21.7088   -9.7216  -17.8705 N   0  0  0  0  0  0  0  0  0  0  0  0
   22.5150   -7.7288  -16.7410 C   0  0  0  0  0  0  0  0  0  0  0  0
   23.1482   -7.2241  -17.7043 O   0  0  0  0  0  0  0  0  0  0  0  0
   19.7833   -1.8959  -18.4264 C   0  0  0  0  0  0  0  0  0  0  0  0
   19.4490   -2.4410  -16.7395 S   0  0  0  0  0  0  0  0  0  0  0  0
   20.8366   -3.2687  -15.9981 C   0  0  0  0  0  0  0  0  0  0  0  0
   20.8555   -4.7486  -16.0115 C   0  0  0  0  0  0  0  0  0  0  0  0
   22.1696   -5.3777  -15.8402 C   0  0  2  0  0  0  0  0  0  0  0  0
   22.0044   -6.8579  -15.7556 N   0  0  0  0  0  0  0  0  0  0  0  0
   22.9046   -4.9673  -14.6544 C   0  0  0  0  0  0  0  0  0  0  0  0
   22.8063   -5.7161  -13.6024 O   0  0  0  0  0  0  0  0  0  0  0  0
   23.7185   -3.8724  -14.4826 O   0  0  0  0  0  0  0  0  0  0  0  0
  2  1  1  1
  2  4  1  0
  3  2  1  0
  4  5  1  1
  4  6  1  0
  6  7  2  0
  9  8  1  0
 10  9  1  0
 12 11  1  6
 11 10  1  0
 12 14  1  0
 13  6  1  0
 13 12  1  0
 14 15  2  0
 16 17  1  0
 17 18  1  0
 18 19  1  0
 20 19  1  1
 20 22  1  0
 21 20  1  0
 21 14  1  0
 22 23  2  0
 22 24  1  0
M  END
$$$$
