VMM.pdb
     RDKit          3D

 24 23  0  0  1  0  0  0  0  0999 V2000
   18.5561  -10.7387  -20.0290 C   0  0  0  0  0  0  0  0  0  0  0  0
   20.0211  -10.9868  -19.8346 C   0  0  2  0  0  0  0  0  0  0  0  0
   20.4375  -12.1206  -20.7356 C   0  0  0  0  0  0  0  0  0  0  0  0
   20.3601  -11.3202  -18.4100 C   0  0  2  0  0  0  0  0  0  0  0  0
   19.6472  -12.5157  -18.0207 N   0  0  0  0  0  0  0  0  0  0  0  0
   20.0351  -10.2175  -17.4751 C   0  0  0  0  0  0  0  0  0  0  0  0
   18.8672  -10.1118  -17.0187 O   0  0  0  0  0  0  0  0  0  0  0  0
   21.8256  -10.0770  -11.2533 C   0  0  0  0  0  0  0  0  0  0  0  0
   22.3434   -8.8790  -12.5315 S   0  0  0  0  0  0  0  0  0  0  0  0
   21.1772   -9.0472  -13.9157 C   0  0  0  0  0  0  0  0  0  0  0  0
   21.5957   -8.0723  -14.9777 C   0  0  0  0  0  0  0  0  0  0  0  0
   20.7258   -8.1245  -16.2117 C   0  0  2  0  0  0  0  0  0  0  0  0
   20.9910   -9.2517  -17.0565 N   0  0  0  0  0  0  0  0  0  0  0  0
   20.9183   -6.8280  -16.9254 C   0  0  0  0  0  0  0  0  0  0  0  0
   21.9625   -6.6548  -17.6060 O   0  0  0  0  0  0  0  0  0  0  0  0
   17.3619   -0.9534  -20.7834 C   0  0  0  0  0  0  0  0  0  0  0  0
   17.2163   -2.4049  -19.7220 S   0  0  0  0  0  0  0  0  0  0  0  0
   18.7789   -2.9257  -19.0534 C   0  0  0  0  0  0  0  0  0  0  0  0
   18.8174   -4.1742  -18.2594 C   0  0  0  0  0  0  0  0  0  0  0  0
   20.1227   -4.5422  -17.7001 C   0  0  2  0  0  0  0  0  0  0  0  0
   19.9793   -5.7764  -16.8746 N   0  0  0  0  0  0  0  0  0  0  0  0
   20.7398   -3.5362  -16.8503 C   0  0  0  0  0  0  0  0  0  0  0  0
   21.2273   -2.4846  -17.4279 O   0  0  0  0  0  0  0  0  0  0  0  0
   20.8798   -3.5337  -15.4824 O   0  0  0  0  0  0  0  0  0  0  0  0
  2  1  1  1
  2  4  1  0
  3  2  1  0
  4  5  1  1
  4  6  1  0
  6  7  2  0
  9  8  1  0
 10  9  1  0
 12 11  1  1
 11 10  1  0
 12 14  1  0
 13  6  1  0
 13 12  1  0
 14 15  2  0
 16 17  1  0
 17 18  1  0
 18 19  1  0
 20 19  1  1
 20 22  1  0
 21 20  1  0
 21 14  1  0
 22 23  2  0
 22 24  1  0
M  END
$$$$
