VMM.pdb
     RDKit          3D

 24 23  0  0  1  0  0  0  0  0999 V2000
   18.3227  -10.0657  -17.9650 C   0  0  0  0  0  0  0  0  0  0  0  0
   19.3824  -10.8675  -18.6578 C   0  0  2  0  0  0  0  0  0  0  0  0
   18.7214  -11.7384  -19.6947 C   0  0  0  0  0  0  0  0  0  0  0  0
   20.1679  -11.7213  -17.7041 C   0  0  2  0  0  0  0  0  0  0  0  0
   19.2701  -12.6388  -17.0399 N   0  0  0  0  0  0  0  0  0  0  0  0
   20.9008  -10.9207  -16.6954 C   0  0  0  0  0  0  0  0  0  0  0  0
   20.3345  -10.6105  -15.6153 O   0  0  0  0  0  0  0  0  0  0  0  0
   27.2664   -9.9612  -16.3425 C   0  0  0  0  0  0  0  0  0  0  0  0
   26.6285  -11.4908  -15.5744 S   0  0  0  0  0  0  0  0  0  0  0  0
   24.8319  -11.2811  -15.3938 C   0  0  0  0  0  0  0  0  0  0  0  0
   24.4724   -9.9496  -15.9865 C   0  0  0  0  0  0  0  0  0  0  0  0
   22.9881   -9.6691  -15.9670 C   0  0  2  0  0  0  0  0  0  0  0  0
   22.2373  -10.4742  -16.8851 N   0  0  0  0  0  0  0  0  0  0  0  0
   22.8254   -8.2099  -16.2342 C   0  0  0  0  0  0  0  0  0  0  0  0
   23.0874   -7.7664  -17.3825 O   0  0  0  0  0  0  0  0  0  0  0  0
   17.6507   -3.7311  -15.9153 C   0  0  0  0  0  0  0  0  0  0  0  0
   18.9199   -3.9222  -17.1831 S   0  0  0  0  0  0  0  0  0  0  0  0
   20.5296   -4.2420  -16.5000 C   0  0  0  0  0  0  0  0  0  0  0  0
   20.8755   -5.6384  -16.1519 C   0  0  0  0  0  0  0  0  0  0  0  0
   22.1978   -5.8440  -15.5508 C   0  0  2  0  0  0  0  0  0  0  0  0
   22.3887   -7.2936  -15.2545 N   0  0  0  0  0  0  0  0  0  0  0  0
   22.4336   -5.1254  -14.3087 C   0  0  0  0  0  0  0  0  0  0  0  0
   22.3301   -5.7931  -13.2040 O   0  0  0  0  0  0  0  0  0  0  0  0
   22.7674   -3.8036  -14.1294 O   0  0  0  0  0  0  0  0  0  0  0  0
  2  1  1  1
  2  4  1  0
  3  2  1  0
  4  5  1  1
  4  6  1  0
  6  7  2  0
  9  8  1  0
 10  9  1  0
 12 11  1  6
 11 10  1  0
 12 14  1  0
 13  6  1  0
 13 12  1  0
 14 15  2  0
 16 17  1  0
 17 18  1  0
 18 19  1  0
 20 19  1  1
 20 22  1  0
 21 20  1  0
 21 14  1  0
 22 23  2  0
 22 24  1  0
M  END
$$$$
