FMC.pdb
     RDKit          3D

 26 26  0  0  1  0  0  0  0  0999 V2000
   26.6733  -22.7673  -15.9457 N   0  0  0  0  0  0  0  0  0  0  0  0
   25.6287  -23.7207  -15.6463 C   0  0  1  0  0  0  0  0  0  0  0  0
   26.2190  -24.9719  -15.0734 C   0  0  0  0  0  0  0  0  0  0  0  0
   26.9192  -25.6892  -16.1658 C   0  0  0  0  0  0  0  0  0  0  0  0
   28.2716  -25.4688  -16.3157 C   0  0  0  0  0  0  0  0  0  0  0  0
   29.0151  -26.0891  -17.3034 C   0  0  0  0  0  0  0  0  0  0  0  0
   28.3825  -26.9585  -18.1690 C   0  0  0  0  0  0  0  0  0  0  0  0
   27.0239  -27.2008  -18.0440 C   0  0  0  0  0  0  0  0  0  0  0  0
   26.3074  -26.5602  -17.0399 C   0  0  0  0  0  0  0  0  0  0  0  0
   24.6236  -23.0820  -14.7874 C   0  0  0  0  0  0  0  0  0  0  0  0
   25.0394  -22.3184  -13.8605 O   0  0  0  0  0  0  0  0  0  0  0  0
   21.2149  -18.7839  -16.5424 C   0  0  0  0  0  0  0  0  0  0  0  0
   21.0994  -18.6107  -14.7532 S   0  0  0  0  0  0  0  0  0  0  0  0
   21.2742  -20.2219  -13.9651 C   0  0  0  0  0  0  0  0  0  0  0  0
   22.2423  -21.1485  -14.6078 C   0  0  0  0  0  0  0  0  0  0  0  0
   22.2854  -22.4982  -14.0334 C   0  0  2  0  0  0  0  0  0  0  0  0
   23.2464  -23.2386  -14.8978 N   0  0  0  0  0  0  0  0  0  0  0  0
   21.1207  -23.3347  -13.9583 C   0  0  0  0  0  0  0  0  0  0  0  0
   21.0415  -24.4096  -14.5951 O   0  0  0  0  0  0  0  0  0  0  0  0
   19.9624  -23.0229  -13.1626 N   0  0  0  0  0  0  0  0  0  0  0  0
   18.8441  -23.9179  -13.0057 C   0  0  1  0  0  0  0  0  0  0  0  0
   19.3472  -25.1829  -12.3445 C   0  0  0  0  0  0  0  0  0  0  0  0
   17.9674  -26.3553  -12.2331 S   0  0  0  0  0  0  0  0  0  0  0  0
   17.7438  -23.2983  -12.2305 C   0  0  0  0  0  0  0  0  0  0  0  0
   16.5198  -23.9493  -12.1706 O   0  0  0  0  0  0  0  0  0  0  0  0
   17.9737  -22.2020  -11.6586 O   0  0  0  0  0  0  0  0  0  0  0  0
  2  1  1  1
  3  2  1  0
  3  4  1  0
  4  5  2  0
  5  6  1  0
  7  6  2  0
  8  7  1  0
  9  4  1  0
  9  8  2  0
 10  2  1  0
 10 11  2  0
 12 13  1  0
 14 15  1  0
 14 13  1  0
 16 15  1  6
 16 18  1  0
 16 17  1  0
 17 10  1  0
 18 20  1  0
 19 18  2  0
 20 21  1  0
 21 24  1  0
 21 22  1  1
 23 22  1  0
 24 26  2  0
 24 25  1  0
M  END
$$$$
