FMC.pdb
     RDKit          3D

 26 26  0  0  1  0  0  0  0  0999 V2000
   18.5132   -9.0805  -13.2059 N   0  0  0  0  0  0  0  0  0  0  0  0
   18.7845   -8.4760  -11.9211 C   0  0  1  0  0  0  0  0  0  0  0  0
   20.0343   -7.6541  -11.9895 C   0  0  0  0  0  0  0  0  0  0  0  0
   21.1451   -8.5445  -12.4036 C   0  0  0  0  0  0  0  0  0  0  0  0
   21.8121   -8.2395  -13.5707 C   0  0  0  0  0  0  0  0  0  0  0  0
   22.8616   -9.0069  -14.0428 C   0  0  0  0  0  0  0  0  0  0  0  0
   23.2552  -10.1161  -13.3216 C   0  0  0  0  0  0  0  0  0  0  0  0
   22.6044  -10.4490  -12.1444 C   0  0  0  0  0  0  0  0  0  0  0  0
   21.5536   -9.6553  -11.6993 C   0  0  0  0  0  0  0  0  0  0  0  0
   17.5990   -7.7319  -11.4775 C   0  0  0  0  0  0  0  0  0  0  0  0
   16.8959   -7.1581  -12.3672 O   0  0  0  0  0  0  0  0  0  0  0  0
   12.9935  -10.0860   -8.1745 C   0  0  0  0  0  0  0  0  0  0  0  0
   12.9964   -8.4807   -7.3572 S   0  0  0  0  0  0  0  0  0  0  0  0
   13.9448   -7.2958   -8.3288 C   0  0  0  0  0  0  0  0  0  0  0  0
   15.2352   -7.7968   -8.8697 C   0  0  0  0  0  0  0  0  0  0  0  0
   15.9166   -6.8849   -9.7957 C   0  0  2  0  0  0  0  0  0  0  0  0
   17.1727   -7.5974  -10.1609 N   0  0  0  0  0  0  0  0  0  0  0  0
   16.3286   -5.5659   -9.4052 C   0  0  0  0  0  0  0  0  0  0  0  0
   17.3147   -5.3802   -8.6566 O   0  0  0  0  0  0  0  0  0  0  0  0
   15.6619   -4.3621   -9.8276 N   0  0  0  0  0  0  0  0  0  0  0  0
   16.0439   -3.0462   -9.3818 C   0  0  1  0  0  0  0  0  0  0  0  0
   16.2725   -2.1861  -10.6059 C   0  0  0  0  0  0  0  0  0  0  0  0
   16.4837   -0.4679  -10.0640 S   0  0  0  0  0  0  0  0  0  0  0  0
   15.0301   -2.4515   -8.4796 C   0  0  0  0  0  0  0  0  0  0  0  0
   15.4536   -1.6073   -7.4630 O   0  0  0  0  0  0  0  0  0  0  0  0
   13.8230   -2.7428   -8.6799 O   0  0  0  0  0  0  0  0  0  0  0  0
  2  1  1  6
  3  2  1  0
  3  4  1  0
  4  5  2  0
  5  6  1  0
  7  6  2  0
  8  7  1  0
  9  4  1  0
  9  8  2  0
 10  2  1  0
 10 11  2  0
 12 13  1  0
 14 15  1  0
 14 13  1  0
 16 15  1  1
 16 18  1  0
 16 17  1  0
 17 10  1  0
 18 20  1  0
 19 18  2  0
 20 21  1  0
 21 24  1  0
 21 22  1  6
 23 22  1  0
 24 26  2  0
 24 25  1  0
M  END
$$$$
