FMC.pdb
     RDKit          3D

 26 26  0  0  1  0  0  0  0  0999 V2000
   27.9933  -21.2234   -8.3780 N   0  0  0  0  0  0  0  0  0  0  0  0
   26.7658  -20.4799   -8.2042 C   0  0  1  0  0  0  0  0  0  0  0  0
   27.0515  -19.1470   -7.5846 C   0  0  0  0  0  0  0  0  0  0  0  0
   27.7732  -19.3802   -6.3106 C   0  0  0  0  0  0  0  0  0  0  0  0
   27.4715  -20.5227   -5.6010 C   0  0  0  0  0  0  0  0  0  0  0  0
   28.0885  -20.8311   -4.4021 C   0  0  0  0  0  0  0  0  0  0  0  0
   29.0388  -19.9661   -3.8982 C   0  0  0  0  0  0  0  0  0  0  0  0
   29.3640  -18.8092   -4.5882 C   0  0  0  0  0  0  0  0  0  0  0  0
   28.7241  -18.5306   -5.7902 C   0  0  0  0  0  0  0  0  0  0  0  0
   26.0595  -20.4066   -9.4894 C   0  0  0  0  0  0  0  0  0  0  0  0
   25.1669  -19.5117   -9.6215 O   0  0  0  0  0  0  0  0  0  0  0  0
   28.8147  -19.3511  -14.3020 C   0  0  0  0  0  0  0  0  0  0  0  0
   27.2031  -19.7601  -14.9952 S   0  0  0  0  0  0  0  0  0  0  0  0
   26.6046  -21.3080  -14.2928 C   0  0  0  0  0  0  0  0  0  0  0  0
   26.8460  -21.4876  -12.8374 C   0  0  0  0  0  0  0  0  0  0  0  0
   25.8404  -20.8761  -11.9608 C   0  0  2  0  0  0  0  0  0  0  0  0
   26.2812  -21.2350  -10.5839 N   0  0  0  0  0  0  0  0  0  0  0  0
   24.4521  -21.2379  -12.0211 C   0  0  0  0  0  0  0  0  0  0  0  0
   24.0232  -22.2879  -11.4911 O   0  0  0  0  0  0  0  0  0  0  0  0
   23.4474  -20.4460  -12.6810 N   0  0  0  0  0  0  0  0  0  0  0  0
   22.0720  -20.8564  -12.8085 C   0  0  1  0  0  0  0  0  0  0  0  0
   21.2055  -19.7909  -12.1727 C   0  0  0  0  0  0  0  0  0  0  0  0
   19.4708  -20.2961  -12.3334 S   0  0  0  0  0  0  0  0  0  0  0  0
   21.6943  -21.0946  -14.2213 C   0  0  0  0  0  0  0  0  0  0  0  0
   20.7501  -22.0712  -14.5049 O   0  0  0  0  0  0  0  0  0  0  0  0
   22.2524  -20.3940  -15.1043 O   0  0  0  0  0  0  0  0  0  0  0  0
  2  1  1  6
  3  2  1  0
  3  4  1  0
  4  5  2  0
  5  6  1  0
  7  6  2  0
  8  7  1  0
  9  4  1  0
  9  8  2  0
 10  2  1  0
 10 11  2  0
 12 13  1  0
 14 15  1  0
 14 13  1  0
 16 15  1  6
 16 18  1  0
 16 17  1  0
 17 10  1  0
 18 20  1  0
 19 18  2  0
 20 21  1  0
 21 24  1  0
 21 22  1  6
 23 22  1  0
 24 26  2  0
 24 25  1  0
M  END
$$$$
