FMC.pdb
     RDKit          3D

 26 26  0  0  1  0  0  0  0  0999 V2000
   27.5412  -20.8875  -14.0391 N   0  0  0  0  0  0  0  0  0  0  0  0
   26.9635  -19.8427  -13.2241 C   0  0  1  0  0  0  0  0  0  0  0  0
   25.8837  -19.1333  -13.9811 C   0  0  0  0  0  0  0  0  0  0  0  0
   26.5309  -18.2207  -14.9539 C   0  0  0  0  0  0  0  0  0  0  0  0
   27.1173  -17.0726  -14.4659 C   0  0  0  0  0  0  0  0  0  0  0  0
   27.7461  -16.1575  -15.2907 C   0  0  0  0  0  0  0  0  0  0  0  0
   27.7885  -16.4010  -16.6486 C   0  0  0  0  0  0  0  0  0  0  0  0
   27.2081  -17.5464  -17.1698 C   0  0  0  0  0  0  0  0  0  0  0  0
   26.5845  -18.4446  -16.3117 C   0  0  0  0  0  0  0  0  0  0  0  0
   26.5248  -20.4148  -11.9449 C   0  0  0  0  0  0  0  0  0  0  0  0
   26.1789  -21.6377  -11.9337 O   0  0  0  0  0  0  0  0  0  0  0  0
   27.9069  -19.4979   -5.0635 C   0  0  0  0  0  0  0  0  0  0  0  0
   26.9645  -20.6862   -6.0355 S   0  0  0  0  0  0  0  0  0  0  0  0
   25.7712  -19.8243   -7.0751 C   0  0  0  0  0  0  0  0  0  0  0  0
   26.2579  -19.4379   -8.4251 C   0  0  0  0  0  0  0  0  0  0  0  0
   25.8520  -20.3359   -9.5124 C   0  0  2  0  0  0  0  0  0  0  0  0
   26.4532  -19.7336  -10.7350 N   0  0  0  0  0  0  0  0  0  0  0  0
   24.4729  -20.5641   -9.8409 C   0  0  0  0  0  0  0  0  0  0  0  0
   23.8941  -19.9098  -10.7378 O   0  0  0  0  0  0  0  0  0  0  0  0
   23.6462  -21.5432   -9.1852 N   0  0  0  0  0  0  0  0  0  0  0  0
   22.2404  -21.7043   -9.4578 C   0  0  1  0  0  0  0  0  0  0  0  0
   21.6662  -22.6385   -8.4148 C   0  0  0  0  0  0  0  0  0  0  0  0
   22.0611  -21.9729   -6.7742 S   0  0  0  0  0  0  0  0  0  0  0  0
   21.5281  -20.4053   -9.4772 C   0  0  0  0  0  0  0  0  0  0  0  0
   20.1958  -20.3796   -9.8646 O   0  0  0  0  0  0  0  0  0  0  0  0
   22.1705  -19.3783   -9.1385 O   0  0  0  0  0  0  0  0  0  0  0  0
  2  1  1  6
  3  2  1  0
  3  4  1  0
  4  5  2  0
  5  6  1  0
  7  6  2  0
  8  7  1  0
  9  4  1  0
  9  8  2  0
 10  2  1  0
 10 11  2  0
 12 13  1  0
 14 15  1  0
 14 13  1  0
 16 15  1  1
 16 18  1  0
 16 17  1  0
 17 10  1  0
 18 20  1  0
 19 18  2  0
 20 21  1  0
 21 24  1  0
 21 22  1  1
 23 22  1  0
 24 26  2  0
 24 25  1  0
M  END
$$$$
