FMC.pdb
     RDKit          3D

 26 26  0  0  1  0  0  0  0  0999 V2000
   17.4771  -18.1795    2.0955 N   0  0  0  0  0  0  0  0  0  0  0  0
   16.7269  -18.1975    3.3311 C   0  0  1  0  0  0  0  0  0  0  0  0
   16.4158  -19.6076    3.7270 C   0  0  0  0  0  0  0  0  0  0  0  0
   15.5918  -20.2131    2.6534 C   0  0  0  0  0  0  0  0  0  0  0  0
   16.0684  -21.3536    2.0435 C   0  0  0  0  0  0  0  0  0  0  0  0
   15.3753  -21.9939    1.0321 C   0  0  0  0  0  0  0  0  0  0  0  0
   14.1654  -21.4740    0.6187 C   0  0  0  0  0  0  0  0  0  0  0  0
   13.6596  -20.3285    1.2123 C   0  0  0  0  0  0  0  0  0  0  0  0
   14.3827  -19.7108    2.2260 C   0  0  0  0  0  0  0  0  0  0  0  0
   17.4570  -17.4337    4.3506 C   0  0  0  0  0  0  0  0  0  0  0  0
   18.7088  -17.6295    4.4500 O   0  0  0  0  0  0  0  0  0  0  0  0
   19.1429  -11.0364    4.9949 C   0  0  0  0  0  0  0  0  0  0  0  0
   17.9270  -12.0857    4.1792 S   0  0  0  0  0  0  0  0  0  0  0  0
   18.2089  -13.8110    4.6166 C   0  0  0  0  0  0  0  0  0  0  0  0
   17.4455  -14.3079    5.7909 C   0  0  0  0  0  0  0  0  0  0  0  0
   17.7202  -15.6995    6.1670 C   0  0  2  0  0  0  0  0  0  0  0  0
   16.8977  -16.5079    5.2242 N   0  0  0  0  0  0  0  0  0  0  0  0
   17.4151  -16.2130    7.4728 C   0  0  0  0  0  0  0  0  0  0  0  0
   16.5782  -17.1291    7.6395 O   0  0  0  0  0  0  0  0  0  0  0  0
   18.0283  -15.7339    8.6838 N   0  0  0  0  0  0  0  0  0  0  0  0
   17.9219  -16.4147    9.9493 C   0  0  1  0  0  0  0  0  0  0  0  0
   18.4568  -17.8192    9.7707 C   0  0  0  0  0  0  0  0  0  0  0  0
   18.3793  -18.6666   11.3727 S   0  0  0  0  0  0  0  0  0  0  0  0
   18.6363  -15.6926   11.0280 C   0  0  0  0  0  0  0  0  0  0  0  0
   18.1852  -15.8258   12.3335 O   0  0  0  0  0  0  0  0  0  0  0  0
   19.6264  -14.9869   10.7062 O   0  0  0  0  0  0  0  0  0  0  0  0
  2  1  1  6
  3  2  1  0
  3  4  1  0
  4  5  2  0
  5  6  1  0
  7  6  2  0
  8  7  1  0
  9  4  1  0
  9  8  2  0
 10  2  1  0
 10 11  2  0
 12 13  1  0
 14 15  1  0
 14 13  1  0
 16 15  1  1
 16 18  1  0
 16 17  1  0
 17 10  1  0
 18 20  1  0
 19 18  2  0
 20 21  1  0
 21 24  1  0
 21 22  1  6
 23 22  1  0
 24 26  2  0
 24 25  1  0
M  END
$$$$
