FMC.pdb
     RDKit          3D

 26 26  0  0  1  0  0  0  0  0999 V2000
   25.1364  -17.8175  -15.9373 N   0  0  0  0  0  0  0  0  0  0  0  0
   24.2164  -18.6402  -15.1847 C   0  0  1  0  0  0  0  0  0  0  0  0
   23.1097  -19.1222  -16.0708 C   0  0  0  0  0  0  0  0  0  0  0  0
   22.2844  -17.9505  -16.4503 C   0  0  0  0  0  0  0  0  0  0  0  0
   22.3585  -17.5074  -17.7534 C   0  0  0  0  0  0  0  0  0  0  0  0
   21.6289  -16.4231  -18.2066 C   0  0  0  0  0  0  0  0  0  0  0  0
   20.7981  -15.7617  -17.3250 C   0  0  0  0  0  0  0  0  0  0  0  0
   20.7018  -16.1830  -16.0083 C   0  0  0  0  0  0  0  0  0  0  0  0
   21.4494  -17.2764  -15.5870 C   0  0  0  0  0  0  0  0  0  0  0  0
   24.9634  -19.7138  -14.5174 C   0  0  0  0  0  0  0  0  0  0  0  0
   25.9435  -20.2270  -15.1428 O   0  0  0  0  0  0  0  0  0  0  0  0
   24.6719  -20.7667   -8.2039 C   0  0  0  0  0  0  0  0  0  0  0  0
   26.0132  -19.7666   -8.8712 S   0  0  0  0  0  0  0  0  0  0  0  0
   26.1221  -19.9927  -10.6558 C   0  0  0  0  0  0  0  0  0  0  0  0
   25.3512  -21.1383  -11.2053 C   0  0  0  0  0  0  0  0  0  0  0  0
   25.4809  -21.3368  -12.6535 C   0  0  2  0  0  0  0  0  0  0  0  0
   24.6928  -20.2237  -13.2525 N   0  0  0  0  0  0  0  0  0  0  0  0
   25.0134  -22.5270  -13.3069 C   0  0  0  0  0  0  0  0  0  0  0  0
   23.8436  -22.9453  -13.1520 O   0  0  0  0  0  0  0  0  0  0  0  0
   25.8268  -23.3315  -14.1804 N   0  0  0  0  0  0  0  0  0  0  0  0
   25.2851  -24.3044  -15.0950 C   0  0  1  0  0  0  0  0  0  0  0  0
   24.2395  -23.6153  -15.9449 C   0  0  0  0  0  0  0  0  0  0  0  0
   23.5823  -24.8218  -17.1294 S   0  0  0  0  0  0  0  0  0  0  0  0
   26.3398  -24.9283  -15.9280 C   0  0  0  0  0  0  0  0  0  0  0  0
   26.0904  -26.1650  -16.5058 O   0  0  0  0  0  0  0  0  0  0  0  0
   27.4206  -24.3016  -16.0730 O   0  0  0  0  0  0  0  0  0  0  0  0
  2  1  1  6
  3  2  1  0
  3  4  1  0
  4  5  2  0
  5  6  1  0
  7  6  2  0
  8  7  1  0
  9  4  1  0
  9  8  2  0
 10  2  1  0
 10 11  2  0
 12 13  1  0
 14 15  1  0
 14 13  1  0
 16 15  1  1
 16 18  1  0
 16 17  1  0
 17 10  1  0
 18 20  1  0
 19 18  2  0
 20 21  1  0
 21 24  1  0
 21 22  1  6
 23 22  1  0
 24 26  2  0
 24 25  1  0
M  END
$$$$
