FMC.pdb
     RDKit          3D

 26 26  0  0  1  0  0  0  0  0999 V2000
   25.1897  -14.2939  -19.2455 N   0  0  0  0  0  0  0  0  0  0  0  0
   24.6969  -13.7089  -18.0189 C   0  0  1  0  0  0  0  0  0  0  0  0
   25.8381  -13.3847  -17.1053 C   0  0  0  0  0  0  0  0  0  0  0  0
   26.4379  -14.6624  -16.6514 C   0  0  0  0  0  0  0  0  0  0  0  0
   25.9576  -15.2193  -15.4857 C   0  0  0  0  0  0  0  0  0  0  0  0
   26.4504  -16.4079  -14.9782 C   0  0  0  0  0  0  0  0  0  0  0  0
   27.4573  -17.0594  -15.6614 C   0  0  0  0  0  0  0  0  0  0  0  0
   27.9613  -16.5248  -16.8364 C   0  0  0  0  0  0  0  0  0  0  0  0
   27.4426  -15.3284  -17.3176 C   0  0  0  0  0  0  0  0  0  0  0  0
   23.8400  -12.5610  -18.3415 C   0  0  0  0  0  0  0  0  0  0  0  0
   24.2882  -11.7038  -19.1658 O   0  0  0  0  0  0  0  0  0  0  0  0
   17.5077  -10.1196  -21.4873 C   0  0  0  0  0  0  0  0  0  0  0  0
   18.4953  -11.4430  -20.7673 S   0  0  0  0  0  0  0  0  0  0  0  0
   19.7610  -10.7504  -19.6875 C   0  0  0  0  0  0  0  0  0  0  0  0
   20.7665  -11.7175  -19.1754 C   0  0  0  0  0  0  0  0  0  0  0  0
   21.7432  -11.1582  -18.2338 C   0  0  2  0  0  0  0  0  0  0  0  0
   22.5720  -12.3254  -17.8220 N   0  0  0  0  0  0  0  0  0  0  0  0
   21.3468  -10.5233  -17.0084 C   0  0  0  0  0  0  0  0  0  0  0  0
   21.0042  -11.1885  -16.0046 O   0  0  0  0  0  0  0  0  0  0  0  0
   21.3071   -9.0963  -16.8236 N   0  0  0  0  0  0  0  0  0  0  0  0
   20.7851   -8.4646  -15.6383 C   0  0  1  0  0  0  0  0  0  0  0  0
   21.8696   -7.5781  -15.0651 C   0  0  0  0  0  0  0  0  0  0  0  0
   23.0530   -8.6273  -14.1768 S   0  0  0  0  0  0  0  0  0  0  0  0
   19.5473   -7.6998  -15.9183 C   0  0  0  0  0  0  0  0  0  0  0  0
   18.8509   -7.1433  -14.8548 O   0  0  0  0  0  0  0  0  0  0  0  0
   19.1834   -7.5903  -17.1172 O   0  0  0  0  0  0  0  0  0  0  0  0
  2  1  1  6
  3  2  1  0
  3  4  1  0
  4  5  2  0
  5  6  1  0
  7  6  2  0
  8  7  1  0
  9  4  1  0
  9  8  2  0
 10  2  1  0
 10 11  2  0
 12 13  1  0
 14 15  1  0
 14 13  1  0
 16 15  1  1
 16 18  1  0
 16 17  1  0
 17 10  1  0
 18 20  1  0
 19 18  2  0
 20 21  1  0
 21 24  1  0
 21 22  1  6
 23 22  1  0
 24 26  2  0
 24 25  1  0
M  END
$$$$
