FMC.pdb
     RDKit          3D

 26 26  0  0  1  0  0  0  0  0999 V2000
   26.6828  -21.4080  -14.6755 N   0  0  0  0  0  0  0  0  0  0  0  0
   25.7121  -20.5810  -13.9947 C   0  0  1  0  0  0  0  0  0  0  0  0
   24.4018  -20.6189  -14.7183 C   0  0  0  0  0  0  0  0  0  0  0  0
   24.5069  -19.7318  -15.9017 C   0  0  0  0  0  0  0  0  0  0  0  0
   24.5585  -20.3235  -17.1456 C   0  0  0  0  0  0  0  0  0  0  0  0
   24.6570  -19.5843  -18.3105 C   0  0  0  0  0  0  0  0  0  0  0  0
   24.7053  -18.2075  -18.2259 C   0  0  0  0  0  0  0  0  0  0  0  0
   24.6554  -17.5830  -16.9898 C   0  0  0  0  0  0  0  0  0  0  0  0
   24.5565  -18.3569  -15.8394 C   0  0  0  0  0  0  0  0  0  0  0  0
   25.6334  -20.9887  -12.5863 C   0  0  0  0  0  0  0  0  0  0  0  0
   25.7370  -22.2280  -12.3245 O   0  0  0  0  0  0  0  0  0  0  0  0
   29.0081  -19.6125   -7.6217 C   0  0  0  0  0  0  0  0  0  0  0  0
   27.4285  -19.1240   -6.9065 S   0  0  0  0  0  0  0  0  0  0  0  0
   26.0744  -19.8508   -7.8477 C   0  0  0  0  0  0  0  0  0  0  0  0
   26.1514  -19.6757   -9.3216 C   0  0  0  0  0  0  0  0  0  0  0  0
   25.3538  -20.6281  -10.1028 C   0  0  2  0  0  0  0  0  0  0  0  0
   25.4541  -20.1339  -11.5044 N   0  0  0  0  0  0  0  0  0  0  0  0
   23.9505  -20.8229   -9.8688 C   0  0  0  0  0  0  0  0  0  0  0  0
   23.0867  -20.1000  -10.4152 O   0  0  0  0  0  0  0  0  0  0  0  0
   23.4181  -21.8433   -9.0043 N   0  0  0  0  0  0  0  0  0  0  0  0
   22.0334  -21.9056   -8.6106 C   0  0  1  0  0  0  0  0  0  0  0  0
   21.9824  -22.1847   -7.1240 C   0  0  0  0  0  0  0  0  0  0  0  0
   20.2420  -22.2911   -6.6235 S   0  0  0  0  0  0  0  0  0  0  0  0
   21.3030  -20.6640   -8.9574 C   0  0  0  0  0  0  0  0  0  0  0  0
   21.7927  -19.4501   -8.4970 O   0  0  0  0  0  0  0  0  0  0  0  0
   20.2645  -20.7704   -9.6590 O   0  0  0  0  0  0  0  0  0  0  0  0
  2  1  1  6
  3  2  1  0
  3  4  1  0
  4  5  2  0
  5  6  1  0
  7  6  2  0
  8  7  1  0
  9  4  1  0
  9  8  2  0
 10  2  1  0
 10 11  2  0
 12 13  1  0
 14 15  1  0
 14 13  1  0
 16 15  1  1
 16 18  1  0
 16 17  1  0
 17 10  1  0
 18 20  1  0
 19 18  2  0
 20 21  1  0
 21 24  1  0
 21 22  1  1
 23 22  1  0
 24 26  2  0
 24 25  1  0
M  END
$$$$
