FMC.pdb
     RDKit          3D

 26 26  0  0  1  0  0  0  0  0999 V2000
   21.8813  -14.9212  -19.7088 N   0  0  0  0  0  0  0  0  0  0  0  0
   22.3593  -13.6084  -20.0800 C   0  0  1  0  0  0  0  0  0  0  0  0
   21.4809  -13.0183  -21.1394 C   0  0  0  0  0  0  0  0  0  0  0  0
   21.6241  -13.8424  -22.3636 C   0  0  0  0  0  0  0  0  0  0  0  0
   22.8097  -13.7557  -23.0614 C   0  0  0  0  0  0  0  0  0  0  0  0
   23.0417  -14.4830  -24.2148 C   0  0  0  0  0  0  0  0  0  0  0  0
   22.0532  -15.3244  -24.6840 C   0  0  0  0  0  0  0  0  0  0  0  0
   20.8503  -15.4334  -24.0048 C   0  0  0  0  0  0  0  0  0  0  0  0
   20.6511  -14.6877  -22.8488 C   0  0  0  0  0  0  0  0  0  0  0  0
   22.4849  -12.7812  -18.8734 C   0  0  0  0  0  0  0  0  0  0  0  0
   21.6184  -12.9392  -17.9573 O   0  0  0  0  0  0  0  0  0  0  0  0
   27.1522   -9.9295  -13.4634 C   0  0  0  0  0  0  0  0  0  0  0  0
   26.8537  -10.9548  -14.9142 S   0  0  0  0  0  0  0  0  0  0  0  0
   25.2506  -10.5541  -15.6332 C   0  0  0  0  0  0  0  0  0  0  0  0
   24.8606  -11.3595  -16.8197 C   0  0  0  0  0  0  0  0  0  0  0  0
   23.5429  -11.0402  -17.3815 C   0  0  2  0  0  0  0  0  0  0  0  0
   23.4747  -11.8328  -18.6409 N   0  0  0  0  0  0  0  0  0  0  0  0
   23.1742   -9.7034  -17.7541 C   0  0  0  0  0  0  0  0  0  0  0  0
   23.5264   -9.2053  -18.8473 O   0  0  0  0  0  0  0  0  0  0  0  0
   22.3839   -8.8315  -16.9251 N   0  0  0  0  0  0  0  0  0  0  0  0
   22.1148   -7.4545  -17.2535 C   0  0  1  0  0  0  0  0  0  0  0  0
   20.7257   -7.3791  -17.8494 C   0  0  0  0  0  0  0  0  0  0  0  0
   20.2519   -5.6324  -17.9716 S   0  0  0  0  0  0  0  0  0  0  0  0
   22.2509   -6.5675  -16.0745 C   0  0  0  0  0  0  0  0  0  0  0  0
   22.2642   -5.1938  -16.2699 O   0  0  0  0  0  0  0  0  0  0  0  0
   22.3489   -7.1068  -14.9424 O   0  0  0  0  0  0  0  0  0  0  0  0
  2  1  1  1
  3  2  1  0
  3  4  1  0
  4  5  2  0
  5  6  1  0
  7  6  2  0
  8  7  1  0
  9  4  1  0
  9  8  2  0
 10  2  1  0
 10 11  2  0
 12 13  1  0
 14 15  1  0
 14 13  1  0
 16 15  1  6
 16 18  1  0
 16 17  1  0
 17 10  1  0
 18 20  1  0
 19 18  2  0
 20 21  1  0
 21 24  1  0
 21 22  1  1
 23 22  1  0
 24 26  2  0
 24 25  1  0
M  END
$$$$
