FMC.pdb
     RDKit          3D

 26 26  0  0  1  0  0  0  0  0999 V2000
   20.0580  -12.7349  -18.7187 N   0  0  0  0  0  0  0  0  0  0  0  0
   19.9554  -12.2724  -17.3530 C   0  0  1  0  0  0  0  0  0  0  0  0
   21.1190  -12.7667  -16.5505 C   0  0  0  0  0  0  0  0  0  0  0  0
   20.9367  -14.2213  -16.3287 C   0  0  0  0  0  0  0  0  0  0  0  0
   20.3204  -14.6211  -15.1624 C   0  0  0  0  0  0  0  0  0  0  0  0
   20.1037  -15.9537  -14.8619 C   0  0  0  0  0  0  0  0  0  0  0  0
   20.5182  -16.9168  -15.7596 C   0  0  0  0  0  0  0  0  0  0  0  0
   21.1409  -16.5466  -16.9409 C   0  0  0  0  0  0  0  0  0  0  0  0
   21.3426  -15.1981  -17.2107 C   0  0  0  0  0  0  0  0  0  0  0  0
   19.7983  -10.8125  -17.3480 C   0  0  0  0  0  0  0  0  0  0  0  0
   20.5877  -10.1320  -18.0751 O   0  0  0  0  0  0  0  0  0  0  0  0
   14.5660   -5.1221  -17.4571 C   0  0  0  0  0  0  0  0  0  0  0  0
   14.9601   -6.8581  -17.1816 S   0  0  0  0  0  0  0  0  0  0  0  0
   16.7423   -7.0670  -17.0156 C   0  0  0  0  0  0  0  0  0  0  0  0
   17.2239   -8.4728  -16.9936 C   0  0  0  0  0  0  0  0  0  0  0  0
   18.6649   -8.6324  -16.7662 C   0  0  2  0  0  0  0  0  0  0  0  0
   18.8558  -10.1018  -16.6133 N   0  0  0  0  0  0  0  0  0  0  0  0
   19.3305   -8.0440  -15.6380 C   0  0  0  0  0  0  0  0  0  0  0  0
   19.3385   -8.6002  -14.5164 O   0  0  0  0  0  0  0  0  0  0  0  0
   20.0341   -6.7894  -15.6898 N   0  0  0  0  0  0  0  0  0  0  0  0
   20.5948   -6.1464  -14.5285 C   0  0  1  0  0  0  0  0  0  0  0  0
   22.0310   -5.7861  -14.8416 C   0  0  0  0  0  0  0  0  0  0  0  0
   22.7078   -4.8655  -13.4327 S   0  0  0  0  0  0  0  0  0  0  0  0
   19.8107   -4.9568  -14.1219 C   0  0  0  0  0  0  0  0  0  0  0  0
   19.4853   -4.7970  -12.7824 O   0  0  0  0  0  0  0  0  0  0  0  0
   19.4744   -4.1409  -15.0182 O   0  0  0  0  0  0  0  0  0  0  0  0
  2  1  1  6
  3  2  1  0
  3  4  1  0
  4  5  2  0
  5  6  1  0
  7  6  2  0
  8  7  1  0
  9  4  1  0
  9  8  2  0
 10  2  1  0
 10 11  2  0
 12 13  1  0
 14 15  1  0
 14 13  1  0
 16 15  1  1
 16 18  1  0
 16 17  1  0
 17 10  1  0
 18 20  1  0
 19 18  2  0
 20 21  1  0
 21 24  1  0
 21 22  1  6
 23 22  1  0
 24 26  2  0
 24 25  1  0
M  END
$$$$
