FMC.pdb
     RDKit          3D

 26 26  0  0  1  0  0  0  0  0999 V2000
   20.4205  -20.8080  -12.7637 N   0  0  0  0  0  0  0  0  0  0  0  0
   21.4197  -20.9638  -13.7966 C   0  0  1  0  0  0  0  0  0  0  0  0
   21.0405  -20.1688  -15.0075 C   0  0  0  0  0  0  0  0  0  0  0  0
   20.0638  -20.9644  -15.7895 C   0  0  0  0  0  0  0  0  0  0  0  0
   18.7771  -20.4810  -15.8925 C   0  0  0  0  0  0  0  0  0  0  0  0
   17.7928  -21.1482  -16.5990 C   0  0  0  0  0  0  0  0  0  0  0  0
   18.1085  -22.3384  -17.2224 C   0  0  0  0  0  0  0  0  0  0  0  0
   19.3933  -22.8505  -17.1373 C   0  0  0  0  0  0  0  0  0  0  0  0
   20.3579  -22.1535  -16.4190 C   0  0  0  0  0  0  0  0  0  0  0  0
   22.7393  -20.6289  -13.2465 C   0  0  0  0  0  0  0  0  0  0  0  0
   22.8602  -19.5200  -12.6375 O   0  0  0  0  0  0  0  0  0  0  0  0
   26.4611  -19.8724   -8.3778 C   0  0  0  0  0  0  0  0  0  0  0  0
   25.4140  -20.5437   -9.6808 S   0  0  0  0  0  0  0  0  0  0  0  0
   26.3843  -21.6063  -10.7657 C   0  0  0  0  0  0  0  0  0  0  0  0
   25.7027  -22.0440  -12.0117 C   0  0  0  0  0  0  0  0  0  0  0  0
   25.2142  -20.9566  -12.8675 C   0  0  2  0  0  0  0  0  0  0  0  0
   23.8778  -21.4224  -13.3324 N   0  0  0  0  0  0  0  0  0  0  0  0
   25.9084  -20.5487  -14.0565 C   0  0  0  0  0  0  0  0  0  0  0  0
   25.9198  -21.2593  -15.0872 O   0  0  0  0  0  0  0  0  0  0  0  0
   26.6391  -19.3139  -14.1718 N   0  0  0  0  0  0  0  0  0  0  0  0
   27.4175  -18.9586  -15.3313 C   0  0  1  0  0  0  0  0  0  0  0  0
   28.1437  -17.6659  -15.0284 C   0  0  0  0  0  0  0  0  0  0  0  0
   29.2363  -17.2851  -16.4255 S   0  0  0  0  0  0  0  0  0  0  0  0
   28.3594  -20.0355  -15.7166 C   0  0  0  0  0  0  0  0  0  0  0  0
   28.5158  -20.3364  -17.0622 O   0  0  0  0  0  0  0  0  0  0  0  0
   28.9780  -20.6311  -14.7976 O   0  0  0  0  0  0  0  0  0  0  0  0
  2  1  1  1
  3  2  1  0
  3  4  1  0
  4  5  2  0
  5  6  1  0
  7  6  2  0
  8  7  1  0
  9  4  1  0
  9  8  2  0
 10  2  1  0
 10 11  2  0
 12 13  1  0
 14 15  1  0
 14 13  1  0
 16 15  1  6
 16 18  1  0
 16 17  1  0
 17 10  1  0
 18 20  1  0
 19 18  2  0
 20 21  1  0
 21 24  1  0
 21 22  1  1
 23 22  1  0
 24 26  2  0
 24 25  1  0
M  END
$$$$
