FMC.pdb
     RDKit          3D

 26 26  0  0  1  0  0  0  0  0999 V2000
   23.1178  -10.0297  -14.2560 N   0  0  0  0  0  0  0  0  0  0  0  0
   21.9849   -9.4178  -14.9132 C   0  0  1  0  0  0  0  0  0  0  0  0
   20.8842  -10.4183  -15.0855 C   0  0  0  0  0  0  0  0  0  0  0  0
   21.3081  -11.3907  -16.1214 C   0  0  0  0  0  0  0  0  0  0  0  0
   21.3012  -10.9739  -17.4352 C   0  0  0  0  0  0  0  0  0  0  0  0
   21.6785  -11.8046  -18.4747 C   0  0  0  0  0  0  0  0  0  0  0  0
   22.0757  -13.0950  -18.1880 C   0  0  0  0  0  0  0  0  0  0  0  0
   22.0935  -13.5438  -16.8770 C   0  0  0  0  0  0  0  0  0  0  0  0
   21.7078  -12.6819  -15.8570 C   0  0  0  0  0  0  0  0  0  0  0  0
   21.5911   -8.2119  -14.1738 C   0  0  0  0  0  0  0  0  0  0  0  0
   21.6676   -8.2465  -12.9057 O   0  0  0  0  0  0  0  0  0  0  0  0
   20.4585   -0.4332  -14.5286 C   0  0  0  0  0  0  0  0  0  0  0  0
   20.7748   -1.9736  -15.4073 S   0  0  0  0  0  0  0  0  0  0  0  0
   20.5722   -3.3734  -14.2904 C   0  0  0  0  0  0  0  0  0  0  0  0
   20.9258   -4.7015  -14.8560 C   0  0  0  0  0  0  0  0  0  0  0  0
   20.7982   -5.8276  -13.9237 C   0  0  2  0  0  0  0  0  0  0  0  0
   21.1383   -7.0258  -14.7407 N   0  0  0  0  0  0  0  0  0  0  0  0
   19.5564   -6.1487  -13.2782 C   0  0  0  0  0  0  0  0  0  0  0  0
   18.8102   -7.0590  -13.7049 O   0  0  0  0  0  0  0  0  0  0  0  0
   19.0648   -5.4701  -12.1078 N   0  0  0  0  0  0  0  0  0  0  0  0
   17.8119   -5.7917  -11.4726 C   0  0  1  0  0  0  0  0  0  0  0  0
   17.8789   -7.2308  -11.0090 C   0  0  0  0  0  0  0  0  0  0  0  0
   16.5008   -7.5265   -9.8672 S   0  0  0  0  0  0  0  0  0  0  0  0
   17.5075   -4.8717  -10.3518 C   0  0  0  0  0  0  0  0  0  0  0  0
   18.4149   -3.8673  -10.0466 O   0  0  0  0  0  0  0  0  0  0  0  0
   16.4313   -5.0464   -9.7247 O   0  0  0  0  0  0  0  0  0  0  0  0
  2  1  1  1
  3  2  1  0
  3  4  1  0
  4  5  2  0
  5  6  1  0
  7  6  2  0
  8  7  1  0
  9  4  1  0
  9  8  2  0
 10  2  1  0
 10 11  2  0
 12 13  1  0
 14 15  1  0
 14 13  1  0
 16 15  1  6
 16 18  1  0
 16 17  1  0
 17 10  1  0
 18 20  1  0
 19 18  2  0
 20 21  1  0
 21 24  1  0
 21 22  1  1
 23 22  1  0
 24 26  2  0
 24 25  1  0
M  END
$$$$
