FTD.pdb
     RDKit          3D

 27 27  0  0  1  0  0  0  0  0999 V2000
   18.1600  -17.0365  -19.7604 N   0  0  0  0  0  0  0  0  0  0  0  0
   18.4195  -16.2915  -18.5426 C   0  0  1  0  0  0  0  0  0  0  0  0
   19.8684  -16.4513  -18.1988 C   0  0  0  0  0  0  0  0  0  0  0  0
   20.1520  -17.9117  -18.0104 C   0  0  0  0  0  0  0  0  0  0  0  0
   19.7838  -18.5734  -16.8525 C   0  0  0  0  0  0  0  0  0  0  0  0
   20.0487  -19.9202  -16.6861 C   0  0  0  0  0  0  0  0  0  0  0  0
   20.6880  -20.6435  -17.6701 C   0  0  0  0  0  0  0  0  0  0  0  0
   21.0499  -19.9694  -18.8211 C   0  0  0  0  0  0  0  0  0  0  0  0
   20.7917  -18.6241  -19.0011 C   0  0  0  0  0  0  0  0  0  0  0  0
   18.0910  -14.8475  -18.7121 C   0  0  0  0  0  0  0  0  0  0  0  0
   18.4685  -14.1623  -19.6889 O   0  0  0  0  0  0  0  0  0  0  0  0
   14.9048  -13.6457  -19.1684 C   0  0  0  0  0  0  0  0  0  0  0  0
   15.3379  -12.9269  -17.9356 C   0  0  1  0  0  0  0  0  0  0  0  0
   14.8650  -13.4566  -16.7672 O   0  0  0  0  0  0  0  0  0  0  0  0
   16.8621  -12.8261  -17.8296 C   0  0  2  0  0  0  0  0  0  0  0  0
   17.3084  -14.2049  -17.7179 N   0  0  0  0  0  0  0  0  0  0  0  0
   17.3128  -11.9867  -16.7263 C   0  0  0  0  0  0  0  0  0  0  0  0
   17.7913  -12.4772  -15.6709 O   0  0  0  0  0  0  0  0  0  0  0  0
   17.2263  -10.5781  -16.8087 N   0  0  0  0  0  0  0  0  0  0  0  0
   17.6283   -9.7049  -15.7007 C   0  0  1  0  0  0  0  0  0  0  0  0
   18.8037   -8.8699  -16.0866 C   0  0  0  0  0  0  0  0  0  0  0  0
   19.1754   -7.8885  -15.0587 C   0  0  0  0  0  0  0  0  0  0  0  0
   18.9133   -6.6774  -15.1251 O   0  0  0  0  0  0  0  0  0  0  0  0
   16.4865   -8.8093  -15.3779 C   0  0  0  0  0  0  0  0  0  0  0  0
   16.4325   -8.0881  -14.3568 O   0  0  0  0  0  0  0  0  0  0  0  0
   19.8635   -8.3398  -13.9402 O   0  0  0  0  0  0  0  0  0  0  0  0
   15.4025   -8.7526  -16.2470 O   0  0  0  0  0  0  0  0  0  0  0  0
  2 10  1  0
  2  1  1  6
  3  2  1  0
  4  9  2  0
  4  3  1  0
  5  4  1  0
  6  7  1  0
  6  5  2  0
  7  8  2  0
  8  9  1  0
 10 11  2  0
 13 12  1  6
 13 14  1  0
 15 13  1  0
 16 10  1  0
 15 16  1  1
 17 18  2  0
 17 15  1  0
 19 17  1  0
 20 19  1  0
 20 21  1  6
 22 26  1  0
 22 21  1  0
 23 22  2  0
 24 20  1  0
 24 27  1  0
 25 24  2  0
M  END
$$$$
