FTD.pdb
     RDKit          3D

 27 27  0  0  1  0  0  0  0  0999 V2000
   24.8829  -14.7445  -17.8101 N   0  0  0  0  0  0  0  0  0  0  0  0
   24.0537  -13.6128  -18.1801 C   0  0  1  0  0  0  0  0  0  0  0  0
   22.7276  -14.1371  -18.6380 C   0  0  0  0  0  0  0  0  0  0  0  0
   22.9544  -15.0287  -19.8222 C   0  0  0  0  0  0  0  0  0  0  0  0
   23.3538  -14.5163  -21.0437 C   0  0  0  0  0  0  0  0  0  0  0  0
   23.5609  -15.3449  -22.1310 C   0  0  0  0  0  0  0  0  0  0  0  0
   23.3754  -16.7070  -22.0295 C   0  0  0  0  0  0  0  0  0  0  0  0
   22.9764  -17.2046  -20.8034 C   0  0  0  0  0  0  0  0  0  0  0  0
   22.7657  -16.3887  -19.7084 C   0  0  0  0  0  0  0  0  0  0  0  0
   23.8658  -12.6820  -17.0312 C   0  0  0  0  0  0  0  0  0  0  0  0
   23.5425  -13.0580  -15.8822 O   0  0  0  0  0  0  0  0  0  0  0  0
   26.2508  -10.7796  -15.4710 C   0  0  0  0  0  0  0  0  0  0  0  0
   25.3026   -9.7414  -15.9682 C   0  0  1  0  0  0  0  0  0  0  0  0
   25.6940   -9.1101  -17.1159 O   0  0  0  0  0  0  0  0  0  0  0  0
   23.8949  -10.3016  -16.1897 C   0  0  2  0  0  0  0  0  0  0  0  0
   24.0616  -11.2922  -17.2404 N   0  0  0  0  0  0  0  0  0  0  0  0
   22.9085   -9.2795  -16.5171 C   0  0  0  0  0  0  0  0  0  0  0  0
   22.3496   -9.2322  -17.6435 O   0  0  0  0  0  0  0  0  0  0  0  0
   22.5436   -8.2978  -15.5675 N   0  0  0  0  0  0  0  0  0  0  0  0
   21.5217   -7.2831  -15.8466 C   0  0  1  0  0  0  0  0  0  0  0  0
   20.1958   -7.9230  -16.0920 C   0  0  0  0  0  0  0  0  0  0  0  0
   19.1245   -6.9499  -16.3437 C   0  0  0  0  0  0  0  0  0  0  0  0
   18.4186   -6.4464  -15.4559 O   0  0  0  0  0  0  0  0  0  0  0  0
   21.4150   -6.3936  -14.6603 C   0  0  0  0  0  0  0  0  0  0  0  0
   21.8676   -6.6810  -13.5297 O   0  0  0  0  0  0  0  0  0  0  0  0
   18.8826   -6.5663  -17.6560 O   0  0  0  0  0  0  0  0  0  0  0  0
   20.7787   -5.1639  -14.7899 O   0  0  0  0  0  0  0  0  0  0  0  0
  2 10  1  0
  2  1  1  1
  3  2  1  0
  4  9  2  0
  4  3  1  0
  5  4  1  0
  6  7  1  0
  6  5  2  0
  7  8  2  0
  8  9  1  0
 10 11  2  0
 13 12  1  6
 13 14  1  0
 15 13  1  0
 16 10  1  0
 15 16  1  6
 17 18  2  0
 17 15  1  0
 19 17  1  0
 20 19  1  0
 20 21  1  1
 22 26  1  0
 22 21  1  0
 23 22  2  0
 24 20  1  0
 24 27  1  0
 25 24  2  0
M  END
$$$$
