FTD.pdb
     RDKit          3D

 27 27  0  0  1  0  0  0  0  0999 V2000
   26.0714  -21.1599   -7.6907 N   0  0  0  0  0  0  0  0  0  0  0  0
   26.7477  -20.0738   -8.3749 C   0  0  1  0  0  0  0  0  0  0  0  0
   28.2101  -20.1675   -8.0657 C   0  0  0  0  0  0  0  0  0  0  0  0
   28.4064  -19.8662   -6.6099 C   0  0  0  0  0  0  0  0  0  0  0  0
   28.6307  -20.8745   -5.6895 C   0  0  0  0  0  0  0  0  0  0  0  0
   28.8107  -20.5888   -4.3488 C   0  0  0  0  0  0  0  0  0  0  0  0
   28.7721  -19.2896   -3.8896 C   0  0  0  0  0  0  0  0  0  0  0  0
   28.5473  -18.2929   -4.8203 C   0  0  0  0  0  0  0  0  0  0  0  0
   28.3656  -18.5636   -6.1630 C   0  0  0  0  0  0  0  0  0  0  0  0
   26.5316  -20.1452   -9.8480 C   0  0  0  0  0  0  0  0  0  0  0  0
   27.4628  -20.2144  -10.6812 O   0  0  0  0  0  0  0  0  0  0  0  0
   27.0712  -21.3714  -12.1196 C   0  0  0  0  0  0  0  0  0  0  0  0
   25.5888  -21.4624  -12.2544 C   0  0  1  0  0  0  0  0  0  0  0  0
   25.0210  -22.5365  -11.6275 O   0  0  0  0  0  0  0  0  0  0  0  0
   24.8838  -20.1960  -11.7605 C   0  0  2  0  0  0  0  0  0  0  0  0
   25.2018  -20.1350  -10.3434 N   0  0  0  0  0  0  0  0  0  0  0  0
   23.4507  -20.1882  -12.0270 C   0  0  0  0  0  0  0  0  0  0  0  0
   22.6138  -20.5772  -11.1716 O   0  0  0  0  0  0  0  0  0  0  0  0
   22.9499  -19.7370  -13.2696 N   0  0  0  0  0  0  0  0  0  0  0  0
   21.5162  -19.5385  -13.5081 C   0  0  1  0  0  0  0  0  0  0  0  0
   21.2921  -18.7739  -14.7702 C   0  0  0  0  0  0  0  0  0  0  0  0
   19.8701  -18.5523  -15.0646 C   0  0  0  0  0  0  0  0  0  0  0  0
   19.0732  -18.0109  -14.2823 O   0  0  0  0  0  0  0  0  0  0  0  0
   20.8775  -20.8749  -13.6348 C   0  0  0  0  0  0  0  0  0  0  0  0
   19.6939  -21.1162  -13.3084 O   0  0  0  0  0  0  0  0  0  0  0  0
   19.3820  -18.9734  -16.2944 O   0  0  0  0  0  0  0  0  0  0  0  0
   21.6192  -21.9354  -14.1435 O   0  0  0  0  0  0  0  0  0  0  0  0
  2 10  1  0
  2  1  1  1
  3  2  1  0
  4  9  2  0
  4  3  1  0
  5  4  1  0
  6  7  1  0
  6  5  2  0
  7  8  2  0
  8  9  1  0
 10 11  2  0
 13 12  1  1
 13 14  1  0
 15 13  1  0
 16 10  1  0
 15 16  1  1
 17 18  2  0
 17 15  1  0
 19 17  1  0
 20 19  1  0
 20 21  1  6
 22 26  1  0
 22 21  1  0
 23 22  2  0
 24 20  1  0
 24 27  1  0
 25 24  2  0
M  END
$$$$
