FTD.pdb
     RDKit          3D

 27 27  0  0  1  0  0  0  0  0999 V2000
   24.0760  -12.3856  -16.8299 N   0  0  0  0  0  0  0  0  0  0  0  0
   24.4400  -11.0581  -16.3710 C   0  0  1  0  0  0  0  0  0  0  0  0
   25.7463  -10.6887  -17.0034 C   0  0  0  0  0  0  0  0  0  0  0  0
   26.7732  -11.7026  -16.5956 C   0  0  0  0  0  0  0  0  0  0  0  0
   27.2867  -11.7313  -15.3112 C   0  0  0  0  0  0  0  0  0  0  0  0
   28.2333  -12.6692  -14.9427 C   0  0  0  0  0  0  0  0  0  0  0  0
   28.6934  -13.6041  -15.8451 C   0  0  0  0  0  0  0  0  0  0  0  0
   28.1716  -13.5634  -17.1243 C   0  0  0  0  0  0  0  0  0  0  0  0
   27.2254  -12.6320  -17.5066 C   0  0  0  0  0  0  0  0  0  0  0  0
   23.3965  -10.0566  -16.7318 C   0  0  0  0  0  0  0  0  0  0  0  0
   22.5906  -10.2076  -17.6772 O   0  0  0  0  0  0  0  0  0  0  0  0
   20.6842   -9.7986  -16.6212 C   0  0  0  0  0  0  0  0  0  0  0  0
   20.9673   -8.6311  -15.7375 C   0  0  1  0  0  0  0  0  0  0  0  0
   21.0617   -8.9291  -14.4066 O   0  0  0  0  0  0  0  0  0  0  0  0
   22.2411   -7.8883  -16.1502 C   0  0  2  0  0  0  0  0  0  0  0  0
   23.3031   -8.8640  -15.9686 N   0  0  0  0  0  0  0  0  0  0  0  0
   22.4616   -6.6556  -15.4040 C   0  0  0  0  0  0  0  0  0  0  0  0
   23.0481   -6.6489  -14.2907 O   0  0  0  0  0  0  0  0  0  0  0  0
   22.0188   -5.4138  -15.9141 N   0  0  0  0  0  0  0  0  0  0  0  0
   22.1993   -4.1580  -15.1778 C   0  0  1  0  0  0  0  0  0  0  0  0
   21.8629   -2.9874  -16.0404 C   0  0  0  0  0  0  0  0  0  0  0  0
   21.9700   -1.7029  -15.3357 C   0  0  0  0  0  0  0  0  0  0  0  0
   20.9982   -0.9983  -15.0209 O   0  0  0  0  0  0  0  0  0  0  0  0
   21.2843   -4.1715  -14.0062 C   0  0  0  0  0  0  0  0  0  0  0  0
   20.1858   -4.7704  -13.9856 O   0  0  0  0  0  0  0  0  0  0  0  0
   23.2363   -1.2440  -14.9984 O   0  0  0  0  0  0  0  0  0  0  0  0
   21.6490   -3.4851  -12.8531 O   0  0  0  0  0  0  0  0  0  0  0  0
  2 10  1  0
  2  1  1  6
  3  2  1  0
  4  9  2  0
  4  3  1  0
  5  4  1  0
  6  7  1  0
  6  5  2  0
  7  8  2  0
  8  9  1  0
 10 11  2  0
 13 12  1  6
 13 14  1  0
 15 13  1  0
 16 10  1  0
 15 16  1  1
 17 18  2  0
 17 15  1  0
 19 17  1  0
 20 19  1  0
 20 21  1  6
 22 26  1  0
 22 21  1  0
 23 22  2  0
 24 20  1  0
 24 27  1  0
 25 24  2  0
M  END
$$$$
