FTD.pdb
     RDKit          3D

 27 27  0  0  1  0  0  0  0  0999 V2000
   28.7484  -20.8425   -8.8821 N   0  0  0  0  0  0  0  0  0  0  0  0
   27.3194  -20.6006   -8.9502 C   0  0  1  0  0  0  0  0  0  0  0  0
   27.0232  -19.3437   -8.1916 C   0  0  0  0  0  0  0  0  0  0  0  0
   27.4979  -19.5196   -6.7802 C   0  0  0  0  0  0  0  0  0  0  0  0
   28.5704  -18.7988   -6.2858 C   0  0  0  0  0  0  0  0  0  0  0  0
   29.0024  -18.9665   -4.9831 C   0  0  0  0  0  0  0  0  0  0  0  0
   28.3764  -19.8576   -4.1381 C   0  0  0  0  0  0  0  0  0  0  0  0
   27.3066  -20.5707   -4.6456 C   0  0  0  0  0  0  0  0  0  0  0  0
   26.8641  -20.4134   -5.9450 C   0  0  0  0  0  0  0  0  0  0  0  0
   26.8608  -20.4653  -10.3620 C   0  0  0  0  0  0  0  0  0  0  0  0
   27.6244  -20.1860  -11.3134 O   0  0  0  0  0  0  0  0  0  0  0  0
   25.0639  -22.2457  -13.9837 C   0  0  0  0  0  0  0  0  0  0  0  0
   25.6253  -21.9289  -12.6389 C   0  0  1  0  0  0  0  0  0  0  0  0
   26.9792  -21.7410  -12.6125 O   0  0  0  0  0  0  0  0  0  0  0  0
   24.9622  -20.7005  -12.0096 C   0  0  2  0  0  0  0  0  0  0  0  0
   25.4862  -20.6616  -10.6544 N   0  0  0  0  0  0  0  0  0  0  0  0
   23.5058  -20.7375  -12.0600 C   0  0  0  0  0  0  0  0  0  0  0  0
   22.8296  -21.4118  -11.2405 O   0  0  0  0  0  0  0  0  0  0  0  0
   22.7986  -20.0075  -13.0426 N   0  0  0  0  0  0  0  0  0  0  0  0
   21.3330  -19.9967  -13.1033 C   0  0  1  0  0  0  0  0  0  0  0  0
   20.8561  -19.0764  -14.1772 C   0  0  0  0  0  0  0  0  0  0  0  0
   20.0413  -17.9667  -13.6648 C   0  0  0  0  0  0  0  0  0  0  0  0
   19.7152  -17.8338  -12.4749 O   0  0  0  0  0  0  0  0  0  0  0  0
   20.8712  -21.3758  -13.4108 C   0  0  0  0  0  0  0  0  0  0  0  0
   21.3899  -22.1069  -14.2838 O   0  0  0  0  0  0  0  0  0  0  0  0
   19.6061  -17.0031  -14.5649 O   0  0  0  0  0  0  0  0  0  0  0  0
   19.8009  -21.9069  -12.6994 O   0  0  0  0  0  0  0  0  0  0  0  0
  2 10  1  0
  2  1  1  6
  3  2  1  0
  4  9  2  0
  4  3  1  0
  5  4  1  0
  6  7  1  0
  6  5  2  0
  7  8  2  0
  8  9  1  0
 10 11  2  0
 13 12  1  6
 13 14  1  0
 15 13  1  0
 16 10  1  0
 15 16  1  1
 17 18  2  0
 17 15  1  0
 19 17  1  0
 20 19  1  0
 20 21  1  6
 22 26  1  0
 22 21  1  0
 23 22  2  0
 24 20  1  0
 24 27  1  0
 25 24  2  0
M  END
$$$$
