FTD.pdb
     RDKit          3D

 27 27  0  0  1  0  0  0  0  0999 V2000
   29.2629  -20.5978  -13.8841 N   0  0  0  0  0  0  0  0  0  0  0  0
   28.0521  -20.6755  -13.0883 C   0  0  1  0  0  0  0  0  0  0  0  0
   28.3594  -20.1489  -11.7203 C   0  0  0  0  0  0  0  0  0  0  0  0
   29.4119  -21.0205  -11.1030 C   0  0  0  0  0  0  0  0  0  0  0  0
   30.7577  -20.7291  -11.2365 C   0  0  0  0  0  0  0  0  0  0  0  0
   31.7225  -21.5376  -10.6644 C   0  0  0  0  0  0  0  0  0  0  0  0
   31.3710  -22.6587   -9.9434 C   0  0  0  0  0  0  0  0  0  0  0  0
   30.0231  -22.9373   -9.8183 C   0  0  0  0  0  0  0  0  0  0  0  0
   29.0482  -22.1385  -10.3846 C   0  0  0  0  0  0  0  0  0  0  0  0
   26.9489  -19.8846  -13.7041 C   0  0  0  0  0  0  0  0  0  0  0  0
   26.8840  -18.6358  -13.6580 O   0  0  0  0  0  0  0  0  0  0  0  0
   25.7525  -19.0969  -16.8066 C   0  0  0  0  0  0  0  0  0  0  0  0
   24.6389  -19.9235  -16.2583 C   0  0  1  0  0  0  0  0  0  0  0  0
   24.6058  -21.2132  -16.7107 O   0  0  0  0  0  0  0  0  0  0  0  0
   24.6418  -19.9562  -14.7275 C   0  0  2  0  0  0  0  0  0  0  0  0
   25.9108  -20.5751  -14.3818 N   0  0  0  0  0  0  0  0  0  0  0  0
   23.4924  -20.6500  -14.1597 C   0  0  0  0  0  0  0  0  0  0  0  0
   23.6177  -21.7164  -13.5035 O   0  0  0  0  0  0  0  0  0  0  0  0
   22.1849  -20.1401  -14.3298 N   0  0  0  0  0  0  0  0  0  0  0  0
   21.0065  -20.8090  -13.7679 C   0  0  1  0  0  0  0  0  0  0  0  0
   21.0353  -20.7640  -12.2763 C   0  0  0  0  0  0  0  0  0  0  0  0
   19.8417  -21.3575  -11.6591 C   0  0  0  0  0  0  0  0  0  0  0  0
   18.9251  -21.8998  -12.2959 O   0  0  0  0  0  0  0  0  0  0  0  0
   19.7945  -20.0946  -14.2480 C   0  0  0  0  0  0  0  0  0  0  0  0
   18.6782  -20.6391  -14.4004 O   0  0  0  0  0  0  0  0  0  0  0  0
   19.7275  -21.3113  -10.2760 O   0  0  0  0  0  0  0  0  0  0  0  0
   19.8814  -18.7405  -14.5521 O   0  0  0  0  0  0  0  0  0  0  0  0
  2 10  1  0
  2  1  1  6
  3  2  1  0
  4  9  2  0
  4  3  1  0
  5  4  1  0
  6  7  1  0
  6  5  2  0
  7  8  2  0
  8  9  1  0
 10 11  2  0
 13 12  1  6
 13 14  1  0
 15 13  1  0
 16 10  1  0
 15 16  1  6
 17 18  2  0
 17 15  1  0
 19 17  1  0
 20 19  1  0
 20 21  1  1
 22 26  1  0
 22 21  1  0
 23 22  2  0
 24 20  1  0
 24 27  1  0
 25 24  2  0
M  END
$$$$
