FTD.pdb
     RDKit          3D

 27 27  0  0  1  0  0  0  0  0999 V2000
   24.2703  -10.3791  -17.8146 N   0  0  0  0  0  0  0  0  0  0  0  0
   23.7364   -9.6725  -16.6653 C   0  0  1  0  0  0  0  0  0  0  0  0
   24.7424   -8.6476  -16.2402 C   0  0  0  0  0  0  0  0  0  0  0  0
   26.0839   -9.3111  -16.1474 C   0  0  0  0  0  0  0  0  0  0  0  0
   27.1076   -8.9913  -17.0213 C   0  0  0  0  0  0  0  0  0  0  0  0
   28.3420   -9.6074  -16.9296 C   0  0  0  0  0  0  0  0  0  0  0  0
   28.5888  -10.5592  -15.9636 C   0  0  0  0  0  0  0  0  0  0  0  0
   27.5570  -10.8686  -15.0976 C   0  0  0  0  0  0  0  0  0  0  0  0
   26.3186  -10.2611  -15.1776 C   0  0  0  0  0  0  0  0  0  0  0  0
   22.4405   -9.0118  -16.9911 C   0  0  0  0  0  0  0  0  0  0  0  0
   22.2495   -8.3373  -18.0277 O   0  0  0  0  0  0  0  0  0  0  0  0
   19.0744  -10.8697  -16.4741 C   0  0  0  0  0  0  0  0  0  0  0  0
   19.0664   -9.5784  -15.7281 C   0  0  1  0  0  0  0  0  0  0  0  0
   19.3218   -9.6880  -14.3895 O   0  0  0  0  0  0  0  0  0  0  0  0
   20.0487   -8.5629  -16.3183 C   0  0  2  0  0  0  0  0  0  0  0  0
   21.3582   -9.1487  -16.0836 N   0  0  0  0  0  0  0  0  0  0  0  0
   19.9097   -7.2258  -15.7545 C   0  0  0  0  0  0  0  0  0  0  0  0
   20.6308   -6.8277  -14.8032 O   0  0  0  0  0  0  0  0  0  0  0  0
   18.9493   -6.3231  -16.2655 N   0  0  0  0  0  0  0  0  0  0  0  0
   18.7471   -4.9892  -15.6894 C   0  0  1  0  0  0  0  0  0  0  0  0
   19.1029   -3.9284  -16.6771 C   0  0  0  0  0  0  0  0  0  0  0  0
   18.7196   -2.5801  -16.2375 C   0  0  0  0  0  0  0  0  0  0  0  0
   18.2307   -1.7173  -16.9834 O   0  0  0  0  0  0  0  0  0  0  0  0
   17.3109   -4.8514  -15.3311 C   0  0  0  0  0  0  0  0  0  0  0  0
   16.8381   -3.8754  -14.7070 O   0  0  0  0  0  0  0  0  0  0  0  0
   18.9148   -2.2454  -14.9041 O   0  0  0  0  0  0  0  0  0  0  0  0
   16.4207   -5.8537  -15.7007 O   0  0  0  0  0  0  0  0  0  0  0  0
  2 10  1  0
  2  1  1  6
  3  2  1  0
  4  9  2  0
  4  3  1  0
  5  4  1  0
  6  7  1  0
  6  5  2  0
  7  8  2  0
  8  9  1  0
 10 11  2  0
 13 12  1  6
 13 14  1  0
 15 13  1  0
 16 10  1  0
 15 16  1  1
 17 18  2  0
 17 15  1  0
 19 17  1  0
 20 19  1  0
 20 21  1  6
 22 26  1  0
 22 21  1  0
 23 22  2  0
 24 20  1  0
 24 27  1  0
 25 24  2  0
M  END
$$$$
