FTD.pdb
     RDKit          3D

 27 27  0  0  1  0  0  0  0  0999 V2000
   23.8992  -12.7269  -16.4656 N   0  0  0  0  0  0  0  0  0  0  0  0
   24.2022  -11.3532  -16.1102 C   0  0  1  0  0  0  0  0  0  0  0  0
   25.2768  -10.8604  -17.0296 C   0  0  0  0  0  0  0  0  0  0  0  0
   26.5505  -11.5786  -16.6971 C   0  0  0  0  0  0  0  0  0  0  0  0
   27.3566  -11.1682  -15.6503 C   0  0  0  0  0  0  0  0  0  0  0  0
   28.5296  -11.8355  -15.3497 C   0  0  0  0  0  0  0  0  0  0  0  0
   28.9304  -12.9304  -16.0850 C   0  0  0  0  0  0  0  0  0  0  0  0
   28.1153  -13.3290  -17.1275 C   0  0  0  0  0  0  0  0  0  0  0  0
   26.9406  -12.6718  -17.4393 C   0  0  0  0  0  0  0  0  0  0  0  0
   22.9949  -10.4865  -16.2247 C   0  0  0  0  0  0  0  0  0  0  0  0
   22.0381  -10.7315  -16.9932 O   0  0  0  0  0  0  0  0  0  0  0  0
   19.7578   -7.9327  -14.0519 C   0  0  0  0  0  0  0  0  0  0  0  0
   20.8932   -8.8682  -14.2965 C   0  0  1  0  0  0  0  0  0  0  0  0
   20.5276  -10.1651  -14.5280 O   0  0  0  0  0  0  0  0  0  0  0  0
   21.7811   -8.4100  -15.4567 C   0  0  2  0  0  0  0  0  0  0  0  0
   22.9158   -9.3179  -15.4236 N   0  0  0  0  0  0  0  0  0  0  0  0
   22.1673   -7.0068  -15.3727 C   0  0  0  0  0  0  0  0  0  0  0  0
   23.0905   -6.6163  -14.6120 O   0  0  0  0  0  0  0  0  0  0  0  0
   21.5094   -6.0290  -16.1534 N   0  0  0  0  0  0  0  0  0  0  0  0
   21.8572   -4.6059  -16.0779 C   0  0  1  0  0  0  0  0  0  0  0  0
   21.1324   -3.8292  -17.1263 C   0  0  0  0  0  0  0  0  0  0  0  0
   21.5402   -4.1853  -18.4919 C   0  0  0  0  0  0  0  0  0  0  0  0
   22.7058   -4.4535  -18.8229 O   0  0  0  0  0  0  0  0  0  0  0  0
   21.4543   -4.1002  -14.7393 C   0  0  0  0  0  0  0  0  0  0  0  0
   22.0813   -3.2203  -14.1081 O   0  0  0  0  0  0  0  0  0  0  0  0
   20.5635   -4.2256  -19.4780 O   0  0  0  0  0  0  0  0  0  0  0  0
   20.3166   -4.6205  -14.1321 O   0  0  0  0  0  0  0  0  0  0  0  0
  2 10  1  0
  2  1  1  6
  3  2  1  0
  4  9  2  0
  4  3  1  0
  5  4  1  0
  6  7  1  0
  6  5  2  0
  7  8  2  0
  8  9  1  0
 10 11  2  0
 13 12  1  6
 13 14  1  0
 15 13  1  0
 16 10  1  0
 15 16  1  1
 17 18  2  0
 17 15  1  0
 19 17  1  0
 20 19  1  0
 20 21  1  6
 22 26  1  0
 22 21  1  0
 23 22  2  0
 24 20  1  0
 24 27  1  0
 25 24  2  0
M  END
$$$$
