FTD.pdb
     RDKit          3D

 27 27  0  0  1  0  0  0  0  0999 V2000
   18.8156  -12.1539  -16.3714 N   0  0  0  0  0  0  0  0  0  0  0  0
   19.2068  -10.8767  -16.9381 C   0  0  1  0  0  0  0  0  0  0  0  0
   18.0967  -10.4005  -17.8236 C   0  0  0  0  0  0  0  0  0  0  0  0
   17.9238  -11.3881  -18.9387 C   0  0  0  0  0  0  0  0  0  0  0  0
   16.8755  -12.2908  -18.9453 C   0  0  0  0  0  0  0  0  0  0  0  0
   16.7227  -13.1984  -19.9771 C   0  0  0  0  0  0  0  0  0  0  0  0
   17.6114  -13.2303  -21.0303 C   0  0  0  0  0  0  0  0  0  0  0  0
   18.6536  -12.3227  -21.0103 C   0  0  0  0  0  0  0  0  0  0  0  0
   18.8187  -11.4102  -19.9860 C   0  0  0  0  0  0  0  0  0  0  0  0
   19.4758   -9.8716  -15.8708 C   0  0  0  0  0  0  0  0  0  0  0  0
   18.7035   -9.6607  -14.9089 O   0  0  0  0  0  0  0  0  0  0  0  0
   21.9995   -9.6450  -13.4260 C   0  0  0  0  0  0  0  0  0  0  0  0
   22.2351   -8.4589  -14.2988 C   0  0  1  0  0  0  0  0  0  0  0  0
   23.2235   -8.6194  -15.2296 O   0  0  0  0  0  0  0  0  0  0  0  0
   20.9635   -8.0143  -15.0269 C   0  0  2  0  0  0  0  0  0  0  0  0
   20.6691   -9.1068  -15.9394 N   0  0  0  0  0  0  0  0  0  0  0  0
   21.0991   -6.7276  -15.6983 C   0  0  0  0  0  0  0  0  0  0  0  0
   21.6262   -6.6243  -16.8363 O   0  0  0  0  0  0  0  0  0  0  0  0
   20.6362   -5.5409  -15.0851 N   0  0  0  0  0  0  0  0  0  0  0  0
   20.8671   -4.2169  -15.6727 C   0  0  1  0  0  0  0  0  0  0  0  0
   19.7492   -3.2874  -15.3351 C   0  0  0  0  0  0  0  0  0  0  0  0
   19.9617   -1.9240  -15.8389 C   0  0  0  0  0  0  0  0  0  0  0  0
   19.9532   -1.6166  -17.0411 O   0  0  0  0  0  0  0  0  0  0  0  0
   22.1315   -3.6737  -15.1103 C   0  0  0  0  0  0  0  0  0  0  0  0
   22.5657   -3.9548  -13.9709 O   0  0  0  0  0  0  0  0  0  0  0  0
   20.1867   -0.9118  -14.9154 O   0  0  0  0  0  0  0  0  0  0  0  0
   22.8942   -2.7996  -15.8769 O   0  0  0  0  0  0  0  0  0  0  0  0
  2 10  1  0
  2  1  1  1
  3  2  1  0
  4  9  2  0
  4  3  1  0
  5  4  1  0
  6  7  1  0
  6  5  2  0
  7  8  2  0
  8  9  1  0
 10 11  2  0
 13 12  1  6
 13 14  1  0
 15 13  1  0
 16 10  1  0
 15 16  1  6
 17 18  2  0
 17 15  1  0
 19 17  1  0
 20 19  1  0
 20 21  1  1
 22 26  1  0
 22 21  1  0
 23 22  2  0
 24 20  1  0
 24 27  1  0
 25 24  2  0
M  END
$$$$
