FTD.pdb
     RDKit          3D

 27 27  0  0  1  0  0  0  0  0999 V2000
   17.4363   -6.9440   -9.8700 N   0  0  0  0  0  0  0  0  0  0  0  0
   17.9187   -6.2716  -11.0618 C   0  0  1  0  0  0  0  0  0  0  0  0
   19.1991   -5.5750  -10.7175 C   0  0  0  0  0  0  0  0  0  0  0  0
   18.8689   -4.2094  -10.1934 C   0  0  0  0  0  0  0  0  0  0  0  0
   18.7897   -3.9589   -8.8351 C   0  0  0  0  0  0  0  0  0  0  0  0
   18.4847   -2.6971   -8.3593 C   0  0  0  0  0  0  0  0  0  0  0  0
   18.2505   -1.6507   -9.2255 C   0  0  0  0  0  0  0  0  0  0  0  0
   18.3330   -1.9156  -10.5795 C   0  0  0  0  0  0  0  0  0  0  0  0
   18.6368   -3.1714  -11.0691 C   0  0  0  0  0  0  0  0  0  0  0  0
   18.1462   -7.2385  -12.1732 C   0  0  0  0  0  0  0  0  0  0  0  0
   18.3526   -8.4600  -11.9958 O   0  0  0  0  0  0  0  0  0  0  0  0
   17.1278   -7.9537  -16.8805 C   0  0  0  0  0  0  0  0  0  0  0  0
   17.1079   -7.2156  -15.5847 C   0  0  1  0  0  0  0  0  0  0  0  0
   15.9414   -7.3255  -14.8803 O   0  0  0  0  0  0  0  0  0  0  0  0
   18.2599   -7.6298  -14.6650 C   0  0  2  0  0  0  0  0  0  0  0  0
   18.1298   -6.7587  -13.5086 N   0  0  0  0  0  0  0  0  0  0  0  0
   19.5689   -7.5463  -15.3009 C   0  0  0  0  0  0  0  0  0  0  0  0
   20.1381   -6.4432  -15.5073 O   0  0  0  0  0  0  0  0  0  0  0  0
   20.2487   -8.7164  -15.7100 N   0  0  0  0  0  0  0  0  0  0  0  0
   21.5582   -8.6685  -16.3694 C   0  0  1  0  0  0  0  0  0  0  0  0
   22.1390  -10.0381  -16.4894 C   0  0  0  0  0  0  0  0  0  0  0  0
   23.4620  -10.0488  -17.1277 C   0  0  0  0  0  0  0  0  0  0  0  0
   24.0929   -9.0267  -17.4395 O   0  0  0  0  0  0  0  0  0  0  0  0
   21.3714   -8.1035  -17.7317 C   0  0  0  0  0  0  0  0  0  0  0  0
   21.9614   -7.0827  -18.1506 O   0  0  0  0  0  0  0  0  0  0  0  0
   24.0477  -11.2776  -17.4014 O   0  0  0  0  0  0  0  0  0  0  0  0
   20.4940   -8.7291  -18.6107 O   0  0  0  0  0  0  0  0  0  0  0  0
  2 10  1  0
  2  1  1  1
  3  2  1  0
  4  9  2  0
  4  3  1  0
  5  4  1  0
  6  7  1  0
  6  5  2  0
  7  8  2  0
  8  9  1  0
 10 11  2  0
 13 12  1  6
 13 14  1  0
 15 13  1  0
 16 10  1  0
 15 16  1  1
 17 18  2  0
 17 15  1  0
 19 17  1  0
 20 19  1  0
 20 21  1  6
 22 26  1  0
 22 21  1  0
 23 22  2  0
 24 20  1  0
 24 27  1  0
 25 24  2  0
M  END
$$$$
