FTD.pdb
     RDKit          3D

 27 27  0  0  1  0  0  0  0  0999 V2000
   23.7546  -12.9998  -16.3517 N   0  0  0  0  0  0  0  0  0  0  0  0
   24.0760  -11.6643  -15.8843 C   0  0  1  0  0  0  0  0  0  0  0  0
   25.2485  -11.1651  -16.6710 C   0  0  0  0  0  0  0  0  0  0  0  0
   26.4030  -12.0939  -16.4408 C   0  0  0  0  0  0  0  0  0  0  0  0
   26.7072  -13.1012  -17.3391 C   0  0  0  0  0  0  0  0  0  0  0  0
   27.7734  -13.9538  -17.1200 C   0  0  0  0  0  0  0  0  0  0  0  0
   28.5652  -13.8248  -15.9990 C   0  0  0  0  0  0  0  0  0  0  0  0
   28.2495  -12.8142  -15.1106 C   0  0  0  0  0  0  0  0  0  0  0  0
   27.1872  -11.9550  -15.3166 C   0  0  0  0  0  0  0  0  0  0  0  0
   22.9183  -10.7402  -16.0509 C   0  0  0  0  0  0  0  0  0  0  0  0
   21.9306  -10.9928  -16.7767 O   0  0  0  0  0  0  0  0  0  0  0  0
   20.3762  -10.6637  -15.1615 C   0  0  0  0  0  0  0  0  0  0  0  0
   20.7166   -9.3502  -14.5427 C   0  0  1  0  0  0  0  0  0  0  0  0
   21.1207   -9.4186  -13.2384 O   0  0  0  0  0  0  0  0  0  0  0  0
   21.7899   -8.5982  -15.3344 C   0  0  2  0  0  0  0  0  0  0  0  0
   22.9262   -9.5045  -15.3534 N   0  0  0  0  0  0  0  0  0  0  0  0
   22.1103   -7.2891  -14.7789 C   0  0  0  0  0  0  0  0  0  0  0  0
   23.2583   -7.0156  -14.3421 O   0  0  0  0  0  0  0  0  0  0  0  0
   21.1296   -6.2729  -14.7134 N   0  0  0  0  0  0  0  0  0  0  0  0
   21.4823   -4.8516  -14.6294 C   0  0  1  0  0  0  0  0  0  0  0  0
   22.3228   -4.4466  -15.7944 C   0  0  0  0  0  0  0  0  0  0  0  0
   22.5961   -3.0038  -15.8335 C   0  0  0  0  0  0  0  0  0  0  0  0
   23.0876   -2.3624  -14.8917 O   0  0  0  0  0  0  0  0  0  0  0  0
   20.2243   -4.0596  -14.6447 C   0  0  0  0  0  0  0  0  0  0  0  0
   20.1006   -2.9359  -14.1084 O   0  0  0  0  0  0  0  0  0  0  0  0
   22.2868   -2.3095  -16.9956 O   0  0  0  0  0  0  0  0  0  0  0  0
   19.1049   -4.5774  -15.2870 O   0  0  0  0  0  0  0  0  0  0  0  0
  2 10  1  0
  2  1  1  6
  3  2  1  0
  4  9  2  0
  4  3  1  0
  5  4  1  0
  6  7  1  0
  6  5  2  0
  7  8  2  0
  8  9  1  0
 10 11  2  0
 13 12  1  6
 13 14  1  0
 15 13  1  0
 16 10  1  0
 15 16  1  1
 17 18  2  0
 17 15  1  0
 19 17  1  0
 20 19  1  0
 20 21  1  6
 22 26  1  0
 22 21  1  0
 23 22  2  0
 24 20  1  0
 24 27  1  0
 25 24  2  0
M  END
$$$$
