FTD.pdb
     RDKit          3D

 27 27  0  0  1  0  0  0  0  0999 V2000
   28.2308  -22.0824   -9.7820 N   0  0  0  0  0  0  0  0  0  0  0  0
   27.2324  -21.0352   -9.8910 C   0  0  1  0  0  0  0  0  0  0  0  0
   27.8624  -19.7449   -9.4651 C   0  0  0  0  0  0  0  0  0  0  0  0
   27.9507  -19.7326   -7.9682 C   0  0  0  0  0  0  0  0  0  0  0  0
   29.1706  -19.7878   -7.3181 C   0  0  0  0  0  0  0  0  0  0  0  0
   29.2440  -19.7760   -5.9375 C   0  0  0  0  0  0  0  0  0  0  0  0
   28.1024  -19.7089   -5.1677 C   0  0  0  0  0  0  0  0  0  0  0  0
   26.8909  -19.6543   -5.8308 C   0  0  0  0  0  0  0  0  0  0  0  0
   26.8026  -19.6652   -7.2096 C   0  0  0  0  0  0  0  0  0  0  0  0
   26.7220  -20.9182  -11.2866 C   0  0  0  0  0  0  0  0  0  0  0  0
   27.4406  -21.0661  -12.3004 O   0  0  0  0  0  0  0  0  0  0  0  0
   26.3552  -22.4049  -13.4780 C   0  0  0  0  0  0  0  0  0  0  0  0
   24.9150  -22.0550  -13.3118 C   0  0  1  0  0  0  0  0  0  0  0  0
   24.2110  -22.8968  -12.4964 O   0  0  0  0  0  0  0  0  0  0  0  0
   24.7221  -20.6250  -12.7997 C   0  0  2  0  0  0  0  0  0  0  0  0
   25.3487  -20.6234  -11.4880 N   0  0  0  0  0  0  0  0  0  0  0  0
   23.3272  -20.2028  -12.7689 C   0  0  0  0  0  0  0  0  0  0  0  0
   22.6405  -20.2545  -11.7157 O   0  0  0  0  0  0  0  0  0  0  0  0
   22.6946  -19.7153  -13.9354 N   0  0  0  0  0  0  0  0  0  0  0  0
   21.3405  -19.1517  -13.9118 C   0  0  1  0  0  0  0  0  0  0  0  0
   20.9937  -18.5560  -15.2356 C   0  0  0  0  0  0  0  0  0  0  0  0
   19.6593  -17.9421  -15.2592 C   0  0  0  0  0  0  0  0  0  0  0  0
   18.6940  -18.3984  -15.8915 O   0  0  0  0  0  0  0  0  0  0  0  0
   20.3855  -20.2513  -13.6135 C   0  0  0  0  0  0  0  0  0  0  0  0
   19.3610  -20.1135  -12.9083 O   0  0  0  0  0  0  0  0  0  0  0  0
   19.4608  -16.7776  -14.5294 O   0  0  0  0  0  0  0  0  0  0  0  0
   20.6233  -21.5170  -14.1380 O   0  0  0  0  0  0  0  0  0  0  0  0
  2 10  1  0
  2  1  1  6
  3  2  1  0
  4  9  2  0
  4  3  1  0
  5  4  1  0
  6  7  1  0
  6  5  2  0
  7  8  2  0
  8  9  1  0
 10 11  2  0
 13 12  1  1
 13 14  1  0
 15 13  1  0
 16 10  1  0
 15 16  1  1
 17 18  2  0
 17 15  1  0
 19 17  1  0
 20 19  1  0
 20 21  1  6
 22 26  1  0
 22 21  1  0
 23 22  2  0
 24 20  1  0
 24 27  1  0
 25 24  2  0
M  END
$$$$
