FTD.pdb
     RDKit          3D

 27 27  0  0  1  0  0  0  0  0999 V2000
   28.4590  -21.4351   -8.6093 N   0  0  0  0  0  0  0  0  0  0  0  0
   27.1697  -20.7711   -8.6564 C   0  0  1  0  0  0  0  0  0  0  0  0
   27.3011  -19.4492   -7.9648 C   0  0  0  0  0  0  0  0  0  0  0  0
   27.7110  -19.6971   -6.5439 C   0  0  0  0  0  0  0  0  0  0  0  0
   28.8687  -19.1480   -6.0220 C   0  0  0  0  0  0  0  0  0  0  0  0
   29.2401  -19.3810   -4.7107 C   0  0  0  0  0  0  0  0  0  0  0  0
   28.4670  -20.1682   -3.8844 C   0  0  0  0  0  0  0  0  0  0  0  0
   27.3134  -20.7100   -4.4193 C   0  0  0  0  0  0  0  0  0  0  0  0
   26.9299  -20.4856   -5.7276 C   0  0  0  0  0  0  0  0  0  0  0  0
   26.7168  -20.5693  -10.0622 C   0  0  0  0  0  0  0  0  0  0  0  0
   27.4974  -20.3504  -11.0156 O   0  0  0  0  0  0  0  0  0  0  0  0
   26.9403  -21.3860  -12.5453 C   0  0  0  0  0  0  0  0  0  0  0  0
   25.4559  -21.5283  -12.5217 C   0  0  1  0  0  0  0  0  0  0  0  0
   25.0033  -22.7423  -12.0854 O   0  0  0  0  0  0  0  0  0  0  0  0
   24.7834  -20.4396  -11.6809 C   0  0  2  0  0  0  0  0  0  0  0  0
   25.3277  -20.6264  -10.3460 N   0  0  0  0  0  0  0  0  0  0  0  0
   23.3272  -20.4938  -11.7187 C   0  0  0  0  0  0  0  0  0  0  0  0
   22.6482  -20.8219  -10.7114 O   0  0  0  0  0  0  0  0  0  0  0  0
   22.6234  -20.1747  -12.9025 N   0  0  0  0  0  0  0  0  0  0  0  0
   21.1920  -19.8542  -12.8976 C   0  0  1  0  0  0  0  0  0  0  0  0
   20.8204  -19.0798  -14.1182 C   0  0  0  0  0  0  0  0  0  0  0  0
   19.4103  -18.6683  -14.1322 C   0  0  0  0  0  0  0  0  0  0  0  0
   18.6446  -18.7735  -13.1613 O   0  0  0  0  0  0  0  0  0  0  0  0
   20.4306  -21.1310  -12.8871 C   0  0  0  0  0  0  0  0  0  0  0  0
   20.6246  -22.0657  -13.6960 O   0  0  0  0  0  0  0  0  0  0  0  0
   18.8971  -18.1269  -15.3033 O   0  0  0  0  0  0  0  0  0  0  0  0
   19.4390  -21.3213  -11.9310 O   0  0  0  0  0  0  0  0  0  0  0  0
  2 10  1  0
  2  1  1  6
  3  2  1  0
  4  9  2  0
  4  3  1  0
  5  4  1  0
  6  7  1  0
  6  5  2  0
  7  8  2  0
  8  9  1  0
 10 11  2  0
 13 12  1  1
 13 14  1  0
 15 13  1  0
 16 10  1  0
 15 16  1  1
 17 18  2  0
 17 15  1  0
 19 17  1  0
 20 19  1  0
 20 21  1  6
 22 26  1  0
 22 21  1  0
 23 22  2  0
 24 20  1  0
 24 27  1  0
 25 24  2  0
M  END
$$$$
