FTD.pdb
     RDKit          3D

 27 27  0  0  1  0  0  0  0  0999 V2000
   25.9244  -11.3496  -18.5482 N   0  0  0  0  0  0  0  0  0  0  0  0
   25.4534  -10.5715  -17.4177 C   0  0  1  0  0  0  0  0  0  0  0  0
   26.6417   -9.9428  -16.7577 C   0  0  0  0  0  0  0  0  0  0  0  0
   27.5867  -11.0323  -16.3470 C   0  0  0  0  0  0  0  0  0  0  0  0
   27.2856  -11.8925  -15.3061 C   0  0  0  0  0  0  0  0  0  0  0  0
   28.1620  -12.8947  -14.9333 C   0  0  0  0  0  0  0  0  0  0  0  0
   29.3626  -13.0662  -15.5885 C   0  0  0  0  0  0  0  0  0  0  0  0
   29.6499  -12.1997  -16.6262 C   0  0  0  0  0  0  0  0  0  0  0  0
   28.7838  -11.1938  -17.0096 C   0  0  0  0  0  0  0  0  0  0  0  0
   24.4922   -9.5175  -17.8501 C   0  0  0  0  0  0  0  0  0  0  0  0
   24.5703   -8.9176  -18.9456 O   0  0  0  0  0  0  0  0  0  0  0  0
   20.8771  -10.1492  -18.0129 C   0  0  0  0  0  0  0  0  0  0  0  0
   21.0753   -9.0102  -17.0707 C   0  0  1  0  0  0  0  0  0  0  0  0
   21.0660   -9.3528  -15.7473 O   0  0  0  0  0  0  0  0  0  0  0  0
   22.3697   -8.2430  -17.3544 C   0  0  2  0  0  0  0  0  0  0  0  0
   23.4271   -9.1675  -16.9802 N   0  0  0  0  0  0  0  0  0  0  0  0
   22.4519   -6.9657  -16.6567 C   0  0  0  0  0  0  0  0  0  0  0  0
   23.0423   -6.8492  -15.5515 O   0  0  0  0  0  0  0  0  0  0  0  0
   21.8645   -5.8034  -17.2068 N   0  0  0  0  0  0  0  0  0  0  0  0
   21.8585   -4.5203  -16.4960 C   0  0  1  0  0  0  0  0  0  0  0  0
   21.3788   -3.4246  -17.3889 C   0  0  0  0  0  0  0  0  0  0  0  0
   21.3497   -2.1135  -16.7271 C   0  0  0  0  0  0  0  0  0  0  0  0
   20.3161   -1.5645  -16.3147 O   0  0  0  0  0  0  0  0  0  0  0  0
   20.9348   -4.6362  -15.3370 C   0  0  0  0  0  0  0  0  0  0  0  0
   19.8672   -5.2885  -15.3582 O   0  0  0  0  0  0  0  0  0  0  0  0
   22.5522   -1.4422  -16.5497 O   0  0  0  0  0  0  0  0  0  0  0  0
   21.2547   -3.9902  -14.1478 O   0  0  0  0  0  0  0  0  0  0  0  0
  2 10  1  0
  2  1  1  6
  3  2  1  0
  4  9  2  0
  4  3  1  0
  5  4  1  0
  6  7  1  0
  6  5  2  0
  7  8  2  0
  8  9  1  0
 10 11  2  0
 13 12  1  6
 13 14  1  0
 15 13  1  0
 16 10  1  0
 15 16  1  1
 17 18  2  0
 17 15  1  0
 19 17  1  0
 20 19  1  0
 20 21  1  6
 22 26  1  0
 22 21  1  0
 23 22  2  0
 24 20  1  0
 24 27  1  0
 25 24  2  0
M  END
$$$$
