FNY.pdb
     RDKit          3D

 32 33  0  0  1  0  0  0  0  0999 V2000
   26.7506  -10.6098  -19.4436 N   0  0  0  0  0  0  0  0  0  0  0  0
   26.1626  -10.1606  -18.2117 C   0  0  1  0  0  0  0  0  0  0  0  0
   27.1788   -9.4733  -17.3042 C   0  0  0  0  0  0  0  0  0  0  0  0
   28.2554  -10.3682  -16.8646 C   0  0  0  0  0  0  0  0  0  0  0  0
   29.5043  -10.3393  -17.4530 C   0  0  0  0  0  0  0  0  0  0  0  0
   30.4942  -11.2020  -17.0115 C   0  0  0  0  0  0  0  0  0  0  0  0
   30.2671  -12.1001  -15.9895 C   0  0  0  0  0  0  0  0  0  0  0  0
   29.0106  -12.1441  -15.3826 C   0  0  0  0  0  0  0  0  0  0  0  0
   28.0338  -11.2805  -15.8305 C   0  0  0  0  0  0  0  0  0  0  0  0
   25.0899   -9.1987  -18.5163 C   0  0  0  0  0  0  0  0  0  0  0  0
   24.8713   -8.8886  -19.7055 O   0  0  0  0  0  0  0  0  0  0  0  0
   20.8451   -6.2845  -18.6130 N   0  0  0  0  0  0  0  0  0  0  0  0
   21.1282   -7.5657  -19.1488 C   0  0  0  0  0  0  0  0  0  0  0  0
   20.2801   -8.0285  -19.9945 O   0  0  0  0  0  0  0  0  0  0  0  0
   22.3231   -8.3440  -18.7728 C   0  0  0  0  0  0  0  0  0  0  0  0
   23.1839   -7.7589  -17.7299 C   0  0  2  0  0  0  0  0  0  0  0  0
   24.3185   -8.6335  -17.4836 N   0  0  0  0  0  0  0  0  0  0  0  0
   22.5525   -7.4266  -16.4474 C   0  0  0  0  0  0  0  0  0  0  0  0
   22.6702   -8.2415  -15.4983 O   0  0  0  0  0  0  0  0  0  0  0  0
   19.2684   -5.7293   -8.9464 O   0  0  0  0  0  0  0  0  0  0  0  0
   19.9827   -5.8714  -10.1350 C   0  0  0  0  0  0  0  0  0  0  0  0
   20.3414   -7.0955  -10.6534 C   0  0  0  0  0  0  0  0  0  0  0  0
   21.0491   -7.1683  -11.8345 C   0  0  0  0  0  0  0  0  0  0  0  0
   21.4018   -6.0152  -12.5038 C   0  0  0  0  0  0  0  0  0  0  0  0
   22.1707   -6.1497  -13.7828 C   0  0  0  0  0  0  0  0  0  0  0  0
   21.1736   -6.0849  -14.9209 C   0  0  2  0  0  0  0  0  0  0  0  0
   21.8152   -6.2440  -16.2041 N   0  0  0  0  0  0  0  0  0  0  0  0
   20.3965   -4.8145  -14.8801 C   0  0  0  0  0  0  0  0  0  0  0  0
   20.7941   -3.7770  -15.4609 O   0  0  0  0  0  0  0  0  0  0  0  0
   21.0579   -4.7753  -12.0112 C   0  0  0  0  0  0  0  0  0  0  0  0
   20.3417   -4.7267  -10.8141 C   0  0  0  0  0  0  0  0  0  0  0  0
   19.2053   -4.8040  -14.1757 O   0  0  0  0  0  0  0  0  0  0  0  0
  2  1  1  6
  3  4  1  0
  3  2  1  0
  4  5  2  0
  5  6  1  0
  7  6  2  0
  8  7  1  0
  9  4  1  0
  9  8  2  0
 10  2  1  0
 10 17  1  0
 11 10  2  0
 12 13  1  0
 13 14  2  0
 15 13  1  0
 16 15  1  6
 16 17  1  0
 18 16  1  0
 18 27  1  0
 19 18  2  0
 20 21  1  0
 21 22  2  0
 21 31  1  0
 22 23  1  0
 23 24  2  0
 24 25  1  0
 26 25  1  1
 26 27  1  0
 26 28  1  0
 28 29  2  0
 28 32  1  0
 30 24  1  0
 31 30  2  0
M  END
$$$$
