FNY.pdb
     RDKit          3D

 32 33  0  0  1  0  0  0  0  0999 V2000
   25.0527    2.4240   -0.6301 N   0  0  0  0  0  0  0  0  0  0  0  0
   25.0612    2.2906   -2.0609 C   0  0  1  0  0  0  0  0  0  0  0  0
   24.3463    1.0255   -2.5267 C   0  0  0  0  0  0  0  0  0  0  0  0
   24.8720   -0.1948   -1.9040 C   0  0  0  0  0  0  0  0  0  0  0  0
   24.1544   -0.8839   -0.9463 C   0  0  0  0  0  0  0  0  0  0  0  0
   24.6859   -2.0309   -0.3798 C   0  0  0  0  0  0  0  0  0  0  0  0
   25.9255   -2.5111   -0.7477 C   0  0  0  0  0  0  0  0  0  0  0  0
   26.6658   -1.8277   -1.7142 C   0  0  0  0  0  0  0  0  0  0  0  0
   26.1262   -0.6878   -2.2708 C   0  0  0  0  0  0  0  0  0  0  0  0
   24.3778    3.4526   -2.6538 C   0  0  0  0  0  0  0  0  0  0  0  0
   24.0126    4.3870   -1.9111 O   0  0  0  0  0  0  0  0  0  0  0  0
   21.8832    7.0182   -4.2426 N   0  0  0  0  0  0  0  0  0  0  0  0
   23.2842    7.0600   -4.0329 C   0  0  0  0  0  0  0  0  0  0  0  0
   23.7657    8.1798   -3.6292 O   0  0  0  0  0  0  0  0  0  0  0  0
   24.1621    5.8965   -4.2580 C   0  0  0  0  0  0  0  0  0  0  0  0
   23.5010    4.6504   -4.6837 C   0  0  2  0  0  0  0  0  0  0  0  0
   24.1371    3.5135   -4.0393 N   0  0  0  0  0  0  0  0  0  0  0  0
   23.4181    4.3941   -6.1264 C   0  0  0  0  0  0  0  0  0  0  0  0
   24.4643    4.5123   -6.8120 O   0  0  0  0  0  0  0  0  0  0  0  0
   27.3451    0.0359   -7.2262 O   0  0  0  0  0  0  0  0  0  0  0  0
   26.0994    0.5686   -7.5541 C   0  0  0  0  0  0  0  0  0  0  0  0
   25.7949    1.0485   -8.8083 C   0  0  0  0  0  0  0  0  0  0  0  0
   24.5428    1.5640   -9.0688 C   0  0  0  0  0  0  0  0  0  0  0  0
   23.5879    1.6017   -8.0745 C   0  0  0  0  0  0  0  0  0  0  0  0
   22.2434    2.1720   -8.4098 C   0  0  0  0  0  0  0  0  0  0  0  0
   22.3209    3.6700   -8.2009 C   0  0  2  0  0  0  0  0  0  0  0  0
   22.2333    4.0207   -6.8034 N   0  0  0  0  0  0  0  0  0  0  0  0
   21.2663    4.3748   -8.9825 C   0  0  0  0  0  0  0  0  0  0  0  0
   20.4051    5.0984   -8.4290 O   0  0  0  0  0  0  0  0  0  0  0  0
   23.8614    1.1293   -6.8095 C   0  0  0  0  0  0  0  0  0  0  0  0
   25.1356    0.6124   -6.5695 C   0  0  0  0  0  0  0  0  0  0  0  0
   21.2581    4.2113  -10.3567 O   0  0  0  0  0  0  0  0  0  0  0  0
  2  1  1  1
  3  4  1  0
  3  2  1  0
  4  5  2  0
  5  6  1  0
  7  6  2  0
  8  7  1  0
  9  4  1  0
  9  8  2  0
 10  2  1  0
 10 17  1  0
 11 10  2  0
 12 13  1  0
 13 14  2  0
 15 13  1  0
 16 15  1  6
 16 17  1  0
 18 16  1  0
 18 27  1  0
 19 18  2  0
 20 21  1  0
 21 22  2  0
 21 31  1  0
 22 23  1  0
 23 24  2  0
 24 25  1  0
 26 25  1  1
 26 27  1  0
 26 28  1  0
 28 29  2  0
 28 32  1  0
 30 24  1  0
 31 30  2  0
M  END
$$$$
