FNY.pdb
     RDKit          3D

 32 33  0  0  1  0  0  0  0  0999 V2000
   28.5751  -21.6476   -8.9012 N   0  0  0  0  0  0  0  0  0  0  0  0
   27.3175  -20.9853   -9.1129 C   0  0  1  0  0  0  0  0  0  0  0  0
   27.2044  -19.6921   -8.3107 C   0  0  0  0  0  0  0  0  0  0  0  0
   27.3545  -19.8966   -6.8654 C   0  0  0  0  0  0  0  0  0  0  0  0
   28.5650  -19.7012   -6.2301 C   0  0  0  0  0  0  0  0  0  0  0  0
   28.6673  -19.9070   -4.8640 C   0  0  0  0  0  0  0  0  0  0  0  0
   27.5834  -20.3063   -4.1100 C   0  0  0  0  0  0  0  0  0  0  0  0
   26.3515  -20.5091   -4.7349 C   0  0  0  0  0  0  0  0  0  0  0  0
   26.2622  -20.3008   -6.0947 C   0  0  0  0  0  0  0  0  0  0  0  0
   27.1849  -20.6558  -10.5421 C   0  0  0  0  0  0  0  0  0  0  0  0
   28.1683  -20.1872  -11.1515 O   0  0  0  0  0  0  0  0  0  0  0  0
   27.8836  -21.3850  -15.4565 N   0  0  0  0  0  0  0  0  0  0  0  0
   26.8420  -21.9708  -14.6944 C   0  0  0  0  0  0  0  0  0  0  0  0
   25.9353  -22.5947  -15.3556 O   0  0  0  0  0  0  0  0  0  0  0  0
   26.7803  -21.8833  -13.2235 C   0  0  0  0  0  0  0  0  0  0  0  0
   25.8567  -20.8799  -12.6657 C   0  0  2  0  0  0  0  0  0  0  0  0
   25.9672  -20.8645  -11.2165 N   0  0  0  0  0  0  0  0  0  0  0  0
   24.4404  -20.9941  -13.0333 C   0  0  0  0  0  0  0  0  0  0  0  0
   23.7825  -21.9595  -12.5711 O   0  0  0  0  0  0  0  0  0  0  0  0
   19.7333  -21.9377   -8.6567 O   0  0  0  0  0  0  0  0  0  0  0  0
   20.1880  -21.2716   -9.7936 C   0  0  0  0  0  0  0  0  0  0  0  0
   21.0701  -20.2156   -9.7424 C   0  0  0  0  0  0  0  0  0  0  0  0
   21.4814  -19.5980  -10.9046 C   0  0  0  0  0  0  0  0  0  0  0  0
   21.0117  -20.0347  -12.1255 C   0  0  0  0  0  0  0  0  0  0  0  0
   21.4897  -19.3291  -13.3579 C   0  0  0  0  0  0  0  0  0  0  0  0
   22.3554  -20.3020  -14.1311 C   0  0  2  0  0  0  0  0  0  0  0  0
   23.7600  -20.0860  -13.8783 N   0  0  0  0  0  0  0  0  0  0  0  0
   22.0709  -20.2278  -15.5917 C   0  0  0  0  0  0  0  0  0  0  0  0
   22.9338  -19.8413  -16.4149 O   0  0  0  0  0  0  0  0  0  0  0  0
   20.1283  -21.0886  -12.2103 C   0  0  0  0  0  0  0  0  0  0  0  0
   19.7262  -21.6979  -11.0206 C   0  0  0  0  0  0  0  0  0  0  0  0
   20.8119  -20.6018  -16.0280 O   0  0  0  0  0  0  0  0  0  0  0  0
  2  1  1  6
  3  4  1  0
  3  2  1  0
  4  5  2  0
  5  6  1  0
  7  6  2  0
  8  7  1  0
  9  4  1  0
  9  8  2  0
 10  2  1  0
 10 17  1  0
 11 10  2  0
 12 13  1  0
 13 14  2  0
 15 13  1  0
 16 15  1  1
 16 17  1  0
 18 16  1  0
 18 27  1  0
 19 18  2  0
 20 21  1  0
 21 22  2  0
 21 31  1  0
 22 23  1  0
 23 24  2  0
 24 25  1  0
 26 25  1  1
 26 27  1  0
 26 28  1  0
 28 29  2  0
 28 32  1  0
 30 24  1  0
 31 30  2  0
M  END
$$$$
