FNY.pdb
     RDKit          3D

 32 33  0  0  1  0  0  0  0  0999 V2000
   24.8612  -20.4847   -7.7527 N   0  0  0  0  0  0  0  0  0  0  0  0
   25.9700  -20.1472   -8.6023 C   0  0  1  0  0  0  0  0  0  0  0  0
   27.2384  -20.9068   -8.2244 C   0  0  0  0  0  0  0  0  0  0  0  0
   27.8673  -20.4023   -6.9984 C   0  0  0  0  0  0  0  0  0  0  0  0
   27.6713  -19.1053   -6.5669 C   0  0  0  0  0  0  0  0  0  0  0  0
   28.2845  -18.6654   -5.4052 C   0  0  0  0  0  0  0  0  0  0  0  0
   29.0951  -19.4939   -4.6575 C   0  0  0  0  0  0  0  0  0  0  0  0
   29.3054  -20.8084   -5.0781 C   0  0  0  0  0  0  0  0  0  0  0  0
   28.6895  -21.2346   -6.2354 C   0  0  0  0  0  0  0  0  0  0  0  0
   25.6264  -20.4848   -9.9940 C   0  0  0  0  0  0  0  0  0  0  0  0
   24.4245  -20.5743  -10.3187 O   0  0  0  0  0  0  0  0  0  0  0  0
   27.6283  -18.1414  -13.8136 N   0  0  0  0  0  0  0  0  0  0  0  0
   28.3355  -19.3643  -13.6994 C   0  0  0  0  0  0  0  0  0  0  0  0
   29.5212  -19.3838  -14.1921 O   0  0  0  0  0  0  0  0  0  0  0  0
   27.7645  -20.5617  -13.0550 C   0  0  0  0  0  0  0  0  0  0  0  0
   26.4796  -20.3797  -12.3573 C   0  0  2  0  0  0  0  0  0  0  0  0
   26.6365  -20.7045  -10.9493 N   0  0  0  0  0  0  0  0  0  0  0  0
   25.3199  -21.1067  -12.8867 C   0  0  0  0  0  0  0  0  0  0  0  0
   25.2445  -22.3424  -12.6720 O   0  0  0  0  0  0  0  0  0  0  0  0
   17.1805  -22.4269  -11.2929 O   0  0  0  0  0  0  0  0  0  0  0  0
   18.5031  -22.0107  -11.4362 C   0  0  0  0  0  0  0  0  0  0  0  0
   18.8796  -20.6864  -11.4161 C   0  0  0  0  0  0  0  0  0  0  0  0
   20.2060  -20.3399  -11.5640 C   0  0  0  0  0  0  0  0  0  0  0  0
   21.1636  -21.3180  -11.7328 C   0  0  0  0  0  0  0  0  0  0  0  0
   22.5904  -20.8879  -11.8892 C   0  0  0  0  0  0  0  0  0  0  0  0
   22.9179  -20.9304  -13.3672 C   0  0  2  0  0  0  0  0  0  0  0  0
   24.2735  -20.5084  -13.6274 N   0  0  0  0  0  0  0  0  0  0  0  0
   21.9557  -20.1077  -14.1527 C   0  0  0  0  0  0  0  0  0  0  0  0
   20.9694  -20.6185  -14.7342 O   0  0  0  0  0  0  0  0  0  0  0  0
   20.8191  -22.6517  -11.7573 C   0  0  0  0  0  0  0  0  0  0  0  0
   19.4704  -22.9782  -11.6057 C   0  0  0  0  0  0  0  0  0  0  0  0
   22.1772  -18.7437  -14.2274 O   0  0  0  0  0  0  0  0  0  0  0  0
  2  1  1  1
  3  4  1  0
  3  2  1  0
  4  5  2  0
  5  6  1  0
  7  6  2  0
  8  7  1  0
  9  4  1  0
  9  8  2  0
 10  2  1  0
 10 17  1  0
 11 10  2  0
 12 13  1  0
 13 14  2  0
 15 13  1  0
 16 15  1  6
 16 17  1  0
 18 16  1  0
 18 27  1  0
 19 18  2  0
 20 21  1  0
 21 22  2  0
 21 31  1  0
 22 23  1  0
 23 24  2  0
 24 25  1  0
 26 25  1  1
 26 27  1  0
 26 28  1  0
 28 29  2  0
 28 32  1  0
 30 24  1  0
 31 30  2  0
M  END
$$$$
