FNY.pdb
     RDKit          3D

 32 33  0  0  1  0  0  0  0  0999 V2000
   25.9948  -36.0018   -6.2276 N   0  0  0  0  0  0  0  0  0  0  0  0
   26.9995  -35.2286   -5.5510 C   0  0  1  0  0  0  0  0  0  0  0  0
   26.5514  -33.7911   -5.3031 C   0  0  0  0  0  0  0  0  0  0  0  0
   26.1786  -33.0843   -6.5338 C   0  0  0  0  0  0  0  0  0  0  0  0
   24.8667  -32.7500   -6.8056 C   0  0  0  0  0  0  0  0  0  0  0  0
   24.5542  -32.0847   -7.9799 C   0  0  0  0  0  0  0  0  0  0  0  0
   25.5259  -31.7424   -8.8972 C   0  0  0  0  0  0  0  0  0  0  0  0
   26.8578  -32.0723   -8.6398 C   0  0  0  0  0  0  0  0  0  0  0  0
   27.1562  -32.7340   -7.4678 C   0  0  0  0  0  0  0  0  0  0  0  0
   27.2883  -35.8538   -4.2493 C   0  0  0  0  0  0  0  0  0  0  0  0
   27.0502  -37.0690   -4.0925 O   0  0  0  0  0  0  0  0  0  0  0  0
   30.7314  -38.7775   -2.4171 N   0  0  0  0  0  0  0  0  0  0  0  0
   30.2044  -37.5890   -1.8529 C   0  0  0  0  0  0  0  0  0  0  0  0
   30.1669  -37.5363   -0.5704 O   0  0  0  0  0  0  0  0  0  0  0  0
   29.7200  -36.4614   -2.6707 C   0  0  0  0  0  0  0  0  0  0  0  0
   28.6025  -35.6803   -2.1123 C   0  0  2  0  0  0  0  0  0  0  0  0
   27.8257  -35.0952   -3.1925 N   0  0  0  0  0  0  0  0  0  0  0  0
   28.9365  -34.6296   -1.1436 C   0  0  0  0  0  0  0  0  0  0  0  0
   29.5370  -33.6072   -1.5593 O   0  0  0  0  0  0  0  0  0  0  0  0
   22.6304  -30.3916    2.4565 O   0  0  0  0  0  0  0  0  0  0  0  0
   23.5242  -31.3074    1.9039 C   0  0  0  0  0  0  0  0  0  0  0  0
   23.8524  -32.4975    2.5138 C   0  0  0  0  0  0  0  0  0  0  0  0
   24.7449  -33.3612    1.9149 C   0  0  0  0  0  0  0  0  0  0  0  0
   25.3141  -33.0380    0.7009 C   0  0  0  0  0  0  0  0  0  0  0  0
   26.2779  -34.0111    0.0931 C   0  0  0  0  0  0  0  0  0  0  0  0
   27.6226  -33.7913    0.7545 C   0  0  2  0  0  0  0  0  0  0  0  0
   28.6271  -34.6887    0.2357 N   0  0  0  0  0  0  0  0  0  0  0  0
   27.5192  -33.9239    2.2348 C   0  0  0  0  0  0  0  0  0  0  0  0
   27.4138  -35.0415    2.7931 O   0  0  0  0  0  0  0  0  0  0  0  0
   25.0064  -31.8551    0.0652 C   0  0  0  0  0  0  0  0  0  0  0  0
   24.1006  -30.9968    0.6908 C   0  0  0  0  0  0  0  0  0  0  0  0
   27.5431  -32.7669    2.9937 O   0  0  0  0  0  0  0  0  0  0  0  0
  2  1  1  1
  3  4  1  0
  3  2  1  0
  4  5  2  0
  5  6  1  0
  7  6  2  0
  8  7  1  0
  9  4  1  0
  9  8  2  0
 10  2  1  0
 10 17  1  0
 11 10  2  0
 12 13  1  0
 13 14  2  0
 15 13  1  0
 16 15  1  6
 16 17  1  0
 18 16  1  0
 18 27  1  0
 19 18  2  0
 20 21  1  0
 21 22  2  0
 21 31  1  0
 22 23  1  0
 23 24  2  0
 24 25  1  0
 26 25  1  6
 26 27  1  0
 26 28  1  0
 28 29  2  0
 28 32  1  0
 30 24  1  0
 31 30  2  0
M  END
$$$$
