FNY.pdb
     RDKit          3D

 32 33  0  0  1  0  0  0  0  0999 V2000
   21.4639  -11.6563  -17.9833 N   0  0  0  0  0  0  0  0  0  0  0  0
   21.8775  -10.2954  -17.7783 C   0  0  1  0  0  0  0  0  0  0  0  0
   21.7566   -9.4581  -19.0483 C   0  0  0  0  0  0  0  0  0  0  0  0
   22.5473   -9.9888  -20.1647 C   0  0  0  0  0  0  0  0  0  0  0  0
   21.9843  -10.8075  -21.1237 C   0  0  0  0  0  0  0  0  0  0  0  0
   22.7645  -11.2907  -22.1614 C   0  0  0  0  0  0  0  0  0  0  0  0
   24.1031  -10.9751  -22.2668 C   0  0  0  0  0  0  0  0  0  0  0  0
   24.6899  -10.1489  -21.3066 C   0  0  0  0  0  0  0  0  0  0  0  0
   23.9032   -9.6741  -20.2789 C   0  0  0  0  0  0  0  0  0  0  0  0
   21.0265   -9.6878  -16.7413 C   0  0  0  0  0  0  0  0  0  0  0  0
   19.9327  -10.2209  -16.4635 O   0  0  0  0  0  0  0  0  0  0  0  0
   19.5059   -8.7348  -11.6206 N   0  0  0  0  0  0  0  0  0  0  0  0
   19.3295   -8.3341  -12.9686 C   0  0  0  0  0  0  0  0  0  0  0  0
   18.3943   -7.4828  -13.1911 O   0  0  0  0  0  0  0  0  0  0  0  0
   20.1603   -8.8507  -14.0721 C   0  0  0  0  0  0  0  0  0  0  0  0
   20.6255   -7.8613  -15.0599 C   0  0  2  0  0  0  0  0  0  0  0  0
   21.4368   -8.5210  -16.0694 N   0  0  0  0  0  0  0  0  0  0  0  0
   21.3569   -6.6961  -14.5488 C   0  0  0  0  0  0  0  0  0  0  0  0
   22.5741   -6.8341  -14.2697 O   0  0  0  0  0  0  0  0  0  0  0  0
   21.9965   -0.2662  -19.9507 O   0  0  0  0  0  0  0  0  0  0  0  0
   21.6862   -1.3677  -19.1549 C   0  0  0  0  0  0  0  0  0  0  0  0
   20.3942   -1.7313  -18.8473 C   0  0  0  0  0  0  0  0  0  0  0  0
   20.1537   -2.8328  -18.0533 C   0  0  0  0  0  0  0  0  0  0  0  0
   21.2062   -3.5770  -17.5628 C   0  0  0  0  0  0  0  0  0  0  0  0
   20.8903   -4.7641  -16.7047 C   0  0  0  0  0  0  0  0  0  0  0  0
   21.1242   -4.3583  -15.2645 C   0  0  2  0  0  0  0  0  0  0  0  0
   20.7822   -5.4191  -14.3473 N   0  0  0  0  0  0  0  0  0  0  0  0
   20.3723   -3.1164  -14.9294 C   0  0  0  0  0  0  0  0  0  0  0  0
   19.1907   -3.1509  -14.5117 O   0  0  0  0  0  0  0  0  0  0  0  0
   22.5101   -3.2392  -17.8525 C   0  0  0  0  0  0  0  0  0  0  0  0
   22.7287   -2.1203  -18.6578 C   0  0  0  0  0  0  0  0  0  0  0  0
   21.0176   -1.9029  -15.0911 O   0  0  0  0  0  0  0  0  0  0  0  0
  2  1  1  6
  3  4  1  0
  3  2  1  0
  4  5  2  0
  5  6  1  0
  7  6  2  0
  8  7  1  0
  9  4  1  0
  9  8  2  0
 10  2  1  0
 10 17  1  0
 11 10  2  0
 12 13  1  0
 13 14  2  0
 15 13  1  0
 16 15  1  1
 16 17  1  0
 18 16  1  0
 18 27  1  0
 19 18  2  0
 20 21  1  0
 21 22  2  0
 21 31  1  0
 22 23  1  0
 23 24  2  0
 24 25  1  0
 26 25  1  6
 26 27  1  0
 26 28  1  0
 28 29  2  0
 28 32  1  0
 30 24  1  0
 31 30  2  0
M  END
$$$$
