FNY.pdb
     RDKit          3D

 32 33  0  0  1  0  0  0  0  0999 V2000
   26.1344  -17.1383  -19.7743 N   0  0  0  0  0  0  0  0  0  0  0  0
   25.3178  -17.1891  -18.5929 C   0  0  1  0  0  0  0  0  0  0  0  0
   24.6814  -15.8396  -18.2730 C   0  0  0  0  0  0  0  0  0  0  0  0
   25.6682  -14.7790  -18.0397 C   0  0  0  0  0  0  0  0  0  0  0  0
   25.9931  -13.8655  -19.0230 C   0  0  0  0  0  0  0  0  0  0  0  0
   26.9319  -12.8799  -18.7650 C   0  0  0  0  0  0  0  0  0  0  0  0
   27.5597  -12.7825  -17.5406 C   0  0  0  0  0  0  0  0  0  0  0  0
   27.2443  -13.6973  -16.5342 C   0  0  0  0  0  0  0  0  0  0  0  0
   26.3085  -14.6732  -16.8029 C   0  0  0  0  0  0  0  0  0  0  0  0
   24.2400  -18.1714  -18.7982 C   0  0  0  0  0  0  0  0  0  0  0  0
   24.2449  -18.8720  -19.8312 O   0  0  0  0  0  0  0  0  0  0  0  0
   21.2409  -22.2873  -19.4798 N   0  0  0  0  0  0  0  0  0  0  0  0
   21.7696  -21.7563  -18.2767 C   0  0  0  0  0  0  0  0  0  0  0  0
   21.3773  -22.3136  -17.1884 O   0  0  0  0  0  0  0  0  0  0  0  0
   22.7187  -20.6278  -18.2493 C   0  0  0  0  0  0  0  0  0  0  0  0
   22.1462  -19.2975  -17.9785 C   0  0  2  0  0  0  0  0  0  0  0  0
   23.2154  -18.3220  -17.8450 N   0  0  0  0  0  0  0  0  0  0  0  0
   21.2456  -19.1767  -16.8259 C   0  0  0  0  0  0  0  0  0  0  0  0
   21.7515  -18.9568  -15.6970 O   0  0  0  0  0  0  0  0  0  0  0  0
   14.7346  -18.3318  -20.1828 O   0  0  0  0  0  0  0  0  0  0  0  0
   15.5697  -18.2154  -19.0728 C   0  0  0  0  0  0  0  0  0  0  0  0
   15.1476  -18.4662  -17.7864 C   0  0  0  0  0  0  0  0  0  0  0  0
   16.0238  -18.3322  -16.7300 C   0  0  0  0  0  0  0  0  0  0  0  0
   17.3284  -17.9462  -16.9560 C   0  0  0  0  0  0  0  0  0  0  0  0
   18.2395  -17.8153  -15.7736 C   0  0  0  0  0  0  0  0  0  0  0  0
   19.0672  -19.0812  -15.6960 C   0  0  2  0  0  0  0  0  0  0  0  0
   19.8375  -19.2916  -16.8985 N   0  0  0  0  0  0  0  0  0  0  0  0
   18.2088  -20.2656  -15.4125 C   0  0  0  0  0  0  0  0  0  0  0  0
   18.1568  -21.2464  -16.1916 O   0  0  0  0  0  0  0  0  0  0  0  0
   17.7813  -17.6880  -18.2313 C   0  0  0  0  0  0  0  0  0  0  0  0
   16.8763  -17.8302  -19.2844 C   0  0  0  0  0  0  0  0  0  0  0  0
   17.4576  -20.2600  -14.2502 O   0  0  0  0  0  0  0  0  0  0  0  0
  2  1  1  6
  3  4  1  0
  3  2  1  0
  4  5  2  0
  5  6  1  0
  7  6  2  0
  8  7  1  0
  9  4  1  0
  9  8  2  0
 10  2  1  0
 10 17  1  0
 11 10  2  0
 12 13  1  0
 13 14  2  0
 15 13  1  0
 16 15  1  1
 16 17  1  0
 18 16  1  0
 18 27  1  0
 19 18  2  0
 20 21  1  0
 21 22  2  0
 21 31  1  0
 22 23  1  0
 23 24  2  0
 24 25  1  0
 26 25  1  6
 26 27  1  0
 26 28  1  0
 28 29  2  0
 28 32  1  0
 30 24  1  0
 31 30  2  0
M  END
$$$$
