FNY.pdb
     RDKit          3D

 32 33  0  0  1  0  0  0  0  0999 V2000
   16.0401  -13.0700    6.5950 N   0  0  0  0  0  0  0  0  0  0  0  0
   16.0514  -14.3438    5.9297 C   0  0  1  0  0  0  0  0  0  0  0  0
   17.4683  -14.8577    5.6915 C   0  0  0  0  0  0  0  0  0  0  0  0
   18.2241  -14.0395    4.7362 C   0  0  0  0  0  0  0  0  0  0  0  0
   18.3464  -14.4050    3.4102 C   0  0  0  0  0  0  0  0  0  0  0  0
   19.0704  -13.6071    2.5394 C   0  0  0  0  0  0  0  0  0  0  0  0
   19.6806  -12.4446    2.9622 C   0  0  0  0  0  0  0  0  0  0  0  0
   19.5682  -12.0588    4.2992 C   0  0  0  0  0  0  0  0  0  0  0  0
   18.8449  -12.8609    5.1560 C   0  0  0  0  0  0  0  0  0  0  0  0
   15.3376  -15.3255    6.7636 C   0  0  0  0  0  0  0  0  0  0  0  0
   14.7997  -14.9454    7.8239 O   0  0  0  0  0  0  0  0  0  0  0  0
   11.7877  -18.0993    9.2861 N   0  0  0  0  0  0  0  0  0  0  0  0
   12.1880  -18.1634    7.9280 C   0  0  0  0  0  0  0  0  0  0  0  0
   11.6855  -19.1179    7.2315 O   0  0  0  0  0  0  0  0  0  0  0  0
   13.1272  -17.1998    7.3244 C   0  0  0  0  0  0  0  0  0  0  0  0
   14.5073  -17.6727    7.1177 C   0  0  2  0  0  0  0  0  0  0  0  0
   15.2605  -16.6760    6.3747 N   0  0  0  0  0  0  0  0  0  0  0  0
   14.6791  -18.9785    6.4703 C   0  0  0  0  0  0  0  0  0  0  0  0
   14.3026  -19.1050    5.2783 O   0  0  0  0  0  0  0  0  0  0  0  0
   14.9791  -21.4690    0.6484 O   0  0  0  0  0  0  0  0  0  0  0  0
   15.5189  -20.9979    1.8441 C   0  0  0  0  0  0  0  0  0  0  0  0
   16.2587  -19.8397    1.9288 C   0  0  0  0  0  0  0  0  0  0  0  0
   16.7662  -19.4278    3.1429 C   0  0  0  0  0  0  0  0  0  0  0  0
   16.5354  -20.1735    4.2799 C   0  0  0  0  0  0  0  0  0  0  0  0
   17.1093  -19.6819    5.5737 C   0  0  0  0  0  0  0  0  0  0  0  0
   16.5512  -20.5545    6.6786 C   0  0  2  0  0  0  0  0  0  0  0  0
   15.2431  -20.1129    7.1001 N   0  0  0  0  0  0  0  0  0  0  0  0
   17.4827  -20.6088    7.8401 C   0  0  0  0  0  0  0  0  0  0  0  0
   17.1141  -20.3021    8.9985 O   0  0  0  0  0  0  0  0  0  0  0  0
   15.7992  -21.3369    4.2282 C   0  0  0  0  0  0  0  0  0  0  0  0
   15.2959  -21.7338    2.9882 C   0  0  0  0  0  0  0  0  0  0  0  0
   18.7860  -21.0127    7.6091 O   0  0  0  0  0  0  0  0  0  0  0  0
  2  1  1  1
  3  4  1  0
  3  2  1  0
  4  5  2  0
  5  6  1  0
  7  6  2  0
  8  7  1  0
  9  4  1  0
  9  8  2  0
 10  2  1  0
 10 17  1  0
 11 10  2  0
 12 13  1  0
 13 14  2  0
 15 13  1  0
 16 15  1  6
 16 17  1  0
 18 16  1  0
 18 27  1  0
 19 18  2  0
 20 21  1  0
 21 22  2  0
 21 31  1  0
 22 23  1  0
 23 24  2  0
 24 25  1  0
 26 25  1  6
 26 27  1  0
 26 28  1  0
 28 29  2  0
 28 32  1  0
 30 24  1  0
 31 30  2  0
M  END
$$$$
