FNY.pdb
     RDKit          3D

 32 33  0  0  1  0  0  0  0  0999 V2000
   27.3144  -21.3725  -16.6569 N   0  0  0  0  0  0  0  0  0  0  0  0
   27.4509  -20.5269  -15.5029 C   0  0  1  0  0  0  0  0  0  0  0  0
   27.1246  -19.0691  -15.8142 C   0  0  0  0  0  0  0  0  0  0  0  0
   28.0822  -18.4497  -16.7375 C   0  0  0  0  0  0  0  0  0  0  0  0
   29.3172  -18.0063  -16.3072 C   0  0  0  0  0  0  0  0  0  0  0  0
   30.1930  -17.4244  -17.2092 C   0  0  0  0  0  0  0  0  0  0  0  0
   29.8645  -17.2724  -18.5402 C   0  0  0  0  0  0  0  0  0  0  0  0
   28.6202  -17.7144  -18.9937 C   0  0  0  0  0  0  0  0  0  0  0  0
   27.7575  -18.2920  -18.0867 C   0  0  0  0  0  0  0  0  0  0  0  0
   26.5270  -20.9940  -14.4555 C   0  0  0  0  0  0  0  0  0  0  0  0
   25.5221  -21.6578  -14.7835 O   0  0  0  0  0  0  0  0  0  0  0  0
   24.2397  -21.3573   -9.6366 N   0  0  0  0  0  0  0  0  0  0  0  0
   25.5945  -20.9508   -9.5461 C   0  0  0  0  0  0  0  0  0  0  0  0
   26.0504  -20.7510   -8.3625 O   0  0  0  0  0  0  0  0  0  0  0  0
   26.4537  -20.7612  -10.7296 C   0  0  0  0  0  0  0  0  0  0  0  0
   25.8304  -21.0200  -12.0393 C   0  0  2  0  0  0  0  0  0  0  0  0
   26.7694  -20.6981  -13.1010 N   0  0  0  0  0  0  0  0  0  0  0  0
   24.5522  -20.3545  -12.3172 C   0  0  0  0  0  0  0  0  0  0  0  0
   24.5474  -19.1040  -12.4391 O   0  0  0  0  0  0  0  0  0  0  0  0
   22.2912  -22.6457  -18.4969 O   0  0  0  0  0  0  0  0  0  0  0  0
   22.3247  -21.8250  -17.3707 C   0  0  0  0  0  0  0  0  0  0  0  0
   23.4632  -21.1757  -16.9487 C   0  0  0  0  0  0  0  0  0  0  0  0
   23.4306  -20.3775  -15.8248 C   0  0  0  0  0  0  0  0  0  0  0  0
   22.2570  -20.2247  -15.1167 C   0  0  0  0  0  0  0  0  0  0  0  0
   22.2756  -19.3466  -13.9027 C   0  0  0  0  0  0  0  0  0  0  0  0
   22.1274  -20.2434  -12.6914 C   0  0  2  0  0  0  0  0  0  0  0  0
   23.3162  -21.0283  -12.4581 N   0  0  0  0  0  0  0  0  0  0  0  0
   20.9358  -21.1280  -12.8227 C   0  0  0  0  0  0  0  0  0  0  0  0
   21.0363  -22.3777  -12.8217 O   0  0  0  0  0  0  0  0  0  0  0  0
   21.1010  -20.8610  -15.5130 C   0  0  0  0  0  0  0  0  0  0  0  0
   21.1585  -21.6637  -16.6535 C   0  0  0  0  0  0  0  0  0  0  0  0
   19.6938  -20.5303  -12.9472 O   0  0  0  0  0  0  0  0  0  0  0  0
  2  1  1  6
  3  4  1  0
  3  2  1  0
  4  5  2  0
  5  6  1  0
  7  6  2  0
  8  7  1  0
  9  4  1  0
  9  8  2  0
 10  2  1  0
 10 17  1  0
 11 10  2  0
 12 13  1  0
 13 14  2  0
 15 13  1  0
 16 15  1  1
 16 17  1  0
 18 16  1  0
 18 27  1  0
 19 18  2  0
 20 21  1  0
 21 22  2  0
 21 31  1  0
 22 23  1  0
 23 24  2  0
 24 25  1  0
 26 25  1  6
 26 27  1  0
 26 28  1  0
 28 29  2  0
 28 32  1  0
 30 24  1  0
 31 30  2  0
M  END
$$$$
