FNY.pdb
     RDKit          3D

 32 33  0  0  1  0  0  0  0  0999 V2000
   26.6277  -19.6170  -18.7848 N   0  0  0  0  0  0  0  0  0  0  0  0
   26.8309  -20.1117  -17.4509 C   0  0  1  0  0  0  0  0  0  0  0  0
   27.0201  -18.9842  -16.4401 C   0  0  0  0  0  0  0  0  0  0  0  0
   28.1927  -18.1487  -16.7230 C   0  0  0  0  0  0  0  0  0  0  0  0
   28.0772  -16.7884  -16.9308 C   0  0  0  0  0  0  0  0  0  0  0  0
   29.2079  -16.0337  -17.1977 C   0  0  0  0  0  0  0  0  0  0  0  0
   30.4607  -16.6071  -17.2633 C   0  0  0  0  0  0  0  0  0  0  0  0
   30.5971  -17.9810  -17.0562 C   0  0  0  0  0  0  0  0  0  0  0  0
   29.4648  -18.7212  -16.7911 C   0  0  0  0  0  0  0  0  0  0  0  0
   25.6542  -20.9005  -17.0487 C   0  0  0  0  0  0  0  0  0  0  0  0
   24.5216  -20.5399  -17.4299 O   0  0  0  0  0  0  0  0  0  0  0  0
   22.7053  -24.7502  -14.8294 N   0  0  0  0  0  0  0  0  0  0  0  0
   24.0740  -25.1064  -14.9220 C   0  0  0  0  0  0  0  0  0  0  0  0
   24.3857  -26.2799  -14.5039 O   0  0  0  0  0  0  0  0  0  0  0  0
   25.1021  -24.1988  -15.4644 C   0  0  0  0  0  0  0  0  0  0  0  0
   24.6700  -22.8211  -15.7577 C   0  0  2  0  0  0  0  0  0  0  0  0
   25.7994  -22.0468  -16.2450 N   0  0  0  0  0  0  0  0  0  0  0  0
   24.0161  -22.0780  -14.6741 C   0  0  0  0  0  0  0  0  0  0  0  0
   24.7423  -21.4841  -13.8384 O   0  0  0  0  0  0  0  0  0  0  0  0
   19.8691  -17.5883  -18.1872 O   0  0  0  0  0  0  0  0  0  0  0  0
   20.5077  -18.0954  -17.0567 C   0  0  0  0  0  0  0  0  0  0  0  0
   19.9148  -18.1366  -15.8146 C   0  0  0  0  0  0  0  0  0  0  0  0
   20.6011  -18.6507  -14.7348 C   0  0  0  0  0  0  0  0  0  0  0  0
   21.8857  -19.1270  -14.8926 C   0  0  0  0  0  0  0  0  0  0  0  0
   22.5873  -19.6749  -13.6873 C   0  0  0  0  0  0  0  0  0  0  0  0
   22.1034  -21.0960  -13.4873 C   0  0  2  0  0  0  0  0  0  0  0  0
   22.6148  -21.9836  -14.5043 N   0  0  0  0  0  0  0  0  0  0  0  0
   20.6152  -21.1538  -13.4449 C   0  0  0  0  0  0  0  0  0  0  0  0
   19.9529  -20.5221  -12.5882 O   0  0  0  0  0  0  0  0  0  0  0  0
   22.5067  -19.0998  -16.1222 C   0  0  0  0  0  0  0  0  0  0  0  0
   21.7923  -18.5747  -17.2004 C   0  0  0  0  0  0  0  0  0  0  0  0
   19.9684  -21.9329  -14.3882 O   0  0  0  0  0  0  0  0  0  0  0  0
  2  1  1  6
  3  4  1  0
  3  2  1  0
  4  5  2  0
  5  6  1  0
  7  6  2  0
  8  7  1  0
  9  4  1  0
  9  8  2  0
 10  2  1  0
 10 17  1  0
 11 10  2  0
 12 13  1  0
 13 14  2  0
 15 13  1  0
 16 15  1  1
 16 17  1  0
 18 16  1  0
 18 27  1  0
 19 18  2  0
 20 21  1  0
 21 22  2  0
 21 31  1  0
 22 23  1  0
 23 24  2  0
 24 25  1  0
 26 25  1  6
 26 27  1  0
 26 28  1  0
 28 29  2  0
 28 32  1  0
 30 24  1  0
 31 30  2  0
M  END
$$$$
