FNY.pdb
     RDKit          3D

 32 33  0  0  1  0  0  0  0  0999 V2000
   26.4500  -22.6005  -21.7068 N   0  0  0  0  0  0  0  0  0  0  0  0
   26.5265  -22.1776  -20.3355 C   0  0  1  0  0  0  0  0  0  0  0  0
   25.3350  -21.3143  -19.9308 C   0  0  0  0  0  0  0  0  0  0  0  0
   25.2599  -20.0520  -20.6752 C   0  0  0  0  0  0  0  0  0  0  0  0
   26.0586  -18.9733  -20.3506 C   0  0  0  0  0  0  0  0  0  0  0  0
   25.9565  -17.7974  -21.0759 C   0  0  0  0  0  0  0  0  0  0  0  0
   25.0701  -17.6699  -22.1250 C   0  0  0  0  0  0  0  0  0  0  0  0
   24.2542  -18.7497  -22.4677 C   0  0  0  0  0  0  0  0  0  0  0  0
   24.3652  -19.9145  -21.7388 C   0  0  0  0  0  0  0  0  0  0  0  0
   26.5508  -23.3677  -19.4684 C   0  0  0  0  0  0  0  0  0  0  0  0
   26.0204  -24.4236  -19.8707 O   0  0  0  0  0  0  0  0  0  0  0  0
   30.7061  -25.7236  -16.7626 N   0  0  0  0  0  0  0  0  0  0  0  0
   29.7546  -24.8227  -17.3027 C   0  0  0  0  0  0  0  0  0  0  0  0
   30.0047  -24.3681  -18.4773 O   0  0  0  0  0  0  0  0  0  0  0  0
   28.5373  -24.4145  -16.5771 C   0  0  0  0  0  0  0  0  0  0  0  0
   27.2732  -24.4788  -17.3313 C   0  0  2  0  0  0  0  0  0  0  0  0
   27.1627  -23.3201  -18.2018 N   0  0  0  0  0  0  0  0  0  0  0  0
   26.0347  -24.6100  -16.5548 C   0  0  0  0  0  0  0  0  0  0  0  0
   25.5356  -23.5722  -16.0523 O   0  0  0  0  0  0  0  0  0  0  0  0
   18.4915  -25.0516  -12.9150 O   0  0  0  0  0  0  0  0  0  0  0  0
   19.6436  -24.9722  -13.6956 C   0  0  0  0  0  0  0  0  0  0  0  0
   20.5896  -23.9840  -13.5391 C   0  0  0  0  0  0  0  0  0  0  0  0
   21.7085  -23.9608  -14.3447 C   0  0  0  0  0  0  0  0  0  0  0  0
   21.8867  -24.9276  -15.3119 C   0  0  0  0  0  0  0  0  0  0  0  0
   23.1196  -24.8567  -16.1606 C   0  0  0  0  0  0  0  0  0  0  0  0
   24.1341  -25.8125  -15.5683 C   0  0  2  0  0  0  0  0  0  0  0  0
   25.3592  -25.8328  -16.3313 N   0  0  0  0  0  0  0  0  0  0  0  0
   23.5701  -27.1865  -15.4506 C   0  0  0  0  0  0  0  0  0  0  0  0
   23.7051  -28.0372  -16.3615 O   0  0  0  0  0  0  0  0  0  0  0  0
   20.9586  -25.9295  -15.4934 C   0  0  0  0  0  0  0  0  0  0  0  0
   19.8341  -25.9323  -14.6663 C   0  0  0  0  0  0  0  0  0  0  0  0
   22.8825  -27.5094  -14.2938 O   0  0  0  0  0  0  0  0  0  0  0  0
  2  1  1  6
  3  4  1  0
  3  2  1  0
  4  5  2  0
  5  6  1  0
  7  6  2  0
  8  7  1  0
  9  4  1  0
  9  8  2  0
 10  2  1  0
 10 17  1  0
 11 10  2  0
 12 13  1  0
 13 14  2  0
 15 13  1  0
 16 15  1  1
 16 17  1  0
 18 16  1  0
 18 27  1  0
 19 18  2  0
 20 21  1  0
 21 22  2  0
 21 31  1  0
 22 23  1  0
 23 24  2  0
 24 25  1  0
 26 25  1  6
 26 27  1  0
 26 28  1  0
 28 29  2  0
 28 32  1  0
 30 24  1  0
 31 30  2  0
M  END
$$$$
