FNY.pdb
     RDKit          3D

 32 33  0  0  1  0  0  0  0  0999 V2000
   24.3506  -11.4251  -18.0048 N   0  0  0  0  0  0  0  0  0  0  0  0
   24.0955  -10.9695  -16.6660 C   0  0  1  0  0  0  0  0  0  0  0  0
   25.3159  -10.2978  -16.0429 C   0  0  0  0  0  0  0  0  0  0  0  0
   26.5035  -11.1597  -16.0308 C   0  0  0  0  0  0  0  0  0  0  0  0
   26.5590  -12.3022  -15.2572 C   0  0  0  0  0  0  0  0  0  0  0  0
   27.6992  -13.0889  -15.2710 C   0  0  0  0  0  0  0  0  0  0  0  0
   28.7941  -12.7612  -16.0432 C   0  0  0  0  0  0  0  0  0  0  0  0
   28.7566  -11.6097  -16.8317 C   0  0  0  0  0  0  0  0  0  0  0  0
   27.6164  -10.8352  -16.8098 C   0  0  0  0  0  0  0  0  0  0  0  0
   22.9943   -9.9921  -16.6948 C   0  0  0  0  0  0  0  0  0  0  0  0
   22.5650   -9.5926  -17.7966 O   0  0  0  0  0  0  0  0  0  0  0  0
   18.7827   -7.1937  -15.0917 N   0  0  0  0  0  0  0  0  0  0  0  0
   18.8342   -8.6005  -14.9271 C   0  0  0  0  0  0  0  0  0  0  0  0
   17.7248   -9.1806  -14.6416 O   0  0  0  0  0  0  0  0  0  0  0  0
   20.0792   -9.3779  -15.0708 C   0  0  0  0  0  0  0  0  0  0  0  0
   21.2809   -8.6222  -15.4653 C   0  0  2  0  0  0  0  0  0  0  0  0
   22.4300   -9.5116  -15.4982 N   0  0  0  0  0  0  0  0  0  0  0  0
   21.6196   -7.4370  -14.6687 C   0  0  0  0  0  0  0  0  0  0  0  0
   22.3861   -7.5822  -13.6838 O   0  0  0  0  0  0  0  0  0  0  0  0
   23.6885   -2.9804  -19.8557 O   0  0  0  0  0  0  0  0  0  0  0  0
   23.5724   -3.4188  -18.5376 C   0  0  0  0  0  0  0  0  0  0  0  0
   23.4628   -2.5592  -17.4675 C   0  0  0  0  0  0  0  0  0  0  0  0
   23.3515   -3.0568  -16.1864 C   0  0  0  0  0  0  0  0  0  0  0  0
   23.3489   -4.4188  -15.9693 C   0  0  0  0  0  0  0  0  0  0  0  0
   23.2257   -4.9072  -14.5581 C   0  0  0  0  0  0  0  0  0  0  0  0
   21.7484   -5.0214  -14.2446 C   0  0  2  0  0  0  0  0  0  0  0  0
   21.1392   -6.1332  -14.9348 N   0  0  0  0  0  0  0  0  0  0  0  0
   21.0337   -3.7539  -14.5646 C   0  0  0  0  0  0  0  0  0  0  0  0
   20.0776   -3.7201  -15.3749 O   0  0  0  0  0  0  0  0  0  0  0  0
   23.4568   -5.3049  -17.0187 C   0  0  0  0  0  0  0  0  0  0  0  0
   23.5686   -4.7778  -18.3064 C   0  0  0  0  0  0  0  0  0  0  0  0
   21.4545   -2.5947  -13.9368 O   0  0  0  0  0  0  0  0  0  0  0  0
  2  1  1  6
  3  4  1  0
  3  2  1  0
  4  5  2  0
  5  6  1  0
  7  6  2  0
  8  7  1  0
  9  4  1  0
  9  8  2  0
 10  2  1  0
 10 17  1  0
 11 10  2  0
 12 13  1  0
 13 14  2  0
 15 13  1  0
 16 15  1  1
 16 17  1  0
 18 16  1  0
 18 27  1  0
 19 18  2  0
 20 21  1  0
 21 22  2  0
 21 31  1  0
 22 23  1  0
 23 24  2  0
 24 25  1  0
 26 25  1  6
 26 27  1  0
 26 28  1  0
 28 29  2  0
 28 32  1  0
 30 24  1  0
 31 30  2  0
M  END
$$$$
