FNY.pdb
     RDKit          3D

 32 33  0  0  1  0  0  0  0  0999 V2000
   29.0557  -21.4619   -9.1971 N   0  0  0  0  0  0  0  0  0  0  0  0
   27.6433  -21.2185   -9.0923 C   0  0  1  0  0  0  0  0  0  0  0  0
   27.3236  -20.0855   -8.1214 C   0  0  0  0  0  0  0  0  0  0  0  0
   28.1189  -20.1418   -6.8895 C   0  0  0  0  0  0  0  0  0  0  0  0
   29.0357  -21.1503   -6.6671 C   0  0  0  0  0  0  0  0  0  0  0  0
   29.7659  -21.1704   -5.4900 C   0  0  0  0  0  0  0  0  0  0  0  0
   29.6026  -20.2019   -4.5216 C   0  0  0  0  0  0  0  0  0  0  0  0
   28.6802  -19.1745   -4.7286 C   0  0  0  0  0  0  0  0  0  0  0  0
   27.9598  -19.1652   -5.9039 C   0  0  0  0  0  0  0  0  0  0  0  0
   27.1213  -20.8512  -10.4194 C   0  0  0  0  0  0  0  0  0  0  0  0
   27.9071  -20.4004  -11.2781 O   0  0  0  0  0  0  0  0  0  0  0  0
   27.1492  -19.8064  -13.9309 N   0  0  0  0  0  0  0  0  0  0  0  0
   26.9589  -21.2094  -13.8676 C   0  0  0  0  0  0  0  0  0  0  0  0
   27.6759  -21.9170  -14.6638 O   0  0  0  0  0  0  0  0  0  0  0  0
   25.9980  -21.8459  -12.9475 C   0  0  0  0  0  0  0  0  0  0  0  0
   25.2300  -20.9411  -12.0744 C   0  0  2  0  0  0  0  0  0  0  0  0
   25.7549  -21.0043  -10.7205 N   0  0  0  0  0  0  0  0  0  0  0  0
   23.7749  -21.1271  -12.0295 C   0  0  0  0  0  0  0  0  0  0  0  0
   23.3019  -21.9066  -11.1649 O   0  0  0  0  0  0  0  0  0  0  0  0
   15.2591  -21.2569  -11.9479 O   0  0  0  0  0  0  0  0  0  0  0  0
   16.6067  -20.9003  -11.9533 C   0  0  0  0  0  0  0  0  0  0  0  0
   17.2000  -20.2245  -12.9959 C   0  0  0  0  0  0  0  0  0  0  0  0
   18.5393  -19.9011  -12.9404 C   0  0  0  0  0  0  0  0  0  0  0  0
   19.2925  -20.2527  -11.8399 C   0  0  0  0  0  0  0  0  0  0  0  0
   20.7432  -19.8778  -11.8297 C   0  0  0  0  0  0  0  0  0  0  0  0
   21.4596  -20.8098  -12.7846 C   0  0  2  0  0  0  0  0  0  0  0  0
   22.8615  -20.4852  -12.8984 N   0  0  0  0  0  0  0  0  0  0  0  0
   20.8120  -20.8027  -14.1264 C   0  0  0  0  0  0  0  0  0  0  0  0
   20.9739  -19.8576  -14.9340 O   0  0  0  0  0  0  0  0  0  0  0  0
   18.7283  -20.9293  -10.7806 C   0  0  0  0  0  0  0  0  0  0  0  0
   17.3711  -21.2458  -10.8594 C   0  0  0  0  0  0  0  0  0  0  0  0
   20.0146  -21.8809  -14.4683 O   0  0  0  0  0  0  0  0  0  0  0  0
  2  1  1  6
  3  4  1  0
  3  2  1  0
  4  5  2  0
  5  6  1  0
  7  6  2  0
  8  7  1  0
  9  4  1  0
  9  8  2  0
 10  2  1  0
 10 17  1  0
 11 10  2  0
 12 13  1  0
 13 14  2  0
 15 13  1  0
 16 15  1  6
 16 17  1  0
 18 16  1  0
 18 27  1  0
 19 18  2  0
 20 21  1  0
 21 22  2  0
 21 31  1  0
 22 23  1  0
 23 24  2  0
 24 25  1  0
 26 25  1  1
 26 27  1  0
 26 28  1  0
 28 29  2  0
 28 32  1  0
 30 24  1  0
 31 30  2  0
M  END
$$$$
