CKC.pdb
     RDKit          3D

 22 21  0  0  1  0  0  0  0  0999 V2000
   29.2422  -22.5612  -17.6338 N   0  0  0  0  0  0  0  0  0  0  0  0
   28.1335  -23.1799  -16.8864 C   0  0  1  0  0  0  0  0  0  0  0  0
   28.7456  -24.2122  -15.9577 C   0  0  0  0  0  0  0  0  0  0  0  0
   29.1959  -25.6979  -16.8725 S   0  0  0  0  0  0  0  0  0  0  0  0
   27.4101  -22.1104  -16.1924 C   0  0  0  0  0  0  0  0  0  0  0  0
   28.0586  -21.0896  -15.8040 O   0  0  0  0  0  0  0  0  0  0  0  0
   26.0204  -22.1046  -15.9062 N   0  0  0  0  0  0  0  0  0  0  0  0
   25.4164  -20.9351  -15.2511 C   0  0  1  0  0  0  0  0  0  0  0  0
   24.3531  -20.3165  -16.1495 C   0  0  0  0  0  0  0  0  0  0  0  0
   23.6956  -19.1573  -15.4493 C   0  0  0  0  0  0  0  0  0  0  0  0
   22.5774  -18.6654  -16.3466 C   0  0  0  0  0  0  0  0  0  0  0  0
   21.9532  -17.4120  -15.7638 C   0  0  0  0  0  0  0  0  0  0  0  0
   20.8605  -16.9835  -16.6262 N   0  0  0  0  0  0  0  0  0  0  0  0
   24.7521  -21.3980  -14.0150 C   0  0  0  0  0  0  0  0  0  0  0  0
   23.9317  -22.3734  -14.0224 O   0  0  0  0  0  0  0  0  0  0  0  0
   24.9882  -20.7880  -12.7619 N   0  0  0  0  0  0  0  0  0  0  0  0
   24.3053  -21.2242  -11.5430 C   0  0  1  0  0  0  0  0  0  0  0  0
   25.1735  -20.7245  -10.3823 C   0  0  0  0  0  0  0  0  0  0  0  0
   26.7082  -21.6971  -10.4267 S   0  0  0  0  0  0  0  0  0  0  0  0
   22.9755  -20.5723  -11.5264 C   0  0  0  0  0  0  0  0  0  0  0  0
   22.7992  -19.6044  -12.3284 O   0  0  0  0  0  0  0  0  0  0  0  0
   21.9427  -20.9617  -10.6964 O   0  0  0  0  0  0  0  0  0  0  0  0
  2  1  1  1
  2  3  1  0
  2  5  1  0
  4  3  1  0
  5  6  2  0
  7  8  1  0
  7  5  1  0
  8  9  1  6
 10  9  1  0
 11 12  1  0
 11 10  1  0
 13 12  1  0
 14 15  2  0
 14  8  1  0
 16 14  1  0
 17 16  1  0
 17 20  1  0
 17 18  1  1
 19 18  1  0
 20 22  1  0
 21 20  2  0
M  END
$$$$
