CKC.pdb
     RDKit          3D

 22 21  0  0  1  0  0  0  0  0999 V2000
   18.7752  -24.9757   -7.0738 N   0  0  0  0  0  0  0  0  0  0  0  0
   17.3509  -25.1599   -6.7454 C   0  0  1  0  0  0  0  0  0  0  0  0
   16.9275  -26.4916   -7.3372 C   0  0  0  0  0  0  0  0  0  0  0  0
   16.9643  -26.4240   -9.1375 S   0  0  0  0  0  0  0  0  0  0  0  0
   17.2147  -25.0869   -5.2877 C   0  0  0  0  0  0  0  0  0  0  0  0
   18.2636  -25.1537   -4.5744 O   0  0  0  0  0  0  0  0  0  0  0  0
   15.9940  -24.9443   -4.5788 N   0  0  0  0  0  0  0  0  0  0  0  0
   16.0180  -24.6234   -3.1441 C   0  0  1  0  0  0  0  0  0  0  0  0
   14.8708  -23.6847   -2.7931 C   0  0  0  0  0  0  0  0  0  0  0  0
   14.9517  -23.2894   -1.3428 C   0  0  0  0  0  0  0  0  0  0  0  0
   13.8559  -22.2727   -1.0918 C   0  0  0  0  0  0  0  0  0  0  0  0
   13.8984  -21.8043    0.3500 C   0  0  0  0  0  0  0  0  0  0  0  0
   12.8887  -20.7720    0.5414 N   0  0  0  0  0  0  0  0  0  0  0  0
   15.8211  -25.8805   -2.3929 C   0  0  0  0  0  0  0  0  0  0  0  0
   14.9188  -26.7195   -2.7191 O   0  0  0  0  0  0  0  0  0  0  0  0
   16.6183  -26.2208   -1.2762 N   0  0  0  0  0  0  0  0  0  0  0  0
   16.4467  -27.4816   -0.5529 C   0  0  1  0  0  0  0  0  0  0  0  0
   17.8632  -28.0206   -0.3214 C   0  0  0  0  0  0  0  0  0  0  0  0
   18.5762  -28.3274   -1.9648 S   0  0  0  0  0  0  0  0  0  0  0  0
   15.7857  -27.1641    0.7339 C   0  0  0  0  0  0  0  0  0  0  0  0
   15.4479  -25.9556    0.9245 O   0  0  0  0  0  0  0  0  0  0  0  0
   15.5266  -28.1029    1.7131 O   0  0  0  0  0  0  0  0  0  0  0  0
  2  1  1  1
  2  3  1  0
  2  5  1  0
  4  3  1  0
  5  6  2  0
  7  8  1  0
  7  5  1  0
  8  9  1  6
 10  9  1  0
 11 12  1  0
 11 10  1  0
 13 12  1  0
 14 15  2  0
 14  8  1  0
 16 14  1  0
 17 16  1  0
 17 20  1  0
 17 18  1  1
 19 18  1  0
 20 22  1  0
 21 20  2  0
M  END
$$$$
