CKC.pdb
     RDKit          3D

 22 21  0  0  1  0  0  0  0  0999 V2000
   25.2190  -18.2269  -16.1820 N   0  0  0  0  0  0  0  0  0  0  0  0
   25.1809  -16.9434  -15.4599 C   0  0  1  0  0  0  0  0  0  0  0  0
   26.4676  -16.2098  -15.7902 C   0  0  0  0  0  0  0  0  0  0  0  0
   27.8846  -17.0671  -15.0801 S   0  0  0  0  0  0  0  0  0  0  0  0
   23.9679  -16.2325  -15.8747 C   0  0  0  0  0  0  0  0  0  0  0  0
   23.8127  -15.9607  -17.1057 O   0  0  0  0  0  0  0  0  0  0  0  0
   22.9238  -15.8089  -15.0125 N   0  0  0  0  0  0  0  0  0  0  0  0
   21.7438  -15.1348  -15.5739 C   0  0  1  0  0  0  0  0  0  0  0  0
   20.6089  -15.1223  -14.5579 C   0  0  0  0  0  0  0  0  0  0  0  0
   19.3146  -15.5061  -15.2242 C   0  0  0  0  0  0  0  0  0  0  0  0
   19.4504  -16.9472  -15.6742 C   0  0  0  0  0  0  0  0  0  0  0  0
   18.2082  -17.7313  -15.2966 C   0  0  0  0  0  0  0  0  0  0  0  0
   18.3788  -19.1163  -15.7141 N   0  0  0  0  0  0  0  0  0  0  0  0
   22.1127  -13.7326  -15.8586 C   0  0  0  0  0  0  0  0  0  0  0  0
   22.9079  -13.0841  -15.1024 O   0  0  0  0  0  0  0  0  0  0  0  0
   21.6071  -13.0358  -16.9797 N   0  0  0  0  0  0  0  0  0  0  0  0
   22.0190  -11.6674  -17.2962 C   0  0  1  0  0  0  0  0  0  0  0  0
   22.0437  -11.5876  -18.8270 C   0  0  0  0  0  0  0  0  0  0  0  0
   23.6671  -12.2133  -19.3527 S   0  0  0  0  0  0  0  0  0  0  0  0
   20.9924  -10.7583  -16.7365 C   0  0  0  0  0  0  0  0  0  0  0  0
   19.8652  -11.2684  -16.4531 O   0  0  0  0  0  0  0  0  0  0  0  0
   21.2021   -9.4115  -16.5146 O   0  0  0  0  0  0  0  0  0  0  0  0
  2  1  1  6
  2  3  1  0
  2  5  1  0
  4  3  1  0
  5  6  2  0
  7  8  1  0
  7  5  1  0
  8  9  1  1
 10  9  1  0
 11 12  1  0
 11 10  1  0
 13 12  1  0
 14 15  2  0
 14  8  1  0
 16 14  1  0
 17 16  1  0
 17 20  1  0
 17 18  1  6
 19 18  1  0
 20 22  1  0
 21 20  2  0
M  END
$$$$
