CKC.pdb
     RDKit          3D

 22 21  0  0  1  0  0  0  0  0999 V2000
   16.9096  -11.4073  -14.7502 N   0  0  0  0  0  0  0  0  0  0  0  0
   17.0791  -10.2873  -15.6923 C   0  0  1  0  0  0  0  0  0  0  0  0
   15.9156   -9.3391  -15.4686 C   0  0  0  0  0  0  0  0  0  0  0  0
   14.3843  -10.0598  -16.0872 S   0  0  0  0  0  0  0  0  0  0  0  0
   18.3925   -9.6866  -15.4414 C   0  0  0  0  0  0  0  0  0  0  0  0
   18.7406   -9.4643  -14.2403 O   0  0  0  0  0  0  0  0  0  0  0  0
   19.3365   -9.3212  -16.4356 N   0  0  0  0  0  0  0  0  0  0  0  0
   20.6313   -8.7504  -16.0360 C   0  0  1  0  0  0  0  0  0  0  0  0
   21.6826   -9.0264  -17.1031 C   0  0  0  0  0  0  0  0  0  0  0  0
   22.2009  -10.4332  -16.9662 C   0  0  0  0  0  0  0  0  0  0  0  0
   23.1635  -10.6715  -18.1126 C   0  0  0  0  0  0  0  0  0  0  0  0
   23.6920  -12.0923  -18.0639 C   0  0  0  0  0  0  0  0  0  0  0  0
   24.7392  -12.2414  -19.0653 N   0  0  0  0  0  0  0  0  0  0  0  0
   20.4692   -7.2857  -15.9275 C   0  0  0  0  0  0  0  0  0  0  0  0
   19.5759   -6.6614  -16.5885 O   0  0  0  0  0  0  0  0  0  0  0  0
   21.2916   -6.4991  -15.0889 N   0  0  0  0  0  0  0  0  0  0  0  0
   21.1043   -5.0543  -14.9485 C   0  0  1  0  0  0  0  0  0  0  0  0
   19.7367   -4.8789  -14.2781 C   0  0  0  0  0  0  0  0  0  0  0  0
   19.6407   -3.1449  -13.7420 S   0  0  0  0  0  0  0  0  0  0  0  0
   22.1893   -4.5529  -14.0740 C   0  0  0  0  0  0  0  0  0  0  0  0
   22.5960   -5.3314  -13.1577 O   0  0  0  0  0  0  0  0  0  0  0  0
   22.7650   -3.3047  -14.2080 O   0  0  0  0  0  0  0  0  0  0  0  0
  2  1  1  1
  2  3  1  0
  2  5  1  0
  4  3  1  0
  5  6  2  0
  7  8  1  0
  7  5  1  0
  8  9  1  6
 10  9  1  0
 11 12  1  0
 11 10  1  0
 13 12  1  0
 14 15  2  0
 14  8  1  0
 16 14  1  0
 17 16  1  0
 17 20  1  0
 17 18  1  1
 19 18  1  0
 20 22  1  0
 21 20  2  0
M  END
$$$$
