CKC.pdb
     RDKit          3D

 22 21  0  0  1  0  0  0  0  0999 V2000
   22.7915  -11.7246  -16.3872 N   0  0  0  0  0  0  0  0  0  0  0  0
   21.7396  -11.5067  -15.3790 C   0  0  1  0  0  0  0  0  0  0  0  0
   22.4260  -11.4486  -14.0268 C   0  0  0  0  0  0  0  0  0  0  0  0
   23.3911   -9.9348  -13.8720 S   0  0  0  0  0  0  0  0  0  0  0  0
   21.0250  -10.2778  -15.7364 C   0  0  0  0  0  0  0  0  0  0  0  0
   21.5767   -9.4652  -16.5417 O   0  0  0  0  0  0  0  0  0  0  0  0
   19.7438   -9.8993  -15.2584 N   0  0  0  0  0  0  0  0  0  0  0  0
   19.1574   -8.6191  -15.6815 C   0  0  1  0  0  0  0  0  0  0  0  0
   17.6414   -8.6592  -15.5390 C   0  0  0  0  0  0  0  0  0  0  0  0
   17.0413   -7.3711  -16.0360 C   0  0  0  0  0  0  0  0  0  0  0  0
   15.5399   -7.4753  -15.8556 C   0  0  0  0  0  0  0  0  0  0  0  0
   14.8614   -6.2318  -16.3974 C   0  0  0  0  0  0  0  0  0  0  0  0
   13.4181   -6.4219  -16.3489 N   0  0  0  0  0  0  0  0  0  0  0  0
   19.6694   -7.5642  -14.7823 C   0  0  0  0  0  0  0  0  0  0  0  0
   20.2273   -7.8460  -13.6715 O   0  0  0  0  0  0  0  0  0  0  0  0
   19.5696   -6.1910  -15.1022 N   0  0  0  0  0  0  0  0  0  0  0  0
   20.2511   -5.1583  -14.3203 C   0  0  1  0  0  0  0  0  0  0  0  0
   21.7496   -5.4361  -14.4871 C   0  0  0  0  0  0  0  0  0  0  0  0
   22.6245   -4.0528  -13.6970 S   0  0  0  0  0  0  0  0  0  0  0  0
   19.8880   -3.8489  -14.9097 C   0  0  0  0  0  0  0  0  0  0  0  0
   19.7029   -3.8144  -16.1649 O   0  0  0  0  0  0  0  0  0  0  0  0
   19.7454   -2.6906  -14.1713 O   0  0  0  0  0  0  0  0  0  0  0  0
  2  1  1  6
  2  3  1  0
  2  5  1  0
  4  3  1  0
  5  6  2  0
  7  8  1  0
  7  5  1  0
  8  9  1  1
 10  9  1  0
 11 12  1  0
 11 10  1  0
 13 12  1  0
 14 15  2  0
 14  8  1  0
 16 14  1  0
 17 16  1  0
 17 20  1  0
 17 18  1  6
 19 18  1  0
 20 22  1  0
 21 20  2  0
M  END
$$$$
