CKC.pdb
     RDKit          3D

 22 21  0  0  1  0  0  0  0  0999 V2000
   23.0262  -10.1705  -20.0452 N   0  0  0  0  0  0  0  0  0  0  0  0
   23.5564   -9.9592  -18.6870 C   0  0  1  0  0  0  0  0  0  0  0  0
   24.9014   -9.2726  -18.8373 C   0  0  0  0  0  0  0  0  0  0  0  0
   26.1563  -10.4500  -19.3721 S   0  0  0  0  0  0  0  0  0  0  0  0
   22.5693   -9.1757  -17.9383 C   0  0  0  0  0  0  0  0  0  0  0  0
   21.9979   -8.2015  -18.5195 O   0  0  0  0  0  0  0  0  0  0  0  0
   22.1799   -9.4067  -16.5936 N   0  0  0  0  0  0  0  0  0  0  0  0
   21.1536   -8.5543  -15.9756 C   0  0  1  0  0  0  0  0  0  0  0  0
   20.1847   -9.4005  -15.1599 C   0  0  0  0  0  0  0  0  0  0  0  0
   19.1347   -9.9957  -16.0596 C   0  0  0  0  0  0  0  0  0  0  0  0
   18.2577  -10.8848  -15.2006 C   0  0  0  0  0  0  0  0  0  0  0  0
   17.1319  -11.4684  -16.0326 C   0  0  0  0  0  0  0  0  0  0  0  0
   16.2613  -12.2517  -15.1664 N   0  0  0  0  0  0  0  0  0  0  0  0
   21.8318   -7.6230  -15.0504 C   0  0  0  0  0  0  0  0  0  0  0  0
   22.7295   -8.0229  -14.2387 O   0  0  0  0  0  0  0  0  0  0  0  0
   21.5245   -6.2437  -15.0141 N   0  0  0  0  0  0  0  0  0  0  0  0
   22.2469   -5.3079  -14.1511 C   0  0  1  0  0  0  0  0  0  0  0  0
   23.4317   -4.8077  -14.9857 C   0  0  0  0  0  0  0  0  0  0  0  0
   22.7304   -4.0668  -16.4899 S   0  0  0  0  0  0  0  0  0  0  0  0
   21.3197   -4.1979  -13.8323 C   0  0  0  0  0  0  0  0  0  0  0  0
   20.1568   -4.2565  -14.3375 O   0  0  0  0  0  0  0  0  0  0  0  0
   21.6563   -3.1267  -13.0282 O   0  0  0  0  0  0  0  0  0  0  0  0
  2  1  1  6
  2  3  1  0
  2  5  1  0
  4  3  1  0
  5  6  2  0
  7  8  1  0
  7  5  1  0
  8  9  1  1
 10  9  1  0
 11 12  1  0
 11 10  1  0
 13 12  1  0
 14 15  2  0
 14  8  1  0
 16 14  1  0
 17 16  1  0
 17 20  1  0
 17 18  1  6
 19 18  1  0
 20 22  1  0
 21 20  2  0
M  END
$$$$
