CKC.pdb
     RDKit          3D

 22 21  0  0  1  0  0  0  0  0999 V2000
   26.0781  -22.5292  -12.3283 N   0  0  0  0  0  0  0  0  0  0  0  0
   25.1592  -21.3825  -12.2227 C   0  0  1  0  0  0  0  0  0  0  0  0
   25.8375  -20.3498  -11.3417 C   0  0  0  0  0  0  0  0  0  0  0  0
   27.1322  -19.4916  -12.2550 S   0  0  0  0  0  0  0  0  0  0  0  0
   24.8747  -20.9106  -13.5810 C   0  0  0  0  0  0  0  0  0  0  0  0
   25.4876  -21.4505  -14.5537 O   0  0  0  0  0  0  0  0  0  0  0  0
   23.9572  -19.8837  -13.9230 N   0  0  0  0  0  0  0  0  0  0  0  0
   23.6751  -19.6003  -15.3379 C   0  0  1  0  0  0  0  0  0  0  0  0
   22.2136  -19.2105  -15.5177 C   0  0  0  0  0  0  0  0  0  0  0  0
   21.4059  -20.4110  -15.9331 C   0  0  0  0  0  0  0  0  0  0  0  0
   20.0026  -19.9256  -16.2377 C   0  0  0  0  0  0  0  0  0  0  0  0
   19.1644  -21.0635  -16.7880 C   0  0  0  0  0  0  0  0  0  0  0  0
   17.8135  -20.5784  -17.0354 N   0  0  0  0  0  0  0  0  0  0  0  0
   24.5052  -18.4479  -15.7458 C   0  0  0  0  0  0  0  0  0  0  0  0
   24.6216  -17.4143  -15.0092 O   0  0  0  0  0  0  0  0  0  0  0  0
   25.2127  -18.4277  -16.9694 N   0  0  0  0  0  0  0  0  0  0  0  0
   26.0906  -17.3175  -17.3424 C   0  0  1  0  0  0  0  0  0  0  0  0
   27.5142  -17.8850  -17.2999 C   0  0  0  0  0  0  0  0  0  0  0  0
   28.1980  -17.4487  -15.6734 S   0  0  0  0  0  0  0  0  0  0  0  0
   25.7251  -16.9110  -18.7189 C   0  0  0  0  0  0  0  0  0  0  0  0
   25.1958  -17.7960  -19.4588 O   0  0  0  0  0  0  0  0  0  0  0  0
   25.9299  -15.6411  -19.2215 O   0  0  0  0  0  0  0  0  0  0  0  0
  2  1  1  6
  2  3  1  0
  2  5  1  0
  4  3  1  0
  5  6  2  0
  7  8  1  0
  7  5  1  0
  8  9  1  1
 10  9  1  0
 11 12  1  0
 11 10  1  0
 13 12  1  0
 14 15  2  0
 14  8  1  0
 16 14  1  0
 17 16  1  0
 17 20  1  0
 17 18  1  6
 19 18  1  0
 20 22  1  0
 21 20  2  0
M  END
$$$$
