CKC.pdb
     RDKit          3D

 22 21  0  0  1  0  0  0  0  0999 V2000
   13.2984  -11.0893   -8.2945 N   0  0  0  0  0  0  0  0  0  0  0  0
   13.3353   -9.6367   -8.5373 C   0  0  1  0  0  0  0  0  0  0  0  0
   12.9477   -8.9591   -7.2359 C   0  0  0  0  0  0  0  0  0  0  0  0
   13.1234   -7.1713   -7.3768 S   0  0  0  0  0  0  0  0  0  0  0  0
   14.6812   -9.2957   -9.0074 C   0  0  0  0  0  0  0  0  0  0  0  0
   15.6806   -9.6917   -8.3309 O   0  0  0  0  0  0  0  0  0  0  0  0
   14.9830   -8.5481  -10.1749 N   0  0  0  0  0  0  0  0  0  0  0  0
   16.3849   -8.2689  -10.5191 C   0  0  1  0  0  0  0  0  0  0  0  0
   16.7696   -8.9967  -11.8007 C   0  0  0  0  0  0  0  0  0  0  0  0
   18.1790   -8.6419  -12.1934 C   0  0  0  0  0  0  0  0  0  0  0  0
   18.4776   -9.3597  -13.4946 C   0  0  0  0  0  0  0  0  0  0  0  0
   19.8621   -8.9882  -13.9900 C   0  0  0  0  0  0  0  0  0  0  0  0
   20.1369   -9.7213  -15.2182 N   0  0  0  0  0  0  0  0  0  0  0  0
   16.5130   -6.8177  -10.7659 C   0  0  0  0  0  0  0  0  0  0  0  0
   15.6511   -6.1782  -11.4534 O   0  0  0  0  0  0  0  0  0  0  0  0
   17.5932   -6.0616  -10.2561 N   0  0  0  0  0  0  0  0  0  0  0  0
   17.7204   -4.6240  -10.5000 C   0  0  1  0  0  0  0  0  0  0  0  0
   17.7189   -3.9687   -9.1140 C   0  0  0  0  0  0  0  0  0  0  0  0
   18.0746   -2.2054   -9.3738 S   0  0  0  0  0  0  0  0  0  0  0  0
   19.0153   -4.4070  -11.1853 C   0  0  0  0  0  0  0  0  0  0  0  0
   19.9968   -5.1122  -10.7975 O   0  0  0  0  0  0  0  0  0  0  0  0
   19.1981   -3.4925  -12.2039 O   0  0  0  0  0  0  0  0  0  0  0  0
  2  1  1  1
  2  3  1  0
  2  5  1  0
  4  3  1  0
  5  6  2  0
  7  8  1  0
  7  5  1  0
  8  9  1  6
 10  9  1  0
 11 12  1  0
 11 10  1  0
 13 12  1  0
 14 15  2  0
 14  8  1  0
 16 14  1  0
 17 16  1  0
 17 20  1  0
 17 18  1  1
 19 18  1  0
 20 22  1  0
 21 20  2  0
M  END
$$$$
