CKC.pdb
     RDKit          3D

 22 21  0  0  1  0  0  0  0  0999 V2000
   25.6474  -11.2374  -18.1240 N   0  0  0  0  0  0  0  0  0  0  0  0
   25.0769  -11.1594  -16.7680 C   0  0  1  0  0  0  0  0  0  0  0  0
   26.1932  -10.7139  -15.8416 C   0  0  0  0  0  0  0  0  0  0  0  0
   27.3840  -12.0446  -15.6004 S   0  0  0  0  0  0  0  0  0  0  0  0
   23.9386  -10.2370  -16.8140 C   0  0  0  0  0  0  0  0  0  0  0  0
   24.0738   -9.1336  -17.4284 O   0  0  0  0  0  0  0  0  0  0  0  0
   22.6680  -10.4637  -16.2245 N   0  0  0  0  0  0  0  0  0  0  0  0
   21.5862   -9.4891  -16.4280 C   0  0  1  0  0  0  0  0  0  0  0  0
   20.2302  -10.1583  -16.2439 C   0  0  0  0  0  0  0  0  0  0  0  0
   19.9520  -11.0875  -17.3952 C   0  0  0  0  0  0  0  0  0  0  0  0
   18.6340  -11.7786  -17.1071 C   0  0  0  0  0  0  0  0  0  0  0  0
   18.2493  -12.6744  -18.2689 C   0  0  0  0  0  0  0  0  0  0  0  0
   18.9162  -13.9601  -18.1151 N   0  0  0  0  0  0  0  0  0  0  0  0
   21.7179   -8.4402  -15.3956 C   0  0  0  0  0  0  0  0  0  0  0  0
   21.9955   -8.7255  -14.1848 O   0  0  0  0  0  0  0  0  0  0  0  0
   21.5442   -7.0689  -15.6916 N   0  0  0  0  0  0  0  0  0  0  0  0
   21.7336   -6.0250  -14.6833 C   0  0  1  0  0  0  0  0  0  0  0  0
   22.7076   -5.0195  -15.3083 C   0  0  0  0  0  0  0  0  0  0  0  0
   22.8448   -3.6350  -14.1389 S   0  0  0  0  0  0  0  0  0  0  0  0
   20.4122   -5.4007  -14.4428 C   0  0  0  0  0  0  0  0  0  0  0  0
   19.6141   -5.3456  -15.4282 O   0  0  0  0  0  0  0  0  0  0  0  0
   20.0190   -4.8878  -13.2224 O   0  0  0  0  0  0  0  0  0  0  0  0
  2  1  1  6
  2  3  1  0
  2  5  1  0
  4  3  1  0
  5  6  2  0
  7  8  1  0
  7  5  1  0
  8  9  1  1
 10  9  1  0
 11 12  1  0
 11 10  1  0
 13 12  1  0
 14 15  2  0
 14  8  1  0
 16 14  1  0
 17 16  1  0
 17 20  1  0
 17 18  1  6
 19 18  1  0
 20 22  1  0
 21 20  2  0
M  END
$$$$
