CKC.pdb
     RDKit          3D

 22 21  0  0  1  0  0  0  0  0999 V2000
   27.1198  -21.7138  -10.8651 N   0  0  0  0  0  0  0  0  0  0  0  0
   25.6936  -21.3540  -10.7822 C   0  0  1  0  0  0  0  0  0  0  0  0
   25.5877  -20.1752   -9.8324 C   0  0  0  0  0  0  0  0  0  0  0  0
   23.8809  -19.9393   -9.3050 S   0  0  0  0  0  0  0  0  0  0  0  0
   25.2250  -21.0667  -12.1411 C   0  0  0  0  0  0  0  0  0  0  0  0
   26.0862  -20.8372  -13.0461 O   0  0  0  0  0  0  0  0  0  0  0  0
   23.8683  -21.0199  -12.5538 N   0  0  0  0  0  0  0  0  0  0  0  0
   23.5447  -20.7681  -13.9658 C   0  0  1  0  0  0  0  0  0  0  0  0
   22.0502  -20.9412  -14.2046 C   0  0  0  0  0  0  0  0  0  0  0  0
   21.7342  -20.7476  -15.6637 C   0  0  0  0  0  0  0  0  0  0  0  0
   20.2700  -21.0893  -15.8560 C   0  0  0  0  0  0  0  0  0  0  0  0
   19.8754  -20.8976  -17.3078 C   0  0  0  0  0  0  0  0  0  0  0  0
   18.5238  -21.4051  -17.5010 N   0  0  0  0  0  0  0  0  0  0  0  0
   23.8928  -19.3646  -14.2696 C   0  0  0  0  0  0  0  0  0  0  0  0
   23.6881  -18.4285  -13.4292 O   0  0  0  0  0  0  0  0  0  0  0  0
   24.4692  -18.9838  -15.5029 N   0  0  0  0  0  0  0  0  0  0  0  0
   25.1810  -17.7159  -15.6707 C   0  0  1  0  0  0  0  0  0  0  0  0
   26.3812  -17.7876  -14.7195 C   0  0  0  0  0  0  0  0  0  0  0  0
   27.3919  -16.3131  -15.0479 S   0  0  0  0  0  0  0  0  0  0  0  0
   25.6283  -17.6458  -17.0809 C   0  0  0  0  0  0  0  0  0  0  0  0
   25.8541  -18.7480  -17.6684 O   0  0  0  0  0  0  0  0  0  0  0  0
   25.8064  -16.4617  -17.7691 O   0  0  0  0  0  0  0  0  0  0  0  0
  2  1  1  6
  2  3  1  0
  2  5  1  0
  4  3  1  0
  5  6  2  0
  7  8  1  0
  7  5  1  0
  8  9  1  1
 10  9  1  0
 11 12  1  0
 11 10  1  0
 13 12  1  0
 14 15  2  0
 14  8  1  0
 16 14  1  0
 17 16  1  0
 17 20  1  0
 17 18  1  1
 19 18  1  0
 20 22  1  0
 21 20  2  0
M  END
$$$$
