CKC.pdb
     RDKit          3D

 22 21  0  0  1  0  0  0  0  0999 V2000
   14.7755  -11.1630  -11.0626 N   0  0  0  0  0  0  0  0  0  0  0  0
   14.9251   -9.7381  -11.4058 C   0  0  1  0  0  0  0  0  0  0  0  0
   15.2384   -9.0015  -10.1166 C   0  0  0  0  0  0  0  0  0  0  0  0
   13.7241   -8.6466   -9.2068 S   0  0  0  0  0  0  0  0  0  0  0  0
   15.9756   -9.6307  -12.4224 C   0  0  0  0  0  0  0  0  0  0  0  0
   16.9545  -10.4386  -12.3737 O   0  0  0  0  0  0  0  0  0  0  0  0
   16.0050   -8.6885  -13.4829 N   0  0  0  0  0  0  0  0  0  0  0  0
   17.0691   -8.7634  -14.4947 C   0  0  1  0  0  0  0  0  0  0  0  0
   16.5072   -8.4554  -15.8766 C   0  0  0  0  0  0  0  0  0  0  0  0
   17.6001   -8.5367  -16.9088 C   0  0  0  0  0  0  0  0  0  0  0  0
   17.5441   -9.9250  -17.5147 C   0  0  0  0  0  0  0  0  0  0  0  0
   18.6340  -10.0839  -18.5573 C   0  0  0  0  0  0  0  0  0  0  0  0
   18.4543  -11.3590  -19.2381 N   0  0  0  0  0  0  0  0  0  0  0  0
   18.0759   -7.7303  -14.1742 C   0  0  0  0  0  0  0  0  0  0  0  0
   17.7435   -6.6052  -13.6761 O   0  0  0  0  0  0  0  0  0  0  0  0
   19.4566   -7.9313  -14.4009 N   0  0  0  0  0  0  0  0  0  0  0  0
   20.4420   -6.8691  -14.1936 C   0  0  1  0  0  0  0  0  0  0  0  0
   21.7971   -7.5783  -14.0878 C   0  0  0  0  0  0  0  0  0  0  0  0
   21.8800   -8.2919  -12.4183 S   0  0  0  0  0  0  0  0  0  0  0  0
   20.3979   -5.9895  -15.3844 C   0  0  0  0  0  0  0  0  0  0  0  0
   21.1147   -4.9426  -15.3532 O   0  0  0  0  0  0  0  0  0  0  0  0
   19.6291   -6.2518  -16.5013 O   0  0  0  0  0  0  0  0  0  0  0  0
  2  1  1  1
  2  3  1  0
  2  5  1  0
  4  3  1  0
  5  6  2  0
  7  8  1  0
  7  5  1  0
  8  9  1  6
 10  9  1  0
 11 12  1  0
 11 10  1  0
 13 12  1  0
 14 15  2  0
 14  8  1  0
 16 14  1  0
 17 16  1  0
 17 20  1  0
 17 18  1  6
 19 18  1  0
 20 22  1  0
 21 20  2  0
M  END
$$$$
