CKC.pdb
     RDKit          3D

 22 21  0  0  1  0  0  0  0  0999 V2000
   23.5877  -12.6257  -17.3879 N   0  0  0  0  0  0  0  0  0  0  0  0
   22.5603  -12.0942  -16.4755 C   0  0  1  0  0  0  0  0  0  0  0  0
   23.0994  -12.2433  -15.0648 C   0  0  0  0  0  0  0  0  0  0  0  0
   22.8632  -13.9285  -14.4722 S   0  0  0  0  0  0  0  0  0  0  0  0
   22.2902  -10.7071  -16.8653 C   0  0  0  0  0  0  0  0  0  0  0  0
   23.2636   -9.9764  -17.2284 O   0  0  0  0  0  0  0  0  0  0  0  0
   21.0143  -10.0866  -16.8773 N   0  0  0  0  0  0  0  0  0  0  0  0
   20.8841   -8.6977  -17.3418 C   0  0  1  0  0  0  0  0  0  0  0  0
   19.6201   -8.5356  -18.1763 C   0  0  0  0  0  0  0  0  0  0  0  0
   19.5143   -7.1227  -18.6850 C   0  0  0  0  0  0  0  0  0  0  0  0
   18.2472   -7.0362  -19.5124 C   0  0  0  0  0  0  0  0  0  0  0  0
   18.1505   -5.6772  -20.1787 C   0  0  0  0  0  0  0  0  0  0  0  0
   16.9849   -5.6612  -21.0522 N   0  0  0  0  0  0  0  0  0  0  0  0
   20.7564   -7.8299  -16.1526 C   0  0  0  0  0  0  0  0  0  0  0  0
   20.1058   -8.2009  -15.1213 O   0  0  0  0  0  0  0  0  0  0  0  0
   21.3457   -6.5464  -16.0928 N   0  0  0  0  0  0  0  0  0  0  0  0
   21.2197   -5.6863  -14.9152 C   0  0  1  0  0  0  0  0  0  0  0  0
   22.6079   -5.6715  -14.2647 C   0  0  0  0  0  0  0  0  0  0  0  0
   22.5432   -4.4364  -12.9328 S   0  0  0  0  0  0  0  0  0  0  0  0
   20.8468   -4.3356  -15.3947 C   0  0  0  0  0  0  0  0  0  0  0  0
   21.2893   -3.9863  -16.5320 O   0  0  0  0  0  0  0  0  0  0  0  0
   20.0574   -3.4594  -14.6762 O   0  0  0  0  0  0  0  0  0  0  0  0
  2  1  1  6
  2  3  1  0
  2  5  1  0
  4  3  1  0
  5  6  2  0
  7  8  1  0
  7  5  1  0
  8  9  1  6
 10  9  1  0
 11 12  1  0
 11 10  1  0
 13 12  1  0
 14 15  2  0
 14  8  1  0
 16 14  1  0
 17 16  1  0
 17 20  1  0
 17 18  1  6
 19 18  1  0
 20 22  1  0
 21 20  2  0
M  END
$$$$
