CKC.pdb
     RDKit          3D

 22 21  0  0  1  0  0  0  0  0999 V2000
   23.5544  -16.9612  -18.4086 N   0  0  0  0  0  0  0  0  0  0  0  0
   23.4925  -16.8704  -16.9395 C   0  0  1  0  0  0  0  0  0  0  0  0
   22.4093  -15.8626  -16.6022 C   0  0  0  0  0  0  0  0  0  0  0  0
   23.1036  -14.2040  -16.4827 S   0  0  0  0  0  0  0  0  0  0  0  0
   23.2355  -18.2163  -16.4186 C   0  0  0  0  0  0  0  0  0  0  0  0
   22.3295  -18.9181  -16.9663 O   0  0  0  0  0  0  0  0  0  0  0  0
   23.9187  -18.8265  -15.3350 N   0  0  0  0  0  0  0  0  0  0  0  0
   23.5762  -20.2003  -14.9388 C   0  0  1  0  0  0  0  0  0  0  0  0
   24.7175  -20.8213  -14.1437 C   0  0  0  0  0  0  0  0  0  0  0  0
   24.3581  -22.2245  -13.7337 C   0  0  0  0  0  0  0  0  0  0  0  0
   24.9194  -23.1586  -14.7873 C   0  0  0  0  0  0  0  0  0  0  0  0
   24.4866  -24.5845  -14.5049 C   0  0  0  0  0  0  0  0  0  0  0  0
   24.9542  -25.4429  -15.5848 N   0  0  0  0  0  0  0  0  0  0  0  0
   22.3913  -20.1383  -14.0581 C   0  0  0  0  0  0  0  0  0  0  0  0
   22.2252  -19.1859  -13.2276 O   0  0  0  0  0  0  0  0  0  0  0  0
   21.3812  -21.1268  -14.0874 N   0  0  0  0  0  0  0  0  0  0  0  0
   20.1820  -21.0389  -13.2529 C   0  0  1  0  0  0  0  0  0  0  0  0
   19.4358  -19.7888  -13.7333 C   0  0  0  0  0  0  0  0  0  0  0  0
   17.8641  -19.7407  -12.8218 S   0  0  0  0  0  0  0  0  0  0  0  0
   19.3818  -22.2600  -13.5025 C   0  0  0  0  0  0  0  0  0  0  0  0
   19.5852  -22.8671  -14.5985 O   0  0  0  0  0  0  0  0  0  0  0  0
   18.4459  -22.7559  -12.6163 O   0  0  0  0  0  0  0  0  0  0  0  0
  2  1  1  6
  2  3  1  0
  2  5  1  0
  4  3  1  0
  5  6  2  0
  7  8  1  0
  7  5  1  0
  8  9  1  1
 10  9  1  0
 11 12  1  0
 11 10  1  0
 13 12  1  0
 14 15  2  0
 14  8  1  0
 16 14  1  0
 17 16  1  0
 17 20  1  0
 17 18  1  6
 19 18  1  0
 20 22  1  0
 21 20  2  0
M  END
$$$$
