CKC.pdb
     RDKit          3D

 22 21  0  0  1  0  0  0  0  0999 V2000
   17.9558  -19.0082  -14.4859 N   0  0  0  0  0  0  0  0  0  0  0  0
   18.3732  -18.3767  -15.7499 C   0  0  1  0  0  0  0  0  0  0  0  0
   17.1101  -17.9202  -16.4563 C   0  0  0  0  0  0  0  0  0  0  0  0
   16.0597  -16.9831  -15.3314 S   0  0  0  0  0  0  0  0  0  0  0  0
   19.2977  -17.2875  -15.4218 C   0  0  0  0  0  0  0  0  0  0  0  0
   19.0828  -16.6014  -14.3747 O   0  0  0  0  0  0  0  0  0  0  0  0
   20.4386  -16.9168  -16.1795 N   0  0  0  0  0  0  0  0  0  0  0  0
   21.2665  -15.7831  -15.7423 C   0  0  1  0  0  0  0  0  0  0  0  0
   22.7093  -15.9784  -16.1902 C   0  0  0  0  0  0  0  0  0  0  0  0
   23.5648  -14.8474  -15.6851 C   0  0  0  0  0  0  0  0  0  0  0  0
   24.9637  -15.0650  -16.2266 C   0  0  0  0  0  0  0  0  0  0  0  0
   25.8893  -13.9672  -15.7383 C   0  0  0  0  0  0  0  0  0  0  0  0
   27.2651  -14.3423  -16.0354 N   0  0  0  0  0  0  0  0  0  0  0  0
   20.7500  -14.5630  -16.3965 C   0  0  0  0  0  0  0  0  0  0  0  0
   20.3705  -14.5667  -17.6133 O   0  0  0  0  0  0  0  0  0  0  0  0
   20.6485  -13.3298  -15.7129 N   0  0  0  0  0  0  0  0  0  0  0  0
   20.0769  -12.1372  -16.3399 C   0  0  1  0  0  0  0  0  0  0  0  0
   18.7120  -11.9338  -15.6719 C   0  0  0  0  0  0  0  0  0  0  0  0
   18.2058  -10.2266  -16.0359 S   0  0  0  0  0  0  0  0  0  0  0  0
   20.9846  -11.0055  -16.0417 C   0  0  0  0  0  0  0  0  0  0  0  0
   21.5648  -11.0152  -14.9129 O   0  0  0  0  0  0  0  0  0  0  0  0
   21.2222   -9.9641  -16.9171 O   0  0  0  0  0  0  0  0  0  0  0  0
  2  1  1  1
  2  3  1  0
  2  5  1  0
  4  3  1  0
  5  6  2  0
  7  8  1  0
  7  5  1  0
  8  9  1  6
 10  9  1  0
 11 12  1  0
 11 10  1  0
 13 12  1  0
 14 15  2  0
 14  8  1  0
 16 14  1  0
 17 16  1  0
 17 20  1  0
 17 18  1  1
 19 18  1  0
 20 22  1  0
 21 20  2  0
M  END
$$$$
