CKC.pdb
     RDKit          3D

 22 21  0  0  1  0  0  0  0  0999 V2000
   17.7023  -12.5098  -15.5885 N   0  0  0  0  0  0  0  0  0  0  0  0
   18.0492  -11.3055  -16.3628 C   0  0  1  0  0  0  0  0  0  0  0  0
   16.8520  -10.3753  -16.2969 C   0  0  0  0  0  0  0  0  0  0  0  0
   15.5791  -10.8993  -17.4596 S   0  0  0  0  0  0  0  0  0  0  0  0
   19.2733  -10.7408  -15.7872 C   0  0  0  0  0  0  0  0  0  0  0  0
   19.3407  -10.5907  -14.5277 O   0  0  0  0  0  0  0  0  0  0  0  0
   20.4195  -10.3364  -16.5193 N   0  0  0  0  0  0  0  0  0  0  0  0
   21.5404   -9.6911  -15.8199 C   0  0  1  0  0  0  0  0  0  0  0  0
   22.8612  -10.0659  -16.4796 C   0  0  0  0  0  0  0  0  0  0  0  0
   23.2930  -11.4361  -16.0297 C   0  0  0  0  0  0  0  0  0  0  0  0
   24.6666  -11.6906  -16.6180 C   0  0  0  0  0  0  0  0  0  0  0  0
   25.1896  -13.0383  -16.1591 C   0  0  0  0  0  0  0  0  0  0  0  0
   26.5008  -13.2630  -16.7522 N   0  0  0  0  0  0  0  0  0  0  0  0
   21.3718   -8.2282  -15.9420 C   0  0  0  0  0  0  0  0  0  0  0  0
   20.8688   -7.6984  -16.9865 O   0  0  0  0  0  0  0  0  0  0  0  0
   21.7570   -7.3393  -14.9127 N   0  0  0  0  0  0  0  0  0  0  0  0
   21.5477   -5.8942  -15.0136 C   0  0  1  0  0  0  0  0  0  0  0  0
   20.0282   -5.7009  -15.0782 C   0  0  0  0  0  0  0  0  0  0  0  0
   19.7224   -3.9216  -14.8682 S   0  0  0  0  0  0  0  0  0  0  0  0
   22.1062   -5.2819  -13.7861 C   0  0  0  0  0  0  0  0  0  0  0  0
   22.0509   -5.9723  -12.7224 O   0  0  0  0  0  0  0  0  0  0  0  0
   22.6713   -4.0224  -13.7482 O   0  0  0  0  0  0  0  0  0  0  0  0
  2  1  1  1
  2  3  1  0
  2  5  1  0
  4  3  1  0
  5  6  2  0
  7  8  1  0
  7  5  1  0
  8  9  1  6
 10  9  1  0
 11 12  1  0
 11 10  1  0
 13 12  1  0
 14 15  2  0
 14  8  1  0
 16 14  1  0
 17 16  1  0
 17 20  1  0
 17 18  1  1
 19 18  1  0
 20 22  1  0
 21 20  2  0
M  END
$$$$
