TLW.pdb
     RDKit          3D

 30 31  0  0  1  0  0  0  0  0999 V2000
   22.6069  -24.1575  -16.9565 C   0  0  0  0  0  0  0  0  0  0  0  0
   23.2695  -23.5747  -15.7145 C   0  0  1  0  0  0  0  0  0  0  0  0
   22.5866  -24.0840  -14.6280 O   0  0  0  0  0  0  0  0  0  0  0  0
   24.7080  -23.9310  -15.7637 C   0  0  2  0  0  0  0  0  0  0  0  0
   24.9368  -25.3471  -15.9543 N   0  0  0  0  0  0  0  0  0  0  0  0
   25.5098  -23.3912  -14.6338 C   0  0  0  0  0  0  0  0  0  0  0  0
   25.8560  -24.1480  -13.6842 O   0  0  0  0  0  0  0  0  0  0  0  0
   28.6979  -18.2449  -13.5591 C   0  0  0  0  0  0  0  0  0  0  0  0
   28.1905  -19.5285  -12.8476 C   0  0  2  0  0  0  0  0  0  0  0  0
   29.4269  -20.3045  -12.4724 C   0  0  0  0  0  0  0  0  0  0  0  0
   27.4260  -20.2837  -13.8837 C   0  0  0  0  0  0  0  0  0  0  0  0
   26.7218  -21.5046  -13.4172 C   0  0  2  0  0  0  0  0  0  0  0  0
   25.9163  -22.0461  -14.5581 N   0  0  0  0  0  0  0  0  0  0  0  0
   25.8713  -21.4001  -12.2350 C   0  0  0  0  0  0  0  0  0  0  0  0
   24.6471  -21.0518  -12.4334 O   0  0  0  0  0  0  0  0  0  0  0  0
   26.2005  -21.6323  -10.8970 N   0  0  0  0  0  0  0  0  0  0  0  0
   25.2465  -21.6091   -9.7868 C   0  0  1  0  0  0  0  0  0  0  0  0
   26.0727  -21.6411   -8.5339 C   0  0  0  0  0  0  0  0  0  0  0  0
   26.5126  -20.3501   -7.9978 C   0  0  0  0  0  0  0  0  0  0  0  0
   26.1072  -19.1031   -8.4912 C   0  0  0  0  0  0  0  0  0  0  0  0
   26.6968  -18.1215   -7.8089 N   0  0  0  0  0  0  0  0  0  0  0  0
   27.4818  -18.6918   -6.8762 C   0  0  0  0  0  0  0  0  0  0  0  0
   28.2938  -18.1510   -5.9044 C   0  0  0  0  0  0  0  0  0  0  0  0
   29.0095  -18.9222   -5.0283 C   0  0  0  0  0  0  0  0  0  0  0  0
   28.9133  -20.3056   -5.1224 C   0  0  0  0  0  0  0  0  0  0  0  0
   28.1074  -20.8616   -6.0870 C   0  0  0  0  0  0  0  0  0  0  0  0
   27.3842  -20.0609   -6.9738 C   0  0  0  0  0  0  0  0  0  0  0  0
   24.2933  -20.5043   -9.9079 C   0  0  0  0  0  0  0  0  0  0  0  0
   23.1649  -20.6201   -9.3228 O   0  0  0  0  0  0  0  0  0  0  0  0
   24.4837  -19.3300  -10.5915 O   0  0  0  0  0  0  0  0  0  0  0  0
  2  1  1  6
  3  2  1  0
  4  6  1  0
  4  5  1  1
  4  2  1  0
  6  7  2  0
  9 11  1  0
  9  8  1  6
 10  9  1  0
 12 11  1  6
 12 14  1  0
 13 12  1  0
 13  6  1  0
 14 15  2  0
 16 17  1  0
 16 14  1  0
 17 28  1  0
 17 18  1  1
 19 18  1  0
 20 19  2  0
 21 22  1  0
 21 20  1  0
 22 27  2  0
 23 22  1  0
 23 24  2  0
 24 25  1  0
 25 26  2  0
 27 19  1  0
 27 26  1  0
 28 29  2  0
 28 30  1  0
M  END
$$$$
