TLW.pdb
     RDKit          3D

 30 31  0  0  1  0  0  0  0  0999 V2000
   26.2455  -24.2185  -19.5971 C   0  0  0  0  0  0  0  0  0  0  0  0
   26.1060  -23.5716  -18.2248 C   0  0  1  0  0  0  0  0  0  0  0  0
   25.5689  -24.5310  -17.3897 O   0  0  0  0  0  0  0  0  0  0  0  0
   27.4456  -23.0801  -17.8216 C   0  0  2  0  0  0  0  0  0  0  0  0
   28.4526  -24.1192  -17.8093 N   0  0  0  0  0  0  0  0  0  0  0  0
   27.4529  -22.2918  -16.5608 C   0  0  0  0  0  0  0  0  0  0  0  0
   28.0175  -22.7517  -15.5293 O   0  0  0  0  0  0  0  0  0  0  0  0
   29.1085  -18.1993  -15.3644 C   0  0  0  0  0  0  0  0  0  0  0  0
   27.8917  -18.2170  -16.3291 C   0  0  2  0  0  0  0  0  0  0  0  0
   27.6001  -16.7729  -16.6468 C   0  0  0  0  0  0  0  0  0  0  0  0
   26.7627  -18.7887  -15.5374 C   0  0  0  0  0  0  0  0  0  0  0  0
   26.8751  -20.2254  -15.1806 C   0  0  2  0  0  0  0  0  0  0  0  0
   26.8481  -21.0263  -16.4463 N   0  0  0  0  0  0  0  0  0  0  0  0
   25.9054  -20.7797  -14.2402 C   0  0  0  0  0  0  0  0  0  0  0  0
   24.7835  -21.1757  -14.7339 O   0  0  0  0  0  0  0  0  0  0  0  0
   26.0249  -20.9488  -12.8583 N   0  0  0  0  0  0  0  0  0  0  0  0
   25.0396  -21.6243  -12.0120 C   0  0  1  0  0  0  0  0  0  0  0  0
   25.8082  -22.1765  -10.8467 C   0  0  0  0  0  0  0  0  0  0  0  0
   26.1818  -21.2303   -9.7918 C   0  0  0  0  0  0  0  0  0  0  0  0
   25.2722  -20.4699   -9.0453 C   0  0  0  0  0  0  0  0  0  0  0  0
   25.9210  -19.6897   -8.1810 N   0  0  0  0  0  0  0  0  0  0  0  0
   27.2379  -19.9180   -8.3392 C   0  0  0  0  0  0  0  0  0  0  0  0
   28.3426  -19.3991   -7.7016 C   0  0  0  0  0  0  0  0  0  0  0  0
   29.6199  -19.7851   -8.0079 C   0  0  0  0  0  0  0  0  0  0  0  0
   29.8104  -20.7385   -9.0013 C   0  0  0  0  0  0  0  0  0  0  0  0
   28.7184  -21.2664   -9.6478 C   0  0  0  0  0  0  0  0  0  0  0  0
   27.4215  -20.8614   -9.3241 C   0  0  0  0  0  0  0  0  0  0  0  0
   23.9076  -20.7536  -11.6891 C   0  0  0  0  0  0  0  0  0  0  0  0
   24.0258  -19.5051  -11.9260 O   0  0  0  0  0  0  0  0  0  0  0  0
   22.7051  -21.1392  -11.1526 O   0  0  0  0  0  0  0  0  0  0  0  0
  2  1  1  6
  3  2  1  0
  4  6  1  0
  4  5  1  1
  4  2  1  0
  6  7  2  0
  9 11  1  0
  9  8  1  1
 10  9  1  0
 12 11  1  6
 12 14  1  0
 13 12  1  0
 13  6  1  0
 14 15  2  0
 16 17  1  0
 16 14  1  0
 17 28  1  0
 17 18  1  1
 19 18  1  0
 20 19  2  0
 21 22  1  0
 21 20  1  0
 22 27  2  0
 23 22  1  0
 23 24  2  0
 24 25  1  0
 25 26  2  0
 27 19  1  0
 27 26  1  0
 28 29  2  0
 28 30  1  0
M  END
$$$$
