TLW.pdb
     RDKit          3D

 30 31  0  0  1  0  0  0  0  0999 V2000
   17.4112  -20.7315    2.6588 C   0  0  0  0  0  0  0  0  0  0  0  0
   16.1533  -20.0629    2.1184 C   0  0  1  0  0  0  0  0  0  0  0  0
   16.1054  -20.3467    0.7681 O   0  0  0  0  0  0  0  0  0  0  0  0
   15.0015  -20.5749    2.8995 C   0  0  2  0  0  0  0  0  0  0  0  0
   13.7233  -20.2726    2.2922 N   0  0  0  0  0  0  0  0  0  0  0  0
   15.0278  -20.2056    4.3396 C   0  0  0  0  0  0  0  0  0  0  0  0
   14.3407  -19.2317    4.7565 O   0  0  0  0  0  0  0  0  0  0  0  0
   14.0152  -21.6296    8.8278 C   0  0  0  0  0  0  0  0  0  0  0  0
   14.8571  -22.4532    7.8158 C   0  0  2  0  0  0  0  0  0  0  0  0
   15.2256  -23.7275    8.5312 C   0  0  0  0  0  0  0  0  0  0  0  0
   16.0894  -21.6469    7.5719 C   0  0  0  0  0  0  0  0  0  0  0  0
   15.9264  -20.4454    6.7152 C   0  0  2  0  0  0  0  0  0  0  0  0
   15.7974  -20.8977    5.2929 N   0  0  0  0  0  0  0  0  0  0  0  0
   16.9408  -19.3984    6.7965 C   0  0  0  0  0  0  0  0  0  0  0  0
   17.9773  -19.5390    6.0447 O   0  0  0  0  0  0  0  0  0  0  0  0
   16.9454  -18.2439    7.5838 N   0  0  0  0  0  0  0  0  0  0  0  0
   18.0182  -17.2478    7.5978 C   0  0  1  0  0  0  0  0  0  0  0  0
   18.1805  -16.7983    6.1747 C   0  0  0  0  0  0  0  0  0  0  0  0
   18.2538  -15.3535    5.9410 C   0  0  0  0  0  0  0  0  0  0  0  0
   18.0892  -14.3770    6.9322 C   0  0  0  0  0  0  0  0  0  0  0  0
   18.1896  -13.1581    6.4023 N   0  0  0  0  0  0  0  0  0  0  0  0
   18.4172  -13.3074    5.0842 C   0  0  0  0  0  0  0  0  0  0  0  0
   18.6126  -12.3892    4.0767 C   0  0  0  0  0  0  0  0  0  0  0  0
   18.8497  -12.7572    2.7795 C   0  0  0  0  0  0  0  0  0  0  0  0
   18.8955  -14.1106    2.4659 C   0  0  0  0  0  0  0  0  0  0  0  0
   18.7022  -15.0400    3.4597 C   0  0  0  0  0  0  0  0  0  0  0  0
   18.4606  -14.6483    4.7784 C   0  0  0  0  0  0  0  0  0  0  0  0
   17.7749  -16.1961    8.5871 C   0  0  0  0  0  0  0  0  0  0  0  0
   18.7124  -15.3608    8.8158 O   0  0  0  0  0  0  0  0  0  0  0  0
   16.6243  -16.0010    9.3085 O   0  0  0  0  0  0  0  0  0  0  0  0
  2  1  1  1
  3  2  1  0
  4  6  1  0
  4  5  1  6
  4  2  1  0
  6  7  2  0
  9 11  1  0
  9  8  1  1
 10  9  1  0
 12 11  1  1
 12 14  1  0
 13 12  1  0
 13  6  1  0
 14 15  2  0
 16 17  1  0
 16 14  1  0
 17 28  1  0
 17 18  1  6
 19 18  1  0
 20 19  2  0
 21 22  1  0
 21 20  1  0
 22 27  2  0
 23 22  1  0
 23 24  2  0
 24 25  1  0
 25 26  2  0
 27 19  1  0
 27 26  1  0
 28 29  2  0
 28 30  1  0
M  END
$$$$
