TLW.pdb
     RDKit          3D

 30 31  0  0  1  0  0  0  0  0999 V2000
   22.6496  -34.2083  -15.4245 C   0  0  0  0  0  0  0  0  0  0  0  0
   23.8957  -33.6329  -16.0859 C   0  0  1  0  0  0  0  0  0  0  0  0
   24.2336  -34.4970  -17.1084 O   0  0  0  0  0  0  0  0  0  0  0  0
   23.5758  -32.2525  -16.5226 C   0  0  2  0  0  0  0  0  0  0  0  0
   24.6224  -31.6517  -17.3211 N   0  0  0  0  0  0  0  0  0  0  0  0
   23.1350  -31.3514  -15.4250 C   0  0  0  0  0  0  0  0  0  0  0  0
   23.9715  -30.6059  -14.8429 O   0  0  0  0  0  0  0  0  0  0  0  0
   19.8281  -27.5959  -14.3073 C   0  0  0  0  0  0  0  0  0  0  0  0
   19.8083  -28.9482  -15.0704 C   0  0  2  0  0  0  0  0  0  0  0  0
   18.4275  -29.0635  -15.6633 C   0  0  0  0  0  0  0  0  0  0  0  0
   19.9891  -29.9989  -14.0256 C   0  0  0  0  0  0  0  0  0  0  0  0
   21.3807  -30.4640  -13.7992 C   0  0  2  0  0  0  0  0  0  0  0  0
   21.8009  -31.2799  -14.9831 N   0  0  0  0  0  0  0  0  0  0  0  0
   21.6681  -31.2080  -12.5762 C   0  0  0  0  0  0  0  0  0  0  0  0
   21.3631  -32.4595  -12.5765 O   0  0  0  0  0  0  0  0  0  0  0  0
   22.2405  -30.7490  -11.3869 N   0  0  0  0  0  0  0  0  0  0  0  0
   22.4998  -31.5806  -10.2103 C   0  0  1  0  0  0  0  0  0  0  0  0
   23.7995  -31.0922   -9.6399 C   0  0  0  0  0  0  0  0  0  0  0  0
   24.2634  -31.7327   -8.4061 C   0  0  0  0  0  0  0  0  0  0  0  0
   23.4565  -31.9888   -7.2897 C   0  0  0  0  0  0  0  0  0  0  0  0
   24.1736  -32.5589   -6.3215 N   0  0  0  0  0  0  0  0  0  0  0  0
   25.4350  -32.6856   -6.7731 C   0  0  0  0  0  0  0  0  0  0  0  0
   26.5679  -33.2144   -6.1959 C   0  0  0  0  0  0  0  0  0  0  0  0
   27.7724  -33.2628   -6.8450 C   0  0  0  0  0  0  0  0  0  0  0  0
   27.8563  -32.7587   -8.1376 C   0  0  0  0  0  0  0  0  0  0  0  0
   26.7349  -32.2270   -8.7282 C   0  0  0  0  0  0  0  0  0  0  0  0
   25.5134  -32.1843   -8.0522 C   0  0  0  0  0  0  0  0  0  0  0  0
   21.3571  -31.6044   -9.2950 C   0  0  0  0  0  0  0  0  0  0  0  0
   20.5789  -30.5929   -9.2824 O   0  0  0  0  0  0  0  0  0  0  0  0
   21.0193  -32.6173   -8.4334 O   0  0  0  0  0  0  0  0  0  0  0  0
  2  1  1  6
  3  2  1  0
  4  6  1  0
  4  5  1  1
  4  2  1  0
  6  7  2  0
  9 11  1  0
  9  8  1  1
 10  9  1  0
 12 11  1  6
 12 14  1  0
 13 12  1  0
 13  6  1  0
 14 15  2  0
 16 17  1  0
 16 14  1  0
 17 28  1  0
 17 18  1  1
 19 18  1  0
 20 19  2  0
 21 22  1  0
 21 20  1  0
 22 27  2  0
 23 22  1  0
 23 24  2  0
 24 25  1  0
 25 26  2  0
 27 19  1  0
 27 26  1  0
 28 29  2  0
 28 30  1  0
M  END
$$$$
