TLW.pdb
     RDKit          3D

 30 31  0  0  1  0  0  0  0  0999 V2000
   21.9086  -18.2678  -14.8294 C   0  0  0  0  0  0  0  0  0  0  0  0
   23.0285  -19.0079  -14.1087 C   0  0  1  0  0  0  0  0  0  0  0  0
   22.4379  -19.7040  -13.0730 O   0  0  0  0  0  0  0  0  0  0  0  0
   23.7222  -19.8559  -15.1079 C   0  0  2  0  0  0  0  0  0  0  0  0
   22.8240  -20.7236  -15.8389 N   0  0  0  0  0  0  0  0  0  0  0  0
   24.8911  -20.6011  -14.5702 C   0  0  0  0  0  0  0  0  0  0  0  0
   24.8531  -21.8600  -14.4803 O   0  0  0  0  0  0  0  0  0  0  0  0
   28.7896  -20.7231  -16.1247 C   0  0  0  0  0  0  0  0  0  0  0  0
   28.6311  -19.4507  -15.2487 C   0  0  2  0  0  0  0  0  0  0  0  0
   29.9353  -18.7052  -15.3698 C   0  0  0  0  0  0  0  0  0  0  0  0
   28.4707  -19.9463  -13.8499 C   0  0  0  0  0  0  0  0  0  0  0  0
   27.2337  -20.7167  -13.5663 C   0  0  2  0  0  0  0  0  0  0  0  0
   26.0718  -19.9664  -14.1417 N   0  0  0  0  0  0  0  0  0  0  0  0
   26.9415  -21.0646  -12.1787 C   0  0  0  0  0  0  0  0  0  0  0  0
   27.8473  -21.7275  -11.5466 O   0  0  0  0  0  0  0  0  0  0  0  0
   25.8020  -20.7723  -11.4247 N   0  0  0  0  0  0  0  0  0  0  0  0
   25.6343  -21.0951  -10.0066 C   0  0  1  0  0  0  0  0  0  0  0  0
   26.7940  -20.4559   -9.2995 C   0  0  0  0  0  0  0  0  0  0  0  0
   26.7562  -20.4530   -7.8345 C   0  0  0  0  0  0  0  0  0  0  0  0
   25.6911  -20.9381   -7.0644 C   0  0  0  0  0  0  0  0  0  0  0  0
   25.9468  -20.7756   -5.7664 N   0  0  0  0  0  0  0  0  0  0  0  0
   27.1564  -20.1948   -5.6618 C   0  0  0  0  0  0  0  0  0  0  0  0
   27.9030  -19.8197   -4.5673 C   0  0  0  0  0  0  0  0  0  0  0  0
   29.1418  -19.2479   -4.6805 C   0  0  0  0  0  0  0  0  0  0  0  0
   29.6677  -19.0373   -5.9498 C   0  0  0  0  0  0  0  0  0  0  0  0
   28.9353  -19.4057   -7.0529 C   0  0  0  0  0  0  0  0  0  0  0  0
   27.6724  -19.9874   -6.9205 C   0  0  0  0  0  0  0  0  0  0  0  0
   24.3004  -20.7392   -9.5188 C   0  0  0  0  0  0  0  0  0  0  0  0
   23.6605  -19.8251  -10.1382 O   0  0  0  0  0  0  0  0  0  0  0  0
   23.6448  -21.2945   -8.4490 O   0  0  0  0  0  0  0  0  0  0  0  0
  2  1  1  6
  3  2  1  0
  4  6  1  0
  4  5  1  1
  4  2  1  0
  6  7  2  0
  9 11  1  0
  9  8  1  6
 10  9  1  0
 12 11  1  1
 12 14  1  0
 13 12  1  0
 13  6  1  0
 14 15  2  0
 16 17  1  0
 16 14  1  0
 17 28  1  0
 17 18  1  1
 19 18  1  0
 20 19  2  0
 21 22  1  0
 21 20  1  0
 22 27  2  0
 23 22  1  0
 23 24  2  0
 24 25  1  0
 25 26  2  0
 27 19  1  0
 27 26  1  0
 28 29  2  0
 28 30  1  0
M  END
$$$$
