TLW.pdb
     RDKit          3D

 30 31  0  0  1  0  0  0  0  0999 V2000
   26.7950  -18.2075  -14.0141 C   0  0  0  0  0  0  0  0  0  0  0  0
   27.1536  -19.4737  -14.7818 C   0  0  1  0  0  0  0  0  0  0  0  0
   28.0667  -19.1029  -15.7488 O   0  0  0  0  0  0  0  0  0  0  0  0
   27.6587  -20.4653  -13.8018 C   0  0  2  0  0  0  0  0  0  0  0  0
   28.3128  -21.5966  -14.4232 N   0  0  0  0  0  0  0  0  0  0  0  0
   26.6526  -20.8961  -12.7952 C   0  0  0  0  0  0  0  0  0  0  0  0
   25.9448  -21.9204  -13.0051 O   0  0  0  0  0  0  0  0  0  0  0  0
   26.7849  -21.7746   -8.3188 C   0  0  0  0  0  0  0  0  0  0  0  0
   26.9108  -20.2823   -8.7293 C   0  0  2  0  0  0  0  0  0  0  0  0
   27.0920  -19.5177   -7.4432 C   0  0  0  0  0  0  0  0  0  0  0  0
   25.5962  -19.9236   -9.3389 C   0  0  0  0  0  0  0  0  0  0  0  0
   25.3018  -20.5283  -10.6624 C   0  0  2  0  0  0  0  0  0  0  0  0
   26.4360  -20.2078  -11.5871 N   0  0  0  0  0  0  0  0  0  0  0  0
   24.0402  -20.1842  -11.3118 C   0  0  0  0  0  0  0  0  0  0  0  0
   23.9427  -18.9916  -11.7888 O   0  0  0  0  0  0  0  0  0  0  0  0
   22.9060  -20.9792  -11.4966 N   0  0  0  0  0  0  0  0  0  0  0  0
   21.7006  -20.5595  -12.2138 C   0  0  1  0  0  0  0  0  0  0  0  0
   22.1624  -20.1231  -13.5738 C   0  0  0  0  0  0  0  0  0  0  0  0
   22.7228  -21.1585  -14.4465 C   0  0  0  0  0  0  0  0  0  0  0  0
   22.6879  -22.5327  -14.1759 C   0  0  0  0  0  0  0  0  0  0  0  0
   23.2989  -23.2113  -15.1469 N   0  0  0  0  0  0  0  0  0  0  0  0
   23.7359  -22.3168  -16.0526 C   0  0  0  0  0  0  0  0  0  0  0  0
   24.4101  -22.4707  -17.2434 C   0  0  0  0  0  0  0  0  0  0  0  0
   24.7534  -21.4106  -18.0388 C   0  0  0  0  0  0  0  0  0  0  0  0
   24.4081  -20.1279  -17.6294 C   0  0  0  0  0  0  0  0  0  0  0  0
   23.7353  -19.9568  -16.4433 C   0  0  0  0  0  0  0  0  0  0  0  0
   23.3929  -21.0487  -15.6426 C   0  0  0  0  0  0  0  0  0  0  0  0
   20.6588  -21.5878  -12.1809 C   0  0  0  0  0  0  0  0  0  0  0  0
   19.4972  -21.2772  -12.6086 O   0  0  0  0  0  0  0  0  0  0  0  0
   20.7961  -22.8784  -11.7359 O   0  0  0  0  0  0  0  0  0  0  0  0
  2  1  1  1
  3  2  1  0
  4  6  1  0
  4  5  1  6
  4  2  1  0
  6  7  2  0
  9 11  1  0
  9  8  1  1
 10  9  1  0
 12 11  1  1
 12 14  1  0
 13 12  1  0
 13  6  1  0
 14 15  2  0
 16 17  1  0
 16 14  1  0
 17 28  1  0
 17 18  1  6
 19 18  1  0
 20 19  2  0
 21 22  1  0
 21 20  1  0
 22 27  2  0
 23 22  1  0
 23 24  2  0
 24 25  1  0
 25 26  2  0
 27 19  1  0
 27 26  1  0
 28 29  2  0
 28 30  1  0
M  END
$$$$
