TLW.pdb
     RDKit          3D

 30 31  0  0  1  0  0  0  0  0999 V2000
   23.0491  -19.6337  -14.1582 C   0  0  0  0  0  0  0  0  0  0  0  0
   23.0843  -20.8110  -15.1246 C   0  0  1  0  0  0  0  0  0  0  0  0
   22.3025  -20.4565  -16.2060 O   0  0  0  0  0  0  0  0  0  0  0  0
   24.5052  -21.0820  -15.4507 C   0  0  2  0  0  0  0  0  0  0  0  0
   24.6696  -22.0143  -16.5453 N   0  0  0  0  0  0  0  0  0  0  0  0
   25.3400  -21.4567  -14.2787 C   0  0  0  0  0  0  0  0  0  0  0  0
   25.4322  -22.6659  -13.9271 O   0  0  0  0  0  0  0  0  0  0  0  0
   29.6371  -21.6750  -13.3421 C   0  0  0  0  0  0  0  0  0  0  0  0
   29.0323  -20.2555  -13.5174 C   0  0  2  0  0  0  0  0  0  0  0  0
   30.1929  -19.3000  -13.4113 C   0  0  0  0  0  0  0  0  0  0  0  0
   28.1221  -20.0623  -12.3502 C   0  0  0  0  0  0  0  0  0  0  0  0
   26.8928  -20.8947  -12.3341 C   0  0  2  0  0  0  0  0  0  0  0  0
   26.0534  -20.5143  -13.5151 N   0  0  0  0  0  0  0  0  0  0  0  0
   26.0655  -20.8785  -11.1311 C   0  0  0  0  0  0  0  0  0  0  0  0
   25.1923  -19.9356  -11.0434 O   0  0  0  0  0  0  0  0  0  0  0  0
   26.0834  -21.7577  -10.0451 N   0  0  0  0  0  0  0  0  0  0  0  0
   25.0951  -21.7700   -8.9651 C   0  0  1  0  0  0  0  0  0  0  0  0
   25.8825  -21.8060   -7.6876 C   0  0  0  0  0  0  0  0  0  0  0  0
   26.5723  -20.5724   -7.3000 C   0  0  0  0  0  0  0  0  0  0  0  0
   26.3822  -19.3273   -7.9134 C   0  0  0  0  0  0  0  0  0  0  0  0
   27.1684  -18.4095   -7.3511 N   0  0  0  0  0  0  0  0  0  0  0  0
   27.8727  -19.0199   -6.3802 C   0  0  0  0  0  0  0  0  0  0  0  0
   28.8084  -18.5455   -5.4882 C   0  0  0  0  0  0  0  0  0  0  0  0
   29.4056  -19.3450   -4.5510 C   0  0  0  0  0  0  0  0  0  0  0  0
   29.0544  -20.6888   -4.4966 C   0  0  0  0  0  0  0  0  0  0  0  0
   28.1222  -21.1785   -5.3799 C   0  0  0  0  0  0  0  0  0  0  0  0
   27.5225  -20.3498   -6.3308 C   0  0  0  0  0  0  0  0  0  0  0  0
   24.1249  -20.6815   -9.0993 C   0  0  0  0  0  0  0  0  0  0  0  0
   23.1741  -20.6189   -8.2503 O   0  0  0  0  0  0  0  0  0  0  0  0
   24.1265  -19.6966  -10.0545 O   0  0  0  0  0  0  0  0  0  0  0  0
  2  1  1  1
  3  2  1  0
  4  6  1  0
  4  5  1  6
  4  2  1  0
  6  7  2  0
  9 11  1  0
  9  8  1  1
 10  9  1  0
 12 11  1  1
 12 14  1  0
 13 12  1  0
 13  6  1  0
 14 15  2  0
 16 17  1  0
 16 14  1  0
 17 28  1  0
 17 18  1  1
 19 18  1  0
 20 19  2  0
 21 22  1  0
 21 20  1  0
 22 27  2  0
 23 22  1  0
 23 24  2  0
 24 25  1  0
 25 26  2  0
 27 19  1  0
 27 26  1  0
 28 29  2  0
 28 30  1  0
M  END
$$$$
