TLW.pdb
     RDKit          3D

 30 31  0  0  1  0  0  0  0  0999 V2000
   19.3384  -18.0680  -15.3472 C   0  0  0  0  0  0  0  0  0  0  0  0
   20.8147  -18.3161  -15.0637 C   0  0  1  0  0  0  0  0  0  0  0  0
   20.8694  -19.1961  -14.0012 O   0  0  0  0  0  0  0  0  0  0  0  0
   21.4343  -18.8169  -16.3144 C   0  0  2  0  0  0  0  0  0  0  0  0
   20.7529  -19.9686  -16.8649 N   0  0  0  0  0  0  0  0  0  0  0  0
   22.9020  -19.0374  -16.2230 C   0  0  0  0  0  0  0  0  0  0  0  0
   23.3886  -20.1750  -16.4749 O   0  0  0  0  0  0  0  0  0  0  0  0
   27.8447  -15.4065  -15.5254 C   0  0  0  0  0  0  0  0  0  0  0  0
   27.4248  -16.8667  -15.8463 C   0  0  2  0  0  0  0  0  0  0  0  0
   27.8025  -17.0939  -17.2876 C   0  0  0  0  0  0  0  0  0  0  0  0
   25.9383  -16.8932  -15.7128 C   0  0  0  0  0  0  0  0  0  0  0  0
   25.2916  -18.2216  -15.8592 C   0  0  2  0  0  0  0  0  0  0  0  0
   23.8069  -18.0227  -15.8601 N   0  0  0  0  0  0  0  0  0  0  0  0
   25.6363  -19.2653  -14.8982 C   0  0  0  0  0  0  0  0  0  0  0  0
   26.6525  -20.0027  -15.1862 O   0  0  0  0  0  0  0  0  0  0  0  0
   25.0129  -19.5808  -13.6880 N   0  0  0  0  0  0  0  0  0  0  0  0
   25.6017  -20.4146  -12.6386 C   0  0  1  0  0  0  0  0  0  0  0  0
   26.6925  -19.5887  -12.0209 C   0  0  0  0  0  0  0  0  0  0  0  0
   27.5100  -20.2355  -10.9907 C   0  0  0  0  0  0  0  0  0  0  0  0
   28.5595  -21.1265  -11.2500 C   0  0  0  0  0  0  0  0  0  0  0  0
   29.0919  -21.5597  -10.1074 N   0  0  0  0  0  0  0  0  0  0  0  0
   28.4183  -20.9747   -9.0997 C   0  0  0  0  0  0  0  0  0  0  0  0
   28.5597  -21.0554   -7.7323 C   0  0  0  0  0  0  0  0  0  0  0  0
   27.7662  -20.3521   -6.8661 C   0  0  0  0  0  0  0  0  0  0  0  0
   26.7788  -19.5236   -7.3863 C   0  0  0  0  0  0  0  0  0  0  0  0
   26.6242  -19.4318   -8.7489 C   0  0  0  0  0  0  0  0  0  0  0  0
   27.4414  -20.1565   -9.6193 C   0  0  0  0  0  0  0  0  0  0  0  0
   24.5866  -20.9389  -11.7228 C   0  0  0  0  0  0  0  0  0  0  0  0
   24.9416  -21.8327  -10.8837 O   0  0  0  0  0  0  0  0  0  0  0  0
   23.2680  -20.5650  -11.6614 O   0  0  0  0  0  0  0  0  0  0  0  0
  2  1  1  6
  3  2  1  0
  4  6  1  0
  4  5  1  1
  4  2  1  0
  6  7  2  0
  9 11  1  0
  9  8  1  6
 10  9  1  0
 12 11  1  1
 12 14  1  0
 13 12  1  0
 13  6  1  0
 14 15  2  0
 16 17  1  0
 16 14  1  0
 17 28  1  0
 17 18  1  1
 19 18  1  0
 20 19  2  0
 21 22  1  0
 21 20  1  0
 22 27  2  0
 23 22  1  0
 23 24  2  0
 24 25  1  0
 25 26  2  0
 27 19  1  0
 27 26  1  0
 28 29  2  0
 28 30  1  0
M  END
$$$$
