TLW.pdb
     RDKit          3D

 30 31  0  0  1  0  0  0  0  0999 V2000
   28.3611  -23.7797  -17.4317 C   0  0  0  0  0  0  0  0  0  0  0  0
   28.1150  -22.9163  -16.2008 C   0  0  1  0  0  0  0  0  0  0  0  0
   29.1693  -23.1478  -15.3399 O   0  0  0  0  0  0  0  0  0  0  0  0
   27.9853  -21.5111  -16.6563 C   0  0  2  0  0  0  0  0  0  0  0  0
   29.0895  -21.0779  -17.4853 N   0  0  0  0  0  0  0  0  0  0  0  0
   27.7008  -20.5397  -15.5671 C   0  0  0  0  0  0  0  0  0  0  0  0
   28.6486  -19.9262  -15.0018 O   0  0  0  0  0  0  0  0  0  0  0  0
   26.2268  -16.3519  -14.7831 C   0  0  0  0  0  0  0  0  0  0  0  0
   25.3195  -17.4051  -15.4752 C   0  0  2  0  0  0  0  0  0  0  0  0
   24.0620  -16.6705  -15.8632 C   0  0  0  0  0  0  0  0  0  0  0  0
   25.0004  -18.4121  -14.4205 C   0  0  0  0  0  0  0  0  0  0  0  0
   26.1168  -19.2963  -14.0008 C   0  0  2  0  0  0  0  0  0  0  0  0
   26.3985  -20.2569  -15.1152 N   0  0  0  0  0  0  0  0  0  0  0  0
   25.9758  -20.0380  -12.7510 C   0  0  0  0  0  0  0  0  0  0  0  0
   25.3119  -21.1405  -12.8055 O   0  0  0  0  0  0  0  0  0  0  0  0
   26.4706  -19.7189  -11.4837 N   0  0  0  0  0  0  0  0  0  0  0  0
   26.2953  -20.5443  -10.2874 C   0  0  1  0  0  0  0  0  0  0  0  0
   27.2876  -20.0311   -9.2847 C   0  0  0  0  0  0  0  0  0  0  0  0
   27.0623  -20.3964   -7.8835 C   0  0  0  0  0  0  0  0  0  0  0  0
   26.0119  -21.2052   -7.4304 C   0  0  0  0  0  0  0  0  0  0  0  0
   26.0655  -21.3339   -6.1048 N   0  0  0  0  0  0  0  0  0  0  0  0
   27.1274  -20.6291   -5.6724 C   0  0  0  0  0  0  0  0  0  0  0  0
   27.6477  -20.4330   -4.4126 C   0  0  0  0  0  0  0  0  0  0  0  0
   28.7677  -19.6786   -4.1865 C   0  0  0  0  0  0  0  0  0  0  0  0
   29.4055  -19.0869   -5.2705 C   0  0  0  0  0  0  0  0  0  0  0  0
   28.8989  -19.2723   -6.5346 C   0  0  0  0  0  0  0  0  0  0  0  0
   27.7549  -20.0444   -6.7485 C   0  0  0  0  0  0  0  0  0  0  0  0
   24.8975  -20.5884   -9.8535 C   0  0  0  0  0  0  0  0  0  0  0  0
   24.1622  -19.5745  -10.0987 O   0  0  0  0  0  0  0  0  0  0  0  0
   24.2747  -21.6231   -9.2024 O   0  0  0  0  0  0  0  0  0  0  0  0
  2  1  1  6
  3  2  1  0
  4  6  1  0
  4  5  1  1
  4  2  1  0
  6  7  2  0
  9 11  1  0
  9  8  1  1
 10  9  1  0
 12 11  1  6
 12 14  1  0
 13 12  1  0
 13  6  1  0
 14 15  2  0
 16 17  1  0
 16 14  1  0
 17 28  1  0
 17 18  1  1
 19 18  1  0
 20 19  2  0
 21 22  1  0
 21 20  1  0
 22 27  2  0
 23 22  1  0
 23 24  2  0
 24 25  1  0
 25 26  2  0
 27 19  1  0
 27 26  1  0
 28 29  2  0
 28 30  1  0
M  END
$$$$
