TLW.pdb
     RDKit          3D

 30 31  0  0  1  0  0  0  0  0999 V2000
   27.0084  -18.7275  -15.4948 C   0  0  0  0  0  0  0  0  0  0  0  0
   27.2337  -20.0787  -16.1618 C   0  0  1  0  0  0  0  0  0  0  0  0
   28.3192  -19.9273  -17.0016 O   0  0  0  0  0  0  0  0  0  0  0  0
   27.4178  -21.0846  -15.0880 C   0  0  2  0  0  0  0  0  0  0  0  0
   27.9366  -22.3454  -15.5729 N   0  0  0  0  0  0  0  0  0  0  0  0
   26.2254  -21.2771  -14.2207 C   0  0  0  0  0  0  0  0  0  0  0  0
   25.4153  -22.2164  -14.4568 O   0  0  0  0  0  0  0  0  0  0  0  0
   25.2207  -21.9227   -9.6462 C   0  0  0  0  0  0  0  0  0  0  0  0
   25.8976  -20.6019  -10.1030 C   0  0  2  0  0  0  0  0  0  0  0  0
   26.0784  -19.7806   -8.8523 C   0  0  0  0  0  0  0  0  0  0  0  0
   24.9061  -19.9335  -10.9966 C   0  0  0  0  0  0  0  0  0  0  0  0
   24.6798  -20.5731  -12.3171 C   0  0  2  0  0  0  0  0  0  0  0  0
   25.9380  -20.4483  -13.1204 N   0  0  0  0  0  0  0  0  0  0  0  0
   23.5495  -20.1150  -13.1199 C   0  0  0  0  0  0  0  0  0  0  0  0
   22.3803  -20.2362  -12.5931 O   0  0  0  0  0  0  0  0  0  0  0  0
   23.5560  -19.5502  -14.3980 N   0  0  0  0  0  0  0  0  0  0  0  0
   22.3644  -19.0883  -15.1123 C   0  0  1  0  0  0  0  0  0  0  0  0
   22.7643  -17.8144  -15.7983 C   0  0  0  0  0  0  0  0  0  0  0  0
   21.7590  -17.1805  -16.6558 C   0  0  0  0  0  0  0  0  0  0  0  0
   20.5417  -16.6560  -16.2021 C   0  0  0  0  0  0  0  0  0  0  0  0
   19.8378  -16.1694  -17.2241 N   0  0  0  0  0  0  0  0  0  0  0  0
   20.5626  -16.3601  -18.3419 C   0  0  0  0  0  0  0  0  0  0  0  0
   20.3205  -16.0390  -19.6589 C   0  0  0  0  0  0  0  0  0  0  0  0
   21.2132  -16.3114  -20.6606 C   0  0  0  0  0  0  0  0  0  0  0  0
   22.4116  -16.9365  -20.3366 C   0  0  0  0  0  0  0  0  0  0  0  0
   22.6689  -17.2641  -19.0268 C   0  0  0  0  0  0  0  0  0  0  0  0
   21.7473  -16.9800  -18.0165 C   0  0  0  0  0  0  0  0  0  0  0  0
   21.7982  -20.1350  -15.9653 C   0  0  0  0  0  0  0  0  0  0  0  0
   22.5728  -21.0688  -16.3615 O   0  0  0  0  0  0  0  0  0  0  0  0
   20.4976  -20.2289  -16.3921 O   0  0  0  0  0  0  0  0  0  0  0  0
  2  1  1  1
  3  2  1  0
  4  6  1  0
  4  5  1  6
  4  2  1  0
  6  7  2  0
  9 11  1  0
  9  8  1  1
 10  9  1  0
 12 11  1  1
 12 14  1  0
 13 12  1  0
 13  6  1  0
 14 15  2  0
 16 17  1  0
 16 14  1  0
 17 28  1  0
 17 18  1  6
 19 18  1  0
 20 19  2  0
 21 22  1  0
 21 20  1  0
 22 27  2  0
 23 22  1  0
 23 24  2  0
 24 25  1  0
 25 26  2  0
 27 19  1  0
 27 26  1  0
 28 29  2  0
 28 30  1  0
M  END
$$$$
