TLW.pdb
     RDKit          3D

 30 31  0  0  1  0  0  0  0  0999 V2000
   21.5670  -19.0071  -19.8935 C   0  0  0  0  0  0  0  0  0  0  0  0
   22.4313  -19.1288  -18.6446 C   0  0  1  0  0  0  0  0  0  0  0  0
   21.9452  -20.2074  -17.9327 O   0  0  0  0  0  0  0  0  0  0  0  0
   23.8408  -19.2628  -19.0851 C   0  0  2  0  0  0  0  0  0  0  0  0
   24.0431  -20.3465  -20.0225 N   0  0  0  0  0  0  0  0  0  0  0  0
   24.8267  -19.3060  -17.9728 C   0  0  0  0  0  0  0  0  0  0  0  0
   25.3841  -20.3956  -17.6623 O   0  0  0  0  0  0  0  0  0  0  0  0
   27.8900  -14.8419  -16.3477 C   0  0  0  0  0  0  0  0  0  0  0  0
   27.8460  -16.3837  -16.5281 C   0  0  2  0  0  0  0  0  0  0  0  0
   27.6746  -16.6182  -18.0069 C   0  0  0  0  0  0  0  0  0  0  0  0
   26.6185  -16.8350  -15.8085 C   0  0  0  0  0  0  0  0  0  0  0  0
   26.1656  -18.2201  -16.0922 C   0  0  2  0  0  0  0  0  0  0  0  0
   25.1843  -18.1702  -17.2230 N   0  0  0  0  0  0  0  0  0  0  0  0
   25.5958  -18.9970  -14.9951 C   0  0  0  0  0  0  0  0  0  0  0  0
   26.3681  -19.2309  -13.9911 O   0  0  0  0  0  0  0  0  0  0  0  0
   24.3088  -19.5282  -14.8753 N   0  0  0  0  0  0  0  0  0  0  0  0
   23.8513  -20.3642  -13.7640 C   0  0  1  0  0  0  0  0  0  0  0  0
   24.0948  -19.5621  -12.5187 C   0  0  0  0  0  0  0  0  0  0  0  0
   23.5845  -20.1183  -11.2626 C   0  0  0  0  0  0  0  0  0  0  0  0
   24.3466  -20.8645  -10.3542 C   0  0  0  0  0  0  0  0  0  0  0  0
   23.5938  -21.2470   -9.3229 N   0  0  0  0  0  0  0  0  0  0  0  0
   22.3523  -20.7700   -9.5292 C   0  0  0  0  0  0  0  0  0  0  0  0
   21.1996  -20.8564   -8.7809 C   0  0  0  0  0  0  0  0  0  0  0  0
   20.0227  -20.2748   -9.1696 C   0  0  0  0  0  0  0  0  0  0  0  0
   19.9888  -19.5689  -10.3665 C   0  0  0  0  0  0  0  0  0  0  0  0
   21.1306  -19.4733  -11.1256 C   0  0  0  0  0  0  0  0  0  0  0  0
   22.3234  -20.0730  -10.7155 C   0  0  0  0  0  0  0  0  0  0  0  0
   22.4839  -20.8459  -13.9690 C   0  0  0  0  0  0  0  0  0  0  0  0
   21.7067  -20.1478  -14.7022 O   0  0  0  0  0  0  0  0  0  0  0  0
   21.9337  -21.9921  -13.4532 O   0  0  0  0  0  0  0  0  0  0  0  0
  2  1  1  6
  3  2  1  0
  4  6  1  0
  4  5  1  1
  4  2  1  0
  6  7  2  0
  9 11  1  0
  9  8  1  6
 10  9  1  0
 12 11  1  1
 12 14  1  0
 13 12  1  0
 13  6  1  0
 14 15  2  0
 16 17  1  0
 16 14  1  0
 17 28  1  0
 17 18  1  1
 19 18  1  0
 20 19  2  0
 21 22  1  0
 21 20  1  0
 22 27  2  0
 23 22  1  0
 23 24  2  0
 24 25  1  0
 25 26  2  0
 27 19  1  0
 27 26  1  0
 28 29  2  0
 28 30  1  0
M  END
$$$$
