TLW.pdb
     RDKit          3D

 30 31  0  0  1  0  0  0  0  0999 V2000
   27.7028  -24.1277  -19.3981 C   0  0  0  0  0  0  0  0  0  0  0  0
   27.5602  -23.5435  -17.9982 C   0  0  1  0  0  0  0  0  0  0  0  0
   27.5291  -24.6135  -17.1261 O   0  0  0  0  0  0  0  0  0  0  0  0
   28.6884  -22.6049  -17.7861 C   0  0  2  0  0  0  0  0  0  0  0  0
   29.9844  -23.2372  -17.9066 N   0  0  0  0  0  0  0  0  0  0  0  0
   28.5842  -21.7959  -16.5429 C   0  0  0  0  0  0  0  0  0  0  0  0
   29.3766  -22.0054  -15.5824 O   0  0  0  0  0  0  0  0  0  0  0  0
   25.7865  -17.8309  -13.9265 C   0  0  0  0  0  0  0  0  0  0  0  0
   27.2002  -17.5113  -14.4840 C   0  0  2  0  0  0  0  0  0  0  0  0
   27.1017  -16.1320  -15.0833 C   0  0  0  0  0  0  0  0  0  0  0  0
   27.4360  -18.5083  -15.5697 C   0  0  0  0  0  0  0  0  0  0  0  0
   27.5638  -19.9242  -15.1416 C   0  0  2  0  0  0  0  0  0  0  0  0
   27.6248  -20.7813  -16.3686 N   0  0  0  0  0  0  0  0  0  0  0  0
   26.5584  -20.4615  -14.2293 C   0  0  0  0  0  0  0  0  0  0  0  0
   25.4143  -20.7588  -14.7411 O   0  0  0  0  0  0  0  0  0  0  0  0
   26.6637  -20.7074  -12.8578 N   0  0  0  0  0  0  0  0  0  0  0  0
   25.7047  -21.4879  -12.0739 C   0  0  1  0  0  0  0  0  0  0  0  0
   26.4458  -21.9398  -10.8492 C   0  0  0  0  0  0  0  0  0  0  0  0
   26.5367  -20.9856   -9.7406 C   0  0  0  0  0  0  0  0  0  0  0  0
   25.5348  -20.0696   -9.3941 C   0  0  0  0  0  0  0  0  0  0  0  0
   25.9249  -19.3270   -8.3582 N   0  0  0  0  0  0  0  0  0  0  0  0
   27.1610  -19.7319   -8.0127 C   0  0  0  0  0  0  0  0  0  0  0  0
   28.0163  -19.3205   -7.0150 C   0  0  0  0  0  0  0  0  0  0  0  0
   29.2480  -19.8858   -6.8199 C   0  0  0  0  0  0  0  0  0  0  0  0
   29.6520  -20.9157   -7.6613 C   0  0  0  0  0  0  0  0  0  0  0  0
   28.8103  -21.3382   -8.6624 C   0  0  0  0  0  0  0  0  0  0  0  0
   27.5571  -20.7506   -8.8488 C   0  0  0  0  0  0  0  0  0  0  0  0
   24.4591  -20.7529  -11.8448 C   0  0  0  0  0  0  0  0  0  0  0  0
   23.4354  -21.4135  -11.4647 O   0  0  0  0  0  0  0  0  0  0  0  0
   24.2665  -19.4025  -11.9919 O   0  0  0  0  0  0  0  0  0  0  0  0
  2  1  1  6
  3  2  1  0
  4  6  1  0
  4  5  1  1
  4  2  1  0
  6  7  2  0
  9 11  1  0
  9  8  1  6
 10  9  1  0
 12 11  1  6
 12 14  1  0
 13 12  1  0
 13  6  1  0
 14 15  2  0
 16 17  1  0
 16 14  1  0
 17 28  1  0
 17 18  1  1
 19 18  1  0
 20 19  2  0
 21 22  1  0
 21 20  1  0
 22 27  2  0
 23 22  1  0
 23 24  2  0
 24 25  1  0
 25 26  2  0
 27 19  1  0
 27 26  1  0
 28 29  2  0
 28 30  1  0
M  END
$$$$
