CSY.pdb
     RDKit          3D

 25 25  0  0  1  0  0  0  0  0999 V2000
    7.3381  -15.0178   17.6676 N   0  0  0  0  0  0  0  0  0  0  0  0
    8.3808  -14.5163   18.5101 C   0  0  1  0  0  0  0  0  0  0  0  0
    8.2252  -13.0651   18.8760 C   0  0  0  0  0  0  0  0  0  0  0  0
    8.3425  -12.1157   17.3119 S   0  0  0  0  0  0  0  0  0  0  0  0
    8.5377  -15.4015   19.6773 C   0  0  0  0  0  0  0  0  0  0  0  0
    7.6327  -15.5841   20.5396 O   0  0  0  0  0  0  0  0  0  0  0  0
   12.1154  -17.5452   20.3339 O   0  0  0  0  0  0  0  0  0  0  0  0
   10.8757  -18.1058   20.5781 C   0  0  0  0  0  0  0  0  0  0  0  0
    9.9293  -16.9831   21.0230 C   0  0  2  0  0  0  0  0  0  0  0  0
    9.7564  -16.1173   19.8969 N   0  0  0  0  0  0  0  0  0  0  0  0
   10.4176  -16.3165   22.2261 C   0  0  0  0  0  0  0  0  0  0  0  0
   11.0785  -15.2574   22.1488 O   0  0  0  0  0  0  0  0  0  0  0  0
   10.4794  -14.4510   30.9346 O   0  0  0  0  0  0  0  0  0  0  0  0
   10.2074  -14.8103   29.6149 C   0  0  0  0  0  0  0  0  0  0  0  0
   10.1088  -16.1336   29.2391 C   0  0  0  0  0  0  0  0  0  0  0  0
    9.8391  -16.4720   27.9295 C   0  0  0  0  0  0  0  0  0  0  0  0
    9.6562  -15.5235   26.9402 C   0  0  0  0  0  0  0  0  0  0  0  0
    9.3743  -15.9464   25.5663 C   0  0  0  0  0  0  0  0  0  0  0  0
   10.5935  -16.2734   24.7463 C   0  0  2  0  0  0  0  0  0  0  0  0
   10.1459  -16.8666   23.5020 N   0  0  0  0  0  0  0  0  0  0  0  0
   11.5947  -17.0881   25.4368 C   0  0  0  0  0  0  0  0  0  0  0  0
   12.7180  -16.5688   26.0625 O   0  0  0  0  0  0  0  0  0  0  0  0
    9.7566  -14.1939   27.3243 C   0  0  0  0  0  0  0  0  0  0  0  0
   10.0267  -13.8559   28.6361 C   0  0  0  0  0  0  0  0  0  0  0  0
   11.4445  -18.3353   25.4756 O   0  0  0  0  0  0  0  0  0  0  0  0
  2  3  1  0
  2  1  1  1
  3  4  1  0
  5  2  1  0
  6  5  2  0
  7  8  1  0
  9  8  1  6
  9 11  1  0
  9 10  1  0
 10  5  1  0
 11 12  2  0
 14 13  1  0
 15 14  2  0
 16 15  1  0
 17 23  1  0
 17 16  2  0
 18 17  1  0
 19 18  1  1
 20 19  1  0
 20 11  1  0
 21 19  1  0
 22 21  1  0
 23 24  2  0
 24 14  1  0
 25 21  2  0
M  END
$$$$
