CSY.pdb
     RDKit          3D

 25 25  0  0  1  0  0  0  0  0999 V2000
    7.9344  -13.1208   17.1472 N   0  0  0  0  0  0  0  0  0  0  0  0
    7.8131  -14.3116   17.9320 C   0  0  1  0  0  0  0  0  0  0  0  0
    8.5620  -15.4906   17.3722 C   0  0  0  0  0  0  0  0  0  0  0  0
   10.3465  -15.1088   17.5494 S   0  0  0  0  0  0  0  0  0  0  0  0
    8.1536  -14.0128   19.3338 C   0  0  0  0  0  0  0  0  0  0  0  0
    8.8868  -13.0444   19.6812 O   0  0  0  0  0  0  0  0  0  0  0  0
    6.2179  -15.9781   22.3538 O   0  0  0  0  0  0  0  0  0  0  0  0
    6.7766  -14.7400   22.6105 C   0  0  0  0  0  0  0  0  0  0  0  0
    8.0463  -14.6094   21.7590 C   0  0  2  0  0  0  0  0  0  0  0  0
    7.6567  -14.8272   20.3994 N   0  0  0  0  0  0  0  0  0  0  0  0
    9.1025  -15.4982   22.2329 C   0  0  0  0  0  0  0  0  0  0  0  0
    9.0677  -16.7239   21.9862 O   0  0  0  0  0  0  0  0  0  0  0  0
   10.2419  -15.7984   30.7668 O   0  0  0  0  0  0  0  0  0  0  0  0
   10.0518  -15.5244   29.4127 C   0  0  0  0  0  0  0  0  0  0  0  0
    9.8157  -16.5349   28.5042 C   0  0  0  0  0  0  0  0  0  0  0  0
    9.6298  -16.2468   27.1683 C   0  0  0  0  0  0  0  0  0  0  0  0
    9.6688  -14.9558   26.6748 C   0  0  0  0  0  0  0  0  0  0  0  0
    9.4659  -14.7145   25.2442 C   0  0  0  0  0  0  0  0  0  0  0  0
   10.4817  -15.3679   24.3460 C   0  0  2  0  0  0  0  0  0  0  0  0
   10.1850  -14.9774   22.9821 N   0  0  0  0  0  0  0  0  0  0  0  0
   10.6001  -16.8178   24.5093 C   0  0  0  0  0  0  0  0  0  0  0  0
   11.7781  -17.4650   24.8504 O   0  0  0  0  0  0  0  0  0  0  0  0
    9.9068  -13.9435   27.5935 C   0  0  0  0  0  0  0  0  0  0  0  0
   10.0929  -14.2330   28.9313 C   0  0  0  0  0  0  0  0  0  0  0  0
    9.5838  -17.5361   24.3341 O   0  0  0  0  0  0  0  0  0  0  0  0
  2  3  1  0
  2  1  1  6
  3  4  1  0
  5  2  1  0
  6  5  2  0
  7  8  1  0
  9  8  1  1
  9 11  1  0
  9 10  1  0
 10  5  1  0
 11 12  2  0
 14 13  1  0
 15 14  2  0
 16 15  1  0
 17 23  1  0
 17 16  2  0
 18 17  1  0
 19 18  1  1
 20 19  1  0
 20 11  1  0
 21 19  1  0
 22 21  1  0
 23 24  2  0
 24 14  1  0
 25 21  2  0
M  END
$$$$
