CSY.pdb
     RDKit          3D

 25 25  0  0  1  0  0  0  0  0999 V2000
    7.4046  -14.7821   17.3417 N   0  0  0  0  0  0  0  0  0  0  0  0
    8.2039  -14.3220   18.4363 C   0  0  1  0  0  0  0  0  0  0  0  0
    7.8123  -12.9627   18.9491 C   0  0  0  0  0  0  0  0  0  0  0  0
    8.5038  -11.7399   17.7709 S   0  0  0  0  0  0  0  0  0  0  0  0
    8.2417  -15.3557   19.4854 C   0  0  0  0  0  0  0  0  0  0  0  0
    7.2060  -15.8683   19.9958 O   0  0  0  0  0  0  0  0  0  0  0  0
   11.5889  -17.6869   20.3507 O   0  0  0  0  0  0  0  0  0  0  0  0
   10.2659  -18.0149   20.5807 C   0  0  0  0  0  0  0  0  0  0  0  0
    9.5493  -16.7574   21.0899 C   0  0  2  0  0  0  0  0  0  0  0  0
    9.4878  -15.8428   19.9911 N   0  0  0  0  0  0  0  0  0  0  0  0
   10.1933  -16.2211   22.2849 C   0  0  0  0  0  0  0  0  0  0  0  0
   11.2209  -15.5135   22.1967 O   0  0  0  0  0  0  0  0  0  0  0  0
   10.8861  -14.6707   31.0810 O   0  0  0  0  0  0  0  0  0  0  0  0
   10.4582  -14.9444   29.7822 C   0  0  0  0  0  0  0  0  0  0  0  0
   10.2202  -16.2370   29.3643 C   0  0  0  0  0  0  0  0  0  0  0  0
    9.7973  -16.4904   28.0762 C   0  0  0  0  0  0  0  0  0  0  0  0
    9.5925  -15.4840   27.1505 C   0  0  0  0  0  0  0  0  0  0  0  0
    9.1447  -15.8176   25.7962 C   0  0  0  0  0  0  0  0  0  0  0  0
   10.2544  -16.0433   24.8046 C   0  0  2  0  0  0  0  0  0  0  0  0
    9.6568  -16.4989   23.5653 N   0  0  0  0  0  0  0  0  0  0  0  0
   11.3264  -16.9219   25.2756 C   0  0  0  0  0  0  0  0  0  0  0  0
   12.5062  -16.4672   25.8451 O   0  0  0  0  0  0  0  0  0  0  0  0
    9.8337  -14.1857   27.5767 C   0  0  0  0  0  0  0  0  0  0  0  0
   10.2572  -13.9328   28.8670 C   0  0  0  0  0  0  0  0  0  0  0  0
   11.1876  -18.1661   25.1657 O   0  0  0  0  0  0  0  0  0  0  0  0
  2  3  1  0
  2  1  1  6
  3  4  1  0
  5  2  1  0
  6  5  2  0
  7  8  1  0
  9  8  1  6
  9 11  1  0
  9 10  1  0
 10  5  1  0
 11 12  2  0
 14 13  1  0
 15 14  2  0
 16 15  1  0
 17 23  1  0
 17 16  2  0
 18 17  1  0
 19 18  1  1
 20 19  1  0
 20 11  1  0
 21 19  1  0
 22 21  1  0
 23 24  2  0
 24 14  1  0
 25 21  2  0
M  END
$$$$
