CSY.pdb
     RDKit          3D

 25 25  0  0  1  0  0  0  0  0999 V2000
    5.5226  -17.3621   25.6873 N   0  0  0  0  0  0  0  0  0  0  0  0
    6.0328  -16.1322   25.1624 C   0  0  1  0  0  0  0  0  0  0  0  0
    6.2824  -15.0792   26.2079 C   0  0  0  0  0  0  0  0  0  0  0  0
    4.8346  -13.9547   26.1738 S   0  0  0  0  0  0  0  0  0  0  0  0
    7.2071  -16.4086   24.3168 C   0  0  0  0  0  0  0  0  0  0  0  0
    8.0544  -17.3094   24.5746 O   0  0  0  0  0  0  0  0  0  0  0  0
    8.1185  -13.7774   21.2765 O   0  0  0  0  0  0  0  0  0  0  0  0
    8.4319  -15.1009   21.0298 C   0  0  0  0  0  0  0  0  0  0  0  0
    8.6626  -15.7912   22.3805 C   0  0  2  0  0  0  0  0  0  0  0  0
    7.4517  -15.6492   23.1297 N   0  0  0  0  0  0  0  0  0  0  0  0
    9.8504  -15.2719   23.0512 C   0  0  0  0  0  0  0  0  0  0  0  0
    9.7937  -14.2292   23.7397 O   0  0  0  0  0  0  0  0  0  0  0  0
    9.4280  -13.0520   29.1128 O   0  0  0  0  0  0  0  0  0  0  0  0
    9.9169  -13.9284   28.1445 C   0  0  0  0  0  0  0  0  0  0  0  0
    9.8775  -15.2945   28.3302 C   0  0  0  0  0  0  0  0  0  0  0  0
   10.3653  -16.1476   27.3624 C   0  0  0  0  0  0  0  0  0  0  0  0
   10.9099  -15.6911   26.1764 C   0  0  0  0  0  0  0  0  0  0  0  0
   11.4135  -16.6479   25.1881 C   0  0  0  0  0  0  0  0  0  0  0  0
   12.0734  -16.0237   23.9879 C   0  0  2  0  0  0  0  0  0  0  0  0
   11.0877  -15.9487   22.9279 N   0  0  0  0  0  0  0  0  0  0  0  0
   13.3148  -16.6742   23.5649 C   0  0  0  0  0  0  0  0  0  0  0  0
   13.4942  -17.2679   22.3246 O   0  0  0  0  0  0  0  0  0  0  0  0
   10.9468  -14.3158   25.9953 C   0  0  0  0  0  0  0  0  0  0  0  0
   10.4581  -13.4621   26.9651 C   0  0  0  0  0  0  0  0  0  0  0  0
   14.2877  -16.7066   24.3598 O   0  0  0  0  0  0  0  0  0  0  0  0
  2  3  1  0
  2  1  1  1
  3  4  1  0
  5  2  1  0
  6  5  2  0
  7  8  1  0
  9  8  1  6
  9 11  1  0
  9 10  1  0
 10  5  1  0
 11 12  2  0
 14 13  1  0
 15 14  2  0
 16 15  1  0
 17 23  1  0
 17 16  2  0
 18 17  1  0
 19 18  1  1
 20 19  1  0
 20 11  1  0
 21 19  1  0
 22 21  1  0
 23 24  2  0
 24 14  1  0
 25 21  2  0
M  END
$$$$
