CSY.pdb
     RDKit          3D

 25 25  0  0  1  0  0  0  0  0999 V2000
    7.0752  -14.9499   19.4185 N   0  0  0  0  0  0  0  0  0  0  0  0
    7.9916  -14.4491   20.3973 C   0  0  1  0  0  0  0  0  0  0  0  0
    7.6577  -13.0695   20.8968 C   0  0  0  0  0  0  0  0  0  0  0  0
    8.0008  -11.9154   19.5141 S   0  0  0  0  0  0  0  0  0  0  0  0
    8.1490  -15.4407   21.4755 C   0  0  0  0  0  0  0  0  0  0  0  0
    7.1844  -16.0864   21.9741 O   0  0  0  0  0  0  0  0  0  0  0  0
   10.6394  -18.7623   23.4887 O   0  0  0  0  0  0  0  0  0  0  0  0
   10.6215  -17.7180   22.5832 C   0  0  0  0  0  0  0  0  0  0  0  0
    9.6108  -16.6772   23.0826 C   0  0  2  0  0  0  0  0  0  0  0  0
    9.4375  -15.7285   22.0254 N   0  0  0  0  0  0  0  0  0  0  0  0
   10.0274  -16.0934   24.3538 C   0  0  0  0  0  0  0  0  0  0  0  0
   10.8597  -15.1605   24.3887 O   0  0  0  0  0  0  0  0  0  0  0  0
    6.2164  -10.9713   25.6123 O   0  0  0  0  0  0  0  0  0  0  0  0
    6.8272  -12.1218   26.1103 C   0  0  0  0  0  0  0  0  0  0  0  0
    6.3620  -13.3782   25.7827 C   0  0  0  0  0  0  0  0  0  0  0  0
    6.9777  -14.5060   26.2838 C   0  0  0  0  0  0  0  0  0  0  0  0
    8.0730  -14.4422   27.1253 C   0  0  0  0  0  0  0  0  0  0  0  0
    8.6817  -15.6767   27.6264 C   0  0  0  0  0  0  0  0  0  0  0  0
    9.9094  -16.1216   26.8776 C   0  0  2  0  0  0  0  0  0  0  0  0
    9.4891  -16.5814   25.5689 N   0  0  0  0  0  0  0  0  0  0  0  0
   10.7365  -17.1003   27.5854 C   0  0  0  0  0  0  0  0  0  0  0  0
   11.0606  -18.3502   27.0799 O   0  0  0  0  0  0  0  0  0  0  0  0
    8.5364  -13.1755   27.4513 C   0  0  0  0  0  0  0  0  0  0  0  0
    7.9192  -12.0465   26.9489 C   0  0  0  0  0  0  0  0  0  0  0  0
   11.1894  -16.8084   28.7209 O   0  0  0  0  0  0  0  0  0  0  0  0
  2  3  1  0
  2  1  1  6
  3  4  1  0
  5  2  1  0
  6  5  2  0
  7  8  1  0
  9  8  1  6
  9 11  1  0
  9 10  1  0
 10  5  1  0
 11 12  2  0
 14 13  1  0
 15 14  2  0
 16 15  1  0
 17 23  1  0
 17 16  2  0
 18 17  1  0
 19 18  1  1
 20 19  1  0
 20 11  1  0
 21 19  1  0
 22 21  1  0
 23 24  2  0
 24 14  1  0
 25 21  2  0
M  END
$$$$
