CSY.pdb
     RDKit          3D

 25 25  0  0  1  0  0  0  0  0999 V2000
    6.3440  -17.4787   19.5573 N   0  0  0  0  0  0  0  0  0  0  0  0
    6.8786  -16.4454   20.3911 C   0  0  1  0  0  0  0  0  0  0  0  0
    5.8313  -15.6288   21.0985 C   0  0  0  0  0  0  0  0  0  0  0  0
    4.9486  -16.7737   22.2262 S   0  0  0  0  0  0  0  0  0  0  0  0
    7.8866  -17.0195   21.2993 C   0  0  0  0  0  0  0  0  0  0  0  0
    7.7978  -18.1777   21.7957 O   0  0  0  0  0  0  0  0  0  0  0  0
   11.5383  -15.2096   21.7109 O   0  0  0  0  0  0  0  0  0  0  0  0
   11.3965  -16.5669   21.9309 C   0  0  0  0  0  0  0  0  0  0  0  0
   10.0243  -16.7997   22.5765 C   0  0  2  0  0  0  0  0  0  0  0  0
    9.0474  -16.2723   21.6735 N   0  0  0  0  0  0  0  0  0  0  0  0
    9.9643  -16.2400   23.9231 C   0  0  0  0  0  0  0  0  0  0  0  0
    9.6925  -15.0325   24.1041 O   0  0  0  0  0  0  0  0  0  0  0  0
    6.1719  -11.5802   26.0799 O   0  0  0  0  0  0  0  0  0  0  0  0
    6.8065  -12.8067   26.2741 C   0  0  0  0  0  0  0  0  0  0  0  0
    7.9394  -12.9109   27.0537 C   0  0  0  0  0  0  0  0  0  0  0  0
    8.5549  -14.1317   27.2357 C   0  0  0  0  0  0  0  0  0  0  0  0
    8.0809  -15.2955   26.6589 C   0  0  0  0  0  0  0  0  0  0  0  0
    8.7808  -16.5618   26.8883 C   0  0  0  0  0  0  0  0  0  0  0  0
   10.2092  -16.5857   26.4141 C   0  0  2  0  0  0  0  0  0  0  0  0
   10.2151  -17.0647   25.0462 N   0  0  0  0  0  0  0  0  0  0  0  0
   11.1288  -17.3260   27.2797 C   0  0  0  0  0  0  0  0  0  0  0  0
   11.9713  -18.3328   26.8330 O   0  0  0  0  0  0  0  0  0  0  0  0
    6.9409  -15.1843   25.8757 C   0  0  0  0  0  0  0  0  0  0  0  0
    6.3251  -13.9613   25.6940 C   0  0  0  0  0  0  0  0  0  0  0  0
   11.1716  -17.0467   28.5043 O   0  0  0  0  0  0  0  0  0  0  0  0
  2  3  1  0
  2  1  1  1
  3  4  1  0
  5  2  1  0
  6  5  2  0
  7  8  1  0
  9  8  1  6
  9 11  1  0
  9 10  1  0
 10  5  1  0
 11 12  2  0
 14 13  1  0
 15 14  2  0
 16 15  1  0
 17 23  1  0
 17 16  2  0
 18 17  1  0
 19 18  1  1
 20 19  1  0
 20 11  1  0
 21 19  1  0
 22 21  1  0
 23 24  2  0
 24 14  1  0
 25 21  2  0
M  END
$$$$
