CSY.pdb
     RDKit          3D

 25 25  0  0  1  0  0  0  0  0999 V2000
    7.6598  -14.6123   18.1209 N   0  0  0  0  0  0  0  0  0  0  0  0
    8.3876  -14.2246   19.2908 C   0  0  1  0  0  0  0  0  0  0  0  0
    8.1601  -12.7963   19.7059 C   0  0  0  0  0  0  0  0  0  0  0  0
    8.8432  -11.7471   18.3664 S   0  0  0  0  0  0  0  0  0  0  0  0
    8.1364  -15.1957   20.3698 C   0  0  0  0  0  0  0  0  0  0  0  0
    6.9868  -15.6306   20.6617 O   0  0  0  0  0  0  0  0  0  0  0  0
   11.0631  -17.6864   21.6681 O   0  0  0  0  0  0  0  0  0  0  0  0
    9.7108  -17.9607   21.7499 C   0  0  0  0  0  0  0  0  0  0  0  0
    8.9946  -16.6775   22.1910 C   0  0  2  0  0  0  0  0  0  0  0  0
    9.2120  -15.7077   21.1614 N   0  0  0  0  0  0  0  0  0  0  0  0
    9.4260  -16.2531   23.5192 C   0  0  0  0  0  0  0  0  0  0  0  0
   10.3523  -15.4242   23.6580 O   0  0  0  0  0  0  0  0  0  0  0  0
    6.1285  -10.7973   26.0479 O   0  0  0  0  0  0  0  0  0  0  0  0
    6.5940  -12.0978   26.2398 C   0  0  0  0  0  0  0  0  0  0  0  0
    5.8213  -13.1908   25.9076 C   0  0  0  0  0  0  0  0  0  0  0  0
    6.2967  -14.4706   26.1037 C   0  0  0  0  0  0  0  0  0  0  0  0
    7.5484  -14.7247   26.6334 C   0  0  0  0  0  0  0  0  0  0  0  0
    7.9956  -16.1071   26.8196 C   0  0  0  0  0  0  0  0  0  0  0  0
    9.2180  -16.4849   26.0266 C   0  0  2  0  0  0  0  0  0  0  0  0
    8.7951  -16.7797   24.6720 N   0  0  0  0  0  0  0  0  0  0  0  0
   10.0231  -17.5557   26.6167 C   0  0  0  0  0  0  0  0  0  0  0  0
   10.7522  -17.4204   27.7884 O   0  0  0  0  0  0  0  0  0  0  0  0
    8.3210  -13.6210   26.9656 C   0  0  0  0  0  0  0  0  0  0  0  0
    7.8441  -12.3396   26.7689 C   0  0  0  0  0  0  0  0  0  0  0  0
   10.0687  -18.6721   26.0412 O   0  0  0  0  0  0  0  0  0  0  0  0
  2  3  1  0
  2  1  1  6
  3  4  1  0
  5  2  1  0
  6  5  2  0
  7  8  1  0
  9  8  1  6
  9 11  1  0
  9 10  1  0
 10  5  1  0
 11 12  2  0
 14 13  1  0
 15 14  2  0
 16 15  1  0
 17 23  1  0
 17 16  2  0
 18 17  1  0
 19 18  1  1
 20 19  1  0
 20 11  1  0
 21 19  1  0
 22 21  1  0
 23 24  2  0
 24 14  1  0
 25 21  2  0
M  END
$$$$
