CSY.pdb
     RDKit          3D

 25 25  0  0  1  0  0  0  0  0999 V2000
    5.4620  -14.4188   26.2827 N   0  0  0  0  0  0  0  0  0  0  0  0
    6.2551  -13.8379   25.2424 C   0  0  1  0  0  0  0  0  0  0  0  0
    6.9442  -12.5610   25.6409 C   0  0  0  0  0  0  0  0  0  0  0  0
    5.6470  -11.4552   26.3161 S   0  0  0  0  0  0  0  0  0  0  0  0
    7.1726  -14.8542   24.6987 C   0  0  0  0  0  0  0  0  0  0  0  0
    7.6955  -15.7665   25.3990 O   0  0  0  0  0  0  0  0  0  0  0  0
    8.9343  -14.1454   21.1060 O   0  0  0  0  0  0  0  0  0  0  0  0
    8.6056  -15.4764   21.2823 C   0  0  0  0  0  0  0  0  0  0  0  0
    8.5191  -15.7456   22.7904 C   0  0  2  0  0  0  0  0  0  0  0  0
    7.5259  -14.8576   23.3127 N   0  0  0  0  0  0  0  0  0  0  0  0
    9.8258  -15.6314   23.4304 C   0  0  0  0  0  0  0  0  0  0  0  0
   10.1532  -14.5884   24.0382 O   0  0  0  0  0  0  0  0  0  0  0  0
   10.7457  -13.8595   29.9847 O   0  0  0  0  0  0  0  0  0  0  0  0
   10.7043  -14.7556   28.9169 C   0  0  0  0  0  0  0  0  0  0  0  0
   10.0595  -14.4375   27.7400 C   0  0  0  0  0  0  0  0  0  0  0  0
   10.0279  -15.3353   26.6935 C   0  0  0  0  0  0  0  0  0  0  0  0
   10.6281  -16.5789   26.7637 C   0  0  0  0  0  0  0  0  0  0  0  0
   10.5578  -17.4894   25.6184 C   0  0  0  0  0  0  0  0  0  0  0  0
   11.5172  -17.1720   24.5029 C   0  0  2  0  0  0  0  0  0  0  0  0
   10.7425  -16.7086   23.3690 N   0  0  0  0  0  0  0  0  0  0  0  0
   12.4355  -18.2588   24.1580 C   0  0  0  0  0  0  0  0  0  0  0  0
   13.7434  -18.3405   24.6115 O   0  0  0  0  0  0  0  0  0  0  0  0
   11.2752  -16.8932   27.9503 C   0  0  0  0  0  0  0  0  0  0  0  0
   11.3064  -15.9934   28.9979 C   0  0  0  0  0  0  0  0  0  0  0  0
   12.0324  -19.1824   23.4070 O   0  0  0  0  0  0  0  0  0  0  0  0
  2  3  1  0
  2  1  1  1
  3  4  1  0
  5  2  1  0
  6  5  2  0
  7  8  1  0
  9  8  1  6
  9 11  1  0
  9 10  1  0
 10  5  1  0
 11 12  2  0
 14 13  1  0
 15 14  2  0
 16 15  1  0
 17 23  1  0
 17 16  2  0
 18 17  1  0
 19 18  1  1
 20 19  1  0
 20 11  1  0
 21 19  1  0
 22 21  1  0
 23 24  2  0
 24 14  1  0
 25 21  2  0
M  END
$$$$
