CSY.pdb
     RDKit          3D

 25 25  0  0  1  0  0  0  0  0999 V2000
    9.4852  -17.4245   16.7423 N   0  0  0  0  0  0  0  0  0  0  0  0
    8.7003  -17.7026   17.9064 C   0  0  1  0  0  0  0  0  0  0  0  0
    8.8905  -19.0914   18.4535 C   0  0  0  0  0  0  0  0  0  0  0  0
   10.5394  -19.1168   19.2547 S   0  0  0  0  0  0  0  0  0  0  0  0
    8.9147  -16.6437   18.9079 C   0  0  0  0  0  0  0  0  0  0  0  0
    9.8422  -15.7894   18.8306 O   0  0  0  0  0  0  0  0  0  0  0  0
    6.0665  -15.9643   21.8554 O   0  0  0  0  0  0  0  0  0  0  0  0
    6.8001  -14.9361   21.2938 C   0  0  0  0  0  0  0  0  0  0  0  0
    8.2085  -15.4679   20.9978 C   0  0  2  0  0  0  0  0  0  0  0  0
    8.0593  -16.5280   20.0484 N   0  0  0  0  0  0  0  0  0  0  0  0
    8.9050  -15.8494   22.2224 C   0  0  0  0  0  0  0  0  0  0  0  0
    8.9791  -17.0484   22.5709 O   0  0  0  0  0  0  0  0  0  0  0  0
   10.4277  -15.3831   30.8175 O   0  0  0  0  0  0  0  0  0  0  0  0
   10.1357  -15.1440   29.4749 C   0  0  0  0  0  0  0  0  0  0  0  0
    9.5693  -13.9547   29.0664 C   0  0  0  0  0  0  0  0  0  0  0  0
    9.2867  -13.7342   27.7346 C   0  0  0  0  0  0  0  0  0  0  0  0
    9.5499  -14.6732   26.7544 C   0  0  0  0  0  0  0  0  0  0  0  0
    9.2246  -14.3803   25.3565 C   0  0  0  0  0  0  0  0  0  0  0  0
   10.0612  -15.1206   24.3476 C   0  0  2  0  0  0  0  0  0  0  0  0
    9.5081  -14.8584   23.0338 N   0  0  0  0  0  0  0  0  0  0  0  0
   10.2261  -16.5494   24.6202 C   0  0  0  0  0  0  0  0  0  0  0  0
    9.1708  -17.4386   24.7562 O   0  0  0  0  0  0  0  0  0  0  0  0
   10.1197  -15.8677   27.1715 C   0  0  0  0  0  0  0  0  0  0  0  0
   10.4023  -16.0877   28.5056 C   0  0  0  0  0  0  0  0  0  0  0  0
   11.3863  -17.0171   24.7416 O   0  0  0  0  0  0  0  0  0  0  0  0
  2  3  1  0
  2  1  1  6
  3  4  1  0
  5  2  1  0
  6  5  2  0
  7  8  1  0
  9  8  1  1
  9 11  1  0
  9 10  1  0
 10  5  1  0
 11 12  2  0
 14 13  1  0
 15 14  2  0
 16 15  1  0
 17 23  1  0
 17 16  2  0
 18 17  1  0
 19 18  1  1
 20 19  1  0
 20 11  1  0
 21 19  1  0
 22 21  1  0
 23 24  2  0
 24 14  1  0
 25 21  2  0
M  END
$$$$
