CSY.pdb
     RDKit          3D

 25 25  0  0  1  0  0  0  0  0999 V2000
    6.7087  -13.8304   18.9388 N   0  0  0  0  0  0  0  0  0  0  0  0
    7.9287  -13.9867   19.6707 C   0  0  1  0  0  0  0  0  0  0  0  0
    8.5723  -12.6863   20.0693 C   0  0  0  0  0  0  0  0  0  0  0  0
    9.0788  -11.8553   18.5155 S   0  0  0  0  0  0  0  0  0  0  0  0
    7.7082  -14.9030   20.8030 C   0  0  0  0  0  0  0  0  0  0  0  0
    6.7429  -14.7927   21.6105 O   0  0  0  0  0  0  0  0  0  0  0  0
    8.4727  -18.4220   20.3321 O   0  0  0  0  0  0  0  0  0  0  0  0
    8.8614  -18.2820   21.6512 C   0  0  0  0  0  0  0  0  0  0  0  0
    8.3982  -16.9020   22.1360 C   0  0  2  0  0  0  0  0  0  0  0  0
    8.6014  -15.9924   21.0501 N   0  0  0  0  0  0  0  0  0  0  0  0
    9.0655  -16.5184   23.3761 C   0  0  0  0  0  0  0  0  0  0  0  0
   10.1607  -15.9147   23.3547 O   0  0  0  0  0  0  0  0  0  0  0  0
    6.1466  -10.7600   25.8314 O   0  0  0  0  0  0  0  0  0  0  0  0
    6.6106  -12.0520   26.0774 C   0  0  0  0  0  0  0  0  0  0  0  0
    5.7828  -13.1471   25.9449 C   0  0  0  0  0  0  0  0  0  0  0  0
    6.2575  -14.4183   26.1919 C   0  0  0  0  0  0  0  0  0  0  0  0
    7.5626  -14.6614   26.5782 C   0  0  0  0  0  0  0  0  0  0  0  0
    8.0063  -16.0349   26.8282 C   0  0  0  0  0  0  0  0  0  0  0  0
    9.0877  -16.5247   25.9028 C   0  0  2  0  0  0  0  0  0  0  0  0
    8.4749  -16.8283   24.6249 N   0  0  0  0  0  0  0  0  0  0  0  0
    9.8865  -17.6333   26.4279 C   0  0  0  0  0  0  0  0  0  0  0  0
    9.9241  -18.8977   25.8598 O   0  0  0  0  0  0  0  0  0  0  0  0
    8.3906  -13.5557   26.7099 C   0  0  0  0  0  0  0  0  0  0  0  0
    7.9144  -12.2829   26.4622 C   0  0  0  0  0  0  0  0  0  0  0  0
   10.5869  -17.4474   27.4548 O   0  0  0  0  0  0  0  0  0  0  0  0
  2  3  1  0
  2  1  1  1
  3  4  1  0
  5  2  1  0
  6  5  2  0
  7  8  1  0
  9  8  1  6
  9 11  1  0
  9 10  1  0
 10  5  1  0
 11 12  2  0
 14 13  1  0
 15 14  2  0
 16 15  1  0
 17 23  1  0
 17 16  2  0
 18 17  1  0
 19 18  1  1
 20 19  1  0
 20 11  1  0
 21 19  1  0
 22 21  1  0
 23 24  2  0
 24 14  1  0
 25 21  2  0
M  END
$$$$
