CSY.pdb
     RDKit          3D

 25 25  0  0  1  0  0  0  0  0999 V2000
    7.3617  -20.7967   17.5163 N   0  0  0  0  0  0  0  0  0  0  0  0
    8.4378  -21.7402   17.4962 C   0  0  1  0  0  0  0  0  0  0  0  0
    8.6633  -22.3805   16.1533 C   0  0  0  0  0  0  0  0  0  0  0  0
    7.3211  -21.7826   15.0566 S   0  0  0  0  0  0  0  0  0  0  0  0
    9.6482  -21.1168   18.0590 C   0  0  0  0  0  0  0  0  0  0  0  0
   10.6788  -21.7690   18.3882 O   0  0  0  0  0  0  0  0  0  0  0  0
    9.8899  -16.9638   19.0853 O   0  0  0  0  0  0  0  0  0  0  0  0
   10.8409  -17.6041   18.3130 C   0  0  0  0  0  0  0  0  0  0  0  0
   10.9021  -19.0708   18.7594 C   0  0  2  0  0  0  0  0  0  0  0  0
    9.7171  -19.7032   18.2658 N   0  0  0  0  0  0  0  0  0  0  0  0
   11.0888  -19.1838   20.2025 C   0  0  0  0  0  0  0  0  0  0  0  0
   10.1064  -19.2064   20.9763 O   0  0  0  0  0  0  0  0  0  0  0  0
   12.8611  -21.8867   28.1241 O   0  0  0  0  0  0  0  0  0  0  0  0
   12.6481  -21.5829   26.7797 C   0  0  0  0  0  0  0  0  0  0  0  0
   11.5168  -20.9097   26.3686 C   0  0  0  0  0  0  0  0  0  0  0  0
   11.3215  -20.6169   25.0350 C   0  0  0  0  0  0  0  0  0  0  0  0
   12.2298  -20.9743   24.0556 C   0  0  0  0  0  0  0  0  0  0  0  0
   11.9642  -20.6365   22.6552 C   0  0  0  0  0  0  0  0  0  0  0  0
   12.6701  -19.4023   22.1612 C   0  0  2  0  0  0  0  0  0  0  0  0
   12.3939  -19.2696   20.7446 N   0  0  0  0  0  0  0  0  0  0  0  0
   14.1004  -19.3511   22.4688 C   0  0  0  0  0  0  0  0  0  0  0  0
   15.0732  -20.0200   21.7413 O   0  0  0  0  0  0  0  0  0  0  0  0
   13.3659  -21.6514   24.4754 C   0  0  0  0  0  0  0  0  0  0  0  0
   13.5607  -21.9442   25.8112 C   0  0  0  0  0  0  0  0  0  0  0  0
   14.4895  -18.6651   23.4473 O   0  0  0  0  0  0  0  0  0  0  0  0
  2  3  1  0
  2  1  1  6
  3  4  1  0
  5  2  1  0
  6  5  2  0
  7  8  1  0
  9  8  1  1
  9 11  1  0
  9 10  1  0
 10  5  1  0
 11 12  2  0
 14 13  1  0
 15 14  2  0
 16 15  1  0
 17 23  1  0
 17 16  2  0
 18 17  1  0
 19 18  1  6
 20 19  1  0
 20 11  1  0
 21 19  1  0
 22 21  1  0
 23 24  2  0
 24 14  1  0
 25 21  2  0
M  END
$$$$
