CSY.pdb
     RDKit          3D

 25 25  0  0  1  0  0  0  0  0999 V2000
    6.6005  -19.6687   15.9042 N   0  0  0  0  0  0  0  0  0  0  0  0
    7.4851  -18.5614   16.1043 C   0  0  1  0  0  0  0  0  0  0  0  0
    6.8771  -17.2262   15.7700 C   0  0  0  0  0  0  0  0  0  0  0  0
    6.5548  -17.2353   13.9652 S   0  0  0  0  0  0  0  0  0  0  0  0
    8.0509  -18.6242   17.4631 C   0  0  0  0  0  0  0  0  0  0  0  0
    7.3532  -18.8064   18.5004 O   0  0  0  0  0  0  0  0  0  0  0  0
   11.7717  -20.0443   18.5132 O   0  0  0  0  0  0  0  0  0  0  0  0
   11.5389  -18.7148   18.8116 C   0  0  0  0  0  0  0  0  0  0  0  0
   10.0266  -18.5291   18.9917 C   0  0  2  0  0  0  0  0  0  0  0  0
    9.4571  -18.4778   17.6799 N   0  0  0  0  0  0  0  0  0  0  0  0
    9.7250  -17.3695   19.8252 C   0  0  0  0  0  0  0  0  0  0  0  0
    9.4876  -16.2544   19.3107 O   0  0  0  0  0  0  0  0  0  0  0  0
    6.3050  -12.4342   26.1651 O   0  0  0  0  0  0  0  0  0  0  0  0
    6.7089  -13.3833   25.2266 C   0  0  0  0  0  0  0  0  0  0  0  0
    6.9085  -14.7010   25.5814 C   0  0  0  0  0  0  0  0  0  0  0  0
    7.3080  -15.6272   24.6407 C   0  0  0  0  0  0  0  0  0  0  0  0
    7.5263  -15.2940   23.3167 C   0  0  0  0  0  0  0  0  0  0  0  0
    7.9521  -16.3232   22.3654 C   0  0  0  0  0  0  0  0  0  0  0  0
    9.4384  -16.3932   22.1380 C   0  0  2  0  0  0  0  0  0  0  0  0
    9.6982  -17.4967   21.2349 N   0  0  0  0  0  0  0  0  0  0  0  0
   10.2419  -16.4574   23.3601 C   0  0  0  0  0  0  0  0  0  0  0  0
   10.6510  -17.6406   23.9564 O   0  0  0  0  0  0  0  0  0  0  0  0
    7.3239  -13.9668   22.9658 C   0  0  0  0  0  0  0  0  0  0  0  0
    6.9237  -13.0399   23.9085 C   0  0  0  0  0  0  0  0  0  0  0  0
   10.5916  -15.3864   23.9168 O   0  0  0  0  0  0  0  0  0  0  0  0
  2  3  1  0
  2  1  1  1
  3  4  1  0
  5  2  1  0
  6  5  2  0
  7  8  1  0
  9  8  1  6
  9 11  1  0
  9 10  1  0
 10  5  1  0
 11 12  2  0
 14 13  1  0
 15 14  2  0
 16 15  1  0
 17 23  1  0
 17 16  2  0
 18 17  1  0
 19 18  1  1
 20 19  1  0
 20 11  1  0
 21 19  1  0
 22 21  1  0
 23 24  2  0
 24 14  1  0
 25 21  2  0
M  END
$$$$
