CSY.pdb
     RDKit          3D

 25 25  0  0  1  0  0  0  0  0999 V2000
    7.6248  -14.1134   17.5614 N   0  0  0  0  0  0  0  0  0  0  0  0
    8.5401  -14.1937   18.6588 C   0  0  1  0  0  0  0  0  0  0  0  0
    9.0649  -12.8593   19.1149 C   0  0  0  0  0  0  0  0  0  0  0  0
   10.1880  -12.2600   17.7955 S   0  0  0  0  0  0  0  0  0  0  0  0
    7.9382  -14.9887   19.7432 C   0  0  0  0  0  0  0  0  0  0  0  0
    6.7558  -14.8218   20.1555 O   0  0  0  0  0  0  0  0  0  0  0  0
    9.2270  -18.6902   20.9984 O   0  0  0  0  0  0  0  0  0  0  0  0
    7.9919  -18.1272   21.2600 C   0  0  0  0  0  0  0  0  0  0  0  0
    8.2097  -16.6458   21.5951 C   0  0  2  0  0  0  0  0  0  0  0  0
    8.6842  -16.0170   20.4004 N   0  0  0  0  0  0  0  0  0  0  0  0
    9.0855  -16.4816   22.7510 C   0  0  0  0  0  0  0  0  0  0  0  0
   10.3206  -16.3475   22.6058 O   0  0  0  0  0  0  0  0  0  0  0  0
    5.2324  -11.5792   26.8624 O   0  0  0  0  0  0  0  0  0  0  0  0
    6.3139  -12.3807   26.4979 C   0  0  0  0  0  0  0  0  0  0  0  0
    7.2188  -12.8318   27.4359 C   0  0  0  0  0  0  0  0  0  0  0  0
    8.2830  -13.6238   27.0586 C   0  0  0  0  0  0  0  0  0  0  0  0
    8.4983  -14.0023   25.7463 C   0  0  0  0  0  0  0  0  0  0  0  0
    9.6489  -14.8436   25.4084 C   0  0  0  0  0  0  0  0  0  0  0  0
    9.3350  -16.3082   25.2594 C   0  0  2  0  0  0  0  0  0  0  0  0
    8.5412  -16.4724   24.0579 N   0  0  0  0  0  0  0  0  0  0  0  0
    8.7198  -16.9247   26.4360 C   0  0  0  0  0  0  0  0  0  0  0  0
    9.3659  -17.0868   27.6522 O   0  0  0  0  0  0  0  0  0  0  0  0
    7.5846  -13.5454   24.8072 C   0  0  0  0  0  0  0  0  0  0  0  0
    6.5190  -12.7522   25.1859 C   0  0  0  0  0  0  0  0  0  0  0  0
    7.5355  -17.3381   26.3587 O   0  0  0  0  0  0  0  0  0  0  0  0
  2  3  1  0
  2  1  1  6
  3  4  1  0
  5  2  1  0
  6  5  2  0
  7  8  1  0
  9  8  1  6
  9 11  1  0
  9 10  1  0
 10  5  1  0
 11 12  2  0
 14 13  1  0
 15 14  2  0
 16 15  1  0
 17 23  1  0
 17 16  2  0
 18 17  1  0
 19 18  1  1
 20 19  1  0
 20 11  1  0
 21 19  1  0
 22 21  1  0
 23 24  2  0
 24 14  1  0
 25 21  2  0
M  END
$$$$
