DST.pdb
     RDKit          3D

 22 21  0  0  1  0  0  0  0  0999 V2000
    9.9894  -17.9626   20.5828 N   0  0  0  0  0  0  0  0  0  0  0  0
    9.0881  -16.9251   20.1768 C   0  0  1  0  0  0  0  0  0  0  0  0
    8.2569  -17.3097   18.9874 C   0  0  0  0  0  0  0  0  0  0  0  0
    9.0881  -17.8428   17.8751 C   0  0  0  0  0  0  0  0  0  0  0  0
    9.6295  -18.9657   18.0204 O   0  0  0  0  0  0  0  0  0  0  0  0
    8.1682  -16.6063   21.3037 C   0  0  0  0  0  0  0  0  0  0  0  0
    7.2670  -15.7407   21.1431 O   0  0  0  0  0  0  0  0  0  0  0  0
    9.2834  -17.1489   16.6955 O   0  0  0  0  0  0  0  0  0  0  0  0
    8.2203  -18.4479   25.2416 O   0  0  0  0  0  0  0  0  0  0  0  0
    7.0880  -17.9648   24.6158 C   0  0  0  0  0  0  0  0  0  0  0  0
    7.3637  -16.8704   23.6294 C   0  0  2  0  0  0  0  0  0  0  0  0
    8.2438  -17.2284   22.5735 N   0  0  0  0  0  0  0  0  0  0  0  0
    7.9680  -15.7284   24.4115 C   0  0  0  0  0  0  0  0  0  0  0  0
    9.1951  -15.4884   24.2927 O   0  0  0  0  0  0  0  0  0  0  0  0
    7.1857  -11.6782   27.1255 C   0  0  0  0  0  0  0  0  0  0  0  0
    6.5609  -12.8658   26.4337 C   0  0  1  0  0  0  0  0  0  0  0  0
    5.9266  -12.4090   25.2752 O   0  0  0  0  0  0  0  0  0  0  0  0
    7.6409  -13.8272   26.0355 C   0  0  2  0  0  0  0  0  0  0  0  0
    7.1575  -14.9457   25.2630 N   0  0  0  0  0  0  0  0  0  0  0  0
    8.4849  -14.2368   27.1935 C   0  0  0  0  0  0  0  0  0  0  0  0
    8.4858  -15.4219   27.5794 O   0  0  0  0  0  0  0  0  0  0  0  0
    9.2854  -13.3484   27.8771 O   0  0  0  0  0  0  0  0  0  0  0  0
  2  1  1  1
  2  6  1  0
  2  3  1  0
  3  4  1  0
  4  8  1  0
  5  4  2  0
  6 12  1  0
  7  6  2  0
 10  9  1  0
 11 10  1  1
 11 13  1  0
 12 11  1  0
 13 14  2  0
 13 19  1  0
 16 15  1  6
 17 16  1  0
 18 16  1  0
 18 20  1  0
 18 19  1  1
 20 22  1  0
 21 20  2  0
M  END
$$$$
