DST.pdb
     RDKit          3D

 22 21  0  0  1  0  0  0  0  0999 V2000
    0.4722  -27.0914   29.1548 N   0  0  0  0  0  0  0  0  0  0  0  0
   -0.6163  -27.0606   30.0863 C   0  0  1  0  0  0  0  0  0  0  0  0
   -0.3240  -26.2187   31.2943 C   0  0  0  0  0  0  0  0  0  0  0  0
    0.8228  -26.7488   32.0791 C   0  0  0  0  0  0  0  0  0  0  0  0
    0.8712  -27.9823   32.3054 O   0  0  0  0  0  0  0  0  0  0  0  0
   -1.8224  -26.5046   29.4125 C   0  0  0  0  0  0  0  0  0  0  0  0
   -1.7225  -25.4469   28.7353 O   0  0  0  0  0  0  0  0  0  0  0  0
    1.8298  -25.9354   32.5643 O   0  0  0  0  0  0  0  0  0  0  0  0
   -5.7111  -28.2674   29.6145 O   0  0  0  0  0  0  0  0  0  0  0  0
   -5.3309  -27.5088   28.5251 C   0  0  0  0  0  0  0  0  0  0  0  0
   -4.2251  -26.5408   28.8196 C   0  0  2  0  0  0  0  0  0  0  0  0
   -3.1037  -27.1027   29.4861 N   0  0  0  0  0  0  0  0  0  0  0  0
   -4.8220  -25.4558   29.6843 C   0  0  0  0  0  0  0  0  0  0  0  0
   -4.6148  -25.4784   30.9229 O   0  0  0  0  0  0  0  0  0  0  0  0
   -7.1748  -21.1225   29.9223 C   0  0  0  0  0  0  0  0  0  0  0  0
   -6.6898  -22.2283   29.0161 C   0  0  1  0  0  0  0  0  0  0  0  0
   -5.5679  -21.7626   28.3251 O   0  0  0  0  0  0  0  0  0  0  0  0
   -6.2781  -23.4038   29.8515 C   0  0  2  0  0  0  0  0  0  0  0  0
   -5.6016  -24.4331   29.1003 N   0  0  0  0  0  0  0  0  0  0  0  0
   -7.4012  -23.9265   30.6801 C   0  0  0  0  0  0  0  0  0  0  0  0
   -7.5741  -23.5026   31.8393 O   0  0  0  0  0  0  0  0  0  0  0  0
   -8.2814  -24.8797   30.2174 O   0  0  0  0  0  0  0  0  0  0  0  0
  2  1  1  6
  2  6  1  0
  2  3  1  0
  3  4  1  0
  4  8  1  0
  5  4  2  0
  6 12  1  0
  7  6  2  0
 10  9  1  0
 11 10  1  1
 11 13  1  0
 12 11  1  0
 13 14  2  0
 13 19  1  0
 16 15  1  1
 17 16  1  0
 18 16  1  0
 18 20  1  0
 18 19  1  6
 20 22  1  0
 21 20  2  0
M  END
$$$$
