DST.pdb
     RDKit          3D

 22 21  0  0  1  0  0  0  0  0999 V2000
    9.8059  -18.7771   21.0153 N   0  0  0  0  0  0  0  0  0  0  0  0
   10.3677  -17.4604   20.9496 C   0  0  1  0  0  0  0  0  0  0  0  0
    9.9953  -16.7316   19.6912 C   0  0  0  0  0  0  0  0  0  0  0  0
   10.7142  -17.2659   18.5038 C   0  0  0  0  0  0  0  0  0  0  0  0
   11.3386  -18.3482   18.6219 O   0  0  0  0  0  0  0  0  0  0  0  0
    9.8833  -16.6625   22.1100 C   0  0  0  0  0  0  0  0  0  0  0  0
   10.2618  -15.4683   22.2431 O   0  0  0  0  0  0  0  0  0  0  0  0
   10.7182  -16.6161   17.2837 O   0  0  0  0  0  0  0  0  0  0  0  0
    7.3458  -18.1676   25.2317 O   0  0  0  0  0  0  0  0  0  0  0  0
    7.2717  -16.8539   24.8124 C   0  0  0  0  0  0  0  0  0  0  0  0
    8.5247  -16.3578   24.1564 C   0  0  2  0  0  0  0  0  0  0  0  0
    9.0042  -17.1724   23.0960 N   0  0  0  0  0  0  0  0  0  0  0  0
    9.5763  -16.2838   25.2378 C   0  0  0  0  0  0  0  0  0  0  0  0
   10.5319  -17.0987   25.2177 O   0  0  0  0  0  0  0  0  0  0  0  0
    9.0096  -13.5625   28.5583 C   0  0  0  0  0  0  0  0  0  0  0  0
   10.3904  -13.8726   28.0326 C   0  0  1  0  0  0  0  0  0  0  0  0
   11.2690  -13.9145   29.1186 O   0  0  0  0  0  0  0  0  0  0  0  0
   10.3767  -15.2235   27.3812 C   0  0  2  0  0  0  0  0  0  0  0  0
    9.4795  -15.3084   26.2546 N   0  0  0  0  0  0  0  0  0  0  0  0
   10.1819  -16.3226   28.3687 C   0  0  0  0  0  0  0  0  0  0  0  0
   11.0880  -16.6069   29.1758 O   0  0  0  0  0  0  0  0  0  0  0  0
    9.0203  -17.0598   28.4363 O   0  0  0  0  0  0  0  0  0  0  0  0
  2  1  1  6
  2  6  1  0
  2  3  1  0
  3  4  1  0
  4  8  1  0
  5  4  2  0
  6 12  1  0
  7  6  2  0
 10  9  1  0
 11 10  1  1
 11 13  1  0
 12 11  1  0
 13 14  2  0
 13 19  1  0
 16 15  1  1
 17 16  1  0
 18 16  1  0
 18 20  1  0
 18 19  1  6
 20 22  1  0
 21 20  2  0
M  END
$$$$
