DST.pdb
     RDKit          3D

 22 21  0  0  1  0  0  0  0  0999 V2000
   10.3157  -18.3394   20.5848 N   0  0  0  0  0  0  0  0  0  0  0  0
   11.2467  -17.2602   20.7336 C   0  0  1  0  0  0  0  0  0  0  0  0
   11.8537  -16.8319   19.4291 C   0  0  0  0  0  0  0  0  0  0  0  0
   12.7788  -17.8593   18.8807 C   0  0  0  0  0  0  0  0  0  0  0  0
   12.4396  -19.0656   18.9509 O   0  0  0  0  0  0  0  0  0  0  0  0
   10.5470  -16.0877   21.3283 C   0  0  0  0  0  0  0  0  0  0  0  0
   11.2155  -15.0806   21.6832 O   0  0  0  0  0  0  0  0  0  0  0  0
   13.9906  -17.5334   18.3006 O   0  0  0  0  0  0  0  0  0  0  0  0
    6.2922  -15.6407   21.5366 O   0  0  0  0  0  0  0  0  0  0  0  0
    7.1663  -14.5720   21.5068 C   0  0  0  0  0  0  0  0  0  0  0  0
    8.5184  -14.8819   22.0745 C   0  0  2  0  0  0  0  0  0  0  0  0
    9.1458  -16.0316   21.5247 N   0  0  0  0  0  0  0  0  0  0  0  0
    8.3256  -15.0855   23.5585 C   0  0  0  0  0  0  0  0  0  0  0  0
    7.7271  -14.2039   24.2235 O   0  0  0  0  0  0  0  0  0  0  0  0
    6.2965  -16.7161   25.5867 C   0  0  0  0  0  0  0  0  0  0  0  0
    7.5887  -17.3830   25.9925 C   0  0  1  0  0  0  0  0  0  0  0  0
    7.6943  -18.5875   25.2917 O   0  0  0  0  0  0  0  0  0  0  0  0
    8.7396  -16.5045   25.6016 C   0  0  2  0  0  0  0  0  0  0  0  0
    8.8146  -16.2542   24.1827 N   0  0  0  0  0  0  0  0  0  0  0  0
   10.0292  -16.9747   26.1819 C   0  0  0  0  0  0  0  0  0  0  0  0
   10.9826  -17.2671   25.4343 O   0  0  0  0  0  0  0  0  0  0  0  0
   10.2262  -17.1061   27.5389 O   0  0  0  0  0  0  0  0  0  0  0  0
  2  1  1  6
  2  6  1  0
  2  3  1  0
  3  4  1  0
  4  8  1  0
  5  4  2  0
  6 12  1  0
  7  6  2  0
 10  9  1  0
 11 10  1  6
 11 13  1  0
 12 11  1  0
 13 14  2  0
 13 19  1  0
 16 15  1  6
 17 16  1  0
 18 16  1  0
 18 20  1  0
 18 19  1  6
 20 22  1  0
 21 20  2  0
M  END
$$$$
