DST.pdb
     RDKit          3D

 22 21  0  0  1  0  0  0  0  0999 V2000
    9.5657  -18.8866   21.3381 N   0  0  0  0  0  0  0  0  0  0  0  0
    9.8114  -17.4765   21.2681 C   0  0  1  0  0  0  0  0  0  0  0  0
    9.2295  -16.8455   20.0365 C   0  0  0  0  0  0  0  0  0  0  0  0
    9.8599  -17.3642   18.7933 C   0  0  0  0  0  0  0  0  0  0  0  0
   10.9779  -17.9275   18.8818 O   0  0  0  0  0  0  0  0  0  0  0  0
    9.2097  -16.8144   22.4587 C   0  0  0  0  0  0  0  0  0  0  0  0
    9.1710  -15.5565   22.5157 O   0  0  0  0  0  0  0  0  0  0  0  0
    9.2610  -17.2479   17.5527 O   0  0  0  0  0  0  0  0  0  0  0  0
    7.5383  -18.9182   25.7787 O   0  0  0  0  0  0  0  0  0  0  0  0
    7.1572  -17.6213   25.4961 C   0  0  0  0  0  0  0  0  0  0  0  0
    8.1723  -16.8524   24.7055 C   0  0  2  0  0  0  0  0  0  0  0  0
    8.6658  -17.5252   23.5559 N   0  0  0  0  0  0  0  0  0  0  0  0
    9.3214  -16.5668   25.6430 C   0  0  0  0  0  0  0  0  0  0  0  0
   10.4115  -17.1675   25.4741 O   0  0  0  0  0  0  0  0  0  0  0  0
   10.0368  -12.9381   27.3575 C   0  0  0  0  0  0  0  0  0  0  0  0
    9.9864  -14.0463   28.3816 C   0  0  1  0  0  0  0  0  0  0  0  0
    8.7210  -14.0323   28.9744 O   0  0  0  0  0  0  0  0  0  0  0  0
   10.1716  -15.3640   27.6898 C   0  0  2  0  0  0  0  0  0  0  0  0
    9.1645  -15.6356   26.6931 N   0  0  0  0  0  0  0  0  0  0  0  0
   10.3577  -16.4848   28.6543 C   0  0  0  0  0  0  0  0  0  0  0  0
    9.5828  -17.4609   28.6370 O   0  0  0  0  0  0  0  0  0  0  0  0
   11.3697  -16.4971   29.5887 O   0  0  0  0  0  0  0  0  0  0  0  0
  2  1  1  1
  2  6  1  0
  2  3  1  0
  3  4  1  0
  4  8  1  0
  5  4  2  0
  6 12  1  0
  7  6  2  0
 10  9  1  0
 11 10  1  1
 11 13  1  0
 12 11  1  0
 13 14  2  0
 13 19  1  0
 16 15  1  6
 17 16  1  0
 18 16  1  0
 18 20  1  0
 18 19  1  1
 20 22  1  0
 21 20  2  0
M  END
$$$$
