DST.pdb
     RDKit          3D

 22 21  0  0  1  0  0  0  0  0999 V2000
   10.4927  -18.7824   18.3321 N   0  0  0  0  0  0  0  0  0  0  0  0
   11.8101  -18.2952   18.0477 C   0  0  1  0  0  0  0  0  0  0  0  0
   11.8885  -17.5601   16.7411 C   0  0  0  0  0  0  0  0  0  0  0  0
   11.5140  -18.4257   15.5910 C   0  0  0  0  0  0  0  0  0  0  0  0
   10.6881  -17.9835   14.7560 O   0  0  0  0  0  0  0  0  0  0  0  0
   12.2331  -17.3649   19.1310 C   0  0  0  0  0  0  0  0  0  0  0  0
   13.3396  -16.7695   19.0405 O   0  0  0  0  0  0  0  0  0  0  0  0
   12.0406  -19.6913   15.4118 O   0  0  0  0  0  0  0  0  0  0  0  0
   10.0316  -16.7040   22.7475 O   0  0  0  0  0  0  0  0  0  0  0  0
   10.8551  -15.7234   22.2305 C   0  0  0  0  0  0  0  0  0  0  0  0
   11.9218  -16.2496   21.3185 C   0  0  2  0  0  0  0  0  0  0  0  0
   11.4527  -17.1010   20.2826 N   0  0  0  0  0  0  0  0  0  0  0  0
   12.8913  -17.0153   22.1872 C   0  0  0  0  0  0  0  0  0  0  0  0
   12.6427  -18.2134   22.4709 O   0  0  0  0  0  0  0  0  0  0  0  0
   16.6511  -16.8818   21.6149 C   0  0  0  0  0  0  0  0  0  0  0  0
   16.4646  -16.6765   23.0989 C   0  0  1  0  0  0  0  0  0  0  0  0
   16.6547  -15.3201   23.3768 O   0  0  0  0  0  0  0  0  0  0  0  0
   15.0600  -17.0450   23.4737 C   0  0  2  0  0  0  0  0  0  0  0  0
   14.0596  -16.3855   22.6701 N   0  0  0  0  0  0  0  0  0  0  0  0
   14.8149  -16.9128   24.9378 C   0  0  0  0  0  0  0  0  0  0  0  0
   13.9794  -16.0906   25.3611 O   0  0  0  0  0  0  0  0  0  0  0  0
   15.4829  -17.6737   25.8719 O   0  0  0  0  0  0  0  0  0  0  0  0
  2  1  1  1
  2  6  1  0
  2  3  1  0
  3  4  1  0
  4  8  1  0
  5  4  2  0
  6 12  1  0
  7  6  2  0
 10  9  1  0
 11 10  1  1
 11 13  1  0
 12 11  1  0
 13 14  2  0
 13 19  1  0
 16 15  1  6
 17 16  1  0
 18 16  1  0
 18 20  1  0
 18 19  1  6
 20 22  1  0
 21 20  2  0
M  END
$$$$
