DST.pdb
     RDKit          3D

 22 21  0  0  1  0  0  0  0  0999 V2000
   13.8772  -19.0816   16.2477 N   0  0  0  0  0  0  0  0  0  0  0  0
   13.7595  -20.0285   17.3168 C   0  0  1  0  0  0  0  0  0  0  0  0
   15.0911  -20.4803   17.8424 C   0  0  0  0  0  0  0  0  0  0  0  0
   15.8846  -21.1969   16.8085 C   0  0  0  0  0  0  0  0  0  0  0  0
   17.1069  -20.9316   16.7049 O   0  0  0  0  0  0  0  0  0  0  0  0
   13.0022  -19.4087   18.4394 C   0  0  0  0  0  0  0  0  0  0  0  0
   13.2703  -18.2293   18.7921 O   0  0  0  0  0  0  0  0  0  0  0  0
   15.3261  -22.1381   15.9639 O   0  0  0  0  0  0  0  0  0  0  0  0
    9.7850  -21.3324   20.4654 O   0  0  0  0  0  0  0  0  0  0  0  0
    9.8273  -19.9577   20.3420 C   0  0  0  0  0  0  0  0  0  0  0  0
   11.2092  -19.4113   20.1456 C   0  0  2  0  0  0  0  0  0  0  0  0
   11.9765  -20.0759   19.1519 N   0  0  0  0  0  0  0  0  0  0  0  0
   11.9127  -19.5317   21.4766 C   0  0  0  0  0  0  0  0  0  0  0  0
   13.0451  -20.0731   21.5223 O   0  0  0  0  0  0  0  0  0  0  0  0
   11.7235  -16.2761   23.6457 C   0  0  0  0  0  0  0  0  0  0  0  0
   12.7353  -17.3892   23.7741 C   0  0  1  0  0  0  0  0  0  0  0  0
   13.4419  -17.1983   24.9647 O   0  0  0  0  0  0  0  0  0  0  0  0
   12.0147  -18.7019   23.8556 C   0  0  2  0  0  0  0  0  0  0  0  0
   11.2988  -19.0396   22.6494 N   0  0  0  0  0  0  0  0  0  0  0  0
   11.1762  -18.8085   25.0831 C   0  0  0  0  0  0  0  0  0  0  0  0
    9.9721  -18.4884   25.0486 O   0  0  0  0  0  0  0  0  0  0  0  0
   11.6778  -19.2548   26.2859 O   0  0  0  0  0  0  0  0  0  0  0  0
  2  1  1  6
  2  6  1  0
  2  3  1  0
  3  4  1  0
  4  8  1  0
  5  4  2  0
  6 12  1  0
  7  6  2  0
 10  9  1  0
 11 10  1  1
 11 13  1  0
 12 11  1  0
 13 14  2  0
 13 19  1  0
 16 15  1  1
 17 16  1  0
 18 16  1  0
 18 20  1  0
 18 19  1  6
 20 22  1  0
 21 20  2  0
M  END
$$$$
