DST.pdb
     RDKit          3D

 22 21  0  0  1  0  0  0  0  0999 V2000
   12.3610  -17.3482   19.8511 N   0  0  0  0  0  0  0  0  0  0  0  0
   12.7614  -17.4708   21.2216 C   0  0  1  0  0  0  0  0  0  0  0  0
   14.0689  -16.7913   21.5083 C   0  0  0  0  0  0  0  0  0  0  0  0
   15.0693  -17.0315   20.4342 C   0  0  0  0  0  0  0  0  0  0  0  0
   15.5650  -18.1794   20.3268 O   0  0  0  0  0  0  0  0  0  0  0  0
   11.7192  -16.8607   22.0931 C   0  0  0  0  0  0  0  0  0  0  0  0
   11.2294  -15.7417   21.7843 O   0  0  0  0  0  0  0  0  0  0  0  0
   15.4690  -16.0408   19.5567 O   0  0  0  0  0  0  0  0  0  0  0  0
    9.3664  -19.0269   24.8220 O   0  0  0  0  0  0  0  0  0  0  0  0
    9.0110  -17.8102   24.2740 C   0  0  0  0  0  0  0  0  0  0  0  0
   10.1735  -16.8971   24.0259 C   0  0  2  0  0  0  0  0  0  0  0  0
   11.2325  -17.4722   23.2738 N   0  0  0  0  0  0  0  0  0  0  0  0
   10.6959  -16.4873   25.3824 C   0  0  0  0  0  0  0  0  0  0  0  0
   11.8157  -16.9129   25.7600 O   0  0  0  0  0  0  0  0  0  0  0  0
   10.1507  -13.6171   29.3580 C   0  0  0  0  0  0  0  0  0  0  0  0
    9.4767  -14.1503   28.1167 C   0  0  1  0  0  0  0  0  0  0  0  0
    9.4332  -13.1224   27.1708 O   0  0  0  0  0  0  0  0  0  0  0  0
   10.2955  -15.2754   27.5573 C   0  0  2  0  0  0  0  0  0  0  0  0
    9.9295  -15.6366   26.2093 N   0  0  0  0  0  0  0  0  0  0  0  0
   10.3528  -16.4434   28.4811 C   0  0  0  0  0  0  0  0  0  0  0  0
    9.5818  -17.4090   28.3181 O   0  0  0  0  0  0  0  0  0  0  0  0
   11.2383  -16.5117   29.5341 O   0  0  0  0  0  0  0  0  0  0  0  0
  2  1  1  6
  2  6  1  0
  2  3  1  0
  3  4  1  0
  4  8  1  0
  5  4  2  0
  6 12  1  0
  7  6  2  0
 10  9  1  0
 11 10  1  1
 11 13  1  0
 12 11  1  0
 13 14  2  0
 13 19  1  0
 16 15  1  1
 17 16  1  0
 18 16  1  0
 18 20  1  0
 18 19  1  6
 20 22  1  0
 21 20  2  0
M  END
$$$$
