DST.pdb
     RDKit          3D

 22 21  0  0  1  0  0  0  0  0999 V2000
   10.0251  -17.4494   19.6130 N   0  0  0  0  0  0  0  0  0  0  0  0
   10.5253  -17.0203   20.8855 C   0  0  1  0  0  0  0  0  0  0  0  0
   11.5383  -15.9185   20.7705 C   0  0  0  0  0  0  0  0  0  0  0  0
   12.8118  -16.3928   20.1659 C   0  0  0  0  0  0  0  0  0  0  0  0
   13.4366  -17.3172   20.7404 O   0  0  0  0  0  0  0  0  0  0  0  0
    9.3923  -16.5258   21.7159 C   0  0  0  0  0  0  0  0  0  0  0  0
    8.4548  -15.8862   21.1688 O   0  0  0  0  0  0  0  0  0  0  0  0
   13.3269  -15.8542   19.0016 O   0  0  0  0  0  0  0  0  0  0  0  0
    8.3726  -18.1066   25.4803 O   0  0  0  0  0  0  0  0  0  0  0  0
    7.5032  -17.4458   24.6351 C   0  0  0  0  0  0  0  0  0  0  0  0
    8.1468  -16.3451   23.8472 C   0  0  2  0  0  0  0  0  0  0  0  0
    9.2995  -16.7334   23.1135 N   0  0  0  0  0  0  0  0  0  0  0  0
    8.5298  -15.2729   24.8395 C   0  0  0  0  0  0  0  0  0  0  0  0
    9.7369  -15.1409   25.1609 O   0  0  0  0  0  0  0  0  0  0  0  0
    6.5011  -11.6350   25.3850 C   0  0  0  0  0  0  0  0  0  0  0  0
    6.6553  -12.4915   26.6187 C   0  0  1  0  0  0  0  0  0  0  0  0
    5.4811  -13.2313   26.7831 O   0  0  0  0  0  0  0  0  0  0  0  0
    7.7932  -13.4469   26.4150 C   0  0  2  0  0  0  0  0  0  0  0  0
    7.5382  -14.4340   25.3941 N   0  0  0  0  0  0  0  0  0  0  0  0
    8.2665  -14.0403   27.6976 C   0  0  0  0  0  0  0  0  0  0  0  0
    8.2396  -15.2753   27.8637 O   0  0  0  0  0  0  0  0  0  0  0  0
    8.7449  -13.2727   28.7365 O   0  0  0  0  0  0  0  0  0  0  0  0
  2  1  1  6
  2  6  1  0
  2  3  1  0
  3  4  1  0
  4  8  1  0
  5  4  2  0
  6 12  1  0
  7  6  2  0
 10  9  1  0
 11 10  1  1
 11 13  1  0
 12 11  1  0
 13 14  2  0
 13 19  1  0
 16 15  1  6
 17 16  1  0
 18 16  1  0
 18 20  1  0
 18 19  1  6
 20 22  1  0
 21 20  2  0
M  END
$$$$
