DST.pdb
     RDKit          3D

 22 21  0  0  1  0  0  0  0  0999 V2000
   -1.1939  -27.3813   27.2229 N   0  0  0  0  0  0  0  0  0  0  0  0
   -1.9089  -26.8804   28.3593 C   0  0  1  0  0  0  0  0  0  0  0  0
   -1.1679  -25.7907   29.0783 C   0  0  0  0  0  0  0  0  0  0  0  0
    0.0406  -26.3050   29.7764 C   0  0  0  0  0  0  0  0  0  0  0  0
    0.2102  -27.5470   29.8381 O   0  0  0  0  0  0  0  0  0  0  0  0
   -3.2201  -26.3342   27.9116 C   0  0  0  0  0  0  0  0  0  0  0  0
   -3.2713  -25.6081   26.8833 O   0  0  0  0  0  0  0  0  0  0  0  0
    0.9763  -25.4681   30.3551 O   0  0  0  0  0  0  0  0  0  0  0  0
   -6.9782  -27.2374   29.7646 O   0  0  0  0  0  0  0  0  0  0  0  0
   -6.8703  -26.9337   28.4218 C   0  0  0  0  0  0  0  0  0  0  0  0
   -5.6769  -26.0907   28.0874 C   0  0  2  0  0  0  0  0  0  0  0  0
   -4.4410  -26.5849   28.5835 N   0  0  0  0  0  0  0  0  0  0  0  0
   -5.9362  -24.7248   28.6772 C   0  0  0  0  0  0  0  0  0  0  0  0
   -5.5846  -24.4935   29.8606 O   0  0  0  0  0  0  0  0  0  0  0  0
   -5.6899  -21.2804   26.6167 C   0  0  0  0  0  0  0  0  0  0  0  0
   -7.0170  -21.3764   27.3300 C   0  0  1  0  0  0  0  0  0  0  0  0
   -7.9807  -21.7794   26.4016 O   0  0  0  0  0  0  0  0  0  0  0  0
   -6.9248  -22.4213   28.4018 C   0  0  2  0  0  0  0  0  0  0  0  0
   -6.5659  -23.7262   27.9020 N   0  0  0  0  0  0  0  0  0  0  0  0
   -8.1328  -22.4408   29.2745 C   0  0  0  0  0  0  0  0  0  0  0  0
   -8.8098  -23.4815   29.3833 O   0  0  0  0  0  0  0  0  0  0  0  0
   -8.5501  -21.3375   29.9858 O   0  0  0  0  0  0  0  0  0  0  0  0
  2  1  1  6
  2  6  1  0
  2  3  1  0
  3  4  1  0
  4  8  1  0
  5  4  2  0
  6 12  1  0
  7  6  2  0
 10  9  1  0
 11 10  1  1
 11 13  1  0
 12 11  1  0
 13 14  2  0
 13 19  1  0
 16 15  1  6
 17 16  1  0
 18 16  1  0
 18 20  1  0
 18 19  1  6
 20 22  1  0
 21 20  2  0
M  END
$$$$
