DST.pdb
     RDKit          3D

 22 21  0  0  1  0  0  0  0  0999 V2000
   -1.5380  -26.4602   28.2622 N   0  0  0  0  0  0  0  0  0  0  0  0
   -2.8493  -26.4189   27.6856 C   0  0  1  0  0  0  0  0  0  0  0  0
   -3.6961  -27.5932   28.0824 C   0  0  0  0  0  0  0  0  0  0  0  0
   -3.2406  -28.8528   27.4359 C   0  0  0  0  0  0  0  0  0  0  0  0
   -2.0952  -29.2848   27.7126 O   0  0  0  0  0  0  0  0  0  0  0  0
   -3.5404  -25.1762   28.1283 C   0  0  0  0  0  0  0  0  0  0  0  0
   -3.5882  -24.8965   29.3557 O   0  0  0  0  0  0  0  0  0  0  0  0
   -4.0298  -29.5589   26.5472 O   0  0  0  0  0  0  0  0  0  0  0  0
   -3.6517  -21.4436   26.2758 O   0  0  0  0  0  0  0  0  0  0  0  0
   -4.8638  -21.9831   26.6588 C   0  0  0  0  0  0  0  0  0  0  0  0
   -4.7454  -23.0577   27.6969 C   0  0  2  0  0  0  0  0  0  0  0  0
   -4.1617  -24.2682   27.2368 N   0  0  0  0  0  0  0  0  0  0  0  0
   -6.1461  -23.3388   28.1869 C   0  0  0  0  0  0  0  0  0  0  0  0
   -6.8738  -24.1295   27.5364 O   0  0  0  0  0  0  0  0  0  0  0  0
   -9.2581  -23.6217   31.8858 C   0  0  0  0  0  0  0  0  0  0  0  0
   -7.8878  -23.1948   31.4174 C   0  0  1  0  0  0  0  0  0  0  0  0
   -6.9947  -24.2366   31.6816 O   0  0  0  0  0  0  0  0  0  0  0  0
   -7.9239  -22.9652   29.9358 C   0  0  2  0  0  0  0  0  0  0  0  0
   -6.6239  -22.7171   29.3615 N   0  0  0  0  0  0  0  0  0  0  0  0
   -8.9391  -21.9450   29.5488 C   0  0  0  0  0  0  0  0  0  0  0  0
   -8.7018  -20.7324   29.7120 O   0  0  0  0  0  0  0  0  0  0  0  0
  -10.1588  -22.2833   29.0053 O   0  0  0  0  0  0  0  0  0  0  0  0
  2  1  1  1
  2  6  1  0
  2  3  1  0
  3  4  1  0
  4  8  1  0
  5  4  2  0
  6 12  1  0
  7  6  2  0
 10  9  1  0
 11 10  1  6
 11 13  1  0
 12 11  1  0
 13 14  2  0
 13 19  1  0
 16 15  1  6
 17 16  1  0
 18 16  1  0
 18 20  1  0
 18 19  1  1
 20 22  1  0
 21 20  2  0
M  END
$$$$
