DST.pdb
     RDKit          3D

 22 21  0  0  1  0  0  0  0  0999 V2000
    9.3964  -15.2800   19.2632 N   0  0  0  0  0  0  0  0  0  0  0  0
    8.8312  -14.0421   19.7124 C   0  0  1  0  0  0  0  0  0  0  0  0
    7.8234  -13.4807   18.7518 C   0  0  0  0  0  0  0  0  0  0  0  0
    8.1868  -13.7590   17.3366 C   0  0  0  0  0  0  0  0  0  0  0  0
    8.5069  -14.9311   17.0226 O   0  0  0  0  0  0  0  0  0  0  0  0
    8.1556  -14.2583   21.0219 C   0  0  0  0  0  0  0  0  0  0  0  0
    7.5167  -13.3119   21.5542 O   0  0  0  0  0  0  0  0  0  0  0  0
    8.1840  -12.7780   16.3626 O   0  0  0  0  0  0  0  0  0  0  0  0
    8.5328  -17.7681   23.4455 O   0  0  0  0  0  0  0  0  0  0  0  0
    7.3233  -17.1072   23.3609 C   0  0  0  0  0  0  0  0  0  0  0  0
    7.4444  -15.6802   22.9189 C   0  0  2  0  0  0  0  0  0  0  0  0
    8.1862  -15.4883   21.7228 N   0  0  0  0  0  0  0  0  0  0  0  0
    8.1217  -14.9368   24.0457 C   0  0  0  0  0  0  0  0  0  0  0  0
    9.3388  -14.6448   23.9405 O   0  0  0  0  0  0  0  0  0  0  0  0
    6.8245  -11.6983   25.5444 C   0  0  0  0  0  0  0  0  0  0  0  0
    6.9954  -12.6636   26.6926 C   0  0  1  0  0  0  0  0  0  0  0  0
    5.7454  -13.2158   26.9853 O   0  0  0  0  0  0  0  0  0  0  0  0
    7.9160  -13.7703   26.2719 C   0  0  2  0  0  0  0  0  0  0  0  0
    7.3894  -14.5783   25.1989 N   0  0  0  0  0  0  0  0  0  0  0  0
    8.3941  -14.5760   27.4309 C   0  0  0  0  0  0  0  0  0  0  0  0
    8.1986  -15.8066   27.4611 O   0  0  0  0  0  0  0  0  0  0  0  0
    9.0588  -14.0147   28.4989 O   0  0  0  0  0  0  0  0  0  0  0  0
  2  1  1  6
  2  6  1  0
  2  3  1  0
  3  4  1  0
  4  8  1  0
  5  4  2  0
  6 12  1  0
  7  6  2  0
 10  9  1  0
 11 10  1  1
 11 13  1  0
 12 11  1  0
 13 14  2  0
 13 19  1  0
 16 15  1  6
 17 16  1  0
 18 16  1  0
 18 20  1  0
 18 19  1  6
 20 22  1  0
 21 20  2  0
M  END
$$$$
