DST.pdb
     RDKit          3D

 22 21  0  0  1  0  0  0  0  0999 V2000
   10.0169  -18.7172   21.0203 N   0  0  0  0  0  0  0  0  0  0  0  0
   10.4218  -17.3430   21.0557 C   0  0  1  0  0  0  0  0  0  0  0  0
   10.0625  -16.5986   19.8025 C   0  0  0  0  0  0  0  0  0  0  0  0
   10.8120  -17.1023   18.6206 C   0  0  0  0  0  0  0  0  0  0  0  0
   11.3308  -18.2432   18.6854 O   0  0  0  0  0  0  0  0  0  0  0  0
    9.7590  -16.6662   22.2049 C   0  0  0  0  0  0  0  0  0  0  0  0
    9.9635  -15.4392   22.4043 O   0  0  0  0  0  0  0  0  0  0  0  0
   10.9557  -16.3621   17.4619 O   0  0  0  0  0  0  0  0  0  0  0  0
    7.3846  -18.6556   25.1564 O   0  0  0  0  0  0  0  0  0  0  0  0
    7.0888  -17.3606   24.7789 C   0  0  0  0  0  0  0  0  0  0  0  0
    8.2447  -16.6324   24.1624 C   0  0  2  0  0  0  0  0  0  0  0  0
    8.8937  -17.3294   23.1085 N   0  0  0  0  0  0  0  0  0  0  0  0
    9.2364  -16.3805   25.2733 C   0  0  0  0  0  0  0  0  0  0  0  0
   10.3516  -16.9572   25.2392 O   0  0  0  0  0  0  0  0  0  0  0  0
   10.4259  -13.7370   29.2634 C   0  0  0  0  0  0  0  0  0  0  0  0
    9.3080  -14.1167   28.3225 C   0  0  1  0  0  0  0  0  0  0  0  0
    9.0658  -13.0315   27.4759 O   0  0  0  0  0  0  0  0  0  0  0  0
    9.7439  -15.2827   27.4860 C   0  0  2  0  0  0  0  0  0  0  0  0
    8.9066  -15.5066   26.3327 N   0  0  0  0  0  0  0  0  0  0  0  0
    9.9578  -16.5117   28.3014 C   0  0  0  0  0  0  0  0  0  0  0  0
    9.1038  -17.4195   28.3015 O   0  0  0  0  0  0  0  0  0  0  0  0
   11.0814  -16.7002   29.0757 O   0  0  0  0  0  0  0  0  0  0  0  0
  2  1  1  6
  2  6  1  0
  2  3  1  0
  3  4  1  0
  4  8  1  0
  5  4  2  0
  6 12  1  0
  7  6  2  0
 10  9  1  0
 11 10  1  1
 11 13  1  0
 12 11  1  0
 13 14  2  0
 13 19  1  0
 16 15  1  1
 17 16  1  0
 18 16  1  0
 18 20  1  0
 18 19  1  6
 20 22  1  0
 21 20  2  0
M  END
$$$$
