DST.pdb
     RDKit          3D

 22 21  0  0  1  0  0  0  0  0999 V2000
    9.3136  -17.9334   20.4585 N   0  0  0  0  0  0  0  0  0  0  0  0
    9.1779  -16.5320   20.7252 C   0  0  1  0  0  0  0  0  0  0  0  0
    8.2465  -15.8457   19.7685 C   0  0  0  0  0  0  0  0  0  0  0  0
    8.7207  -15.9429   18.3622 C   0  0  0  0  0  0  0  0  0  0  0  0
    9.8159  -16.5143   18.1403 O   0  0  0  0  0  0  0  0  0  0  0  0
    8.6489  -16.3446   22.1046 C   0  0  0  0  0  0  0  0  0  0  0  0
    8.2684  -15.2016   22.4732 O   0  0  0  0  0  0  0  0  0  0  0  0
    8.0018  -15.4293   17.2990 O   0  0  0  0  0  0  0  0  0  0  0  0
    6.4593  -19.0639   24.5775 O   0  0  0  0  0  0  0  0  0  0  0  0
    7.5935  -18.4422   25.0614 C   0  0  0  0  0  0  0  0  0  0  0  0
    7.9546  -17.1872   24.3259 C   0  0  2  0  0  0  0  0  0  0  0  0
    8.5441  -17.3935   23.0501 N   0  0  0  0  0  0  0  0  0  0  0  0
    8.9275  -16.4380   25.2052 C   0  0  0  0  0  0  0  0  0  0  0  0
   10.1263  -16.3385   24.8434 O   0  0  0  0  0  0  0  0  0  0  0  0
    9.7824  -13.0347   28.5261 C   0  0  0  0  0  0  0  0  0  0  0  0
    8.7344  -13.8333   27.7891 C   0  0  1  0  0  0  0  0  0  0  0  0
    8.3335  -13.0963   26.6714 O   0  0  0  0  0  0  0  0  0  0  0  0
    9.3401  -15.1211   27.3157 C   0  0  2  0  0  0  0  0  0  0  0  0
    8.4876  -15.8599   26.4163 N   0  0  0  0  0  0  0  0  0  0  0  0
    9.8577  -15.9475   28.4428 C   0  0  0  0  0  0  0  0  0  0  0  0
    9.2859  -17.0103   28.7540 O   0  0  0  0  0  0  0  0  0  0  0  0
   10.9656  -15.5866   29.1776 O   0  0  0  0  0  0  0  0  0  0  0  0
  2  1  1  6
  2  6  1  0
  2  3  1  0
  3  4  1  0
  4  8  1  0
  5  4  2  0
  6 12  1  0
  7  6  2  0
 10  9  1  0
 11 10  1  1
 11 13  1  0
 12 11  1  0
 13 14  2  0
 13 19  1  0
 16 15  1  6
 17 16  1  0
 18 16  1  0
 18 20  1  0
 18 19  1  1
 20 22  1  0
 21 20  2  0
M  END
$$$$
