DST.pdb
     RDKit          3D

 22 21  0  0  1  0  0  0  0  0999 V2000
   11.2180  -19.0018   17.3358 N   0  0  0  0  0  0  0  0  0  0  0  0
   12.5665  -18.6480   17.6672 C   0  0  1  0  0  0  0  0  0  0  0  0
   13.2643  -17.9148   16.5586 C   0  0  0  0  0  0  0  0  0  0  0  0
   13.2719  -18.6951   15.2924 C   0  0  0  0  0  0  0  0  0  0  0  0
   12.1709  -19.0309   14.7923 O   0  0  0  0  0  0  0  0  0  0  0  0
   12.5616  -17.7733   18.8725 C   0  0  0  0  0  0  0  0  0  0  0  0
   13.6387  -17.2497   19.2636 O   0  0  0  0  0  0  0  0  0  0  0  0
   14.4414  -19.0604   14.6522 O   0  0  0  0  0  0  0  0  0  0  0  0
    9.0508  -16.7461   21.1017 O   0  0  0  0  0  0  0  0  0  0  0  0
   10.1517  -15.9141   21.0487 C   0  0  0  0  0  0  0  0  0  0  0  0
   11.4360  -16.6299   20.7571 C   0  0  2  0  0  0  0  0  0  0  0  0
   11.3966  -17.4859   19.6243 N   0  0  0  0  0  0  0  0  0  0  0  0
   11.7609  -17.4479   21.9844 C   0  0  0  0  0  0  0  0  0  0  0  0
   11.3328  -18.6261   22.0643 O   0  0  0  0  0  0  0  0  0  0  0  0
   15.2592  -17.5568   23.5489 C   0  0  0  0  0  0  0  0  0  0  0  0
   14.3007  -17.3029   24.6874 C   0  0  1  0  0  0  0  0  0  0  0  0
   14.3811  -15.9501   25.0289 O   0  0  0  0  0  0  0  0  0  0  0  0
   12.9031  -17.5938   24.2278 C   0  0  2  0  0  0  0  0  0  0  0  0
   12.5362  -16.8885   23.0239 N   0  0  0  0  0  0  0  0  0  0  0  0
   11.9060  -17.4377   25.3244 C   0  0  0  0  0  0  0  0  0  0  0  0
   10.9931  -16.5949   25.2253 O   0  0  0  0  0  0  0  0  0  0  0  0
   11.9431  -18.1978   26.4725 O   0  0  0  0  0  0  0  0  0  0  0  0
  2  1  1  6
  2  6  1  0
  2  3  1  0
  3  4  1  0
  4  8  1  0
  5  4  2  0
  6 12  1  0
  7  6  2  0
 10  9  1  0
 11 10  1  1
 11 13  1  0
 12 11  1  0
 13 14  2  0
 13 19  1  0
 16 15  1  6
 17 16  1  0
 18 16  1  0
 18 20  1  0
 18 19  1  6
 20 22  1  0
 21 20  2  0
M  END
$$$$
