MFS.pdb
     RDKit          3D

 26 26  0  0  1  0  0  0  0  0999 V2000
   10.4815  -21.2818   22.2601 C   0  0  0  0  0  0  0  0  0  0  0  0
    9.4356  -21.5863   20.8211 S   0  0  0  0  0  0  0  0  0  0  0  0
    8.5974  -20.0631   20.2960 C   0  0  0  0  0  0  0  0  0  0  0  0
    9.2601  -18.8452   20.9037 C   0  0  0  0  0  0  0  0  0  0  0  0
    8.2829  -17.6734   20.8982 C   0  0  2  0  0  0  0  0  0  0  0  0
    8.2890  -17.0799   19.5994 N   0  0  0  0  0  0  0  0  0  0  0  0
    8.5423  -16.7384   21.9926 C   0  0  0  0  0  0  0  0  0  0  0  0
    9.5593  -15.9838   21.8780 O   0  0  0  0  0  0  0  0  0  0  0  0
    7.7715  -16.6002   23.1542 N   0  0  0  0  0  0  0  0  0  0  0  0
    8.0907  -15.6658   24.1875 C   0  0  1  0  0  0  0  0  0  0  0  0
    6.9053  -15.2145   24.9945 C   0  0  0  0  0  0  0  0  0  0  0  0
    7.2231  -14.2175   26.0175 C   0  0  0  0  0  0  0  0  0  0  0  0
    7.5430  -14.6001   27.2852 C   0  0  0  0  0  0  0  0  0  0  0  0
    7.8318  -13.6085   28.2008 C   0  0  0  0  0  0  0  0  0  0  0  0
    7.8037  -12.2596   27.8640 C   0  0  0  0  0  0  0  0  0  0  0  0
    7.4836  -11.8831   26.5963 C   0  0  0  0  0  0  0  0  0  0  0  0
    7.1899  -12.8839   25.6638 C   0  0  0  0  0  0  0  0  0  0  0  0
    9.0755  -16.2514   25.1662 C   0  0  0  0  0  0  0  0  0  0  0  0
    8.7406  -17.2379   25.8886 O   0  0  0  0  0  0  0  0  0  0  0  0
   12.6675  -14.6531   25.3152 O   0  0  0  0  0  0  0  0  0  0  0  0
   12.7241  -16.0353   25.5758 C   0  0  0  0  0  0  0  0  0  0  0  0
   11.3643  -16.4058   26.1549 C   0  0  2  0  0  0  0  0  0  0  0  0
   10.3745  -15.7445   25.3186 N   0  0  0  0  0  0  0  0  0  0  0  0
   11.2744  -15.9950   27.5565 C   0  0  0  0  0  0  0  0  0  0  0  0
   12.1736  -16.4909   28.4793 O   0  0  0  0  0  0  0  0  0  0  0  0
   10.3945  -15.1966   27.9482 O   0  0  0  0  0  0  0  0  0  0  0  0
  2  1  1  0
  3  2  1  0
  4  3  1  0
  4  5  1  0
  5  7  1  0
  5  6  1  6
  7  8  2  0
  9 10  1  0
  9  7  1  0
 10 11  1  1
 11 12  1  0
 12 17  2  0
 13 12  1  0
 13 14  2  0
 14 15  1  0
 15 16  2  0
 17 16  1  0
 18 10  1  0
 19 18  2  0
 21 20  1  0
 22 23  1  0
 22 21  1  6
 23 18  1  0
 24 22  1  0
 25 24  1  0
 26 24  2  0
M  END
$$$$
