MFS.pdb
     RDKit          3D

 26 26  0  0  1  0  0  0  0  0999 V2000
  -16.1178    1.1338   20.5012 C   0  0  0  0  0  0  0  0  0  0  0  0
  -15.4724   -0.4296   19.8715 S   0  0  0  0  0  0  0  0  0  0  0  0
  -13.6715   -0.3448   19.6519 C   0  0  0  0  0  0  0  0  0  0  0  0
  -13.1185   -1.6814   19.2053 C   0  0  0  0  0  0  0  0  0  0  0  0
  -11.6228   -1.7422   19.5011 C   0  0  2  0  0  0  0  0  0  0  0  0
  -10.9155   -1.8220   18.2632 N   0  0  0  0  0  0  0  0  0  0  0  0
  -11.2956   -2.8014   20.4551 C   0  0  0  0  0  0  0  0  0  0  0  0
  -11.1449   -3.9737   19.9864 O   0  0  0  0  0  0  0  0  0  0  0  0
  -11.1334   -2.6398   21.8372 N   0  0  0  0  0  0  0  0  0  0  0  0
  -10.7622   -3.7146   22.7031 C   0  0  1  0  0  0  0  0  0  0  0  0
   -9.5557   -3.4289   23.5534 C   0  0  0  0  0  0  0  0  0  0  0  0
   -9.1690   -4.5331   24.4326 C   0  0  0  0  0  0  0  0  0  0  0  0
   -8.5547   -5.6399   23.9292 C   0  0  0  0  0  0  0  0  0  0  0  0
   -8.2170   -6.6442   24.8138 C   0  0  0  0  0  0  0  0  0  0  0  0
   -8.4845   -6.5517   26.1752 C   0  0  0  0  0  0  0  0  0  0  0  0
   -9.0983   -5.4439   26.6726 C   0  0  0  0  0  0  0  0  0  0  0  0
   -9.4430   -4.4225   25.7807 C   0  0  0  0  0  0  0  0  0  0  0  0
  -11.8806   -4.0610   23.6516 C   0  0  0  0  0  0  0  0  0  0  0  0
  -12.4658   -3.1443   24.3032 O   0  0  0  0  0  0  0  0  0  0  0  0
  -14.9001   -5.7453   23.0272 O   0  0  0  0  0  0  0  0  0  0  0  0
  -14.3684   -6.5704   24.0362 C   0  0  0  0  0  0  0  0  0  0  0  0
  -13.3703   -5.7067   24.7973 C   0  0  2  0  0  0  0  0  0  0  0  0
  -12.3141   -5.3799   23.8517 N   0  0  0  0  0  0  0  0  0  0  0  0
  -12.8665   -6.4190   25.9721 C   0  0  0  0  0  0  0  0  0  0  0  0
  -13.3443   -6.1022   27.2280 O   0  0  0  0  0  0  0  0  0  0  0  0
  -12.0036   -7.3191   25.8701 O   0  0  0  0  0  0  0  0  0  0  0  0
  2  1  1  0
  3  2  1  0
  4  3  1  0
  4  5  1  0
  5  7  1  0
  5  6  1  6
  7  8  2  0
  9 10  1  0
  9  7  1  0
 10 11  1  1
 11 12  1  0
 12 17  2  0
 13 12  1  0
 13 14  2  0
 14 15  1  0
 15 16  2  0
 17 16  1  0
 18 10  1  0
 19 18  2  0
 21 20  1  0
 22 23  1  0
 22 21  1  6
 23 18  1  0
 24 22  1  0
 25 24  1  0
 26 24  2  0
M  END
$$$$
