MFS.pdb
     RDKit          3D

 26 26  0  0  1  0  0  0  0  0999 V2000
    4.8556  -18.0394   20.7712 C   0  0  0  0  0  0  0  0  0  0  0  0
    6.2735  -17.9578   19.6575 S   0  0  0  0  0  0  0  0  0  0  0  0
    6.5174  -16.2663   19.0430 C   0  0  0  0  0  0  0  0  0  0  0  0
    7.7380  -15.6326   19.6757 C   0  0  0  0  0  0  0  0  0  0  0  0
    7.3091  -14.4688   20.5643 C   0  0  2  0  0  0  0  0  0  0  0  0
    7.4549  -13.2542   19.8279 N   0  0  0  0  0  0  0  0  0  0  0  0
    7.9983  -14.4815   21.8543 C   0  0  0  0  0  0  0  0  0  0  0  0
    9.0906  -13.8352   21.9313 O   0  0  0  0  0  0  0  0  0  0  0  0
    7.5630  -15.1412   23.0110 N   0  0  0  0  0  0  0  0  0  0  0  0
    8.2923  -15.1100   24.2398 C   0  0  1  0  0  0  0  0  0  0  0  0
    7.4267  -15.0070   25.4647 C   0  0  0  0  0  0  0  0  0  0  0  0
    7.0887  -13.6346   25.8442 C   0  0  0  0  0  0  0  0  0  0  0  0
    5.8025  -13.1911   25.7750 C   0  0  0  0  0  0  0  0  0  0  0  0
    5.5533  -11.8857   26.1477 C   0  0  0  0  0  0  0  0  0  0  0  0
    6.5636  -11.0346   26.5817 C   0  0  0  0  0  0  0  0  0  0  0  0
    7.8466  -11.4828   26.6489 C   0  0  0  0  0  0  0  0  0  0  0  0
    8.1053  -12.8052   26.2724 C   0  0  0  0  0  0  0  0  0  0  0  0
    9.1265  -16.3532   24.4098 C   0  0  0  0  0  0  0  0  0  0  0  0
    8.5644  -17.4859   24.5021 O   0  0  0  0  0  0  0  0  0  0  0  0
   13.0982  -16.0138   24.3772 O   0  0  0  0  0  0  0  0  0  0  0  0
   12.6356  -17.2401   23.8635 C   0  0  0  0  0  0  0  0  0  0  0  0
   11.3249  -17.5262   24.5860 C   0  0  2  0  0  0  0  0  0  0  0  0
   10.5273  -16.3149   24.4721 N   0  0  0  0  0  0  0  0  0  0  0  0
   11.5774  -17.8991   25.9783 C   0  0  0  0  0  0  0  0  0  0  0  0
   12.3362  -19.0159   26.2662 O   0  0  0  0  0  0  0  0  0  0  0  0
   11.1195  -17.2261   26.9283 O   0  0  0  0  0  0  0  0  0  0  0  0
  2  1  1  0
  3  2  1  0
  4  3  1  0
  4  5  1  0
  5  7  1  0
  5  6  1  6
  7  8  2  0
  9 10  1  0
  9  7  1  0
 10 11  1  1
 11 12  1  0
 12 17  2  0
 13 12  1  0
 13 14  2  0
 14 15  1  0
 15 16  2  0
 17 16  1  0
 18 10  1  0
 19 18  2  0
 21 20  1  0
 22 23  1  0
 22 21  1  6
 23 18  1  0
 24 22  1  0
 25 24  1  0
 26 24  2  0
M  END
$$$$
