MFS.pdb
     RDKit          3D

 26 26  0  0  1  0  0  0  0  0999 V2000
   12.0246  -21.0321   21.8526 C   0  0  0  0  0  0  0  0  0  0  0  0
   11.2663  -21.1394   20.2183 S   0  0  0  0  0  0  0  0  0  0  0  0
   10.3824  -19.6055   19.8129 C   0  0  0  0  0  0  0  0  0  0  0  0
   10.4741  -18.6123   20.9518 C   0  0  0  0  0  0  0  0  0  0  0  0
    9.5520  -17.4285   20.6752 C   0  0  2  0  0  0  0  0  0  0  0  0
    9.9027  -16.8619   19.4122 N   0  0  0  0  0  0  0  0  0  0  0  0
    9.5375  -16.4746   21.7838 C   0  0  0  0  0  0  0  0  0  0  0  0
   10.6602  -16.0143   22.1637 O   0  0  0  0  0  0  0  0  0  0  0  0
    8.3986  -16.0235   22.4635 N   0  0  0  0  0  0  0  0  0  0  0  0
    8.4680  -15.1619   23.6018 C   0  0  1  0  0  0  0  0  0  0  0  0
    7.2115  -14.3761   23.8542 C   0  0  0  0  0  0  0  0  0  0  0  0
    7.2863  -13.4848   25.0125 C   0  0  0  0  0  0  0  0  0  0  0  0
    8.2551  -12.5305   25.0936 C   0  0  0  0  0  0  0  0  0  0  0  0
    8.2684  -11.7237   26.2135 C   0  0  0  0  0  0  0  0  0  0  0  0
    7.3359  -11.8616   27.2358 C   0  0  0  0  0  0  0  0  0  0  0  0
    6.3705  -12.8165   27.1495 C   0  0  0  0  0  0  0  0  0  0  0  0
    6.3519  -13.6373   26.0167 C   0  0  0  0  0  0  0  0  0  0  0  0
    8.7429  -15.9434   24.8605 C   0  0  0  0  0  0  0  0  0  0  0  0
    7.9285  -16.8370   25.2422 O   0  0  0  0  0  0  0  0  0  0  0  0
   11.6561  -17.4660   25.2598 O   0  0  0  0  0  0  0  0  0  0  0  0
   11.5865  -17.0798   26.6117 C   0  0  0  0  0  0  0  0  0  0  0  0
   10.1781  -16.5358   26.8173 C   0  0  2  0  0  0  0  0  0  0  0  0
    9.8832  -15.7234   25.6470 N   0  0  0  0  0  0  0  0  0  0  0  0
   10.1005  -15.7701   28.0619 C   0  0  0  0  0  0  0  0  0  0  0  0
   10.3531  -16.3898   29.2695 O   0  0  0  0  0  0  0  0  0  0  0  0
    9.8078  -14.5539   28.0636 O   0  0  0  0  0  0  0  0  0  0  0  0
  2  1  1  0
  3  2  1  0
  4  3  1  0
  4  5  1  0
  5  7  1  0
  5  6  1  6
  7  8  2  0
  9 10  1  0
  9  7  1  0
 10 11  1  1
 11 12  1  0
 12 17  2  0
 13 12  1  0
 13 14  2  0
 14 15  1  0
 15 16  2  0
 17 16  1  0
 18 10  1  0
 19 18  2  0
 21 20  1  0
 22 23  1  0
 22 21  1  6
 23 18  1  0
 24 22  1  0
 25 24  1  0
 26 24  2  0
M  END
$$$$
