MFS.pdb
     RDKit          3D

 26 26  0  0  1  0  0  0  0  0999 V2000
   20.8530  -23.6112   38.3707 C   0  0  0  0  0  0  0  0  0  0  0  0
   20.5522  -22.5871   36.9154 S   0  0  0  0  0  0  0  0  0  0  0  0
   21.6064  -21.1083   36.9354 C   0  0  0  0  0  0  0  0  0  0  0  0
   21.4142  -20.2911   35.6756 C   0  0  0  0  0  0  0  0  0  0  0  0
   20.3636  -19.2119   35.9198 C   0  0  2  0  0  0  0  0  0  0  0  0
   19.0954  -19.7024   35.4836 N   0  0  0  0  0  0  0  0  0  0  0  0
   20.7503  -17.9284   35.3350 C   0  0  0  0  0  0  0  0  0  0  0  0
   20.4746  -17.7473   34.1070 O   0  0  0  0  0  0  0  0  0  0  0  0
   21.3965  -16.8821   36.0061 N   0  0  0  0  0  0  0  0  0  0  0  0
   21.6848  -15.6271   35.3860 C   0  0  1  0  0  0  0  0  0  0  0  0
   21.3625  -14.4323   36.2398 C   0  0  0  0  0  0  0  0  0  0  0  0
   19.9297  -14.1933   36.4172 C   0  0  0  0  0  0  0  0  0  0  0  0
   19.2064  -13.5582   35.4532 C   0  0  0  0  0  0  0  0  0  0  0  0
   17.8595  -13.3649   35.6846 C   0  0  0  0  0  0  0  0  0  0  0  0
   17.2406  -13.7948   36.8533 C   0  0  0  0  0  0  0  0  0  0  0  0
   17.9678  -14.4287   37.8128 C   0  0  0  0  0  0  0  0  0  0  0  0
   19.3336  -14.6275   37.5838 C   0  0  0  0  0  0  0  0  0  0  0  0
   23.1453  -15.5172   35.0318 C   0  0  0  0  0  0  0  0  0  0  0  0
   24.0104  -15.3730   35.9474 O   0  0  0  0  0  0  0  0  0  0  0  0
   24.3247  -16.3164   31.2688 O   0  0  0  0  0  0  0  0  0  0  0  0
   25.1913  -16.6734   32.3190 C   0  0  0  0  0  0  0  0  0  0  0  0
   25.0207  -15.5969   33.3837 C   0  0  2  0  0  0  0  0  0  0  0  0
   23.6026  -15.5682   33.7068 N   0  0  0  0  0  0  0  0  0  0  0  0
   25.5070  -14.3073   32.8918 C   0  0  0  0  0  0  0  0  0  0  0  0
   26.8363  -14.1563   32.5507 O   0  0  0  0  0  0  0  0  0  0  0  0
   24.7429  -13.3243   32.7697 O   0  0  0  0  0  0  0  0  0  0  0  0
  2  1  1  0
  3  2  1  0
  4  3  1  0
  4  5  1  0
  5  7  1  0
  5  6  1  6
  7  8  2  0
  9 10  1  0
  9  7  1  0
 10 11  1  1
 11 12  1  0
 12 17  2  0
 13 12  1  0
 13 14  2  0
 14 15  1  0
 15 16  2  0
 17 16  1  0
 18 10  1  0
 19 18  2  0
 21 20  1  0
 22 23  1  0
 22 21  1  6
 23 18  1  0
 24 22  1  0
 25 24  1  0
 26 24  2  0
M  END
$$$$
