MFS.pdb
     RDKit          3D

 26 26  0  0  1  0  0  0  0  0999 V2000
    8.7293  -23.1749   24.1668 C   0  0  0  0  0  0  0  0  0  0  0  0
    7.3522  -23.6526   23.1026 S   0  0  0  0  0  0  0  0  0  0  0  0
    6.1932  -22.2715   22.8846 C   0  0  0  0  0  0  0  0  0  0  0  0
    6.6072  -21.0815   23.7238 C   0  0  0  0  0  0  0  0  0  0  0  0
    5.5882  -19.9579   23.5582 C   0  0  2  0  0  0  0  0  0  0  0  0
    4.8758  -20.1638   22.3379 N   0  0  0  0  0  0  0  0  0  0  0  0
    6.2036  -18.6371   23.6848 C   0  0  0  0  0  0  0  0  0  0  0  0
    6.7237  -18.1400   22.6364 O   0  0  0  0  0  0  0  0  0  0  0  0
    6.2712  -17.8720   24.8564 N   0  0  0  0  0  0  0  0  0  0  0  0
    6.9105  -16.5949   24.9101 C   0  0  1  0  0  0  0  0  0  0  0  0
    6.4972  -15.7505   26.0834 C   0  0  0  0  0  0  0  0  0  0  0  0
    7.0138  -14.3818   26.0464 C   0  0  0  0  0  0  0  0  0  0  0  0
    6.3191  -13.3935   25.4167 C   0  0  0  0  0  0  0  0  0  0  0  0
    6.8634  -12.1251   25.4192 C   0  0  0  0  0  0  0  0  0  0  0  0
    8.0769  -11.8422   26.0365 C   0  0  0  0  0  0  0  0  0  0  0  0
    8.7666  -12.8331   26.6640 C   0  0  0  0  0  0  0  0  0  0  0  0
    8.2198  -14.1209   26.6647 C   0  0  0  0  0  0  0  0  0  0  0  0
    8.4081  -16.7384   24.9940 C   0  0  0  0  0  0  0  0  0  0  0  0
    8.9290  -17.4040   25.9390 O   0  0  0  0  0  0  0  0  0  0  0  0
   10.6860  -15.1186   22.0799 O   0  0  0  0  0  0  0  0  0  0  0  0
   10.9271  -16.4745   22.3715 C   0  0  0  0  0  0  0  0  0  0  0  0
   10.6300  -16.6400   23.8568 C   0  0  2  0  0  0  0  0  0  0  0  0
    9.2720  -16.1571   24.0542 N   0  0  0  0  0  0  0  0  0  0  0  0
   11.6064  -15.9036   24.6604 C   0  0  0  0  0  0  0  0  0  0  0  0
   11.1772  -14.9615   25.5739 O   0  0  0  0  0  0  0  0  0  0  0  0
   12.8353  -16.1055   24.5422 O   0  0  0  0  0  0  0  0  0  0  0  0
  2  1  1  0
  3  2  1  0
  4  3  1  0
  4  5  1  0
  5  7  1  0
  5  6  1  6
  7  8  2  0
  9 10  1  0
  9  7  1  0
 10 11  1  1
 11 12  1  0
 12 17  2  0
 13 12  1  0
 13 14  2  0
 14 15  1  0
 15 16  2  0
 17 16  1  0
 18 10  1  0
 19 18  2  0
 21 20  1  0
 22 23  1  0
 22 21  1  6
 23 18  1  0
 24 22  1  0
 25 24  1  0
 26 24  2  0
M  END
$$$$
