MFS.pdb
     RDKit          3D

 26 26  0  0  1  0  0  0  0  0999 V2000
    8.3736  -11.2678   20.0707 C   0  0  0  0  0  0  0  0  0  0  0  0
    7.7812  -12.4726   18.8644 S   0  0  0  0  0  0  0  0  0  0  0  0
    7.6175  -14.1167   19.6184 C   0  0  0  0  0  0  0  0  0  0  0  0
    8.4635  -14.2238   20.8693 C   0  0  0  0  0  0  0  0  0  0  0  0
    8.3089  -15.6156   21.4752 C   0  0  2  0  0  0  0  0  0  0  0  0
    6.9318  -15.9888   21.4164 N   0  0  0  0  0  0  0  0  0  0  0  0
    8.9034  -15.7016   22.8088 C   0  0  0  0  0  0  0  0  0  0  0  0
   10.1453  -15.4464   22.9045 O   0  0  0  0  0  0  0  0  0  0  0  0
    8.2275  -16.0397   23.9884 N   0  0  0  0  0  0  0  0  0  0  0  0
    8.8523  -16.0091   25.2735 C   0  0  1  0  0  0  0  0  0  0  0  0
    7.9381  -15.5885   26.3905 C   0  0  0  0  0  0  0  0  0  0  0  0
    7.5431  -14.1802   26.3416 C   0  0  0  0  0  0  0  0  0  0  0  0
    8.4141  -13.2008   26.7126 C   0  0  0  0  0  0  0  0  0  0  0  0
    7.9770  -11.8934   26.6425 C   0  0  0  0  0  0  0  0  0  0  0  0
    6.6968  -11.5636   26.2113 C   0  0  0  0  0  0  0  0  0  0  0  0
    5.8309  -12.5459   25.8419 C   0  0  0  0  0  0  0  0  0  0  0  0
    6.2684  -13.8731   25.9108 C   0  0  0  0  0  0  0  0  0  0  0  0
    9.3905  -17.3652   25.6500 C   0  0  0  0  0  0  0  0  0  0  0  0
    8.6053  -18.3570   25.7365 O   0  0  0  0  0  0  0  0  0  0  0  0
   13.3321  -17.9397   25.7267 O   0  0  0  0  0  0  0  0  0  0  0  0
   12.5483  -19.0722   25.4353 C   0  0  0  0  0  0  0  0  0  0  0  0
   11.2645  -18.9081   26.2394 C   0  0  2  0  0  0  0  0  0  0  0  0
   10.7500  -17.5866   25.9150 N   0  0  0  0  0  0  0  0  0  0  0  0
   11.5310  -19.0674   27.6694 C   0  0  0  0  0  0  0  0  0  0  0  0
   11.2792  -18.0243   28.5381 O   0  0  0  0  0  0  0  0  0  0  0  0
   11.9865  -20.1359   28.1341 O   0  0  0  0  0  0  0  0  0  0  0  0
  2  1  1  0
  3  2  1  0
  4  3  1  0
  4  5  1  0
  5  7  1  0
  5  6  1  1
  7  8  2  0
  9 10  1  0
  9  7  1  0
 10 11  1  1
 11 12  1  0
 12 17  2  0
 13 12  1  0
 13 14  2  0
 14 15  1  0
 15 16  2  0
 17 16  1  0
 18 10  1  0
 19 18  2  0
 21 20  1  0
 22 23  1  0
 22 21  1  6
 23 18  1  0
 24 22  1  0
 25 24  1  0
 26 24  2  0
M  END
$$$$
