MFS.pdb
     RDKit          3D

 26 26  0  0  1  0  0  0  0  0999 V2000
    7.6968  -11.1610   20.1712 C   0  0  0  0  0  0  0  0  0  0  0  0
    7.3884  -12.3823   18.8787 S   0  0  0  0  0  0  0  0  0  0  0  0
    7.4768  -14.0687   19.5473 C   0  0  0  0  0  0  0  0  0  0  0  0
    8.3262  -14.1091   20.7998 C   0  0  0  0  0  0  0  0  0  0  0  0
    8.3976  -15.5400   21.3248 C   0  0  2  0  0  0  0  0  0  0  0  0
    7.0819  -16.0949   21.3186 N   0  0  0  0  0  0  0  0  0  0  0  0
    9.0811  -15.6165   22.6156 C   0  0  0  0  0  0  0  0  0  0  0  0
   10.3119  -15.2979   22.6366 O   0  0  0  0  0  0  0  0  0  0  0  0
    8.5016  -16.0088   23.8292 N   0  0  0  0  0  0  0  0  0  0  0  0
    9.2169  -15.9990   25.0666 C   0  0  1  0  0  0  0  0  0  0  0  0
    8.3727  -15.6499   26.2606 C   0  0  0  0  0  0  0  0  0  0  0  0
    7.8048  -14.3018   26.2177 C   0  0  0  0  0  0  0  0  0  0  0  0
    6.5120  -14.1042   25.8365 C   0  0  0  0  0  0  0  0  0  0  0  0
    6.0399  -12.8073   25.8180 C   0  0  0  0  0  0  0  0  0  0  0  0
    6.8375  -11.7246   26.1720 C   0  0  0  0  0  0  0  0  0  0  0  0
    8.1281  -11.9278   26.5519 C   0  0  0  0  0  0  0  0  0  0  0  0
    8.6122  -13.2403   26.5726 C   0  0  0  0  0  0  0  0  0  0  0  0
    9.8265  -17.3466   25.3540 C   0  0  0  0  0  0  0  0  0  0  0  0
    9.1680  -18.2150   26.0019 O   0  0  0  0  0  0  0  0  0  0  0  0
   13.4285  -18.1943   23.8449 O   0  0  0  0  0  0  0  0  0  0  0  0
   12.5689  -19.3046   23.9450 C   0  0  0  0  0  0  0  0  0  0  0  0
   11.6645  -19.0245   25.1389 C   0  0  2  0  0  0  0  0  0  0  0  0
   11.1175  -17.6930   24.9287 N   0  0  0  0  0  0  0  0  0  0  0  0
   12.4186  -19.1269   26.3889 C   0  0  0  0  0  0  0  0  0  0  0  0
   12.6196  -18.0041   27.1667 O   0  0  0  0  0  0  0  0  0  0  0  0
   12.8928  -20.2170   26.7784 O   0  0  0  0  0  0  0  0  0  0  0  0
  2  1  1  0
  3  2  1  0
  4  3  1  0
  4  5  1  0
  5  7  1  0
  5  6  1  1
  7  8  2  0
  9 10  1  0
  9  7  1  0
 10 11  1  1
 11 12  1  0
 12 17  2  0
 13 12  1  0
 13 14  2  0
 14 15  1  0
 15 16  2  0
 17 16  1  0
 18 10  1  0
 19 18  2  0
 21 20  1  0
 22 23  1  0
 22 21  1  6
 23 18  1  0
 24 22  1  0
 25 24  1  0
 26 24  2  0
M  END
$$$$
