MFS.pdb
     RDKit          3D

 26 26  0  0  1  0  0  0  0  0999 V2000
    5.5452  -20.5271   22.5227 C   0  0  0  0  0  0  0  0  0  0  0  0
    7.0571  -20.9397   21.6275 S   0  0  0  0  0  0  0  0  0  0  0  0
    8.1018  -19.4701   21.4098 C   0  0  0  0  0  0  0  0  0  0  0  0
    7.3581  -18.3850   20.6606 C   0  0  0  0  0  0  0  0  0  0  0  0
    8.2574  -17.1626   20.5023 C   0  0  2  0  0  0  0  0  0  0  0  0
    9.4748  -17.5694   19.8766 N   0  0  0  0  0  0  0  0  0  0  0  0
    8.4352  -16.4460   21.7648 C   0  0  0  0  0  0  0  0  0  0  0  0
    9.5115  -16.6644   22.4056 O   0  0  0  0  0  0  0  0  0  0  0  0
    7.5269  -15.5417   22.3303 N   0  0  0  0  0  0  0  0  0  0  0  0
    7.7519  -14.9056   23.5902 C   0  0  1  0  0  0  0  0  0  0  0  0
    6.7590  -13.8255   23.9184 C   0  0  0  0  0  0  0  0  0  0  0  0
    6.9602  -13.2067   25.2293 C   0  0  0  0  0  0  0  0  0  0  0  0
    5.9823  -13.2518   26.1766 C   0  0  0  0  0  0  0  0  0  0  0  0
    6.2376  -12.6480   27.3912 C   0  0  0  0  0  0  0  0  0  0  0  0
    7.4434  -12.0102   27.6613 C   0  0  0  0  0  0  0  0  0  0  0  0
    8.4167  -11.9682   26.7115 C   0  0  0  0  0  0  0  0  0  0  0  0
    8.1636  -12.5785   25.4782 C   0  0  0  0  0  0  0  0  0  0  0  0
    7.6908  -15.8997   24.7209 C   0  0  0  0  0  0  0  0  0  0  0  0
    6.6178  -16.5355   24.9485 O   0  0  0  0  0  0  0  0  0  0  0  0
    9.6152  -19.5705   26.3334 O   0  0  0  0  0  0  0  0  0  0  0  0
    9.5382  -18.4211   25.5244 C   0  0  0  0  0  0  0  0  0  0  0  0
    8.8628  -17.3553   26.3785 C   0  0  2  0  0  0  0  0  0  0  0  0
    8.7903  -16.1603   25.5520 N   0  0  0  0  0  0  0  0  0  0  0  0
    9.6159  -17.1345   27.6136 C   0  0  0  0  0  0  0  0  0  0  0  0
   10.2314  -15.9191   27.8379 O   0  0  0  0  0  0  0  0  0  0  0  0
    9.7197  -18.0270   28.4840 O   0  0  0  0  0  0  0  0  0  0  0  0
  2  1  1  0
  3  2  1  0
  4  3  1  0
  4  5  1  0
  5  7  1  0
  5  6  1  1
  7  8  2  0
  9 10  1  0
  9  7  1  0
 10 11  1  1
 11 12  1  0
 12 17  2  0
 13 12  1  0
 13 14  2  0
 14 15  1  0
 15 16  2  0
 17 16  1  0
 18 10  1  0
 19 18  2  0
 21 20  1  0
 22 23  1  0
 22 21  1  6
 23 18  1  0
 24 22  1  0
 25 24  1  0
 26 24  2  0
M  END
$$$$
