MFS.pdb
     RDKit          3D

 26 26  0  0  1  0  0  0  0  0999 V2000
   10.0931  -16.7571   16.9714 C   0  0  0  0  0  0  0  0  0  0  0  0
    8.3563  -16.4378   16.5991 S   0  0  0  0  0  0  0  0  0  0  0  0
    7.6692  -15.1954   17.7316 C   0  0  0  0  0  0  0  0  0  0  0  0
    8.4394  -15.1679   19.0347 C   0  0  0  0  0  0  0  0  0  0  0  0
    7.8362  -14.1195   19.9648 C   0  0  2  0  0  0  0  0  0  0  0  0
    8.0864  -12.8249   19.4167 N   0  0  0  0  0  0  0  0  0  0  0  0
    8.2853  -14.2894   21.3463 C   0  0  0  0  0  0  0  0  0  0  0  0
    9.4507  -13.8676   21.6303 O   0  0  0  0  0  0  0  0  0  0  0  0
    7.5470  -14.8745   22.3833 N   0  0  0  0  0  0  0  0  0  0  0  0
    8.0523  -15.0057   23.7137 C   0  0  1  0  0  0  0  0  0  0  0  0
    6.9894  -15.0026   24.7770 C   0  0  0  0  0  0  0  0  0  0  0  0
    6.7517  -13.6909   25.3807 C   0  0  0  0  0  0  0  0  0  0  0  0
    5.6242  -13.4546   26.1079 C   0  0  0  0  0  0  0  0  0  0  0  0
    5.4624  -12.1953   26.6494 C   0  0  0  0  0  0  0  0  0  0  0  0
    6.4037  -11.1873   26.4722 C   0  0  0  0  0  0  0  0  0  0  0  0
    7.5280  -11.4288   25.7449 C   0  0  0  0  0  0  0  0  0  0  0  0
    7.6976  -12.7035   25.1935 C   0  0  0  0  0  0  0  0  0  0  0  0
    8.8195  -16.2918   23.8807 C   0  0  0  0  0  0  0  0  0  0  0  0
    8.2410  -17.4040   23.6914 O   0  0  0  0  0  0  0  0  0  0  0  0
   12.7598  -16.1693   24.0628 O   0  0  0  0  0  0  0  0  0  0  0  0
   12.2072  -17.3822   23.6100 C   0  0  0  0  0  0  0  0  0  0  0  0
   10.9089  -17.5639   24.3866 C   0  0  2  0  0  0  0  0  0  0  0  0
   10.1741  -16.3165   24.2440 N   0  0  0  0  0  0  0  0  0  0  0  0
   11.1892  -17.8894   25.7855 C   0  0  0  0  0  0  0  0  0  0  0  0
   10.7023  -17.0802   26.7926 O   0  0  0  0  0  0  0  0  0  0  0  0
   11.8665  -18.8932   26.0997 O   0  0  0  0  0  0  0  0  0  0  0  0
  2  1  1  0
  3  2  1  0
  4  3  1  0
  4  5  1  0
  5  7  1  0
  5  6  1  6
  7  8  2  0
  9 10  1  0
  9  7  1  0
 10 11  1  1
 11 12  1  0
 12 17  2  0
 13 12  1  0
 13 14  2  0
 14 15  1  0
 15 16  2  0
 17 16  1  0
 18 10  1  0
 19 18  2  0
 21 20  1  0
 22 23  1  0
 22 21  1  6
 23 18  1  0
 24 22  1  0
 25 24  1  0
 26 24  2  0
M  END
$$$$
