MFS.pdb
     RDKit          3D

 26 26  0  0  1  0  0  0  0  0999 V2000
    7.8765  -11.4208   20.0724 C   0  0  0  0  0  0  0  0  0  0  0  0
    7.5503  -12.6966   18.8382 S   0  0  0  0  0  0  0  0  0  0  0  0
    7.8540  -14.3515   19.5221 C   0  0  0  0  0  0  0  0  0  0  0  0
    8.4388  -14.2609   20.9155 C   0  0  0  0  0  0  0  0  0  0  0  0
    8.6550  -15.6647   21.4730 C   0  0  2  0  0  0  0  0  0  0  0  0
    7.4881  -16.4448   21.2107 N   0  0  0  0  0  0  0  0  0  0  0  0
    9.0639  -15.6396   22.8771 C   0  0  0  0  0  0  0  0  0  0  0  0
   10.2049  -15.1424   23.1370 O   0  0  0  0  0  0  0  0  0  0  0  0
    8.3116  -16.1138   23.9596 N   0  0  0  0  0  0  0  0  0  0  0  0
    8.7882  -16.0795   25.3066 C   0  0  1  0  0  0  0  0  0  0  0  0
    7.7426  -15.7004   26.3181 C   0  0  0  0  0  0  0  0  0  0  0  0
    7.4056  -14.2763   26.3246 C   0  0  0  0  0  0  0  0  0  0  0  0
    6.1867  -13.8485   25.8921 C   0  0  0  0  0  0  0  0  0  0  0  0
    5.9344  -12.4919   25.9248 C   0  0  0  0  0  0  0  0  0  0  0  0
    6.8760  -11.5751   26.3792 C   0  0  0  0  0  0  0  0  0  0  0  0
    8.0919  -12.0079   26.8101 C   0  0  0  0  0  0  0  0  0  0  0  0
    8.3534  -13.3820   26.7793 C   0  0  0  0  0  0  0  0  0  0  0  0
    9.3239  -17.4229   25.7292 C   0  0  0  0  0  0  0  0  0  0  0  0
    8.5405  -18.4148   25.8289 O   0  0  0  0  0  0  0  0  0  0  0  0
   13.3239  -17.9912   26.1969 O   0  0  0  0  0  0  0  0  0  0  0  0
   12.5560  -19.0621   25.7019 C   0  0  0  0  0  0  0  0  0  0  0  0
   11.1951  -18.9456   26.3773 C   0  0  2  0  0  0  0  0  0  0  0  0
   10.6792  -17.6320   26.0242 N   0  0  0  0  0  0  0  0  0  0  0  0
   11.3234  -19.1242   27.8240 C   0  0  0  0  0  0  0  0  0  0  0  0
   11.8272  -20.3054   28.3309 O   0  0  0  0  0  0  0  0  0  0  0  0
   10.9852  -18.2254   28.6258 O   0  0  0  0  0  0  0  0  0  0  0  0
  2  1  1  0
  3  2  1  0
  4  3  1  0
  4  5  1  0
  5  7  1  0
  5  6  1  1
  7  8  2  0
  9 10  1  0
  9  7  1  0
 10 11  1  1
 11 12  1  0
 12 17  2  0
 13 12  1  0
 13 14  2  0
 14 15  1  0
 15 16  2  0
 17 16  1  0
 18 10  1  0
 19 18  2  0
 21 20  1  0
 22 23  1  0
 22 21  1  6
 23 18  1  0
 24 22  1  0
 25 24  1  0
 26 24  2  0
M  END
$$$$
