MFS.pdb
     RDKit          3D

 26 26  0  0  1  0  0  0  0  0999 V2000
    9.1378  -21.0377   21.1042 C   0  0  0  0  0  0  0  0  0  0  0  0
    8.7751  -20.8652   19.3447 S   0  0  0  0  0  0  0  0  0  0  0  0
    9.0311  -19.1529   18.7959 C   0  0  0  0  0  0  0  0  0  0  0  0
    9.4637  -18.2747   19.9506 C   0  0  0  0  0  0  0  0  0  0  0  0
    8.9511  -16.8540   19.7344 C   0  0  2  0  0  0  0  0  0  0  0  0
    9.6316  -16.2887   18.6136 N   0  0  0  0  0  0  0  0  0  0  0  0
    9.0260  -16.0527   20.9557 C   0  0  0  0  0  0  0  0  0  0  0  0
   10.1727  -15.6176   21.2909 O   0  0  0  0  0  0  0  0  0  0  0  0
    7.9486  -15.7222   21.7879 N   0  0  0  0  0  0  0  0  0  0  0  0
    8.1065  -14.9816   23.0000 C   0  0  1  0  0  0  0  0  0  0  0  0
    6.8421  -14.3350   23.4933 C   0  0  0  0  0  0  0  0  0  0  0  0
    6.9945  -13.6096   24.7551 C   0  0  0  0  0  0  0  0  0  0  0  0
    7.6846  -12.4360   24.8031 C   0  0  0  0  0  0  0  0  0  0  0  0
    7.7904  -11.8037   26.0255 C   0  0  0  0  0  0  0  0  0  0  0  0
    7.2210  -12.3274   27.1810 C   0  0  0  0  0  0  0  0  0  0  0  0
    6.5328  -13.4999   27.1273 C   0  0  0  0  0  0  0  0  0  0  0  0
    6.4222  -14.1454   25.8909 C   0  0  0  0  0  0  0  0  0  0  0  0
    8.5986  -15.8644   24.1175 C   0  0  0  0  0  0  0  0  0  0  0  0
    8.0222  -16.9686   24.3537 O   0  0  0  0  0  0  0  0  0  0  0  0
   12.5044  -17.4493   26.0415 O   0  0  0  0  0  0  0  0  0  0  0  0
   11.8483  -16.4444   25.3057 C   0  0  0  0  0  0  0  0  0  0  0  0
   10.3891  -16.4951   25.7412 C   0  0  2  0  0  0  0  0  0  0  0  0
    9.6892  -15.5136   24.9269 N   0  0  0  0  0  0  0  0  0  0  0  0
   10.2712  -16.2179   27.1733 C   0  0  0  0  0  0  0  0  0  0  0  0
   10.7917  -17.1066   28.0927 O   0  0  0  0  0  0  0  0  0  0  0  0
    9.7049  -15.1849   27.5943 O   0  0  0  0  0  0  0  0  0  0  0  0
  2  1  1  0
  3  2  1  0
  4  3  1  0
  4  5  1  0
  5  7  1  0
  5  6  1  6
  7  8  2  0
  9 10  1  0
  9  7  1  0
 10 11  1  1
 11 12  1  0
 12 17  2  0
 13 12  1  0
 13 14  2  0
 14 15  1  0
 15 16  2  0
 17 16  1  0
 18 10  1  0
 19 18  2  0
 21 20  1  0
 22 23  1  0
 22 21  1  6
 23 18  1  0
 24 22  1  0
 25 24  1  0
 26 24  2  0
M  END
$$$$
