MFS.pdb
     RDKit          3D

 26 26  0  0  1  0  0  0  0  0999 V2000
    7.8999  -11.3595   20.0989 C   0  0  0  0  0  0  0  0  0  0  0  0
    7.6749  -12.6581   18.8659 S   0  0  0  0  0  0  0  0  0  0  0  0
    7.6222  -14.2946   19.6516 C   0  0  0  0  0  0  0  0  0  0  0  0
    8.7259  -14.4367   20.6780 C   0  0  0  0  0  0  0  0  0  0  0  0
    8.6344  -15.8068   21.3431 C   0  0  2  0  0  0  0  0  0  0  0  0
    7.3311  -16.3416   21.1096 N   0  0  0  0  0  0  0  0  0  0  0  0
    9.0262  -15.7595   22.7514 C   0  0  0  0  0  0  0  0  0  0  0  0
   10.1252  -15.1817   23.0255 O   0  0  0  0  0  0  0  0  0  0  0  0
    8.2998  -16.2931   23.8239 N   0  0  0  0  0  0  0  0  0  0  0  0
    8.7414  -16.1992   25.1799 C   0  0  1  0  0  0  0  0  0  0  0  0
    7.6554  -15.8401   26.1556 C   0  0  0  0  0  0  0  0  0  0  0  0
    7.3374  -14.4122   26.1973 C   0  0  0  0  0  0  0  0  0  0  0  0
    6.1264  -13.9571   25.7704 C   0  0  0  0  0  0  0  0  0  0  0  0
    5.8920  -12.5985   25.8370 C   0  0  0  0  0  0  0  0  0  0  0  0
    6.8435  -11.7064   26.3191 C   0  0  0  0  0  0  0  0  0  0  0  0
    8.0514  -12.1664   26.7441 C   0  0  0  0  0  0  0  0  0  0  0  0
    8.2948  -13.5427   26.6791 C   0  0  0  0  0  0  0  0  0  0  0  0
    9.3267  -17.5042   25.6539 C   0  0  0  0  0  0  0  0  0  0  0  0
    8.6249  -18.5599   25.6287 O   0  0  0  0  0  0  0  0  0  0  0  0
   12.5835  -18.6452   24.6767 O   0  0  0  0  0  0  0  0  0  0  0  0
   12.6491  -18.8866   26.0620 C   0  0  0  0  0  0  0  0  0  0  0  0
   11.2072  -18.8800   26.5545 C   0  0  2  0  0  0  0  0  0  0  0  0
   10.6411  -17.6080   26.1324 N   0  0  0  0  0  0  0  0  0  0  0  0
   11.1601  -19.0571   28.0063 C   0  0  0  0  0  0  0  0  0  0  0  0
   11.6862  -20.1978   28.5791 O   0  0  0  0  0  0  0  0  0  0  0  0
   10.6501  -18.1932   28.7537 O   0  0  0  0  0  0  0  0  0  0  0  0
  2  1  1  0
  3  2  1  0
  4  3  1  0
  4  5  1  0
  5  7  1  0
  5  6  1  1
  7  8  2  0
  9 10  1  0
  9  7  1  0
 10 11  1  1
 11 12  1  0
 12 17  2  0
 13 12  1  0
 13 14  2  0
 14 15  1  0
 15 16  2  0
 17 16  1  0
 18 10  1  0
 19 18  2  0
 21 20  1  0
 22 23  1  0
 22 21  1  1
 23 18  1  0
 24 22  1  0
 25 24  1  0
 26 24  2  0
M  END
$$$$
