MFS.pdb
     RDKit          3D

 26 26  0  0  1  0  0  0  0  0999 V2000
    8.6241  -11.7273   19.9406 C   0  0  0  0  0  0  0  0  0  0  0  0
    7.4821  -12.9094   19.1951 S   0  0  0  0  0  0  0  0  0  0  0  0
    8.2413  -14.5548   19.0740 C   0  0  0  0  0  0  0  0  0  0  0  0
    9.1894  -14.7984   20.2288 C   0  0  0  0  0  0  0  0  0  0  0  0
    8.7108  -15.9983   21.0408 C   0  0  2  0  0  0  0  0  0  0  0  0
    7.3178  -16.1910   20.7929 N   0  0  0  0  0  0  0  0  0  0  0  0
    9.0634  -15.8785   22.4552 C   0  0  0  0  0  0  0  0  0  0  0  0
   10.2747  -15.6031   22.7266 O   0  0  0  0  0  0  0  0  0  0  0  0
    8.1869  -16.0398   23.5361 N   0  0  0  0  0  0  0  0  0  0  0  0
    8.6049  -15.9100   24.8966 C   0  0  1  0  0  0  0  0  0  0  0  0
    7.4887  -15.5985   25.8545 C   0  0  0  0  0  0  0  0  0  0  0  0
    7.1914  -14.1713   25.9823 C   0  0  0  0  0  0  0  0  0  0  0  0
    5.9404  -13.6964   25.7267 C   0  0  0  0  0  0  0  0  0  0  0  0
    5.7285  -12.3397   25.8663 C   0  0  0  0  0  0  0  0  0  0  0  0
    6.7411  -11.4687   26.2531 C   0  0  0  0  0  0  0  0  0  0  0  0
    7.9888  -11.9485   26.5072 C   0  0  0  0  0  0  0  0  0  0  0  0
    8.2096  -13.3230   26.3674 C   0  0  0  0  0  0  0  0  0  0  0  0
    9.2507  -17.1782   25.3914 C   0  0  0  0  0  0  0  0  0  0  0  0
    8.6342  -18.2821   25.2969 O   0  0  0  0  0  0  0  0  0  0  0  0
   13.2492  -19.5134   26.3587 O   0  0  0  0  0  0  0  0  0  0  0  0
   12.6269  -18.3249   25.9321 C   0  0  0  0  0  0  0  0  0  0  0  0
   11.1731  -18.4341   26.3749 C   0  0  2  0  0  0  0  0  0  0  0  0
   10.5308  -17.1949   25.9646 N   0  0  0  0  0  0  0  0  0  0  0  0
   11.0919  -18.6527   27.8196 C   0  0  0  0  0  0  0  0  0  0  0  0
   11.5909  -19.8164   28.3699 O   0  0  0  0  0  0  0  0  0  0  0  0
   10.5764  -17.8043   28.5809 O   0  0  0  0  0  0  0  0  0  0  0  0
  2  1  1  0
  3  2  1  0
  4  3  1  0
  4  5  1  0
  5  7  1  0
  5  6  1  1
  7  8  2  0
  9 10  1  0
  9  7  1  0
 10 11  1  1
 11 12  1  0
 12 17  2  0
 13 12  1  0
 13 14  2  0
 14 15  1  0
 15 16  2  0
 17 16  1  0
 18 10  1  0
 19 18  2  0
 21 20  1  0
 22 23  1  0
 22 21  1  1
 23 18  1  0
 24 22  1  0
 25 24  1  0
 26 24  2  0
M  END
$$$$
