WGM.pdb
     RDKit          3D

 27 28  0  0  1  0  0  0  0  0999 V2000
    9.0298  -17.1232   22.9193 N   0  0  0  0  0  0  0  0  0  0  0  0
    8.1317  -16.8415   24.0205 C   0  0  1  0  0  0  0  0  0  0  0  0
    6.9243  -16.0730   23.5374 C   0  0  0  0  0  0  0  0  0  0  0  0
    7.1423  -14.6030   23.5653 C   0  0  0  0  0  0  0  0  0  0  0  0
    7.6405  -13.8027   22.5609 C   0  0  0  0  0  0  0  0  0  0  0  0
    7.6882  -12.5245   22.9697 N   0  0  0  0  0  0  0  0  0  0  0  0
    7.2330  -12.4448   24.2286 C   0  0  0  0  0  0  0  0  0  0  0  0
    7.0804  -11.3809   25.0880 C   0  0  0  0  0  0  0  0  0  0  0  0
    6.5687  -11.6142   26.3687 C   0  0  0  0  0  0  0  0  0  0  0  0
    6.2229  -12.8784   26.7677 C   0  0  0  0  0  0  0  0  0  0  0  0
    6.3821  -13.9223   25.8991 C   0  0  0  0  0  0  0  0  0  0  0  0
    6.8874  -13.7387   24.6149 C   0  0  0  0  0  0  0  0  0  0  0  0
    7.6414  -18.1431   24.5367 C   0  0  0  0  0  0  0  0  0  0  0  0
    7.6382  -19.1205   23.7483 O   0  0  0  0  0  0  0  0  0  0  0  0
    7.1868  -18.3009   25.8724 N   0  0  0  0  0  0  0  0  0  0  0  0
    7.3781  -19.5561   26.5471 C   0  0  0  0  0  0  0  0  0  0  0  0
    8.5792  -19.5450   27.4168 C   0  0  0  0  0  0  0  0  0  0  0  0
    9.0647  -20.6477   27.7648 O   0  0  0  0  0  0  0  0  0  0  0  0
    9.0977  -13.4905   28.9980 C   0  0  0  0  0  0  0  0  0  0  0  0
   10.7032  -14.2518   28.6618 S   0  0  0  0  0  0  0  0  0  0  0  0
   10.4704  -15.8468   27.8707 C   0  0  0  0  0  0  0  0  0  0  0  0
   11.1520  -16.9732   28.5603 C   0  0  0  0  0  0  0  0  0  0  0  0
   10.5685  -18.3358   28.3267 C   0  0  2  0  0  0  0  0  0  0  0  0
    9.2053  -18.3538   27.8740 N   0  0  0  0  0  0  0  0  0  0  0  0
   10.7474  -19.1849   29.5344 C   0  0  0  0  0  0  0  0  0  0  0  0
    9.6670  -19.7126   30.2314 O   0  0  0  0  0  0  0  0  0  0  0  0
   11.8907  -19.4346   29.9383 O   0  0  0  0  0  0  0  0  0  0  0  0
  2 13  1  0
  2  1  1  6
  3  2  1  0
  4  3  1  0
  4  5  2  0
  6  5  1  0
  7  6  1  0
  8  7  2  0
  9  8  1  0
 10  9  2  0
 10 11  1  0
 11 12  2  0
 12  7  1  0
 12  4  1  0
 13 14  2  0
 15 16  1  0
 15 13  1  0
 17 18  2  0
 17 16  1  0
 19 20  1  0
 20 21  1  0
 23 22  1  1
 22 21  1  0
 23 24  1  0
 24 17  1  0
 25 23  1  0
 26 25  1  0
 27 25  2  0
M  END
$$$$
