WGM.pdb
     RDKit          3D

 27 28  0  0  1  0  0  0  0  0999 V2000
    9.2022  -17.6183   20.7136 N   0  0  0  0  0  0  0  0  0  0  0  0
    9.0939  -16.3418   21.3899 C   0  0  1  0  0  0  0  0  0  0  0  0
    7.7223  -16.1800   22.0017 C   0  0  0  0  0  0  0  0  0  0  0  0
    7.4951  -14.8070   22.5237 C   0  0  0  0  0  0  0  0  0  0  0  0
    7.5746  -13.6165   21.8353 C   0  0  0  0  0  0  0  0  0  0  0  0
    7.3017  -12.5893   22.6560 N   0  0  0  0  0  0  0  0  0  0  0  0
    7.0398  -13.0609   23.8838 C   0  0  0  0  0  0  0  0  0  0  0  0
    6.7099  -12.4312   25.0621 C   0  0  0  0  0  0  0  0  0  0  0  0
    6.4911  -13.2070   26.2052 C   0  0  0  0  0  0  0  0  0  0  0  0
    6.6013  -14.5719   26.1597 C   0  0  0  0  0  0  0  0  0  0  0  0
    6.9300  -15.1787   24.9793 C   0  0  0  0  0  0  0  0  0  0  0  0
    7.1571  -14.4482   23.8162 C   0  0  0  0  0  0  0  0  0  0  0  0
   10.0707  -16.3473   22.5064 C   0  0  0  0  0  0  0  0  0  0  0  0
   10.2176  -15.2849   23.1596 O   0  0  0  0  0  0  0  0  0  0  0  0
   10.8243  -17.5027   22.8425 N   0  0  0  0  0  0  0  0  0  0  0  0
   10.3488  -18.3906   23.8686 C   0  0  0  0  0  0  0  0  0  0  0  0
   11.0816  -18.2113   25.1454 C   0  0  0  0  0  0  0  0  0  0  0  0
   12.0433  -18.9796   25.3856 O   0  0  0  0  0  0  0  0  0  0  0  0
    8.9775  -12.3201   28.1234 C   0  0  0  0  0  0  0  0  0  0  0  0
    9.4879  -13.8318   28.9744 S   0  0  0  0  0  0  0  0  0  0  0  0
   10.2409  -14.9677   27.8052 C   0  0  0  0  0  0  0  0  0  0  0  0
   10.6532  -16.2666   28.3983 C   0  0  0  0  0  0  0  0  0  0  0  0
   11.2589  -17.2590   27.4495 C   0  0  2  0  0  0  0  0  0  0  0  0
   10.7509  -17.2178   26.1065 N   0  0  0  0  0  0  0  0  0  0  0  0
   11.1729  -18.6307   28.0173 C   0  0  0  0  0  0  0  0  0  0  0  0
   12.1177  -19.1190   28.9118 O   0  0  0  0  0  0  0  0  0  0  0  0
   10.2338  -19.3672   27.6884 O   0  0  0  0  0  0  0  0  0  0  0  0
  2 13  1  0
  2  1  1  1
  3  2  1  0
  4  3  1  0
  4  5  2  0
  6  5  1  0
  7  6  1  0
  8  7  2  0
  9  8  1  0
 10  9  2  0
 10 11  1  0
 11 12  2  0
 12  7  1  0
 12  4  1  0
 13 14  2  0
 15 16  1  0
 15 13  1  0
 17 18  2  0
 17 16  1  0
 19 20  1  0
 20 21  1  0
 23 22  1  1
 22 21  1  0
 23 24  1  0
 24 17  1  0
 25 23  1  0
 26 25  1  0
 27 25  2  0
M  END
$$$$
