WGM.pdb
     RDKit          3D

 27 28  0  0  1  0  0  0  0  0999 V2000
    7.0008  -17.5260   22.6968 N   0  0  0  0  0  0  0  0  0  0  0  0
    7.9826  -16.4655   22.7979 C   0  0  1  0  0  0  0  0  0  0  0  0
    8.3534  -16.2214   24.2418 C   0  0  0  0  0  0  0  0  0  0  0  0
    7.3068  -15.4598   24.9726 C   0  0  0  0  0  0  0  0  0  0  0  0
    6.2949  -15.9582   25.7631 C   0  0  0  0  0  0  0  0  0  0  0  0
    5.5508  -14.9520   26.2498 N   0  0  0  0  0  0  0  0  0  0  0  0
    6.0387  -13.7848   25.8045 C   0  0  0  0  0  0  0  0  0  0  0  0
    5.6438  -12.4826   26.0092 C   0  0  0  0  0  0  0  0  0  0  0  0
    6.3663  -11.4528   25.3976 C   0  0  0  0  0  0  0  0  0  0  0  0
    7.4504  -11.7288   24.6067 C   0  0  0  0  0  0  0  0  0  0  0  0
    7.8269  -13.0293   24.4157 C   0  0  0  0  0  0  0  0  0  0  0  0
    7.1386  -14.0871   25.0035 C   0  0  0  0  0  0  0  0  0  0  0  0
    9.2098  -16.9301   22.1058 C   0  0  0  0  0  0  0  0  0  0  0  0
    9.4511  -18.1624   22.1085 O   0  0  0  0  0  0  0  0  0  0  0  0
   10.0950  -16.0300   21.4564 N   0  0  0  0  0  0  0  0  0  0  0  0
   11.4890  -16.3617   21.3377 C   0  0  0  0  0  0  0  0  0  0  0  0
   12.1538  -16.4602   22.6597 C   0  0  0  0  0  0  0  0  0  0  0  0
   13.3978  -16.6176   22.6831 O   0  0  0  0  0  0  0  0  0  0  0  0
   10.2767  -13.5187   28.2792 C   0  0  0  0  0  0  0  0  0  0  0  0
   11.1165  -14.9808   28.9329 S   0  0  0  0  0  0  0  0  0  0  0  0
   12.0392  -15.7929   27.6239 C   0  0  0  0  0  0  0  0  0  0  0  0
   11.3700  -15.7602   26.2973 C   0  0  0  0  0  0  0  0  0  0  0  0
   12.1433  -16.3545   25.1569 C   0  0  2  0  0  0  0  0  0  0  0  0
   11.4562  -16.3859   23.8957 N   0  0  0  0  0  0  0  0  0  0  0  0
   12.6519  -17.7017   25.5281 C   0  0  0  0  0  0  0  0  0  0  0  0
   13.7542  -17.8709   26.3573 O   0  0  0  0  0  0  0  0  0  0  0  0
   12.0816  -18.7090   25.0894 O   0  0  0  0  0  0  0  0  0  0  0  0
  2 13  1  0
  2  1  1  1
  3  2  1  0
  4  3  1  0
  4  5  2  0
  6  5  1  0
  7  6  1  0
  8  7  2  0
  9  8  1  0
 10  9  2  0
 10 11  1  0
 11 12  2  0
 12  7  1  0
 12  4  1  0
 13 14  2  0
 15 16  1  0
 15 13  1  0
 17 18  2  0
 17 16  1  0
 19 20  1  0
 20 21  1  0
 23 22  1  1
 22 21  1  0
 23 24  1  0
 24 17  1  0
 25 23  1  0
 26 25  1  0
 27 25  2  0
M  END
$$$$
