WGM.pdb
     RDKit          3D

 27 28  0  0  1  0  0  0  0  0999 V2000
    8.6492  -16.9545   24.2663 N   0  0  0  0  0  0  0  0  0  0  0  0
    8.4797  -16.3443   22.9634 C   0  0  1  0  0  0  0  0  0  0  0  0
    8.2374  -14.8595   23.1002 C   0  0  0  0  0  0  0  0  0  0  0  0
    7.2966  -14.5404   24.2059 C   0  0  0  0  0  0  0  0  0  0  0  0
    6.5004  -15.4111   24.9167 C   0  0  0  0  0  0  0  0  0  0  0  0
    5.7885  -14.7400   25.8364 N   0  0  0  0  0  0  0  0  0  0  0  0
    6.0871  -13.4346   25.7615 C   0  0  0  0  0  0  0  0  0  0  0  0
    5.6385  -12.3443   26.4712 C   0  0  0  0  0  0  0  0  0  0  0  0
    6.1448  -11.0786   26.1579 C   0  0  0  0  0  0  0  0  0  0  0  0
    7.0724  -10.9197   25.1623 C   0  0  0  0  0  0  0  0  0  0  0  0
    7.5055  -12.0155   24.4687 C   0  0  0  0  0  0  0  0  0  0  0  0
    7.0302  -13.2946   24.7448 C   0  0  0  0  0  0  0  0  0  0  0  0
    9.7563  -16.5110   22.2264 C   0  0  0  0  0  0  0  0  0  0  0  0
    9.9121  -15.8492   21.1705 O   0  0  0  0  0  0  0  0  0  0  0  0
   10.7803  -17.3830   22.6808 N   0  0  0  0  0  0  0  0  0  0  0  0
   12.1556  -17.0804   22.3903 C   0  0  0  0  0  0  0  0  0  0  0  0
   13.0240  -17.2298   23.5831 C   0  0  0  0  0  0  0  0  0  0  0  0
   13.9952  -18.0198   23.5095 O   0  0  0  0  0  0  0  0  0  0  0  0
    9.9562  -13.4042   28.5183 C   0  0  0  0  0  0  0  0  0  0  0  0
    9.9811  -14.8864   27.4825 S   0  0  0  0  0  0  0  0  0  0  0  0
   11.5368  -15.7569   27.6973 C   0  0  0  0  0  0  0  0  0  0  0  0
   11.6353  -17.0252   26.9291 C   0  0  0  0  0  0  0  0  0  0  0  0
   12.8603  -17.1834   26.0768 C   0  0  2  0  0  0  0  0  0  0  0  0
   12.8125  -16.5267   24.8001 N   0  0  0  0  0  0  0  0  0  0  0  0
   13.2018  -18.6233   25.9307 C   0  0  0  0  0  0  0  0  0  0  0  0
   12.4182  -19.4948   25.1838 O   0  0  0  0  0  0  0  0  0  0  0  0
   14.2137  -19.0679   26.4882 O   0  0  0  0  0  0  0  0  0  0  0  0
  2 13  1  0
  2  1  1  1
  3  2  1  0
  4  3  1  0
  4  5  2  0
  6  5  1  0
  7  6  1  0
  8  7  2  0
  9  8  1  0
 10  9  2  0
 10 11  1  0
 11 12  2  0
 12  7  1  0
 12  4  1  0
 13 14  2  0
 15 16  1  0
 15 13  1  0
 17 18  2  0
 17 16  1  0
 19 20  1  0
 20 21  1  0
 23 22  1  6
 22 21  1  0
 23 24  1  0
 24 17  1  0
 25 23  1  0
 26 25  1  0
 27 25  2  0
M  END
$$$$
