WGM.pdb
     RDKit          3D

 27 28  0  0  1  0  0  0  0  0999 V2000
    7.1185  -16.6671   20.8583 N   0  0  0  0  0  0  0  0  0  0  0  0
    7.9211  -16.2265   21.9810 C   0  0  1  0  0  0  0  0  0  0  0  0
    7.6034  -17.0414   23.2127 C   0  0  0  0  0  0  0  0  0  0  0  0
    7.0412  -16.2109   24.3097 C   0  0  0  0  0  0  0  0  0  0  0  0
    6.0504  -16.5500   25.2045 C   0  0  0  0  0  0  0  0  0  0  0  0
    5.8186  -15.5293   26.0457 N   0  0  0  0  0  0  0  0  0  0  0  0
    6.6317  -14.5083   25.7377 C   0  0  0  0  0  0  0  0  0  0  0  0
    6.7867  -13.2557   26.2860 C   0  0  0  0  0  0  0  0  0  0  0  0
    7.7379  -12.3899   25.7363 C   0  0  0  0  0  0  0  0  0  0  0  0
    8.5062  -12.7760   24.6698 C   0  0  0  0  0  0  0  0  0  0  0  0
    8.3371  -14.0248   24.1393 C   0  0  0  0  0  0  0  0  0  0  0  0
    7.4032  -14.9206   24.6525 C   0  0  0  0  0  0  0  0  0  0  0  0
    9.3411  -16.4878   21.6404 C   0  0  0  0  0  0  0  0  0  0  0  0
    9.6772  -16.4052   20.4333 O   0  0  0  0  0  0  0  0  0  0  0  0
   10.3039  -16.8214   22.6290 N   0  0  0  0  0  0  0  0  0  0  0  0
   11.4658  -15.9920   22.8014 C   0  0  0  0  0  0  0  0  0  0  0  0
   12.2588  -16.3827   23.9920 C   0  0  0  0  0  0  0  0  0  0  0  0
   13.0874  -17.3158   23.8675 O   0  0  0  0  0  0  0  0  0  0  0  0
    9.2628  -12.1807   28.4620 C   0  0  0  0  0  0  0  0  0  0  0  0
   10.4099  -13.5737   28.3454 S   0  0  0  0  0  0  0  0  0  0  0  0
   10.0927  -14.5035   26.8424 C   0  0  0  0  0  0  0  0  0  0  0  0
   10.3361  -15.9643   26.9679 C   0  0  0  0  0  0  0  0  0  0  0  0
   11.6375  -16.4633   26.4117 C   0  0  2  0  0  0  0  0  0  0  0  0
   12.1281  -15.7566   25.2612 N   0  0  0  0  0  0  0  0  0  0  0  0
   11.5585  -17.9257   26.1537 C   0  0  0  0  0  0  0  0  0  0  0  0
   11.4344  -18.4422   24.8695 O   0  0  0  0  0  0  0  0  0  0  0  0
   11.6042  -18.7146   27.1066 O   0  0  0  0  0  0  0  0  0  0  0  0
  2 13  1  0
  2  1  1  6
  3  2  1  0
  4  3  1  0
  4  5  2  0
  6  5  1  0
  7  6  1  0
  8  7  2  0
  9  8  1  0
 10  9  2  0
 10 11  1  0
 11 12  2  0
 12  7  1  0
 12  4  1  0
 13 14  2  0
 15 16  1  0
 15 13  1  0
 17 18  2  0
 17 16  1  0
 19 20  1  0
 20 21  1  0
 23 22  1  6
 22 21  1  0
 23 24  1  0
 24 17  1  0
 25 23  1  0
 26 25  1  0
 27 25  2  0
M  END
$$$$
