WGM.pdb
     RDKit          3D

 27 28  0  0  1  0  0  0  0  0999 V2000
    6.7804  -16.8803   22.2082 N   0  0  0  0  0  0  0  0  0  0  0  0
    8.1038  -16.7067   22.7715 C   0  0  1  0  0  0  0  0  0  0  0  0
    8.0613  -16.8355   24.2760 C   0  0  0  0  0  0  0  0  0  0  0  0
    7.1936  -15.8066   24.9065 C   0  0  0  0  0  0  0  0  0  0  0  0
    6.1209  -16.0049   25.7477 C   0  0  0  0  0  0  0  0  0  0  0  0
    5.5917  -14.8245   26.1076 N   0  0  0  0  0  0  0  0  0  0  0  0
    6.2842  -13.8334   25.5273 C   0  0  0  0  0  0  0  0  0  0  0  0
    6.1487  -12.4647   25.5729 C   0  0  0  0  0  0  0  0  0  0  0  0
    7.0420  -11.6721   24.8447 C   0  0  0  0  0  0  0  0  0  0  0  0
    8.0379  -12.2421   24.0964 C   0  0  0  0  0  0  0  0  0  0  0  0
    8.1560  -13.6039   24.0640 C   0  0  0  0  0  0  0  0  0  0  0  0
    7.2905  -14.4332   24.7721 C   0  0  0  0  0  0  0  0  0  0  0  0
    8.9505  -17.8138   22.2635 C   0  0  0  0  0  0  0  0  0  0  0  0
    8.8392  -18.1262   21.0523 O   0  0  0  0  0  0  0  0  0  0  0  0
    9.8621  -18.5100   23.1001 N   0  0  0  0  0  0  0  0  0  0  0  0
   11.2757  -18.4005   22.8611 C   0  0  0  0  0  0  0  0  0  0  0  0
   12.0142  -17.9641   24.0708 C   0  0  0  0  0  0  0  0  0  0  0  0
   13.1905  -18.3719   24.2219 O   0  0  0  0  0  0  0  0  0  0  0  0
    8.4988  -13.2445   28.1856 C   0  0  0  0  0  0  0  0  0  0  0  0
   10.2098  -13.8261   28.2544 S   0  0  0  0  0  0  0  0  0  0  0  0
   10.5270  -14.9562   26.8956 C   0  0  0  0  0  0  0  0  0  0  0  0
   11.9464  -15.3802   26.7757 C   0  0  0  0  0  0  0  0  0  0  0  0
   12.1751  -16.7712   26.2614 C   0  0  2  0  0  0  0  0  0  0  0  0
   11.4593  -17.1114   25.0632 N   0  0  0  0  0  0  0  0  0  0  0  0
   11.9258  -17.7648   27.3394 C   0  0  0  0  0  0  0  0  0  0  0  0
   10.9026  -18.7016   27.2565 O   0  0  0  0  0  0  0  0  0  0  0  0
   12.6473  -17.7644   28.3453 O   0  0  0  0  0  0  0  0  0  0  0  0
  2 13  1  0
  2  1  1  6
  3  2  1  0
  4  3  1  0
  4  5  2  0
  6  5  1  0
  7  6  1  0
  8  7  2  0
  9  8  1  0
 10  9  2  0
 10 11  1  0
 11 12  2  0
 12  7  1  0
 12  4  1  0
 13 14  2  0
 15 16  1  0
 15 13  1  0
 17 18  2  0
 17 16  1  0
 19 20  1  0
 20 21  1  0
 23 22  1  1
 22 21  1  0
 23 24  1  0
 24 17  1  0
 25 23  1  0
 26 25  1  0
 27 25  2  0
M  END
$$$$
