WGM.pdb
     RDKit          3D

 27 28  0  0  1  0  0  0  0  0999 V2000
    7.3038  -17.6468   23.1960 N   0  0  0  0  0  0  0  0  0  0  0  0
    8.1075  -16.4416   23.2122 C   0  0  1  0  0  0  0  0  0  0  0  0
    8.3750  -16.0010   24.6321 C   0  0  0  0  0  0  0  0  0  0  0  0
    7.2238  -15.2696   25.2229 C   0  0  0  0  0  0  0  0  0  0  0  0
    6.0690  -15.7989   25.7556 C   0  0  0  0  0  0  0  0  0  0  0  0
    5.2663  -14.8134   26.1888 N   0  0  0  0  0  0  0  0  0  0  0  0
    5.8545  -13.6302   25.9597 C   0  0  0  0  0  0  0  0  0  0  0  0
    5.4547  -12.3378   26.2122 C   0  0  0  0  0  0  0  0  0  0  0  0
    6.3022  -11.2851   25.8516 C   0  0  0  0  0  0  0  0  0  0  0  0
    7.5119  -11.5293   25.2566 C   0  0  0  0  0  0  0  0  0  0  0  0
    7.8911  -12.8204   25.0141 C   0  0  0  0  0  0  0  0  0  0  0  0
    7.0811  -13.9001   25.3553 C   0  0  0  0  0  0  0  0  0  0  0  0
    9.4194  -16.7755   22.6054 C   0  0  0  0  0  0  0  0  0  0  0  0
    9.7883  -17.9755   22.6348 O   0  0  0  0  0  0  0  0  0  0  0  0
   10.2457  -15.7884   22.0068 N   0  0  0  0  0  0  0  0  0  0  0  0
   11.5671  -16.1390   21.5614 C   0  0  0  0  0  0  0  0  0  0  0  0
   12.5693  -16.0331   22.6493 C   0  0  0  0  0  0  0  0  0  0  0  0
   13.7820  -15.9976   22.3316 O   0  0  0  0  0  0  0  0  0  0  0  0
   10.8735  -12.6960   27.6854 C   0  0  0  0  0  0  0  0  0  0  0  0
   10.9981  -14.1884   26.6717 S   0  0  0  0  0  0  0  0  0  0  0  0
   12.4183  -15.1599   27.1849 C   0  0  0  0  0  0  0  0  0  0  0  0
   12.5839  -16.4355   26.4405 C   0  0  0  0  0  0  0  0  0  0  0  0
   13.1620  -16.3201   25.0605 C   0  0  2  0  0  0  0  0  0  0  0  0
   12.2271  -15.9705   24.0273 N   0  0  0  0  0  0  0  0  0  0  0  0
   13.9128  -17.5559   24.7133 C   0  0  0  0  0  0  0  0  0  0  0  0
   13.2936  -18.6563   24.1328 O   0  0  0  0  0  0  0  0  0  0  0  0
   15.1274  -17.6148   24.9451 O   0  0  0  0  0  0  0  0  0  0  0  0
  2 13  1  0
  2  1  1  1
  3  2  1  0
  4  3  1  0
  4  5  2  0
  6  5  1  0
  7  6  1  0
  8  7  2  0
  9  8  1  0
 10  9  2  0
 10 11  1  0
 11 12  2  0
 12  7  1  0
 12  4  1  0
 13 14  2  0
 15 16  1  0
 15 13  1  0
 17 18  2  0
 17 16  1  0
 19 20  1  0
 20 21  1  0
 23 22  1  1
 22 21  1  0
 23 24  1  0
 24 17  1  0
 25 23  1  0
 26 25  1  0
 27 25  2  0
M  END
$$$$
