WGM.pdb
     RDKit          3D

 27 28  0  0  1  0  0  0  0  0999 V2000
    6.7183  -18.1643   23.6644 N   0  0  0  0  0  0  0  0  0  0  0  0
    7.4633  -16.9747   23.3061 C   0  0  1  0  0  0  0  0  0  0  0  0
    8.0274  -16.3101   24.5398 C   0  0  0  0  0  0  0  0  0  0  0  0
    7.0725  -15.3482   25.1498 C   0  0  0  0  0  0  0  0  0  0  0  0
    5.8772  -15.6250   25.7760 C   0  0  0  0  0  0  0  0  0  0  0  0
    5.3007  -14.4869   26.1947 N   0  0  0  0  0  0  0  0  0  0  0  0
    6.0812  -13.4475   25.8643 C   0  0  0  0  0  0  0  0  0  0  0  0
    5.9445  -12.0926   26.0625 C   0  0  0  0  0  0  0  0  0  0  0  0
    6.9465  -11.2363   25.5942 C   0  0  0  0  0  0  0  0  0  0  0  0
    8.0485  -11.7314   24.9482 C   0  0  0  0  0  0  0  0  0  0  0  0
    8.1658  -13.0808   24.7611 C   0  0  0  0  0  0  0  0  0  0  0  0
    7.1944  -13.9716   25.2094 C   0  0  0  0  0  0  0  0  0  0  0  0
    8.6162  -17.4061   22.4782 C   0  0  0  0  0  0  0  0  0  0  0  0
    9.0409  -18.5776   22.6334 O   0  0  0  0  0  0  0  0  0  0  0  0
    9.2334  -16.5410   21.5368 N   0  0  0  0  0  0  0  0  0  0  0  0
   10.5330  -16.8663   21.0145 C   0  0  0  0  0  0  0  0  0  0  0  0
   11.6089  -16.6291   22.0072 C   0  0  0  0  0  0  0  0  0  0  0  0
   12.7328  -16.2691   21.5831 O   0  0  0  0  0  0  0  0  0  0  0  0
   10.8322  -14.7085   29.4508 C   0  0  0  0  0  0  0  0  0  0  0  0
   10.8174  -14.1934   27.7174 S   0  0  0  0  0  0  0  0  0  0  0  0
   11.6037  -15.4466   26.6999 C   0  0  0  0  0  0  0  0  0  0  0  0
   11.6174  -15.1306   25.2478 C   0  0  0  0  0  0  0  0  0  0  0  0
   12.2879  -16.1398   24.3624 C   0  0  2  0  0  0  0  0  0  0  0  0
   11.4321  -16.7887   23.4084 N   0  0  0  0  0  0  0  0  0  0  0  0
   13.0294  -17.1323   25.1849 C   0  0  0  0  0  0  0  0  0  0  0  0
   12.6532  -18.4688   25.2444 O   0  0  0  0  0  0  0  0  0  0  0  0
   14.0136  -16.7652   25.8400 O   0  0  0  0  0  0  0  0  0  0  0  0
  2 13  1  0
  2  1  1  1
  3  2  1  0
  4  3  1  0
  4  5  2  0
  6  5  1  0
  7  6  1  0
  8  7  2  0
  9  8  1  0
 10  9  2  0
 10 11  1  0
 11 12  2  0
 12  7  1  0
 12  4  1  0
 13 14  2  0
 15 16  1  0
 15 13  1  0
 17 18  2  0
 17 16  1  0
 19 20  1  0
 20 21  1  0
 23 22  1  1
 22 21  1  0
 23 24  1  0
 24 17  1  0
 25 23  1  0
 26 25  1  0
 27 25  2  0
M  END
$$$$
