WGM.pdb
     RDKit          3D

 27 28  0  0  1  0  0  0  0  0999 V2000
    7.6730  -17.4026   23.6397 N   0  0  0  0  0  0  0  0  0  0  0  0
    7.4976  -16.7989   22.3346 C   0  0  1  0  0  0  0  0  0  0  0  0
    6.8275  -15.4508   22.4592 C   0  0  0  0  0  0  0  0  0  0  0  0
    6.5350  -15.0940   23.8721 C   0  0  0  0  0  0  0  0  0  0  0  0
    6.0586  -15.9148   24.8705 C   0  0  0  0  0  0  0  0  0  0  0  0
    5.9227  -15.2218   26.0126 N   0  0  0  0  0  0  0  0  0  0  0  0
    6.2970  -13.9506   25.8065 C   0  0  0  0  0  0  0  0  0  0  0  0
    6.3445  -12.8569   26.6404 C   0  0  0  0  0  0  0  0  0  0  0  0
    6.7895  -11.6341   26.1273 C   0  0  0  0  0  0  0  0  0  0  0  0
    7.1735  -11.5199   24.8172 C   0  0  0  0  0  0  0  0  0  0  0  0
    7.1189  -12.6183   24.0046 C   0  0  0  0  0  0  0  0  0  0  0  0
    6.6830  -13.8556   24.4705 C   0  0  0  0  0  0  0  0  0  0  0  0
    8.8491  -16.5627   21.7702 C   0  0  0  0  0  0  0  0  0  0  0  0
    8.9303  -16.2674   20.5524 O   0  0  0  0  0  0  0  0  0  0  0  0
   10.0238  -16.6619   22.5613 N   0  0  0  0  0  0  0  0  0  0  0  0
   11.2600  -16.1123   22.0743 C   0  0  0  0  0  0  0  0  0  0  0  0
   12.3669  -16.2800   23.0468 C   0  0  0  0  0  0  0  0  0  0  0  0
   13.5027  -15.8563   22.7254 O   0  0  0  0  0  0  0  0  0  0  0  0
   10.4395  -14.0887   29.1045 C   0  0  0  0  0  0  0  0  0  0  0  0
    9.6019  -14.8698   27.7050 S   0  0  0  0  0  0  0  0  0  0  0  0
   10.7581  -15.0998   26.3506 C   0  0  0  0  0  0  0  0  0  0  0  0
   11.8415  -16.0766   26.6348 C   0  0  0  0  0  0  0  0  0  0  0  0
   12.7959  -16.3450   25.5083 C   0  0  2  0  0  0  0  0  0  0  0  0
   12.2071  -16.8940   24.3186 N   0  0  0  0  0  0  0  0  0  0  0  0
   13.9301  -17.1806   25.9843 C   0  0  0  0  0  0  0  0  0  0  0  0
   14.7831  -16.7582   26.9970 O   0  0  0  0  0  0  0  0  0  0  0  0
   14.1279  -18.2883   25.4682 O   0  0  0  0  0  0  0  0  0  0  0  0
  2 13  1  0
  2  1  1  1
  3  2  1  0
  4  3  1  0
  4  5  2  0
  6  5  1  0
  7  6  1  0
  8  7  2  0
  9  8  1  0
 10  9  2  0
 10 11  1  0
 11 12  2  0
 12  7  1  0
 12  4  1  0
 13 14  2  0
 15 16  1  0
 15 13  1  0
 17 18  2  0
 17 16  1  0
 19 20  1  0
 20 21  1  0
 23 22  1  1
 22 21  1  0
 23 24  1  0
 24 17  1  0
 25 23  1  0
 26 25  1  0
 27 25  2  0
M  END
$$$$
