WGM.pdb
     RDKit          3D

 27 28  0  0  1  0  0  0  0  0999 V2000
    6.4114  -17.3349   26.2425 N   0  0  0  0  0  0  0  0  0  0  0  0
    6.6296  -16.5832   25.0235 C   0  0  1  0  0  0  0  0  0  0  0  0
    8.0349  -16.0304   24.9853 C   0  0  0  0  0  0  0  0  0  0  0  0
    8.2744  -15.0224   26.0512 C   0  0  0  0  0  0  0  0  0  0  0  0
    9.2228  -15.0564   27.0496 C   0  0  0  0  0  0  0  0  0  0  0  0
    9.1222  -13.9609   27.8196 N   0  0  0  0  0  0  0  0  0  0  0  0
    8.1260  -13.1882   27.3624 C   0  0  0  0  0  0  0  0  0  0  0  0
    7.6255  -11.9801   27.7910 C   0  0  0  0  0  0  0  0  0  0  0  0
    6.5560  -11.4062   27.0957 C   0  0  0  0  0  0  0  0  0  0  0  0
    6.0110  -12.0309   26.0050 C   0  0  0  0  0  0  0  0  0  0  0  0
    6.5225  -13.2308   25.5948 C   0  0  0  0  0  0  0  0  0  0  0  0
    7.5859  -13.8402   26.2551 C   0  0  0  0  0  0  0  0  0  0  0  0
    6.5038  -17.5313   23.8895 C   0  0  0  0  0  0  0  0  0  0  0  0
    5.3677  -18.0108   23.6522 O   0  0  0  0  0  0  0  0  0  0  0  0
    7.6161  -17.8978   23.0869 N   0  0  0  0  0  0  0  0  0  0  0  0
    7.8394  -17.2333   21.8315 C   0  0  0  0  0  0  0  0  0  0  0  0
    9.0892  -17.6867   21.1746 C   0  0  0  0  0  0  0  0  0  0  0  0
    9.6576  -18.7073   21.6307 O   0  0  0  0  0  0  0  0  0  0  0  0
    6.6245  -12.2947   18.3055 C   0  0  0  0  0  0  0  0  0  0  0  0
    7.6453  -12.7232   19.7354 S   0  0  0  0  0  0  0  0  0  0  0  0
    8.7031  -14.1182   19.3360 C   0  0  0  0  0  0  0  0  0  0  0  0
    9.5538  -14.5791   20.4640 C   0  0  0  0  0  0  0  0  0  0  0  0
   10.3957  -15.7925   20.1985 C   0  0  2  0  0  0  0  0  0  0  0  0
    9.6732  -17.0264   20.0597 N   0  0  0  0  0  0  0  0  0  0  0  0
   11.4683  -15.9074   21.2221 C   0  0  0  0  0  0  0  0  0  0  0  0
   12.8159  -15.8955   20.8826 O   0  0  0  0  0  0  0  0  0  0  0  0
   11.1602  -16.0173   22.4160 O   0  0  0  0  0  0  0  0  0  0  0  0
  2 13  1  0
  2  1  1  1
  3  2  1  0
  4  3  1  0
  4  5  2  0
  6  5  1  0
  7  6  1  0
  8  7  2  0
  9  8  1  0
 10  9  2  0
 10 11  1  0
 11 12  2  0
 12  7  1  0
 12  4  1  0
 13 14  2  0
 15 16  1  0
 15 13  1  0
 17 18  2  0
 17 16  1  0
 19 20  1  0
 20 21  1  0
 23 22  1  1
 22 21  1  0
 23 24  1  0
 24 17  1  0
 25 23  1  0
 26 25  1  0
 27 25  2  0
M  END
$$$$
