WGM.pdb
     RDKit          3D

 27 28  0  0  1  0  0  0  0  0999 V2000
    7.3679  -16.9872   23.3648 N   0  0  0  0  0  0  0  0  0  0  0  0
    8.4895  -16.0704   23.3502 C   0  0  1  0  0  0  0  0  0  0  0  0
    8.6754  -15.4375   24.7091 C   0  0  0  0  0  0  0  0  0  0  0  0
    7.4201  -14.8334   25.2272 C   0  0  0  0  0  0  0  0  0  0  0  0
    6.3743  -15.4684   25.8601 C   0  0  0  0  0  0  0  0  0  0  0  0
    5.4186  -14.5801   26.1774 N   0  0  0  0  0  0  0  0  0  0  0  0
    5.7969  -13.3589   25.7722 C   0  0  0  0  0  0  0  0  0  0  0  0
    5.1854  -12.1290   25.8572 C   0  0  0  0  0  0  0  0  0  0  0  0
    5.8406  -11.0104   25.3319 C   0  0  0  0  0  0  0  0  0  0  0  0
    7.0711  -11.1298   24.7415 C   0  0  0  0  0  0  0  0  0  0  0  0
    7.6620  -12.3605   24.6668 C   0  0  0  0  0  0  0  0  0  0  0  0
    7.0483  -13.5020   25.1754 C   0  0  0  0  0  0  0  0  0  0  0  0
    9.7094  -16.8669   23.0703 C   0  0  0  0  0  0  0  0  0  0  0  0
    9.6125  -18.1182   23.1121 O   0  0  0  0  0  0  0  0  0  0  0  0
   10.9539  -16.2564   22.7636 N   0  0  0  0  0  0  0  0  0  0  0  0
   12.1799  -16.9276   23.1011 C   0  0  0  0  0  0  0  0  0  0  0  0
   12.5431  -16.7430   24.5270 C   0  0  0  0  0  0  0  0  0  0  0  0
   13.4149  -15.8859   24.8066 O   0  0  0  0  0  0  0  0  0  0  0  0
   10.2527  -13.4619   27.6999 C   0  0  0  0  0  0  0  0  0  0  0  0
   10.6795  -14.8368   28.7942 S   0  0  0  0  0  0  0  0  0  0  0  0
   10.8120  -16.3556   27.8456 C   0  0  0  0  0  0  0  0  0  0  0  0
   12.0954  -17.0807   28.0342 C   0  0  0  0  0  0  0  0  0  0  0  0
   12.6592  -17.7465   26.8132 C   0  0  2  0  0  0  0  0  0  0  0  0
   11.9565  -17.4848   25.5879 N   0  0  0  0  0  0  0  0  0  0  0  0
   12.8093  -19.2072   27.0479 C   0  0  0  0  0  0  0  0  0  0  0  0
   13.6468  -19.7133   28.0347 O   0  0  0  0  0  0  0  0  0  0  0  0
   12.1721  -20.0043   26.3471 O   0  0  0  0  0  0  0  0  0  0  0  0
  2 13  1  0
  2  1  1  1
  3  2  1  0
  4  3  1  0
  4  5  2  0
  6  5  1  0
  7  6  1  0
  8  7  2  0
  9  8  1  0
 10  9  2  0
 10 11  1  0
 11 12  2  0
 12  7  1  0
 12  4  1  0
 13 14  2  0
 15 16  1  0
 15 13  1  0
 17 18  2  0
 17 16  1  0
 19 20  1  0
 20 21  1  0
 23 22  1  1
 22 21  1  0
 23 24  1  0
 24 17  1  0
 25 23  1  0
 26 25  1  0
 27 25  2  0
M  END
$$$$
