WGM.pdb
     RDKit          3D

 27 28  0  0  1  0  0  0  0  0999 V2000
    8.2619  -17.5140   23.2912 N   0  0  0  0  0  0  0  0  0  0  0  0
    8.6748  -16.1938   22.8608 C   0  0  1  0  0  0  0  0  0  0  0  0
    9.0856  -15.3533   24.0469 C   0  0  0  0  0  0  0  0  0  0  0  0
    7.9186  -14.8928   24.8440 C   0  0  0  0  0  0  0  0  0  0  0  0
    6.9544  -15.6638   25.4550 C   0  0  0  0  0  0  0  0  0  0  0  0
    6.0629  -14.8784   26.0805 N   0  0  0  0  0  0  0  0  0  0  0  0
    6.4045  -13.5935   25.9047 C   0  0  0  0  0  0  0  0  0  0  0  0
    5.8292  -12.4197   26.3347 C   0  0  0  0  0  0  0  0  0  0  0  0
    6.4280  -11.2051   25.9843 C   0  0  0  0  0  0  0  0  0  0  0  0
    7.5686  -11.1771   25.2260 C   0  0  0  0  0  0  0  0  0  0  0  0
    8.1249  -12.3543   24.8085 C   0  0  0  0  0  0  0  0  0  0  0  0
    7.5647  -13.5870   25.1323 C   0  0  0  0  0  0  0  0  0  0  0  0
    9.8774  -16.3613   22.0085 C   0  0  0  0  0  0  0  0  0  0  0  0
   10.3502  -15.3368   21.4573 O   0  0  0  0  0  0  0  0  0  0  0  0
   10.4891  -17.6268   21.8090 N   0  0  0  0  0  0  0  0  0  0  0  0
   11.0085  -18.3534   22.9358 C   0  0  0  0  0  0  0  0  0  0  0  0
   12.1094  -17.6243   23.6108 C   0  0  0  0  0  0  0  0  0  0  0  0
   13.2878  -17.9049   23.2862 O   0  0  0  0  0  0  0  0  0  0  0  0
    8.3962  -14.1114   28.1771 C   0  0  0  0  0  0  0  0  0  0  0  0
   10.0495  -14.8164   28.3760 S   0  0  0  0  0  0  0  0  0  0  0  0
   10.8073  -15.0628   26.7668 C   0  0  0  0  0  0  0  0  0  0  0  0
   12.2066  -15.5603   26.8231 C   0  0  0  0  0  0  0  0  0  0  0  0
   12.5428  -16.6823   25.8851 C   0  0  2  0  0  0  0  0  0  0  0  0
   11.8981  -16.6284   24.6025 N   0  0  0  0  0  0  0  0  0  0  0  0
   12.3140  -17.9930   26.5494 C   0  0  0  0  0  0  0  0  0  0  0  0
   11.3900  -18.9125   26.0677 O   0  0  0  0  0  0  0  0  0  0  0  0
   12.9624  -18.2821   27.5635 O   0  0  0  0  0  0  0  0  0  0  0  0
  2 13  1  0
  2  1  1  1
  3  2  1  0
  4  3  1  0
  4  5  2  0
  6  5  1  0
  7  6  1  0
  8  7  2  0
  9  8  1  0
 10  9  2  0
 10 11  1  0
 11 12  2  0
 12  7  1  0
 12  4  1  0
 13 14  2  0
 15 16  1  0
 15 13  1  0
 17 18  2  0
 17 16  1  0
 19 20  1  0
 20 21  1  0
 23 22  1  1
 22 21  1  0
 23 24  1  0
 24 17  1  0
 25 23  1  0
 26 25  1  0
 27 25  2  0
M  END
$$$$
