WGM.pdb
     RDKit          3D

 27 28  0  0  1  0  0  0  0  0999 V2000
    8.5039  -17.0024   25.1604 N   0  0  0  0  0  0  0  0  0  0  0  0
    7.7931  -17.4539   23.9816 C   0  0  1  0  0  0  0  0  0  0  0  0
    6.6899  -16.4860   23.6239 C   0  0  0  0  0  0  0  0  0  0  0  0
    7.1620  -15.0769   23.5960 C   0  0  0  0  0  0  0  0  0  0  0  0
    7.9480  -14.4670   22.6433 C   0  0  0  0  0  0  0  0  0  0  0  0
    8.1602  -13.1826   22.9728 N   0  0  0  0  0  0  0  0  0  0  0  0
    7.5343  -12.9125   24.1277 C   0  0  0  0  0  0  0  0  0  0  0  0
    7.4425  -11.7636   24.8795 C   0  0  0  0  0  0  0  0  0  0  0  0
    6.7020  -11.7892   26.0659 C   0  0  0  0  0  0  0  0  0  0  0  0
    6.0757  -12.9356   26.4786 C   0  0  0  0  0  0  0  0  0  0  0  0
    6.1790  -14.0669   25.7176 C   0  0  0  0  0  0  0  0  0  0  0  0
    6.9049  -14.0893   24.5299 C   0  0  0  0  0  0  0  0  0  0  0  0
    8.7573  -17.4509   22.8542 C   0  0  0  0  0  0  0  0  0  0  0  0
    8.3279  -17.7671   21.7173 O   0  0  0  0  0  0  0  0  0  0  0  0
   10.1230  -17.1059   23.0317 N   0  0  0  0  0  0  0  0  0  0  0  0
   11.1256  -18.1365   23.0247 C   0  0  0  0  0  0  0  0  0  0  0  0
   11.5947  -18.4683   24.3918 C   0  0  0  0  0  0  0  0  0  0  0  0
   11.2947  -19.5920   24.8610 O   0  0  0  0  0  0  0  0  0  0  0  0
    9.7558  -13.5426   29.7211 C   0  0  0  0  0  0  0  0  0  0  0  0
   10.3616  -13.8911   28.0532 S   0  0  0  0  0  0  0  0  0  0  0  0
   10.2416  -15.6503   27.7138 C   0  0  0  0  0  0  0  0  0  0  0  0
   10.8227  -16.0591   26.4085 C   0  0  0  0  0  0  0  0  0  0  0  0
   11.8952  -17.1070   26.4664 C   0  0  2  0  0  0  0  0  0  0  0  0
   12.3632  -17.5817   25.1939 N   0  0  0  0  0  0  0  0  0  0  0  0
   11.4665  -18.2329   27.3381 C   0  0  0  0  0  0  0  0  0  0  0  0
   11.8787  -18.3396   28.6610 O   0  0  0  0  0  0  0  0  0  0  0  0
   10.7192  -19.1067   26.8792 O   0  0  0  0  0  0  0  0  0  0  0  0
  2 13  1  0
  2  1  1  1
  3  2  1  0
  4  3  1  0
  4  5  2  0
  6  5  1  0
  7  6  1  0
  8  7  2  0
  9  8  1  0
 10  9  2  0
 10 11  1  0
 11 12  2  0
 12  7  1  0
 12  4  1  0
 13 14  2  0
 15 16  1  0
 15 13  1  0
 17 18  2  0
 17 16  1  0
 19 20  1  0
 20 21  1  0
 23 22  1  6
 22 21  1  0
 23 24  1  0
 24 17  1  0
 25 23  1  0
 26 25  1  0
 27 25  2  0
M  END
$$$$
