WGM.pdb
     RDKit          3D

 27 28  0  0  1  0  0  0  0  0999 V2000
    6.9758  -17.2756   23.2497 N   0  0  0  0  0  0  0  0  0  0  0  0
    8.0172  -16.2707   23.1861 C   0  0  1  0  0  0  0  0  0  0  0  0
    8.3379  -15.7505   24.5676 C   0  0  0  0  0  0  0  0  0  0  0  0
    7.1947  -15.0206   25.1756 C   0  0  0  0  0  0  0  0  0  0  0  0
    6.1507  -15.5426   25.9069 C   0  0  0  0  0  0  0  0  0  0  0  0
    5.3148  -14.5616   26.2838 N   0  0  0  0  0  0  0  0  0  0  0  0
    5.7723  -13.3884   25.8224 C   0  0  0  0  0  0  0  0  0  0  0  0
    5.2907  -12.1039   25.9317 C   0  0  0  0  0  0  0  0  0  0  0  0
    6.0027  -11.0612   25.3299 C   0  0  0  0  0  0  0  0  0  0  0  0
    7.1614  -11.3073   24.6415 C   0  0  0  0  0  0  0  0  0  0  0  0
    7.6234  -12.5905   24.5442 C   0  0  0  0  0  0  0  0  0  0  0  0
    6.9489  -13.6602   25.1264 C   0  0  0  0  0  0  0  0  0  0  0  0
    9.2422  -16.9335   22.6753 C   0  0  0  0  0  0  0  0  0  0  0  0
    9.3980  -18.1524   22.9337 O   0  0  0  0  0  0  0  0  0  0  0  0
   10.2179  -16.2331   21.9183 N   0  0  0  0  0  0  0  0  0  0  0  0
   11.5719  -16.7155   21.8798 C   0  0  0  0  0  0  0  0  0  0  0  0
   12.2260  -16.6497   23.2091 C   0  0  0  0  0  0  0  0  0  0  0  0
   13.3590  -16.1171   23.2824 O   0  0  0  0  0  0  0  0  0  0  0  0
   11.4786  -14.0406   29.4736 C   0  0  0  0  0  0  0  0  0  0  0  0
   10.4732  -14.5209   28.0494 S   0  0  0  0  0  0  0  0  0  0  0  0
   11.5256  -15.1767   26.7507 C   0  0  0  0  0  0  0  0  0  0  0  0
   11.7421  -16.6450   26.8264 C   0  0  0  0  0  0  0  0  0  0  0  0
   12.3780  -17.2780   25.6235 C   0  0  2  0  0  0  0  0  0  0  0  0
   11.6370  -17.1574   24.3987 N   0  0  0  0  0  0  0  0  0  0  0  0
   12.7198  -18.6966   25.9101 C   0  0  0  0  0  0  0  0  0  0  0  0
   12.2146  -19.7448   25.1501 O   0  0  0  0  0  0  0  0  0  0  0  0
   13.4772  -18.9611   26.8529 O   0  0  0  0  0  0  0  0  0  0  0  0
  2 13  1  0
  2  1  1  1
  3  2  1  0
  4  3  1  0
  4  5  2  0
  6  5  1  0
  7  6  1  0
  8  7  2  0
  9  8  1  0
 10  9  2  0
 10 11  1  0
 11 12  2  0
 12  7  1  0
 12  4  1  0
 13 14  2  0
 15 16  1  0
 15 13  1  0
 17 18  2  0
 17 16  1  0
 19 20  1  0
 20 21  1  0
 23 22  1  1
 22 21  1  0
 23 24  1  0
 24 17  1  0
 25 23  1  0
 26 25  1  0
 27 25  2  0
M  END
$$$$
