WGM.pdb
     RDKit          3D

 27 28  0  0  1  0  0  0  0  0999 V2000
    7.1647  -17.3705   22.8031 N   0  0  0  0  0  0  0  0  0  0  0  0
    8.1598  -16.3512   23.0665 C   0  0  1  0  0  0  0  0  0  0  0  0
    8.2772  -16.0952   24.5506 C   0  0  0  0  0  0  0  0  0  0  0  0
    7.1630  -15.2592   25.0693 C   0  0  0  0  0  0  0  0  0  0  0  0
    5.9773  -15.6825   25.6281 C   0  0  0  0  0  0  0  0  0  0  0  0
    5.2261  -14.6246   25.9740 N   0  0  0  0  0  0  0  0  0  0  0  0
    5.8794  -13.4961   25.6606 C   0  0  0  0  0  0  0  0  0  0  0  0
    5.5485  -12.1685   25.8072 C   0  0  0  0  0  0  0  0  0  0  0  0
    6.4545  -11.1941   25.3757 C   0  0  0  0  0  0  0  0  0  0  0  0
    7.6535  -11.5484   24.8156 C   0  0  0  0  0  0  0  0  0  0  0  0
    7.9638  -12.8730   24.6786 C   0  0  0  0  0  0  0  0  0  0  0  0
    7.0939  -13.8778   25.0932 C   0  0  0  0  0  0  0  0  0  0  0  0
    9.4685  -16.8812   22.6113 C   0  0  0  0  0  0  0  0  0  0  0  0
    9.6471  -18.1230   22.6664 O   0  0  0  0  0  0  0  0  0  0  0  0
   10.4978  -16.0321   22.1264 N   0  0  0  0  0  0  0  0  0  0  0  0
   11.8514  -16.5137   22.0683 C   0  0  0  0  0  0  0  0  0  0  0  0
   12.5252  -16.4456   23.3876 C   0  0  0  0  0  0  0  0  0  0  0  0
   13.2108  -15.4280   23.6470 O   0  0  0  0  0  0  0  0  0  0  0  0
   11.4953  -14.6401   29.4235 C   0  0  0  0  0  0  0  0  0  0  0  0
   10.7581  -14.5032   27.7779 S   0  0  0  0  0  0  0  0  0  0  0  0
   10.2491  -16.1248   27.1987 C   0  0  0  0  0  0  0  0  0  0  0  0
   10.6978  -16.4465   25.8189 C   0  0  0  0  0  0  0  0  0  0  0  0
   11.9882  -17.2044   25.7078 C   0  0  2  0  0  0  0  0  0  0  0  0
   12.4342  -17.4701   24.3684 N   0  0  0  0  0  0  0  0  0  0  0  0
   11.9210  -18.4534   26.5121 C   0  0  0  0  0  0  0  0  0  0  0  0
   12.5727  -18.5802   27.7330 O   0  0  0  0  0  0  0  0  0  0  0  0
   11.2663  -19.4149   26.0885 O   0  0  0  0  0  0  0  0  0  0  0  0
  2 13  1  0
  2  1  1  1
  3  2  1  0
  4  3  1  0
  4  5  2  0
  6  5  1  0
  7  6  1  0
  8  7  2  0
  9  8  1  0
 10  9  2  0
 10 11  1  0
 11 12  2  0
 12  7  1  0
 12  4  1  0
 13 14  2  0
 15 16  1  0
 15 13  1  0
 17 18  2  0
 17 16  1  0
 19 20  1  0
 20 21  1  0
 23 22  1  6
 22 21  1  0
 23 24  1  0
 24 17  1  0
 25 23  1  0
 26 25  1  0
 27 25  2  0
M  END
$$$$
