WGM.pdb
     RDKit          3D

 27 28  0  0  1  0  0  0  0  0999 V2000
    7.1962  -16.8590   23.2206 N   0  0  0  0  0  0  0  0  0  0  0  0
    8.2707  -16.1592   23.8948 C   0  0  1  0  0  0  0  0  0  0  0  0
    7.9564  -15.9924   25.3628 C   0  0  0  0  0  0  0  0  0  0  0  0
    6.8851  -14.9898   25.6006 C   0  0  0  0  0  0  0  0  0  0  0  0
    5.7602  -15.1237   26.3842 C   0  0  0  0  0  0  0  0  0  0  0  0
    5.0321  -13.9962   26.3436 N   0  0  0  0  0  0  0  0  0  0  0  0
    5.6415  -13.1039   25.5492 C   0  0  0  0  0  0  0  0  0  0  0  0
    5.3107  -11.8196   25.1820 C   0  0  0  0  0  0  0  0  0  0  0  0
    6.1626  -11.1224   24.3191 C   0  0  0  0  0  0  0  0  0  0  0  0
    7.3093  -11.7022   23.8437 C   0  0  0  0  0  0  0  0  0  0  0  0
    7.6203  -12.9793   24.2204 C   0  0  0  0  0  0  0  0  0  0  0  0
    6.8032  -13.7121   25.0768 C   0  0  0  0  0  0  0  0  0  0  0  0
    9.4812  -17.0118   23.8029 C   0  0  0  0  0  0  0  0  0  0  0  0
    9.7603  -17.7384   24.7883 O   0  0  0  0  0  0  0  0  0  0  0  0
   10.3100  -17.0218   22.6502 N   0  0  0  0  0  0  0  0  0  0  0  0
   11.5608  -16.3127   22.6651 C   0  0  0  0  0  0  0  0  0  0  0  0
   12.3411  -16.5831   23.8968 C   0  0  0  0  0  0  0  0  0  0  0  0
   13.5364  -16.2050   23.9318 O   0  0  0  0  0  0  0  0  0  0  0  0
    9.6130  -14.2736   28.4245 C   0  0  0  0  0  0  0  0  0  0  0  0
   11.1927  -14.8841   29.0586 S   0  0  0  0  0  0  0  0  0  0  0  0
   12.1873  -15.5254   27.7082 C   0  0  0  0  0  0  0  0  0  0  0  0
   12.0489  -16.9893   27.4925 C   0  0  0  0  0  0  0  0  0  0  0  0
   12.5998  -17.5177   26.2005 C   0  0  2  0  0  0  0  0  0  0  0  0
   11.8060  -17.2460   25.0344 N   0  0  0  0  0  0  0  0  0  0  0  0
   12.8971  -18.9695   26.3246 C   0  0  0  0  0  0  0  0  0  0  0  0
   13.7294  -19.4693   27.3191 O   0  0  0  0  0  0  0  0  0  0  0  0
   12.3917  -19.7645   25.5215 O   0  0  0  0  0  0  0  0  0  0  0  0
  2 13  1  0
  2  1  1  6
  3  2  1  0
  4  3  1  0
  4  5  2  0
  6  5  1  0
  7  6  1  0
  8  7  2  0
  9  8  1  0
 10  9  2  0
 10 11  1  0
 11 12  2  0
 12  7  1  0
 12  4  1  0
 13 14  2  0
 15 16  1  0
 15 13  1  0
 17 18  2  0
 17 16  1  0
 19 20  1  0
 20 21  1  0
 23 22  1  1
 22 21  1  0
 23 24  1  0
 24 17  1  0
 25 23  1  0
 26 25  1  0
 27 25  2  0
M  END
$$$$
