SPY.pdb
     RDKit          3D

 26 27  0  0  1  0  0  0  0  0999 V2000
    9.6315  -14.8880   16.4664 O   0  0  0  0  0  0  0  0  0  0  0  0
    9.6529  -14.7332   17.8552 C   0  0  0  0  0  0  0  0  0  0  0  0
    8.3028  -14.1401   18.2521 C   0  0  2  0  0  0  0  0  0  0  0  0
    8.2253  -12.8421   17.6700 N   0  0  0  0  0  0  0  0  0  0  0  0
    8.0749  -14.1982   19.6916 C   0  0  0  0  0  0  0  0  0  0  0  0
    8.8898  -13.4505   20.3808 O   0  0  0  0  0  0  0  0  0  0  0  0
    7.1375  -14.9119   20.4204 N   0  0  0  0  0  0  0  0  0  0  0  0
    5.7341  -15.1149   19.9053 C   0  0  0  0  0  0  0  0  0  0  0  0
    5.4627  -16.5786   20.1840 C   0  0  0  0  0  0  0  0  0  0  0  0
    6.6896  -17.0330   20.9939 C   0  0  0  0  0  0  0  0  0  0  0  0
    7.0641  -15.7092   21.6107 C   0  0  1  0  0  0  0  0  0  0  0  0
    8.0604  -15.6410   22.6159 C   0  0  0  0  0  0  0  0  0  0  0  0
    9.2224  -16.0971   22.4399 O   0  0  0  0  0  0  0  0  0  0  0  0
   11.3726  -15.0029   30.7993 O   0  0  0  0  0  0  0  0  0  0  0  0
   10.6022  -14.8847   29.6606 C   0  0  0  0  0  0  0  0  0  0  0  0
   10.6607  -13.7827   28.8279 C   0  0  0  0  0  0  0  0  0  0  0  0
    9.8875  -13.6912   27.7075 C   0  0  0  0  0  0  0  0  0  0  0  0
    9.0317  -14.7424   27.4208 C   0  0  0  0  0  0  0  0  0  0  0  0
    8.2003  -14.6412   26.2216 C   0  0  0  0  0  0  0  0  0  0  0  0
    8.8637  -15.1807   24.9735 C   0  0  2  0  0  0  0  0  0  0  0  0
    7.8598  -15.0570   23.9208 N   0  0  0  0  0  0  0  0  0  0  0  0
    9.3620  -16.5510   25.1000 C   0  0  0  0  0  0  0  0  0  0  0  0
    8.4935  -17.6238   24.9923 O   0  0  0  0  0  0  0  0  0  0  0  0
    8.9475  -15.8449   28.2196 C   0  0  0  0  0  0  0  0  0  0  0  0
    9.7448  -15.9021   29.3440 C   0  0  0  0  0  0  0  0  0  0  0  0
   10.5751  -16.8094   25.3083 O   0  0  0  0  0  0  0  0  0  0  0  0
  2  1  1  0
  3  2  1  0
  3  4  1  1
  5  7  1  0
  5  3  1  0
  6  5  2  0
  7 11  1  0
  8  9  1  0
  8  7  1  0
  9 10  1  0
 10 11  1  0
 11 12  1  6
 12 21  1  0
 13 12  2  0
 15 14  1  0
 16 15  2  0
 17 16  1  0
 18 24  1  0
 18 17  2  0
 19 18  1  0
 20 22  1  0
 20 21  1  0
 20 19  1  1
 22 23  1  0
 24 25  2  0
 25 15  1  0
 26 22  2  0
M  END
$$$$
