SPY.pdb
     RDKit          3D

 26 27  0  0  1  0  0  0  0  0999 V2000
    7.1498  -18.7936   20.0056 O   0  0  0  0  0  0  0  0  0  0  0  0
    6.6082  -17.9319   19.0479 C   0  0  0  0  0  0  0  0  0  0  0  0
    7.7495  -17.0405   18.5634 C   0  0  2  0  0  0  0  0  0  0  0  0
    8.6319  -17.8614   17.8037 N   0  0  0  0  0  0  0  0  0  0  0  0
    8.3678  -16.2927   19.6524 C   0  0  0  0  0  0  0  0  0  0  0  0
    9.0840  -17.0304   20.4530 O   0  0  0  0  0  0  0  0  0  0  0  0
    8.3119  -14.9416   19.9539 N   0  0  0  0  0  0  0  0  0  0  0  0
    8.5349  -13.8924   18.8931 C   0  0  0  0  0  0  0  0  0  0  0  0
    7.4353  -12.8845   19.1550 C   0  0  0  0  0  0  0  0  0  0  0  0
    6.7874  -13.3772   20.4608 C   0  0  0  0  0  0  0  0  0  0  0  0
    7.9764  -14.0874   21.0566 C   0  0  1  0  0  0  0  0  0  0  0  0
    7.9315  -14.5714   22.3875 C   0  0  0  0  0  0  0  0  0  0  0  0
    6.8942  -14.4828   23.0984 O   0  0  0  0  0  0  0  0  0  0  0  0
    7.1620  -20.3624   28.4533 O   0  0  0  0  0  0  0  0  0  0  0  0
    7.2889  -19.4412   27.4339 C   0  0  0  0  0  0  0  0  0  0  0  0
    7.2190  -18.0766   27.6447 C   0  0  0  0  0  0  0  0  0  0  0  0
    7.3480  -17.1870   26.6183 C   0  0  0  0  0  0  0  0  0  0  0  0
    7.5531  -17.6904   25.3438 C   0  0  0  0  0  0  0  0  0  0  0  0
    7.6870  -16.7356   24.2437 C   0  0  0  0  0  0  0  0  0  0  0  0
    8.8847  -15.8205   24.3741 C   0  0  2  0  0  0  0  0  0  0  0  0
    9.0414  -15.2034   23.0603 N   0  0  0  0  0  0  0  0  0  0  0  0
   10.1088  -16.4893   24.8172 C   0  0  0  0  0  0  0  0  0  0  0  0
   11.0455  -16.9181   23.8923 O   0  0  0  0  0  0  0  0  0  0  0  0
    7.6272  -19.0301   25.0986 C   0  0  0  0  0  0  0  0  0  0  0  0
    7.4924  -19.8994   26.1614 C   0  0  0  0  0  0  0  0  0  0  0  0
   10.3585  -16.7000   26.0317 O   0  0  0  0  0  0  0  0  0  0  0  0
  2  1  1  0
  3  2  1  0
  3  4  1  1
  5  7  1  0
  5  3  1  0
  6  5  2  0
  7 11  1  0
  8  9  1  0
  8  7  1  0
  9 10  1  0
 10 11  1  0
 11 12  1  1
 12 21  1  0
 13 12  2  0
 15 14  1  0
 16 15  2  0
 17 16  1  0
 18 24  1  0
 18 17  2  0
 19 18  1  0
 20 22  1  0
 20 21  1  0
 20 19  1  6
 22 23  1  0
 24 25  2  0
 25 15  1  0
 26 22  2  0
M  END
$$$$
