SPY.pdb
     RDKit          3D

 26 27  0  0  1  0  0  0  0  0999 V2000
   12.0404  -16.7480   17.8497 O   0  0  0  0  0  0  0  0  0  0  0  0
   10.9154  -15.9234   17.7626 C   0  0  0  0  0  0  0  0  0  0  0  0
   11.3294  -14.5567   18.3036 C   0  0  2  0  0  0  0  0  0  0  0  0
   12.7373  -14.4397   18.1201 N   0  0  0  0  0  0  0  0  0  0  0  0
   10.8520  -14.3325   19.6635 C   0  0  0  0  0  0  0  0  0  0  0  0
   11.7290  -14.6272   20.5812 O   0  0  0  0  0  0  0  0  0  0  0  0
    9.6313  -13.8585   20.1159 N   0  0  0  0  0  0  0  0  0  0  0  0
    8.9508  -12.6874   19.4513 C   0  0  0  0  0  0  0  0  0  0  0  0
    7.5072  -13.1318   19.3421 C   0  0  0  0  0  0  0  0  0  0  0  0
    7.4712  -14.4607   20.1169 C   0  0  0  0  0  0  0  0  0  0  0  0
    8.6148  -14.2072   21.0662 C   0  0  1  0  0  0  0  0  0  0  0  0
    8.8704  -15.0985   22.1375 C   0  0  0  0  0  0  0  0  0  0  0  0
    9.2530  -16.2844   21.9461 O   0  0  0  0  0  0  0  0  0  0  0  0
    4.8138  -11.6453   26.9576 O   0  0  0  0  0  0  0  0  0  0  0  0
    5.9247  -12.4124   26.6724 C   0  0  0  0  0  0  0  0  0  0  0  0
    7.1085  -11.8716   26.2060 C   0  0  0  0  0  0  0  0  0  0  0  0
    8.1926  -12.6533   25.9317 C   0  0  0  0  0  0  0  0  0  0  0  0
    8.0771  -14.0191   26.1344 C   0  0  0  0  0  0  0  0  0  0  0  0
    9.2388  -14.8563   25.8361 C   0  0  0  0  0  0  0  0  0  0  0  0
    9.0784  -15.6985   24.5895 C   0  0  2  0  0  0  0  0  0  0  0  0
    8.7241  -14.7561   23.5323 N   0  0  0  0  0  0  0  0  0  0  0  0
    8.0993  -16.7791   24.7140 C   0  0  0  0  0  0  0  0  0  0  0  0
    6.9399  -16.7630   23.9575 O   0  0  0  0  0  0  0  0  0  0  0  0
    6.9251  -14.5872   26.5933 C   0  0  0  0  0  0  0  0  0  0  0  0
    5.8497  -13.7651   26.8598 C   0  0  0  0  0  0  0  0  0  0  0  0
    8.2638  -17.7493   25.4972 O   0  0  0  0  0  0  0  0  0  0  0  0
  2  1  1  0
  3  2  1  0
  3  4  1  1
  5  7  1  0
  5  3  1  0
  6  5  2  0
  7 11  1  0
  8  9  1  0
  8  7  1  0
  9 10  1  0
 10 11  1  0
 11 12  1  6
 12 21  1  0
 13 12  2  0
 15 14  1  0
 16 15  2  0
 17 16  1  0
 18 24  1  0
 18 17  2  0
 19 18  1  0
 20 22  1  0
 20 21  1  0
 20 19  1  1
 22 23  1  0
 24 25  2  0
 25 15  1  0
 26 22  2  0
M  END
$$$$
