SPY.pdb
     RDKit          3D

 26 27  0  0  1  0  0  0  0  0999 V2000
    8.0470  -17.1607   16.5089 O   0  0  0  0  0  0  0  0  0  0  0  0
    8.7831  -16.5404   15.4958 C   0  0  0  0  0  0  0  0  0  0  0  0
    8.8476  -15.0554   15.8459 C   0  0  2  0  0  0  0  0  0  0  0  0
    9.5165  -14.3983   14.7734 N   0  0  0  0  0  0  0  0  0  0  0  0
    9.4081  -14.8237   17.1724 C   0  0  0  0  0  0  0  0  0  0  0  0
   10.5445  -15.4290   17.3732 O   0  0  0  0  0  0  0  0  0  0  0  0
    8.9244  -14.0678   18.2280 N   0  0  0  0  0  0  0  0  0  0  0  0
    8.2471  -12.7401   17.9949 C   0  0  0  0  0  0  0  0  0  0  0  0
    7.0364  -12.7957   18.9031 C   0  0  0  0  0  0  0  0  0  0  0  0
    7.2344  -14.0960   19.7016 C   0  0  0  0  0  0  0  0  0  0  0  0
    8.7390  -14.1757   19.6464 C   0  0  1  0  0  0  0  0  0  0  0  0
    9.4363  -15.1380   20.4181 C   0  0  0  0  0  0  0  0  0  0  0  0
    9.2895  -16.3769   20.2368 O   0  0  0  0  0  0  0  0  0  0  0  0
   15.1696  -15.2884   17.4099 O   0  0  0  0  0  0  0  0  0  0  0  0
   14.4995  -15.2820   18.6161 C   0  0  0  0  0  0  0  0  0  0  0  0
   13.7975  -14.1837   19.0770 C   0  0  0  0  0  0  0  0  0  0  0  0
   13.1434  -14.2041   20.2741 C   0  0  0  0  0  0  0  0  0  0  0  0
   13.2003  -15.3664   21.0262 C   0  0  0  0  0  0  0  0  0  0  0  0
   12.5019  -15.3854   22.3113 C   0  0  0  0  0  0  0  0  0  0  0  0
   11.0672  -15.8565   22.2178 C   0  0  2  0  0  0  0  0  0  0  0  0
   10.3685  -14.8142   21.4717 N   0  0  0  0  0  0  0  0  0  0  0  0
   10.4356  -16.1251   23.5104 C   0  0  0  0  0  0  0  0  0  0  0  0
   10.8471  -17.1998   24.2801 O   0  0  0  0  0  0  0  0  0  0  0  0
   13.8832  -16.4688   20.6032 C   0  0  0  0  0  0  0  0  0  0  0  0
   14.5324  -16.4110   19.3873 C   0  0  0  0  0  0  0  0  0  0  0  0
    9.5105  -15.4072   23.9694 O   0  0  0  0  0  0  0  0  0  0  0  0
  2  1  1  0
  3  2  1  0
  3  4  1  6
  5  7  1  0
  5  3  1  0
  6  5  2  0
  7 11  1  0
  8  9  1  0
  8  7  1  0
  9 10  1  0
 10 11  1  0
 11 12  1  6
 12 21  1  0
 13 12  2  0
 15 14  1  0
 16 15  2  0
 17 16  1  0
 18 24  1  0
 18 17  2  0
 19 18  1  0
 20 22  1  0
 20 21  1  0
 20 19  1  1
 22 23  1  0
 24 25  2  0
 25 15  1  0
 26 22  2  0
M  END
$$$$
