SPY.pdb
     RDKit          3D

 26 27  0  0  1  0  0  0  0  0999 V2000
    7.2035  -18.5142   20.7841 O   0  0  0  0  0  0  0  0  0  0  0  0
    8.0747  -18.7480   19.7166 C   0  0  0  0  0  0  0  0  0  0  0  0
    8.5072  -17.3796   19.1947 C   0  0  2  0  0  0  0  0  0  0  0  0
    9.4037  -17.6061   18.1109 N   0  0  0  0  0  0  0  0  0  0  0  0
    9.0106  -16.5163   20.2571 C   0  0  0  0  0  0  0  0  0  0  0  0
    9.9331  -17.0727   20.9903 O   0  0  0  0  0  0  0  0  0  0  0  0
    8.6645  -15.2177   20.5935 N   0  0  0  0  0  0  0  0  0  0  0  0
    8.1377  -14.2545   19.5587 C   0  0  0  0  0  0  0  0  0  0  0  0
    6.9690  -13.5898   20.2558 C   0  0  0  0  0  0  0  0  0  0  0  0
    7.0477  -14.1236   21.6968 C   0  0  0  0  0  0  0  0  0  0  0  0
    8.5289  -14.3975   21.7626 C   0  0  1  0  0  0  0  0  0  0  0  0
    9.1413  -14.7452   22.9920 C   0  0  0  0  0  0  0  0  0  0  0  0
   10.2023  -14.1940   23.3919 O   0  0  0  0  0  0  0  0  0  0  0  0
    5.8861  -10.8422   26.4230 O   0  0  0  0  0  0  0  0  0  0  0  0
    6.4911  -12.0818   26.3841 C   0  0  0  0  0  0  0  0  0  0  0  0
    7.8177  -12.2784   26.7202 C   0  0  0  0  0  0  0  0  0  0  0  0
    8.3914  -13.5154   26.6730 C   0  0  0  0  0  0  0  0  0  0  0  0
    7.6028  -14.5829   26.2752 C   0  0  0  0  0  0  0  0  0  0  0  0
    8.2203  -15.9078   26.2211 C   0  0  0  0  0  0  0  0  0  0  0  0
    9.2974  -16.0350   25.1663 C   0  0  2  0  0  0  0  0  0  0  0  0
    8.6313  -15.7449   23.9000 N   0  0  0  0  0  0  0  0  0  0  0  0
    9.9725  -17.3335   25.1478 C   0  0  0  0  0  0  0  0  0  0  0  0
   10.8750  -17.6668   26.1434 O   0  0  0  0  0  0  0  0  0  0  0  0
    6.2909  -14.4261   25.9363 C   0  0  0  0  0  0  0  0  0  0  0  0
    5.7452  -13.1605   25.9961 C   0  0  0  0  0  0  0  0  0  0  0  0
    9.7677  -18.1856   24.2457 O   0  0  0  0  0  0  0  0  0  0  0  0
  2  1  1  0
  3  2  1  0
  3  4  1  6
  5  7  1  0
  5  3  1  0
  6  5  2  0
  7 11  1  0
  8  9  1  0
  8  7  1  0
  9 10  1  0
 10 11  1  0
 11 12  1  1
 12 21  1  0
 13 12  2  0
 15 14  1  0
 16 15  2  0
 17 16  1  0
 18 24  1  0
 18 17  2  0
 19 18  1  0
 20 22  1  0
 20 21  1  0
 20 19  1  1
 22 23  1  0
 24 25  2  0
 25 15  1  0
 26 22  2  0
M  END
$$$$
