SPY.pdb
     RDKit          3D

 26 27  0  0  1  0  0  0  0  0999 V2000
    8.8424  -18.6879   19.1896 O   0  0  0  0  0  0  0  0  0  0  0  0
    8.1426  -17.7949   18.3737 C   0  0  0  0  0  0  0  0  0  0  0  0
    9.0347  -16.5678   18.1990 C   0  0  2  0  0  0  0  0  0  0  0  0
   10.2136  -16.9965   17.5237 N   0  0  0  0  0  0  0  0  0  0  0  0
    9.2523  -15.8589   19.4551 C   0  0  0  0  0  0  0  0  0  0  0  0
   10.1706  -16.3969   20.2070 O   0  0  0  0  0  0  0  0  0  0  0  0
    8.6436  -14.7196   19.9558 N   0  0  0  0  0  0  0  0  0  0  0  0
    8.3741  -13.5243   19.0757 C   0  0  0  0  0  0  0  0  0  0  0  0
    6.9614  -13.1232   19.4457 C   0  0  0  0  0  0  0  0  0  0  0  0
    6.6192  -14.0360   20.6362 C   0  0  0  0  0  0  0  0  0  0  0  0
    8.0136  -14.2649   21.1618 C   0  0  1  0  0  0  0  0  0  0  0  0
    8.2156  -14.9212   22.4012 C   0  0  0  0  0  0  0  0  0  0  0  0
    7.8164  -16.0988   22.6091 O   0  0  0  0  0  0  0  0  0  0  0  0
   10.9804  -16.2810   30.7061 O   0  0  0  0  0  0  0  0  0  0  0  0
   10.6673  -15.7132   29.4880 C   0  0  0  0  0  0  0  0  0  0  0  0
   10.1107  -14.4532   29.3701 C   0  0  0  0  0  0  0  0  0  0  0  0
    9.8107  -13.9151   28.1527 C   0  0  0  0  0  0  0  0  0  0  0  0
   10.0805  -14.6713   27.0235 C   0  0  0  0  0  0  0  0  0  0  0  0
    9.7546  -14.0949   25.7193 C   0  0  0  0  0  0  0  0  0  0  0  0
    9.0213  -15.0461   24.7993 C   0  0  2  0  0  0  0  0  0  0  0  0
    8.8838  -14.3285   23.5353 N   0  0  0  0  0  0  0  0  0  0  0  0
    7.7308  -15.5071   25.3133 C   0  0  0  0  0  0  0  0  0  0  0  0
    7.6336  -16.7211   25.9716 O   0  0  0  0  0  0  0  0  0  0  0  0
   10.6289  -15.9177   27.1019 C   0  0  0  0  0  0  0  0  0  0  0  0
   10.9189  -16.4289   28.3501 C   0  0  0  0  0  0  0  0  0  0  0  0
    6.6756  -14.8355   25.1821 O   0  0  0  0  0  0  0  0  0  0  0  0
  2  1  1  0
  3  2  1  0
  3  4  1  1
  5  7  1  0
  5  3  1  0
  6  5  2  0
  7 11  1  0
  8  9  1  0
  8  7  1  0
  9 10  1  0
 10 11  1  0
 11 12  1  1
 12 21  1  0
 13 12  2  0
 15 14  1  0
 16 15  2  0
 17 16  1  0
 18 24  1  0
 18 17  2  0
 19 18  1  0
 20 22  1  0
 20 21  1  0
 20 19  1  1
 22 23  1  0
 24 25  2  0
 25 15  1  0
 26 22  2  0
M  END
$$$$
