SPY.pdb
     RDKit          3D

 26 27  0  0  1  0  0  0  0  0999 V2000
    7.8475  -18.8753   19.9935 O   0  0  0  0  0  0  0  0  0  0  0  0
    7.2135  -18.0409   19.0690 C   0  0  0  0  0  0  0  0  0  0  0  0
    8.2389  -16.9897   18.6504 C   0  0  2  0  0  0  0  0  0  0  0  0
    9.1637  -17.6282   17.7748 N   0  0  0  0  0  0  0  0  0  0  0  0
    8.8278  -16.3047   19.7956 C   0  0  0  0  0  0  0  0  0  0  0  0
    9.6631  -17.0408   20.4727 O   0  0  0  0  0  0  0  0  0  0  0  0
    8.6386  -15.0128   20.2590 N   0  0  0  0  0  0  0  0  0  0  0  0
    8.6053  -13.8383   19.3129 C   0  0  0  0  0  0  0  0  0  0  0  0
    7.4259  -13.0233   19.8012 C   0  0  0  0  0  0  0  0  0  0  0  0
    6.9991  -13.7334   21.0978 C   0  0  0  0  0  0  0  0  0  0  0  0
    8.3281  -14.3321   21.4831 C   0  0  1  0  0  0  0  0  0  0  0  0
    8.4974  -14.9536   22.7451 C   0  0  0  0  0  0  0  0  0  0  0  0
    7.5925  -15.6540   23.2742 O   0  0  0  0  0  0  0  0  0  0  0  0
    5.8658  -10.7875   27.0607 O   0  0  0  0  0  0  0  0  0  0  0  0
    6.4911  -11.9451   26.6450 C   0  0  0  0  0  0  0  0  0  0  0  0
    7.8270  -12.2040   26.8898 C   0  0  0  0  0  0  0  0  0  0  0  0
    8.4208  -13.3574   26.4674 C   0  0  0  0  0  0  0  0  0  0  0  0
    7.6433  -14.2744   25.7788 C   0  0  0  0  0  0  0  0  0  0  0  0
    8.2823  -15.5087   25.3230 C   0  0  0  0  0  0  0  0  0  0  0  0
    9.7312  -15.3331   24.9243 C   0  0  2  0  0  0  0  0  0  0  0  0
    9.6950  -14.8555   23.5452 N   0  0  0  0  0  0  0  0  0  0  0  0
   10.5462  -16.5403   25.0672 C   0  0  0  0  0  0  0  0  0  0  0  0
   11.2656  -17.0299   23.9904 O   0  0  0  0  0  0  0  0  0  0  0  0
    6.3227  -14.0525   25.5193 C   0  0  0  0  0  0  0  0  0  0  0  0
    5.7566  -12.8749   25.9620 C   0  0  0  0  0  0  0  0  0  0  0  0
   10.6271  -17.1732   26.1510 O   0  0  0  0  0  0  0  0  0  0  0  0
  2  1  1  0
  3  2  1  0
  3  4  1  1
  5  7  1  0
  5  3  1  0
  6  5  2  0
  7 11  1  0
  8  9  1  0
  8  7  1  0
  9 10  1  0
 10 11  1  0
 11 12  1  1
 12 21  1  0
 13 12  2  0
 15 14  1  0
 16 15  2  0
 17 16  1  0
 18 24  1  0
 18 17  2  0
 19 18  1  0
 20 22  1  0
 20 21  1  0
 20 19  1  6
 22 23  1  0
 24 25  2  0
 25 15  1  0
 26 22  2  0
M  END
$$$$
