SPY.pdb
     RDKit          3D

 26 27  0  0  1  0  0  0  0  0999 V2000
    7.6109  -18.3902   19.3663 O   0  0  0  0  0  0  0  0  0  0  0  0
    8.7539  -18.4029   18.5624 C   0  0  0  0  0  0  0  0  0  0  0  0
    9.1857  -16.9484   18.3894 C   0  0  2  0  0  0  0  0  0  0  0  0
   10.3003  -16.9424   17.5022 N   0  0  0  0  0  0  0  0  0  0  0  0
    9.3961  -16.2782   19.6677 C   0  0  0  0  0  0  0  0  0  0  0  0
   10.1624  -16.9418   20.4865 O   0  0  0  0  0  0  0  0  0  0  0  0
    8.9159  -15.0637   20.1302 N   0  0  0  0  0  0  0  0  0  0  0  0
    8.8137  -13.8643   19.2209 C   0  0  0  0  0  0  0  0  0  0  0  0
    7.4504  -13.2896   19.5443 C   0  0  0  0  0  0  0  0  0  0  0  0
    6.9714  -14.1290   20.7416 C   0  0  0  0  0  0  0  0  0  0  0  0
    8.3147  -14.5111   21.3097 C   0  0  1  0  0  0  0  0  0  0  0  0
    8.4054  -15.1596   22.5661 C   0  0  0  0  0  0  0  0  0  0  0  0
    7.5883  -16.0520   22.9204 O   0  0  0  0  0  0  0  0  0  0  0  0
    5.9307  -10.5969   26.8875 O   0  0  0  0  0  0  0  0  0  0  0  0
    6.3982  -11.8334   26.4920 C   0  0  0  0  0  0  0  0  0  0  0  0
    5.5898  -12.9529   26.4241 C   0  0  0  0  0  0  0  0  0  0  0  0
    6.0779  -14.1644   26.0294 C   0  0  0  0  0  0  0  0  0  0  0  0
    7.4198  -14.2466   25.6942 C   0  0  0  0  0  0  0  0  0  0  0  0
    7.9426  -15.5469   25.2752 C   0  0  0  0  0  0  0  0  0  0  0  0
    9.3995  -15.5151   24.8685 C   0  0  2  0  0  0  0  0  0  0  0  0
    9.4179  -14.8770   23.5555 N   0  0  0  0  0  0  0  0  0  0  0  0
   10.0494  -16.8263   24.8520 C   0  0  0  0  0  0  0  0  0  0  0  0
   10.2367  -17.5290   26.0300 O   0  0  0  0  0  0  0  0  0  0  0  0
    8.2467  -13.1632   25.7495 C   0  0  0  0  0  0  0  0  0  0  0  0
    7.7176  -11.9548   26.1530 C   0  0  0  0  0  0  0  0  0  0  0  0
   10.4583  -17.3613   23.7897 O   0  0  0  0  0  0  0  0  0  0  0  0
  2  1  1  0
  3  2  1  0
  3  4  1  6
  5  7  1  0
  5  3  1  0
  6  5  2  0
  7 11  1  0
  8  9  1  0
  8  7  1  0
  9 10  1  0
 10 11  1  0
 11 12  1  1
 12 21  1  0
 13 12  2  0
 15 14  1  0
 16 15  2  0
 17 16  1  0
 18 24  1  0
 18 17  2  0
 19 18  1  0
 20 22  1  0
 20 21  1  0
 20 19  1  6
 22 23  1  0
 24 25  2  0
 25 15  1  0
 26 22  2  0
M  END
$$$$
