SPY.pdb
     RDKit          3D

 26 27  0  0  1  0  0  0  0  0999 V2000
    8.7932  -18.7138   22.7868 O   0  0  0  0  0  0  0  0  0  0  0  0
    8.5382  -18.4594   21.4365 C   0  0  0  0  0  0  0  0  0  0  0  0
    9.4172  -17.2757   21.0388 C   0  0  2  0  0  0  0  0  0  0  0  0
   10.7487  -17.7650   20.9075 N   0  0  0  0  0  0  0  0  0  0  0  0
    9.2512  -16.1376   21.9358 C   0  0  0  0  0  0  0  0  0  0  0  0
    9.7454  -16.3328   23.1256 O   0  0  0  0  0  0  0  0  0  0  0  0
    8.6623  -14.9032   21.7146 N   0  0  0  0  0  0  0  0  0  0  0  0
    8.8378  -14.1750   20.4050 C   0  0  0  0  0  0  0  0  0  0  0  0
    7.4425  -13.6813   20.0844 C   0  0  0  0  0  0  0  0  0  0  0  0
    6.6286  -14.0352   21.3413 C   0  0  0  0  0  0  0  0  0  0  0  0
    7.7437  -14.0071   22.3557 C   0  0  1  0  0  0  0  0  0  0  0  0
    7.4578  -14.0979   23.7405 C   0  0  0  0  0  0  0  0  0  0  0  0
    6.8719  -15.0962   24.2399 O   0  0  0  0  0  0  0  0  0  0  0  0
   11.3260  -17.2361   28.6804 O   0  0  0  0  0  0  0  0  0  0  0  0
   10.6039  -16.1283   28.2863 C   0  0  0  0  0  0  0  0  0  0  0  0
    9.8720  -15.3580   29.1708 C   0  0  0  0  0  0  0  0  0  0  0  0
    9.1665  -14.2670   28.7543 C   0  0  0  0  0  0  0  0  0  0  0  0
    9.2016  -13.9456   27.4070 C   0  0  0  0  0  0  0  0  0  0  0  0
    8.4415  -12.7781   26.9614 C   0  0  0  0  0  0  0  0  0  0  0  0
    7.2683  -13.1196   26.0691 C   0  0  2  0  0  0  0  0  0  0  0  0
    7.7967  -13.0822   24.7087 N   0  0  0  0  0  0  0  0  0  0  0  0
    6.1099  -12.2404   26.2336 C   0  0  0  0  0  0  0  0  0  0  0  0
    5.0988  -12.5739   27.1186 O   0  0  0  0  0  0  0  0  0  0  0  0
    9.9127  -14.6827   26.5061 C   0  0  0  0  0  0  0  0  0  0  0  0
   10.6138  -15.7790   26.9640 C   0  0  0  0  0  0  0  0  0  0  0  0
    5.9840  -11.1661   25.5919 O   0  0  0  0  0  0  0  0  0  0  0  0
  2  1  1  0
  3  2  1  0
  3  4  1  1
  5  7  1  0
  5  3  1  0
  6  5  2  0
  7 11  1  0
  8  9  1  0
  8  7  1  0
  9 10  1  0
 10 11  1  0
 11 12  1  1
 12 21  1  0
 13 12  2  0
 15 14  1  0
 16 15  2  0
 17 16  1  0
 18 24  1  0
 18 17  2  0
 19 18  1  0
 20 22  1  0
 20 21  1  0
 20 19  1  1
 22 23  1  0
 24 25  2  0
 25 15  1  0
 26 22  2  0
M  END
$$$$
