SPY.pdb
     RDKit          3D

 26 27  0  0  1  0  0  0  0  0999 V2000
   10.3739  -14.9457   19.5231 O   0  0  0  0  0  0  0  0  0  0  0  0
    9.8273  -13.6705   19.3556 C   0  0  0  0  0  0  0  0  0  0  0  0
    8.3150  -13.8169   19.5093 C   0  0  2  0  0  0  0  0  0  0  0  0
    7.7287  -12.5841   19.1018 N   0  0  0  0  0  0  0  0  0  0  0  0
    7.9368  -14.2838   20.8384 C   0  0  0  0  0  0  0  0  0  0  0  0
    8.3639  -13.5186   21.8029 O   0  0  0  0  0  0  0  0  0  0  0  0
    7.2025  -15.3948   21.2205 N   0  0  0  0  0  0  0  0  0  0  0  0
    5.9682  -15.8164   20.4624 C   0  0  0  0  0  0  0  0  0  0  0  0
    6.1263  -17.3171   20.3344 C   0  0  0  0  0  0  0  0  0  0  0  0
    7.3668  -17.6310   21.1890 C   0  0  0  0  0  0  0  0  0  0  0  0
    7.2795  -16.4785   22.1573 C   0  0  1  0  0  0  0  0  0  0  0  0
    8.1292  -16.4256   23.2898 C   0  0  0  0  0  0  0  0  0  0  0  0
    9.3817  -16.3277   23.1842 O   0  0  0  0  0  0  0  0  0  0  0  0
    6.2175  -10.5446   26.0437 O   0  0  0  0  0  0  0  0  0  0  0  0
    6.5802  -11.8589   26.2563 C   0  0  0  0  0  0  0  0  0  0  0  0
    5.6689  -12.8985   26.2441 C   0  0  0  0  0  0  0  0  0  0  0  0
    6.0545  -14.1898   26.4573 C   0  0  0  0  0  0  0  0  0  0  0  0
    7.3979  -14.4371   26.6892 C   0  0  0  0  0  0  0  0  0  0  0  0
    7.8093  -15.8214   26.9216 C   0  0  0  0  0  0  0  0  0  0  0  0
    8.5980  -16.4224   25.7789 C   0  0  2  0  0  0  0  0  0  0  0  0
    7.6664  -16.4775   24.6563 N   0  0  0  0  0  0  0  0  0  0  0  0
    9.1830  -17.7313   26.0731 C   0  0  0  0  0  0  0  0  0  0  0  0
   10.3312  -17.8278   26.8405 O   0  0  0  0  0  0  0  0  0  0  0  0
    8.3247  -13.4365   26.7085 C   0  0  0  0  0  0  0  0  0  0  0  0
    7.8976  -12.1432   26.4887 C   0  0  0  0  0  0  0  0  0  0  0  0
    8.6796  -18.8036   25.6504 O   0  0  0  0  0  0  0  0  0  0  0  0
  2  1  1  0
  3  2  1  0
  3  4  1  1
  5  7  1  0
  5  3  1  0
  6  5  2  0
  7 11  1  0
  8  9  1  0
  8  7  1  0
  9 10  1  0
 10 11  1  0
 11 12  1  1
 12 21  1  0
 13 12  2  0
 15 14  1  0
 16 15  2  0
 17 16  1  0
 18 24  1  0
 18 17  2  0
 19 18  1  0
 20 22  1  0
 20 21  1  0
 20 19  1  1
 22 23  1  0
 24 25  2  0
 25 15  1  0
 26 22  2  0
M  END
$$$$
