SPY.pdb
     RDKit          3D

 26 27  0  0  1  0  0  0  0  0999 V2000
    7.2407  -18.3073   19.9661 O   0  0  0  0  0  0  0  0  0  0  0  0
    8.2645  -18.5004   19.0347 C   0  0  0  0  0  0  0  0  0  0  0  0
    8.8792  -17.1285   18.7666 C   0  0  2  0  0  0  0  0  0  0  0  0
    9.9578  -17.3207   17.8559 N   0  0  0  0  0  0  0  0  0  0  0  0
    9.2146  -16.4225   19.9981 C   0  0  0  0  0  0  0  0  0  0  0  0
   10.0890  -17.0454   20.7368 O   0  0  0  0  0  0  0  0  0  0  0  0
    8.7547  -15.2108   20.4878 N   0  0  0  0  0  0  0  0  0  0  0  0
    8.2483  -14.1331   19.5614 C   0  0  0  0  0  0  0  0  0  0  0  0
    6.9847  -13.6473   20.2403 C   0  0  0  0  0  0  0  0  0  0  0  0
    6.9836  -14.3873   21.5894 C   0  0  0  0  0  0  0  0  0  0  0  0
    8.4700  -14.5854   21.7470 C   0  0  1  0  0  0  0  0  0  0  0  0
    9.0040  -15.0802   22.9625 C   0  0  0  0  0  0  0  0  0  0  0  0
   10.1638  -14.7813   23.3561 O   0  0  0  0  0  0  0  0  0  0  0  0
    5.1286  -11.7003   26.8961 O   0  0  0  0  0  0  0  0  0  0  0  0
    6.1886  -12.5475   26.6461 C   0  0  0  0  0  0  0  0  0  0  0  0
    7.5078  -12.1450   26.7424 C   0  0  0  0  0  0  0  0  0  0  0  0
    8.5375  -13.0036   26.4896 C   0  0  0  0  0  0  0  0  0  0  0  0
    8.2256  -14.3047   26.1296 C   0  0  0  0  0  0  0  0  0  0  0  0
    9.3306  -15.2230   25.8550 C   0  0  0  0  0  0  0  0  0  0  0  0
    8.9184  -16.4588   25.0856 C   0  0  2  0  0  0  0  0  0  0  0  0
    8.2969  -15.9602   23.8623 N   0  0  0  0  0  0  0  0  0  0  0  0
    8.0336  -17.3611   25.8238 C   0  0  0  0  0  0  0  0  0  0  0  0
    8.5131  -18.0817   26.9043 O   0  0  0  0  0  0  0  0  0  0  0  0
    6.9360  -14.7366   26.0246 C   0  0  0  0  0  0  0  0  0  0  0  0
    5.9211  -13.8401   26.2879 C   0  0  0  0  0  0  0  0  0  0  0  0
    6.8245  -17.5189   25.5157 O   0  0  0  0  0  0  0  0  0  0  0  0
  2  1  1  0
  3  2  1  0
  3  4  1  6
  5  7  1  0
  5  3  1  0
  6  5  2  0
  7 11  1  0
  8  9  1  0
  8  7  1  0
  9 10  1  0
 10 11  1  0
 11 12  1  1
 12 21  1  0
 13 12  2  0
 15 14  1  0
 16 15  2  0
 17 16  1  0
 18 24  1  0
 18 17  2  0
 19 18  1  0
 20 22  1  0
 20 21  1  0
 20 19  1  1
 22 23  1  0
 24 25  2  0
 25 15  1  0
 26 22  2  0
M  END
$$$$
