TQF.pdb
     RDKit          3D

 28 28  0  0  1  0  0  0  0  0999 V2000
   17.8575  -27.0007   -0.8264 C   0  0  0  0  0  0  0  0  0  0  0  0
   18.2753  -27.2508   -2.2553 C   0  0  1  0  0  0  0  0  0  0  0  0
   18.9983  -28.4011   -2.4428 O   0  0  0  0  0  0  0  0  0  0  0  0
   17.0389  -27.1796   -3.1332 C   0  0  2  0  0  0  0  0  0  0  0  0
   17.4456  -27.5667   -4.4891 N   0  0  0  0  0  0  0  0  0  0  0  0
   16.4617  -25.8107   -3.1357 C   0  0  0  0  0  0  0  0  0  0  0  0
   16.5673  -25.0755   -2.1270 O   0  0  0  0  0  0  0  0  0  0  0  0
   14.9981  -25.1647   -8.0525 N   0  0  0  0  0  0  0  0  0  0  0  0
   15.7779  -24.0128   -7.8010 C   0  0  0  0  0  0  0  0  0  0  0  0
   16.6231  -23.6920   -8.6736 O   0  0  0  0  0  0  0  0  0  0  0  0
   15.6640  -23.1660   -6.5908 C   0  0  0  0  0  0  0  0  0  0  0  0
   14.6194  -23.7064   -5.6457 C   0  0  0  0  0  0  0  0  0  0  0  0
   15.1379  -23.9759   -4.2548 C   0  0  2  0  0  0  0  0  0  0  0  0
   15.7692  -25.2821   -4.2862 N   0  0  0  0  0  0  0  0  0  0  0  0
   14.1209  -23.9090   -3.2116 C   0  0  0  0  0  0  0  0  0  0  0  0
   13.3761  -24.8792   -2.8817 O   0  0  0  0  0  0  0  0  0  0  0  0
   13.8992  -22.7155   -2.4790 N   0  0  0  0  0  0  0  0  0  0  0  0
   12.8638  -22.6262   -1.4193 C   0  0  1  0  0  0  0  0  0  0  0  0
   13.5029  -21.9531   -0.2044 C   0  0  0  0  0  0  0  0  0  0  0  0
   14.2668  -22.9702    0.5536 C   0  0  0  0  0  0  0  0  0  0  0  0
   13.7014  -23.8895    1.4042 C   0  0  0  0  0  0  0  0  0  0  0  0
   14.4830  -24.8027    2.0589 C   0  0  0  0  0  0  0  0  0  0  0  0
   15.8689  -24.8798    1.9276 C   0  0  0  0  0  0  0  0  0  0  0  0
   16.4180  -23.9379    1.0613 C   0  0  0  0  0  0  0  0  0  0  0  0
   15.6598  -23.0153    0.3948 C   0  0  0  0  0  0  0  0  0  0  0  0
   11.8047  -21.7570   -1.9360 C   0  0  0  0  0  0  0  0  0  0  0  0
   10.7905  -21.5187   -1.2467 O   0  0  0  0  0  0  0  0  0  0  0  0
   11.9126  -21.1907   -3.1869 O   0  0  0  0  0  0  0  0  0  0  0  0
  2  1  1  1
  3  2  1  0
  4  2  1  0
  4  5  1  6
  6  4  1  0
  6 14  1  0
  7  6  2  0
  9 10  2  0
  9  8  1  0
 11  9  1  0
 13 12  1  6
 12 11  1  0
 14 13  1  0
 15 16  2  0
 15 13  1  0
 17 15  1  0
 18 17  1  0
 18 26  1  0
 18 19  1  1
 20 25  2  0
 20 19  1  0
 21 20  1  0
 22 23  1  0
 22 21  2  0
 23 24  2  0
 24 25  1  0
 26 28  1  0
 27 26  2  0
M  END
$$$$
