TQF.pdb
     RDKit          3D

 28 28  0  0  1  0  0  0  0  0999 V2000
   19.6180  -13.0301  -15.7533 C   0  0  0  0  0  0  0  0  0  0  0  0
   20.0449  -11.6397  -16.1574 C   0  0  1  0  0  0  0  0  0  0  0  0
   21.2873  -11.5721  -16.7347 O   0  0  0  0  0  0  0  0  0  0  0  0
   18.9550  -11.0400  -17.0273 C   0  0  2  0  0  0  0  0  0  0  0  0
   18.9654  -11.7683  -18.3012 N   0  0  0  0  0  0  0  0  0  0  0  0
   19.1891   -9.5909  -17.2563 C   0  0  0  0  0  0  0  0  0  0  0  0
   19.8263   -9.2021  -18.2623 O   0  0  0  0  0  0  0  0  0  0  0  0
   15.4856   -5.0758  -16.0732 N   0  0  0  0  0  0  0  0  0  0  0  0
   16.5034   -4.4422  -16.8221 C   0  0  0  0  0  0  0  0  0  0  0  0
   16.4008   -3.2016  -16.9924 O   0  0  0  0  0  0  0  0  0  0  0  0
   17.6724   -5.1362  -17.4108 C   0  0  0  0  0  0  0  0  0  0  0  0
   17.6243   -6.6174  -17.1279 C   0  0  0  0  0  0  0  0  0  0  0  0
   18.9144   -7.1748  -16.5794 C   0  0  2  0  0  0  0  0  0  0  0  0
   18.6951   -8.5894  -16.3422 N   0  0  0  0  0  0  0  0  0  0  0  0
   19.3919   -6.5077  -15.3736 C   0  0  0  0  0  0  0  0  0  0  0  0
   18.8975   -6.6840  -14.2206 O   0  0  0  0  0  0  0  0  0  0  0  0
   20.4748   -5.5937  -15.4209 N   0  0  0  0  0  0  0  0  0  0  0  0
   20.9773   -4.9089  -14.2038 C   0  0  1  0  0  0  0  0  0  0  0  0
   22.4490   -5.2874  -14.0351 C   0  0  0  0  0  0  0  0  0  0  0  0
   22.5457   -6.7568  -13.8804 C   0  0  0  0  0  0  0  0  0  0  0  0
   23.0692   -7.6033  -14.8278 C   0  0  0  0  0  0  0  0  0  0  0  0
   23.1293   -8.9513  -14.5977 C   0  0  0  0  0  0  0  0  0  0  0  0
   22.6822   -9.5635  -13.4275 C   0  0  0  0  0  0  0  0  0  0  0  0
   22.1558   -8.6853  -12.4837 C   0  0  0  0  0  0  0  0  0  0  0  0
   22.0846   -7.3351  -12.6885 C   0  0  0  0  0  0  0  0  0  0  0  0
   20.8879   -3.4702  -14.4614 C   0  0  0  0  0  0  0  0  0  0  0  0
   20.4728   -3.0501  -15.5621 O   0  0  0  0  0  0  0  0  0  0  0  0
   21.2590   -2.5621  -13.4945 O   0  0  0  0  0  0  0  0  0  0  0  0
  2  1  1  6
  3  2  1  0
  4  2  1  0
  4  5  1  6
  6  4  1  0
  6 14  1  0
  7  6  2  0
  9 10  2  0
  9  8  1  0
 11  9  1  0
 13 12  1  1
 12 11  1  0
 14 13  1  0
 15 16  2  0
 15 13  1  0
 17 15  1  0
 18 17  1  0
 18 26  1  0
 18 19  1  6
 20 25  2  0
 20 19  1  0
 21 20  1  0
 22 23  1  0
 22 21  2  0
 23 24  2  0
 24 25  1  0
 26 28  1  0
 27 26  2  0
M  END
$$$$
