TQF.pdb
     RDKit          3D

 28 28  0  0  1  0  0  0  0  0999 V2000
   12.9188  -10.6916  -14.2093 C   0  0  0  0  0  0  0  0  0  0  0  0
   13.0902  -12.1313  -13.7887 C   0  0  1  0  0  0  0  0  0  0  0  0
   12.3471  -13.0274  -14.5140 O   0  0  0  0  0  0  0  0  0  0  0  0
   14.5732  -12.4552  -13.7895 C   0  0  2  0  0  0  0  0  0  0  0  0
   14.7100  -13.8677  -13.4160 N   0  0  0  0  0  0  0  0  0  0  0  0
   15.3108  -11.5916  -12.8317 C   0  0  0  0  0  0  0  0  0  0  0  0
   15.2009  -11.7749  -11.5974 O   0  0  0  0  0  0  0  0  0  0  0  0
   20.3346   -7.9918  -14.3969 N   0  0  0  0  0  0  0  0  0  0  0  0
   20.0089   -7.5823  -13.0837 C   0  0  0  0  0  0  0  0  0  0  0  0
   20.7459   -6.7122  -12.5562 O   0  0  0  0  0  0  0  0  0  0  0  0
   18.8666   -8.1037  -12.2976 C   0  0  0  0  0  0  0  0  0  0  0  0
   18.0817   -9.1210  -13.0884 C   0  0  0  0  0  0  0  0  0  0  0  0
   16.9047   -9.6969  -12.3409 C   0  0  2  0  0  0  0  0  0  0  0  0
   16.1726  -10.5249  -13.2812 N   0  0  0  0  0  0  0  0  0  0  0  0
   16.0337   -8.6985  -11.7314 C   0  0  0  0  0  0  0  0  0  0  0  0
   15.2444   -7.9514  -12.3824 O   0  0  0  0  0  0  0  0  0  0  0  0
   16.0164   -8.4991  -10.3277 N   0  0  0  0  0  0  0  0  0  0  0  0
   15.0704   -7.5559   -9.6808 C   0  0  1  0  0  0  0  0  0  0  0  0
   15.0174   -7.9027   -8.1927 C   0  0  0  0  0  0  0  0  0  0  0  0
   14.0588   -6.9910   -7.5275 C   0  0  0  0  0  0  0  0  0  0  0  0
   14.4121   -5.8281   -6.8864 C   0  0  0  0  0  0  0  0  0  0  0  0
   13.4577   -5.0377   -6.3053 C   0  0  0  0  0  0  0  0  0  0  0  0
   12.0943   -5.3294   -6.3106 C   0  0  0  0  0  0  0  0  0  0  0  0
   11.7617   -6.5126   -6.9652 C   0  0  0  0  0  0  0  0  0  0  0  0
   12.6954   -7.3198   -7.5542 C   0  0  0  0  0  0  0  0  0  0  0  0
   15.6409   -6.2158   -9.8318 C   0  0  0  0  0  0  0  0  0  0  0  0
   16.8770   -6.0451   -9.7736 O   0  0  0  0  0  0  0  0  0  0  0  0
   14.8235   -5.1270  -10.0403 O   0  0  0  0  0  0  0  0  0  0  0  0
  2  1  1  6
  3  2  1  0
  4  2  1  0
  4  5  1  1
  6  4  1  0
  6 14  1  0
  7  6  2  0
  9 10  2  0
  9  8  1  0
 11  9  1  0
 13 12  1  6
 12 11  1  0
 14 13  1  0
 15 16  2  0
 15 13  1  0
 17 15  1  0
 18 17  1  0
 18 26  1  0
 18 19  1  1
 20 25  2  0
 20 19  1  0
 21 20  1  0
 22 23  1  0
 22 21  2  0
 23 24  2  0
 24 25  1  0
 26 28  1  0
 27 26  2  0
M  END
$$$$
