TQF.pdb
     RDKit          3D

 28 28  0  0  1  0  0  0  0  0999 V2000
   17.7848  -13.6897  -21.5194 C   0  0  0  0  0  0  0  0  0  0  0  0
   18.3450  -12.3195  -21.2233 C   0  0  1  0  0  0  0  0  0  0  0  0
   18.2124  -11.4178  -22.2483 O   0  0  0  0  0  0  0  0  0  0  0  0
   17.7396  -11.8278  -19.9210 C   0  0  2  0  0  0  0  0  0  0  0  0
   16.3047  -11.6296  -20.1561 N   0  0  0  0  0  0  0  0  0  0  0  0
   18.3734  -10.5582  -19.4812 C   0  0  0  0  0  0  0  0  0  0  0  0
   19.5715  -10.5400  -19.1162 O   0  0  0  0  0  0  0  0  0  0  0  0
   15.7654   -4.7719  -20.3750 N   0  0  0  0  0  0  0  0  0  0  0  0
   17.0057   -4.5230  -19.7442 C   0  0  0  0  0  0  0  0  0  0  0  0
   17.3470   -3.3217  -19.6063 O   0  0  0  0  0  0  0  0  0  0  0  0
   17.9191   -5.5737  -19.2376 C   0  0  0  0  0  0  0  0  0  0  0  0
   17.3859   -6.9514  -19.5446 C   0  0  0  0  0  0  0  0  0  0  0  0
   18.2788   -8.0700  -19.0675 C   0  0  2  0  0  0  0  0  0  0  0  0
   17.6431   -9.3136  -19.4610 N   0  0  0  0  0  0  0  0  0  0  0  0
   18.5526   -8.0503  -17.6351 C   0  0  0  0  0  0  0  0  0  0  0  0
   17.7836   -8.5438  -16.7577 O   0  0  0  0  0  0  0  0  0  0  0  0
   19.7354   -7.4598  -17.1225 N   0  0  0  0  0  0  0  0  0  0  0  0
   20.0597   -7.4827  -15.6743 C   0  0  1  0  0  0  0  0  0  0  0  0
   21.5314   -7.8734  -15.5366 C   0  0  0  0  0  0  0  0  0  0  0  0
   21.8757   -7.9240  -14.0973 C   0  0  0  0  0  0  0  0  0  0  0  0
   21.8608   -9.0680  -13.3364 C   0  0  0  0  0  0  0  0  0  0  0  0
   22.2039   -9.0259  -12.0120 C   0  0  0  0  0  0  0  0  0  0  0  0
   22.5840   -7.8642  -11.3412 C   0  0  0  0  0  0  0  0  0  0  0  0
   22.5905   -6.7187  -12.1331 C   0  0  0  0  0  0  0  0  0  0  0  0
   22.2527   -6.7336  -13.4582 C   0  0  0  0  0  0  0  0  0  0  0  0
   19.8878   -6.1147  -15.1814 C   0  0  0  0  0  0  0  0  0  0  0  0
   20.0644   -5.1414  -15.9443 O   0  0  0  0  0  0  0  0  0  0  0  0
   19.5288   -5.8829  -13.8720 O   0  0  0  0  0  0  0  0  0  0  0  0
  2  1  1  6
  3  2  1  0
  4  2  1  0
  4  5  1  6
  6  4  1  0
  6 14  1  0
  7  6  2  0
  9 10  2  0
  9  8  1  0
 11  9  1  0
 13 12  1  1
 12 11  1  0
 14 13  1  0
 15 16  2  0
 15 13  1  0
 17 15  1  0
 18 17  1  0
 18 26  1  0
 18 19  1  6
 20 25  2  0
 20 19  1  0
 21 20  1  0
 22 23  1  0
 22 21  2  0
 23 24  2  0
 24 25  1  0
 26 28  1  0
 27 26  2  0
M  END
$$$$
