TQF.pdb
     RDKit          3D

 28 28  0  0  1  0  0  0  0  0999 V2000
   24.6206  -14.0772  -17.7255 C   0  0  0  0  0  0  0  0  0  0  0  0
   24.0440  -14.7993  -18.9193 C   0  0  1  0  0  0  0  0  0  0  0  0
   24.3458  -16.1361  -18.9748 O   0  0  0  0  0  0  0  0  0  0  0  0
   22.5513  -14.5275  -18.9661 C   0  0  2  0  0  0  0  0  0  0  0  0
   22.0153  -15.2429  -20.1298 N   0  0  0  0  0  0  0  0  0  0  0  0
   22.2750  -13.0722  -19.0794 C   0  0  0  0  0  0  0  0  0  0  0  0
   21.9728  -12.5678  -20.1855 O   0  0  0  0  0  0  0  0  0  0  0  0
   17.6351  -10.8274  -18.9175 N   0  0  0  0  0  0  0  0  0  0  0  0
   18.3393   -9.6086  -18.7879 C   0  0  0  0  0  0  0  0  0  0  0  0
   17.6762   -8.5485  -18.9111 O   0  0  0  0  0  0  0  0  0  0  0  0
   19.7916   -9.4995  -18.5165 C   0  0  0  0  0  0  0  0  0  0  0  0
   20.4189  -10.8625  -18.3584 C   0  0  0  0  0  0  0  0  0  0  0  0
   21.8854  -10.8207  -18.0068 C   0  0  2  0  0  0  0  0  0  0  0  0
   22.3407  -12.1966  -17.9341 N   0  0  0  0  0  0  0  0  0  0  0  0
   22.1870  -10.1018  -16.7742 C   0  0  0  0  0  0  0  0  0  0  0  0
   21.7916  -10.4626  -15.6261 O   0  0  0  0  0  0  0  0  0  0  0  0
   22.9679   -8.9185  -16.7877 N   0  0  0  0  0  0  0  0  0  0  0  0
   23.2988   -8.1826  -15.5419 C   0  0  1  0  0  0  0  0  0  0  0  0
   24.6753   -7.5452  -15.7335 C   0  0  0  0  0  0  0  0  0  0  0  0
   25.6573   -8.6156  -16.0207 C   0  0  0  0  0  0  0  0  0  0  0  0
   26.4397   -8.6676  -17.1491 C   0  0  0  0  0  0  0  0  0  0  0  0
   27.3309   -9.6905  -17.3300 C   0  0  0  0  0  0  0  0  0  0  0  0
   27.5181  -10.7317  -16.4217 C   0  0  0  0  0  0  0  0  0  0  0  0
   26.7139  -10.6571  -15.2874 C   0  0  0  0  0  0  0  0  0  0  0  0
   25.8162   -9.6460  -15.0822 C   0  0  0  0  0  0  0  0  0  0  0  0
   22.3026   -7.1185  -15.4028 C   0  0  0  0  0  0  0  0  0  0  0  0
   21.5170   -6.8621  -16.3396 O   0  0  0  0  0  0  0  0  0  0  0  0
   22.2180   -6.3873  -14.2386 O   0  0  0  0  0  0  0  0  0  0  0  0
  2  1  1  1
  3  2  1  0
  4  2  1  0
  4  5  1  6
  6  4  1  0
  6 14  1  0
  7  6  2  0
  9 10  2  0
  9  8  1  0
 11  9  1  0
 13 12  1  1
 12 11  1  0
 14 13  1  0
 15 16  2  0
 15 13  1  0
 17 15  1  0
 18 17  1  0
 18 26  1  0
 18 19  1  6
 20 25  2  0
 20 19  1  0
 21 20  1  0
 22 23  1  0
 22 21  2  0
 23 24  2  0
 24 25  1  0
 26 28  1  0
 27 26  2  0
M  END
$$$$
