TQF.pdb
     RDKit          3D

 28 28  0  0  1  0  0  0  0  0999 V2000
   28.6140  -21.9774  -16.7634 C   0  0  0  0  0  0  0  0  0  0  0  0
   28.0780  -21.1510  -15.6194 C   0  0  1  0  0  0  0  0  0  0  0  0
   28.5764  -19.8746  -15.5582 O   0  0  0  0  0  0  0  0  0  0  0  0
   26.5614  -21.1920  -15.6708 C   0  0  2  0  0  0  0  0  0  0  0  0
   26.1543  -20.6165  -16.9578 N   0  0  0  0  0  0  0  0  0  0  0  0
   25.9663  -20.4233  -14.5474 C   0  0  0  0  0  0  0  0  0  0  0  0
   25.4095  -19.3211  -14.7572 O   0  0  0  0  0  0  0  0  0  0  0  0
   21.0898  -20.3144  -12.6225 N   0  0  0  0  0  0  0  0  0  0  0  0
   21.8579  -21.5004  -12.6622 C   0  0  0  0  0  0  0  0  0  0  0  0
   21.2352  -22.5808  -12.8164 O   0  0  0  0  0  0  0  0  0  0  0  0
   23.3332  -21.5533  -12.5380 C   0  0  0  0  0  0  0  0  0  0  0  0
   23.9114  -20.1743  -12.3368 C   0  0  0  0  0  0  0  0  0  0  0  0
   25.4014  -20.1674  -12.1006 C   0  0  2  0  0  0  0  0  0  0  0  0
   26.0042  -20.9125  -13.1902 N   0  0  0  0  0  0  0  0  0  0  0  0
   25.8068  -20.7070  -10.8078 C   0  0  0  0  0  0  0  0  0  0  0  0
   25.9493  -21.9424  -10.5663 O   0  0  0  0  0  0  0  0  0  0  0  0
   26.0762  -19.8531   -9.7084 N   0  0  0  0  0  0  0  0  0  0  0  0
   26.7366  -20.3472   -8.4745 C   0  0  1  0  0  0  0  0  0  0  0  0
   27.4510  -19.1611   -7.8261 C   0  0  0  0  0  0  0  0  0  0  0  0
   28.0386  -19.6061   -6.5419 C   0  0  0  0  0  0  0  0  0  0  0  0
   27.4737  -19.3774   -5.3103 C   0  0  0  0  0  0  0  0  0  0  0  0
   28.0811  -19.8340   -4.1719 C   0  0  0  0  0  0  0  0  0  0  0  0
   29.2809  -20.5441   -4.1590 C   0  0  0  0  0  0  0  0  0  0  0  0
   29.8337  -20.7624   -5.4183 C   0  0  0  0  0  0  0  0  0  0  0  0
   29.2472  -20.3176   -6.5708 C   0  0  0  0  0  0  0  0  0  0  0  0
   25.6713  -20.8020   -7.5786 C   0  0  0  0  0  0  0  0  0  0  0  0
   24.5110  -20.3553   -7.6991 O   0  0  0  0  0  0  0  0  0  0  0  0
   25.9339  -21.7275   -6.5929 O   0  0  0  0  0  0  0  0  0  0  0  0
  2  1  1  6
  3  2  1  0
  4  2  1  0
  4  5  1  6
  6  4  1  0
  6 14  1  0
  7  6  2  0
  9 10  2  0
  9  8  1  0
 11  9  1  0
 13 12  1  6
 12 11  1  0
 14 13  1  0
 15 16  2  0
 15 13  1  0
 17 15  1  0
 18 17  1  0
 18 26  1  0
 18 19  1  1
 20 25  2  0
 20 19  1  0
 21 20  1  0
 22 23  1  0
 22 21  2  0
 23 24  2  0
 24 25  1  0
 26 28  1  0
 27 26  2  0
M  END
$$$$
