TQF.pdb
     RDKit          3D

 28 28  0  0  1  0  0  0  0  0999 V2000
   17.9820  -16.5215  -16.5205 C   0  0  0  0  0  0  0  0  0  0  0  0
   19.1231  -15.5349  -16.4620 C   0  0  1  0  0  0  0  0  0  0  0  0
   20.2251  -15.9807  -15.7779 O   0  0  0  0  0  0  0  0  0  0  0  0
   19.4448  -15.0930  -17.8782 C   0  0  2  0  0  0  0  0  0  0  0  0
   19.9230  -16.2751  -18.6044 N   0  0  0  0  0  0  0  0  0  0  0  0
   20.4792  -14.0266  -17.8847 C   0  0  0  0  0  0  0  0  0  0  0  0
   21.5177  -14.1539  -18.5736 O   0  0  0  0  0  0  0  0  0  0  0  0
   21.7665   -8.7199  -19.8011 N   0  0  0  0  0  0  0  0  0  0  0  0
   20.4176   -9.0917  -19.6004 C   0  0  0  0  0  0  0  0  0  0  0  0
   19.5382   -8.2622  -19.9428 O   0  0  0  0  0  0  0  0  0  0  0  0
   19.9765  -10.3821  -19.0217 C   0  0  0  0  0  0  0  0  0  0  0  0
   21.1560  -11.2714  -18.7143 C   0  0  0  0  0  0  0  0  0  0  0  0
   21.2363  -11.6986  -17.2696 C   0  0  2  0  0  0  0  0  0  0  0  0
   20.3273  -12.8184  -17.1103 N   0  0  0  0  0  0  0  0  0  0  0  0
   20.9375  -10.6393  -16.3128 C   0  0  0  0  0  0  0  0  0  0  0  0
   19.7668  -10.3166  -15.9522 O   0  0  0  0  0  0  0  0  0  0  0  0
   21.9736   -9.8837  -15.7078 N   0  0  0  0  0  0  0  0  0  0  0  0
   21.6958   -8.8675  -14.6624 C   0  0  1  0  0  0  0  0  0  0  0  0
   22.9037   -8.8259  -13.7259 C   0  0  0  0  0  0  0  0  0  0  0  0
   24.1132   -9.1962  -14.4958 C   0  0  0  0  0  0  0  0  0  0  0  0
   24.7397  -10.4165  -14.4157 C   0  0  0  0  0  0  0  0  0  0  0  0
   25.8498  -10.6784  -15.1723 C   0  0  0  0  0  0  0  0  0  0  0  0
   26.4232   -9.7667  -16.0578 C   0  0  0  0  0  0  0  0  0  0  0  0
   25.7710   -8.5379  -16.1206 C   0  0  0  0  0  0  0  0  0  0  0  0
   24.6604   -8.2510  -15.3760 C   0  0  0  0  0  0  0  0  0  0  0  0
   21.5858   -7.5774  -15.3462 C   0  0  0  0  0  0  0  0  0  0  0  0
   21.8565   -7.4816  -16.5619 O   0  0  0  0  0  0  0  0  0  0  0  0
   21.1821   -6.4538  -14.6593 O   0  0  0  0  0  0  0  0  0  0  0  0
  2  1  1  6
  3  2  1  0
  4  2  1  0
  4  5  1  6
  6  4  1  0
  6 14  1  0
  7  6  2  0
  9 10  2  0
  9  8  1  0
 11  9  1  0
 13 12  1  6
 12 11  1  0
 14 13  1  0
 15 16  2  0
 15 13  1  0
 17 15  1  0
 18 17  1  0
 18 26  1  0
 18 19  1  1
 20 25  2  0
 20 19  1  0
 21 20  1  0
 22 23  1  0
 22 21  2  0
 23 24  2  0
 24 25  1  0
 26 28  1  0
 27 26  2  0
M  END
$$$$
