TQF.pdb
     RDKit          3D

 28 28  0  0  1  0  0  0  0  0999 V2000
   15.6533  -13.1793  -16.5178 C   0  0  0  0  0  0  0  0  0  0  0  0
   16.7958  -12.2869  -16.0972 C   0  0  1  0  0  0  0  0  0  0  0  0
   17.0680  -12.3078  -14.7531 O   0  0  0  0  0  0  0  0  0  0  0  0
   18.0046  -12.6252  -16.9508 C   0  0  2  0  0  0  0  0  0  0  0  0
   18.4161  -13.9895  -16.6007 N   0  0  0  0  0  0  0  0  0  0  0  0
   19.1161  -11.6698  -16.7082 C   0  0  0  0  0  0  0  0  0  0  0  0
   20.0177  -11.9415  -15.8821 O   0  0  0  0  0  0  0  0  0  0  0  0
   21.0464   -7.7658  -21.2010 N   0  0  0  0  0  0  0  0  0  0  0  0
   20.4765   -7.0090  -20.1518 C   0  0  0  0  0  0  0  0  0  0  0  0
   20.1893   -5.8114  -20.4004 O   0  0  0  0  0  0  0  0  0  0  0  0
   20.1957   -7.5298  -18.7936 C   0  0  0  0  0  0  0  0  0  0  0  0
   20.6146   -8.9738  -18.6678 C   0  0  0  0  0  0  0  0  0  0  0  0
   20.3714   -9.5613  -17.2997 C   0  0  2  0  0  0  0  0  0  0  0  0
   19.1997  -10.4104  -17.4080 N   0  0  0  0  0  0  0  0  0  0  0  0
   20.2064   -8.5711  -16.2418 C   0  0  0  0  0  0  0  0  0  0  0  0
   19.0846   -8.1487  -15.8322 O   0  0  0  0  0  0  0  0  0  0  0  0
   21.3286   -8.0048  -15.5857 N   0  0  0  0  0  0  0  0  0  0  0  0
   21.1800   -7.0077  -14.4964 C   0  0  1  0  0  0  0  0  0  0  0  0
   22.3083   -7.2481  -13.4930 C   0  0  0  0  0  0  0  0  0  0  0  0
   23.4566   -7.8518  -14.2067 C   0  0  0  0  0  0  0  0  0  0  0  0
   24.2835   -7.1667  -15.0640 C   0  0  0  0  0  0  0  0  0  0  0  0
   25.3305   -7.8021  -15.6753 C   0  0  0  0  0  0  0  0  0  0  0  0
   25.6404   -9.1489  -15.4911 C   0  0  0  0  0  0  0  0  0  0  0  0
   24.7881   -9.8213  -14.6189 C   0  0  0  0  0  0  0  0  0  0  0  0
   23.7357   -9.2101  -13.9952 C   0  0  0  0  0  0  0  0  0  0  0  0
   21.3636   -5.6881  -15.1039 C   0  0  0  0  0  0  0  0  0  0  0  0
   21.7253   -5.5858  -16.2951 O   0  0  0  0  0  0  0  0  0  0  0  0
   21.1397   -4.5435  -14.3712 O   0  0  0  0  0  0  0  0  0  0  0  0
  2  1  1  1
  3  2  1  0
  4  2  1  0
  4  5  1  1
  6  4  1  0
  6 14  1  0
  7  6  2  0
  9 10  2  0
  9  8  1  0
 11  9  1  0
 13 12  1  6
 12 11  1  0
 14 13  1  0
 15 16  2  0
 15 13  1  0
 17 15  1  0
 18 17  1  0
 18 26  1  0
 18 19  1  1
 20 25  2  0
 20 19  1  0
 21 20  1  0
 22 23  1  0
 22 21  2  0
 23 24  2  0
 24 25  1  0
 26 28  1  0
 27 26  2  0
M  END
$$$$
