TQF.pdb
     RDKit          3D

 28 28  0  0  1  0  0  0  0  0999 V2000
   23.8200  -26.4000  -15.5595 C   0  0  0  0  0  0  0  0  0  0  0  0
   22.4838  -25.7019  -15.6368 C   0  0  1  0  0  0  0  0  0  0  0  0
   21.5026  -26.2655  -14.8616 O   0  0  0  0  0  0  0  0  0  0  0  0
   22.6975  -24.2284  -15.3413 C   0  0  2  0  0  0  0  0  0  0  0  0
   21.3918  -23.5683  -15.4544 N   0  0  0  0  0  0  0  0  0  0  0  0
   23.6671  -23.6264  -16.2925 C   0  0  0  0  0  0  0  0  0  0  0  0
   23.2800  -22.8156  -17.1653 O   0  0  0  0  0  0  0  0  0  0  0  0
   27.9135  -20.4392  -15.2607 N   0  0  0  0  0  0  0  0  0  0  0  0
   27.7975  -20.2169  -16.6519 C   0  0  0  0  0  0  0  0  0  0  0  0
   28.6134  -19.4165  -17.1736 O   0  0  0  0  0  0  0  0  0  0  0  0
   26.7900  -20.8605  -17.5268 C   0  0  0  0  0  0  0  0  0  0  0  0
   25.8779  -21.7628  -16.7330 C   0  0  0  0  0  0  0  0  0  0  0  0
   26.0402  -23.2278  -17.0546 C   0  0  2  0  0  0  0  0  0  0  0  0
   25.0735  -23.9465  -16.2454 N   0  0  0  0  0  0  0  0  0  0  0  0
   27.3882  -23.7430  -16.8436 C   0  0  0  0  0  0  0  0  0  0  0  0
   27.9116  -23.9188  -15.7035 O   0  0  0  0  0  0  0  0  0  0  0  0
   28.2200  -24.0909  -17.9379 N   0  0  0  0  0  0  0  0  0  0  0  0
   29.4948  -24.8277  -17.7512 C   0  0  1  0  0  0  0  0  0  0  0  0
   29.3810  -26.1483  -18.5132 C   0  0  0  0  0  0  0  0  0  0  0  0
   28.5466  -27.0815  -17.7223 C   0  0  0  0  0  0  0  0  0  0  0  0
   29.0219  -27.8765  -16.7074 C   0  0  0  0  0  0  0  0  0  0  0  0
   28.1765  -28.7049  -16.0199 C   0  0  0  0  0  0  0  0  0  0  0  0
   26.8105  -28.8132  -16.2772 C   0  0  0  0  0  0  0  0  0  0  0  0
   26.3533  -27.9987  -17.3099 C   0  0  0  0  0  0  0  0  0  0  0  0
   27.1764  -27.1621  -18.0119 C   0  0  0  0  0  0  0  0  0  0  0  0
   30.5457  -24.0168  -18.3693 C   0  0  0  0  0  0  0  0  0  0  0  0
   30.2487  -23.0517  -19.1047 O   0  0  0  0  0  0  0  0  0  0  0  0
   31.8740  -24.3062  -18.1478 O   0  0  0  0  0  0  0  0  0  0  0  0
  2  1  1  1
  3  2  1  0
  4  2  1  0
  4  5  1  6
  6  4  1  0
  6 14  1  0
  7  6  2  0
  9 10  2  0
  9  8  1  0
 11  9  1  0
 13 12  1  1
 12 11  1  0
 14 13  1  0
 15 16  2  0
 15 13  1  0
 17 15  1  0
 18 17  1  0
 18 26  1  0
 18 19  1  6
 20 25  2  0
 20 19  1  0
 21 20  1  0
 22 23  1  0
 22 21  2  0
 23 24  2  0
 24 25  1  0
 26 28  1  0
 27 26  2  0
M  END
$$$$
