TQF.pdb
     RDKit          3D

 28 28  0  0  1  0  0  0  0  0999 V2000
   28.4361  -17.9392  -15.3444 C   0  0  0  0  0  0  0  0  0  0  0  0
   27.5175  -17.2351  -16.3135 C   0  0  1  0  0  0  0  0  0  0  0  0
   28.0229  -16.0697  -16.8309 O   0  0  0  0  0  0  0  0  0  0  0  0
   27.1035  -18.2274  -17.3851 C   0  0  2  0  0  0  0  0  0  0  0  0
   26.2760  -17.5003  -18.3546 N   0  0  0  0  0  0  0  0  0  0  0  0
   26.3419  -19.3609  -16.8001 C   0  0  0  0  0  0  0  0  0  0  0  0
   25.1937  -19.1803  -16.3330 O   0  0  0  0  0  0  0  0  0  0  0  0
   27.5042  -26.3974  -16.3012 N   0  0  0  0  0  0  0  0  0  0  0  0
   26.5081  -25.5217  -16.7903 C   0  0  0  0  0  0  0  0  0  0  0  0
   25.9817  -25.8127  -17.8934 O   0  0  0  0  0  0  0  0  0  0  0  0
   26.0466  -24.2980  -16.0944 C   0  0  0  0  0  0  0  0  0  0  0  0
   26.6757  -23.0634  -16.6914 C   0  0  0  0  0  0  0  0  0  0  0  0
   26.1894  -21.7743  -16.0766 C   0  0  2  0  0  0  0  0  0  0  0  0
   26.8877  -20.6960  -16.7512 N   0  0  0  0  0  0  0  0  0  0  0  0
   26.3688  -21.6932  -14.6315 C   0  0  0  0  0  0  0  0  0  0  0  0
   27.4892  -21.7879  -14.0480 O   0  0  0  0  0  0  0  0  0  0  0  0
   25.2640  -21.4953  -13.7652 N   0  0  0  0  0  0  0  0  0  0  0  0
   25.4232  -21.4401  -12.2906 C   0  0  1  0  0  0  0  0  0  0  0  0
   26.4396  -20.3420  -11.9764 C   0  0  0  0  0  0  0  0  0  0  0  0
   26.5342  -20.1903  -10.5065 C   0  0  0  0  0  0  0  0  0  0  0  0
   27.1546  -21.0891   -9.6727 C   0  0  0  0  0  0  0  0  0  0  0  0
   27.2044  -20.8649   -8.3233 C   0  0  0  0  0  0  0  0  0  0  0  0
   26.6516  -19.7485   -7.6972 C   0  0  0  0  0  0  0  0  0  0  0  0
   26.0282  -18.8533   -8.5627 C   0  0  0  0  0  0  0  0  0  0  0  0
   25.9649  -19.0533   -9.9141 C   0  0  0  0  0  0  0  0  0  0  0  0
   24.1237  -21.0502  -11.7398 C   0  0  0  0  0  0  0  0  0  0  0  0
   23.9411  -21.0314  -10.5042 O   0  0  0  0  0  0  0  0  0  0  0  0
   23.0868  -20.6988  -12.5756 O   0  0  0  0  0  0  0  0  0  0  0  0
  2  1  1  1
  3  2  1  0
  4  2  1  0
  4  5  1  6
  6  4  1  0
  6 14  1  0
  7  6  2  0
  9 10  2  0
  9  8  1  0
 11  9  1  0
 13 12  1  6
 12 11  1  0
 14 13  1  0
 15 16  2  0
 15 13  1  0
 17 15  1  0
 18 17  1  0
 18 26  1  0
 18 19  1  6
 20 25  2  0
 20 19  1  0
 21 20  1  0
 22 23  1  0
 22 21  2  0
 23 24  2  0
 24 25  1  0
 26 28  1  0
 27 26  2  0
M  END
$$$$
