TQF.pdb
     RDKit          3D

 28 28  0  0  1  0  0  0  0  0999 V2000
   24.6914  -34.1427  -10.6892 C   0  0  0  0  0  0  0  0  0  0  0  0
   23.8814  -35.2215  -11.3666 C   0  0  1  0  0  0  0  0  0  0  0  0
   23.8463  -35.1310  -12.7348 O   0  0  0  0  0  0  0  0  0  0  0  0
   24.3770  -36.5696  -10.8756 C   0  0  2  0  0  0  0  0  0  0  0  0
   23.5201  -37.5951  -11.4819 N   0  0  0  0  0  0  0  0  0  0  0  0
   24.3183  -36.6546   -9.3935 C   0  0  0  0  0  0  0  0  0  0  0  0
   23.2585  -36.9943   -8.8187 O   0  0  0  0  0  0  0  0  0  0  0  0
   28.8853  -37.9828   -5.1003 N   0  0  0  0  0  0  0  0  0  0  0  0
   27.6951  -37.3527   -4.6707 C   0  0  0  0  0  0  0  0  0  0  0  0
   27.8065  -36.4469   -3.8072 O   0  0  0  0  0  0  0  0  0  0  0  0
   26.3395  -37.6843   -5.1679 C   0  0  0  0  0  0  0  0  0  0  0  0
   26.2599  -37.5386   -6.6675 C   0  0  0  0  0  0  0  0  0  0  0  0
   25.3888  -36.3939   -7.1226 C   0  0  2  0  0  0  0  0  0  0  0  0
   25.4659  -36.3558   -8.5711 N   0  0  0  0  0  0  0  0  0  0  0  0
   25.7429  -35.1030   -6.5436 C   0  0  0  0  0  0  0  0  0  0  0  0
   26.8110  -34.4749   -6.8068 O   0  0  0  0  0  0  0  0  0  0  0  0
   24.8836  -34.4518   -5.6227 N   0  0  0  0  0  0  0  0  0  0  0  0
   25.2093  -33.1210   -5.0519 C   0  0  1  0  0  0  0  0  0  0  0  0
   23.9728  -32.2356   -5.2095 C   0  0  0  0  0  0  0  0  0  0  0  0
   23.8014  -31.9119   -6.6442 C   0  0  0  0  0  0  0  0  0  0  0  0
   23.0602  -32.6622   -7.5250 C   0  0  0  0  0  0  0  0  0  0  0  0
   22.9466  -32.2836   -8.8355 C   0  0  0  0  0  0  0  0  0  0  0  0
   23.5491  -31.1475   -9.3743 C   0  0  0  0  0  0  0  0  0  0  0  0
   24.2948  -30.4047   -8.4626 C   0  0  0  0  0  0  0  0  0  0  0  0
   24.4240  -30.7605   -7.1484 C   0  0  0  0  0  0  0  0  0  0  0  0
   25.4636  -33.3246   -3.6244 C   0  0  0  0  0  0  0  0  0  0  0  0
   25.2794  -34.4448   -3.1033 O   0  0  0  0  0  0  0  0  0  0  0  0
   25.9094  -32.2853   -2.8381 O   0  0  0  0  0  0  0  0  0  0  0  0
  2  1  1  6
  3  2  1  0
  4  2  1  0
  4  5  1  6
  6  4  1  0
  6 14  1  0
  7  6  2  0
  9 10  2  0
  9  8  1  0
 11  9  1  0
 13 12  1  1
 12 11  1  0
 14 13  1  0
 15 16  2  0
 15 13  1  0
 17 15  1  0
 18 17  1  0
 18 26  1  0
 18 19  1  1
 20 25  2  0
 20 19  1  0
 21 20  1  0
 22 23  1  0
 22 21  2  0
 23 24  2  0
 24 25  1  0
 26 28  1  0
 27 26  2  0
M  END
$$$$
