TQF.pdb
     RDKit          3D

 28 28  0  0  1  0  0  0  0  0999 V2000
   22.7442  -12.1888  -15.7657 C   0  0  0  0  0  0  0  0  0  0  0  0
   21.9764  -12.7045  -16.9587 C   0  0  1  0  0  0  0  0  0  0  0  0
   22.1124  -14.0508  -17.1832 O   0  0  0  0  0  0  0  0  0  0  0  0
   20.5283  -12.2718  -16.8175 C   0  0  2  0  0  0  0  0  0  0  0  0
   19.7964  -12.8214  -17.9645 N   0  0  0  0  0  0  0  0  0  0  0  0
   20.4120  -10.7909  -16.7892 C   0  0  0  0  0  0  0  0  0  0  0  0
   20.6136  -10.1185  -17.8266 O   0  0  0  0  0  0  0  0  0  0  0  0
   15.8900   -7.6515  -14.4140 N   0  0  0  0  0  0  0  0  0  0  0  0
   16.1824   -8.1046  -15.7207 C   0  0  0  0  0  0  0  0  0  0  0  0
   15.2121   -8.2569  -16.5042 O   0  0  0  0  0  0  0  0  0  0  0  0
   17.5431   -8.4059  -16.2232 C   0  0  0  0  0  0  0  0  0  0  0  0
   18.5671   -8.2921  -15.1210 C   0  0  0  0  0  0  0  0  0  0  0  0
   19.9707   -8.6330  -15.5564 C   0  0  2  0  0  0  0  0  0  0  0  0
   20.0640  -10.0808  -15.5820 N   0  0  0  0  0  0  0  0  0  0  0  0
   21.0160   -8.0540  -14.7202 C   0  0  0  0  0  0  0  0  0  0  0  0
   21.3454   -8.5021  -13.5821 O   0  0  0  0  0  0  0  0  0  0  0  0
   21.7512   -6.9189  -15.1460 N   0  0  0  0  0  0  0  0  0  0  0  0
   22.8520   -6.3463  -14.3316 C   0  0  1  0  0  0  0  0  0  0  0  0
   24.0828   -6.2345  -15.2318 C   0  0  0  0  0  0  0  0  0  0  0  0
   24.5023   -7.5969  -15.6324 C   0  0  0  0  0  0  0  0  0  0  0  0
   25.2581   -8.4367  -14.8503 C   0  0  0  0  0  0  0  0  0  0  0  0
   25.5931   -9.6868  -15.2959 C   0  0  0  0  0  0  0  0  0  0  0  0
   25.2132  -10.2009  -16.5350 C   0  0  0  0  0  0  0  0  0  0  0  0
   24.4492   -9.3313  -17.3090 C   0  0  0  0  0  0  0  0  0  0  0  0
   24.1004   -8.0780  -16.8873 C   0  0  0  0  0  0  0  0  0  0  0  0
   22.4312   -4.9995  -13.9402 C   0  0  0  0  0  0  0  0  0  0  0  0
   21.4010   -4.4918  -14.4313 O   0  0  0  0  0  0  0  0  0  0  0  0
   23.1643   -4.2757  -13.0259 O   0  0  0  0  0  0  0  0  0  0  0  0
  2  1  1  1
  3  2  1  0
  4  2  1  0
  4  5  1  6
  6  4  1  0
  6 14  1  0
  7  6  2  0
  9 10  2  0
  9  8  1  0
 11  9  1  0
 13 12  1  1
 12 11  1  0
 14 13  1  0
 15 16  2  0
 15 13  1  0
 17 15  1  0
 18 17  1  0
 18 26  1  0
 18 19  1  6
 20 25  2  0
 20 19  1  0
 21 20  1  0
 22 23  1  0
 22 21  2  0
 23 24  2  0
 24 25  1  0
 26 28  1  0
 27 26  2  0
M  END
$$$$
