TQF.pdb
     RDKit          3D

 28 28  0  0  1  0  0  0  0  0999 V2000
   26.5620  -16.5092  -18.0197 C   0  0  0  0  0  0  0  0  0  0  0  0
   25.5561  -17.4081  -17.3422 C   0  0  1  0  0  0  0  0  0  0  0  0
   24.2517  -17.0076  -17.4816 O   0  0  0  0  0  0  0  0  0  0  0  0
   25.7919  -18.8307  -17.8166 C   0  0  2  0  0  0  0  0  0  0  0  0
   25.4122  -18.8853  -19.2331 N   0  0  0  0  0  0  0  0  0  0  0  0
   24.9886  -19.7990  -17.0266 C   0  0  0  0  0  0  0  0  0  0  0  0
   23.8575  -20.1602  -17.4258 O   0  0  0  0  0  0  0  0  0  0  0  0
   24.6216  -24.5802  -15.0165 N   0  0  0  0  0  0  0  0  0  0  0  0
   24.4138  -24.1868  -13.6747 C   0  0  0  0  0  0  0  0  0  0  0  0
   23.8087  -24.9961  -12.9281 O   0  0  0  0  0  0  0  0  0  0  0  0
   24.8601  -22.8982  -13.0958 C   0  0  0  0  0  0  0  0  0  0  0  0
   25.5678  -22.0550  -14.1275 C   0  0  0  0  0  0  0  0  0  0  0  0
   24.6400  -21.2042  -14.9590 C   0  0  2  0  0  0  0  0  0  0  0  0
   25.4758  -20.3550  -15.7871 N   0  0  0  0  0  0  0  0  0  0  0  0
   23.6935  -20.4123  -14.1818 C   0  0  0  0  0  0  0  0  0  0  0  0
   24.0300  -19.5492  -13.3177 O   0  0  0  0  0  0  0  0  0  0  0  0
   22.2944  -20.5648  -14.3538 N   0  0  0  0  0  0  0  0  0  0  0  0
   21.3159  -19.8470  -13.4993 C   0  0  1  0  0  0  0  0  0  0  0  0
   20.2934  -19.1854  -14.4235 C   0  0  0  0  0  0  0  0  0  0  0  0
   19.2632  -18.5214  -13.5925 C   0  0  0  0  0  0  0  0  0  0  0  0
   19.4094  -17.2802  -13.0216 C   0  0  0  0  0  0  0  0  0  0  0  0
   18.3999  -16.7359  -12.2746 C   0  0  0  0  0  0  0  0  0  0  0  0
   17.1800  -17.3669  -12.0342 C   0  0  0  0  0  0  0  0  0  0  0  0
   17.0564  -18.6230  -12.6223 C   0  0  0  0  0  0  0  0  0  0  0  0
   18.0492  -19.1891  -13.3734 C   0  0  0  0  0  0  0  0  0  0  0  0
   20.6345  -20.8621  -12.6934 C   0  0  0  0  0  0  0  0  0  0  0  0
   20.4166  -21.9993  -13.1622 O   0  0  0  0  0  0  0  0  0  0  0  0
   20.2259  -20.5774  -11.4093 O   0  0  0  0  0  0  0  0  0  0  0  0
  2  1  1  6
  3  2  1  0
  4  2  1  0
  4  5  1  6
  6  4  1  0
  6 14  1  0
  7  6  2  0
  9 10  2  0
  9  8  1  0
 11  9  1  0
 13 12  1  1
 12 11  1  0
 14 13  1  0
 15 16  2  0
 15 13  1  0
 17 15  1  0
 18 17  1  0
 18 26  1  0
 18 19  1  6
 20 25  2  0
 20 19  1  0
 21 20  1  0
 22 23  1  0
 22 21  2  0
 23 24  2  0
 24 25  1  0
 26 28  1  0
 27 26  2  0
M  END
$$$$
