TQF.pdb
     RDKit          3D

 28 28  0  0  1  0  0  0  0  0999 V2000
   27.5733  -15.4841  -15.1329 C   0  0  0  0  0  0  0  0  0  0  0  0
   26.9740  -16.5201  -14.2130 C   0  0  1  0  0  0  0  0  0  0  0  0
   26.0265  -16.0329  -13.3492 O   0  0  0  0  0  0  0  0  0  0  0  0
   26.4656  -17.6730  -15.0596 C   0  0  2  0  0  0  0  0  0  0  0  0
   25.4387  -17.1329  -15.9580 N   0  0  0  0  0  0  0  0  0  0  0  0
   25.8969  -18.7512  -14.2104 C   0  0  0  0  0  0  0  0  0  0  0  0
   24.6562  -18.8829  -14.0982 O   0  0  0  0  0  0  0  0  0  0  0  0
   23.6121  -22.4729  -14.0112 N   0  0  0  0  0  0  0  0  0  0  0  0
   24.2709  -23.3185  -13.0897 C   0  0  0  0  0  0  0  0  0  0  0  0
   23.5910  -24.2383  -12.5697 O   0  0  0  0  0  0  0  0  0  0  0  0
   25.6955  -23.1952  -12.7025 C   0  0  0  0  0  0  0  0  0  0  0  0
   26.3454  -22.0193  -13.3890 C   0  0  0  0  0  0  0  0  0  0  0  0
   26.1794  -20.7147  -12.6497 C   0  0  2  0  0  0  0  0  0  0  0  0
   26.7410  -19.6772  -13.4945 N   0  0  0  0  0  0  0  0  0  0  0  0
   26.7837  -20.6958  -11.3224 C   0  0  0  0  0  0  0  0  0  0  0  0
   27.9968  -20.4083  -11.0978 O   0  0  0  0  0  0  0  0  0  0  0  0
   26.0240  -21.0063  -10.1662 N   0  0  0  0  0  0  0  0  0  0  0  0
   26.6217  -20.9927   -8.8077 C   0  0  1  0  0  0  0  0  0  0  0  0
   27.2750  -19.6254   -8.6041 C   0  0  0  0  0  0  0  0  0  0  0  0
   27.8502  -19.5733   -7.2407 C   0  0  0  0  0  0  0  0  0  0  0  0
   27.2637  -18.9331   -6.1757 C   0  0  0  0  0  0  0  0  0  0  0  0
   27.8612  -18.9432   -4.9443 C   0  0  0  0  0  0  0  0  0  0  0  0
   29.0715  -19.5786   -4.6697 C   0  0  0  0  0  0  0  0  0  0  0  0
   29.6462  -20.2192   -5.7645 C   0  0  0  0  0  0  0  0  0  0  0  0
   29.0700  -20.2246   -7.0047 C   0  0  0  0  0  0  0  0  0  0  0  0
   25.5157  -21.1319   -7.8583 C   0  0  0  0  0  0  0  0  0  0  0  0
   25.7422  -21.2218   -6.6332 O   0  0  0  0  0  0  0  0  0  0  0  0
   24.2124  -21.1651   -8.3027 O   0  0  0  0  0  0  0  0  0  0  0  0
  2  1  1  6
  3  2  1  0
  4  2  1  0
  4  5  1  6
  6  4  1  0
  6 14  1  0
  7  6  2  0
  9 10  2  0
  9  8  1  0
 11  9  1  0
 13 12  1  6
 12 11  1  0
 14 13  1  0
 15 16  2  0
 15 13  1  0
 17 15  1  0
 18 17  1  0
 18 26  1  0
 18 19  1  1
 20 25  2  0
 20 19  1  0
 21 20  1  0
 22 23  1  0
 22 21  2  0
 23 24  2  0
 24 25  1  0
 26 28  1  0
 27 26  2  0
M  END
$$$$
