TQF.pdb
     RDKit          3D

 28 28  0  0  1  0  0  0  0  0999 V2000
   20.5768  -11.9664  -14.9402 C   0  0  0  0  0  0  0  0  0  0  0  0
   20.8762  -12.8157  -16.1517 C   0  0  1  0  0  0  0  0  0  0  0  0
   20.6656  -14.1588  -15.9701 O   0  0  0  0  0  0  0  0  0  0  0  0
   20.1070  -12.2507  -17.3322 C   0  0  2  0  0  0  0  0  0  0  0  0
   20.4044  -13.1000  -18.4915 N   0  0  0  0  0  0  0  0  0  0  0  0
   20.5009  -10.8444  -17.6048 C   0  0  0  0  0  0  0  0  0  0  0  0
   21.6186  -10.5843  -18.1069 O   0  0  0  0  0  0  0  0  0  0  0  0
   16.7338   -6.1976  -19.3387 N   0  0  0  0  0  0  0  0  0  0  0  0
   17.9186   -5.5225  -18.9663 C   0  0  0  0  0  0  0  0  0  0  0  0
   17.9480   -4.2788  -19.1420 O   0  0  0  0  0  0  0  0  0  0  0  0
   19.1143   -6.1770  -18.3860 C   0  0  0  0  0  0  0  0  0  0  0  0
   18.8645   -7.6442  -18.1387 C   0  0  0  0  0  0  0  0  0  0  0  0
   20.0356   -8.3650  -17.5182 C   0  0  2  0  0  0  0  0  0  0  0  0
   19.6210   -9.7396  -17.3081 N   0  0  0  0  0  0  0  0  0  0  0  0
   20.5205   -7.7674  -16.2794 C   0  0  0  0  0  0  0  0  0  0  0  0
   19.9454   -7.8918  -15.1575 O   0  0  0  0  0  0  0  0  0  0  0  0
   21.7044   -6.9875  -16.2555 N   0  0  0  0  0  0  0  0  0  0  0  0
   22.2175   -6.3782  -15.0031 C   0  0  1  0  0  0  0  0  0  0  0  0
   23.7438   -6.3593  -15.0901 C   0  0  0  0  0  0  0  0  0  0  0  0
   24.2288   -7.7531  -15.2118 C   0  0  0  0  0  0  0  0  0  0  0  0
   24.9372   -8.2365  -16.2854 C   0  0  0  0  0  0  0  0  0  0  0  0
   25.3564   -9.5392  -16.3113 C   0  0  0  0  0  0  0  0  0  0  0  0
   25.1121  -10.4577  -15.2911 C   0  0  0  0  0  0  0  0  0  0  0  0
   24.3924   -9.9444  -14.2151 C   0  0  0  0  0  0  0  0  0  0  0  0
   23.9624   -8.6471  -14.1642 C   0  0  0  0  0  0  0  0  0  0  0  0
   21.7305   -4.9976  -14.9749 C   0  0  0  0  0  0  0  0  0  0  0  0
   21.9510   -4.2701  -13.9837 O   0  0  0  0  0  0  0  0  0  0  0  0
   21.0244   -4.4830  -16.0397 O   0  0  0  0  0  0  0  0  0  0  0  0
  2  1  1  1
  3  2  1  0
  4  2  1  0
  4  5  1  6
  6  4  1  0
  6 14  1  0
  7  6  2  0
  9 10  2  0
  9  8  1  0
 11  9  1  0
 13 12  1  1
 12 11  1  0
 14 13  1  0
 15 16  2  0
 15 13  1  0
 17 15  1  0
 18 17  1  0
 18 26  1  0
 18 19  1  6
 20 25  2  0
 20 19  1  0
 21 20  1  0
 22 23  1  0
 22 21  2  0
 23 24  2  0
 24 25  1  0
 26 28  1  0
 27 26  2  0
M  END
$$$$
