TQF.pdb
     RDKit          3D

 28 28  0  0  1  0  0  0  0  0999 V2000
   12.8564  -11.9078  -15.0217 C   0  0  0  0  0  0  0  0  0  0  0  0
   13.6746  -13.1523  -14.7756 C   0  0  1  0  0  0  0  0  0  0  0  0
   13.1557  -14.2929  -15.3333 O   0  0  0  0  0  0  0  0  0  0  0  0
   15.1028  -12.8781  -15.2107 C   0  0  2  0  0  0  0  0  0  0  0  0
   15.8674  -14.1120  -14.9957 N   0  0  0  0  0  0  0  0  0  0  0  0
   15.6943  -11.7590  -14.4329 C   0  0  0  0  0  0  0  0  0  0  0  0
   16.1019  -11.9449  -13.2631 O   0  0  0  0  0  0  0  0  0  0  0  0
   17.7221   -6.3194  -17.0974 N   0  0  0  0  0  0  0  0  0  0  0  0
   17.9162   -6.1299  -15.7101 C   0  0  0  0  0  0  0  0  0  0  0  0
   18.4196   -5.0377  -15.3464 O   0  0  0  0  0  0  0  0  0  0  0  0
   17.5665   -7.1222  -14.6672 C   0  0  0  0  0  0  0  0  0  0  0  0
   16.9126   -8.3396  -15.2728 C   0  0  0  0  0  0  0  0  0  0  0  0
   16.4767   -9.3657  -14.2564 C   0  0  2  0  0  0  0  0  0  0  0  0
   15.8229  -10.4337  -14.9895 N   0  0  0  0  0  0  0  0  0  0  0  0
   15.6096   -8.8412  -13.2076 C   0  0  0  0  0  0  0  0  0  0  0  0
   14.3689   -8.6291  -13.3510 O   0  0  0  0  0  0  0  0  0  0  0  0
   16.1197   -8.5287  -11.9221 N   0  0  0  0  0  0  0  0  0  0  0  0
   15.2775   -7.8968  -10.8760 C   0  0  1  0  0  0  0  0  0  0  0  0
   15.4472   -8.7102   -9.5926 C   0  0  0  0  0  0  0  0  0  0  0  0
   14.6619   -8.0654   -8.5155 C   0  0  0  0  0  0  0  0  0  0  0  0
   15.1824   -7.1868   -7.5962 C   0  0  0  0  0  0  0  0  0  0  0  0
   14.3805   -6.6281   -6.6379 C   0  0  0  0  0  0  0  0  0  0  0  0
   13.0168   -6.8898   -6.5123 C   0  0  0  0  0  0  0  0  0  0  0  0
   12.5133   -7.7831   -7.4544 C   0  0  0  0  0  0  0  0  0  0  0  0
   13.2925   -8.3548   -8.4221 C   0  0  0  0  0  0  0  0  0  0  0  0
   15.8152   -6.5527  -10.6560 C   0  0  0  0  0  0  0  0  0  0  0  0
   17.0333   -6.3258  -10.8145 O   0  0  0  0  0  0  0  0  0  0  0  0
   14.9862   -5.5218  -10.2724 O   0  0  0  0  0  0  0  0  0  0  0  0
  2  1  1  6
  3  2  1  0
  4  2  1  0
  4  5  1  1
  6  4  1  0
  6 14  1  0
  7  6  2  0
  9 10  2  0
  9  8  1  0
 11  9  1  0
 13 12  1  6
 12 11  1  0
 14 13  1  0
 15 16  2  0
 15 13  1  0
 17 15  1  0
 18 17  1  0
 18 26  1  0
 18 19  1  1
 20 25  2  0
 20 19  1  0
 21 20  1  0
 22 23  1  0
 22 21  2  0
 23 24  2  0
 24 25  1  0
 26 28  1  0
 27 26  2  0
M  END
$$$$
