KAW.pdb
     RDKit          3D

 29 30  0  0  1  0  0  0  0  0999 V2000
    9.6155  -15.3153   18.6251 N   0  0  0  0  0  0  0  0  0  0  0  0
    8.9739  -14.5313   19.6439 C   0  0  1  0  0  0  0  0  0  0  0  0
    7.6433  -14.0018   19.1984 C   0  0  0  0  0  0  0  0  0  0  0  0
    7.4016  -14.2019   17.7229 C   0  0  0  0  0  0  0  0  0  0  0  0
    8.3361  -13.4125   16.8627 C   0  0  0  0  0  0  0  0  0  0  0  0
    7.9254  -13.6757   15.4104 C   0  0  0  0  0  0  0  0  0  0  0  0
    8.8052  -12.9787   14.5006 N   0  0  0  0  0  0  0  0  0  0  0  0
    8.7462  -15.3205   20.8921 C   0  0  0  0  0  0  0  0  0  0  0  0
    8.0643  -14.8408   21.8320 O   0  0  0  0  0  0  0  0  0  0  0  0
    9.5433  -18.8077   22.1878 C   0  0  0  0  0  0  0  0  0  0  0  0
    9.1699  -17.3691   22.2964 C   0  0  2  0  0  0  0  0  0  0  0  0
    9.2744  -16.6222   21.0803 N   0  0  0  0  0  0  0  0  0  0  0  0
    9.8875  -16.6969   23.4292 C   0  0  0  0  0  0  0  0  0  0  0  0
   10.9271  -16.0579   23.1788 O   0  0  0  0  0  0  0  0  0  0  0  0
    9.4359  -16.7583   24.7588 N   0  0  0  0  0  0  0  0  0  0  0  0
   10.2364  -16.3942   25.9071 C   0  0  1  0  0  0  0  0  0  0  0  0
    9.8238  -15.0226   26.4001 C   0  0  0  0  0  0  0  0  0  0  0  0
    8.3759  -14.8105   26.3545 C   0  0  0  0  0  0  0  0  0  0  0  0
    7.3677  -15.7475   26.2553 C   0  0  0  0  0  0  0  0  0  0  0  0
    6.1856  -15.0813   26.2475 N   0  0  0  0  0  0  0  0  0  0  0  0
    6.3810  -13.7663   26.3363 C   0  0  0  0  0  0  0  0  0  0  0  0
    5.5130  -12.7118   26.3656 C   0  0  0  0  0  0  0  0  0  0  0  0
    5.9927  -11.4222   26.4649 C   0  0  0  0  0  0  0  0  0  0  0  0
    7.3601  -11.2506   26.5319 C   0  0  0  0  0  0  0  0  0  0  0  0
    8.2551  -12.2972   26.5043 C   0  0  0  0  0  0  0  0  0  0  0  0
    7.7429  -13.5836   26.4038 C   0  0  0  0  0  0  0  0  0  0  0  0
   10.2044  -17.4061   26.9686 C   0  0  0  0  0  0  0  0  0  0  0  0
    9.4902  -18.4379   26.9386 O   0  0  0  0  0  0  0  0  0  0  0  0
   11.0111  -17.2263   28.0878 O   0  0  0  0  0  0  0  0  0  0  0  0
  2  1  1  6
  2  8  1  0
  3  2  1  0
  4  3  1  0
  4  5  1  0
  6  5  1  0
  7  6  1  0
  8  9  2  0
 11 10  1  6
 11 13  1  0
 12  8  1  0
 12 11  1  0
 13 15  1  0
 13 14  2  0
 15 16  1  0
 16 27  1  0
 16 17  1  1
 18 19  2  0
 18 17  1  0
 20 19  1  0
 21 26  2  0
 21 20  1  0
 22 21  1  0
 23 22  2  0
 23 24  1  0
 24 25  2  0
 25 26  1  0
 26 18  1  0
 27 28  2  0
 27 29  1  0
M  END
$$$$
