KAW.pdb
     RDKit          3D

 29 30  0  0  1  0  0  0  0  0999 V2000
    6.0056  -15.5285   19.9747 N   0  0  0  0  0  0  0  0  0  0  0  0
    7.3566  -15.2700   20.3900 C   0  0  1  0  0  0  0  0  0  0  0  0
    7.5924  -13.8178   20.6815 C   0  0  0  0  0  0  0  0  0  0  0  0
    7.5716  -12.9637   19.4383 C   0  0  0  0  0  0  0  0  0  0  0  0
    8.5719  -13.3943   18.4135 C   0  0  0  0  0  0  0  0  0  0  0  0
    8.3320  -12.5274   17.1733 C   0  0  0  0  0  0  0  0  0  0  0  0
    9.2839  -12.8522   16.1360 N   0  0  0  0  0  0  0  0  0  0  0  0
    7.7167  -16.0376   21.6203 C   0  0  0  0  0  0  0  0  0  0  0  0
    7.0658  -15.8773   22.6828 O   0  0  0  0  0  0  0  0  0  0  0  0
    9.9604  -18.9612   22.5035 C   0  0  0  0  0  0  0  0  0  0  0  0
    9.1341  -17.7563   22.7974 C   0  0  2  0  0  0  0  0  0  0  0  0
    8.7869  -16.9663   21.6559 N   0  0  0  0  0  0  0  0  0  0  0  0
    9.7395  -16.9253   23.8896 C   0  0  0  0  0  0  0  0  0  0  0  0
   10.5323  -16.0171   23.5760 O   0  0  0  0  0  0  0  0  0  0  0  0
    9.4493  -17.1289   25.2498 N   0  0  0  0  0  0  0  0  0  0  0  0
   10.3032  -16.7018   26.3363 C   0  0  1  0  0  0  0  0  0  0  0  0
    9.7505  -15.4311   26.9479 C   0  0  0  0  0  0  0  0  0  0  0  0
    8.3909  -15.1250   26.4988 C   0  0  0  0  0  0  0  0  0  0  0  0
    7.4049  -15.9921   26.0746 C   0  0  0  0  0  0  0  0  0  0  0  0
    6.3133  -15.2512   25.7575 N   0  0  0  0  0  0  0  0  0  0  0  0
    6.5458  -13.9543   25.9555 C   0  0  0  0  0  0  0  0  0  0  0  0
    5.7649  -12.8471   25.7807 C   0  0  0  0  0  0  0  0  0  0  0  0
    6.2647  -11.5942   26.0691 C   0  0  0  0  0  0  0  0  0  0  0  0
    7.5619  -11.5128   26.5322 C   0  0  0  0  0  0  0  0  0  0  0  0
    8.3687  -12.6139   26.7167 C   0  0  0  0  0  0  0  0  0  0  0  0
    7.8382  -13.8616   26.4180 C   0  0  0  0  0  0  0  0  0  0  0  0
   10.5272  -17.7543   27.3331 C   0  0  0  0  0  0  0  0  0  0  0  0
    9.9395  -18.8634   27.3325 O   0  0  0  0  0  0  0  0  0  0  0  0
   11.4467  -17.5250   28.3519 O   0  0  0  0  0  0  0  0  0  0  0  0
  2  1  1  1
  2  8  1  0
  3  2  1  0
  4  3  1  0
  4  5  1  0
  6  5  1  0
  7  6  1  0
  8  9  2  0
 11 10  1  6
 11 13  1  0
 12  8  1  0
 12 11  1  0
 13 15  1  0
 13 14  2  0
 15 16  1  0
 16 27  1  0
 16 17  1  1
 18 19  2  0
 18 17  1  0
 20 19  1  0
 21 26  2  0
 21 20  1  0
 22 21  1  0
 23 22  2  0
 23 24  1  0
 24 25  2  0
 25 26  1  0
 26 18  1  0
 27 28  2  0
 27 29  1  0
M  END
$$$$
