KAW.pdb
     RDKit          3D

 29 30  0  0  1  0  0  0  0  0999 V2000
    6.1148  -20.6489   19.6533 N   0  0  0  0  0  0  0  0  0  0  0  0
    6.9760  -21.0952   20.7133 C   0  0  1  0  0  0  0  0  0  0  0  0
    8.3931  -21.2739   20.2555 C   0  0  0  0  0  0  0  0  0  0  0  0
    8.9456  -20.0442   19.5789 C   0  0  0  0  0  0  0  0  0  0  0  0
   10.3149  -20.2500   19.0141 C   0  0  0  0  0  0  0  0  0  0  0  0
   10.7838  -18.8890   18.4900 C   0  0  0  0  0  0  0  0  0  0  0  0
   12.1214  -18.9862   17.9526 N   0  0  0  0  0  0  0  0  0  0  0  0
    6.9933  -20.1345   21.8576 C   0  0  0  0  0  0  0  0  0  0  0  0
    6.8934  -18.8992   21.6520 O   0  0  0  0  0  0  0  0  0  0  0  0
    7.0659  -20.3297   25.6596 C   0  0  0  0  0  0  0  0  0  0  0  0
    7.1575  -19.6669   24.3279 C   0  0  2  0  0  0  0  0  0  0  0  0
    7.1205  -20.5538   23.2056 N   0  0  0  0  0  0  0  0  0  0  0  0
    8.3237  -18.7259   24.2592 C   0  0  0  0  0  0  0  0  0  0  0  0
    9.3272  -19.0693   23.6059 O   0  0  0  0  0  0  0  0  0  0  0  0
    8.3304  -17.4751   24.9005 N   0  0  0  0  0  0  0  0  0  0  0  0
    9.4314  -16.5388   24.8449 C   0  0  1  0  0  0  0  0  0  0  0  0
    8.9172  -15.1728   24.4397 C   0  0  0  0  0  0  0  0  0  0  0  0
    7.7026  -14.7830   25.1584 C   0  0  0  0  0  0  0  0  0  0  0  0
    6.5942  -15.5474   25.4607 C   0  0  0  0  0  0  0  0  0  0  0  0
    5.7215  -14.7581   26.1365 N   0  0  0  0  0  0  0  0  0  0  0  0
    6.2105  -13.5276   26.2843 C   0  0  0  0  0  0  0  0  0  0  0  0
    5.7066  -12.4081   26.8836 C   0  0  0  0  0  0  0  0  0  0  0  0
    6.4382  -11.2387   26.8937 C   0  0  0  0  0  0  0  0  0  0  0  0
    7.6757  -11.2518   26.2835 C   0  0  0  0  0  0  0  0  0  0  0  0
    8.2052  -12.3672   25.6730 C   0  0  0  0  0  0  0  0  0  0  0  0
    7.4458  -13.5294   25.6787 C   0  0  0  0  0  0  0  0  0  0  0  0
   10.2104  -16.5003   26.0872 C   0  0  0  0  0  0  0  0  0  0  0  0
    9.8388  -17.0162   27.1695 O   0  0  0  0  0  0  0  0  0  0  0  0
   11.4428  -15.8543   26.0835 O   0  0  0  0  0  0  0  0  0  0  0  0
  2  1  1  6
  2  8  1  0
  3  2  1  0
  4  3  1  0
  4  5  1  0
  6  5  1  0
  7  6  1  0
  8  9  2  0
 11 10  1  1
 11 13  1  0
 12  8  1  0
 12 11  1  0
 13 15  1  0
 13 14  2  0
 15 16  1  0
 16 27  1  0
 16 17  1  1
 18 19  2  0
 18 17  1  0
 20 19  1  0
 21 26  2  0
 21 20  1  0
 22 21  1  0
 23 22  2  0
 23 24  1  0
 24 25  2  0
 25 26  1  0
 26 18  1  0
 27 28  2  0
 27 29  1  0
M  END
$$$$
