KAW.pdb
     RDKit          3D

 29 30  0  0  1  0  0  0  0  0999 V2000
    6.9180  -19.0392   20.0977 N   0  0  0  0  0  0  0  0  0  0  0  0
    8.2349  -18.7267   19.6155 C   0  0  1  0  0  0  0  0  0  0  0  0
    8.3571  -18.9210   18.1334 C   0  0  0  0  0  0  0  0  0  0  0  0
    7.6367  -20.1536   17.6466 C   0  0  0  0  0  0  0  0  0  0  0  0
    7.6723  -20.3056   16.1593 C   0  0  0  0  0  0  0  0  0  0  0  0
    6.7617  -21.4888   15.8161 C   0  0  0  0  0  0  0  0  0  0  0  0
    6.7611  -21.7314   14.3918 N   0  0  0  0  0  0  0  0  0  0  0  0
    8.6155  -17.3130   19.9143 C   0  0  0  0  0  0  0  0  0  0  0  0
    9.7593  -16.8863   19.6175 O   0  0  0  0  0  0  0  0  0  0  0  0
    6.9130  -14.1151   20.9823 C   0  0  0  0  0  0  0  0  0  0  0  0
    8.0682  -15.0510   20.8799 C   0  0  2  0  0  0  0  0  0  0  0  0
    7.7287  -16.3975   20.5343 N   0  0  0  0  0  0  0  0  0  0  0  0
    8.9382  -14.9891   22.1003 C   0  0  0  0  0  0  0  0  0  0  0  0
    9.6466  -13.9795   22.2750 O   0  0  0  0  0  0  0  0  0  0  0  0
    8.9866  -16.0215   23.0529 N   0  0  0  0  0  0  0  0  0  0  0  0
    9.8419  -16.0122   24.2193 C   0  0  1  0  0  0  0  0  0  0  0  0
    9.5131  -14.8108   25.0812 C   0  0  0  0  0  0  0  0  0  0  0  0
    8.0988  -14.7449   25.4543 C   0  0  0  0  0  0  0  0  0  0  0  0
    7.1343  -15.7277   25.3640 C   0  0  0  0  0  0  0  0  0  0  0  0
    5.9703  -15.2061   25.8266 N   0  0  0  0  0  0  0  0  0  0  0  0
    6.1357  -13.9406   26.2091 C   0  0  0  0  0  0  0  0  0  0  0  0
    5.2704  -13.0214   26.7312 C   0  0  0  0  0  0  0  0  0  0  0  0
    5.7134  -11.7536   27.0462 C   0  0  0  0  0  0  0  0  0  0  0  0
    7.0423  -11.4632   26.8146 C   0  0  0  0  0  0  0  0  0  0  0  0
    7.9339  -12.3724   26.2895 C   0  0  0  0  0  0  0  0  0  0  0  0
    7.4590  -13.6403   25.9823 C   0  0  0  0  0  0  0  0  0  0  0  0
    9.7965  -17.2717   24.9697 C   0  0  0  0  0  0  0  0  0  0  0  0
   10.4756  -17.5045   25.9995 O   0  0  0  0  0  0  0  0  0  0  0  0
    8.9521  -18.2844   24.5254 O   0  0  0  0  0  0  0  0  0  0  0  0
  2  1  1  6
  2  8  1  0
  3  2  1  0
  4  3  1  0
  4  5  1  0
  6  5  1  0
  7  6  1  0
  8  9  2  0
 11 10  1  1
 11 13  1  0
 12  8  1  0
 12 11  1  0
 13 15  1  0
 13 14  2  0
 15 16  1  0
 16 27  1  0
 16 17  1  1
 18 19  2  0
 18 17  1  0
 20 19  1  0
 21 26  2  0
 21 20  1  0
 22 21  1  0
 23 22  2  0
 23 24  1  0
 24 25  2  0
 25 26  1  0
 26 18  1  0
 27 28  2  0
 27 29  1  0
M  END
$$$$
