KAW.pdb
     RDKit          3D

 29 30  0  0  1  0  0  0  0  0999 V2000
    6.5644  -16.8096   20.4316 N   0  0  0  0  0  0  0  0  0  0  0  0
    7.9066  -16.4549   20.8017 C   0  0  1  0  0  0  0  0  0  0  0  0
    8.1059  -14.9694   20.8573 C   0  0  0  0  0  0  0  0  0  0  0  0
    8.0991  -14.3296   19.4912 C   0  0  0  0  0  0  0  0  0  0  0  0
    8.3365  -12.8538   19.5329 C   0  0  0  0  0  0  0  0  0  0  0  0
    8.2954  -12.3605   18.0831 C   0  0  0  0  0  0  0  0  0  0  0  0
    8.5396  -10.9376   18.0247 N   0  0  0  0  0  0  0  0  0  0  0  0
    8.2789  -17.0066   22.1394 C   0  0  0  0  0  0  0  0  0  0  0  0
    7.4129  -17.1234   23.0422 O   0  0  0  0  0  0  0  0  0  0  0  0
   11.0825  -19.0187   23.6005 C   0  0  0  0  0  0  0  0  0  0  0  0
    9.9804  -18.0202   23.6968 C   0  0  2  0  0  0  0  0  0  0  0  0
    9.5975  -17.4184   22.4563 N   0  0  0  0  0  0  0  0  0  0  0  0
   10.2574  -16.9934   24.7547 C   0  0  0  0  0  0  0  0  0  0  0  0
   10.8430  -15.9441   24.4263 O   0  0  0  0  0  0  0  0  0  0  0  0
    9.8838  -17.1663   26.0987 N   0  0  0  0  0  0  0  0  0  0  0  0
   10.2290  -16.2498   27.1630 C   0  0  1  0  0  0  0  0  0  0  0  0
    8.9893  -15.9123   27.9653 C   0  0  0  0  0  0  0  0  0  0  0  0
    7.9097  -15.3607   27.1442 C   0  0  0  0  0  0  0  0  0  0  0  0
    6.8416  -16.0163   26.5668 C   0  0  0  0  0  0  0  0  0  0  0  0
    6.1048  -15.0938   25.8981 N   0  0  0  0  0  0  0  0  0  0  0  0
    6.6428  -13.8805   26.0154 C   0  0  0  0  0  0  0  0  0  0  0  0
    6.2668  -12.6612   25.5274 C   0  0  0  0  0  0  0  0  0  0  0  0
    7.0213  -11.5406   25.8064 C   0  0  0  0  0  0  0  0  0  0  0  0
    8.1489  -11.7048   26.5844 C   0  0  0  0  0  0  0  0  0  0  0  0
    8.5485  -12.9230   27.0880 C   0  0  0  0  0  0  0  0  0  0  0  0
    7.7693  -14.0328   26.7904 C   0  0  0  0  0  0  0  0  0  0  0  0
   11.3266  -16.7395   28.0038 C   0  0  0  0  0  0  0  0  0  0  0  0
   11.8510  -16.0802   28.9344 O   0  0  0  0  0  0  0  0  0  0  0  0
   11.8311  -18.0147   27.7684 O   0  0  0  0  0  0  0  0  0  0  0  0
  2  1  1  1
  2  8  1  0
  3  2  1  0
  4  3  1  0
  4  5  1  0
  6  5  1  0
  7  6  1  0
  8  9  2  0
 11 10  1  6
 11 13  1  0
 12  8  1  0
 12 11  1  0
 13 15  1  0
 13 14  2  0
 15 16  1  0
 16 27  1  0
 16 17  1  1
 18 19  2  0
 18 17  1  0
 20 19  1  0
 21 26  2  0
 21 20  1  0
 22 21  1  0
 23 22  2  0
 23 24  1  0
 24 25  2  0
 25 26  1  0
 26 18  1  0
 27 28  2  0
 27 29  1  0
M  END
$$$$
