KAW.pdb
     RDKit          3D

 29 30  0  0  1  0  0  0  0  0999 V2000
   10.6418  -17.2031   19.3665 N   0  0  0  0  0  0  0  0  0  0  0  0
   10.5776  -16.2244   20.4166 C   0  0  1  0  0  0  0  0  0  0  0  0
    9.2483  -15.5316   20.4656 C   0  0  0  0  0  0  0  0  0  0  0  0
    8.9525  -14.7502   19.2097 C   0  0  0  0  0  0  0  0  0  0  0  0
    7.5465  -14.2441   19.1507 C   0  0  0  0  0  0  0  0  0  0  0  0
    7.4045  -13.4940   17.8224 C   0  0  0  0  0  0  0  0  0  0  0  0
    7.6065  -14.3922   16.7089 N   0  0  0  0  0  0  0  0  0  0  0  0
   10.8143  -16.8340   21.7601 C   0  0  0  0  0  0  0  0  0  0  0  0
   10.5407  -18.0426   21.9668 O   0  0  0  0  0  0  0  0  0  0  0  0
   12.4938  -15.8235   25.0135 C   0  0  0  0  0  0  0  0  0  0  0  0
   11.6109  -16.6507   24.1434 C   0  0  2  0  0  0  0  0  0  0  0  0
   11.3474  -16.1001   22.8491 N   0  0  0  0  0  0  0  0  0  0  0  0
   10.3484  -17.0426   24.8522 C   0  0  0  0  0  0  0  0  0  0  0  0
   10.4381  -17.6900   25.9126 O   0  0  0  0  0  0  0  0  0  0  0  0
    9.0707  -16.7098   24.3698 N   0  0  0  0  0  0  0  0  0  0  0  0
    7.8332  -17.1659   24.9636 C   0  0  1  0  0  0  0  0  0  0  0  0
    6.9327  -15.9789   25.2368 C   0  0  0  0  0  0  0  0  0  0  0  0
    7.3610  -15.1909   26.3941 C   0  0  0  0  0  0  0  0  0  0  0  0
    8.0682  -15.6017   27.5056 C   0  0  0  0  0  0  0  0  0  0  0  0
    8.2311  -14.5227   28.3120 N   0  0  0  0  0  0  0  0  0  0  0  0
    7.6662  -13.4408   27.7776 C   0  0  0  0  0  0  0  0  0  0  0  0
    7.5725  -12.1485   28.2104 C   0  0  0  0  0  0  0  0  0  0  0  0
    6.9178  -11.2068   27.4439 C   0  0  0  0  0  0  0  0  0  0  0  0
    6.3736  -11.6217   26.2458 C   0  0  0  0  0  0  0  0  0  0  0  0
    6.4549  -12.9183   25.7879 C   0  0  0  0  0  0  0  0  0  0  0  0
    7.1198  -13.8437   26.5810 C   0  0  0  0  0  0  0  0  0  0  0  0
    7.1685  -18.2047   24.1694 C   0  0  0  0  0  0  0  0  0  0  0  0
    6.0655  -18.7239   24.4683 O   0  0  0  0  0  0  0  0  0  0  0  0
    7.7866  -18.6552   23.0070 O   0  0  0  0  0  0  0  0  0  0  0  0
  2  1  1  6
  2  8  1  0
  3  2  1  0
  4  3  1  0
  4  5  1  0
  6  5  1  0
  7  6  1  0
  8  9  2  0
 11 10  1  1
 11 13  1  0
 12  8  1  0
 12 11  1  0
 13 15  1  0
 13 14  2  0
 15 16  1  0
 16 27  1  0
 16 17  1  6
 18 19  2  0
 18 17  1  0
 20 19  1  0
 21 26  2  0
 21 20  1  0
 22 21  1  0
 23 22  2  0
 23 24  1  0
 24 25  2  0
 25 26  1  0
 26 18  1  0
 27 28  2  0
 27 29  1  0
M  END
$$$$
