KAW.pdb
     RDKit          3D

 29 30  0  0  1  0  0  0  0  0999 V2000
    9.4045  -16.2096   19.2301 N   0  0  0  0  0  0  0  0  0  0  0  0
    9.0203  -15.2094   20.1875 C   0  0  1  0  0  0  0  0  0  0  0  0
    7.7362  -14.5305   19.8141 C   0  0  0  0  0  0  0  0  0  0  0  0
    7.5051  -14.5013   18.3237 C   0  0  0  0  0  0  0  0  0  0  0  0
    8.0101  -13.2518   17.6757 C   0  0  0  0  0  0  0  0  0  0  0  0
    7.6577  -13.3543   16.1883 C   0  0  0  0  0  0  0  0  0  0  0  0
    8.1731  -12.2144   15.4655 N   0  0  0  0  0  0  0  0  0  0  0  0
    8.8402  -15.7873   21.5536 C   0  0  0  0  0  0  0  0  0  0  0  0
    8.4003  -15.0765   22.4915 O   0  0  0  0  0  0  0  0  0  0  0  0
    9.2343  -19.1983   23.2073 C   0  0  0  0  0  0  0  0  0  0  0  0
    8.9871  -17.7297   23.1515 C   0  0  2  0  0  0  0  0  0  0  0  0
    9.1484  -17.1365   21.8594 N   0  0  0  0  0  0  0  0  0  0  0  0
    9.7670  -16.9988   24.2040 C   0  0  0  0  0  0  0  0  0  0  0  0
   10.8734  -16.5160   23.8965 O   0  0  0  0  0  0  0  0  0  0  0  0
    9.3014  -16.8366   25.5203 N   0  0  0  0  0  0  0  0  0  0  0  0
   10.1154  -16.3634   26.6182 C   0  0  1  0  0  0  0  0  0  0  0  0
    9.3731  -15.2784   27.3707 C   0  0  0  0  0  0  0  0  0  0  0  0
    8.0860  -14.9383   26.7610 C   0  0  0  0  0  0  0  0  0  0  0  0
    7.0427  -15.7749   26.4209 C   0  0  0  0  0  0  0  0  0  0  0  0
    6.0594  -15.0096   25.8838 N   0  0  0  0  0  0  0  0  0  0  0  0
    6.4156  -13.7259   25.8610 C   0  0  0  0  0  0  0  0  0  0  0  0
    5.7704  -12.6044   25.4227 C   0  0  0  0  0  0  0  0  0  0  0  0
    6.3814  -11.3714   25.5188 C   0  0  0  0  0  0  0  0  0  0  0  0
    7.6470  -11.3243   26.0663 C   0  0  0  0  0  0  0  0  0  0  0  0
    8.3179  -12.4404   26.5152 C   0  0  0  0  0  0  0  0  0  0  0  0
    7.6777  -13.6674   26.4055 C   0  0  0  0  0  0  0  0  0  0  0  0
   10.5721  -17.4453   27.4972 C   0  0  0  0  0  0  0  0  0  0  0  0
   10.1447  -18.6244   27.4456 O   0  0  0  0  0  0  0  0  0  0  0  0
   11.5407  -17.1639   28.4556 O   0  0  0  0  0  0  0  0  0  0  0  0
  2  1  1  6
  2  8  1  0
  3  2  1  0
  4  3  1  0
  4  5  1  0
  6  5  1  0
  7  6  1  0
  8  9  2  0
 11 10  1  6
 11 13  1  0
 12  8  1  0
 12 11  1  0
 13 15  1  0
 13 14  2  0
 15 16  1  0
 16 27  1  0
 16 17  1  1
 18 19  2  0
 18 17  1  0
 20 19  1  0
 21 26  2  0
 21 20  1  0
 22 21  1  0
 23 22  2  0
 23 24  1  0
 24 25  2  0
 25 26  1  0
 26 18  1  0
 27 28  2  0
 27 29  1  0
M  END
$$$$
