KAW.pdb
     RDKit          3D

 29 30  0  0  1  0  0  0  0  0999 V2000
   10.5745  -14.3061   18.3701 N   0  0  0  0  0  0  0  0  0  0  0  0
    9.3484  -13.9258   19.0154 C   0  0  1  0  0  0  0  0  0  0  0  0
    8.2052  -13.8291   18.0493 C   0  0  0  0  0  0  0  0  0  0  0  0
    8.5831  -14.2636   16.6551 C   0  0  0  0  0  0  0  0  0  0  0  0
    7.4524  -14.1617   15.6818 C   0  0  0  0  0  0  0  0  0  0  0  0
    7.9943  -14.6298   14.3274 C   0  0  0  0  0  0  0  0  0  0  0  0
    6.9544  -14.5924   13.3250 N   0  0  0  0  0  0  0  0  0  0  0  0
    8.9545  -14.8990   20.0786 C   0  0  0  0  0  0  0  0  0  0  0  0
    7.9440  -14.6848   20.7937 O   0  0  0  0  0  0  0  0  0  0  0  0
    9.8122  -18.4105   21.1502 C   0  0  0  0  0  0  0  0  0  0  0  0
    9.3912  -17.0021   21.3956 C   0  0  2  0  0  0  0  0  0  0  0  0
    9.6817  -16.0887   20.3331 N   0  0  0  0  0  0  0  0  0  0  0  0
    9.8907  -16.4995   22.7177 C   0  0  0  0  0  0  0  0  0  0  0  0
   10.7419  -15.5900   22.7251 O   0  0  0  0  0  0  0  0  0  0  0  0
    9.4386  -17.0117   23.9462 N   0  0  0  0  0  0  0  0  0  0  0  0
    9.8885  -16.5420   25.2380 C   0  0  1  0  0  0  0  0  0  0  0  0
    9.6022  -15.0603   25.3683 C   0  0  0  0  0  0  0  0  0  0  0  0
    8.1988  -14.7739   25.6718 C   0  0  0  0  0  0  0  0  0  0  0  0
    7.1042  -15.6077   25.5674 C   0  0  0  0  0  0  0  0  0  0  0  0
    6.0117  -14.9040   25.9576 N   0  0  0  0  0  0  0  0  0  0  0  0
    6.3463  -13.6626   26.3069 C   0  0  0  0  0  0  0  0  0  0  0  0
    5.6053  -12.6072   26.7579 C   0  0  0  0  0  0  0  0  0  0  0  0
    6.2173  -11.4066   27.0529 C   0  0  0  0  0  0  0  0  0  0  0  0
    7.5830  -11.3230   26.8752 C   0  0  0  0  0  0  0  0  0  0  0  0
    8.3516  -12.3724   26.4222 C   0  0  0  0  0  0  0  0  0  0  0  0
    7.7078  -13.5681   26.1335 C   0  0  0  0  0  0  0  0  0  0  0  0
    9.3370  -17.3212   26.3518 C   0  0  0  0  0  0  0  0  0  0  0  0
    8.3851  -18.1320   26.2426 O   0  0  0  0  0  0  0  0  0  0  0  0
    9.8928  -17.1633   27.6176 O   0  0  0  0  0  0  0  0  0  0  0  0
  2  1  1  6
  2  8  1  0
  3  2  1  0
  4  3  1  0
  4  5  1  0
  6  5  1  0
  7  6  1  0
  8  9  2  0
 11 10  1  6
 11 13  1  0
 12  8  1  0
 12 11  1  0
 13 15  1  0
 13 14  2  0
 15 16  1  0
 16 27  1  0
 16 17  1  1
 18 19  2  0
 18 17  1  0
 20 19  1  0
 21 26  2  0
 21 20  1  0
 22 21  1  0
 23 22  2  0
 23 24  1  0
 24 25  2  0
 25 26  1  0
 26 18  1  0
 27 28  2  0
 27 29  1  0
M  END
$$$$
