KAW.pdb
     RDKit          3D

 29 30  0  0  1  0  0  0  0  0999 V2000
    6.5795  -16.9353   22.0268 N   0  0  0  0  0  0  0  0  0  0  0  0
    7.9619  -16.6394   21.7698 C   0  0  1  0  0  0  0  0  0  0  0  0
    8.1829  -15.1891   21.4580 C   0  0  0  0  0  0  0  0  0  0  0  0
    7.3018  -14.6936   20.3383 C   0  0  0  0  0  0  0  0  0  0  0  0
    7.5277  -13.2529   20.0072 C   0  0  0  0  0  0  0  0  0  0  0  0
    7.9540  -13.2012   18.5366 C   0  0  0  0  0  0  0  0  0  0  0  0
    8.0979  -11.8320   18.0984 N   0  0  0  0  0  0  0  0  0  0  0  0
    8.8304  -16.9837   22.9359 C   0  0  0  0  0  0  0  0  0  0  0  0
    8.3631  -17.6274   23.9084 O   0  0  0  0  0  0  0  0  0  0  0  0
   12.5303  -17.3912   22.8646 C   0  0  0  0  0  0  0  0  0  0  0  0
   11.2254  -17.4222   23.5838 C   0  0  2  0  0  0  0  0  0  0  0  0
   10.1963  -16.6120   23.0076 N   0  0  0  0  0  0  0  0  0  0  0  0
   11.3966  -17.1507   25.0491 C   0  0  0  0  0  0  0  0  0  0  0  0
   12.3127  -17.7343   25.6590 O   0  0  0  0  0  0  0  0  0  0  0  0
   10.5674  -16.2665   25.7607 N   0  0  0  0  0  0  0  0  0  0  0  0
   10.7875  -15.8735   27.1351 C   0  0  1  0  0  0  0  0  0  0  0  0
   10.0531  -14.5792   27.4177 C   0  0  0  0  0  0  0  0  0  0  0  0
    8.7121  -14.5432   26.8311 C   0  0  0  0  0  0  0  0  0  0  0  0
    7.9333  -15.5933   26.3896 C   0  0  0  0  0  0  0  0  0  0  0  0
    6.7685  -15.0752   25.9247 N   0  0  0  0  0  0  0  0  0  0  0  0
    6.7578  -13.7483   26.0442 C   0  0  0  0  0  0  0  0  0  0  0  0
    5.8218  -12.8075   25.7201 C   0  0  0  0  0  0  0  0  0  0  0  0
    6.0719  -11.4715   25.9558 C   0  0  0  0  0  0  0  0  0  0  0  0
    7.2850  -11.1368   26.5218 C   0  0  0  0  0  0  0  0  0  0  0  0
    8.2442  -12.0665   26.8573 C   0  0  0  0  0  0  0  0  0  0  0  0
    7.9642  -13.4033   26.6083 C   0  0  0  0  0  0  0  0  0  0  0  0
   10.4490  -16.9323   28.0922 C   0  0  0  0  0  0  0  0  0  0  0  0
   10.5963  -16.8338   29.3348 O   0  0  0  0  0  0  0  0  0  0  0  0
    9.9304  -18.1295   27.6086 O   0  0  0  0  0  0  0  0  0  0  0  0
  2  1  1  1
  2  8  1  0
  3  2  1  0
  4  3  1  0
  4  5  1  0
  6  5  1  0
  7  6  1  0
  8  9  2  0
 11 10  1  6
 11 13  1  0
 12  8  1  0
 12 11  1  0
 13 15  1  0
 13 14  2  0
 15 16  1  0
 16 27  1  0
 16 17  1  1
 18 19  2  0
 18 17  1  0
 20 19  1  0
 21 26  2  0
 21 20  1  0
 22 21  1  0
 23 22  2  0
 23 24  1  0
 24 25  2  0
 25 26  1  0
 26 18  1  0
 27 28  2  0
 27 29  1  0
M  END
$$$$
