VVH.pdb
     RDKit          3D

 25 25  0  0  1  0  0  0  0  0999 V2000
   23.2246  -14.8828  -17.8656 C   0  0  0  0  0  0  0  0  0  0  0  0
   21.9071  -14.2448  -18.1692 C   0  0  2  0  0  0  0  0  0  0  0  0
   21.3401  -14.8395  -19.4294 C   0  0  0  0  0  0  0  0  0  0  0  0
   21.9716  -12.7469  -18.2791 C   0  0  2  0  0  0  0  0  0  0  0  0
   22.7884  -12.4364  -19.4393 N   0  0  0  0  0  0  0  0  0  0  0  0
   22.5588  -12.1171  -17.0703 C   0  0  0  0  0  0  0  0  0  0  0  0
   22.0212  -12.2506  -15.9415 O   0  0  0  0  0  0  0  0  0  0  0  0
   26.5066  -10.1022  -14.9474 C   0  0  0  0  0  0  0  0  0  0  0  0
   25.7997  -10.9045  -16.0133 C   0  0  1  0  0  0  0  0  0  0  0  0
   26.1279  -12.3716  -15.9329 C   0  0  0  0  0  0  0  0  0  0  0  0
   24.3007  -10.6555  -15.9831 C   0  0  2  0  0  0  0  0  0  0  0  0
   23.7454  -11.3414  -17.1348 N   0  0  0  0  0  0  0  0  0  0  0  0
   24.0639   -9.1895  -16.0587 C   0  0  0  0  0  0  0  0  0  0  0  0
   24.4736   -8.5251  -17.0408 O   0  0  0  0  0  0  0  0  0  0  0  0
   23.3752   -8.5150  -15.0309 N   0  0  0  0  0  0  0  0  0  0  0  0
   22.9965   -7.1232  -15.2343 C   0  0  1  0  0  0  0  0  0  0  0  0
   22.1730   -6.9587  -16.4702 C   0  0  0  0  0  0  0  0  0  0  0  0
   21.8642   -5.5367  -16.7016 C   0  0  0  0  0  0  0  0  0  0  0  0
   22.4596   -4.4000  -16.2126 C   0  0  0  0  0  0  0  0  0  0  0  0
   21.8342   -3.3011  -16.6624 N   0  0  0  0  0  0  0  0  0  0  0  0
   20.8321   -3.7192  -17.4435 C   0  0  0  0  0  0  0  0  0  0  0  0
   20.8385   -5.0662  -17.4761 N   0  0  0  0  0  0  0  0  0  0  0  0
   22.3410   -6.5669  -14.0418 C   0  0  0  0  0  0  0  0  0  0  0  0
   22.5622   -5.2478  -13.6095 O   0  0  0  0  0  0  0  0  0  0  0  0
   21.5559   -7.2411  -13.3563 O   0  0  0  0  0  0  0  0  0  0  0  0
  2  1  1  6
  2  3  1  0
  4  2  1  0
  4  5  1  6
  6 12  1  0
  6  4  1  0
  7  6  2  0
  9 11  1  0
  9  8  1  1
 10  9  1  0
 11 12  1  6
 13 11  1  0
 14 13  2  0
 15 13  1  0
 16 15  1  0
 16 17  1  6
 18 17  1  0
 18 22  1  0
 19 20  1  0
 19 18  2  0
 20 21  1  0
 21 22  2  0
 23 16  1  0
 23 24  1  0
 25 23  2  0
M  END
$$$$
