VVH.pdb
     RDKit          3D

 25 25  0  0  1  0  0  0  0  0999 V2000
   15.8061  -12.6177  -14.9088 C   0  0  0  0  0  0  0  0  0  0  0  0
   14.4341  -12.6652  -15.5006 C   0  0  2  0  0  0  0  0  0  0  0  0
   14.5214  -13.1111  -16.9349 C   0  0  0  0  0  0  0  0  0  0  0  0
   13.6869  -11.3647  -15.4004 C   0  0  2  0  0  0  0  0  0  0  0  0
   12.4572  -11.5167  -16.1584 N   0  0  0  0  0  0  0  0  0  0  0  0
   14.4678  -10.2224  -15.9368 C   0  0  0  0  0  0  0  0  0  0  0  0
   14.7189  -10.1262  -17.1651 O   0  0  0  0  0  0  0  0  0  0  0  0
   15.8878   -5.5969  -15.3885 C   0  0  0  0  0  0  0  0  0  0  0  0
   15.0210   -6.8162  -15.1842 C   0  0  1  0  0  0  0  0  0  0  0  0
   13.6914   -6.6924  -15.8795 C   0  0  0  0  0  0  0  0  0  0  0  0
   15.7559   -8.0845  -15.5857 C   0  0  2  0  0  0  0  0  0  0  0  0
   14.9624   -9.1946  -15.0924 N   0  0  0  0  0  0  0  0  0  0  0  0
   17.1065   -8.0648  -14.9642 C   0  0  0  0  0  0  0  0  0  0  0  0
   17.3095   -8.6193  -13.8572 O   0  0  0  0  0  0  0  0  0  0  0  0
   18.1866   -7.4241  -15.6033 N   0  0  0  0  0  0  0  0  0  0  0  0
   19.5386   -7.6812  -15.1259 C   0  0  1  0  0  0  0  0  0  0  0  0
   19.8577   -9.1406  -15.1561 C   0  0  0  0  0  0  0  0  0  0  0  0
   21.2607   -9.3724  -14.7703 C   0  0  0  0  0  0  0  0  0  0  0  0
   22.2596   -8.4858  -14.4505 C   0  0  0  0  0  0  0  0  0  0  0  0
   23.4058   -9.1318  -14.1861 N   0  0  0  0  0  0  0  0  0  0  0  0
   23.1563  -10.4377  -14.3332 C   0  0  0  0  0  0  0  0  0  0  0  0
   21.8655  -10.5972  -14.6856 N   0  0  0  0  0  0  0  0  0  0  0  0
   20.5266   -6.8728  -15.8549 C   0  0  0  0  0  0  0  0  0  0  0  0
   21.5947   -6.2280  -15.2073 O   0  0  0  0  0  0  0  0  0  0  0  0
   20.4631   -6.7209  -17.0853 O   0  0  0  0  0  0  0  0  0  0  0  0
  2  1  1  6
  2  3  1  0
  4  2  1  0
  4  5  1  6
  6 12  1  0
  6  4  1  0
  7  6  2  0
  9 11  1  0
  9  8  1  6
 10  9  1  0
 11 12  1  1
 13 11  1  0
 14 13  2  0
 15 13  1  0
 16 15  1  0
 16 17  1  6
 18 17  1  0
 18 22  1  0
 19 20  1  0
 19 18  2  0
 20 21  1  0
 21 22  2  0
 23 16  1  0
 23 24  1  0
 25 23  2  0
M  END
$$$$
