VVH.pdb
     RDKit          3D

 25 25  0  0  1  0  0  0  0  0999 V2000
   16.9718  -13.9607  -14.9063 C   0  0  0  0  0  0  0  0  0  0  0  0
   17.0698  -13.7804  -16.3872 C   0  0  2  0  0  0  0  0  0  0  0  0
   16.3759  -14.9222  -17.0787 C   0  0  0  0  0  0  0  0  0  0  0  0
   18.4807  -13.6438  -16.8877 C   0  0  2  0  0  0  0  0  0  0  0  0
   19.1205  -14.9377  -16.7266 N   0  0  0  0  0  0  0  0  0  0  0  0
   19.2454  -12.6111  -16.1452 C   0  0  0  0  0  0  0  0  0  0  0  0
   20.0038  -12.9237  -15.1923 O   0  0  0  0  0  0  0  0  0  0  0  0
   20.9818   -8.0144  -16.0177 C   0  0  0  0  0  0  0  0  0  0  0  0
   20.4778   -9.2664  -16.6944 C   0  0  1  0  0  0  0  0  0  0  0  0
   21.5595   -9.9683  -17.4714 C   0  0  0  0  0  0  0  0  0  0  0  0
   19.8016  -10.1937  -15.6980 C   0  0  2  0  0  0  0  0  0  0  0  0
   19.1549  -11.2340  -16.4758 N   0  0  0  0  0  0  0  0  0  0  0  0
   18.8117   -9.4062  -14.9164 C   0  0  0  0  0  0  0  0  0  0  0  0
   17.7636   -8.9788  -15.4575 O   0  0  0  0  0  0  0  0  0  0  0  0
   19.0282   -9.1231  -13.5532 N   0  0  0  0  0  0  0  0  0  0  0  0
   18.0066   -8.3914  -12.8164 C   0  0  1  0  0  0  0  0  0  0  0  0
   17.9609   -8.8146  -11.3841 C   0  0  0  0  0  0  0  0  0  0  0  0
   16.9313   -8.0562  -10.6522 C   0  0  0  0  0  0  0  0  0  0  0  0
   15.9586   -7.1995  -11.1058 C   0  0  0  0  0  0  0  0  0  0  0  0
   15.2471   -6.6996  -10.0835 N   0  0  0  0  0  0  0  0  0  0  0  0
   15.7541   -7.2286   -8.9645 C   0  0  0  0  0  0  0  0  0  0  0  0
   16.7712   -8.0492   -9.2930 N   0  0  0  0  0  0  0  0  0  0  0  0
   18.1726   -6.9388  -12.9700 C   0  0  0  0  0  0  0  0  0  0  0  0
   19.3551   -6.2746  -12.6010 O   0  0  0  0  0  0  0  0  0  0  0  0
   17.2695   -6.2261  -13.4363 O   0  0  0  0  0  0  0  0  0  0  0  0
  2  1  1  1
  2  3  1  0
  4  2  1  0
  4  5  1  1
  6 12  1  0
  6  4  1  0
  7  6  2  0
  9 11  1  0
  9  8  1  1
 10  9  1  0
 11 12  1  6
 13 11  1  0
 14 13  2  0
 15 13  1  0
 16 15  1  0
 16 17  1  1
 18 17  1  0
 18 22  1  0
 19 20  1  0
 19 18  2  0
 20 21  1  0
 21 22  2  0
 23 16  1  0
 23 24  1  0
 25 23  2  0
M  END
$$$$
