VVH.pdb
     RDKit          3D

 25 25  0  0  1  0  0  0  0  0999 V2000
   28.4809  -18.8264  -14.4832 C   0  0  0  0  0  0  0  0  0  0  0  0
   28.0664  -20.1688  -14.9941 C   0  0  2  0  0  0  0  0  0  0  0  0
   28.8666  -20.5074  -16.2223 C   0  0  0  0  0  0  0  0  0  0  0  0
   26.5948  -20.2790  -15.2803 C   0  0  2  0  0  0  0  0  0  0  0  0
   26.3206  -19.4530  -16.4431 N   0  0  0  0  0  0  0  0  0  0  0  0
   25.7623  -19.8273  -14.1377 C   0  0  0  0  0  0  0  0  0  0  0  0
   25.4861  -18.6114  -13.9752 O   0  0  0  0  0  0  0  0  0  0  0  0
   22.4152  -20.8571  -10.7501 C   0  0  0  0  0  0  0  0  0  0  0  0
   23.1983  -21.0942  -12.0189 C   0  0  1  0  0  0  0  0  0  0  0  0
   22.3841  -20.8074  -13.2524 C   0  0  0  0  0  0  0  0  0  0  0  0
   24.5059  -20.3196  -12.0088 C   0  0  2  0  0  0  0  0  0  0  0  0
   25.2446  -20.7420  -13.1841 N   0  0  0  0  0  0  0  0  0  0  0  0
   25.2406  -20.6494  -10.7589 C   0  0  0  0  0  0  0  0  0  0  0  0
   25.5345  -21.8377  -10.4842 O   0  0  0  0  0  0  0  0  0  0  0  0
   25.6225  -19.6365   -9.8568 N   0  0  0  0  0  0  0  0  0  0  0  0
   26.2372  -20.0169   -8.5921 C   0  0  1  0  0  0  0  0  0  0  0  0
   26.8531  -18.8384   -7.9106 C   0  0  0  0  0  0  0  0  0  0  0  0
   27.4979  -19.2471   -6.6504 C   0  0  0  0  0  0  0  0  0  0  0  0
   27.6024  -20.4812   -6.0572 C   0  0  0  0  0  0  0  0  0  0  0  0
   28.2546  -20.3959   -4.8874 N   0  0  0  0  0  0  0  0  0  0  0  0
   28.5755  -19.1086   -4.7168 C   0  0  0  0  0  0  0  0  0  0  0  0
   28.1248  -18.4040   -5.7732 N   0  0  0  0  0  0  0  0  0  0  0  0
   25.2873  -20.7342   -7.7294 C   0  0  0  0  0  0  0  0  0  0  0  0
   25.6534  -21.8754   -6.9949 O   0  0  0  0  0  0  0  0  0  0  0  0
   24.1090  -20.3626   -7.6085 O   0  0  0  0  0  0  0  0  0  0  0  0
  2  1  1  6
  2  3  1  0
  4  2  1  0
  4  5  1  6
  6 12  1  0
  6  4  1  0
  7  6  2  0
  9 11  1  0
  9  8  1  1
 10  9  1  0
 11 12  1  6
 13 11  1  0
 14 13  2  0
 15 13  1  0
 16 15  1  0
 16 17  1  1
 18 17  1  0
 18 22  1  0
 19 20  1  0
 19 18  2  0
 20 21  1  0
 21 22  2  0
 23 16  1  0
 23 24  1  0
 25 23  2  0
M  END
$$$$
