VVH.pdb
     RDKit          3D

 25 25  0  0  1  0  0  0  0  0999 V2000
   21.4080  -15.5837  -17.3390 C   0  0  0  0  0  0  0  0  0  0  0  0
   22.1477  -16.7948  -16.8687 C   0  0  2  0  0  0  0  0  0  0  0  0
   22.2261  -16.7831  -15.3664 C   0  0  0  0  0  0  0  0  0  0  0  0
   23.5209  -16.9339  -17.4644 C   0  0  2  0  0  0  0  0  0  0  0  0
   23.3499  -17.1625  -18.8885 N   0  0  0  0  0  0  0  0  0  0  0  0
   24.2848  -18.0564  -16.8653 C   0  0  0  0  0  0  0  0  0  0  0  0
   23.9208  -19.2493  -17.0256 O   0  0  0  0  0  0  0  0  0  0  0  0
   28.4912  -19.4028  -14.6116 C   0  0  0  0  0  0  0  0  0  0  0  0
   27.6577  -18.5152  -15.5044 C   0  0  1  0  0  0  0  0  0  0  0  0
   28.1808  -18.4750  -16.9156 C   0  0  0  0  0  0  0  0  0  0  0  0
   26.1908  -18.9095  -15.4536 C   0  0  2  0  0  0  0  0  0  0  0  0
   25.4526  -17.8345  -16.0900 N   0  0  0  0  0  0  0  0  0  0  0  0
   25.7941  -19.0710  -14.0297 C   0  0  0  0  0  0  0  0  0  0  0  0
   25.6053  -18.0677  -13.3005 O   0  0  0  0  0  0  0  0  0  0  0  0
   25.6217  -20.3520  -13.4687 N   0  0  0  0  0  0  0  0  0  0  0  0
   25.0654  -20.4627  -12.1270 C   0  0  1  0  0  0  0  0  0  0  0  0
   23.5728  -20.3969  -12.1499 C   0  0  0  0  0  0  0  0  0  0  0  0
   23.0271  -20.5328  -10.7881 C   0  0  0  0  0  0  0  0  0  0  0  0
   23.6621  -20.6206   -9.5736 C   0  0  0  0  0  0  0  0  0  0  0  0
   22.7733  -20.7646   -8.5785 N   0  0  0  0  0  0  0  0  0  0  0  0
   21.5601  -20.7711   -9.1418 C   0  0  0  0  0  0  0  0  0  0  0  0
   21.6985  -20.6321  -10.4749 N   0  0  0  0  0  0  0  0  0  0  0  0
   25.5664  -21.6601  -11.4367 C   0  0  0  0  0  0  0  0  0  0  0  0
   25.9786  -22.8105  -12.1314 O   0  0  0  0  0  0  0  0  0  0  0  0
   25.6493  -21.7112  -10.1992 O   0  0  0  0  0  0  0  0  0  0  0  0
  2  1  1  6
  2  3  1  0
  4  2  1  0
  4  5  1  6
  6 12  1  0
  6  4  1  0
  7  6  2  0
  9 11  1  0
  9  8  1  1
 10  9  1  0
 11 12  1  1
 13 11  1  0
 14 13  2  0
 15 13  1  0
 16 15  1  0
 16 17  1  6
 18 17  1  0
 18 22  1  0
 19 20  1  0
 19 18  2  0
 20 21  1  0
 21 22  2  0
 23 16  1  0
 23 24  1  0
 25 23  2  0
M  END
$$$$
