VVH.pdb
     RDKit          3D

 25 25  0  0  1  0  0  0  0  0999 V2000
   29.0319  -23.2362  -20.3331 C   0  0  0  0  0  0  0  0  0  0  0  0
   27.7217  -22.9632  -20.9992 C   0  0  2  0  0  0  0  0  0  0  0  0
   27.6757  -21.5276  -21.4467 C   0  0  0  0  0  0  0  0  0  0  0  0
   26.5290  -23.2836  -20.1420 C   0  0  2  0  0  0  0  0  0  0  0  0
   26.5215  -22.3324  -19.0442 N   0  0  0  0  0  0  0  0  0  0  0  0
   26.5747  -24.6666  -19.6058 C   0  0  0  0  0  0  0  0  0  0  0  0
   26.5122  -25.6628  -20.3706 O   0  0  0  0  0  0  0  0  0  0  0  0
   27.9776  -27.5648  -15.9197 C   0  0  0  0  0  0  0  0  0  0  0  0
   27.9646  -26.3067  -16.7543 C   0  0  1  0  0  0  0  0  0  0  0  0
   29.2474  -26.1179  -17.5194 C   0  0  0  0  0  0  0  0  0  0  0  0
   26.7488  -26.2660  -17.6655 C   0  0  2  0  0  0  0  0  0  0  0  0
   26.6901  -24.9244  -18.2150 N   0  0  0  0  0  0  0  0  0  0  0  0
   25.5407  -26.5735  -16.8551 C   0  0  0  0  0  0  0  0  0  0  0  0
   25.1391  -25.7732  -15.9763 O   0  0  0  0  0  0  0  0  0  0  0  0
   24.8213  -27.7684  -17.0556 N   0  0  0  0  0  0  0  0  0  0  0  0
   23.4086  -27.8061  -16.7020 C   0  0  1  0  0  0  0  0  0  0  0  0
   22.6761  -26.6306  -17.2627 C   0  0  0  0  0  0  0  0  0  0  0  0
   21.2565  -26.6692  -16.8699 C   0  0  0  0  0  0  0  0  0  0  0  0
   20.6688  -26.9637  -15.6642 C   0  0  0  0  0  0  0  0  0  0  0  0
   19.3312  -26.9074  -15.7578 N   0  0  0  0  0  0  0  0  0  0  0  0
   19.0458  -26.5770  -17.0221 C   0  0  0  0  0  0  0  0  0  0  0  0
   20.1984  -26.4302  -17.7044 N   0  0  0  0  0  0  0  0  0  0  0  0
   22.7953  -29.0867  -17.0829 C   0  0  0  0  0  0  0  0  0  0  0  0
   23.5114  -30.0920  -17.7556 O   0  0  0  0  0  0  0  0  0  0  0  0
   21.6078  -29.3416  -16.8262 O   0  0  0  0  0  0  0  0  0  0  0  0
  2  1  1  1
  2  3  1  0
  4  2  1  0
  4  5  1  1
  6 12  1  0
  6  4  1  0
  7  6  2  0
  9 11  1  0
  9  8  1  6
 10  9  1  0
 11 12  1  1
 13 11  1  0
 14 13  2  0
 15 13  1  0
 16 15  1  0
 16 17  1  6
 18 17  1  0
 18 22  1  0
 19 20  1  0
 19 18  2  0
 20 21  1  0
 21 22  2  0
 23 16  1  0
 23 24  1  0
 25 23  2  0
M  END
$$$$
