VVH.pdb
     RDKit          3D

 25 25  0  0  1  0  0  0  0  0999 V2000
   44.9174  -10.0037   -4.0901 C   0  0  0  0  0  0  0  0  0  0  0  0
   43.9679   -9.4736   -5.1160 C   0  0  2  0  0  0  0  0  0  0  0  0
   42.9038   -8.6535   -4.4388 C   0  0  0  0  0  0  0  0  0  0  0  0
   43.3429  -10.5409   -5.9704 C   0  0  2  0  0  0  0  0  0  0  0  0
   44.4172  -11.1879   -6.7031 N   0  0  0  0  0  0  0  0  0  0  0  0
   42.3477   -9.9900   -6.9235 C   0  0  0  0  0  0  0  0  0  0  0  0
   42.7084   -9.4499   -8.0003 O   0  0  0  0  0  0  0  0  0  0  0  0
   37.5132   -9.5354   -8.0027 C   0  0  0  0  0  0  0  0  0  0  0  0
   38.6862  -10.2392   -7.3636 C   0  0  1  0  0  0  0  0  0  0  0  0
   38.8409  -11.6524   -7.8592 C   0  0  0  0  0  0  0  0  0  0  0  0
   39.9652   -9.4355   -7.5312 C   0  0  2  0  0  0  0  0  0  0  0  0
   40.9538  -10.0480   -6.6635 N   0  0  0  0  0  0  0  0  0  0  0  0
   39.6939   -8.0281   -7.1356 C   0  0  0  0  0  0  0  0  0  0  0  0
   39.2497   -7.7589   -5.9936 O   0  0  0  0  0  0  0  0  0  0  0  0
   39.9292   -6.9673   -8.0327 N   0  0  0  0  0  0  0  0  0  0  0  0
   39.6572   -5.6044   -7.5966 C   0  0  1  0  0  0  0  0  0  0  0  0
   40.8984   -4.7725   -7.6058 C   0  0  0  0  0  0  0  0  0  0  0  0
   40.6235   -3.4256   -7.0754 C   0  0  0  0  0  0  0  0  0  0  0  0
   39.6588   -2.5092   -7.4152 C   0  0  0  0  0  0  0  0  0  0  0  0
   39.7902   -1.3862   -6.6923 N   0  0  0  0  0  0  0  0  0  0  0  0
   40.8388   -1.5686   -5.8821 C   0  0  0  0  0  0  0  0  0  0  0  0
   41.3512   -2.7951   -6.1028 N   0  0  0  0  0  0  0  0  0  0  0  0
   38.5676   -4.9999   -8.3765 C   0  0  0  0  0  0  0  0  0  0  0  0
   37.7915   -3.9364   -7.8840 O   0  0  0  0  0  0  0  0  0  0  0  0
   38.2801   -5.4036   -9.5147 O   0  0  0  0  0  0  0  0  0  0  0  0
  2  1  1  1
  2  3  1  0
  4  2  1  0
  4  5  1  6
  6 12  1  0
  6  4  1  0
  7  6  2  0
  9 11  1  0
  9  8  1  6
 10  9  1  0
 11 12  1  1
 13 11  1  0
 14 13  2  0
 15 13  1  0
 16 15  1  0
 16 17  1  6
 18 17  1  0
 18 22  1  0
 19 20  1  0
 19 18  2  0
 20 21  1  0
 21 22  2  0
 23 16  1  0
 23 24  1  0
 25 23  2  0
M  END
$$$$
