VVH.pdb
     RDKit          3D

 25 25  0  0  1  0  0  0  0  0999 V2000
   17.5722   -9.7333  -18.2017 C   0  0  0  0  0  0  0  0  0  0  0  0
   18.4962  -10.7369  -18.8133 C   0  0  2  0  0  0  0  0  0  0  0  0
   17.7967  -11.4386  -19.9455 C   0  0  0  0  0  0  0  0  0  0  0  0
   19.0379  -11.7377  -17.8310 C   0  0  2  0  0  0  0  0  0  0  0  0
   17.9324  -12.5927  -17.4356 N   0  0  0  0  0  0  0  0  0  0  0  0
   19.6242  -11.0903  -16.6312 C   0  0  0  0  0  0  0  0  0  0  0  0
   18.9283  -10.8658  -15.6082 O   0  0  0  0  0  0  0  0  0  0  0  0
   23.8028   -9.9148  -14.2640 C   0  0  0  0  0  0  0  0  0  0  0  0
   23.0090  -10.6317  -15.3296 C   0  0  1  0  0  0  0  0  0  0  0  0
   23.0280  -12.1258  -15.1452 C   0  0  0  0  0  0  0  0  0  0  0  0
   21.5923  -10.0883  -15.4165 C   0  0  2  0  0  0  0  0  0  0  0  0
   20.9874  -10.6986  -16.5857 N   0  0  0  0  0  0  0  0  0  0  0  0
   21.6613   -8.6091  -15.5512 C   0  0  0  0  0  0  0  0  0  0  0  0
   22.1831   -8.0826  -16.5634 O   0  0  0  0  0  0  0  0  0  0  0  0
   21.1432   -7.7673  -14.5471 N   0  0  0  0  0  0  0  0  0  0  0  0
   21.2836   -6.3252  -14.6972 C   0  0  1  0  0  0  0  0  0  0  0  0
   19.9560   -5.6663  -14.8870 C   0  0  0  0  0  0  0  0  0  0  0  0
   20.1241   -4.2235  -15.1341 C   0  0  0  0  0  0  0  0  0  0  0  0
   20.6575   -3.5553  -16.2088 C   0  0  0  0  0  0  0  0  0  0  0  0
   20.6404   -2.2291  -16.0038 N   0  0  0  0  0  0  0  0  0  0  0  0
   20.0971   -2.0314  -14.7976 C   0  0  0  0  0  0  0  0  0  0  0  0
   19.7809   -3.2265  -14.2615 N   0  0  0  0  0  0  0  0  0  0  0  0
   22.0481   -5.7429  -13.5846 C   0  0  0  0  0  0  0  0  0  0  0  0
   22.9092   -4.6456  -13.7580 O   0  0  0  0  0  0  0  0  0  0  0  0
   21.9680   -6.1966  -12.4319 O   0  0  0  0  0  0  0  0  0  0  0  0
  2  1  1  1
  2  3  1  0
  4  2  1  0
  4  5  1  1
  6 12  1  0
  6  4  1  0
  7  6  2  0
  9 11  1  0
  9  8  1  1
 10  9  1  0
 11 12  1  6
 13 11  1  0
 14 13  2  0
 15 13  1  0
 16 15  1  0
 16 17  1  1
 18 17  1  0
 18 22  1  0
 19 20  1  0
 19 18  2  0
 20 21  1  0
 21 22  2  0
 23 16  1  0
 23 24  1  0
 25 23  2  0
M  END
$$$$
