VVH.pdb
     RDKit          3D

 25 25  0  0  1  0  0  0  0  0999 V2000
   18.8260  -14.2883  -17.5779 C   0  0  0  0  0  0  0  0  0  0  0  0
   18.4671  -14.5626  -16.1527 C   0  0  2  0  0  0  0  0  0  0  0  0
   18.4986  -16.0460  -15.9038 C   0  0  0  0  0  0  0  0  0  0  0  0
   17.1390  -13.9902  -15.7427 C   0  0  2  0  0  0  0  0  0  0  0  0
   16.1100  -14.8459  -16.3073 N   0  0  0  0  0  0  0  0  0  0  0  0
   16.9518  -12.5984  -16.2228 C   0  0  0  0  0  0  0  0  0  0  0  0
   16.6468  -12.3588  -17.4189 O   0  0  0  0  0  0  0  0  0  0  0  0
   14.5467  -10.1804  -15.8942 C   0  0  0  0  0  0  0  0  0  0  0  0
   15.7557   -9.5258  -15.2700 C   0  0  1  0  0  0  0  0  0  0  0  0
   15.7173   -9.5763  -13.7658 C   0  0  0  0  0  0  0  0  0  0  0  0
   17.0437  -10.1112  -15.8251 C   0  0  2  0  0  0  0  0  0  0  0  0
   17.1077  -11.4836  -15.3585 N   0  0  0  0  0  0  0  0  0  0  0  0
   18.1864   -9.3100  -15.3117 C   0  0  0  0  0  0  0  0  0  0  0  0
   19.0644   -9.8387  -14.5881 O   0  0  0  0  0  0  0  0  0  0  0  0
   18.3083   -7.9419  -15.6258 N   0  0  0  0  0  0  0  0  0  0  0  0
   19.6394   -7.3771  -15.8025 C   0  0  1  0  0  0  0  0  0  0  0  0
   20.4514   -8.1877  -16.7598 C   0  0  0  0  0  0  0  0  0  0  0  0
   21.7868   -7.5918  -16.9404 C   0  0  0  0  0  0  0  0  0  0  0  0
   22.9973   -7.9213  -16.3818 C   0  0  0  0  0  0  0  0  0  0  0  0
   23.9617   -7.0899  -16.8057 N   0  0  0  0  0  0  0  0  0  0  0  0
   23.3824   -6.2190  -17.6394 C   0  0  0  0  0  0  0  0  0  0  0  0
   22.0699   -6.5102  -17.7298 N   0  0  0  0  0  0  0  0  0  0  0  0
   19.5731   -5.9579  -16.1804 C   0  0  0  0  0  0  0  0  0  0  0  0
   20.4028   -4.9854  -15.5959 O   0  0  0  0  0  0  0  0  0  0  0  0
   18.7754   -5.5496  -17.0394 O   0  0  0  0  0  0  0  0  0  0  0  0
  2  1  1  6
  2  3  1  0
  4  2  1  0
  4  5  1  6
  6 12  1  0
  6  4  1  0
  7  6  2  0
  9 11  1  0
  9  8  1  6
 10  9  1  0
 11 12  1  1
 13 11  1  0
 14 13  2  0
 15 13  1  0
 16 15  1  0
 16 17  1  6
 18 17  1  0
 18 22  1  0
 19 20  1  0
 19 18  2  0
 20 21  1  0
 21 22  2  0
 23 16  1  0
 23 24  1  0
 25 23  2  0
M  END
$$$$
