VVH.pdb
     RDKit          3D

 25 25  0  0  1  0  0  0  0  0999 V2000
   36.6083  -12.7577  -19.5036 C   0  0  0  0  0  0  0  0  0  0  0  0
   35.4662  -12.2335  -18.6938 C   0  0  2  0  0  0  0  0  0  0  0  0
   34.2473  -12.1092  -19.5669 C   0  0  0  0  0  0  0  0  0  0  0  0
   35.7582  -10.9261  -18.0118 C   0  0  2  0  0  0  0  0  0  0  0  0
   36.9111  -11.1374  -17.1541 N   0  0  0  0  0  0  0  0  0  0  0  0
   34.6124  -10.4443  -17.2009 C   0  0  0  0  0  0  0  0  0  0  0  0
   34.6964  -10.3474  -15.9500 O   0  0  0  0  0  0  0  0  0  0  0  0
   32.1718   -6.8001  -16.4799 C   0  0  0  0  0  0  0  0  0  0  0  0
   33.1370   -7.8697  -16.9313 C   0  0  1  0  0  0  0  0  0  0  0  0
   34.3095   -8.0094  -15.9973 C   0  0  0  0  0  0  0  0  0  0  0  0
   32.4244   -9.1941  -17.1501 C   0  0  2  0  0  0  0  0  0  0  0  0
   33.3791  -10.0742  -17.7976 N   0  0  0  0  0  0  0  0  0  0  0  0
   31.2365   -8.9547  -18.0118 C   0  0  0  0  0  0  0  0  0  0  0  0
   31.3687   -8.4828  -19.1667 O   0  0  0  0  0  0  0  0  0  0  0  0
   29.9383   -9.2518  -17.5513 N   0  0  0  0  0  0  0  0  0  0  0  0
   28.8281   -9.1932  -18.4926 C   0  0  1  0  0  0  0  0  0  0  0  0
   27.7692  -10.1893  -18.1473 C   0  0  0  0  0  0  0  0  0  0  0  0
   28.2267  -11.5572  -18.4481 C   0  0  0  0  0  0  0  0  0  0  0  0
   29.4202  -12.0115  -18.9533 C   0  0  0  0  0  0  0  0  0  0  0  0
   29.4014  -13.3455  -19.0981 N   0  0  0  0  0  0  0  0  0  0  0  0
   28.1980  -13.7619  -18.6886 C   0  0  0  0  0  0  0  0  0  0  0  0
   27.4788  -12.6930  -18.2936 N   0  0  0  0  0  0  0  0  0  0  0  0
   28.2992   -7.8268  -18.6124 C   0  0  0  0  0  0  0  0  0  0  0  0
   28.6521   -6.8033  -17.7159 O   0  0  0  0  0  0  0  0  0  0  0  0
   27.5106   -7.5111  -19.5176 O   0  0  0  0  0  0  0  0  0  0  0  0
  2  1  1  6
  2  3  1  0
  4  2  1  0
  4  5  1  1
  6 12  1  0
  6  4  1  0
  7  6  2  0
  9 11  1  0
  9  8  1  1
 10  9  1  0
 11 12  1  6
 13 11  1  0
 14 13  2  0
 15 13  1  0
 16 15  1  0
 16 17  1  1
 18 17  1  0
 18 22  1  0
 19 20  1  0
 19 18  2  0
 20 21  1  0
 21 22  2  0
 23 16  1  0
 23 24  1  0
 25 23  2  0
M  END
$$$$
