VVH.pdb
     RDKit          3D

 25 25  0  0  1  0  0  0  0  0999 V2000
   23.3937  -13.6553  -16.2311 C   0  0  0  0  0  0  0  0  0  0  0  0
   22.5100  -14.4081  -15.2891 C   0  0  2  0  0  0  0  0  0  0  0  0
   23.2159  -15.6530  -14.8251 C   0  0  0  0  0  0  0  0  0  0  0  0
   21.1651  -14.7522  -15.8659 C   0  0  2  0  0  0  0  0  0  0  0  0
   21.3870  -15.7238  -16.9224 N   0  0  0  0  0  0  0  0  0  0  0  0
   20.4667  -13.5642  -16.4168 C   0  0  0  0  0  0  0  0  0  0  0  0
   20.6687  -13.1806  -17.5971 O   0  0  0  0  0  0  0  0  0  0  0  0
   16.5599  -10.6357  -16.0681 C   0  0  0  0  0  0  0  0  0  0  0  0
   17.3608  -11.9052  -15.9049 C   0  0  1  0  0  0  0  0  0  0  0  0
   16.8251  -13.0289  -16.7515 C   0  0  0  0  0  0  0  0  0  0  0  0
   18.8386  -11.6574  -16.1590 C   0  0  2  0  0  0  0  0  0  0  0  0
   19.5457  -12.8135  -15.6407 N   0  0  0  0  0  0  0  0  0  0  0  0
   19.2381  -10.4138  -15.4485 C   0  0  0  0  0  0  0  0  0  0  0  0
   19.1732  -10.3429  -14.1976 O   0  0  0  0  0  0  0  0  0  0  0  0
   19.6975   -9.2895  -16.1628 N   0  0  0  0  0  0  0  0  0  0  0  0
   20.0859   -8.0968  -15.4222 C   0  0  1  0  0  0  0  0  0  0  0  0
   20.8639   -7.1529  -16.2804 C   0  0  0  0  0  0  0  0  0  0  0  0
   21.2611   -5.9606  -15.5113 C   0  0  0  0  0  0  0  0  0  0  0  0
   21.0817   -5.6493  -14.1859 C   0  0  0  0  0  0  0  0  0  0  0  0
   21.5796   -4.4343  -13.9084 N   0  0  0  0  0  0  0  0  0  0  0  0
   22.0829   -3.9528  -15.0503 C   0  0  0  0  0  0  0  0  0  0  0  0
   21.8975   -4.8636  -16.0259 N   0  0  0  0  0  0  0  0  0  0  0  0
   18.9232   -7.4565  -14.7903 C   0  0  0  0  0  0  0  0  0  0  0  0
   18.9159   -7.0818  -13.4356 O   0  0  0  0  0  0  0  0  0  0  0  0
   17.8862   -7.2153  -15.4286 O   0  0  0  0  0  0  0  0  0  0  0  0
  2  1  1  6
  2  3  1  0
  4  2  1  0
  4  5  1  6
  6 12  1  0
  6  4  1  0
  7  6  2  0
  9 11  1  0
  9  8  1  6
 10  9  1  0
 11 12  1  1
 13 11  1  0
 14 13  2  0
 15 13  1  0
 16 15  1  0
 16 17  1  6
 18 17  1  0
 18 22  1  0
 19 20  1  0
 19 18  2  0
 20 21  1  0
 21 22  2  0
 23 16  1  0
 23 24  1  0
 25 23  2  0
M  END
$$$$
