VVH.pdb
     RDKit          3D

 25 25  0  0  1  0  0  0  0  0999 V2000
   17.1392  -10.2833  -12.0861 C   0  0  0  0  0  0  0  0  0  0  0  0
   16.7491  -11.3328  -11.0955 C   0  0  2  0  0  0  0  0  0  0  0  0
   16.5896  -12.6529  -11.7993 C   0  0  0  0  0  0  0  0  0  0  0  0
   15.5059  -10.9991  -10.3189 C   0  0  2  0  0  0  0  0  0  0  0  0
   14.4421  -11.8480  -10.8263 N   0  0  0  0  0  0  0  0  0  0  0  0
   15.1187   -9.5733  -10.4591 C   0  0  0  0  0  0  0  0  0  0  0  0
   14.3334   -9.1992  -11.3670 O   0  0  0  0  0  0  0  0  0  0  0  0
   13.1896   -7.2148   -8.6186 C   0  0  0  0  0  0  0  0  0  0  0  0
   14.5936   -6.6598   -8.6022 C   0  0  1  0  0  0  0  0  0  0  0  0
   15.2978   -6.9311   -7.2995 C   0  0  0  0  0  0  0  0  0  0  0  0
   15.3937   -7.1576   -9.7946 C   0  0  2  0  0  0  0  0  0  0  0  0
   15.6145   -8.5756   -9.5801 N   0  0  0  0  0  0  0  0  0  0  0  0
   16.6783   -6.4105   -9.8466 C   0  0  0  0  0  0  0  0  0  0  0  0
   17.6987   -6.8515   -9.2650 O   0  0  0  0  0  0  0  0  0  0  0  0
   16.7780   -5.1930  -10.5488 N   0  0  0  0  0  0  0  0  0  0  0  0
   18.0148   -4.8883  -11.2553 C   0  0  1  0  0  0  0  0  0  0  0  0
   18.4234   -6.0151  -12.1474 C   0  0  0  0  0  0  0  0  0  0  0  0
   19.6505   -5.6717  -12.8873 C   0  0  0  0  0  0  0  0  0  0  0  0
   20.3789   -4.5081  -12.9222 C   0  0  0  0  0  0  0  0  0  0  0  0
   21.4210   -4.6212  -13.7602 N   0  0  0  0  0  0  0  0  0  0  0  0
   21.3733   -5.8562  -14.2718 C   0  0  0  0  0  0  0  0  0  0  0  0
   20.3097   -6.5011  -13.7537 N   0  0  0  0  0  0  0  0  0  0  0  0
   17.9209   -3.6078  -11.9714 C   0  0  0  0  0  0  0  0  0  0  0  0
   18.9652   -2.6669  -11.9682 O   0  0  0  0  0  0  0  0  0  0  0  0
   16.9076   -3.2957  -12.6170 O   0  0  0  0  0  0  0  0  0  0  0  0
  2  1  1  6
  2  3  1  0
  4  2  1  0
  4  5  1  6
  6 12  1  0
  6  4  1  0
  7  6  2  0
  9 11  1  0
  9  8  1  1
 10  9  1  0
 11 12  1  1
 13 11  1  0
 14 13  2  0
 15 13  1  0
 16 15  1  0
 16 17  1  6
 18 17  1  0
 18 22  1  0
 19 20  1  0
 19 18  2  0
 20 21  1  0
 21 22  2  0
 23 16  1  0
 23 24  1  0
 25 23  2  0
M  END
$$$$
