VVH.pdb
     RDKit          3D

 25 25  0  0  1  0  0  0  0  0999 V2000
   25.7816  -19.9391   -7.9616 C   0  0  0  0  0  0  0  0  0  0  0  0
   26.0053  -20.3204   -9.3898 C   0  0  2  0  0  0  0  0  0  0  0  0
   26.8464  -19.2707  -10.0636 C   0  0  0  0  0  0  0  0  0  0  0  0
   24.7352  -20.5490  -10.1608 C   0  0  2  0  0  0  0  0  0  0  0  0
   24.0180  -21.6239   -9.4975 N   0  0  0  0  0  0  0  0  0  0  0  0
   24.9921  -20.9168  -11.5754 C   0  0  0  0  0  0  0  0  0  0  0  0
   25.6876  -21.9221  -11.8697 O   0  0  0  0  0  0  0  0  0  0  0  0
   23.4810  -20.8959  -16.1706 C   0  0  0  0  0  0  0  0  0  0  0  0
   23.3738  -20.7920  -14.6682 C   0  0  1  0  0  0  0  0  0  0  0  0
   22.7410  -22.0137  -14.0568 C   0  0  0  0  0  0  0  0  0  0  0  0
   24.7230  -20.4782  -14.0428 C   0  0  2  0  0  0  0  0  0  0  0  0
   24.4676  -20.1548  -12.6516 N   0  0  0  0  0  0  0  0  0  0  0  0
   25.3224  -19.3257  -14.7663 C   0  0  0  0  0  0  0  0  0  0  0  0
   24.8273  -18.1776  -14.6621 O   0  0  0  0  0  0  0  0  0  0  0  0
   26.4574  -19.4969  -15.5835 N   0  0  0  0  0  0  0  0  0  0  0  0
   27.0092  -18.3378  -16.2720 C   0  0  1  0  0  0  0  0  0  0  0  0
   28.5031  -18.3513  -16.2482 C   0  0  0  0  0  0  0  0  0  0  0  0
   29.0445  -17.2592  -17.0760 C   0  0  0  0  0  0  0  0  0  0  0  0
   28.4102  -16.2272  -17.7231 C   0  0  0  0  0  0  0  0  0  0  0  0
   29.2918  -15.4697  -18.3939 N   0  0  0  0  0  0  0  0  0  0  0  0
   30.4994  -16.0057  -18.1856 C   0  0  0  0  0  0  0  0  0  0  0  0
   30.3649  -17.0864  -17.3920 N   0  0  0  0  0  0  0  0  0  0  0  0
   26.4680  -18.2159  -17.6334 C   0  0  0  0  0  0  0  0  0  0  0  0
   26.1907  -16.9703  -18.2228 O   0  0  0  0  0  0  0  0  0  0  0  0
   26.2291  -19.2147  -18.3308 O   0  0  0  0  0  0  0  0  0  0  0  0
  2  1  1  1
  2  3  1  0
  4  2  1  0
  4  5  1  1
  6 12  1  0
  6  4  1  0
  7  6  2  0
  9 11  1  0
  9  8  1  6
 10  9  1  0
 11 12  1  1
 13 11  1  0
 14 13  2  0
 15 13  1  0
 16 15  1  0
 16 17  1  6
 18 17  1  0
 18 22  1  0
 19 20  1  0
 19 18  2  0
 20 21  1  0
 21 22  2  0
 23 16  1  0
 23 24  1  0
 25 23  2  0
M  END
$$$$
