QGE.pdb
     RDKit          3D

 23 22  0  0  1  0  0  0  0  0999 V2000
   17.9958  -17.4494  -14.6904 N   0  0  0  0  0  0  0  0  0  0  0  0
   18.4062  -16.1755  -15.1943 C   0  0  0  0  0  0  0  0  0  0  0  0
   19.1139  -15.5097  -14.3631 O   0  0  0  0  0  0  0  0  0  0  0  0
   18.0446  -15.6913  -16.5239 C   0  0  0  0  0  0  0  0  0  0  0  0
   18.6787  -14.4117  -16.9612 C   0  0  0  0  0  0  0  0  0  0  0  0
   18.1397  -13.1688  -16.3186 C   0  0  2  0  0  0  0  0  0  0  0  0
   16.7307  -12.9672  -16.5220 N   0  0  0  0  0  0  0  0  0  0  0  0
   18.8863  -11.9698  -16.6667 C   0  0  0  0  0  0  0  0  0  0  0  0
   20.1620  -12.0484  -16.6235 O   0  0  0  0  0  0  0  0  0  0  0  0
   18.2739  -10.7689  -17.0382 N   0  0  0  0  0  0  0  0  0  0  0  0
   19.0540   -9.5765  -17.3042 C   0  0  0  0  0  0  0  0  0  0  0  0
   18.8485   -8.6459  -16.1370 C   0  0  0  0  0  0  0  0  0  0  0  0
   18.0520   -8.9253  -15.2032 O   0  0  0  0  0  0  0  0  0  0  0  0
   19.5580   -7.4290  -16.0749 N   0  0  0  0  0  0  0  0  0  0  0  0
   19.3673   -6.4985  -14.9315 C   0  0  1  0  0  0  0  0  0  0  0  0
   20.7497   -6.0834  -14.5735 C   0  0  0  0  0  0  0  0  0  0  0  0
   20.9588   -5.1084  -13.4908 C   0  0  0  0  0  0  0  0  0  0  0  0
   22.3435   -4.7605  -13.1884 C   0  0  0  0  0  0  0  0  0  0  0  0
   22.9812   -3.9550  -13.8966 O   0  0  0  0  0  0  0  0  0  0  0  0
   18.3959   -5.5030  -15.3351 C   0  0  0  0  0  0  0  0  0  0  0  0
   17.5751   -4.8945  -14.4047 O   0  0  0  0  0  0  0  0  0  0  0  0
   22.9466   -5.3505  -12.0828 O   0  0  0  0  0  0  0  0  0  0  0  0
   18.2727   -5.1662  -16.5365 O   0  0  0  0  0  0  0  0  0  0  0  0
  1  2  1  0
  2  3  2  0
  4  2  1  0
  4  5  1  0
  6  5  1  0
  6  8  1  0
  6  7  1  6
  8 10  1  0
  9  8  2  0
 10 11  1  0
 12 11  1  0
 12 13  2  0
 14 12  1  0
 15 14  1  0
 15 20  1  0
 15 16  1  6
 17 18  1  0
 17 16  1  0
 18 22  1  0
 18 19  2  0
 20 23  2  0
 20 21  1  0
M  END
$$$$
