QGE.pdb
     RDKit          3D

 23 22  0  0  1  0  0  0  0  0999 V2000
   25.1158  -20.8224   -8.0255 N   0  0  0  0  0  0  0  0  0  0  0  0
   25.8298  -20.2852   -9.1421 C   0  0  0  0  0  0  0  0  0  0  0  0
   25.6076  -19.0401   -9.3298 O   0  0  0  0  0  0  0  0  0  0  0  0
   26.7175  -21.0873   -9.9799 C   0  0  0  0  0  0  0  0  0  0  0  0
   26.8772  -20.6421  -11.3966 C   0  0  0  0  0  0  0  0  0  0  0  0
   25.6814  -20.8448  -12.2781 C   0  0  2  0  0  0  0  0  0  0  0  0
   25.2841  -22.2192  -12.4208 N   0  0  0  0  0  0  0  0  0  0  0  0
   25.8108  -20.2091  -13.5801 C   0  0  0  0  0  0  0  0  0  0  0  0
   26.0939  -18.9620  -13.5907 O   0  0  0  0  0  0  0  0  0  0  0  0
   25.6428  -20.8961  -14.7863 N   0  0  0  0  0  0  0  0  0  0  0  0
   25.7711  -20.2202  -16.0622 C   0  0  0  0  0  0  0  0  0  0  0  0
   24.3760  -20.0060  -16.5897 C   0  0  0  0  0  0  0  0  0  0  0  0
   24.1663  -19.3985  -17.6721 O   0  0  0  0  0  0  0  0  0  0  0  0
   23.2682  -20.4916  -15.8651 N   0  0  0  0  0  0  0  0  0  0  0  0
   21.8870  -20.3188  -16.3866 C   0  0  1  0  0  0  0  0  0  0  0  0
   21.3091  -21.6878  -16.3297 C   0  0  0  0  0  0  0  0  0  0  0  0
   22.0622  -22.8191  -16.8949 C   0  0  0  0  0  0  0  0  0  0  0  0
   21.4006  -24.1195  -16.8649 C   0  0  0  0  0  0  0  0  0  0  0  0
   21.9737  -25.1504  -17.2725 O   0  0  0  0  0  0  0  0  0  0  0  0
   21.2692  -19.2422  -15.6405 C   0  0  0  0  0  0  0  0  0  0  0  0
   20.0329  -18.7441  -16.0055 O   0  0  0  0  0  0  0  0  0  0  0  0
   20.1036  -24.1898  -16.3676 O   0  0  0  0  0  0  0  0  0  0  0  0
   21.8370  -18.7334  -14.6451 O   0  0  0  0  0  0  0  0  0  0  0  0
  1  2  1  0
  2  3  2  0
  4  2  1  0
  4  5  1  0
  6  5  1  0
  6  8  1  0
  6  7  1  6
  8 10  1  0
  9  8  2  0
 10 11  1  0
 12 11  1  0
 12 13  2  0
 14 12  1  0
 15 14  1  0
 15 20  1  0
 15 16  1  1
 17 18  1  0
 17 16  1  0
 18 22  1  0
 18 19  2  0
 20 23  2  0
 20 21  1  0
M  END
$$$$
