QGE.pdb
     RDKit          3D

 23 22  0  0  1  0  0  0  0  0999 V2000
   30.7443  -21.9459  -10.9018 N   0  0  0  0  0  0  0  0  0  0  0  0
   30.1664  -21.4943   -9.6741 C   0  0  0  0  0  0  0  0  0  0  0  0
   30.9973  -21.4788   -8.7023 O   0  0  0  0  0  0  0  0  0  0  0  0
   28.7662  -21.0972   -9.5520 C   0  0  0  0  0  0  0  0  0  0  0  0
   27.9825  -21.0235  -10.8212 C   0  0  0  0  0  0  0  0  0  0  0  0
   26.6108  -20.4298  -10.7021 C   0  0  2  0  0  0  0  0  0  0  0  0
   25.7680  -21.0886   -9.7414 N   0  0  0  0  0  0  0  0  0  0  0  0
   25.9277  -20.2963  -11.9794 C   0  0  0  0  0  0  0  0  0  0  0  0
   26.5357  -19.6447  -12.8966 O   0  0  0  0  0  0  0  0  0  0  0  0
   24.6654  -20.8423  -12.2320 N   0  0  0  0  0  0  0  0  0  0  0  0
   24.0021  -20.6481  -13.5062 C   0  0  0  0  0  0  0  0  0  0  0  0
   22.5234  -20.5735  -13.2264 C   0  0  0  0  0  0  0  0  0  0  0  0
   22.0806  -20.4013  -12.0607 O   0  0  0  0  0  0  0  0  0  0  0  0
   21.6006  -20.6977  -14.2853 N   0  0  0  0  0  0  0  0  0  0  0  0
   20.1388  -20.7253  -14.0169 C   0  0  1  0  0  0  0  0  0  0  0  0
   19.5402  -20.1105  -15.2315 C   0  0  0  0  0  0  0  0  0  0  0  0
   20.0717  -18.8347  -15.7380 C   0  0  0  0  0  0  0  0  0  0  0  0
   19.3958  -18.2647  -16.8990 C   0  0  0  0  0  0  0  0  0  0  0  0
   18.4037  -17.5185  -16.7725 O   0  0  0  0  0  0  0  0  0  0  0  0
   19.7878  -22.0803  -13.6453 C   0  0  0  0  0  0  0  0  0  0  0  0
   18.6817  -22.3361  -12.8573 O   0  0  0  0  0  0  0  0  0  0  0  0
   19.8838  -18.5720  -18.1646 O   0  0  0  0  0  0  0  0  0  0  0  0
   20.4756  -23.0567  -14.0270 O   0  0  0  0  0  0  0  0  0  0  0  0
  1  2  1  0
  2  3  2  0
  4  2  1  0
  4  5  1  0
  6  5  1  0
  6  8  1  0
  6  7  1  1
  8 10  1  0
  9  8  2  0
 10 11  1  0
 12 11  1  0
 12 13  2  0
 14 12  1  0
 15 14  1  0
 15 20  1  0
 15 16  1  6
 17 18  1  0
 17 16  1  0
 18 22  1  0
 18 19  2  0
 20 23  2  0
 20 21  1  0
M  END
$$$$
