QGE.pdb
     RDKit          3D

 23 22  0  0  1  0  0  0  0  0999 V2000
   27.0538  -13.0987  -15.4669 N   0  0  0  0  0  0  0  0  0  0  0  0
   26.7306  -12.4113  -16.6786 C   0  0  0  0  0  0  0  0  0  0  0  0
   27.4567  -12.7680  -17.6688 O   0  0  0  0  0  0  0  0  0  0  0  0
   25.6783  -11.4021  -16.7649 C   0  0  0  0  0  0  0  0  0  0  0  0
   24.9293  -11.1125  -15.5056 C   0  0  0  0  0  0  0  0  0  0  0  0
   23.8241  -10.1065  -15.6259 C   0  0  2  0  0  0  0  0  0  0  0  0
   22.9183  -10.3576  -16.7139 N   0  0  0  0  0  0  0  0  0  0  0  0
   24.2975   -8.7313  -15.6580 C   0  0  0  0  0  0  0  0  0  0  0  0
   24.8992   -8.3010  -14.6148 O   0  0  0  0  0  0  0  0  0  0  0  0
   24.1236   -7.8884  -16.7600 N   0  0  0  0  0  0  0  0  0  0  0  0
   24.6210   -6.5270  -16.7528 C   0  0  0  0  0  0  0  0  0  0  0  0
   23.4647   -5.6333  -17.1199 C   0  0  0  0  0  0  0  0  0  0  0  0
   23.0271   -5.5719  -18.2986 O   0  0  0  0  0  0  0  0  0  0  0  0
   22.8475   -4.8404  -16.1307 N   0  0  0  0  0  0  0  0  0  0  0  0
   21.6152   -4.0683  -16.4387 C   0  0  1  0  0  0  0  0  0  0  0  0
   20.6242   -5.1111  -16.8154 C   0  0  0  0  0  0  0  0  0  0  0  0
   19.2134   -4.7379  -17.0078 C   0  0  0  0  0  0  0  0  0  0  0  0
   18.2885   -5.8266  -17.3060 C   0  0  0  0  0  0  0  0  0  0  0  0
   17.4058   -6.1709  -16.4940 O   0  0  0  0  0  0  0  0  0  0  0  0
   21.3530   -3.1956  -15.3130 C   0  0  0  0  0  0  0  0  0  0  0  0
   20.5588   -2.0737  -15.4549 O   0  0  0  0  0  0  0  0  0  0  0  0
   18.4103   -6.4813  -18.5271 O   0  0  0  0  0  0  0  0  0  0  0  0
   21.8380   -3.4328  -14.1814 O   0  0  0  0  0  0  0  0  0  0  0  0
  1  2  1  0
  2  3  2  0
  4  2  1  0
  4  5  1  0
  6  5  1  0
  6  8  1  0
  6  7  1  6
  8 10  1  0
  9  8  2  0
 10 11  1  0
 12 11  1  0
 12 13  2  0
 14 12  1  0
 15 14  1  0
 15 20  1  0
 15 16  1  1
 17 18  1  0
 17 16  1  0
 18 22  1  0
 18 19  2  0
 20 23  2  0
 20 21  1  0
M  END
$$$$
