QGE.pdb
     RDKit          3D

 23 22  0  0  1  0  0  0  0  0999 V2000
   15.4779  -15.1036  -14.2688 N   0  0  0  0  0  0  0  0  0  0  0  0
   16.5355  -15.8370  -14.8923 C   0  0  0  0  0  0  0  0  0  0  0  0
   16.4829  -17.0931  -14.6587 O   0  0  0  0  0  0  0  0  0  0  0  0
   17.5693  -15.2051  -15.7079 C   0  0  0  0  0  0  0  0  0  0  0  0
   17.5244  -13.7152  -15.8018 C   0  0  0  0  0  0  0  0  0  0  0  0
   18.6513  -13.0796  -16.5596 C   0  0  2  0  0  0  0  0  0  0  0  0
   19.9548  -13.3770  -16.0309 N   0  0  0  0  0  0  0  0  0  0  0  0
   18.4858  -11.6462  -16.7437 C   0  0  0  0  0  0  0  0  0  0  0  0
   17.4453  -11.2596  -17.3789 O   0  0  0  0  0  0  0  0  0  0  0  0
   19.3989  -10.7031  -16.2618 N   0  0  0  0  0  0  0  0  0  0  0  0
   19.1755   -9.2815  -16.4356 C   0  0  0  0  0  0  0  0  0  0  0  0
   20.2927   -8.5688  -15.7183 C   0  0  0  0  0  0  0  0  0  0  0  0
   21.1902   -9.2013  -15.1025 O   0  0  0  0  0  0  0  0  0  0  0  0
   20.3481   -7.1600  -15.7276 N   0  0  0  0  0  0  0  0  0  0  0  0
   21.4944   -6.4428  -15.1104 C   0  0  1  0  0  0  0  0  0  0  0  0
   21.4197   -5.0777  -15.6957 C   0  0  0  0  0  0  0  0  0  0  0  0
   22.3507   -4.0359  -15.2325 C   0  0  0  0  0  0  0  0  0  0  0  0
   22.1469   -2.6958  -15.7732 C   0  0  0  0  0  0  0  0  0  0  0  0
   21.3014   -1.9190  -15.2847 O   0  0  0  0  0  0  0  0  0  0  0  0
   21.4002   -6.6199  -13.6761 C   0  0  0  0  0  0  0  0  0  0  0  0
   22.5308   -6.5924  -12.8819 O   0  0  0  0  0  0  0  0  0  0  0  0
   22.9222   -2.2954  -16.8562 O   0  0  0  0  0  0  0  0  0  0  0  0
   20.2933   -6.8027  -13.1162 O   0  0  0  0  0  0  0  0  0  0  0  0
  1  2  1  0
  2  3  2  0
  4  2  1  0
  4  5  1  0
  6  5  1  0
  6  8  1  0
  6  7  1  1
  8 10  1  0
  9  8  2  0
 10 11  1  0
 12 11  1  0
 12 13  2  0
 14 12  1  0
 15 14  1  0
 15 20  1  0
 15 16  1  1
 17 18  1  0
 17 16  1  0
 18 22  1  0
 18 19  2  0
 20 23  2  0
 20 21  1  0
M  END
$$$$
