QGE.pdb
     RDKit          3D

 23 22  0  0  1  0  0  0  0  0999 V2000
   15.4293  -17.0306  -12.9307 N   0  0  0  0  0  0  0  0  0  0  0  0
   15.5904  -17.3673  -14.3113 C   0  0  0  0  0  0  0  0  0  0  0  0
   15.2337  -18.5649  -14.5823 O   0  0  0  0  0  0  0  0  0  0  0  0
   16.1146  -16.4318  -15.3029 C   0  0  0  0  0  0  0  0  0  0  0  0
   16.5243  -15.0873  -14.7978 C   0  0  0  0  0  0  0  0  0  0  0  0
   16.4666  -13.9736  -15.7999 C   0  0  2  0  0  0  0  0  0  0  0  0
   17.6805  -13.7959  -16.5498 N   0  0  0  0  0  0  0  0  0  0  0  0
   16.0233  -12.7097  -15.2322 C   0  0  0  0  0  0  0  0  0  0  0  0
   14.9288  -12.7236  -14.5708 O   0  0  0  0  0  0  0  0  0  0  0  0
   16.7339  -11.5145  -15.3792 N   0  0  0  0  0  0  0  0  0  0  0  0
   16.2819  -10.2877  -14.7532 C   0  0  0  0  0  0  0  0  0  0  0  0
   17.3455   -9.2492  -14.9998 C   0  0  0  0  0  0  0  0  0  0  0  0
   18.4309   -9.5389  -15.5677 O   0  0  0  0  0  0  0  0  0  0  0  0
   17.1349   -7.9165  -14.5903 N   0  0  0  0  0  0  0  0  0  0  0  0
   18.0955   -6.8470  -14.9687 C   0  0  1  0  0  0  0  0  0  0  0  0
   18.2125   -6.9772  -16.4455 C   0  0  0  0  0  0  0  0  0  0  0  0
   19.1315   -6.0947  -17.1826 C   0  0  0  0  0  0  0  0  0  0  0  0
   19.2224   -6.3095  -18.6232 C   0  0  0  0  0  0  0  0  0  0  0  0
   19.8194   -7.2975  -19.0971 O   0  0  0  0  0  0  0  0  0  0  0  0
   17.6214   -5.6078  -14.3880 C   0  0  0  0  0  0  0  0  0  0  0  0
   18.4672   -4.5254  -14.2375 O   0  0  0  0  0  0  0  0  0  0  0  0
   18.6241   -5.3814  -19.4688 O   0  0  0  0  0  0  0  0  0  0  0  0
   16.4335   -5.4827  -14.0067 O   0  0  0  0  0  0  0  0  0  0  0  0
  1  2  1  0
  2  3  2  0
  4  2  1  0
  4  5  1  0
  6  5  1  0
  6  8  1  0
  6  7  1  1
  8 10  1  0
  9  8  2  0
 10 11  1  0
 12 11  1  0
 12 13  2  0
 14 12  1  0
 15 14  1  0
 15 20  1  0
 15 16  1  6
 17 18  1  0
 17 16  1  0
 18 22  1  0
 18 19  2  0
 20 23  2  0
 20 21  1  0
M  END
$$$$
