QGE.pdb
     RDKit          3D

 23 22  0  0  1  0  0  0  0  0999 V2000
   24.1473  -20.9848   -9.8696 N   0  0  0  0  0  0  0  0  0  0  0  0
   25.5076  -20.9416   -9.4304 C   0  0  0  0  0  0  0  0  0  0  0  0
   25.6609  -21.3442   -8.2265 O   0  0  0  0  0  0  0  0  0  0  0  0
   26.6034  -20.4786  -10.2777 C   0  0  0  0  0  0  0  0  0  0  0  0
   26.2358  -20.0269  -11.6530 C   0  0  0  0  0  0  0  0  0  0  0  0
   25.8480  -21.1141  -12.6099 C   0  0  2  0  0  0  0  0  0  0  0  0
   26.9157  -22.0226  -12.9294 N   0  0  0  0  0  0  0  0  0  0  0  0
   25.2162  -20.6167  -13.8222 C   0  0  0  0  0  0  0  0  0  0  0  0
   25.8275  -19.6890  -14.4557 O   0  0  0  0  0  0  0  0  0  0  0  0
   23.9987  -21.1057  -14.3057 N   0  0  0  0  0  0  0  0  0  0  0  0
   23.1730  -20.3189  -15.2002 C   0  0  0  0  0  0  0  0  0  0  0  0
   21.8565  -20.0949  -14.5023 C   0  0  0  0  0  0  0  0  0  0  0  0
   21.7395  -20.2293  -13.2562 O   0  0  0  0  0  0  0  0  0  0  0  0
   20.7189  -19.7256  -15.2491 N   0  0  0  0  0  0  0  0  0  0  0  0
   19.4094  -19.5117  -14.5790 C   0  0  1  0  0  0  0  0  0  0  0  0
   18.6781  -18.6052  -15.5036 C   0  0  0  0  0  0  0  0  0  0  0  0
   18.2142  -19.1136  -16.8047 C   0  0  0  0  0  0  0  0  0  0  0  0
   17.2196  -18.3040  -17.5012 C   0  0  0  0  0  0  0  0  0  0  0  0
   16.7559  -17.2634  -16.9922 O   0  0  0  0  0  0  0  0  0  0  0  0
   18.8624  -20.8147  -14.2619 C   0  0  0  0  0  0  0  0  0  0  0  0
   17.8653  -20.9543  -13.3153 O   0  0  0  0  0  0  0  0  0  0  0  0
   16.7930  -18.7187  -18.7584 O   0  0  0  0  0  0  0  0  0  0  0  0
   19.2770  -21.8496  -14.8356 O   0  0  0  0  0  0  0  0  0  0  0  0
  1  2  1  0
  2  3  2  0
  4  2  1  0
  4  5  1  0
  6  5  1  0
  6  8  1  0
  6  7  1  6
  8 10  1  0
  9  8  2  0
 10 11  1  0
 12 11  1  0
 12 13  2  0
 14 12  1  0
 15 14  1  0
 15 20  1  0
 15 16  1  6
 17 18  1  0
 17 16  1  0
 18 22  1  0
 18 19  2  0
 20 23  2  0
 20 21  1  0
M  END
$$$$
