QGE.pdb
     RDKit          3D

 23 22  0  0  1  0  0  0  0  0999 V2000
   15.8180  -27.7847   -4.2017 N   0  0  0  0  0  0  0  0  0  0  0  0
   15.8990  -28.4971   -5.4391 C   0  0  0  0  0  0  0  0  0  0  0  0
   15.3598  -29.6554   -5.3894 O   0  0  0  0  0  0  0  0  0  0  0  0
   16.5393  -27.9497   -6.6323 C   0  0  0  0  0  0  0  0  0  0  0  0
   17.1228  -26.5808   -6.5056 C   0  0  0  0  0  0  0  0  0  0  0  0
   16.1319  -25.4650   -6.3608 C   0  0  2  0  0  0  0  0  0  0  0  0
   16.0044  -24.6383   -7.5303 N   0  0  0  0  0  0  0  0  0  0  0  0
   16.3510  -24.6496   -5.1762 C   0  0  0  0  0  0  0  0  0  0  0  0
   17.5404  -24.2235   -4.9777 O   0  0  0  0  0  0  0  0  0  0  0  0
   15.3339  -24.3234   -4.2738 N   0  0  0  0  0  0  0  0  0  0  0  0
   15.5793  -23.4433   -3.1485 C   0  0  0  0  0  0  0  0  0  0  0  0
   14.2574  -23.2342   -2.4560 C   0  0  0  0  0  0  0  0  0  0  0  0
   13.2063  -23.7991   -2.8570 O   0  0  0  0  0  0  0  0  0  0  0  0
   14.1795  -22.3885   -1.3305 N   0  0  0  0  0  0  0  0  0  0  0  0
   12.8870  -22.1822   -0.6260 C   0  0  1  0  0  0  0  0  0  0  0  0
   13.2886  -21.7823    0.7489 C   0  0  0  0  0  0  0  0  0  0  0  0
   14.0725  -22.7131    1.5771 C   0  0  0  0  0  0  0  0  0  0  0  0
   13.4664  -23.1286    2.8380 C   0  0  0  0  0  0  0  0  0  0  0  0
   12.3722  -22.6644    3.2178 O   0  0  0  0  0  0  0  0  0  0  0  0
   12.0865  -21.2858   -1.4341 C   0  0  0  0  0  0  0  0  0  0  0  0
   10.7608  -21.0456   -1.1263 O   0  0  0  0  0  0  0  0  0  0  0  0
   14.1391  -24.0632    3.6181 O   0  0  0  0  0  0  0  0  0  0  0  0
   12.5723  -20.7042   -2.4330 O   0  0  0  0  0  0  0  0  0  0  0  0
  1  2  1  0
  2  3  2  0
  4  2  1  0
  4  5  1  0
  6  5  1  0
  6  8  1  0
  6  7  1  6
  8 10  1  0
  9  8  2  0
 10 11  1  0
 12 11  1  0
 12 13  2  0
 14 12  1  0
 15 14  1  0
 15 20  1  0
 15 16  1  1
 17 18  1  0
 17 16  1  0
 18 22  1  0
 18 19  2  0
 20 23  2  0
 20 21  1  0
M  END
$$$$
