QGE.pdb
     RDKit          3D

 23 22  0  0  1  0  0  0  0  0999 V2000
   30.2503  -21.4585  -11.0316 N   0  0  0  0  0  0  0  0  0  0  0  0
   29.1628  -20.6877  -10.5136 C   0  0  0  0  0  0  0  0  0  0  0  0
   29.0526  -20.7636   -9.2420 O   0  0  0  0  0  0  0  0  0  0  0  0
   28.2709  -19.9001  -11.3606 C   0  0  0  0  0  0  0  0  0  0  0  0
   26.8138  -20.2141  -11.2655 C   0  0  0  0  0  0  0  0  0  0  0  0
   26.2931  -21.1865  -12.2811 C   0  0  2  0  0  0  0  0  0  0  0  0
   26.6857  -20.8900  -13.6321 N   0  0  0  0  0  0  0  0  0  0  0  0
   24.8556  -21.3932  -12.1970 C   0  0  0  0  0  0  0  0  0  0  0  0
   24.3778  -21.6812  -11.0463 O   0  0  0  0  0  0  0  0  0  0  0  0
   24.0024  -21.2888  -13.3000 N   0  0  0  0  0  0  0  0  0  0  0  0
   22.5990  -21.6381  -13.2022 C   0  0  0  0  0  0  0  0  0  0  0  0
   21.8169  -20.3547  -13.3100 C   0  0  0  0  0  0  0  0  0  0  0  0
   22.2937  -19.2571  -12.9195 O   0  0  0  0  0  0  0  0  0  0  0  0
   20.5184  -20.3669  -13.8593 N   0  0  0  0  0  0  0  0  0  0  0  0
   19.7478  -19.1048  -14.0104 C   0  0  1  0  0  0  0  0  0  0  0  0
   19.3685  -19.0869  -15.4482 C   0  0  0  0  0  0  0  0  0  0  0  0
   20.4010  -18.8475  -16.4696 C   0  0  0  0  0  0  0  0  0  0  0  0
   19.9364  -18.7322  -17.8482 C   0  0  0  0  0  0  0  0  0  0  0  0
   19.4266  -17.6769  -18.2767 O   0  0  0  0  0  0  0  0  0  0  0  0
   18.7184  -19.0962  -12.9917 C   0  0  0  0  0  0  0  0  0  0  0  0
   18.2509  -17.9070  -12.4654 O   0  0  0  0  0  0  0  0  0  0  0  0
   20.0739  -19.8337  -18.6862 O   0  0  0  0  0  0  0  0  0  0  0  0
   18.2239  -20.1644  -12.5598 O   0  0  0  0  0  0  0  0  0  0  0  0
  1  2  1  0
  2  3  2  0
  4  2  1  0
  4  5  1  0
  6  5  1  0
  6  8  1  0
  6  7  1  6
  8 10  1  0
  9  8  2  0
 10 11  1  0
 12 11  1  0
 12 13  2  0
 14 12  1  0
 15 14  1  0
 15 20  1  0
 15 16  1  6
 17 18  1  0
 17 16  1  0
 18 22  1  0
 18 19  2  0
 20 23  2  0
 20 21  1  0
M  END
$$$$
