QGE.pdb
     RDKit          3D

 23 22  0  0  1  0  0  0  0  0999 V2000
   24.4268  -20.7291   -7.9884 N   0  0  0  0  0  0  0  0  0  0  0  0
   24.7942  -20.8111   -9.3680 C   0  0  0  0  0  0  0  0  0  0  0  0
   23.8515  -20.4691  -10.1613 O   0  0  0  0  0  0  0  0  0  0  0  0
   26.1144  -21.2470   -9.8157 C   0  0  0  0  0  0  0  0  0  0  0  0
   26.8060  -20.3665  -10.8041 C   0  0  0  0  0  0  0  0  0  0  0  0
   26.2346  -20.3750  -12.1903 C   0  0  2  0  0  0  0  0  0  0  0  0
   26.3142  -21.6502  -12.8497 N   0  0  0  0  0  0  0  0  0  0  0  0
   26.7689  -19.3224  -13.0404 C   0  0  0  0  0  0  0  0  0  0  0  0
   27.0384  -18.2051  -12.4795 O   0  0  0  0  0  0  0  0  0  0  0  0
   26.9932  -19.4864  -14.4108 N   0  0  0  0  0  0  0  0  0  0  0  0
   27.5893  -18.4326  -15.2078 C   0  0  0  0  0  0  0  0  0  0  0  0
   26.9746  -18.5171  -16.5809 C   0  0  0  0  0  0  0  0  0  0  0  0
   26.6501  -19.6211  -17.0914 O   0  0  0  0  0  0  0  0  0  0  0  0
   26.7509  -17.3402  -17.3245 N   0  0  0  0  0  0  0  0  0  0  0  0
   25.9906  -17.3836  -18.6011 C   0  0  1  0  0  0  0  0  0  0  0  0
   25.2687  -16.0838  -18.6320 C   0  0  0  0  0  0  0  0  0  0  0  0
   24.4055  -15.7586  -19.7791 C   0  0  0  0  0  0  0  0  0  0  0  0
   23.7556  -14.4522  -19.7531 C   0  0  0  0  0  0  0  0  0  0  0  0
   23.9211  -13.6623  -18.8014 O   0  0  0  0  0  0  0  0  0  0  0  0
   26.9255  -17.7160  -19.6560 C   0  0  0  0  0  0  0  0  0  0  0  0
   26.5627  -18.5653  -20.6840 O   0  0  0  0  0  0  0  0  0  0  0  0
   22.9382  -14.0994  -20.8217 O   0  0  0  0  0  0  0  0  0  0  0  0
   28.0869  -17.2438  -19.6662 O   0  0  0  0  0  0  0  0  0  0  0  0
  1  2  1  0
  2  3  2  0
  4  2  1  0
  4  5  1  0
  6  5  1  0
  6  8  1  0
  6  7  1  6
  8 10  1  0
  9  8  2  0
 10 11  1  0
 12 11  1  0
 12 13  2  0
 14 12  1  0
 15 14  1  0
 15 20  1  0
 15 16  1  6
 17 18  1  0
 17 16  1  0
 18 22  1  0
 18 19  2  0
 20 23  2  0
 20 21  1  0
M  END
$$$$
