QGE.pdb
     RDKit          3D

 23 22  0  0  1  0  0  0  0  0999 V2000
   24.3092  -34.3137   -9.4264 N   0  0  0  0  0  0  0  0  0  0  0  0
   24.1145  -32.9017   -9.3091 C   0  0  0  0  0  0  0  0  0  0  0  0
   23.5833  -32.3787  -10.3480 O   0  0  0  0  0  0  0  0  0  0  0  0
   24.4918  -32.1423   -8.1199 C   0  0  0  0  0  0  0  0  0  0  0  0
   25.1847  -32.9025   -7.0371 C   0  0  0  0  0  0  0  0  0  0  0  0
   26.6591  -32.6588   -6.9160 C   0  0  2  0  0  0  0  0  0  0  0  0
   27.4036  -32.9620   -8.1081 N   0  0  0  0  0  0  0  0  0  0  0  0
   27.2570  -33.3053   -5.7581 C   0  0  0  0  0  0  0  0  0  0  0  0
   27.4858  -32.5697   -4.7373 O   0  0  0  0  0  0  0  0  0  0  0  0
   27.5792  -34.6656   -5.7235 N   0  0  0  0  0  0  0  0  0  0  0  0
   26.9840  -35.5558   -4.7466 C   0  0  0  0  0  0  0  0  0  0  0  0
   28.1074  -36.0941   -3.8987 C   0  0  0  0  0  0  0  0  0  0  0  0
   29.3111  -35.8274   -4.1524 O   0  0  0  0  0  0  0  0  0  0  0  0
   27.8196  -36.9179   -2.7912 N   0  0  0  0  0  0  0  0  0  0  0  0
   28.9145  -37.5801   -2.0348 C   0  0  1  0  0  0  0  0  0  0  0  0
   29.0427  -36.7611   -0.8001 C   0  0  0  0  0  0  0  0  0  0  0  0
   30.0875  -37.0878    0.1839 C   0  0  0  0  0  0  0  0  0  0  0  0
   30.1681  -36.2234    1.3569 C   0  0  0  0  0  0  0  0  0  0  0  0
   29.4144  -36.3864    2.3380 O   0  0  0  0  0  0  0  0  0  0  0  0
   28.5894  -38.9880   -1.9372 C   0  0  0  0  0  0  0  0  0  0  0  0
   29.5611  -39.9209   -1.6285 O   0  0  0  0  0  0  0  0  0  0  0  0
   31.1120  -35.2019    1.3614 O   0  0  0  0  0  0  0  0  0  0  0  0
   27.4206  -39.3989   -2.1296 O   0  0  0  0  0  0  0  0  0  0  0  0
  1  2  1  0
  2  3  2  0
  4  2  1  0
  4  5  1  0
  6  5  1  0
  6  8  1  0
  6  7  1  6
  8 10  1  0
  9  8  2  0
 10 11  1  0
 12 11  1  0
 12 13  2  0
 14 12  1  0
 15 14  1  0
 15 20  1  0
 15 16  1  1
 17 18  1  0
 17 16  1  0
 18 22  1  0
 18 19  2  0
 20 23  2  0
 20 21  1  0
M  END
$$$$
