QGE.pdb
     RDKit          3D

 23 22  0  0  1  0  0  0  0  0999 V2000
   22.6051  -16.4585  -15.8501 N   0  0  0  0  0  0  0  0  0  0  0  0
   21.2140  -16.1591  -15.9935 C   0  0  0  0  0  0  0  0  0  0  0  0
   20.4587  -17.1736  -15.8059 O   0  0  0  0  0  0  0  0  0  0  0  0
   20.7167  -14.8265  -16.3253 C   0  0  0  0  0  0  0  0  0  0  0  0
   21.7462  -13.7639  -16.5293 C   0  0  0  0  0  0  0  0  0  0  0  0
   21.2172  -12.4147  -16.9140 C   0  0  2  0  0  0  0  0  0  0  0  0
   20.8432  -12.3042  -18.2979 N   0  0  0  0  0  0  0  0  0  0  0  0
   22.0952  -11.3204  -16.5296 C   0  0  0  0  0  0  0  0  0  0  0  0
   23.1289  -11.1239  -17.2565 O   0  0  0  0  0  0  0  0  0  0  0  0
   21.8532  -10.4980  -15.4249 N   0  0  0  0  0  0  0  0  0  0  0  0
   22.8275   -9.5177  -14.9880 C   0  0  0  0  0  0  0  0  0  0  0  0
   22.3724   -8.1802  -15.5121 C   0  0  0  0  0  0  0  0  0  0  0  0
   21.8762   -8.0568  -16.6624 O   0  0  0  0  0  0  0  0  0  0  0  0
   22.4988   -7.0298  -14.7068 N   0  0  0  0  0  0  0  0  0  0  0  0
   21.9153   -5.7333  -15.1408 C   0  0  1  0  0  0  0  0  0  0  0  0
   20.4881   -6.0547  -15.4078 C   0  0  0  0  0  0  0  0  0  0  0  0
   19.5093   -5.9845  -14.3107 C   0  0  0  0  0  0  0  0  0  0  0  0
   18.1343   -6.3432  -14.6429 C   0  0  0  0  0  0  0  0  0  0  0  0
   17.6581   -7.4534  -14.3303 O   0  0  0  0  0  0  0  0  0  0  0  0
   22.2579   -4.7429  -14.1413 C   0  0  0  0  0  0  0  0  0  0  0  0
   22.7609   -5.1210  -12.9109 O   0  0  0  0  0  0  0  0  0  0  0  0
   17.3547   -5.4134  -15.3228 O   0  0  0  0  0  0  0  0  0  0  0  0
   22.1083   -3.5181  -14.3635 O   0  0  0  0  0  0  0  0  0  0  0  0
  1  2  1  0
  2  3  2  0
  4  2  1  0
  4  5  1  0
  6  5  1  0
  6  8  1  0
  6  7  1  6
  8 10  1  0
  9  8  2  0
 10 11  1  0
 12 11  1  0
 12 13  2  0
 14 12  1  0
 15 14  1  0
 15 20  1  0
 15 16  1  1
 17 18  1  0
 17 16  1  0
 18 22  1  0
 18 19  2  0
 20 23  2  0
 20 21  1  0
M  END
$$$$
