QGE.pdb
     RDKit          3D

 23 22  0  0  1  0  0  0  0  0999 V2000
   30.3787  -20.2045  -11.2986 N   0  0  0  0  0  0  0  0  0  0  0  0
   29.8665  -21.4558  -10.8328 C   0  0  0  0  0  0  0  0  0  0  0  0
   30.4696  -21.8909   -9.7927 O   0  0  0  0  0  0  0  0  0  0  0  0
   28.7679  -22.1600  -11.4888 C   0  0  0  0  0  0  0  0  0  0  0  0
   28.1576  -21.4848  -12.6730 C   0  0  0  0  0  0  0  0  0  0  0  0
   27.0862  -20.4818  -12.3659 C   0  0  2  0  0  0  0  0  0  0  0  0
   26.0598  -20.9708  -11.4858 N   0  0  0  0  0  0  0  0  0  0  0  0
   26.5011  -19.8813  -13.5547 C   0  0  0  0  0  0  0  0  0  0  0  0
   27.3069  -19.5329  -14.4846 O   0  0  0  0  0  0  0  0  0  0  0  0
   25.1263  -19.6796  -13.7116 N   0  0  0  0  0  0  0  0  0  0  0  0
   24.5829  -19.1088  -14.9282 C   0  0  0  0  0  0  0  0  0  0  0  0
   23.0823  -19.1292  -14.7927 C   0  0  0  0  0  0  0  0  0  0  0  0
   22.5135  -19.7416  -13.8515 O   0  0  0  0  0  0  0  0  0  0  0  0
   22.2823  -18.4507  -15.7348 N   0  0  0  0  0  0  0  0  0  0  0  0
   20.8003  -18.4654  -15.6206 C   0  0  1  0  0  0  0  0  0  0  0  0
   20.3616  -17.3587  -16.5119 C   0  0  0  0  0  0  0  0  0  0  0  0
   18.9339  -17.0088  -16.5880 C   0  0  0  0  0  0  0  0  0  0  0  0
   18.5762  -15.9369  -17.5114 C   0  0  0  0  0  0  0  0  0  0  0  0
   19.4462  -15.3151  -18.1544 O   0  0  0  0  0  0  0  0  0  0  0  0
   20.3552  -19.8194  -15.8775 C   0  0  0  0  0  0  0  0  0  0  0  0
   19.2285  -20.3256  -15.2578 O   0  0  0  0  0  0  0  0  0  0  0  0
   17.2312  -15.6172  -17.6635 O   0  0  0  0  0  0  0  0  0  0  0  0
   20.9778  -20.5683  -16.6671 O   0  0  0  0  0  0  0  0  0  0  0  0
  1  2  1  0
  2  3  2  0
  4  2  1  0
  4  5  1  0
  6  5  1  0
  6  8  1  0
  6  7  1  6
  8 10  1  0
  9  8  2  0
 10 11  1  0
 12 11  1  0
 12 13  2  0
 14 12  1  0
 15 14  1  0
 15 20  1  0
 15 16  1  6
 17 18  1  0
 17 16  1  0
 18 22  1  0
 18 19  2  0
 20 23  2  0
 20 21  1  0
M  END
$$$$
