QGE.pdb
     RDKit          3D

 23 22  0  0  1  0  0  0  0  0999 V2000
   24.0361  -21.6483   -7.9224 N   0  0  0  0  0  0  0  0  0  0  0  0
   24.1216  -20.7779   -9.0539 C   0  0  0  0  0  0  0  0  0  0  0  0
   23.0069  -20.6341   -9.6637 O   0  0  0  0  0  0  0  0  0  0  0  0
   25.3627  -20.1273   -9.4658 C   0  0  0  0  0  0  0  0  0  0  0  0
   25.5944  -20.0068  -10.9363 C   0  0  0  0  0  0  0  0  0  0  0  0
   26.5126  -21.0306  -11.5335 C   0  0  2  0  0  0  0  0  0  0  0  0
   27.8401  -21.0211  -10.9812 N   0  0  0  0  0  0  0  0  0  0  0  0
   26.5600  -20.9845  -12.9867 C   0  0  0  0  0  0  0  0  0  0  0  0
   25.5316  -21.4136  -13.6140 O   0  0  0  0  0  0  0  0  0  0  0  0
   27.6599  -20.4989  -13.7007 N   0  0  0  0  0  0  0  0  0  0  0  0
   27.6737  -20.4929  -15.1501 C   0  0  0  0  0  0  0  0  0  0  0  0
   26.7247  -19.4104  -15.5955 C   0  0  0  0  0  0  0  0  0  0  0  0
   26.1325  -18.6708  -14.7668 O   0  0  0  0  0  0  0  0  0  0  0  0
   26.4838  -19.2087  -16.9700 N   0  0  0  0  0  0  0  0  0  0  0  0
   25.6455  -18.0720  -17.4334 C   0  0  1  0  0  0  0  0  0  0  0  0
   26.3149  -17.6192  -18.6817 C   0  0  0  0  0  0  0  0  0  0  0  0
   25.9216  -16.3401  -19.2949 C   0  0  0  0  0  0  0  0  0  0  0  0
   25.9777  -16.2738  -20.7516 C   0  0  0  0  0  0  0  0  0  0  0  0
   26.7217  -17.0297  -21.4090 O   0  0  0  0  0  0  0  0  0  0  0  0
   24.2722  -18.5300  -17.4754 C   0  0  0  0  0  0  0  0  0  0  0  0
   23.2258  -17.6571  -17.2452 O   0  0  0  0  0  0  0  0  0  0  0  0
   25.1766  -15.3412  -21.4019 O   0  0  0  0  0  0  0  0  0  0  0  0
   23.9948  -19.7278  -17.7210 O   0  0  0  0  0  0  0  0  0  0  0  0
  1  2  1  0
  2  3  2  0
  4  2  1  0
  4  5  1  0
  6  5  1  0
  6  8  1  0
  6  7  1  1
  8 10  1  0
  9  8  2  0
 10 11  1  0
 12 11  1  0
 12 13  2  0
 14 12  1  0
 15 14  1  0
 15 20  1  0
 15 16  1  6
 17 18  1  0
 17 16  1  0
 18 22  1  0
 18 19  2  0
 20 23  2  0
 20 21  1  0
M  END
$$$$
