QGE.pdb
     RDKit          3D

 23 22  0  0  1  0  0  0  0  0999 V2000
   23.8351  -21.3657  -10.3858 N   0  0  0  0  0  0  0  0  0  0  0  0
   24.4254  -20.6008   -9.3315 C   0  0  0  0  0  0  0  0  0  0  0  0
   23.5973  -20.2961   -8.4061 O   0  0  0  0  0  0  0  0  0  0  0  0
   25.8323  -20.2085   -9.3241 C   0  0  0  0  0  0  0  0  0  0  0  0
   26.6494  -20.6398  -10.4974 C   0  0  0  0  0  0  0  0  0  0  0  0
   25.8986  -20.8030  -11.7850 C   0  0  2  0  0  0  0  0  0  0  0  0
   25.2268  -22.0675  -11.9159 N   0  0  0  0  0  0  0  0  0  0  0  0
   26.7065  -20.5256  -12.9625 C   0  0  0  0  0  0  0  0  0  0  0  0
   27.0251  -19.3050  -13.1723 O   0  0  0  0  0  0  0  0  0  0  0  0
   27.1360  -21.5202  -13.8465 N   0  0  0  0  0  0  0  0  0  0  0  0
   27.5988  -21.1931  -15.1807 C   0  0  0  0  0  0  0  0  0  0  0  0
   26.4724  -21.5137  -16.1289 C   0  0  0  0  0  0  0  0  0  0  0  0
   25.9797  -22.6698  -16.2007 O   0  0  0  0  0  0  0  0  0  0  0  0
   25.9467  -20.5052  -16.9624 N   0  0  0  0  0  0  0  0  0  0  0  0
   24.4776  -20.3327  -17.1086 C   0  0  1  0  0  0  0  0  0  0  0  0
   23.9943  -20.1794  -15.7106 C   0  0  0  0  0  0  0  0  0  0  0  0
   22.9208  -21.0546  -15.2122 C   0  0  0  0  0  0  0  0  0  0  0  0
   22.1619  -20.5637  -14.0665 C   0  0  0  0  0  0  0  0  0  0  0  0
   22.3681  -19.4302  -13.5872 O   0  0  0  0  0  0  0  0  0  0  0  0
   24.2551  -19.2728  -18.0701 C   0  0  0  0  0  0  0  0  0  0  0  0
   23.1170  -19.2529  -18.8538 O   0  0  0  0  0  0  0  0  0  0  0  0
   21.1926  -21.3926  -13.5117 O   0  0  0  0  0  0  0  0  0  0  0  0
   25.0866  -18.3460  -18.2182 O   0  0  0  0  0  0  0  0  0  0  0  0
  1  2  1  0
  2  3  2  0
  4  2  1  0
  4  5  1  0
  6  5  1  0
  6  8  1  0
  6  7  1  6
  8 10  1  0
  9  8  2  0
 10 11  1  0
 12 11  1  0
 12 13  2  0
 14 12  1  0
 15 14  1  0
 15 20  1  0
 15 16  1  1
 17 18  1  0
 17 16  1  0
 18 22  1  0
 18 19  2  0
 20 23  2  0
 20 21  1  0
M  END
$$$$
