QGE.pdb
     RDKit          3D

 23 22  0  0  1  0  0  0  0  0999 V2000
   25.3436  -21.0521   -8.2958 N   0  0  0  0  0  0  0  0  0  0  0  0
   26.4516  -20.6716   -9.1161 C   0  0  0  0  0  0  0  0  0  0  0  0
   27.5815  -20.8198   -8.5362 O   0  0  0  0  0  0  0  0  0  0  0  0
   26.2972  -20.1623  -10.4762 C   0  0  0  0  0  0  0  0  0  0  0  0
   25.5752  -21.0460  -11.4397 C   0  0  0  0  0  0  0  0  0  0  0  0
   26.1657  -21.1231  -12.8157 C   0  0  2  0  0  0  0  0  0  0  0  0
   27.0712  -20.0504  -13.1263 N   0  0  0  0  0  0  0  0  0  0  0  0
   25.1678  -21.2734  -13.8635 C   0  0  0  0  0  0  0  0  0  0  0  0
   24.5158  -22.3732  -13.8895 O   0  0  0  0  0  0  0  0  0  0  0  0
   24.9035  -20.2835  -14.8151 N   0  0  0  0  0  0  0  0  0  0  0  0
   23.9060  -20.4794  -15.8484 C   0  0  0  0  0  0  0  0  0  0  0  0
   22.5742  -20.1034  -15.2523 C   0  0  0  0  0  0  0  0  0  0  0  0
   22.3589  -20.1851  -14.0147 O   0  0  0  0  0  0  0  0  0  0  0  0
   21.5338  -19.6474  -16.0876 N   0  0  0  0  0  0  0  0  0  0  0  0
   20.2280  -19.2306  -15.5126 C   0  0  1  0  0  0  0  0  0  0  0  0
   19.6089  -18.4105  -16.5876 C   0  0  0  0  0  0  0  0  0  0  0  0
   20.1940  -17.1052  -16.9347 C   0  0  0  0  0  0  0  0  0  0  0  0
   19.4892  -16.3263  -17.9478 C   0  0  0  0  0  0  0  0  0  0  0  0
   19.5041  -16.6585  -19.1505 O   0  0  0  0  0  0  0  0  0  0  0  0
   19.5583  -20.4237  -15.0377 C   0  0  0  0  0  0  0  0  0  0  0  0
   18.7137  -20.3760  -13.9450 O   0  0  0  0  0  0  0  0  0  0  0  0
   18.7917  -15.1931  -17.5431 O   0  0  0  0  0  0  0  0  0  0  0  0
   19.7255  -21.5302  -15.6032 O   0  0  0  0  0  0  0  0  0  0  0  0
  1  2  1  0
  2  3  2  0
  4  2  1  0
  4  5  1  0
  6  5  1  0
  6  8  1  0
  6  7  1  6
  8 10  1  0
  9  8  2  0
 10 11  1  0
 12 11  1  0
 12 13  2  0
 14 12  1  0
 15 14  1  0
 15 20  1  0
 15 16  1  6
 17 18  1  0
 17 16  1  0
 18 22  1  0
 18 19  2  0
 20 23  2  0
 20 21  1  0
M  END
$$$$
