PFR.pdb
     RDKit          3D

 30 31  0  0  1  0  0  0  0  0999 V2000
    7.1784  -15.1054   19.1580 N   0  0  0  0  0  0  0  0  0  0  0  0
    6.7818  -14.8572   17.7655 C   0  0  0  0  0  0  0  0  0  0  0  0
    7.2235  -13.4588   17.4504 C   0  0  0  0  0  0  0  0  0  0  0  0
    7.9319  -12.9809   18.7036 C   0  0  0  0  0  0  0  0  0  0  0  0
    8.3614  -14.2902   19.3260 C   0  0  1  0  0  0  0  0  0  0  0  0
    8.6817  -14.1689   20.7484 C   0  0  0  0  0  0  0  0  0  0  0  0
    9.7342  -13.6319   21.1895 O   0  0  0  0  0  0  0  0  0  0  0  0
    7.7767  -14.6746   21.7143 N   0  0  0  0  0  0  0  0  0  0  0  0
    7.9736  -14.4911   23.1424 C   0  0  1  0  0  0  0  0  0  0  0  0
    6.6707  -14.1517   23.8265 C   0  0  0  0  0  0  0  0  0  0  0  0
    6.8042  -13.6246   25.1791 C   0  0  0  0  0  0  0  0  0  0  0  0
    6.6575  -12.2842   25.4554 C   0  0  0  0  0  0  0  0  0  0  0  0
    6.7750  -11.7747   26.7257 C   0  0  0  0  0  0  0  0  0  0  0  0
    7.0495  -12.6234   27.7721 C   0  0  0  0  0  0  0  0  0  0  0  0
    7.2029  -13.9730   27.5330 C   0  0  0  0  0  0  0  0  0  0  0  0
    7.0784  -14.4646   26.2324 C   0  0  0  0  0  0  0  0  0  0  0  0
    8.6455  -15.6747   23.7442 C   0  0  0  0  0  0  0  0  0  0  0  0
    8.2633  -16.8463   23.5653 O   0  0  0  0  0  0  0  0  0  0  0  0
   17.1408  -17.0556   25.7318 N   0  0  0  0  0  0  0  0  0  0  0  0
   16.7179  -17.8817   24.6564 C   0  0  0  0  0  0  0  0  0  0  0  0
   17.5420  -18.8309   24.2909 N   0  0  0  0  0  0  0  0  0  0  0  0
   15.4733  -17.7168   23.9883 N   0  0  0  0  0  0  0  0  0  0  0  0
   14.6058  -16.6612   24.4665 C   0  0  0  0  0  0  0  0  0  0  0  0
   13.2152  -17.0449   24.7424 C   0  0  0  0  0  0  0  0  0  0  0  0
   12.0770  -16.1813   24.5196 C   0  0  0  0  0  0  0  0  0  0  0  0
   10.7058  -16.6570   24.8036 C   0  0  2  0  0  0  0  0  0  0  0  0
    9.7772  -15.4785   24.5637 N   0  0  0  0  0  0  0  0  0  0  0  0
   10.4963  -16.8956   26.2378 C   0  0  0  0  0  0  0  0  0  0  0  0
   10.5954  -18.0993   26.8689 O   0  0  0  0  0  0  0  0  0  0  0  0
   10.1871  -15.9090   26.9879 O   0  0  0  0  0  0  0  0  0  0  0  0
  1  5  1  0
  2  1  1  0
  2  3  1  0
  3  4  1  0
  5  6  1  1
  5  4  1  0
  6  7  2  0
  8  6  1  0
  8  9  1  0
  9 10  1  1
 11 10  1  0
 12 11  2  0
 13 12  1  0
 14 15  1  0
 14 13  2  0
 15 16  2  0
 16 11  1  0
 17 27  1  0
 17  9  1  0
 18 17  2  0
 19 20  1  0
 20 22  1  0
 21 20  2  0
 22 23  1  0
 23 24  1  0
 24 25  1  0
 26 25  1  1
 26 27  1  0
 28 29  1  0
 28 26  1  0
 30 28  2  0
M  END
$$$$
