PFR.pdb
     RDKit          3D

 30 31  0  0  1  0  0  0  0  0999 V2000
    7.8862  -15.0387   19.0659 N   0  0  0  0  0  0  0  0  0  0  0  0
    7.6269  -14.8375   17.6342 C   0  0  0  0  0  0  0  0  0  0  0  0
    8.1069  -13.4527   17.3153 C   0  0  0  0  0  0  0  0  0  0  0  0
    8.6953  -12.9343   18.6137 C   0  0  0  0  0  0  0  0  0  0  0  0
    9.0536  -14.2229   19.3189 C   0  0  1  0  0  0  0  0  0  0  0  0
    9.2369  -14.0534   20.7605 C   0  0  0  0  0  0  0  0  0  0  0  0
   10.2832  -13.5855   21.2868 O   0  0  0  0  0  0  0  0  0  0  0  0
    8.1960  -14.4276   21.6462 N   0  0  0  0  0  0  0  0  0  0  0  0
    8.2873  -14.2396   23.0844 C   0  0  1  0  0  0  0  0  0  0  0  0
    7.0110  -13.6466   23.6321 C   0  0  0  0  0  0  0  0  0  0  0  0
    7.0569  -13.2823   25.0429 C   0  0  0  0  0  0  0  0  0  0  0  0
    6.3919  -14.0094   26.0041 C   0  0  0  0  0  0  0  0  0  0  0  0
    6.4311  -13.6810   27.3373 C   0  0  0  0  0  0  0  0  0  0  0  0
    7.1581  -12.5868   27.7433 C   0  0  0  0  0  0  0  0  0  0  0  0
    7.8374  -11.8345   26.8081 C   0  0  0  0  0  0  0  0  0  0  0  0
    7.7809  -12.1903   25.4594 C   0  0  0  0  0  0  0  0  0  0  0  0
    8.6683  -15.5073   23.7645 C   0  0  0  0  0  0  0  0  0  0  0  0
    7.9827  -16.5457   23.7160 O   0  0  0  0  0  0  0  0  0  0  0  0
   13.5442  -15.2780   20.2533 N   0  0  0  0  0  0  0  0  0  0  0  0
   14.2980  -15.2904   21.4571 C   0  0  0  0  0  0  0  0  0  0  0  0
   15.4069  -14.5946   21.4582 N   0  0  0  0  0  0  0  0  0  0  0  0
   13.9014  -16.0081   22.6189 N   0  0  0  0  0  0  0  0  0  0  0  0
   13.1310  -17.2164   22.4136 C   0  0  0  0  0  0  0  0  0  0  0  0
   11.8235  -17.2686   23.0807 C   0  0  0  0  0  0  0  0  0  0  0  0
   11.6401  -17.1784   24.5121 C   0  0  0  0  0  0  0  0  0  0  0  0
   10.3062  -16.8902   25.0822 C   0  0  2  0  0  0  0  0  0  0  0  0
    9.8664  -15.5539   24.5082 N   0  0  0  0  0  0  0  0  0  0  0  0
   10.3812  -16.5727   26.5144 C   0  0  0  0  0  0  0  0  0  0  0  0
   10.5577  -15.3312   27.0480 O   0  0  0  0  0  0  0  0  0  0  0  0
   10.2810  -17.5228   27.3623 O   0  0  0  0  0  0  0  0  0  0  0  0
  1  5  1  0
  2  1  1  0
  2  3  1  0
  3  4  1  0
  5  6  1  1
  5  4  1  0
  6  7  2  0
  8  6  1  0
  8  9  1  0
  9 10  1  1
 11 10  1  0
 12 11  2  0
 13 12  1  0
 14 15  1  0
 14 13  2  0
 15 16  2  0
 16 11  1  0
 17 27  1  0
 17  9  1  0
 18 17  2  0
 19 20  1  0
 20 22  1  0
 21 20  2  0
 22 23  1  0
 23 24  1  0
 24 25  1  0
 26 25  1  6
 26 27  1  0
 28 29  1  0
 28 26  1  0
 30 28  2  0
M  END
$$$$
