PFR.pdb
     RDKit          3D

 30 31  0  0  1  0  0  0  0  0999 V2000
    7.4091  -15.0727   19.0352 N   0  0  0  0  0  0  0  0  0  0  0  0
    7.1429  -14.8372   17.6100 C   0  0  0  0  0  0  0  0  0  0  0  0
    7.7143  -13.4858   17.2980 C   0  0  0  0  0  0  0  0  0  0  0  0
    8.3573  -13.0251   18.5923 C   0  0  0  0  0  0  0  0  0  0  0  0
    8.6346  -14.3437   19.2782 C   0  0  1  0  0  0  0  0  0  0  0  0
    8.8513  -14.2042   20.7184 C   0  0  0  0  0  0  0  0  0  0  0  0
    9.9585  -13.8947   21.2369 O   0  0  0  0  0  0  0  0  0  0  0  0
    7.7733  -14.4232   21.6117 N   0  0  0  0  0  0  0  0  0  0  0  0
    7.8997  -14.2451   23.0485 C   0  0  1  0  0  0  0  0  0  0  0  0
    6.6952  -13.5279   23.6103 C   0  0  0  0  0  0  0  0  0  0  0  0
    6.7894  -13.1791   25.0226 C   0  0  0  0  0  0  0  0  0  0  0  0
    5.9774  -13.7588   25.9709 C   0  0  0  0  0  0  0  0  0  0  0  0
    6.0591  -13.4438   27.3055 C   0  0  0  0  0  0  0  0  0  0  0  0
    6.9823  -12.5158   27.7261 C   0  0  0  0  0  0  0  0  0  0  0  0
    7.8129  -11.9143   26.8040 C   0  0  0  0  0  0  0  0  0  0  0  0
    7.7090  -12.2526   25.4536 C   0  0  0  0  0  0  0  0  0  0  0  0
    8.1604  -15.5444   23.7256 C   0  0  0  0  0  0  0  0  0  0  0  0
    7.3998  -16.5269   23.6429 O   0  0  0  0  0  0  0  0  0  0  0  0
   14.7009  -19.2222   23.7310 N   0  0  0  0  0  0  0  0  0  0  0  0
   14.2022  -20.4263   24.2961 C   0  0  0  0  0  0  0  0  0  0  0  0
   15.0884  -21.3447   24.5877 N   0  0  0  0  0  0  0  0  0  0  0  0
   12.8215  -20.6578   24.5462 N   0  0  0  0  0  0  0  0  0  0  0  0
   11.8933  -19.6411   24.0985 C   0  0  0  0  0  0  0  0  0  0  0  0
   12.0249  -18.3233   24.7336 C   0  0  0  0  0  0  0  0  0  0  0  0
   11.2140  -17.1754   24.3934 C   0  0  0  0  0  0  0  0  0  0  0  0
    9.8044  -17.0941   24.8336 C   0  0  2  0  0  0  0  0  0  0  0  0
    9.3262  -15.6893   24.5070 N   0  0  0  0  0  0  0  0  0  0  0  0
    9.6881  -17.0999   26.2979 C   0  0  0  0  0  0  0  0  0  0  0  0
    9.8887  -16.0303   27.1182 O   0  0  0  0  0  0  0  0  0  0  0  0
    9.3779  -18.1899   26.8871 O   0  0  0  0  0  0  0  0  0  0  0  0
  1  5  1  0
  2  1  1  0
  2  3  1  0
  3  4  1  0
  5  6  1  1
  5  4  1  0
  6  7  2  0
  8  6  1  0
  8  9  1  0
  9 10  1  1
 11 10  1  0
 12 11  2  0
 13 12  1  0
 14 15  1  0
 14 13  2  0
 15 16  2  0
 16 11  1  0
 17 27  1  0
 17  9  1  0
 18 17  2  0
 19 20  1  0
 20 22  1  0
 21 20  2  0
 22 23  1  0
 23 24  1  0
 24 25  1  0
 26 25  1  1
 26 27  1  0
 28 29  1  0
 28 26  1  0
 30 28  2  0
M  END
$$$$
