PFR.pdb
     RDKit          3D

 30 31  0  0  1  0  0  0  0  0999 V2000
    7.6074  -14.9395   19.1254 N   0  0  0  0  0  0  0  0  0  0  0  0
    7.2970  -14.5631   17.7398 C   0  0  0  0  0  0  0  0  0  0  0  0
    7.8017  -13.1612   17.5667 C   0  0  0  0  0  0  0  0  0  0  0  0
    8.4551  -12.8148   18.8910 C   0  0  0  0  0  0  0  0  0  0  0  0
    8.8058  -14.1860   19.4230 C   0  0  1  0  0  0  0  0  0  0  0  0
    9.0508  -14.1939   20.8654 C   0  0  0  0  0  0  0  0  0  0  0  0
   10.1992  -14.1469   21.3845 O   0  0  0  0  0  0  0  0  0  0  0  0
    7.9540  -14.2575   21.7603 N   0  0  0  0  0  0  0  0  0  0  0  0
    8.1036  -14.0793   23.1948 C   0  0  1  0  0  0  0  0  0  0  0  0
    6.9925  -13.2198   23.7495 C   0  0  0  0  0  0  0  0  0  0  0  0
    7.1009  -12.9147   25.1709 C   0  0  0  0  0  0  0  0  0  0  0  0
    6.3517  -13.5776   26.1165 C   0  0  0  0  0  0  0  0  0  0  0  0
    6.4478  -13.3045   27.4593 C   0  0  0  0  0  0  0  0  0  0  0  0
    7.3213  -12.3344   27.8913 C   0  0  0  0  0  0  0  0  0  0  0  0
    8.0883  -11.6495   26.9723 C   0  0  0  0  0  0  0  0  0  0  0  0
    7.9711  -11.9468   25.6134 C   0  0  0  0  0  0  0  0  0  0  0  0
    8.2122  -15.3924   23.8866 C   0  0  0  0  0  0  0  0  0  0  0  0
    7.3704  -16.3024   23.7690 O   0  0  0  0  0  0  0  0  0  0  0  0
   12.4051  -22.2247   23.5922 N   0  0  0  0  0  0  0  0  0  0  0  0
   12.8303  -21.2071   22.6970 C   0  0  0  0  0  0  0  0  0  0  0  0
   13.5539  -21.5928   21.6765 N   0  0  0  0  0  0  0  0  0  0  0  0
   12.5070  -19.8327   22.8674 N   0  0  0  0  0  0  0  0  0  0  0  0
   12.6571  -19.2826   24.1980 C   0  0  0  0  0  0  0  0  0  0  0  0
   11.4321  -18.7704   24.8259 C   0  0  0  0  0  0  0  0  0  0  0  0
   10.8164  -17.5063   24.4887 C   0  0  0  0  0  0  0  0  0  0  0  0
    9.5824  -17.0648   25.1740 C   0  0  2  0  0  0  0  0  0  0  0  0
    9.3209  -15.6372   24.7242 N   0  0  0  0  0  0  0  0  0  0  0  0
    9.7961  -16.8734   26.6146 C   0  0  0  0  0  0  0  0  0  0  0  0
    9.4742  -17.7647   27.5940 O   0  0  0  0  0  0  0  0  0  0  0  0
   10.3239  -15.7831   27.0198 O   0  0  0  0  0  0  0  0  0  0  0  0
  1  5  1  0
  2  1  1  0
  2  3  1  0
  3  4  1  0
  5  6  1  1
  5  4  1  0
  6  7  2  0
  8  6  1  0
  8  9  1  0
  9 10  1  1
 11 10  1  0
 12 11  2  0
 13 12  1  0
 14 15  1  0
 14 13  2  0
 15 16  2  0
 16 11  1  0
 17 27  1  0
 17  9  1  0
 18 17  2  0
 19 20  1  0
 20 22  1  0
 21 20  2  0
 22 23  1  0
 23 24  1  0
 24 25  1  0
 26 25  1  6
 26 27  1  0
 28 29  1  0
 28 26  1  0
 30 28  2  0
M  END
$$$$
