PFR.pdb
     RDKit          3D

 30 31  0  0  1  0  0  0  0  0999 V2000
    7.2538  -14.9891   20.5513 N   0  0  0  0  0  0  0  0  0  0  0  0
    6.6794  -14.4737   19.3015 C   0  0  0  0  0  0  0  0  0  0  0  0
    7.2238  -13.0860   19.1348 C   0  0  0  0  0  0  0  0  0  0  0  0
    8.1656  -12.8922   20.3080 C   0  0  0  0  0  0  0  0  0  0  0  0
    8.5336  -14.3208   20.6395 C   0  0  1  0  0  0  0  0  0  0  0  0
    9.0798  -14.4719   21.9883 C   0  0  0  0  0  0  0  0  0  0  0  0
   10.2738  -14.2087   22.2977 O   0  0  0  0  0  0  0  0  0  0  0  0
    8.2440  -14.9398   23.0325 N   0  0  0  0  0  0  0  0  0  0  0  0
    8.6931  -15.0337   24.4114 C   0  0  1  0  0  0  0  0  0  0  0  0
    7.6419  -14.5039   25.3575 C   0  0  0  0  0  0  0  0  0  0  0  0
    8.0439  -14.4512   26.7578 C   0  0  0  0  0  0  0  0  0  0  0  0
    7.9427  -15.5464   27.5855 C   0  0  0  0  0  0  0  0  0  0  0  0
    8.3229  -15.5125   28.9051 C   0  0  0  0  0  0  0  0  0  0  0  0
    8.8259  -14.3474   29.4343 C   0  0  0  0  0  0  0  0  0  0  0  0
    8.9418  -13.2298   28.6347 C   0  0  0  0  0  0  0  0  0  0  0  0
    8.5481  -13.2913   27.2968 C   0  0  0  0  0  0  0  0  0  0  0  0
    9.1136  -16.4226   24.7416 C   0  0  0  0  0  0  0  0  0  0  0  0
    8.3291  -17.3892   24.7704 O   0  0  0  0  0  0  0  0  0  0  0  0
   12.6491  -20.8874   21.4799 N   0  0  0  0  0  0  0  0  0  0  0  0
   13.2006  -19.7996   20.7519 C   0  0  0  0  0  0  0  0  0  0  0  0
   13.1966  -19.9089   19.4473 N   0  0  0  0  0  0  0  0  0  0  0  0
   13.7375  -18.6378   21.3719 N   0  0  0  0  0  0  0  0  0  0  0  0
   13.7319  -18.6034   22.8191 C   0  0  0  0  0  0  0  0  0  0  0  0
   12.4192  -18.4307   23.4549 C   0  0  0  0  0  0  0  0  0  0  0  0
   12.2189  -18.3191   24.8825 C   0  0  0  0  0  0  0  0  0  0  0  0
   10.8669  -18.0886   25.4359 C   0  0  2  0  0  0  0  0  0  0  0  0
   10.4689  -16.6766   25.0404 N   0  0  0  0  0  0  0  0  0  0  0  0
   10.8876  -17.9775   26.9005 C   0  0  0  0  0  0  0  0  0  0  0  0
   10.6431  -18.9888   27.7806 O   0  0  0  0  0  0  0  0  0  0  0  0
   11.1495  -16.8445   27.4289 O   0  0  0  0  0  0  0  0  0  0  0  0
  1  5  1  0
  2  1  1  0
  2  3  1  0
  3  4  1  0
  5  6  1  1
  5  4  1  0
  6  7  2  0
  8  6  1  0
  8  9  1  0
  9 10  1  1
 11 10  1  0
 12 11  2  0
 13 12  1  0
 14 15  1  0
 14 13  2  0
 15 16  2  0
 16 11  1  0
 17 27  1  0
 17  9  1  0
 18 17  2  0
 19 20  1  0
 20 22  1  0
 21 20  2  0
 22 23  1  0
 23 24  1  0
 24 25  1  0
 26 25  1  6
 26 27  1  0
 28 29  1  0
 28 26  1  0
 30 28  2  0
M  END
$$$$
