PFR.pdb
     RDKit          3D

 30 31  0  0  1  0  0  0  0  0999 V2000
    6.4744  -18.3933   20.7412 N   0  0  0  0  0  0  0  0  0  0  0  0
    5.8065  -18.9488   19.5566 C   0  0  0  0  0  0  0  0  0  0  0  0
    5.7000  -17.8217   18.5725 C   0  0  0  0  0  0  0  0  0  0  0  0
    6.3930  -16.6508   19.2429 C   0  0  0  0  0  0  0  0  0  0  0  0
    7.3271  -17.3588   20.1980 C   0  0  1  0  0  0  0  0  0  0  0  0
    7.8051  -16.4935   21.2766 C   0  0  0  0  0  0  0  0  0  0  0  0
    8.7460  -15.6635   21.1485 O   0  0  0  0  0  0  0  0  0  0  0  0
    7.1961  -16.5675   22.5539 N   0  0  0  0  0  0  0  0  0  0  0  0
    7.6319  -15.7541   23.6766 C   0  0  1  0  0  0  0  0  0  0  0  0
    6.4475  -15.2113   24.4403 C   0  0  0  0  0  0  0  0  0  0  0  0
    6.7823  -14.3183   25.5429 C   0  0  0  0  0  0  0  0  0  0  0  0
    6.8322  -12.9520   25.3830 C   0  0  0  0  0  0  0  0  0  0  0  0
    7.1406  -12.0985   26.4143 C   0  0  0  0  0  0  0  0  0  0  0  0
    7.4123  -12.6133   27.6599 C   0  0  0  0  0  0  0  0  0  0  0  0
    7.3718  -13.9776   27.8574 C   0  0  0  0  0  0  0  0  0  0  0  0
    7.0556  -14.8226   26.7922 C   0  0  0  0  0  0  0  0  0  0  0  0
    8.5776  -16.5068   24.5448 C   0  0  0  0  0  0  0  0  0  0  0  0
    8.3742  -17.6725   24.9329 O   0  0  0  0  0  0  0  0  0  0  0  0
   11.9134  -14.8293   19.8387 N   0  0  0  0  0  0  0  0  0  0  0  0
   13.1879  -15.2892   20.2651 C   0  0  0  0  0  0  0  0  0  0  0  0
   14.2271  -14.7733   19.6586 N   0  0  0  0  0  0  0  0  0  0  0  0
   13.3650  -16.2568   21.2921 N   0  0  0  0  0  0  0  0  0  0  0  0
   12.1804  -16.6764   22.0106 C   0  0  0  0  0  0  0  0  0  0  0  0
   12.1279  -16.3161   23.4335 C   0  0  0  0  0  0  0  0  0  0  0  0
   11.7146  -17.2202   24.4835 C   0  0  0  0  0  0  0  0  0  0  0  0
   10.8546  -16.7451   25.5889 C   0  0  2  0  0  0  0  0  0  0  0  0
    9.7730  -15.8830   24.9601 N   0  0  0  0  0  0  0  0  0  0  0  0
   11.5448  -15.7621   26.4345 C   0  0  0  0  0  0  0  0  0  0  0  0
   12.4526  -16.0469   27.4101 O   0  0  0  0  0  0  0  0  0  0  0  0
   11.2903  -14.5213   26.2702 O   0  0  0  0  0  0  0  0  0  0  0  0
  1  5  1  0
  2  1  1  0
  2  3  1  0
  3  4  1  0
  5  6  1  1
  5  4  1  0
  6  7  2  0
  8  6  1  0
  8  9  1  0
  9 10  1  1
 11 10  1  0
 12 11  2  0
 13 12  1  0
 14 15  1  0
 14 13  2  0
 15 16  2  0
 16 11  1  0
 17 27  1  0
 17  9  1  0
 18 17  2  0
 19 20  1  0
 20 22  1  0
 21 20  2  0
 22 23  1  0
 23 24  1  0
 24 25  1  0
 26 25  1  6
 26 27  1  0
 28 29  1  0
 28 26  1  0
 30 28  2  0
M  END
$$$$
