PFR.pdb
     RDKit          3D

 30 31  0  0  1  0  0  0  0  0999 V2000
    7.2178  -14.8468   20.3185 N   0  0  0  0  0  0  0  0  0  0  0  0
    6.6669  -14.3310   19.0583 C   0  0  0  0  0  0  0  0  0  0  0  0
    7.1438  -12.9134   18.9453 C   0  0  0  0  0  0  0  0  0  0  0  0
    8.0272  -12.7003   20.1599 C   0  0  0  0  0  0  0  0  0  0  0  0
    8.4563  -14.1158   20.4736 C   0  0  1  0  0  0  0  0  0  0  0  0
    8.9561  -14.2718   21.8398 C   0  0  0  0  0  0  0  0  0  0  0  0
   10.0591  -13.8116   22.2426 O   0  0  0  0  0  0  0  0  0  0  0  0
    8.1790  -14.9768   22.7921 N   0  0  0  0  0  0  0  0  0  0  0  0
    8.5809  -15.1146   24.1819 C   0  0  1  0  0  0  0  0  0  0  0  0
    7.3762  -15.1225   25.0927 C   0  0  0  0  0  0  0  0  0  0  0  0
    7.0454  -13.8334   25.6876 C   0  0  0  0  0  0  0  0  0  0  0  0
    7.9588  -13.1182   26.4285 C   0  0  0  0  0  0  0  0  0  0  0  0
    7.6626  -11.8999   26.9899 C   0  0  0  0  0  0  0  0  0  0  0  0
    6.4100  -11.3609   26.8141 C   0  0  0  0  0  0  0  0  0  0  0  0
    5.4689  -12.0492   26.0776 C   0  0  0  0  0  0  0  0  0  0  0  0
    5.7960  -13.2855   25.5179 C   0  0  0  0  0  0  0  0  0  0  0  0
    9.4492  -16.3085   24.3697 C   0  0  0  0  0  0  0  0  0  0  0  0
    9.0179  -17.4766   24.3807 O   0  0  0  0  0  0  0  0  0  0  0  0
   17.1525  -16.6831   22.3950 N   0  0  0  0  0  0  0  0  0  0  0  0
   17.5141  -17.3664   23.5867 C   0  0  0  0  0  0  0  0  0  0  0  0
   18.7697  -17.2842   23.9481 N   0  0  0  0  0  0  0  0  0  0  0  0
   16.5898  -18.1098   24.3711 N   0  0  0  0  0  0  0  0  0  0  0  0
   15.2264  -18.1793   23.8897 C   0  0  0  0  0  0  0  0  0  0  0  0
   14.1792  -17.8698   24.8719 C   0  0  0  0  0  0  0  0  0  0  0  0
   13.1005  -16.9355   24.6389 C   0  0  0  0  0  0  0  0  0  0  0  0
   11.6935  -17.3495   24.8294 C   0  0  2  0  0  0  0  0  0  0  0  0
   10.8372  -16.1267   24.5462 N   0  0  0  0  0  0  0  0  0  0  0  0
   11.3822  -17.5920   26.2443 C   0  0  0  0  0  0  0  0  0  0  0  0
   10.8679  -16.6792   27.1157 O   0  0  0  0  0  0  0  0  0  0  0  0
   11.6067  -18.7498   26.7350 O   0  0  0  0  0  0  0  0  0  0  0  0
  1  5  1  0
  2  1  1  0
  2  3  1  0
  3  4  1  0
  5  6  1  1
  5  4  1  0
  6  7  2  0
  8  6  1  0
  8  9  1  0
  9 10  1  1
 11 10  1  0
 12 11  2  0
 13 12  1  0
 14 15  1  0
 14 13  2  0
 15 16  2  0
 16 11  1  0
 17 27  1  0
 17  9  1  0
 18 17  2  0
 19 20  1  0
 20 22  1  0
 21 20  2  0
 22 23  1  0
 23 24  1  0
 24 25  1  0
 26 25  1  1
 26 27  1  0
 28 29  1  0
 28 26  1  0
 30 28  2  0
M  END
$$$$
