PFR.pdb
     RDKit          3D

 30 31  0  0  1  0  0  0  0  0999 V2000
    7.7558  -15.3435   19.3523 N   0  0  0  0  0  0  0  0  0  0  0  0
    7.4569  -15.2939   17.9150 C   0  0  0  0  0  0  0  0  0  0  0  0
    7.9593  -13.9659   17.4314 C   0  0  0  0  0  0  0  0  0  0  0  0
    8.5998  -13.3240   18.6473 C   0  0  0  0  0  0  0  0  0  0  0  0
    8.9493  -14.5364   19.4804 C   0  0  1  0  0  0  0  0  0  0  0  0
    9.1813  -14.2145   20.8886 C   0  0  0  0  0  0  0  0  0  0  0  0
   10.2388  -13.6829   21.3242 O   0  0  0  0  0  0  0  0  0  0  0  0
    8.1780  -14.5046   21.8463 N   0  0  0  0  0  0  0  0  0  0  0  0
    8.2368  -14.0152   23.2135 C   0  0  1  0  0  0  0  0  0  0  0  0
    6.9222  -13.3928   23.6198 C   0  0  0  0  0  0  0  0  0  0  0  0
    6.9087  -12.7945   24.9491 C   0  0  0  0  0  0  0  0  0  0  0  0
    6.3340  -13.4293   26.0268 C   0  0  0  0  0  0  0  0  0  0  0  0
    6.3192  -12.8799   27.2858 C   0  0  0  0  0  0  0  0  0  0  0  0
    6.8964  -11.6493   27.4936 C   0  0  0  0  0  0  0  0  0  0  0  0
    7.4819  -10.9839   26.4369 C   0  0  0  0  0  0  0  0  0  0  0  0
    7.4831  -11.5648   25.1676 C   0  0  0  0  0  0  0  0  0  0  0  0
    8.6747  -15.0895   24.1456 C   0  0  0  0  0  0  0  0  0  0  0  0
    8.6664  -14.9690   25.3850 O   0  0  0  0  0  0  0  0  0  0  0  0
    8.2376  -20.9918   27.7272 N   0  0  0  0  0  0  0  0  0  0  0  0
    6.8741  -21.2404   27.4163 C   0  0  0  0  0  0  0  0  0  0  0  0
    6.1333  -21.7197   28.3833 N   0  0  0  0  0  0  0  0  0  0  0  0
    6.3084  -20.9943   26.1349 N   0  0  0  0  0  0  0  0  0  0  0  0
    7.2180  -20.6002   25.0800 C   0  0  0  0  0  0  0  0  0  0  0  0
    7.4482  -19.1571   24.9328 C   0  0  0  0  0  0  0  0  0  0  0  0
    8.4622  -18.5814   24.0776 C   0  0  0  0  0  0  0  0  0  0  0  0
    9.3238  -17.4837   24.5675 C   0  0  2  0  0  0  0  0  0  0  0  0
    9.1263  -16.3164   23.6151 N   0  0  0  0  0  0  0  0  0  0  0  0
   10.7491  -17.7763   24.3656 C   0  0  0  0  0  0  0  0  0  0  0  0
   11.6132  -18.2280   25.3175 O   0  0  0  0  0  0  0  0  0  0  0  0
   11.2569  -17.5969   23.2074 O   0  0  0  0  0  0  0  0  0  0  0  0
  1  5  1  0
  2  1  1  0
  2  3  1  0
  3  4  1  0
  5  6  1  1
  5  4  1  0
  6  7  2  0
  8  6  1  0
  8  9  1  0
  9 10  1  1
 11 10  1  0
 12 11  2  0
 13 12  1  0
 14 15  1  0
 14 13  2  0
 15 16  2  0
 16 11  1  0
 17 27  1  0
 17  9  1  0
 18 17  2  0
 19 20  1  0
 20 22  1  0
 21 20  2  0
 22 23  1  0
 23 24  1  0
 24 25  1  0
 26 25  1  6
 26 27  1  0
 28 29  1  0
 28 26  1  0
 30 28  2  0
M  END
$$$$
