PFR.pdb
     RDKit          3D

 30 31  0  0  1  0  0  0  0  0999 V2000
    7.6260  -15.1922   18.8960 N   0  0  0  0  0  0  0  0  0  0  0  0
    7.2156  -14.9795   17.5018 C   0  0  0  0  0  0  0  0  0  0  0  0
    7.4866  -13.5345   17.2044 C   0  0  0  0  0  0  0  0  0  0  0  0
    8.1194  -12.9871   18.4696 C   0  0  0  0  0  0  0  0  0  0  0  0
    8.6992  -14.2409   19.0845 C   0  0  1  0  0  0  0  0  0  0  0  0
    8.9887  -14.0964   20.5113 C   0  0  0  0  0  0  0  0  0  0  0  0
   10.1079  -13.7387   20.9697 O   0  0  0  0  0  0  0  0  0  0  0  0
    7.9729  -14.3670   21.4615 N   0  0  0  0  0  0  0  0  0  0  0  0
    8.1592  -14.1560   22.8872 C   0  0  1  0  0  0  0  0  0  0  0  0
    6.9006  -13.6120   23.5202 C   0  0  0  0  0  0  0  0  0  0  0  0
    7.0324  -13.2253   24.9196 C   0  0  0  0  0  0  0  0  0  0  0  0
    6.5398  -14.0069   25.9399 C   0  0  0  0  0  0  0  0  0  0  0  0
    6.6620  -13.6577   27.2628 C   0  0  0  0  0  0  0  0  0  0  0  0
    7.2982  -12.4855   27.5969 C   0  0  0  0  0  0  0  0  0  0  0  0
    7.8046  -11.6769   26.6010 C   0  0  0  0  0  0  0  0  0  0  0  0
    7.6668  -12.0554   25.2644 C   0  0  0  0  0  0  0  0  0  0  0  0
    8.6442  -15.3967   23.5506 C   0  0  0  0  0  0  0  0  0  0  0  0
    8.0858  -16.5032   23.4303 O   0  0  0  0  0  0  0  0  0  0  0  0
   15.5616  -16.6227   22.6226 N   0  0  0  0  0  0  0  0  0  0  0  0
   15.9661  -17.3823   23.7527 C   0  0  0  0  0  0  0  0  0  0  0  0
   17.2082  -17.2364   24.1394 N   0  0  0  0  0  0  0  0  0  0  0  0
   15.0968  -18.2640   24.4521 N   0  0  0  0  0  0  0  0  0  0  0  0
   13.7172  -18.3094   24.0159 C   0  0  0  0  0  0  0  0  0  0  0  0
   12.7423  -17.6446   24.8905 C   0  0  0  0  0  0  0  0  0  0  0  0
   11.8362  -16.6066   24.4521 C   0  0  0  0  0  0  0  0  0  0  0  0
   10.4100  -16.6400   24.8422 C   0  0  2  0  0  0  0  0  0  0  0  0
    9.7963  -15.3353   24.3628 N   0  0  0  0  0  0  0  0  0  0  0  0
   10.2381  -16.5168   26.2958 C   0  0  0  0  0  0  0  0  0  0  0  0
   10.0578  -17.5483   27.1679 O   0  0  0  0  0  0  0  0  0  0  0  0
   10.2483  -15.3525   26.8210 O   0  0  0  0  0  0  0  0  0  0  0  0
  1  5  1  0
  2  1  1  0
  2  3  1  0
  3  4  1  0
  5  6  1  1
  5  4  1  0
  6  7  2  0
  8  6  1  0
  8  9  1  0
  9 10  1  1
 11 10  1  0
 12 11  2  0
 13 12  1  0
 14 15  1  0
 14 13  2  0
 15 16  2  0
 16 11  1  0
 17 27  1  0
 17  9  1  0
 18 17  2  0
 19 20  1  0
 20 22  1  0
 21 20  2  0
 22 23  1  0
 23 24  1  0
 24 25  1  0
 26 25  1  1
 26 27  1  0
 28 29  1  0
 28 26  1  0
 30 28  2  0
M  END
$$$$
