PFR.pdb
     RDKit          3D

 30 31  0  0  1  0  0  0  0  0999 V2000
    7.5490  -15.1668   19.0699 N   0  0  0  0  0  0  0  0  0  0  0  0
    7.3048  -15.0290   17.6280 C   0  0  0  0  0  0  0  0  0  0  0  0
    7.8471  -13.6851   17.2410 C   0  0  0  0  0  0  0  0  0  0  0  0
    8.4525  -13.1264   18.5147 C   0  0  0  0  0  0  0  0  0  0  0  0
    8.7503  -14.3911   19.2879 C   0  0  1  0  0  0  0  0  0  0  0  0
    8.9350  -14.1553   20.7200 C   0  0  0  0  0  0  0  0  0  0  0  0
    9.9588  -13.6124   21.2176 O   0  0  0  0  0  0  0  0  0  0  0  0
    7.9219  -14.5484   21.6294 N   0  0  0  0  0  0  0  0  0  0  0  0
    8.0276  -14.3268   23.0618 C   0  0  1  0  0  0  0  0  0  0  0  0
    6.8616  -13.5115   23.5682 C   0  0  0  0  0  0  0  0  0  0  0  0
    6.9335  -13.1425   24.9767 C   0  0  0  0  0  0  0  0  0  0  0  0
    6.1711  -13.7730   25.9337 C   0  0  0  0  0  0  0  0  0  0  0  0
    6.2329  -13.4396   27.2649 C   0  0  0  0  0  0  0  0  0  0  0  0
    7.0842  -12.4399   27.6729 C   0  0  0  0  0  0  0  0  0  0  0  0
    7.8636  -11.7860   26.7418 C   0  0  0  0  0  0  0  0  0  0  0  0
    7.7814  -12.1445   25.3951 C   0  0  0  0  0  0  0  0  0  0  0  0
    8.1856  -15.6149   23.7901 C   0  0  0  0  0  0  0  0  0  0  0  0
    7.3264  -16.5162   23.7858 O   0  0  0  0  0  0  0  0  0  0  0  0
   14.9735  -20.4837   24.8972 N   0  0  0  0  0  0  0  0  0  0  0  0
   13.8988  -21.3677   24.6123 C   0  0  0  0  0  0  0  0  0  0  0  0
   14.2090  -22.4883   24.0109 N   0  0  0  0  0  0  0  0  0  0  0  0
   12.5460  -21.0850   24.9474 N   0  0  0  0  0  0  0  0  0  0  0  0
   11.9300  -19.9508   24.2917 C   0  0  0  0  0  0  0  0  0  0  0  0
   11.6652  -18.7814   25.1400 C   0  0  0  0  0  0  0  0  0  0  0  0
   11.0399  -17.5650   24.6707 C   0  0  0  0  0  0  0  0  0  0  0  0
    9.6391  -17.2537   25.0285 C   0  0  2  0  0  0  0  0  0  0  0  0
    9.3647  -15.8448   24.5301 N   0  0  0  0  0  0  0  0  0  0  0  0
    9.4710  -17.0796   26.4773 C   0  0  0  0  0  0  0  0  0  0  0  0
    9.0625  -18.0397   27.3539 O   0  0  0  0  0  0  0  0  0  0  0  0
    9.7160  -15.9371   26.9932 O   0  0  0  0  0  0  0  0  0  0  0  0
  1  5  1  0
  2  1  1  0
  2  3  1  0
  3  4  1  0
  5  6  1  1
  5  4  1  0
  6  7  2  0
  8  6  1  0
  8  9  1  0
  9 10  1  1
 11 10  1  0
 12 11  2  0
 13 12  1  0
 14 15  1  0
 14 13  2  0
 15 16  2  0
 16 11  1  0
 17 27  1  0
 17  9  1  0
 18 17  2  0
 19 20  1  0
 20 22  1  0
 21 20  2  0
 22 23  1  0
 23 24  1  0
 24 25  1  0
 26 25  1  1
 26 27  1  0
 28 29  1  0
 28 26  1  0
 30 28  2  0
M  END
$$$$
