PFR.pdb
     RDKit          3D

 30 31  0  0  1  0  0  0  0  0999 V2000
    7.4578  -14.8216   18.9597 N   0  0  0  0  0  0  0  0  0  0  0  0
    7.2356  -14.4785   17.5488 C   0  0  0  0  0  0  0  0  0  0  0  0
    8.0092  -13.2176   17.3006 C   0  0  0  0  0  0  0  0  0  0  0  0
    8.7112  -12.9252   18.6131 C   0  0  0  0  0  0  0  0  0  0  0  0
    8.7801  -14.3027   19.2326 C   0  0  1  0  0  0  0  0  0  0  0  0
    9.0110  -14.2688   20.6769 C   0  0  0  0  0  0  0  0  0  0  0  0
   10.1553  -14.2406   21.2063 O   0  0  0  0  0  0  0  0  0  0  0  0
    7.9042  -14.2667   21.5618 N   0  0  0  0  0  0  0  0  0  0  0  0
    8.0534  -14.1286   23.0008 C   0  0  1  0  0  0  0  0  0  0  0  0
    7.0080  -13.1953   23.5635 C   0  0  0  0  0  0  0  0  0  0  0  0
    7.1569  -12.8861   24.9803 C   0  0  0  0  0  0  0  0  0  0  0  0
    8.0553  -11.9448   25.4291 C   0  0  0  0  0  0  0  0  0  0  0  0
    8.2020  -11.6394   26.7603 C   0  0  0  0  0  0  0  0  0  0  0  0
    7.4290  -12.2903   27.6927 C   0  0  0  0  0  0  0  0  0  0  0  0
    6.5179  -13.2398   27.2798 C   0  0  0  0  0  0  0  0  0  0  0  0
    6.3889  -13.5310   25.9207 C   0  0  0  0  0  0  0  0  0  0  0  0
    8.0519  -15.4594   23.6669 C   0  0  0  0  0  0  0  0  0  0  0  0
    7.1404  -16.2962   23.5274 O   0  0  0  0  0  0  0  0  0  0  0  0
   15.4761  -19.9193   23.1613 N   0  0  0  0  0  0  0  0  0  0  0  0
   14.0830  -20.1303   23.3413 C   0  0  0  0  0  0  0  0  0  0  0  0
   13.6900  -21.3748   23.4444 N   0  0  0  0  0  0  0  0  0  0  0  0
   13.1359  -19.0717   23.4106 N   0  0  0  0  0  0  0  0  0  0  0  0
   12.4530  -18.8828   24.6730 C   0  0  0  0  0  0  0  0  0  0  0  0
   10.9892  -18.9978   24.6376 C   0  0  0  0  0  0  0  0  0  0  0  0
   10.1082  -17.9736   24.1222 C   0  0  0  0  0  0  0  0  0  0  0  0
    9.2052  -17.2328   25.0294 C   0  0  2  0  0  0  0  0  0  0  0  0
    9.1322  -15.8088   24.5045 N   0  0  0  0  0  0  0  0  0  0  0  0
    9.8130  -17.0176   26.3492 C   0  0  0  0  0  0  0  0  0  0  0  0
    9.7585  -17.8803   27.4027 O   0  0  0  0  0  0  0  0  0  0  0  0
   10.4522  -15.9327   26.5638 O   0  0  0  0  0  0  0  0  0  0  0  0
  1  5  1  0
  2  1  1  0
  2  3  1  0
  3  4  1  0
  5  6  1  1
  5  4  1  0
  6  7  2  0
  8  6  1  0
  8  9  1  0
  9 10  1  1
 11 10  1  0
 12 11  2  0
 13 12  1  0
 14 15  1  0
 14 13  2  0
 15 16  2  0
 16 11  1  0
 17 27  1  0
 17  9  1  0
 18 17  2  0
 19 20  1  0
 20 22  1  0
 21 20  2  0
 22 23  1  0
 23 24  1  0
 24 25  1  0
 26 25  1  6
 26 27  1  0
 28 29  1  0
 28 26  1  0
 30 28  2  0
M  END
$$$$
