PFR.pdb
     RDKit          3D

 30 31  0  0  1  0  0  0  0  0999 V2000
    7.7576  -15.1526   19.1410 N   0  0  0  0  0  0  0  0  0  0  0  0
    7.4139  -14.8597   17.7432 C   0  0  0  0  0  0  0  0  0  0  0  0
    7.7459  -13.4129   17.5277 C   0  0  0  0  0  0  0  0  0  0  0  0
    8.3428  -12.9489   18.8427 C   0  0  0  0  0  0  0  0  0  0  0  0
    8.8534  -14.2502   19.4189 C   0  0  1  0  0  0  0  0  0  0  0  0
    9.0870  -14.1836   20.8616 C   0  0  0  0  0  0  0  0  0  0  0  0
   10.2084  -13.9345   21.3823 O   0  0  0  0  0  0  0  0  0  0  0  0
    8.0103  -14.4076   21.7551 N   0  0  0  0  0  0  0  0  0  0  0  0
    8.1319  -14.2153   23.1905 C   0  0  1  0  0  0  0  0  0  0  0  0
    6.9304  -13.4835   23.7395 C   0  0  0  0  0  0  0  0  0  0  0  0
    7.0249  -13.1128   25.1463 C   0  0  0  0  0  0  0  0  0  0  0  0
    7.7960  -12.0541   25.5694 C   0  0  0  0  0  0  0  0  0  0  0  0
    7.8897  -11.6902   26.8907 C   0  0  0  0  0  0  0  0  0  0  0  0
    7.1924  -12.4009   27.8390 C   0  0  0  0  0  0  0  0  0  0  0  0
    6.4093  -13.4681   27.4518 C   0  0  0  0  0  0  0  0  0  0  0  0
    6.3317  -13.8167   26.1023 C   0  0  0  0  0  0  0  0  0  0  0  0
    8.3804  -15.5092   23.8824 C   0  0  0  0  0  0  0  0  0  0  0  0
    7.6024  -16.4798   23.8239 O   0  0  0  0  0  0  0  0  0  0  0  0
   11.6619  -20.6393   21.0625 N   0  0  0  0  0  0  0  0  0  0  0  0
   12.8459  -19.8631   21.1783 C   0  0  0  0  0  0  0  0  0  0  0  0
   13.9497  -20.4142   20.7407 N   0  0  0  0  0  0  0  0  0  0  0  0
   12.8698  -18.5543   21.7340 N   0  0  0  0  0  0  0  0  0  0  0  0
   11.6064  -18.0074   22.1814 C   0  0  0  0  0  0  0  0  0  0  0  0
   11.1874  -18.3795   23.5391 C   0  0  0  0  0  0  0  0  0  0  0  0
   11.1510  -17.4617   24.6558 C   0  0  0  0  0  0  0  0  0  0  0  0
    9.8592  -17.0320   25.2337 C   0  0  2  0  0  0  0  0  0  0  0  0
    9.5543  -15.6628   24.6498 N   0  0  0  0  0  0  0  0  0  0  0  0
    9.9794  -16.7107   26.6620 C   0  0  0  0  0  0  0  0  0  0  0  0
    9.7950  -15.4818   27.2213 O   0  0  0  0  0  0  0  0  0  0  0  0
   10.2884  -17.6424   27.4793 O   0  0  0  0  0  0  0  0  0  0  0  0
  1  5  1  0
  2  1  1  0
  2  3  1  0
  3  4  1  0
  5  6  1  1
  5  4  1  0
  6  7  2  0
  8  6  1  0
  8  9  1  0
  9 10  1  1
 11 10  1  0
 12 11  2  0
 13 12  1  0
 14 15  1  0
 14 13  2  0
 15 16  2  0
 16 11  1  0
 17 27  1  0
 17  9  1  0
 18 17  2  0
 19 20  1  0
 20 22  1  0
 21 20  2  0
 22 23  1  0
 23 24  1  0
 24 25  1  0
 26 25  1  6
 26 27  1  0
 28 29  1  0
 28 26  1  0
 30 28  2  0
M  END
$$$$
