PFR.pdb
     RDKit          3D

 30 31  0  0  1  0  0  0  0  0999 V2000
    8.1534  -13.0367   19.8310 N   0  0  0  0  0  0  0  0  0  0  0  0
    7.5535  -13.0933   18.4914 C   0  0  0  0  0  0  0  0  0  0  0  0
    7.0592  -14.4986   18.3162 C   0  0  0  0  0  0  0  0  0  0  0  0
    7.3558  -15.1846   19.6361 C   0  0  0  0  0  0  0  0  0  0  0  0
    7.3938  -14.0090   20.5860 C   0  0  1  0  0  0  0  0  0  0  0  0
    8.0829  -14.3103   21.8410 C   0  0  0  0  0  0  0  0  0  0  0  0
    9.3305  -14.2150   21.9993 O   0  0  0  0  0  0  0  0  0  0  0  0
    7.3332  -14.7372   22.9650 N   0  0  0  0  0  0  0  0  0  0  0  0
    7.9433  -15.0040   24.2567 C   0  0  1  0  0  0  0  0  0  0  0  0
    6.9280  -14.8803   25.3678 C   0  0  0  0  0  0  0  0  0  0  0  0
    6.8092  -13.5483   25.9481 C   0  0  0  0  0  0  0  0  0  0  0  0
    5.6000  -12.8959   26.0307 C   0  0  0  0  0  0  0  0  0  0  0  0
    5.4726  -11.6433   26.5800 C   0  0  0  0  0  0  0  0  0  0  0  0
    6.5863  -11.0035   27.0707 C   0  0  0  0  0  0  0  0  0  0  0  0
    7.8149  -11.6267   27.0050 C   0  0  0  0  0  0  0  0  0  0  0  0
    7.9165  -12.8999   26.4417 C   0  0  0  0  0  0  0  0  0  0  0  0
    8.6358  -16.3213   24.2571 C   0  0  0  0  0  0  0  0  0  0  0  0
    8.0860  -17.3864   23.9195 O   0  0  0  0  0  0  0  0  0  0  0  0
   16.3247  -18.6159   24.3890 N   0  0  0  0  0  0  0  0  0  0  0  0
   16.1177  -19.3615   23.1978 C   0  0  0  0  0  0  0  0  0  0  0  0
   16.9497  -20.3472   22.9745 N   0  0  0  0  0  0  0  0  0  0  0  0
   15.0738  -19.0817   22.2735 N   0  0  0  0  0  0  0  0  0  0  0  0
   14.2186  -17.9521   22.5705 C   0  0  0  0  0  0  0  0  0  0  0  0
   12.9909  -18.2521   23.3189 C   0  0  0  0  0  0  0  0  0  0  0  0
   11.9756  -17.2726   23.6361 C   0  0  0  0  0  0  0  0  0  0  0  0
   10.7598  -17.6648   24.3812 C   0  0  2  0  0  0  0  0  0  0  0  0
    9.9869  -16.3863   24.6582 N   0  0  0  0  0  0  0  0  0  0  0  0
   11.0743  -18.1072   25.7461 C   0  0  0  0  0  0  0  0  0  0  0  0
   11.1951  -17.3009   26.8380 O   0  0  0  0  0  0  0  0  0  0  0  0
   11.2626  -19.3520   25.9624 O   0  0  0  0  0  0  0  0  0  0  0  0
  1  5  1  0
  2  1  1  0
  2  3  1  0
  3  4  1  0
  5  6  1  1
  5  4  1  0
  6  7  2  0
  8  6  1  0
  8  9  1  0
  9 10  1  1
 11 10  1  0
 12 11  2  0
 13 12  1  0
 14 15  1  0
 14 13  2  0
 15 16  2  0
 16 11  1  0
 17 27  1  0
 17  9  1  0
 18 17  2  0
 19 20  1  0
 20 22  1  0
 21 20  2  0
 22 23  1  0
 23 24  1  0
 24 25  1  0
 26 25  1  6
 26 27  1  0
 28 29  1  0
 28 26  1  0
 30 28  2  0
M  END
$$$$
