PFR.pdb
     RDKit          3D

 30 31  0  0  1  0  0  0  0  0999 V2000
    7.5224  -14.9750   19.0054 N   0  0  0  0  0  0  0  0  0  0  0  0
    7.2353  -14.6811   17.5951 C   0  0  0  0  0  0  0  0  0  0  0  0
    7.7548  -13.2965   17.3447 C   0  0  0  0  0  0  0  0  0  0  0  0
    8.3922  -12.8754   18.6551 C   0  0  0  0  0  0  0  0  0  0  0  0
    8.7229  -14.2144   19.2745 C   0  0  1  0  0  0  0  0  0  0  0  0
    8.9471  -14.1365   20.7182 C   0  0  0  0  0  0  0  0  0  0  0  0
   10.0500  -13.8227   21.2433 O   0  0  0  0  0  0  0  0  0  0  0  0
    7.8822  -14.4248   21.6075 N   0  0  0  0  0  0  0  0  0  0  0  0
    7.9848  -14.2213   23.0428 C   0  0  1  0  0  0  0  0  0  0  0  0
    6.7370  -13.5652   23.5843 C   0  0  0  0  0  0  0  0  0  0  0  0
    6.8001  -13.1887   24.9912 C   0  0  0  0  0  0  0  0  0  0  0  0
    7.3914  -12.0166   25.4049 C   0  0  0  0  0  0  0  0  0  0  0  0
    7.4528  -11.6467   26.7264 C   0  0  0  0  0  0  0  0  0  0  0  0
    6.9073  -12.4680   27.6847 C   0  0  0  0  0  0  0  0  0  0  0  0
    6.3065  -13.6506   27.3072 C   0  0  0  0  0  0  0  0  0  0  0  0
    6.2577  -14.0027   25.9573 C   0  0  0  0  0  0  0  0  0  0  0  0
    8.3110  -15.4952   23.7396 C   0  0  0  0  0  0  0  0  0  0  0  0
    7.6531  -16.5430   23.5990 O   0  0  0  0  0  0  0  0  0  0  0  0
   14.1273  -20.8315   22.5760 N   0  0  0  0  0  0  0  0  0  0  0  0
   14.9126  -20.1661   23.5549 C   0  0  0  0  0  0  0  0  0  0  0  0
   16.2033  -20.3810   23.5120 N   0  0  0  0  0  0  0  0  0  0  0  0
   14.3620  -19.3054   24.5440 N   0  0  0  0  0  0  0  0  0  0  0  0
   13.6004  -18.1674   24.0744 C   0  0  0  0  0  0  0  0  0  0  0  0
   12.2102  -18.0852   24.5410 C   0  0  0  0  0  0  0  0  0  0  0  0
   11.4154  -16.8776   24.5105 C   0  0  0  0  0  0  0  0  0  0  0  0
   10.0078  -16.8927   24.9642 C   0  0  2  0  0  0  0  0  0  0  0  0
    9.4211  -15.5367   24.6096 N   0  0  0  0  0  0  0  0  0  0  0  0
    9.9058  -16.8713   26.4294 C   0  0  0  0  0  0  0  0  0  0  0  0
    9.8384  -17.9645   27.2402 O   0  0  0  0  0  0  0  0  0  0  0  0
    9.8692  -15.7436   27.0282 O   0  0  0  0  0  0  0  0  0  0  0  0
  1  5  1  0
  2  1  1  0
  2  3  1  0
  3  4  1  0
  5  6  1  1
  5  4  1  0
  6  7  2  0
  8  6  1  0
  8  9  1  0
  9 10  1  1
 11 10  1  0
 12 11  2  0
 13 12  1  0
 14 15  1  0
 14 13  2  0
 15 16  2  0
 16 11  1  0
 17 27  1  0
 17  9  1  0
 18 17  2  0
 19 20  1  0
 20 22  1  0
 21 20  2  0
 22 23  1  0
 23 24  1  0
 24 25  1  0
 26 25  1  1
 26 27  1  0
 28 29  1  0
 28 26  1  0
 30 28  2  0
M  END
$$$$
