NDE.pdb
     RDKit          3D

 26 25  0  0  1  0  0  0  0  0999 V2000
   17.3528  -13.9020  -15.0055 N   0  0  0  0  0  0  0  0  0  0  0  0
   17.7046  -13.5515  -16.3373 C   0  0  0  0  0  0  0  0  0  0  0  0
   17.7244  -14.4240  -17.2338 O   0  0  0  0  0  0  0  0  0  0  0  0
   18.0505  -12.1348  -16.6582 C   0  0  0  0  0  0  0  0  0  0  0  0
   17.8389  -11.3589  -15.3688 C   0  0  2  0  0  0  0  0  0  0  0  0
   16.4435  -11.2791  -15.0961 N   0  0  0  0  0  0  0  0  0  0  0  0
   18.4608   -9.9929  -15.5361 C   0  0  0  0  0  0  0  0  0  0  0  0
   19.5457   -9.8740  -16.1424 O   0  0  0  0  0  0  0  0  0  0  0  0
   17.8420   -8.8404  -15.0211 N   0  0  0  0  0  0  0  0  0  0  0  0
   18.1884   -7.4790  -15.0464 C   0  0  1  0  0  0  0  0  0  0  0  0
   17.1611   -6.4598  -14.6055 C   0  0  0  0  0  0  0  0  0  0  0  0
   15.8328   -6.6663  -15.2254 C   0  0  0  0  0  0  0  0  0  0  0  0
   15.7575   -6.6529  -16.5026 O   0  0  0  0  0  0  0  0  0  0  0  0
   19.5687   -7.1268  -14.6713 C   0  0  0  0  0  0  0  0  0  0  0  0
   19.9913   -7.5352  -13.5285 O   0  0  0  0  0  0  0  0  0  0  0  0
   14.6801   -6.8716  -14.5063 O   0  0  0  0  0  0  0  0  0  0  0  0
   20.4575   -6.3864  -15.4547 N   0  0  0  0  0  0  0  0  0  0  0  0
   21.8684   -6.3184  -15.0693 C   0  0  1  0  0  0  0  0  0  0  0  0
   22.7252   -6.2035  -16.3131 C   0  0  0  0  0  0  0  0  0  0  0  0
   24.1802   -6.1501  -16.0411 C   0  0  0  0  0  0  0  0  0  0  0  0
   25.0237   -5.9681  -17.2369 C   0  0  0  0  0  0  0  0  0  0  0  0
   24.5057   -6.2640  -18.3597 O   0  0  0  0  0  0  0  0  0  0  0  0
   22.0212   -5.1854  -14.1393 C   0  0  0  0  0  0  0  0  0  0  0  0
   22.9304   -5.1977  -13.2867 O   0  0  0  0  0  0  0  0  0  0  0  0
   26.3250   -5.5045  -17.2414 O   0  0  0  0  0  0  0  0  0  0  0  0
   21.1671   -4.1129  -14.2058 O   0  0  0  0  0  0  0  0  0  0  0  0
  2  1  1  0
  2  3  2  0
  4  2  1  0
  5  4  1  0
  5  7  1  0
  5  6  1  6
  7  8  2  0
  9 10  1  0
  9  7  1  0
 10 11  1  1
 11 12  1  0
 12 16  1  0
 13 12  2  0
 14 10  1  0
 14 17  1  0
 15 14  2  0
 18 17  1  0
 18 19  1  6
 20 19  1  0
 20 21  1  0
 21 25  1  0
 21 22  2  0
 23 18  1  0
 24 23  2  0
 26 23  1  0
M  END
$$$$
