NDE.pdb
     RDKit          3D

 26 25  0  0  1  0  0  0  0  0999 V2000
   26.9639  -11.2618  -17.0903 N   0  0  0  0  0  0  0  0  0  0  0  0
   26.3817  -11.6023  -15.8392 C   0  0  0  0  0  0  0  0  0  0  0  0
   26.7890  -12.6019  -15.2063 O   0  0  0  0  0  0  0  0  0  0  0  0
   25.2806  -10.7588  -15.2862 C   0  0  0  0  0  0  0  0  0  0  0  0
   24.9223   -9.7773  -16.3897 C   0  0  2  0  0  0  0  0  0  0  0  0
   26.0660   -8.9883  -16.7015 N   0  0  0  0  0  0  0  0  0  0  0  0
   23.7670   -8.9320  -15.9084 C   0  0  0  0  0  0  0  0  0  0  0  0
   22.6820   -9.4737  -15.6114 O   0  0  0  0  0  0  0  0  0  0  0  0
   23.8844   -7.5366  -15.7850 N   0  0  0  0  0  0  0  0  0  0  0  0
   22.9906   -6.5371  -15.3651 C   0  0  1  0  0  0  0  0  0  0  0  0
   23.5522   -5.2308  -14.8488 C   0  0  0  0  0  0  0  0  0  0  0  0
   22.5173   -4.3336  -14.2874 C   0  0  0  0  0  0  0  0  0  0  0  0
   22.0908   -3.3758  -15.0207 O   0  0  0  0  0  0  0  0  0  0  0  0
   21.7431   -6.3815  -16.1328 C   0  0  0  0  0  0  0  0  0  0  0  0
   21.8443   -5.9602  -17.3426 O   0  0  0  0  0  0  0  0  0  0  0  0
   21.9908   -4.4733  -13.0258 O   0  0  0  0  0  0  0  0  0  0  0  0
   20.4586   -6.6544  -15.6558 N   0  0  0  0  0  0  0  0  0  0  0  0
   19.3098   -6.4758  -16.5457 C   0  0  1  0  0  0  0  0  0  0  0  0
   18.6579   -7.8188  -16.8022 C   0  0  0  0  0  0  0  0  0  0  0  0
   17.8864   -8.3449  -15.6525 C   0  0  0  0  0  0  0  0  0  0  0  0
   17.2311   -9.6437  -15.8935 C   0  0  0  0  0  0  0  0  0  0  0  0
   16.5198  -10.1154  -14.9511 O   0  0  0  0  0  0  0  0  0  0  0  0
   18.4098   -5.4920  -15.9180 C   0  0  0  0  0  0  0  0  0  0  0  0
   17.4950   -4.9703  -16.5848 O   0  0  0  0  0  0  0  0  0  0  0  0
   17.3234  -10.3895  -17.0526 O   0  0  0  0  0  0  0  0  0  0  0  0
   18.5718   -5.1452  -14.5997 O   0  0  0  0  0  0  0  0  0  0  0  0
  2  1  1  0
  2  3  2  0
  4  2  1  0
  5  4  1  0
  5  7  1  0
  5  6  1  1
  7  8  2  0
  9 10  1  0
  9  7  1  0
 10 11  1  6
 11 12  1  0
 12 16  1  0
 13 12  2  0
 14 10  1  0
 14 17  1  0
 15 14  2  0
 18 17  1  0
 18 19  1  1
 20 19  1  0
 20 21  1  0
 21 25  1  0
 21 22  2  0
 23 18  1  0
 24 23  2  0
 26 23  1  0
M  END
$$$$
