NDE.pdb
     RDKit          3D

 26 25  0  0  1  0  0  0  0  0999 V2000
   13.6766  -11.0569  -16.7915 N   0  0  0  0  0  0  0  0  0  0  0  0
   13.3641  -11.2883  -15.4244 C   0  0  0  0  0  0  0  0  0  0  0  0
   12.7078  -12.3000  -15.0909 O   0  0  0  0  0  0  0  0  0  0  0  0
   13.8244  -10.3152  -14.3896 C   0  0  0  0  0  0  0  0  0  0  0  0
   15.3149  -10.1382  -14.6273 C   0  0  2  0  0  0  0  0  0  0  0  0
   15.9809  -11.3650  -14.3460 N   0  0  0  0  0  0  0  0  0  0  0  0
   15.8009   -9.0156  -13.7418 C   0  0  0  0  0  0  0  0  0  0  0  0
   15.6279   -9.0788  -12.5069 O   0  0  0  0  0  0  0  0  0  0  0  0
   16.4500   -7.8901  -14.2789 N   0  0  0  0  0  0  0  0  0  0  0  0
   17.0181   -6.7463  -13.6933 C   0  0  1  0  0  0  0  0  0  0  0  0
   18.2217   -6.1129  -14.3556 C   0  0  0  0  0  0  0  0  0  0  0  0
   19.3022   -7.0814  -14.6483 C   0  0  0  0  0  0  0  0  0  0  0  0
   20.0616   -7.4434  -13.6843 O   0  0  0  0  0  0  0  0  0  0  0  0
   16.0967   -5.7708  -13.0856 C   0  0  0  0  0  0  0  0  0  0  0  0
   15.1641   -5.2967  -13.8320 O   0  0  0  0  0  0  0  0  0  0  0  0
   19.5328   -7.6118  -15.8947 O   0  0  0  0  0  0  0  0  0  0  0  0
   16.1511   -5.3183  -11.7649 N   0  0  0  0  0  0  0  0  0  0  0  0
   15.1074   -4.4180  -11.2712 C   0  0  1  0  0  0  0  0  0  0  0  0
   14.9896   -4.5601   -9.7678 C   0  0  0  0  0  0  0  0  0  0  0  0
   13.9931   -3.6538   -9.1520 C   0  0  0  0  0  0  0  0  0  0  0  0
   13.8974   -3.7506   -7.6836 C   0  0  0  0  0  0  0  0  0  0  0  0
   13.1411   -2.9132   -7.0977 O   0  0  0  0  0  0  0  0  0  0  0  0
   15.4519   -3.0543  -11.7110 C   0  0  0  0  0  0  0  0  0  0  0  0
   16.6429   -2.7472  -11.9133 O   0  0  0  0  0  0  0  0  0  0  0  0
   14.5570   -4.6712   -6.8926 O   0  0  0  0  0  0  0  0  0  0  0  0
   14.4674   -2.1167  -11.9007 O   0  0  0  0  0  0  0  0  0  0  0  0
  2  1  1  0
  2  3  2  0
  4  2  1  0
  5  4  1  0
  5  7  1  0
  5  6  1  1
  7  8  2  0
  9 10  1  0
  9  7  1  0
 10 11  1  6
 11 12  1  0
 12 16  1  0
 13 12  2  0
 14 10  1  0
 14 17  1  0
 15 14  2  0
 18 17  1  0
 18 19  1  1
 20 19  1  0
 20 21  1  0
 21 25  1  0
 21 22  2  0
 23 18  1  0
 24 23  2  0
 26 23  1  0
M  END
$$$$
