NDE.pdb
     RDKit          3D

 26 25  0  0  1  0  0  0  0  0999 V2000
   19.2064  -16.7873  -17.9919 N   0  0  0  0  0  0  0  0  0  0  0  0
   19.0831  -15.8634  -16.9188 C   0  0  0  0  0  0  0  0  0  0  0  0
   19.0139  -16.2742  -15.7390 O   0  0  0  0  0  0  0  0  0  0  0  0
   19.0365  -14.3996  -17.2099 C   0  0  0  0  0  0  0  0  0  0  0  0
   18.1900  -13.7886  -16.1056 C   0  0  2  0  0  0  0  0  0  0  0  0
   16.8460  -14.2382  -16.2455 N   0  0  0  0  0  0  0  0  0  0  0  0
   18.2967  -12.2858  -16.2100 C   0  0  0  0  0  0  0  0  0  0  0  0
   19.4044  -11.7557  -16.4355 O   0  0  0  0  0  0  0  0  0  0  0  0
   17.1684  -11.4610  -16.0584 N   0  0  0  0  0  0  0  0  0  0  0  0
   17.0040  -10.0662  -16.0221 C   0  0  1  0  0  0  0  0  0  0  0  0
   15.6428   -9.4867  -16.3383 C   0  0  0  0  0  0  0  0  0  0  0  0
   15.0201  -10.0856  -17.5403 C   0  0  0  0  0  0  0  0  0  0  0  0
   13.9620  -10.7873  -17.3822 O   0  0  0  0  0  0  0  0  0  0  0  0
   17.7315   -9.3278  -14.9754 C   0  0  0  0  0  0  0  0  0  0  0  0
   17.7560   -9.8440  -13.7988 O   0  0  0  0  0  0  0  0  0  0  0  0
   15.5146   -9.9290  -18.8128 O   0  0  0  0  0  0  0  0  0  0  0  0
   18.3983   -8.1133  -15.1551 N   0  0  0  0  0  0  0  0  0  0  0  0
   19.1435   -7.5316  -14.0370 C   0  0  1  0  0  0  0  0  0  0  0  0
   20.3383   -6.7687  -14.5709 C   0  0  0  0  0  0  0  0  0  0  0  0
   21.1587   -6.1207  -13.5217 C   0  0  0  0  0  0  0  0  0  0  0  0
   22.2829   -5.3133  -14.0304 C   0  0  0  0  0  0  0  0  0  0  0  0
   22.4627   -4.1730  -13.4975 O   0  0  0  0  0  0  0  0  0  0  0  0
   18.2064   -6.6972  -13.2642 C   0  0  0  0  0  0  0  0  0  0  0  0
   17.2633   -6.1216  -13.8414 O   0  0  0  0  0  0  0  0  0  0  0  0
   23.1553   -5.6892  -15.0333 O   0  0  0  0  0  0  0  0  0  0  0  0
   18.3647   -6.5489  -11.9088 O   0  0  0  0  0  0  0  0  0  0  0  0
  2  1  1  0
  2  3  2  0
  4  2  1  0
  5  4  1  0
  5  7  1  0
  5  6  1  6
  7  8  2  0
  9 10  1  0
  9  7  1  0
 10 11  1  1
 11 12  1  0
 12 16  1  0
 13 12  2  0
 14 10  1  0
 14 17  1  0
 15 14  2  0
 18 17  1  0
 18 19  1  6
 20 19  1  0
 20 21  1  0
 21 25  1  0
 21 22  2  0
 23 18  1  0
 24 23  2  0
 26 23  1  0
M  END
$$$$
