NDE.pdb
     RDKit          3D

 26 25  0  0  1  0  0  0  0  0999 V2000
   12.8971  -12.7232  -16.2306 N   0  0  0  0  0  0  0  0  0  0  0  0
   14.1386  -12.2439  -16.7297 C   0  0  0  0  0  0  0  0  0  0  0  0
   14.6489  -12.7595  -17.7491 O   0  0  0  0  0  0  0  0  0  0  0  0
   14.8292  -11.1209  -16.0283 C   0  0  0  0  0  0  0  0  0  0  0  0
   16.2896  -11.5310  -15.9367 C   0  0  2  0  0  0  0  0  0  0  0  0
   16.4027  -12.6656  -15.0836 N   0  0  0  0  0  0  0  0  0  0  0  0
   17.0760  -10.3517  -15.4156 C   0  0  0  0  0  0  0  0  0  0  0  0
   16.5539   -9.5716  -14.5923 O   0  0  0  0  0  0  0  0  0  0  0  0
   18.3944  -10.1084  -15.8385 N   0  0  0  0  0  0  0  0  0  0  0  0
   19.3227   -9.0983  -15.5355 C   0  0  1  0  0  0  0  0  0  0  0  0
   20.7596   -9.4886  -15.2682 C   0  0  0  0  0  0  0  0  0  0  0  0
   21.5805   -8.3700  -14.7524 C   0  0  0  0  0  0  0  0  0  0  0  0
   22.8358   -8.5662  -14.6012 O   0  0  0  0  0  0  0  0  0  0  0  0
   19.1815   -7.8163  -16.2473 C   0  0  0  0  0  0  0  0  0  0  0  0
   19.3145   -7.8341  -17.5253 O   0  0  0  0  0  0  0  0  0  0  0  0
   21.0696   -7.1362  -14.4287 O   0  0  0  0  0  0  0  0  0  0  0  0
   18.9140   -6.5824  -15.6491 N   0  0  0  0  0  0  0  0  0  0  0  0
   18.7320   -5.4001  -16.4934 C   0  0  1  0  0  0  0  0  0  0  0  0
   17.4953   -4.6480  -16.0469 C   0  0  0  0  0  0  0  0  0  0  0  0
   17.2871   -3.3592  -16.7463 C   0  0  0  0  0  0  0  0  0  0  0  0
   15.9864   -2.7174  -16.4802 C   0  0  0  0  0  0  0  0  0  0  0  0
   16.0068   -1.4982  -16.1202 O   0  0  0  0  0  0  0  0  0  0  0  0
   19.9691   -4.6031  -16.4151 C   0  0  0  0  0  0  0  0  0  0  0  0
   20.2460   -3.7923  -17.3205 O   0  0  0  0  0  0  0  0  0  0  0  0
   14.7510   -3.3260  -16.5890 O   0  0  0  0  0  0  0  0  0  0  0  0
   20.8214   -4.7472  -15.3488 O   0  0  0  0  0  0  0  0  0  0  0  0
  2  1  1  0
  2  3  2  0
  4  2  1  0
  5  4  1  0
  5  7  1  0
  5  6  1  1
  7  8  2  0
  9 10  1  0
  9  7  1  0
 10 11  1  6
 11 12  1  0
 12 16  1  0
 13 12  2  0
 14 10  1  0
 14 17  1  0
 15 14  2  0
 18 17  1  0
 18 19  1  1
 20 19  1  0
 20 21  1  0
 21 25  1  0
 21 22  2  0
 23 18  1  0
 24 23  2  0
 26 23  1  0
M  END
$$$$
