NDE.pdb
     RDKit          3D

 26 25  0  0  1  0  0  0  0  0999 V2000
   15.1526  -10.7647  -18.4635 N   0  0  0  0  0  0  0  0  0  0  0  0
   14.8479   -9.4655  -17.9740 C   0  0  0  0  0  0  0  0  0  0  0  0
   13.8637   -8.8377  -18.4241 O   0  0  0  0  0  0  0  0  0  0  0  0
   15.7111   -8.8557  -16.9191 C   0  0  0  0  0  0  0  0  0  0  0  0
   16.7819   -9.8908  -16.6165 C   0  0  2  0  0  0  0  0  0  0  0  0
   16.2291  -10.9031  -15.7814 N   0  0  0  0  0  0  0  0  0  0  0  0
   17.9427   -9.1854  -15.9564 C   0  0  0  0  0  0  0  0  0  0  0  0
   17.8447   -8.8018  -14.7723 O   0  0  0  0  0  0  0  0  0  0  0  0
   19.1428   -8.9480  -16.6490 N   0  0  0  0  0  0  0  0  0  0  0  0
   20.3616   -8.3592  -16.2723 C   0  0  1  0  0  0  0  0  0  0  0  0
   21.6516   -9.0075  -16.7240 C   0  0  0  0  0  0  0  0  0  0  0  0
   22.8584   -8.3356  -16.1914 C   0  0  0  0  0  0  0  0  0  0  0  0
   22.8251   -7.9081  -14.9859 O   0  0  0  0  0  0  0  0  0  0  0  0
   20.4192   -6.8876  -16.2416 C   0  0  0  0  0  0  0  0  0  0  0  0
   20.4585   -6.2757  -17.3710 O   0  0  0  0  0  0  0  0  0  0  0  0
   24.0090   -8.1472  -16.9186 O   0  0  0  0  0  0  0  0  0  0  0  0
   20.4336   -6.1010  -15.0871 N   0  0  0  0  0  0  0  0  0  0  0  0
   20.4591   -4.6425  -15.2127 C   0  0  1  0  0  0  0  0  0  0  0  0
   19.1134   -4.0785  -14.8059 C   0  0  0  0  0  0  0  0  0  0  0  0
   18.5357   -3.1293  -15.7852 C   0  0  0  0  0  0  0  0  0  0  0  0
   17.2393   -2.5488  -15.3890 C   0  0  0  0  0  0  0  0  0  0  0  0
   16.1957   -3.2152  -15.6777 O   0  0  0  0  0  0  0  0  0  0  0  0
   21.5800   -4.1453  -14.3955 C   0  0  0  0  0  0  0  0  0  0  0  0
   21.8420   -2.9269  -14.3728 O   0  0  0  0  0  0  0  0  0  0  0  0
   17.0624   -1.3464  -14.7323 O   0  0  0  0  0  0  0  0  0  0  0  0
   22.3401   -5.0170  -13.6560 O   0  0  0  0  0  0  0  0  0  0  0  0
  2  1  1  0
  2  3  2  0
  4  2  1  0
  5  4  1  0
  5  7  1  0
  5  6  1  1
  7  8  2  0
  9 10  1  0
  9  7  1  0
 10 11  1  6
 11 12  1  0
 12 16  1  0
 13 12  2  0
 14 10  1  0
 14 17  1  0
 15 14  2  0
 18 17  1  0
 18 19  1  1
 20 19  1  0
 20 21  1  0
 21 25  1  0
 21 22  2  0
 23 18  1  0
 24 23  2  0
 26 23  1  0
M  END
$$$$
