NDE.pdb
     RDKit          3D

 26 25  0  0  1  0  0  0  0  0999 V2000
   19.0232  -12.4704  -17.7757 N   0  0  0  0  0  0  0  0  0  0  0  0
   18.3942  -12.0308  -16.5793 C   0  0  0  0  0  0  0  0  0  0  0  0
   17.3447  -12.5827  -16.1802 O   0  0  0  0  0  0  0  0  0  0  0  0
   18.9950  -10.9056  -15.8029 C   0  0  0  0  0  0  0  0  0  0  0  0
   20.3002  -10.5729  -16.5065 C   0  0  2  0  0  0  0  0  0  0  0  0
   21.2207  -11.6418  -16.3118 N   0  0  0  0  0  0  0  0  0  0  0  0
   20.8183   -9.2713  -15.9424 C   0  0  0  0  0  0  0  0  0  0  0  0
   20.1810   -8.6868  -15.0419 O   0  0  0  0  0  0  0  0  0  0  0  0
   22.0126   -8.6961  -16.4106 N   0  0  0  0  0  0  0  0  0  0  0  0
   22.6543   -7.4759  -16.1400 C   0  0  1  0  0  0  0  0  0  0  0  0
   24.1561   -7.3933  -16.3024 C   0  0  0  0  0  0  0  0  0  0  0  0
   24.7125   -6.0783  -15.9122 C   0  0  0  0  0  0  0  0  0  0  0  0
   25.0436   -5.2660  -16.8437 O   0  0  0  0  0  0  0  0  0  0  0  0
   21.9495   -6.2420  -16.5284 C   0  0  0  0  0  0  0  0  0  0  0  0
   21.6877   -6.0807  -17.7761 O   0  0  0  0  0  0  0  0  0  0  0  0
   24.8914   -5.6833  -14.6084 O   0  0  0  0  0  0  0  0  0  0  0  0
   21.5409   -5.2326  -15.6533 N   0  0  0  0  0  0  0  0  0  0  0  0
   20.7696   -4.1016  -16.1726 C   0  0  1  0  0  0  0  0  0  0  0  0
   19.3186   -4.2518  -15.7645 C   0  0  0  0  0  0  0  0  0  0  0  0
   18.4438   -3.1504  -16.2285 C   0  0  0  0  0  0  0  0  0  0  0  0
   17.0311   -3.2743  -15.8243 C   0  0  0  0  0  0  0  0  0  0  0  0
   16.7042   -2.7688  -14.7044 O   0  0  0  0  0  0  0  0  0  0  0  0
   21.3995   -2.8667  -15.6727 C   0  0  0  0  0  0  0  0  0  0  0  0
   22.1821   -2.9148  -14.7037 O   0  0  0  0  0  0  0  0  0  0  0  0
   16.0350   -3.8905  -16.5568 O   0  0  0  0  0  0  0  0  0  0  0  0
   21.1303   -1.6598  -16.2687 O   0  0  0  0  0  0  0  0  0  0  0  0
  2  1  1  0
  2  3  2  0
  4  2  1  0
  5  4  1  0
  5  7  1  0
  5  6  1  1
  7  8  2  0
  9 10  1  0
  9  7  1  0
 10 11  1  6
 11 12  1  0
 12 16  1  0
 13 12  2  0
 14 10  1  0
 14 17  1  0
 15 14  2  0
 18 17  1  0
 18 19  1  1
 20 19  1  0
 20 21  1  0
 21 25  1  0
 21 22  2  0
 23 18  1  0
 24 23  2  0
 26 23  1  0
M  END
$$$$
