NDE.pdb
     RDKit          3D

 26 25  0  0  1  0  0  0  0  0999 V2000
   15.1376   -9.6415  -18.7451 N   0  0  0  0  0  0  0  0  0  0  0  0
   15.7015  -10.4160  -17.6951 C   0  0  0  0  0  0  0  0  0  0  0  0
   15.3880  -11.6200  -17.5623 O   0  0  0  0  0  0  0  0  0  0  0  0
   16.6701   -9.7821  -16.7518 C   0  0  0  0  0  0  0  0  0  0  0  0
   18.0459  -10.2362  -17.2104 C   0  0  2  0  0  0  0  0  0  0  0  0
   18.1229  -11.6553  -17.1197 N   0  0  0  0  0  0  0  0  0  0  0  0
   19.0776   -9.5577  -16.3409 C   0  0  0  0  0  0  0  0  0  0  0  0
   18.7700   -9.1799  -15.1914 O   0  0  0  0  0  0  0  0  0  0  0  0
   20.3888   -9.3391  -16.7984 N   0  0  0  0  0  0  0  0  0  0  0  0
   21.5138   -8.7313  -16.2161 C   0  0  1  0  0  0  0  0  0  0  0  0
   22.8752   -9.3480  -16.4501 C   0  0  0  0  0  0  0  0  0  0  0  0
   22.9369  -10.7802  -16.0810 C   0  0  0  0  0  0  0  0  0  0  0  0
   22.4201  -11.1358  -14.9659 O   0  0  0  0  0  0  0  0  0  0  0  0
   21.5334   -7.2594  -16.1621 C   0  0  0  0  0  0  0  0  0  0  0  0
   21.8330   -6.6339  -17.2439 O   0  0  0  0  0  0  0  0  0  0  0  0
   23.5164  -11.7456  -16.8685 O   0  0  0  0  0  0  0  0  0  0  0  0
   21.2526   -6.4861  -15.0329 N   0  0  0  0  0  0  0  0  0  0  0  0
   21.2158   -5.0273  -15.1533 C   0  0  1  0  0  0  0  0  0  0  0  0
   19.7884   -4.5450  -14.9970 C   0  0  0  0  0  0  0  0  0  0  0  0
   19.6453   -3.0708  -15.0021 C   0  0  0  0  0  0  0  0  0  0  0  0
   18.2672   -2.5853  -14.8029 C   0  0  0  0  0  0  0  0  0  0  0  0
   17.3574   -3.4647  -14.6785 O   0  0  0  0  0  0  0  0  0  0  0  0
   22.1401   -4.4747  -14.1474 C   0  0  0  0  0  0  0  0  0  0  0  0
   22.5717   -5.2020  -13.2318 O   0  0  0  0  0  0  0  0  0  0  0  0
   17.8815   -1.2604  -14.7395 O   0  0  0  0  0  0  0  0  0  0  0  0
   22.5311   -3.1604  -14.2119 O   0  0  0  0  0  0  0  0  0  0  0  0
  2  1  1  0
  2  3  2  0
  4  2  1  0
  5  4  1  0
  5  7  1  0
  5  6  1  1
  7  8  2  0
  9 10  1  0
  9  7  1  0
 10 11  1  6
 11 12  1  0
 12 16  1  0
 13 12  2  0
 14 10  1  0
 14 17  1  0
 15 14  2  0
 18 17  1  0
 18 19  1  1
 20 19  1  0
 20 21  1  0
 21 25  1  0
 21 22  2  0
 23 18  1  0
 24 23  2  0
 26 23  1  0
M  END
$$$$
