NDE.pdb
     RDKit          3D

 26 25  0  0  1  0  0  0  0  0999 V2000
   10.2328  -11.1375  -10.3729 N   0  0  0  0  0  0  0  0  0  0  0  0
   10.7658  -10.2488   -9.4002 C   0  0  0  0  0  0  0  0  0  0  0  0
   10.0157   -9.7277   -8.5450 O   0  0  0  0  0  0  0  0  0  0  0  0
   12.2271   -9.9415   -9.4067 C   0  0  0  0  0  0  0  0  0  0  0  0
   12.8190  -10.7876  -10.5217 C   0  0  2  0  0  0  0  0  0  0  0  0
   12.9638  -12.1280  -10.0632 N   0  0  0  0  0  0  0  0  0  0  0  0
   14.1435  -10.1802  -10.9186 C   0  0  0  0  0  0  0  0  0  0  0  0
   15.0157   -9.9696  -10.0504 O   0  0  0  0  0  0  0  0  0  0  0  0
   14.4214   -9.8429  -12.2548 N   0  0  0  0  0  0  0  0  0  0  0  0
   15.4998   -9.1833  -12.8680 C   0  0  1  0  0  0  0  0  0  0  0  0
   16.1354   -9.8106  -14.0891 C   0  0  0  0  0  0  0  0  0  0  0  0
   17.3090   -9.0578  -14.5862 C   0  0  0  0  0  0  0  0  0  0  0  0
   18.3218   -8.9450  -13.8125 O   0  0  0  0  0  0  0  0  0  0  0  0
   15.4509   -7.7119  -12.9176 C   0  0  0  0  0  0  0  0  0  0  0  0
   14.4678   -7.1758  -13.5481 O   0  0  0  0  0  0  0  0  0  0  0  0
   17.3702   -8.4760  -15.8295 O   0  0  0  0  0  0  0  0  0  0  0  0
   16.3837   -6.8500  -12.3354 N   0  0  0  0  0  0  0  0  0  0  0  0
   16.2438   -5.4054  -12.5279 C   0  0  1  0  0  0  0  0  0  0  0  0
   16.2544   -4.7144  -11.1800 C   0  0  0  0  0  0  0  0  0  0  0  0
   14.9588   -4.1023  -10.8050 C   0  0  0  0  0  0  0  0  0  0  0  0
   14.9730   -3.3647   -9.5283 C   0  0  0  0  0  0  0  0  0  0  0  0
   13.8701   -2.8690   -9.1353 O   0  0  0  0  0  0  0  0  0  0  0  0
   17.3288   -4.9690  -13.4245 C   0  0  0  0  0  0  0  0  0  0  0  0
   18.2171   -5.7743  -13.7652 O   0  0  0  0  0  0  0  0  0  0  0  0
   16.0791   -3.1670   -8.7246 O   0  0  0  0  0  0  0  0  0  0  0  0
   17.3681   -3.6780  -13.8894 O   0  0  0  0  0  0  0  0  0  0  0  0
  2  1  1  0
  2  3  2  0
  4  2  1  0
  5  4  1  0
  5  7  1  0
  5  6  1  1
  7  8  2  0
  9 10  1  0
  9  7  1  0
 10 11  1  6
 11 12  1  0
 12 16  1  0
 13 12  2  0
 14 10  1  0
 14 17  1  0
 15 14  2  0
 18 17  1  0
 18 19  1  1
 20 19  1  0
 20 21  1  0
 21 25  1  0
 21 22  2  0
 23 18  1  0
 24 23  2  0
 26 23  1  0
M  END
$$$$
