NDE.pdb
     RDKit          3D

 26 25  0  0  1  0  0  0  0  0999 V2000
   16.0696  -13.3483  -15.0023 N   0  0  0  0  0  0  0  0  0  0  0  0
   17.4823  -13.2337  -14.8954 C   0  0  0  0  0  0  0  0  0  0  0  0
   18.1639  -14.2021  -14.4915 O   0  0  0  0  0  0  0  0  0  0  0  0
   18.1465  -11.9494  -15.2683 C   0  0  0  0  0  0  0  0  0  0  0  0
   17.0242  -11.0130  -15.6841 C   0  0  2  0  0  0  0  0  0  0  0  0
   16.4099  -11.5170  -16.8658 N   0  0  0  0  0  0  0  0  0  0  0  0
   17.6142   -9.6390  -15.8962 C   0  0  0  0  0  0  0  0  0  0  0  0
   18.2833   -9.4018  -16.9232 O   0  0  0  0  0  0  0  0  0  0  0  0
   17.4265   -8.6104  -14.9565 N   0  0  0  0  0  0  0  0  0  0  0  0
   17.8477   -7.2708  -14.9112 C   0  0  1  0  0  0  0  0  0  0  0  0
   16.8756   -6.2199  -14.4220 C   0  0  0  0  0  0  0  0  0  0  0  0
   17.3848   -4.8386  -14.5769 C   0  0  0  0  0  0  0  0  0  0  0  0
   17.7263   -4.2025  -13.5207 O   0  0  0  0  0  0  0  0  0  0  0  0
   19.2431   -7.0150  -14.5143 C   0  0  0  0  0  0  0  0  0  0  0  0
   19.6415   -7.5205  -13.4020 O   0  0  0  0  0  0  0  0  0  0  0  0
   17.5110   -4.2047  -15.7895 O   0  0  0  0  0  0  0  0  0  0  0  0
   20.1702   -6.2694  -15.2466 N   0  0  0  0  0  0  0  0  0  0  0  0
   21.5617   -6.2114  -14.7948 C   0  0  1  0  0  0  0  0  0  0  0  0
   22.4810   -6.1807  -15.9982 C   0  0  0  0  0  0  0  0  0  0  0  0
   23.9183   -6.0715  -15.6574 C   0  0  0  0  0  0  0  0  0  0  0  0
   24.8148   -5.9035  -16.8161 C   0  0  0  0  0  0  0  0  0  0  0  0
   24.2776   -5.9150  -17.9684 O   0  0  0  0  0  0  0  0  0  0  0  0
   21.6958   -5.0345  -13.9181 C   0  0  0  0  0  0  0  0  0  0  0  0
   20.9555   -4.0457  -14.0851 O   0  0  0  0  0  0  0  0  0  0  0  0
   26.1846   -5.7349  -16.7566 O   0  0  0  0  0  0  0  0  0  0  0  0
   22.6329   -5.0193  -12.9151 O   0  0  0  0  0  0  0  0  0  0  0  0
  2  1  1  0
  2  3  2  0
  4  2  1  0
  5  4  1  0
  5  7  1  0
  5  6  1  6
  7  8  2  0
  9 10  1  0
  9  7  1  0
 10 11  1  1
 11 12  1  0
 12 16  1  0
 13 12  2  0
 14 10  1  0
 14 17  1  0
 15 14  2  0
 18 17  1  0
 18 19  1  6
 20 19  1  0
 20 21  1  0
 21 25  1  0
 21 22  2  0
 23 18  1  0
 24 23  2  0
 26 23  1  0
M  END
$$$$
