TKT.pdb
     RDKit          3D

 24 23  0  0  1  0  0  0  0  0999 V2000
    8.8877  -12.9236   20.4302 C   0  0  0  0  0  0  0  0  0  0  0  0
    8.0593  -13.5596   19.3380 C   0  0  1  0  0  0  0  0  0  0  0  0
    8.5189  -13.1351   18.1052 O   0  0  0  0  0  0  0  0  0  0  0  0
    8.0937  -15.0670   19.4776 C   0  0  2  0  0  0  0  0  0  0  0  0
    7.3762  -15.6238   18.3663 N   0  0  0  0  0  0  0  0  0  0  0  0
    7.5155  -15.4365   20.7758 C   0  0  0  0  0  0  0  0  0  0  0  0
    6.2752  -15.3611   20.9346 O   0  0  0  0  0  0  0  0  0  0  0  0
    8.3145  -15.8776   21.8611 N   0  0  0  0  0  0  0  0  0  0  0  0
    7.7031  -16.3251   23.1409 C   0  0  1  0  0  0  0  0  0  0  0  0
    8.2561  -17.6924   23.3860 C   0  0  0  0  0  0  0  0  0  0  0  0
    7.9236  -18.2681   24.7270 C   0  0  0  0  0  0  0  0  0  0  0  0
    8.5436  -19.6616   24.8861 C   0  0  0  0  0  0  0  0  0  0  0  0
    8.1550  -20.2088   26.2447 C   0  0  0  0  0  0  0  0  0  0  0  0
    8.6865  -21.5624   26.4234 N   0  0  0  0  0  0  0  0  0  0  0  0
    8.0137  -15.3283   24.1729 C   0  0  0  0  0  0  0  0  0  0  0  0
    9.1550  -14.7912   24.1383 O   0  0  0  0  0  0  0  0  0  0  0  0
    7.1332  -11.7195   27.2460 C   0  0  0  0  0  0  0  0  0  0  0  0
    6.5226  -12.8287   26.4138 C   0  0  1  0  0  0  0  0  0  0  0  0
    5.8469  -12.3562   25.3172 O   0  0  0  0  0  0  0  0  0  0  0  0
    7.5378  -13.8741   26.1130 C   0  0  2  0  0  0  0  0  0  0  0  0
    7.1516  -14.9003   25.2129 N   0  0  0  0  0  0  0  0  0  0  0  0
    8.1985  -14.3573   27.3658 C   0  0  0  0  0  0  0  0  0  0  0  0
    8.8415  -13.4691   28.2067 O   0  0  0  0  0  0  0  0  0  0  0  0
    8.1820  -15.5631   27.6738 O   0  0  0  0  0  0  0  0  0  0  0  0
  2  1  1  1
  2  3  1  0
  4  2  1  0
  4  5  1  6
  6  4  1  0
  7  6  2  0
  8  6  1  0
  9  8  1  0
  9 10  1  1
 10 11  1  0
 11 12  1  0
 12 13  1  0
 13 14  1  0
 15 21  1  0
 15  9  1  0
 16 15  2  0
 18 20  1  0
 18 17  1  6
 19 18  1  0
 20 22  1  0
 20 21  1  1
 22 23  1  0
 24 22  2  0
M  END
$$$$
