TKT.pdb
     RDKit          3D

 24 23  0  0  1  0  0  0  0  0999 V2000
    8.8196  -19.7281   16.9710 C   0  0  0  0  0  0  0  0  0  0  0  0
    8.3322  -19.1035   18.2578 C   0  0  1  0  0  0  0  0  0  0  0  0
    9.2764  -18.2060   18.7205 O   0  0  0  0  0  0  0  0  0  0  0  0
    6.9817  -18.4555   18.0362 C   0  0  2  0  0  0  0  0  0  0  0  0
    7.1449  -17.4397   17.0355 N   0  0  0  0  0  0  0  0  0  0  0  0
    6.4940  -17.9258   19.3159 C   0  0  0  0  0  0  0  0  0  0  0  0
    6.7357  -16.7334   19.6142 O   0  0  0  0  0  0  0  0  0  0  0  0
    5.7559  -18.7193   20.2305 N   0  0  0  0  0  0  0  0  0  0  0  0
    5.1857  -18.1381   21.4750 C   0  0  1  0  0  0  0  0  0  0  0  0
    4.0030  -18.9918   21.8038 C   0  0  0  0  0  0  0  0  0  0  0  0
    2.8343  -18.8182   20.8849 C   0  0  0  0  0  0  0  0  0  0  0  0
    1.7568  -19.8699   21.1757 C   0  0  0  0  0  0  0  0  0  0  0  0
    0.5619  -19.5935   20.2858 C   0  0  0  0  0  0  0  0  0  0  0  0
   -0.5006  -20.5708   20.5357 N   0  0  0  0  0  0  0  0  0  0  0  0
    6.2410  -18.1084   22.4950 C   0  0  0  0  0  0  0  0  0  0  0  0
    7.0475  -19.0784   22.5262 O   0  0  0  0  0  0  0  0  0  0  0  0
    9.2481  -16.3034   22.7654 C   0  0  0  0  0  0  0  0  0  0  0  0
    8.6318  -16.1362   24.1395 C   0  0  1  0  0  0  0  0  0  0  0  0
    8.2699  -14.8391   24.4023 O   0  0  0  0  0  0  0  0  0  0  0  0
    7.5506  -17.1362   24.3511 C   0  0  2  0  0  0  0  0  0  0  0  0
    6.4511  -17.0884   23.4559 N   0  0  0  0  0  0  0  0  0  0  0  0
    7.1759  -17.2242   25.7973 C   0  0  0  0  0  0  0  0  0  0  0  0
    8.1014  -17.6350   26.7376 O   0  0  0  0  0  0  0  0  0  0  0  0
    6.0286  -16.9304   26.1801 O   0  0  0  0  0  0  0  0  0  0  0  0
  2  1  1  6
  2  3  1  0
  4  2  1  0
  4  5  1  6
  6  4  1  0
  7  6  2  0
  8  6  1  0
  9  8  1  0
  9 10  1  1
 10 11  1  0
 11 12  1  0
 12 13  1  0
 13 14  1  0
 15 21  1  0
 15  9  1  0
 16 15  2  0
 18 20  1  0
 18 17  1  6
 19 18  1  0
 20 22  1  0
 20 21  1  6
 22 23  1  0
 24 22  2  0
M  END
$$$$
