TKT.pdb
     RDKit          3D

 24 23  0  0  1  0  0  0  0  0999 V2000
   10.3887  -14.0098   20.5725 C   0  0  0  0  0  0  0  0  0  0  0  0
    9.3023  -13.2571   19.8399 C   0  0  1  0  0  0  0  0  0  0  0  0
    9.8070  -12.7595   18.6530 O   0  0  0  0  0  0  0  0  0  0  0  0
    8.1065  -14.1605   19.6235 C   0  0  2  0  0  0  0  0  0  0  0  0
    7.1358  -13.4241   18.8650 N   0  0  0  0  0  0  0  0  0  0  0  0
    7.6001  -14.5983   20.9303 C   0  0  0  0  0  0  0  0  0  0  0  0
    6.8605  -13.8292   21.5867 O   0  0  0  0  0  0  0  0  0  0  0  0
    7.9197  -15.8664   21.4787 N   0  0  0  0  0  0  0  0  0  0  0  0
    7.3405  -16.3191   22.7715 C   0  0  1  0  0  0  0  0  0  0  0  0
    7.4262  -17.8116   22.7417 C   0  0  0  0  0  0  0  0  0  0  0  0
    6.9935  -18.4862   24.0058 C   0  0  0  0  0  0  0  0  0  0  0  0
    6.9878  -20.0096   23.8312 C   0  0  0  0  0  0  0  0  0  0  0  0
    6.5286  -20.6411   25.1298 C   0  0  0  0  0  0  0  0  0  0  0  0
    6.3015  -22.0773   24.9495 N   0  0  0  0  0  0  0  0  0  0  0  0
    8.0808  -15.6698   23.8603 C   0  0  0  0  0  0  0  0  0  0  0  0
    9.3260  -15.5277   23.7134 O   0  0  0  0  0  0  0  0  0  0  0  0
    6.2989  -13.0679   26.6728 C   0  0  0  0  0  0  0  0  0  0  0  0
    7.7295  -12.9739   26.1825 C   0  0  1  0  0  0  0  0  0  0  0  0
    8.5112  -12.1789   26.9820 O   0  0  0  0  0  0  0  0  0  0  0  0
    8.2832  -14.3311   25.9273 C   0  0  2  0  0  0  0  0  0  0  0  0
    7.5330  -15.1772   25.0707 N   0  0  0  0  0  0  0  0  0  0  0  0
    8.7374  -14.9740   27.2000 C   0  0  0  0  0  0  0  0  0  0  0  0
    8.3886  -16.2794   27.4895 O   0  0  0  0  0  0  0  0  0  0  0  0
    9.4351  -14.3486   28.0194 O   0  0  0  0  0  0  0  0  0  0  0  0
  2  1  1  6
  2  3  1  0
  4  2  1  0
  4  5  1  1
  6  4  1  0
  7  6  2  0
  8  6  1  0
  9  8  1  0
  9 10  1  1
 10 11  1  0
 11 12  1  0
 12 13  1  0
 13 14  1  0
 15 21  1  0
 15  9  1  0
 16 15  2  0
 18 20  1  0
 18 17  1  1
 19 18  1  0
 20 22  1  0
 20 21  1  1
 22 23  1  0
 24 22  2  0
M  END
$$$$
