TKT.pdb
     RDKit          3D

 24 23  0  0  1  0  0  0  0  0999 V2000
    8.8012  -12.6773   20.5211 C   0  0  0  0  0  0  0  0  0  0  0  0
    7.8737  -13.3712   19.5506 C   0  0  1  0  0  0  0  0  0  0  0  0
    8.1425  -12.9368   18.2660 O   0  0  0  0  0  0  0  0  0  0  0  0
    8.0113  -14.8726   19.6914 C   0  0  2  0  0  0  0  0  0  0  0  0
    7.1898  -15.4816   18.6843 N   0  0  0  0  0  0  0  0  0  0  0  0
    7.6265  -15.2585   21.0549 C   0  0  0  0  0  0  0  0  0  0  0  0
    6.4114  -15.3009   21.3568 O   0  0  0  0  0  0  0  0  0  0  0  0
    8.5854  -15.5862   22.0468 N   0  0  0  0  0  0  0  0  0  0  0  0
    8.1747  -16.0969   23.3819 C   0  0  1  0  0  0  0  0  0  0  0  0
    8.9974  -17.3254   23.6050 C   0  0  0  0  0  0  0  0  0  0  0  0
    8.8330  -17.9487   24.9558 C   0  0  0  0  0  0  0  0  0  0  0  0
    9.6786  -19.2229   25.0699 C   0  0  0  0  0  0  0  0  0  0  0  0
    9.3850  -19.8773   26.4047 C   0  0  0  0  0  0  0  0  0  0  0  0
   10.2380  -21.0527   26.5982 N   0  0  0  0  0  0  0  0  0  0  0  0
    8.3694  -15.0243   24.3650 C   0  0  0  0  0  0  0  0  0  0  0  0
    9.4269  -14.3410   24.2790 O   0  0  0  0  0  0  0  0  0  0  0  0
    6.3921  -11.7203   25.3330 C   0  0  0  0  0  0  0  0  0  0  0  0
    6.6114  -12.6361   26.5201 C   0  0  1  0  0  0  0  0  0  0  0  0
    5.4555  -13.2457   26.9381 O   0  0  0  0  0  0  0  0  0  0  0  0
    7.7430  -13.5662   26.2590 C   0  0  2  0  0  0  0  0  0  0  0  0
    7.4794  -14.6715   25.4097 N   0  0  0  0  0  0  0  0  0  0  0  0
    8.4600  -13.9090   27.5270 C   0  0  0  0  0  0  0  0  0  0  0  0
    8.7676  -15.2227   27.8254 O   0  0  0  0  0  0  0  0  0  0  0  0
    8.7920  -13.0217   28.3343 O   0  0  0  0  0  0  0  0  0  0  0  0
  2  1  1  1
  2  3  1  0
  4  2  1  0
  4  5  1  6
  6  4  1  0
  7  6  2  0
  8  6  1  0
  9  8  1  0
  9 10  1  1
 10 11  1  0
 11 12  1  0
 12 13  1  0
 13 14  1  0
 15 21  1  0
 15  9  1  0
 16 15  2  0
 18 20  1  0
 18 17  1  6
 19 18  1  0
 20 22  1  0
 20 21  1  1
 22 23  1  0
 24 22  2  0
M  END
$$$$
