TKT.pdb
     RDKit          3D

 24 23  0  0  1  0  0  0  0  0999 V2000
    7.3662  -16.2818   19.4173 C   0  0  0  0  0  0  0  0  0  0  0  0
    8.0687  -15.1472   18.7082 C   0  0  1  0  0  0  0  0  0  0  0  0
    7.7749  -15.1958   17.3582 O   0  0  0  0  0  0  0  0  0  0  0  0
    7.6760  -13.8263   19.3359 C   0  0  2  0  0  0  0  0  0  0  0  0
    8.1772  -12.7778   18.4937 N   0  0  0  0  0  0  0  0  0  0  0  0
    8.2141  -13.7712   20.7010 C   0  0  0  0  0  0  0  0  0  0  0  0
    9.4364  -13.5527   20.8663 O   0  0  0  0  0  0  0  0  0  0  0  0
    7.3959  -13.9573   21.8441 N   0  0  0  0  0  0  0  0  0  0  0  0
    7.9592  -13.8890   23.2188 C   0  0  1  0  0  0  0  0  0  0  0  0
    6.8371  -13.4081   24.0821 C   0  0  0  0  0  0  0  0  0  0  0  0
    7.1459  -13.3779   25.5463 C   0  0  0  0  0  0  0  0  0  0  0  0
    5.9601  -12.8128   26.3376 C   0  0  0  0  0  0  0  0  0  0  0  0
    6.3891  -12.6245   27.7786 C   0  0  0  0  0  0  0  0  0  0  0  0
    6.7065  -11.2181   28.0395 N   0  0  0  0  0  0  0  0  0  0  0  0
    8.4937  -15.2120   23.5638 C   0  0  0  0  0  0  0  0  0  0  0  0
    7.7237  -16.2030   23.4320 O   0  0  0  0  0  0  0  0  0  0  0  0
   11.8224  -18.6857   23.9855 C   0  0  0  0  0  0  0  0  0  0  0  0
   11.5008  -17.2484   23.6296 C   0  0  1  0  0  0  0  0  0  0  0  0
   11.5680  -17.0102   22.2801 O   0  0  0  0  0  0  0  0  0  0  0  0
   10.2267  -16.8251   24.2708 C   0  0  2  0  0  0  0  0  0  0  0  0
    9.8017  -15.4931   24.0308 N   0  0  0  0  0  0  0  0  0  0  0  0
   10.1818  -17.2467   25.7060 C   0  0  0  0  0  0  0  0  0  0  0  0
   10.2604  -16.3067   26.7157 O   0  0  0  0  0  0  0  0  0  0  0  0
   10.0732  -18.4470   26.0173 O   0  0  0  0  0  0  0  0  0  0  0  0
  2  1  1  1
  2  3  1  0
  4  2  1  0
  4  5  1  6
  6  4  1  0
  7  6  2  0
  8  6  1  0
  9  8  1  0
  9 10  1  1
 10 11  1  0
 11 12  1  0
 12 13  1  0
 13 14  1  0
 15 21  1  0
 15  9  1  0
 16 15  2  0
 18 20  1  0
 18 17  1  6
 19 18  1  0
 20 22  1  0
 20 21  1  1
 22 23  1  0
 24 22  2  0
M  END
$$$$
