TKT.pdb
     RDKit          3D

 24 23  0  0  1  0  0  0  0  0999 V2000
    8.0609  -12.4788   18.4758 C   0  0  0  0  0  0  0  0  0  0  0  0
    8.4280  -13.4968   19.5305 C   0  0  1  0  0  0  0  0  0  0  0  0
    7.3631  -13.6686   20.3951 O   0  0  0  0  0  0  0  0  0  0  0  0
    8.8486  -14.7931   18.8703 C   0  0  2  0  0  0  0  0  0  0  0  0
    7.7229  -15.2915   18.1327 N   0  0  0  0  0  0  0  0  0  0  0  0
    9.3124  -15.7244   19.9063 C   0  0  0  0  0  0  0  0  0  0  0  0
    8.5260  -16.5998   20.3358 O   0  0  0  0  0  0  0  0  0  0  0  0
   10.6247  -15.6682   20.4407 N   0  0  0  0  0  0  0  0  0  0  0  0
   11.0914  -16.6531   21.4527 C   0  0  1  0  0  0  0  0  0  0  0  0
   12.5723  -16.7404   21.2652 C   0  0  0  0  0  0  0  0  0  0  0  0
   13.2667  -17.6688   22.2118 C   0  0  0  0  0  0  0  0  0  0  0  0
   12.8637  -19.1226   21.9368 C   0  0  0  0  0  0  0  0  0  0  0  0
   13.5659  -20.0147   22.9403 C   0  0  0  0  0  0  0  0  0  0  0  0
   13.1879  -21.4151   22.7342 N   0  0  0  0  0  0  0  0  0  0  0  0
   10.6524  -16.1960   22.7768 C   0  0  0  0  0  0  0  0  0  0  0  0
   11.1050  -15.0934   23.1913 O   0  0  0  0  0  0  0  0  0  0  0  0
    7.7094  -14.6844   24.1810 C   0  0  0  0  0  0  0  0  0  0  0  0
    7.9936  -15.8795   25.0681 C   0  0  1  0  0  0  0  0  0  0  0  0
    7.0591  -16.8745   24.9301 O   0  0  0  0  0  0  0  0  0  0  0  0
    9.4034  -16.3263   24.9048 C   0  0  2  0  0  0  0  0  0  0  0  0
    9.7593  -16.8721   23.6447 N   0  0  0  0  0  0  0  0  0  0  0  0
    9.8516  -17.1314   26.0840 C   0  0  0  0  0  0  0  0  0  0  0  0
   10.4306  -18.3733   25.9057 O   0  0  0  0  0  0  0  0  0  0  0  0
    9.7124  -16.7003   27.2433 O   0  0  0  0  0  0  0  0  0  0  0  0
  2  1  1  6
  2  3  1  0
  4  2  1  0
  4  5  1  1
  6  4  1  0
  7  6  2  0
  8  6  1  0
  9  8  1  0
  9 10  1  1
 10 11  1  0
 11 12  1  0
 12 13  1  0
 13 14  1  0
 15 21  1  0
 15  9  1  0
 16 15  2  0
 18 20  1  0
 18 17  1  6
 19 18  1  0
 20 22  1  0
 20 21  1  6
 22 23  1  0
 24 22  2  0
M  END
$$$$
