TKT.pdb
     RDKit          3D

 24 23  0  0  1  0  0  0  0  0999 V2000
    6.9974  -14.8947   17.5978 C   0  0  0  0  0  0  0  0  0  0  0  0
    7.5987  -14.8901   18.9842 C   0  0  1  0  0  0  0  0  0  0  0  0
    8.8348  -15.5083   18.9520 O   0  0  0  0  0  0  0  0  0  0  0  0
    7.6782  -13.4707   19.5059 C   0  0  2  0  0  0  0  0  0  0  0  0
    8.4981  -12.7187   18.5992 N   0  0  0  0  0  0  0  0  0  0  0  0
    8.2121  -13.4972   20.8734 C   0  0  0  0  0  0  0  0  0  0  0  0
    9.4448  -13.3608   21.0497 O   0  0  0  0  0  0  0  0  0  0  0  0
    7.3784  -13.6725   22.0071 N   0  0  0  0  0  0  0  0  0  0  0  0
    7.9293  -13.6262   23.3878 C   0  0  1  0  0  0  0  0  0  0  0  0
    6.8473  -13.0225   24.2247 C   0  0  0  0  0  0  0  0  0  0  0  0
    7.1240  -13.0219   25.6956 C   0  0  0  0  0  0  0  0  0  0  0  0
    5.9796  -12.3466   26.4610 C   0  0  0  0  0  0  0  0  0  0  0  0
    6.3344  -12.3221   27.9339 C   0  0  0  0  0  0  0  0  0  0  0  0
    5.2280  -11.7684   28.7188 N   0  0  0  0  0  0  0  0  0  0  0  0
    8.3325  -14.9855   23.7685 C   0  0  0  0  0  0  0  0  0  0  0  0
    7.4956  -15.9126   23.5882 O   0  0  0  0  0  0  0  0  0  0  0  0
   10.2108  -17.5586   22.3642 C   0  0  0  0  0  0  0  0  0  0  0  0
   10.7857  -17.4567   23.7624 C   0  0  1  0  0  0  0  0  0  0  0  0
   12.0760  -16.9903   23.7707 O   0  0  0  0  0  0  0  0  0  0  0  0
    9.8539  -16.7180   24.6567 C   0  0  2  0  0  0  0  0  0  0  0  0
    9.5806  -15.3673   24.3201 N   0  0  0  0  0  0  0  0  0  0  0  0
   10.1958  -16.9470   26.0955 C   0  0  0  0  0  0  0  0  0  0  0  0
   10.2872  -18.2306   26.5987 O   0  0  0  0  0  0  0  0  0  0  0  0
   10.4036  -15.9901   26.8639 O   0  0  0  0  0  0  0  0  0  0  0  0
  2  1  1  6
  2  3  1  0
  4  2  1  0
  4  5  1  6
  6  4  1  0
  7  6  2  0
  8  6  1  0
  9  8  1  0
  9 10  1  1
 10 11  1  0
 11 12  1  0
 12 13  1  0
 13 14  1  0
 15 21  1  0
 15  9  1  0
 16 15  2  0
 18 20  1  0
 18 17  1  6
 19 18  1  0
 20 22  1  0
 20 21  1  6
 22 23  1  0
 24 22  2  0
M  END
$$$$
