TKT.pdb
     RDKit          3D

 24 23  0  0  1  0  0  0  0  0999 V2000
   10.6690  -14.3770   20.4666 C   0  0  0  0  0  0  0  0  0  0  0  0
    9.8116  -13.3528   19.7599 C   0  0  1  0  0  0  0  0  0  0  0  0
   10.4722  -12.8972   18.6341 O   0  0  0  0  0  0  0  0  0  0  0  0
    8.4599  -13.9514   19.4317 C   0  0  2  0  0  0  0  0  0  0  0  0
    7.7174  -12.9710   18.6919 N   0  0  0  0  0  0  0  0  0  0  0  0
    7.7997  -14.3463   20.6823 C   0  0  0  0  0  0  0  0  0  0  0  0
    7.1069  -13.5039   21.2986 O   0  0  0  0  0  0  0  0  0  0  0  0
    7.9188  -15.6530   21.2202 N   0  0  0  0  0  0  0  0  0  0  0  0
    7.1276  -16.0773   22.4058 C   0  0  1  0  0  0  0  0  0  0  0  0
    7.0787  -17.5700   22.3343 C   0  0  0  0  0  0  0  0  0  0  0  0
    6.4919  -18.2329   23.5412 C   0  0  0  0  0  0  0  0  0  0  0  0
    6.5314  -19.7587   23.3931 C   0  0  0  0  0  0  0  0  0  0  0  0
    5.9019  -20.3781   24.6243 C   0  0  0  0  0  0  0  0  0  0  0  0
    5.8432  -21.8361   24.4920 N   0  0  0  0  0  0  0  0  0  0  0  0
    7.7672  -15.5272   23.6072 C   0  0  0  0  0  0  0  0  0  0  0  0
    9.0274  -15.4622   23.6174 O   0  0  0  0  0  0  0  0  0  0  0  0
    7.2937  -12.0314   25.5936 C   0  0  0  0  0  0  0  0  0  0  0  0
    7.1784  -13.2599   26.4730 C   0  0  1  0  0  0  0  0  0  0  0  0
    5.8952  -13.4825   26.9047 O   0  0  0  0  0  0  0  0  0  0  0  0
    7.8246  -14.4305   25.8206 C   0  0  2  0  0  0  0  0  0  0  0  0
    7.1063  -15.0529   24.7674 N   0  0  0  0  0  0  0  0  0  0  0  0
    8.3818  -15.3738   26.8401 C   0  0  0  0  0  0  0  0  0  0  0  0
    9.1945  -14.9080   27.8560 O   0  0  0  0  0  0  0  0  0  0  0  0
    8.1253  -16.5908   26.7936 O   0  0  0  0  0  0  0  0  0  0  0  0
  2  1  1  6
  2  3  1  0
  4  2  1  0
  4  5  1  1
  6  4  1  0
  7  6  2  0
  8  6  1  0
  9  8  1  0
  9 10  1  1
 10 11  1  0
 11 12  1  0
 12 13  1  0
 13 14  1  0
 15 21  1  0
 15  9  1  0
 16 15  2  0
 18 20  1  0
 18 17  1  6
 19 18  1  0
 20 22  1  0
 20 21  1  1
 22 23  1  0
 24 22  2  0
M  END
$$$$
