TKT.pdb
     RDKit          3D

 24 23  0  0  1  0  0  0  0  0999 V2000
    7.2450  -17.8966   20.6414 C   0  0  0  0  0  0  0  0  0  0  0  0
    8.4161  -17.4519   19.7963 C   0  0  1  0  0  0  0  0  0  0  0  0
    8.2506  -17.9098   18.5025 O   0  0  0  0  0  0  0  0  0  0  0  0
    8.5544  -15.9453   19.8607 C   0  0  2  0  0  0  0  0  0  0  0  0
    9.5286  -15.5551   18.8816 N   0  0  0  0  0  0  0  0  0  0  0  0
    8.9302  -15.5614   21.2272 C   0  0  0  0  0  0  0  0  0  0  0  0
   10.1172  -15.7116   21.5983 O   0  0  0  0  0  0  0  0  0  0  0  0
    7.9933  -15.0242   22.1462 N   0  0  0  0  0  0  0  0  0  0  0  0
    8.4079  -14.5792   23.5034 C   0  0  1  0  0  0  0  0  0  0  0  0
    7.2818  -13.7313   24.0022 C   0  0  0  0  0  0  0  0  0  0  0  0
    7.4223  -13.2813   25.4227 C   0  0  0  0  0  0  0  0  0  0  0  0
    6.2777  -12.3356   25.8061 C   0  0  0  0  0  0  0  0  0  0  0  0
    6.5220  -11.8302   27.2136 C   0  0  0  0  0  0  0  0  0  0  0  0
    5.4649  -10.8983   27.6146 N   0  0  0  0  0  0  0  0  0  0  0  0
    8.7007  -15.7709   24.3092 C   0  0  0  0  0  0  0  0  0  0  0  0
    7.8217  -16.6753   24.3512 O   0  0  0  0  0  0  0  0  0  0  0  0
   10.5391  -18.6164   23.6767 C   0  0  0  0  0  0  0  0  0  0  0  0
   11.0631  -18.1904   25.0331 C   0  0  1  0  0  0  0  0  0  0  0  0
   12.3581  -17.7401   24.9820 O   0  0  0  0  0  0  0  0  0  0  0  0
   10.1085  -17.2584   25.6916 C   0  0  2  0  0  0  0  0  0  0  0  0
    9.8844  -16.0134   25.0495 N   0  0  0  0  0  0  0  0  0  0  0  0
   10.3763  -17.1647   27.1610 C   0  0  0  0  0  0  0  0  0  0  0  0
   10.4704  -18.3084   27.9308 O   0  0  0  0  0  0  0  0  0  0  0  0
   10.5189  -16.0600   27.7163 O   0  0  0  0  0  0  0  0  0  0  0  0
  2  1  1  1
  2  3  1  0
  4  2  1  0
  4  5  1  6
  6  4  1  0
  7  6  2  0
  8  6  1  0
  9  8  1  0
  9 10  1  1
 10 11  1  0
 11 12  1  0
 12 13  1  0
 13 14  1  0
 15 21  1  0
 15  9  1  0
 16 15  2  0
 18 20  1  0
 18 17  1  6
 19 18  1  0
 20 22  1  0
 20 21  1  6
 22 23  1  0
 24 22  2  0
M  END
$$$$
