TKT.pdb
     RDKit          3D

 24 23  0  0  1  0  0  0  0  0999 V2000
    8.3808  -12.8580   20.5577 C   0  0  0  0  0  0  0  0  0  0  0  0
    7.7823  -13.5803   19.3729 C   0  0  1  0  0  0  0  0  0  0  0  0
    8.3285  -13.0809   18.2052 O   0  0  0  0  0  0  0  0  0  0  0  0
    7.9975  -15.0723   19.5173 C   0  0  2  0  0  0  0  0  0  0  0  0
    7.4425  -15.7068   18.3558 N   0  0  0  0  0  0  0  0  0  0  0  0
    7.3749  -15.5224   20.7686 C   0  0  0  0  0  0  0  0  0  0  0  0
    6.1257  -15.5823   20.8411 O   0  0  0  0  0  0  0  0  0  0  0  0
    8.1404  -15.8936   21.9031 N   0  0  0  0  0  0  0  0  0  0  0  0
    7.4900  -16.3458   23.1617 C   0  0  1  0  0  0  0  0  0  0  0  0
    7.7893  -17.8076   23.2579 C   0  0  0  0  0  0  0  0  0  0  0  0
    6.5924  -18.6981   23.1372 C   0  0  0  0  0  0  0  0  0  0  0  0
    6.9963  -20.1700   23.2851 C   0  0  0  0  0  0  0  0  0  0  0  0
    5.7586  -21.0279   23.1169 C   0  0  0  0  0  0  0  0  0  0  0  0
    6.1171  -22.4485   23.1042 N   0  0  0  0  0  0  0  0  0  0  0  0
    8.0039  -15.5261   24.2659 C   0  0  0  0  0  0  0  0  0  0  0  0
    9.2195  -15.1900   24.2242 O   0  0  0  0  0  0  0  0  0  0  0  0
    7.7429  -12.1724   27.7655 C   0  0  0  0  0  0  0  0  0  0  0  0
    6.9659  -13.0839   26.8374 C   0  0  1  0  0  0  0  0  0  0  0  0
    6.2883  -12.3941   25.8641 O   0  0  0  0  0  0  0  0  0  0  0  0
    7.8384  -14.1766   26.3291 C   0  0  2  0  0  0  0  0  0  0  0  0
    7.2650  -15.0654   25.3838 N   0  0  0  0  0  0  0  0  0  0  0  0
    8.5716  -14.8440   27.4501 C   0  0  0  0  0  0  0  0  0  0  0  0
    9.3154  -14.0975   28.3440 O   0  0  0  0  0  0  0  0  0  0  0  0
    8.5261  -16.0789   27.5989 O   0  0  0  0  0  0  0  0  0  0  0  0
  2  1  1  1
  2  3  1  0
  4  2  1  0
  4  5  1  6
  6  4  1  0
  7  6  2  0
  8  6  1  0
  9  8  1  0
  9 10  1  1
 10 11  1  0
 11 12  1  0
 12 13  1  0
 13 14  1  0
 15 21  1  0
 15  9  1  0
 16 15  2  0
 18 20  1  0
 18 17  1  6
 19 18  1  0
 20 22  1  0
 20 21  1  1
 22 23  1  0
 24 22  2  0
M  END
$$$$
