TKT.pdb
     RDKit          3D

 24 23  0  0  1  0  0  0  0  0999 V2000
   10.5602  -13.7763   17.9270 C   0  0  0  0  0  0  0  0  0  0  0  0
    9.8396  -14.1985   19.1863 C   0  0  1  0  0  0  0  0  0  0  0  0
   10.3490  -13.4994   20.2647 O   0  0  0  0  0  0  0  0  0  0  0  0
    8.3486  -13.9935   19.0195 C   0  0  2  0  0  0  0  0  0  0  0  0
    8.1276  -12.6006   18.7532 N   0  0  0  0  0  0  0  0  0  0  0  0
    7.6668  -14.4598   20.2334 C   0  0  0  0  0  0  0  0  0  0  0  0
    7.1622  -13.6174   21.0113 O   0  0  0  0  0  0  0  0  0  0  0  0
    7.5587  -15.8359   20.5584 N   0  0  0  0  0  0  0  0  0  0  0  0
    6.8170  -16.2905   21.7647 C   0  0  1  0  0  0  0  0  0  0  0  0
    6.5662  -17.7485   21.5479 C   0  0  0  0  0  0  0  0  0  0  0  0
    5.9642  -18.4584   22.7200 C   0  0  0  0  0  0  0  0  0  0  0  0
    5.8536  -19.9626   22.4428 C   0  0  0  0  0  0  0  0  0  0  0  0
    5.2321  -20.6304   23.6526 C   0  0  0  0  0  0  0  0  0  0  0  0
    5.0008  -22.0533   23.3906 N   0  0  0  0  0  0  0  0  0  0  0  0
    7.6188  -15.9612   22.9495 C   0  0  0  0  0  0  0  0  0  0  0  0
    8.8728  -16.0609   22.8496 O   0  0  0  0  0  0  0  0  0  0  0  0
    7.5624  -12.6010   25.1005 C   0  0  0  0  0  0  0  0  0  0  0  0
    7.5188  -13.8417   25.9692 C   0  0  1  0  0  0  0  0  0  0  0  0
    6.3080  -14.0084   26.5924 O   0  0  0  0  0  0  0  0  0  0  0  0
    7.9921  -15.0286   25.2070 C   0  0  2  0  0  0  0  0  0  0  0  0
    7.1229  -15.5342   24.2064 N   0  0  0  0  0  0  0  0  0  0  0  0
    8.5587  -16.0655   26.1253 C   0  0  0  0  0  0  0  0  0  0  0  0
    9.5334  -15.7299   27.0454 O   0  0  0  0  0  0  0  0  0  0  0  0
    8.1650  -17.2454   26.0786 O   0  0  0  0  0  0  0  0  0  0  0  0
  2  1  1  6
  2  3  1  0
  4  2  1  0
  4  5  1  1
  6  4  1  0
  7  6  2  0
  8  6  1  0
  9  8  1  0
  9 10  1  6
 10 11  1  0
 11 12  1  0
 12 13  1  0
 13 14  1  0
 15 21  1  0
 15  9  1  0
 16 15  2  0
 18 20  1  0
 18 17  1  6
 19 18  1  0
 20 22  1  0
 20 21  1  1
 22 23  1  0
 24 22  2  0
M  END
$$$$
