TKT.pdb
     RDKit          3D

 24 23  0  0  1  0  0  0  0  0999 V2000
    8.7685  -20.9204   21.4591 C   0  0  0  0  0  0  0  0  0  0  0  0
    8.5541  -21.1014   19.9742 C   0  0  1  0  0  0  0  0  0  0  0  0
    7.8032  -22.2409   19.7530 O   0  0  0  0  0  0  0  0  0  0  0  0
    7.9057  -19.8626   19.3930 C   0  0  2  0  0  0  0  0  0  0  0  0
    7.6208  -20.1274   18.0116 N   0  0  0  0  0  0  0  0  0  0  0  0
    8.8091  -18.7208   19.5829 C   0  0  0  0  0  0  0  0  0  0  0  0
    9.9486  -18.7518   19.0635 O   0  0  0  0  0  0  0  0  0  0  0  0
    8.4363  -17.5790   20.3368 N   0  0  0  0  0  0  0  0  0  0  0  0
    9.3740  -16.4417   20.5343 C   0  0  1  0  0  0  0  0  0  0  0  0
    8.5451  -15.2104   20.3536 C   0  0  0  0  0  0  0  0  0  0  0  0
    8.3007  -14.8272   18.9275 C   0  0  0  0  0  0  0  0  0  0  0  0
    7.3500  -13.6269   18.8453 C   0  0  0  0  0  0  0  0  0  0  0  0
    7.0637  -13.3389   17.3855 C   0  0  0  0  0  0  0  0  0  0  0  0
    6.1504  -12.2004   17.2569 N   0  0  0  0  0  0  0  0  0  0  0  0
   10.0028  -16.5869   21.8528 C   0  0  0  0  0  0  0  0  0  0  0  0
    9.2775  -16.3951   22.8676 O   0  0  0  0  0  0  0  0  0  0  0  0
   10.6031  -18.9468   24.2937 C   0  0  0  0  0  0  0  0  0  0  0  0
   11.9760  -18.3662   24.0220 C   0  0  1  0  0  0  0  0  0  0  0  0
   12.7852  -19.2267   23.3241 O   0  0  0  0  0  0  0  0  0  0  0  0
   11.8591  -17.0068   23.4286 C   0  0  2  0  0  0  0  0  0  0  0  0
   11.3548  -16.9280   22.1050 N   0  0  0  0  0  0  0  0  0  0  0  0
   13.0987  -16.2052   23.6742 C   0  0  0  0  0  0  0  0  0  0  0  0
   13.5398  -15.9732   24.9629 O   0  0  0  0  0  0  0  0  0  0  0  0
   13.7539  -15.7337   22.7267 O   0  0  0  0  0  0  0  0  0  0  0  0
  2  1  1  1
  2  3  1  0
  4  2  1  0
  4  5  1  6
  6  4  1  0
  7  6  2  0
  8  6  1  0
  9  8  1  0
  9 10  1  1
 10 11  1  0
 11 12  1  0
 12 13  1  0
 13 14  1  0
 15 21  1  0
 15  9  1  0
 16 15  2  0
 18 20  1  0
 18 17  1  6
 19 18  1  0
 20 22  1  0
 20 21  1  6
 22 23  1  0
 24 22  2  0
M  END
$$$$
