TKT.pdb
     RDKit          3D

 24 23  0  0  1  0  0  0  0  0999 V2000
    8.7683  -12.9778   20.5418 C   0  0  0  0  0  0  0  0  0  0  0  0
    7.7481  -13.5806   19.6040 C   0  0  1  0  0  0  0  0  0  0  0  0
    8.0146  -13.1729   18.3102 O   0  0  0  0  0  0  0  0  0  0  0  0
    7.7479  -15.0884   19.7442 C   0  0  2  0  0  0  0  0  0  0  0  0
    6.8399  -15.6166   18.7663 N   0  0  0  0  0  0  0  0  0  0  0  0
    7.3736  -15.4368   21.1206 C   0  0  0  0  0  0  0  0  0  0  0  0
    6.2031  -15.2163   21.5087 O   0  0  0  0  0  0  0  0  0  0  0  0
    8.2938  -16.0165   22.0305 N   0  0  0  0  0  0  0  0  0  0  0  0
    7.8669  -16.4660   23.3824 C   0  0  1  0  0  0  0  0  0  0  0  0
    8.6062  -17.7427   23.6259 C   0  0  0  0  0  0  0  0  0  0  0  0
    7.9690  -18.9563   23.0248 C   0  0  0  0  0  0  0  0  0  0  0  0
    8.7662  -20.2174   23.3792 C   0  0  0  0  0  0  0  0  0  0  0  0
    8.0611  -21.4169   22.7791 C   0  0  0  0  0  0  0  0  0  0  0  0
    8.7953  -22.6480   23.0826 N   0  0  0  0  0  0  0  0  0  0  0  0
    8.1478  -15.3864   24.3367 C   0  0  0  0  0  0  0  0  0  0  0  0
    9.1746  -14.6819   24.1324 O   0  0  0  0  0  0  0  0  0  0  0  0
    7.1459  -11.7514   27.3040 C   0  0  0  0  0  0  0  0  0  0  0  0
    6.6249  -12.9190   26.4908 C   0  0  1  0  0  0  0  0  0  0  0  0
    5.9815  -12.5209   25.3463 O   0  0  0  0  0  0  0  0  0  0  0  0
    7.6985  -13.9273   26.2794 C   0  0  2  0  0  0  0  0  0  0  0  0
    7.3729  -15.0487   25.4739 N   0  0  0  0  0  0  0  0  0  0  0  0
    8.3835  -14.2605   27.5675 C   0  0  0  0  0  0  0  0  0  0  0  0
    8.5601  -15.5772   27.9476 O   0  0  0  0  0  0  0  0  0  0  0  0
    8.8059  -13.3623   28.3186 O   0  0  0  0  0  0  0  0  0  0  0  0
  2  1  1  1
  2  3  1  0
  4  2  1  0
  4  5  1  6
  6  4  1  0
  7  6  2  0
  8  6  1  0
  9  8  1  0
  9 10  1  1
 10 11  1  0
 11 12  1  0
 12 13  1  0
 13 14  1  0
 15 21  1  0
 15  9  1  0
 16 15  2  0
 18 20  1  0
 18 17  1  6
 19 18  1  0
 20 22  1  0
 20 21  1  1
 22 23  1  0
 24 22  2  0
M  END
$$$$
