TKT.pdb
     RDKit          3D

 24 23  0  0  1  0  0  0  0  0999 V2000
   10.7666  -14.5682   20.2710 C   0  0  0  0  0  0  0  0  0  0  0  0
    9.9756  -13.4569   19.6205 C   0  0  1  0  0  0  0  0  0  0  0  0
   10.6597  -12.9922   18.5127 O   0  0  0  0  0  0  0  0  0  0  0  0
    8.5858  -13.9488   19.2745 C   0  0  2  0  0  0  0  0  0  0  0  0
    7.8952  -12.8761   18.6171 N   0  0  0  0  0  0  0  0  0  0  0  0
    7.9187  -14.3902   20.5058 C   0  0  0  0  0  0  0  0  0  0  0  0
    7.4017  -13.5339   21.2600 O   0  0  0  0  0  0  0  0  0  0  0  0
    7.8382  -15.7574   20.8736 N   0  0  0  0  0  0  0  0  0  0  0  0
    7.0771  -16.1924   22.0749 C   0  0  1  0  0  0  0  0  0  0  0  0
    6.8330  -17.6546   21.8798 C   0  0  0  0  0  0  0  0  0  0  0  0
    6.1589  -18.3331   23.0310 C   0  0  0  0  0  0  0  0  0  0  0  0
    5.9312  -19.8185   22.7254 C   0  0  0  0  0  0  0  0  0  0  0  0
    5.1134  -20.4212   23.8497 C   0  0  0  0  0  0  0  0  0  0  0  0
    4.8167  -21.8286   23.5705 N   0  0  0  0  0  0  0  0  0  0  0  0
    7.8579  -15.8403   23.2672 C   0  0  0  0  0  0  0  0  0  0  0  0
    9.1143  -15.9240   23.1855 O   0  0  0  0  0  0  0  0  0  0  0  0
    6.4153  -13.4177   26.4494 C   0  0  0  0  0  0  0  0  0  0  0  0
    7.8574  -13.4896   25.9901 C   0  0  1  0  0  0  0  0  0  0  0  0
    8.7334  -12.9837   26.9169 O   0  0  0  0  0  0  0  0  0  0  0  0
    8.1844  -14.8600   25.5117 C   0  0  2  0  0  0  0  0  0  0  0  0
    7.3389  -15.4073   24.5126 N   0  0  0  0  0  0  0  0  0  0  0  0
    8.4693  -15.7761   26.6602 C   0  0  0  0  0  0  0  0  0  0  0  0
    9.4094  -15.4340   27.6134 O   0  0  0  0  0  0  0  0  0  0  0  0
    7.8679  -16.8593   26.7791 O   0  0  0  0  0  0  0  0  0  0  0  0
  2  1  1  6
  2  3  1  0
  4  2  1  0
  4  5  1  1
  6  4  1  0
  7  6  2  0
  8  6  1  0
  9  8  1  0
  9 10  1  6
 10 11  1  0
 11 12  1  0
 12 13  1  0
 13 14  1  0
 15 21  1  0
 15  9  1  0
 16 15  2  0
 18 20  1  0
 18 17  1  1
 19 18  1  0
 20 22  1  0
 20 21  1  1
 22 23  1  0
 24 22  2  0
M  END
$$$$
