TKT.pdb
     RDKit          3D

 24 23  0  0  1  0  0  0  0  0999 V2000
    9.7518  -13.5863   18.5755 C   0  0  0  0  0  0  0  0  0  0  0  0
    9.1496  -13.8377   19.9384 C   0  0  1  0  0  0  0  0  0  0  0  0
    9.0607  -12.6440   20.6299 O   0  0  0  0  0  0  0  0  0  0  0  0
    7.8051  -14.5183   19.7893 C   0  0  2  0  0  0  0  0  0  0  0  0
    6.9406  -13.6232   19.0744 N   0  0  0  0  0  0  0  0  0  0  0  0
    7.2969  -14.8620   21.1234 C   0  0  0  0  0  0  0  0  0  0  0  0
    6.3791  -14.1712   21.6230 O   0  0  0  0  0  0  0  0  0  0  0  0
    7.8102  -15.9530   21.8699 N   0  0  0  0  0  0  0  0  0  0  0  0
    7.2435  -16.3191   23.1952 C   0  0  1  0  0  0  0  0  0  0  0  0
    7.5679  -17.7673   23.3771 C   0  0  0  0  0  0  0  0  0  0  0  0
    7.1751  -18.3319   24.7065 C   0  0  0  0  0  0  0  0  0  0  0  0
    7.6046  -19.7996   24.8190 C   0  0  0  0  0  0  0  0  0  0  0  0
    7.0883  -20.3528   26.1318 C   0  0  0  0  0  0  0  0  0  0  0  0
    7.4726  -21.7586   26.2824 N   0  0  0  0  0  0  0  0  0  0  0  0
    7.8123  -15.4171   24.2043 C   0  0  0  0  0  0  0  0  0  0  0  0
    9.0338  -15.1194   24.0961 O   0  0  0  0  0  0  0  0  0  0  0  0
    6.8456  -11.7202   25.5312 C   0  0  0  0  0  0  0  0  0  0  0  0
    6.9555  -12.7577   26.6299 C   0  0  1  0  0  0  0  0  0  0  0  0
    5.7383  -13.0845   27.1722 O   0  0  0  0  0  0  0  0  0  0  0  0
    7.7614  -13.9208   26.1699 C   0  0  2  0  0  0  0  0  0  0  0  0
    7.1209  -14.8373   25.2968 N   0  0  0  0  0  0  0  0  0  0  0  0
    8.4932  -14.5526   27.3122 C   0  0  0  0  0  0  0  0  0  0  0  0
    9.2813  -13.7865   28.1496 O   0  0  0  0  0  0  0  0  0  0  0  0
    8.4068  -15.7751   27.5296 O   0  0  0  0  0  0  0  0  0  0  0  0
  2  1  1  6
  2  3  1  0
  4  2  1  0
  4  5  1  1
  6  4  1  0
  7  6  2  0
  8  6  1  0
  9  8  1  0
  9 10  1  1
 10 11  1  0
 11 12  1  0
 12 13  1  0
 13 14  1  0
 15 21  1  0
 15  9  1  0
 16 15  2  0
 18 20  1  0
 18 17  1  6
 19 18  1  0
 20 22  1  0
 20 21  1  1
 22 23  1  0
 24 22  2  0
M  END
$$$$
