TKT.pdb
     RDKit          3D

 24 23  0  0  1  0  0  0  0  0999 V2000
   10.6020  -13.6424   17.9524 C   0  0  0  0  0  0  0  0  0  0  0  0
    9.8496  -14.0715   19.1906 C   0  0  1  0  0  0  0  0  0  0  0  0
   10.1375  -13.2043   20.2280 O   0  0  0  0  0  0  0  0  0  0  0  0
    8.3664  -14.1414   18.8933 C   0  0  2  0  0  0  0  0  0  0  0  0
    7.9340  -12.8240   18.5225 N   0  0  0  0  0  0  0  0  0  0  0  0
    7.6694  -14.6612   20.0764 C   0  0  0  0  0  0  0  0  0  0  0  0
    6.9550  -13.8860   20.7531 O   0  0  0  0  0  0  0  0  0  0  0  0
    7.7764  -16.0157   20.4825 N   0  0  0  0  0  0  0  0  0  0  0  0
    7.0445  -16.5276   21.6716 C   0  0  1  0  0  0  0  0  0  0  0  0
    7.0435  -18.0156   21.5244 C   0  0  0  0  0  0  0  0  0  0  0  0
    6.3867  -18.7527   22.6493 C   0  0  0  0  0  0  0  0  0  0  0  0
    6.3883  -20.2625   22.3805 C   0  0  0  0  0  0  0  0  0  0  0  0
    5.6094  -20.9486   23.4844 C   0  0  0  0  0  0  0  0  0  0  0  0
    5.5285  -22.3902   23.2352 N   0  0  0  0  0  0  0  0  0  0  0  0
    7.7094  -16.0168   22.8767 C   0  0  0  0  0  0  0  0  0  0  0  0
    8.9713  -16.0149   22.8885 O   0  0  0  0  0  0  0  0  0  0  0  0
    7.0459  -12.6217   25.2114 C   0  0  0  0  0  0  0  0  0  0  0  0
    7.1372  -13.9423   25.9486 C   0  0  1  0  0  0  0  0  0  0  0  0
    5.9315  -14.3433   26.4661 O   0  0  0  0  0  0  0  0  0  0  0  0
    7.8210  -14.9622   25.1084 C   0  0  2  0  0  0  0  0  0  0  0  0
    7.0717  -15.5165   24.0389 N   0  0  0  0  0  0  0  0  0  0  0  0
    8.5354  -15.9663   25.9575 C   0  0  0  0  0  0  0  0  0  0  0  0
    8.2940  -17.3175   25.7985 O   0  0  0  0  0  0  0  0  0  0  0  0
    9.3575  -15.6058   26.8198 O   0  0  0  0  0  0  0  0  0  0  0  0
  2  1  1  6
  2  3  1  0
  4  2  1  0
  4  5  1  1
  6  4  1  0
  7  6  2  0
  8  6  1  0
  9  8  1  0
  9 10  1  1
 10 11  1  0
 11 12  1  0
 12 13  1  0
 13 14  1  0
 15 21  1  0
 15  9  1  0
 16 15  2  0
 18 20  1  0
 18 17  1  6
 19 18  1  0
 20 22  1  0
 20 21  1  1
 22 23  1  0
 24 22  2  0
M  END
$$$$
