STC.pdb
     RDKit          3D

 20 19  0  0  1  0  0  0  0  0999 V2000
    5.2360  -19.0272   20.5155 O   0  0  0  0  0  0  0  0  0  0  0  0
    6.4060  -18.9505   19.7918 C   0  0  0  0  0  0  0  0  0  0  0  0
    6.4968  -17.7050   18.9448 C   0  0  2  0  0  0  0  0  0  0  0  0
    6.5093  -18.0291   17.5535 N   0  0  0  0  0  0  0  0  0  0  0  0
    7.6118  -16.8266   19.3562 C   0  0  0  0  0  0  0  0  0  0  0  0
    8.7607  -17.0824   18.9305 O   0  0  0  0  0  0  0  0  0  0  0  0
    7.6046  -12.9189   19.2999 C   0  0  0  0  0  0  0  0  0  0  0  0
    8.1300  -13.3843   20.6272 C   0  0  1  0  0  0  0  0  0  0  0  0
    7.1444  -13.1366   21.5802 O   0  0  0  0  0  0  0  0  0  0  0  0
    8.5198  -14.8437   20.6178 C   0  0  2  0  0  0  0  0  0  0  0  0
    7.4454  -15.6971   20.2174 N   0  0  0  0  0  0  0  0  0  0  0  0
    9.0297  -15.3019   21.9275 C   0  0  0  0  0  0  0  0  0  0  0  0
    8.3003  -15.3793   22.9499 O   0  0  0  0  0  0  0  0  0  0  0  0
   10.3882  -15.6840   22.1019 N   0  0  0  0  0  0  0  0  0  0  0  0
   10.9026  -16.0502   23.3912 C   0  0  1  0  0  0  0  0  0  0  0  0
   10.3215  -17.3350   23.9168 C   0  0  0  0  0  0  0  0  0  0  0  0
   10.6203  -18.6320   22.6823 S   0  0  0  0  0  0  0  0  0  0  0  0
   12.4025  -16.1236   23.3826 C   0  0  0  0  0  0  0  0  0  0  0  0
   13.0662  -15.9755   22.3141 O   0  0  0  0  0  0  0  0  0  0  0  0
   13.1179  -16.3559   24.5420 O   0  0  0  0  0  0  0  0  0  0  0  0
  1  2  1  0
  3  5  1  0
  3  4  1  6
  3  2  1  0
  5  6  2  0
  8  7  1  6
  8 10  1  0
  9  8  1  0
 10 12  1  0
 10 11  1  1
 11  5  1  0
 12 13  2  0
 12 14  1  0
 14 15  1  0
 15 18  1  0
 15 16  1  6
 16 17  1  0
 18 19  2  0
 18 20  1  0
M  END
$$$$
