STC.pdb
     RDKit          3D

 20 19  0  0  1  0  0  0  0  0999 V2000
   -0.2530  -24.0200   26.0419 O   0  0  0  0  0  0  0  0  0  0  0  0
   -1.4938  -24.2980   26.5725 C   0  0  0  0  0  0  0  0  0  0  0  0
   -1.4354  -25.2357   27.7534 C   0  0  2  0  0  0  0  0  0  0  0  0
   -0.8472  -26.4856   27.3889 N   0  0  0  0  0  0  0  0  0  0  0  0
   -2.7440  -25.3732   28.4262 C   0  0  0  0  0  0  0  0  0  0  0  0
   -3.6304  -26.0609   27.8713 O   0  0  0  0  0  0  0  0  0  0  0  0
   -3.4035  -26.5773   32.0570 C   0  0  0  0  0  0  0  0  0  0  0  0
   -4.0940  -25.2625   31.8360 C   0  0  1  0  0  0  0  0  0  0  0  0
   -3.3337  -24.2774   32.4624 O   0  0  0  0  0  0  0  0  0  0  0  0
   -4.2878  -24.9477   30.3714 C   0  0  2  0  0  0  0  0  0  0  0  0
   -3.0504  -24.7596   29.6811 N   0  0  0  0  0  0  0  0  0  0  0  0
   -5.1393  -23.7587   30.1556 C   0  0  0  0  0  0  0  0  0  0  0  0
   -4.7326  -22.7343   29.5486 O   0  0  0  0  0  0  0  0  0  0  0  0
   -6.4793  -23.7104   30.6290 N   0  0  0  0  0  0  0  0  0  0  0  0
   -7.3438  -22.6078   30.3163 C   0  0  1  0  0  0  0  0  0  0  0  0
   -7.5709  -22.4347   28.8388 C   0  0  0  0  0  0  0  0  0  0  0  0
   -8.7708  -21.0920   28.6094 S   0  0  0  0  0  0  0  0  0  0  0  0
   -8.6579  -22.7205   31.0343 C   0  0  0  0  0  0  0  0  0  0  0  0
   -9.4110  -21.7155   31.1979 O   0  0  0  0  0  0  0  0  0  0  0  0
   -9.0971  -23.9272   31.5452 O   0  0  0  0  0  0  0  0  0  0  0  0
  1  2  1  0
  3  5  1  0
  3  4  1  6
  3  2  1  0
  5  6  2  0
  8  7  1  6
  8 10  1  0
  9  8  1  0
 10 12  1  0
 10 11  1  1
 11  5  1  0
 12 13  2  0
 12 14  1  0
 14 15  1  0
 15 18  1  0
 15 16  1  6
 16 17  1  0
 18 19  2  0
 18 20  1  0
M  END
$$$$
