STC.pdb
     RDKit          3D

 20 19  0  0  1  0  0  0  0  0999 V2000
   12.5156  -15.0168   21.0257 O   0  0  0  0  0  0  0  0  0  0  0  0
   11.6903  -15.4909   20.0294 C   0  0  0  0  0  0  0  0  0  0  0  0
   10.9382  -16.7370   20.4278 C   0  0  2  0  0  0  0  0  0  0  0  0
   10.2176  -17.2791   19.3198 N   0  0  0  0  0  0  0  0  0  0  0  0
   10.1037  -16.5288   21.6296 C   0  0  0  0  0  0  0  0  0  0  0  0
    8.9533  -16.0581   21.4825 O   0  0  0  0  0  0  0  0  0  0  0  0
    8.4413  -18.8368   23.5353 C   0  0  0  0  0  0  0  0  0  0  0  0
    9.2247  -18.1004   24.5832 C   0  0  1  0  0  0  0  0  0  0  0  0
   10.2977  -18.9089   24.9520 O   0  0  0  0  0  0  0  0  0  0  0  0
    9.7033  -16.7490   24.1074 C   0  0  2  0  0  0  0  0  0  0  0  0
   10.5437  -16.8379   22.9547 N   0  0  0  0  0  0  0  0  0  0  0  0
   10.4177  -15.9981   25.1613 C   0  0  0  0  0  0  0  0  0  0  0  0
   11.6734  -15.9521   25.2286 O   0  0  0  0  0  0  0  0  0  0  0  0
    9.7140  -15.2795   26.1666 N   0  0  0  0  0  0  0  0  0  0  0  0
   10.4085  -14.5625   27.1983 C   0  0  1  0  0  0  0  0  0  0  0  0
    9.7514  -13.2569   27.5563 C   0  0  0  0  0  0  0  0  0  0  0  0
    7.9634  -13.4407   27.3021 S   0  0  0  0  0  0  0  0  0  0  0  0
   10.5893  -15.4072   28.4267 C   0  0  0  0  0  0  0  0  0  0  0  0
   10.0350  -16.5406   28.5381 O   0  0  0  0  0  0  0  0  0  0  0  0
   11.3687  -14.9800   29.4850 O   0  0  0  0  0  0  0  0  0  0  0  0
  1  2  1  0
  3  5  1  0
  3  4  1  6
  3  2  1  0
  5  6  2  0
  8  7  1  6
  8 10  1  0
  9  8  1  0
 10 12  1  0
 10 11  1  6
 11  5  1  0
 12 13  2  0
 12 14  1  0
 14 15  1  0
 15 18  1  0
 15 16  1  1
 16 17  1  0
 18 19  2  0
 18 20  1  0
M  END
$$$$
