STC.pdb
     RDKit          3D

 20 19  0  0  1  0  0  0  0  0999 V2000
    4.6065  -19.7842   21.7925 O   0  0  0  0  0  0  0  0  0  0  0  0
    4.3040  -18.5020   21.3890 C   0  0  0  0  0  0  0  0  0  0  0  0
    5.4249  -17.8432   20.6230 C   0  0  2  0  0  0  0  0  0  0  0  0
    5.8446  -18.6555   19.5254 N   0  0  0  0  0  0  0  0  0  0  0  0
    6.5344  -17.4218   21.5036 C   0  0  0  0  0  0  0  0  0  0  0  0
    7.5774  -18.1136   21.5212 O   0  0  0  0  0  0  0  0  0  0  0  0
    7.8229  -13.7529   21.7626 C   0  0  0  0  0  0  0  0  0  0  0  0
    7.7237  -14.3190   23.1496 C   0  0  1  0  0  0  0  0  0  0  0  0
    6.6452  -13.7018   23.7798 O   0  0  0  0  0  0  0  0  0  0  0  0
    7.5659  -15.8213   23.1536 C   0  0  2  0  0  0  0  0  0  0  0  0
    6.4778  -16.2620   22.3383 N   0  0  0  0  0  0  0  0  0  0  0  0
    7.3932  -16.3689   24.5157 C   0  0  0  0  0  0  0  0  0  0  0  0
    6.2619  -16.5404   25.0393 O   0  0  0  0  0  0  0  0  0  0  0  0
    8.5107  -16.7349   25.3152 N   0  0  0  0  0  0  0  0  0  0  0  0
    8.3432  -17.2413   26.6480 C   0  0  1  0  0  0  0  0  0  0  0  0
    7.5420  -18.5140   26.7008 C   0  0  0  0  0  0  0  0  0  0  0  0
    8.5414  -19.8370   25.9619 S   0  0  0  0  0  0  0  0  0  0  0  0
    9.6661  -17.4313   27.3327 C   0  0  0  0  0  0  0  0  0  0  0  0
   10.7583  -17.1729   26.7458 O   0  0  0  0  0  0  0  0  0  0  0  0
    9.7433  -17.8963   28.6319 O   0  0  0  0  0  0  0  0  0  0  0  0
  1  2  1  0
  3  5  1  0
  3  4  1  6
  3  2  1  0
  5  6  2  0
  8  7  1  6
  8 10  1  0
  9  8  1  0
 10 12  1  0
 10 11  1  6
 11  5  1  0
 12 13  2  0
 12 14  1  0
 14 15  1  0
 15 18  1  0
 15 16  1  6
 16 17  1  0
 18 19  2  0
 18 20  1  0
M  END
$$$$
