STC.pdb
     RDKit          3D

 20 19  0  0  1  0  0  0  0  0999 V2000
   14.4103  -15.7857   20.9407 O   0  0  0  0  0  0  0  0  0  0  0  0
   13.1678  -16.3564   20.7704 C   0  0  0  0  0  0  0  0  0  0  0  0
   12.2714  -15.5591   19.8550 C   0  0  2  0  0  0  0  0  0  0  0  0
   13.0359  -14.8324   18.8916 N   0  0  0  0  0  0  0  0  0  0  0  0
   11.3111  -14.7196   20.6014 C   0  0  0  0  0  0  0  0  0  0  0  0
   11.7120  -13.6325   21.0751 O   0  0  0  0  0  0  0  0  0  0  0  0
    7.6586  -13.5396   19.5775 C   0  0  0  0  0  0  0  0  0  0  0  0
    7.6499  -14.2427   20.9040 C   0  0  1  0  0  0  0  0  0  0  0  0
    7.1546  -15.5281   20.6957 O   0  0  0  0  0  0  0  0  0  0  0  0
    9.0162  -14.2864   21.5468 C   0  0  2  0  0  0  0  0  0  0  0  0
    9.9447  -15.0859   20.8109 N   0  0  0  0  0  0  0  0  0  0  0  0
    8.9702  -14.7721   22.9421 C   0  0  0  0  0  0  0  0  0  0  0  0
    9.5638  -15.8166   23.3166 O   0  0  0  0  0  0  0  0  0  0  0  0
    8.2436  -14.0754   23.9464 N   0  0  0  0  0  0  0  0  0  0  0  0
    8.1963  -14.5499   25.3005 C   0  0  1  0  0  0  0  0  0  0  0  0
    7.5495  -13.5747   26.2467 C   0  0  0  0  0  0  0  0  0  0  0  0
    5.8442  -13.2989   25.6887 S   0  0  0  0  0  0  0  0  0  0  0  0
    7.5192  -15.8873   25.3897 C   0  0  0  0  0  0  0  0  0  0  0  0
    6.8323  -16.3467   24.4299 O   0  0  0  0  0  0  0  0  0  0  0  0
    7.6196  -16.6700   26.5243 O   0  0  0  0  0  0  0  0  0  0  0  0
  1  2  1  0
  3  5  1  0
  3  4  1  1
  3  2  1  0
  5  6  2  0
  8  7  1  6
  8 10  1  0
  9  8  1  0
 10 12  1  0
 10 11  1  6
 11  5  1  0
 12 13  2  0
 12 14  1  0
 14 15  1  0
 15 18  1  0
 15 16  1  1
 16 17  1  0
 18 19  2  0
 18 20  1  0
M  END
$$$$
