STC.pdb
     RDKit          3D

 20 19  0  0  1  0  0  0  0  0999 V2000
   17.9223  -16.2722   16.7693 O   0  0  0  0  0  0  0  0  0  0  0  0
   16.8450  -16.2915   17.6281 C   0  0  0  0  0  0  0  0  0  0  0  0
   15.5377  -15.9749   16.9441 C   0  0  2  0  0  0  0  0  0  0  0  0
   15.6885  -14.8947   16.0214 N   0  0  0  0  0  0  0  0  0  0  0  0
   14.4336  -15.7790   17.9067 C   0  0  0  0  0  0  0  0  0  0  0  0
   14.3662  -14.6921   18.5237 O   0  0  0  0  0  0  0  0  0  0  0  0
   10.7411  -16.6793   17.1747 C   0  0  0  0  0  0  0  0  0  0  0  0
   11.0507  -17.1355   18.5712 C   0  0  1  0  0  0  0  0  0  0  0  0
   11.0690  -18.5286   18.5645 O   0  0  0  0  0  0  0  0  0  0  0  0
   12.3567  -16.5792   19.0875 C   0  0  2  0  0  0  0  0  0  0  0  0
   13.4362  -16.7694   18.1702 N   0  0  0  0  0  0  0  0  0  0  0  0
   12.7374  -17.1506   20.3966 C   0  0  0  0  0  0  0  0  0  0  0  0
   13.7034  -17.9450   20.5348 O   0  0  0  0  0  0  0  0  0  0  0  0
   12.0227  -16.8279   21.5828 N   0  0  0  0  0  0  0  0  0  0  0  0
   12.6850  -16.7336   22.8530 C   0  0  1  0  0  0  0  0  0  0  0  0
   13.7970  -15.7199   22.8665 C   0  0  0  0  0  0  0  0  0  0  0  0
   14.6184  -15.8099   24.4828 S   0  0  0  0  0  0  0  0  0  0  0  0
   11.7105  -16.4506   23.9599 C   0  0  0  0  0  0  0  0  0  0  0  0
   10.6757  -15.7463   23.7668 O   0  0  0  0  0  0  0  0  0  0  0  0
   11.9052  -16.9486   25.2343 O   0  0  0  0  0  0  0  0  0  0  0  0
  1  2  1  0
  3  5  1  0
  3  4  1  1
  3  2  1  0
  5  6  2  0
  8  7  1  6
  8 10  1  0
  9  8  1  0
 10 12  1  0
 10 11  1  6
 11  5  1  0
 12 13  2  0
 12 14  1  0
 14 15  1  0
 15 18  1  0
 15 16  1  6
 16 17  1  0
 18 19  2  0
 18 20  1  0
M  END
$$$$
