STC.pdb
     RDKit          3D

 20 19  0  0  1  0  0  0  0  0999 V2000
    3.8289  -18.6699   23.5611 O   0  0  0  0  0  0  0  0  0  0  0  0
    3.6297  -17.9921   22.3781 C   0  0  0  0  0  0  0  0  0  0  0  0
    4.6887  -18.2844   21.3436 C   0  0  2  0  0  0  0  0  0  0  0  0
    4.6775  -19.6637   20.9717 N   0  0  0  0  0  0  0  0  0  0  0  0
    6.0219  -17.7938   21.7511 C   0  0  0  0  0  0  0  0  0  0  0  0
    6.8058  -18.5929   22.3111 O   0  0  0  0  0  0  0  0  0  0  0  0
    8.5889  -16.0869   19.5182 C   0  0  0  0  0  0  0  0  0  0  0  0
    8.4405  -15.2431   20.7511 C   0  0  1  0  0  0  0  0  0  0  0  0
    7.7158  -14.1066   20.3985 O   0  0  0  0  0  0  0  0  0  0  0  0
    7.7693  -15.9836   21.8838 C   0  0  2  0  0  0  0  0  0  0  0  0
    6.4634  -16.4503   21.5381 N   0  0  0  0  0  0  0  0  0  0  0  0
    7.6744  -15.1701   23.1144 C   0  0  0  0  0  0  0  0  0  0  0  0
    6.7008  -14.4086   23.3507 O   0  0  0  0  0  0  0  0  0  0  0  0
    8.6913  -15.2062   24.1077 N   0  0  0  0  0  0  0  0  0  0  0  0
    8.6347  -14.3618   25.2673 C   0  0  1  0  0  0  0  0  0  0  0  0
    7.4084  -14.5932   26.1083 C   0  0  0  0  0  0  0  0  0  0  0  0
    7.5048  -13.4990   27.5535 S   0  0  0  0  0  0  0  0  0  0  0  0
    9.8730  -14.4980   26.1058 C   0  0  0  0  0  0  0  0  0  0  0  0
   10.0067  -13.8675   27.1961 O   0  0  0  0  0  0  0  0  0  0  0  0
   10.9165  -15.3178   25.7197 O   0  0  0  0  0  0  0  0  0  0  0  0
  1  2  1  0
  3  5  1  0
  3  4  1  1
  3  2  1  0
  5  6  2  0
  8  7  1  6
  8 10  1  0
  9  8  1  0
 10 12  1  0
 10 11  1  6
 11  5  1  0
 12 13  2  0
 12 14  1  0
 14 15  1  0
 15 18  1  0
 15 16  1  1
 16 17  1  0
 18 19  2  0
 18 20  1  0
M  END
$$$$
