STC.pdb
     RDKit          3D

 20 19  0  0  1  0  0  0  0  0999 V2000
    9.6543  -12.8993   18.7334 O   0  0  0  0  0  0  0  0  0  0  0  0
    8.5624  -13.2028   19.5172 C   0  0  0  0  0  0  0  0  0  0  0  0
    8.4024  -14.6835   19.7604 C   0  0  2  0  0  0  0  0  0  0  0  0
    7.8775  -15.3405   18.6056 N   0  0  0  0  0  0  0  0  0  0  0  0
    7.6466  -14.9706   20.9975 C   0  0  0  0  0  0  0  0  0  0  0  0
    6.4024  -14.8347   20.9811 O   0  0  0  0  0  0  0  0  0  0  0  0
    6.5942  -17.8078   22.7143 C   0  0  0  0  0  0  0  0  0  0  0  0
    7.3753  -17.0694   23.7626 C   0  0  1  0  0  0  0  0  0  0  0  0
    8.6100  -17.7018   23.8907 O   0  0  0  0  0  0  0  0  0  0  0  0
    7.5482  -15.6052   23.4338 C   0  0  2  0  0  0  0  0  0  0  0  0
    8.2646  -15.3964   22.2147 N   0  0  0  0  0  0  0  0  0  0  0  0
    8.2217  -14.8574   24.5165 C   0  0  0  0  0  0  0  0  0  0  0  0
    9.4643  -14.6597   24.5329 O   0  0  0  0  0  0  0  0  0  0  0  0
    7.4910  -14.3158   25.6096 N   0  0  0  0  0  0  0  0  0  0  0  0
    8.1570  -13.7080   26.7267 C   0  0  1  0  0  0  0  0  0  0  0  0
    7.3005  -12.7054   27.4519 C   0  0  0  0  0  0  0  0  0  0  0  0
    6.5612  -11.6009   26.2154 S   0  0  0  0  0  0  0  0  0  0  0  0
    8.6727  -14.7415   27.6864 C   0  0  0  0  0  0  0  0  0  0  0  0
    8.4260  -15.9736   27.5277 O   0  0  0  0  0  0  0  0  0  0  0  0
    9.4376  -14.3878   28.7817 O   0  0  0  0  0  0  0  0  0  0  0  0
  1  2  1  0
  3  5  1  0
  3  4  1  6
  3  2  1  0
  5  6  2  0
  8  7  1  6
  8 10  1  0
  9  8  1  0
 10 12  1  0
 10 11  1  6
 11  5  1  0
 12 13  2  0
 12 14  1  0
 14 15  1  0
 15 18  1  0
 15 16  1  1
 16 17  1  0
 18 19  2  0
 18 20  1  0
M  END
$$$$
