STC.pdb
     RDKit          3D

 20 19  0  0  1  0  0  0  0  0999 V2000
   14.2129  -18.4864   21.1008 O   0  0  0  0  0  0  0  0  0  0  0  0
   13.1117  -18.1351   21.8509 C   0  0  0  0  0  0  0  0  0  0  0  0
   12.1869  -17.1827   21.1333 C   0  0  2  0  0  0  0  0  0  0  0  0
   12.8864  -16.4447   20.1299 N   0  0  0  0  0  0  0  0  0  0  0  0
   11.4236  -16.3302   22.0685 C   0  0  0  0  0  0  0  0  0  0  0  0
   11.8684  -15.1911   22.3354 O   0  0  0  0  0  0  0  0  0  0  0  0
    7.1182  -15.3015   24.3295 C   0  0  0  0  0  0  0  0  0  0  0  0
    7.9436  -16.2162   23.4715 C   0  0  1  0  0  0  0  0  0  0  0  0
    7.4618  -16.1189   22.1679 O   0  0  0  0  0  0  0  0  0  0  0  0
    9.4180  -15.8927   23.5294 C   0  0  2  0  0  0  0  0  0  0  0  0
   10.2004  -16.7403   22.6855 N   0  0  0  0  0  0  0  0  0  0  0  0
    9.9585  -15.9585   24.9037 C   0  0  0  0  0  0  0  0  0  0  0  0
   10.5162  -16.9881   25.3647 O   0  0  0  0  0  0  0  0  0  0  0  0
    9.8753  -14.8476   25.7874 N   0  0  0  0  0  0  0  0  0  0  0  0
   10.3463  -14.9314   27.1409 C   0  0  1  0  0  0  0  0  0  0  0  0
   10.0065  -13.7168   27.9618 C   0  0  0  0  0  0  0  0  0  0  0  0
   10.7164  -13.9421   29.6172 S   0  0  0  0  0  0  0  0  0  0  0  0
    9.8458  -16.1739   27.8197 C   0  0  0  0  0  0  0  0  0  0  0  0
    8.6358  -16.5367   27.7278 O   0  0  0  0  0  0  0  0  0  0  0  0
   10.6875  -16.9711   28.5722 O   0  0  0  0  0  0  0  0  0  0  0  0
  1  2  1  0
  3  5  1  0
  3  4  1  6
  3  2  1  0
  5  6  2  0
  8  7  1  1
  8 10  1  0
  9  8  1  0
 10 12  1  0
 10 11  1  6
 11  5  1  0
 12 13  2  0
 12 14  1  0
 14 15  1  0
 15 18  1  0
 15 16  1  1
 16 17  1  0
 18 19  2  0
 18 20  1  0
M  END
$$$$
