STC.pdb
     RDKit          3D

 20 19  0  0  1  0  0  0  0  0999 V2000
    9.4411  -18.8552   17.2971 O   0  0  0  0  0  0  0  0  0  0  0  0
    8.5547  -17.9484   16.7581 C   0  0  0  0  0  0  0  0  0  0  0  0
    9.1608  -16.5826   16.5476 C   0  0  2  0  0  0  0  0  0  0  0  0
   10.2493  -16.6398   15.6241 N   0  0  0  0  0  0  0  0  0  0  0  0
    9.5028  -15.9179   17.8225 C   0  0  0  0  0  0  0  0  0  0  0  0
   10.7059  -15.6677   18.0605 O   0  0  0  0  0  0  0  0  0  0  0  0
    7.2789  -12.9250   19.4858 C   0  0  0  0  0  0  0  0  0  0  0  0
    7.6851  -13.9763   20.4778 C   0  0  1  0  0  0  0  0  0  0  0  0
    6.5664  -14.7653   20.7366 O   0  0  0  0  0  0  0  0  0  0  0  0
    8.8407  -14.8183   19.9906 C   0  0  2  0  0  0  0  0  0  0  0  0
    8.5280  -15.5450   18.8002 N   0  0  0  0  0  0  0  0  0  0  0  0
    9.3211  -15.7682   21.0163 C   0  0  0  0  0  0  0  0  0  0  0  0
    9.0657  -16.9995   20.9732 O   0  0  0  0  0  0  0  0  0  0  0  0
   10.1069  -15.3340   22.1191 N   0  0  0  0  0  0  0  0  0  0  0  0
   10.5578  -16.2541   23.1246 C   0  0  1  0  0  0  0  0  0  0  0  0
   11.9922  -16.0370   23.5246 C   0  0  0  0  0  0  0  0  0  0  0  0
   13.0126  -16.1314   22.0262 S   0  0  0  0  0  0  0  0  0  0  0  0
    9.6701  -16.2214   24.3354 C   0  0  0  0  0  0  0  0  0  0  0  0
    8.7533  -15.3567   24.4608 O   0  0  0  0  0  0  0  0  0  0  0  0
    9.8194  -17.1351   25.3615 O   0  0  0  0  0  0  0  0  0  0  0  0
  1  2  1  0
  3  5  1  0
  3  4  1  6
  3  2  1  0
  5  6  2  0
  8  7  1  6
  8 10  1  0
  9  8  1  0
 10 12  1  0
 10 11  1  6
 11  5  1  0
 12 13  2  0
 12 14  1  0
 14 15  1  0
 15 18  1  0
 15 16  1  1
 16 17  1  0
 18 19  2  0
 18 20  1  0
M  END
$$$$
