STC.pdb
     RDKit          3D

 20 19  0  0  1  0  0  0  0  0999 V2000
    9.8964  -14.5670   20.1855 O   0  0  0  0  0  0  0  0  0  0  0  0
    9.5883  -15.6935   19.4542 C   0  0  0  0  0  0  0  0  0  0  0  0
    9.7937  -16.9739   20.2258 C   0  0  2  0  0  0  0  0  0  0  0  0
    9.4357  -18.1114   19.4392 N   0  0  0  0  0  0  0  0  0  0  0  0
    9.1385  -16.9422   21.5502 C   0  0  0  0  0  0  0  0  0  0  0  0
    7.9250  -17.2401   21.6223 O   0  0  0  0  0  0  0  0  0  0  0  0
   10.8601  -18.5052   24.7482 C   0  0  0  0  0  0  0  0  0  0  0  0
    9.4179  -18.1041   24.6334 C   0  0  1  0  0  0  0  0  0  0  0  0
    8.8545  -18.1907   25.9047 O   0  0  0  0  0  0  0  0  0  0  0  0
    9.2449  -16.7184   24.0575 C   0  0  2  0  0  0  0  0  0  0  0  0
    9.8210  -16.5880   22.7560 N   0  0  0  0  0  0  0  0  0  0  0  0
    9.8040  -15.6673   24.9336 C   0  0  0  0  0  0  0  0  0  0  0  0
   10.9933  -15.2673   24.8390 O   0  0  0  0  0  0  0  0  0  0  0  0
    9.0169  -15.0457   25.9416 N   0  0  0  0  0  0  0  0  0  0  0  0
    9.5790  -14.0745   26.8370 C   0  0  1  0  0  0  0  0  0  0  0  0
    8.7412  -12.8308   26.9625 C   0  0  0  0  0  0  0  0  0  0  0  0
    7.0514  -13.3342   27.3942 S   0  0  0  0  0  0  0  0  0  0  0  0
    9.8392  -14.6648   28.1931 C   0  0  0  0  0  0  0  0  0  0  0  0
    9.4620  -15.8373   28.4881 O   0  0  0  0  0  0  0  0  0  0  0  0
   10.5014  -13.9503   29.1735 O   0  0  0  0  0  0  0  0  0  0  0  0
  1  2  1  0
  3  5  1  0
  3  4  1  6
  3  2  1  0
  5  6  2  0
  8  7  1  1
  8 10  1  0
  9  8  1  0
 10 12  1  0
 10 11  1  6
 11  5  1  0
 12 13  2  0
 12 14  1  0
 14 15  1  0
 15 18  1  0
 15 16  1  1
 16 17  1  0
 18 19  2  0
 18 20  1  0
M  END
$$$$
