STC.pdb
     RDKit          3D

 20 19  0  0  1  0  0  0  0  0999 V2000
   10.3222  -17.7153   15.6659 O   0  0  0  0  0  0  0  0  0  0  0  0
    9.0249  -17.5290   16.0912 C   0  0  0  0  0  0  0  0  0  0  0  0
    8.6313  -16.0743   16.1689 C   0  0  2  0  0  0  0  0  0  0  0  0
    8.9225  -15.3967   14.9455 N   0  0  0  0  0  0  0  0  0  0  0  0
    9.1901  -15.4047   17.3620 C   0  0  0  0  0  0  0  0  0  0  0  0
   10.3309  -14.8960   17.2808 O   0  0  0  0  0  0  0  0  0  0  0  0
    7.0415  -13.1332   20.0205 C   0  0  0  0  0  0  0  0  0  0  0  0
    7.9408  -14.1365   20.6829 C   0  0  1  0  0  0  0  0  0  0  0  0
    7.1408  -15.1814   21.1403 O   0  0  0  0  0  0  0  0  0  0  0  0
    9.0215  -14.6464   19.7588 C   0  0  2  0  0  0  0  0  0  0  0  0
    8.4932  -15.3076   18.6070 N   0  0  0  0  0  0  0  0  0  0  0  0
    9.9657  -15.5573   20.4400 C   0  0  0  0  0  0  0  0  0  0  0  0
   10.0191  -16.7894   20.1903 O   0  0  0  0  0  0  0  0  0  0  0  0
   10.8741  -15.0823   21.4255 N   0  0  0  0  0  0  0  0  0  0  0  0
   11.7029  -15.9833   22.1752 C   0  0  1  0  0  0  0  0  0  0  0  0
   13.0945  -15.4572   22.4018 C   0  0  0  0  0  0  0  0  0  0  0  0
   14.0317  -16.7217   23.3063 S   0  0  0  0  0  0  0  0  0  0  0  0
   11.0672  -16.3523   23.4847 C   0  0  0  0  0  0  0  0  0  0  0  0
   11.5071  -17.3097   24.1875 O   0  0  0  0  0  0  0  0  0  0  0  0
    9.9758  -15.6603   23.9746 O   0  0  0  0  0  0  0  0  0  0  0  0
  1  2  1  0
  3  5  1  0
  3  4  1  6
  3  2  1  0
  5  6  2  0
  8  7  1  6
  8 10  1  0
  9  8  1  0
 10 12  1  0
 10 11  1  6
 11  5  1  0
 12 13  2  0
 12 14  1  0
 14 15  1  0
 15 18  1  0
 15 16  1  1
 16 17  1  0
 18 19  2  0
 18 20  1  0
M  END
$$$$
