KEA.pdb
     RDKit          3D

 24 23  0  0  1  0  0  0  0  0999 V2000
   15.0555  -20.9278    0.7949 N   0  0  0  0  0  0  0  0  0  0  0  0
   14.5085  -21.4198    2.0079 C   0  0  1  0  0  0  0  0  0  0  0  0
   14.0296  -22.8221    2.0282 C   0  0  0  0  0  0  0  0  0  0  0  0
   13.1009  -23.1973    0.9368 C   0  0  0  0  0  0  0  0  0  0  0  0
   12.7214  -24.6410    0.9324 C   0  0  0  0  0  0  0  0  0  0  0  0
   11.8302  -24.9082   -0.2862 C   0  0  0  0  0  0  0  0  0  0  0  0
   11.4902  -26.3075   -0.2966 N   0  0  0  0  0  0  0  0  0  0  0  0
   15.3973  -21.1215    3.1909 C   0  0  0  0  0  0  0  0  0  0  0  0
   16.6136  -21.2632    3.0074 O   0  0  0  0  0  0  0  0  0  0  0  0
   14.9274  -20.7047    4.4486 N   0  0  0  0  0  0  0  0  0  0  0  0
   15.8600  -20.3714    5.4661 C   0  0  1  0  0  0  0  0  0  0  0  0
   15.3951  -19.1979    6.3350 C   0  0  0  0  0  0  0  0  0  0  0  0
   16.5098  -18.8001    7.3012 C   0  0  0  0  0  0  0  0  0  0  0  0
   16.1758  -17.5955    8.0627 C   0  0  0  0  0  0  0  0  0  0  0  0
   15.9736  -16.4862    7.5060 O   0  0  0  0  0  0  0  0  0  0  0  0
   16.2287  -21.4508    6.3867 C   0  0  0  0  0  0  0  0  0  0  0  0
   15.3999  -22.4259    6.4339 O   0  0  0  0  0  0  0  0  0  0  0  0
   16.0758  -17.6606    9.4398 O   0  0  0  0  0  0  0  0  0  0  0  0
   17.8575  -23.8525    7.0583 C   0  0  0  0  0  0  0  0  0  0  0  0
   17.6423  -22.6665    7.9873 C   0  0  2  0  0  0  0  0  0  0  0  0
   17.3804  -21.4876    7.1861 N   0  0  0  0  0  0  0  0  0  0  0  0
   18.8944  -22.4570    8.7634 C   0  0  0  0  0  0  0  0  0  0  0  0
   19.6088  -21.4547    8.5464 O   0  0  0  0  0  0  0  0  0  0  0  0
   19.3122  -23.3482    9.7414 O   0  0  0  0  0  0  0  0  0  0  0  0
  2  1  1  6
  3  2  1  0
  4  3  1  0
  5  4  1  0
  6  5  1  0
  7  6  1  0
  8  2  1  0
  8  9  2  0
 10  8  1  0
 11 10  1  0
 11 12  1  1
 12 13  1  0
 14 13  1  0
 15 14  2  0
 16 11  1  0
 17 16  2  0
 18 14  1  0
 20 19  1  6
 20 21  1  0
 21 16  1  0
 22 24  1  0
 22 20  1  0
 23 22  2  0
M  END
$$$$
