KEA.pdb
     RDKit          3D

 24 23  0  0  1  0  0  0  0  0999 V2000
   17.0856  -11.1628  -14.9748 N   0  0  0  0  0  0  0  0  0  0  0  0
   17.7977  -10.3040  -15.8512 C   0  0  1  0  0  0  0  0  0  0  0  0
   17.3024  -10.1757  -17.2419 C   0  0  0  0  0  0  0  0  0  0  0  0
   16.7136  -11.4023  -17.8277 C   0  0  0  0  0  0  0  0  0  0  0  0
   16.1147  -11.2019  -19.1802 C   0  0  0  0  0  0  0  0  0  0  0  0
   15.6192  -12.5563  -19.7007 C   0  0  0  0  0  0  0  0  0  0  0  0
   16.7654  -13.3320  -20.0982 N   0  0  0  0  0  0  0  0  0  0  0  0
   18.0595   -8.9533  -15.2302 C   0  0  0  0  0  0  0  0  0  0  0  0
   17.2283   -8.5663  -14.3981 O   0  0  0  0  0  0  0  0  0  0  0  0
   19.1639   -8.1405  -15.5401 N   0  0  0  0  0  0  0  0  0  0  0  0
   19.2636   -6.8484  -14.9600 C   0  0  1  0  0  0  0  0  0  0  0  0
   20.7021   -6.4760  -14.5857 C   0  0  0  0  0  0  0  0  0  0  0  0
   20.7037   -5.1812  -13.7746 C   0  0  0  0  0  0  0  0  0  0  0  0
   22.0529   -4.7888  -13.3648 C   0  0  0  0  0  0  0  0  0  0  0  0
   22.8794   -5.6162  -12.9026 O   0  0  0  0  0  0  0  0  0  0  0  0
   18.7399   -5.7367  -15.7590 C   0  0  0  0  0  0  0  0  0  0  0  0
   18.9961   -5.8056  -17.0118 O   0  0  0  0  0  0  0  0  0  0  0  0
   22.4488   -3.4695  -13.4820 O   0  0  0  0  0  0  0  0  0  0  0  0
   16.3306   -4.4502  -16.9940 C   0  0  0  0  0  0  0  0  0  0  0  0
   17.4078   -3.7205  -16.2046 C   0  0  2  0  0  0  0  0  0  0  0  0
   18.0070   -4.6476  -15.2656 N   0  0  0  0  0  0  0  0  0  0  0  0
   16.7561   -2.6174  -15.4481 C   0  0  0  0  0  0  0  0  0  0  0  0
   16.4280   -1.5622  -16.0320 O   0  0  0  0  0  0  0  0  0  0  0  0
   16.4904   -2.7130  -14.0896 O   0  0  0  0  0  0  0  0  0  0  0  0
  2  1  1  1
  3  2  1  0
  4  3  1  0
  5  4  1  0
  6  5  1  0
  7  6  1  0
  8  2  1  0
  8  9  2  0
 10  8  1  0
 11 10  1  0
 11 12  1  6
 12 13  1  0
 14 13  1  0
 15 14  2  0
 16 11  1  0
 17 16  2  0
 18 14  1  0
 20 19  1  1
 20 21  1  0
 21 16  1  0
 22 24  1  0
 22 20  1  0
 23 22  2  0
M  END
$$$$
