KEA.pdb
     RDKit          3D

 24 23  0  0  1  0  0  0  0  0999 V2000
   30.1917  -31.3661  -16.8863 N   0  0  0  0  0  0  0  0  0  0  0  0
   28.8663  -30.9342  -16.6231 C   0  0  1  0  0  0  0  0  0  0  0  0
   28.1848  -30.1301  -17.6648 C   0  0  0  0  0  0  0  0  0  0  0  0
   28.7262  -28.7678  -17.8783 C   0  0  0  0  0  0  0  0  0  0  0  0
   28.2335  -27.7581  -16.8954 C   0  0  0  0  0  0  0  0  0  0  0  0
   28.8610  -26.4006  -17.2333 C   0  0  0  0  0  0  0  0  0  0  0  0
   28.4003  -25.4388  -16.2657 N   0  0  0  0  0  0  0  0  0  0  0  0
   27.9906  -32.0622  -16.1340 C   0  0  0  0  0  0  0  0  0  0  0  0
   28.0192  -33.1033  -16.8036 O   0  0  0  0  0  0  0  0  0  0  0  0
   27.1717  -31.9909  -14.9935 N   0  0  0  0  0  0  0  0  0  0  0  0
   26.3480  -33.0971  -14.6560 C   0  0  1  0  0  0  0  0  0  0  0  0
   25.6903  -32.9484  -13.2800 C   0  0  0  0  0  0  0  0  0  0  0  0
   26.7220  -33.2156  -12.1852 C   0  0  0  0  0  0  0  0  0  0  0  0
   26.1585  -33.0511  -10.8444 C   0  0  0  0  0  0  0  0  0  0  0  0
   26.4417  -32.0663  -10.1155 O   0  0  0  0  0  0  0  0  0  0  0  0
   25.2726  -33.4165  -15.5995 C   0  0  0  0  0  0  0  0  0  0  0  0
   24.6376  -32.4027  -16.0566 O   0  0  0  0  0  0  0  0  0  0  0  0
   25.2852  -33.9999  -10.3464 O   0  0  0  0  0  0  0  0  0  0  0  0
   24.2849  -35.7346  -18.1136 C   0  0  0  0  0  0  0  0  0  0  0  0
   23.8189  -34.8519  -16.9649 C   0  0  2  0  0  0  0  0  0  0  0  0
   24.9069  -34.7037  -16.0190 N   0  0  0  0  0  0  0  0  0  0  0  0
   22.6811  -35.5351  -16.2920 C   0  0  0  0  0  0  0  0  0  0  0  0
   22.7912  -35.9238  -15.1093 O   0  0  0  0  0  0  0  0  0  0  0  0
   21.4741  -35.7638  -16.9372 O   0  0  0  0  0  0  0  0  0  0  0  0
  2  1  1  6
  3  2  1  0
  4  3  1  0
  5  4  1  0
  6  5  1  0
  7  6  1  0
  8  2  1  0
  8  9  2  0
 10  8  1  0
 11 10  1  0
 11 12  1  1
 12 13  1  0
 14 13  1  0
 15 14  2  0
 16 11  1  0
 17 16  2  0
 18 14  1  0
 20 19  1  6
 20 21  1  0
 21 16  1  0
 22 24  1  0
 22 20  1  0
 23 22  2  0
M  END
$$$$
