KEA.pdb
     RDKit          3D

 24 23  0  0  1  0  0  0  0  0999 V2000
   20.0302  -12.7215  -17.4509 N   0  0  0  0  0  0  0  0  0  0  0  0
   19.1144  -11.7573  -16.9566 C   0  0  1  0  0  0  0  0  0  0  0  0
   18.3470  -12.0994  -15.7358 C   0  0  0  0  0  0  0  0  0  0  0  0
   17.2355  -13.0599  -15.9264 C   0  0  0  0  0  0  0  0  0  0  0  0
   15.9966  -12.4497  -16.4929 C   0  0  0  0  0  0  0  0  0  0  0  0
   14.9185  -13.5354  -16.5922 C   0  0  0  0  0  0  0  0  0  0  0  0
   13.7079  -12.9242  -17.0764 N   0  0  0  0  0  0  0  0  0  0  0  0
   19.7379  -10.3866  -16.8522 C   0  0  0  0  0  0  0  0  0  0  0  0
   20.9089  -10.3502  -16.4517 O   0  0  0  0  0  0  0  0  0  0  0  0
   19.0761   -9.1894  -17.1767 N   0  0  0  0  0  0  0  0  0  0  0  0
   19.7793   -7.9588  -17.0920 C   0  0  1  0  0  0  0  0  0  0  0  0
   19.0262   -6.7991  -17.7523 C   0  0  0  0  0  0  0  0  0  0  0  0
   19.8690   -5.5271  -17.6732 C   0  0  0  0  0  0  0  0  0  0  0  0
   19.2362   -4.4025  -18.3639 C   0  0  0  0  0  0  0  0  0  0  0  0
   19.7503   -3.2550  -18.3850 O   0  0  0  0  0  0  0  0  0  0  0  0
   20.1384   -7.5086  -15.7441 C   0  0  0  0  0  0  0  0  0  0  0  0
   19.2108   -7.6308  -14.8697 O   0  0  0  0  0  0  0  0  0  0  0  0
   18.0336   -4.5892  -19.0194 O   0  0  0  0  0  0  0  0  0  0  0  0
   22.4832   -7.5680  -13.2970 C   0  0  0  0  0  0  0  0  0  0  0  0
   21.5715   -6.5631  -13.9861 C   0  0  2  0  0  0  0  0  0  0  0  0
   21.3780   -6.9754  -15.3620 N   0  0  0  0  0  0  0  0  0  0  0  0
   22.2495   -5.2387  -13.9676 C   0  0  0  0  0  0  0  0  0  0  0  0
   22.6621   -4.7282  -15.0312 O   0  0  0  0  0  0  0  0  0  0  0  0
   22.4473   -4.5293  -12.7916 O   0  0  0  0  0  0  0  0  0  0  0  0
  2  1  1  1
  3  2  1  0
  4  3  1  0
  5  4  1  0
  6  5  1  0
  7  6  1  0
  8  2  1  0
  8  9  2  0
 10  8  1  0
 11 10  1  0
 11 12  1  1
 12 13  1  0
 14 13  1  0
 15 14  2  0
 16 11  1  0
 17 16  2  0
 18 14  1  0
 20 19  1  1
 20 21  1  0
 21 16  1  0
 22 24  1  0
 22 20  1  0
 23 22  2  0
M  END
$$$$
