KEA.pdb
     RDKit          3D

 24 23  0  0  1  0  0  0  0  0999 V2000
   18.9641  -11.8390  -15.4837 N   0  0  0  0  0  0  0  0  0  0  0  0
   18.2378  -10.7882  -16.1009 C   0  0  1  0  0  0  0  0  0  0  0  0
   16.8133  -11.0349  -16.4263 C   0  0  0  0  0  0  0  0  0  0  0  0
   16.5453  -12.2244  -17.2675 C   0  0  0  0  0  0  0  0  0  0  0  0
   15.0964  -12.4654  -17.5339 C   0  0  0  0  0  0  0  0  0  0  0  0
   14.9617  -13.7210  -18.4034 C   0  0  0  0  0  0  0  0  0  0  0  0
   13.5664  -13.9132  -18.7028 N   0  0  0  0  0  0  0  0  0  0  0  0
   18.4213   -9.4747  -15.3803 C   0  0  0  0  0  0  0  0  0  0  0  0
   18.1143   -9.4642  -14.1808 O   0  0  0  0  0  0  0  0  0  0  0  0
   18.9076   -8.3019  -15.9841 N   0  0  0  0  0  0  0  0  0  0  0  0
   19.1002   -7.1385  -15.1933 C   0  0  1  0  0  0  0  0  0  0  0  0
   20.5806   -6.8153  -14.9650 C   0  0  0  0  0  0  0  0  0  0  0  0
   20.7078   -5.6602  -13.9731 C   0  0  0  0  0  0  0  0  0  0  0  0
   22.0983   -5.4152  -13.5872 C   0  0  0  0  0  0  0  0  0  0  0  0
   22.4266   -4.4612  -12.8367 O   0  0  0  0  0  0  0  0  0  0  0  0
   18.4765   -5.9076  -15.6878 C   0  0  0  0  0  0  0  0  0  0  0  0
   18.7368   -5.6244  -16.9092 O   0  0  0  0  0  0  0  0  0  0  0  0
   23.0967   -6.2494  -14.0543 O   0  0  0  0  0  0  0  0  0  0  0  0
   15.7119   -3.6089  -14.9713 C   0  0  0  0  0  0  0  0  0  0  0  0
   17.0701   -3.8948  -15.5954 C   0  0  2  0  0  0  0  0  0  0  0  0
   17.6477   -5.0541  -14.9452 N   0  0  0  0  0  0  0  0  0  0  0  0
   17.9453   -2.7162  -15.3524 C   0  0  0  0  0  0  0  0  0  0  0  0
   17.9368   -1.7517  -16.1472 O   0  0  0  0  0  0  0  0  0  0  0  0
   18.7903   -2.6407  -14.2544 O   0  0  0  0  0  0  0  0  0  0  0  0
  2  1  1  1
  3  2  1  0
  4  3  1  0
  5  4  1  0
  6  5  1  0
  7  6  1  0
  8  2  1  0
  8  9  2  0
 10  8  1  0
 11 10  1  0
 11 12  1  6
 12 13  1  0
 14 13  1  0
 15 14  2  0
 16 11  1  0
 17 16  2  0
 18 14  1  0
 20 19  1  1
 20 21  1  0
 21 16  1  0
 22 24  1  0
 22 20  1  0
 23 22  2  0
M  END
$$$$
