KEA.pdb
     RDKit          3D

 24 23  0  0  1  0  0  0  0  0999 V2000
   28.6312  -22.7280  -17.0855 N   0  0  0  0  0  0  0  0  0  0  0  0
   28.3867  -21.4919  -16.4336 C   0  0  1  0  0  0  0  0  0  0  0  0
   28.3605  -20.2674  -17.2678 C   0  0  0  0  0  0  0  0  0  0  0  0
   29.4192  -20.1727  -18.2995 C   0  0  0  0  0  0  0  0  0  0  0  0
   29.0506  -20.7934  -19.6061 C   0  0  0  0  0  0  0  0  0  0  0  0
   30.1551  -20.4834  -20.6232 C   0  0  0  0  0  0  0  0  0  0  0  0
   30.1064  -19.0763  -20.9253 N   0  0  0  0  0  0  0  0  0  0  0  0
   27.1893  -21.5630  -15.5173 C   0  0  0  0  0  0  0  0  0  0  0  0
   26.2824  -22.3310  -15.8652 O   0  0  0  0  0  0  0  0  0  0  0  0
   27.0578  -20.8247  -14.3282 N   0  0  0  0  0  0  0  0  0  0  0  0
   25.9068  -21.0079  -13.5173 C   0  0  1  0  0  0  0  0  0  0  0  0
   26.1587  -20.6665  -12.0448 C   0  0  0  0  0  0  0  0  0  0  0  0
   24.9141  -20.9930  -11.2209 C   0  0  0  0  0  0  0  0  0  0  0  0
   25.1372  -20.8050   -9.7866 C   0  0  0  0  0  0  0  0  0  0  0  0
   25.8537  -19.8745   -9.3369 O   0  0  0  0  0  0  0  0  0  0  0  0
   24.7070  -20.2670  -13.9173 C   0  0  0  0  0  0  0  0  0  0  0  0
   24.9047  -19.0345  -14.2034 O   0  0  0  0  0  0  0  0  0  0  0  0
   24.5497  -21.6695   -8.8821 O   0  0  0  0  0  0  0  0  0  0  0  0
   22.1226  -20.0815  -15.9210 C   0  0  0  0  0  0  0  0  0  0  0  0
   22.3260  -19.9271  -14.4208 C   0  0  2  0  0  0  0  0  0  0  0  0
   23.4104  -20.7941  -14.0051 N   0  0  0  0  0  0  0  0  0  0  0  0
   21.0742  -20.3560  -13.7403 C   0  0  0  0  0  0  0  0  0  0  0  0
   20.0189  -19.7044  -13.8953 O   0  0  0  0  0  0  0  0  0  0  0  0
   21.0275  -21.4755  -12.9220 O   0  0  0  0  0  0  0  0  0  0  0  0
  2  1  1  6
  3  2  1  0
  4  3  1  0
  5  4  1  0
  6  5  1  0
  7  6  1  0
  8  2  1  0
  8  9  2  0
 10  8  1  0
 11 10  1  0
 11 12  1  1
 12 13  1  0
 14 13  1  0
 15 14  2  0
 16 11  1  0
 17 16  2  0
 18 14  1  0
 20 19  1  6
 20 21  1  0
 21 16  1  0
 22 24  1  0
 22 20  1  0
 23 22  2  0
M  END
$$$$
