KEA.pdb
     RDKit          3D

 24 23  0  0  1  0  0  0  0  0999 V2000
   14.9278  -11.0867  -16.1072 N   0  0  0  0  0  0  0  0  0  0  0  0
   15.0092  -10.0818  -15.1091 C   0  0  1  0  0  0  0  0  0  0  0  0
   14.7328  -10.4790  -13.7084 C   0  0  0  0  0  0  0  0  0  0  0  0
   13.4168  -11.1166  -13.4715 C   0  0  0  0  0  0  0  0  0  0  0  0
   13.0796  -11.2944  -12.0283 C   0  0  0  0  0  0  0  0  0  0  0  0
   11.6120  -11.7244  -11.9188 C   0  0  0  0  0  0  0  0  0  0  0  0
   11.2642  -11.7856  -10.5228 N   0  0  0  0  0  0  0  0  0  0  0  0
   16.2844   -9.2811  -15.2157 C   0  0  0  0  0  0  0  0  0  0  0  0
   17.2880   -9.9027  -15.5890 O   0  0  0  0  0  0  0  0  0  0  0  0
   16.3847   -7.9100  -14.9218 N   0  0  0  0  0  0  0  0  0  0  0  0
   17.5643   -7.2048  -15.2785 C   0  0  1  0  0  0  0  0  0  0  0  0
   17.2850   -5.7594  -15.7040 C   0  0  0  0  0  0  0  0  0  0  0  0
   16.5950   -5.0118  -14.5641 C   0  0  0  0  0  0  0  0  0  0  0  0
   16.2934   -3.6239  -14.9176 C   0  0  0  0  0  0  0  0  0  0  0  0
   15.7512   -2.8294  -14.1076 O   0  0  0  0  0  0  0  0  0  0  0  0
   18.6162   -7.1432  -14.2596 C   0  0  0  0  0  0  0  0  0  0  0  0
   18.1980   -7.1823  -13.0498 O   0  0  0  0  0  0  0  0  0  0  0  0
   16.6071   -3.1539  -16.1792 O   0  0  0  0  0  0  0  0  0  0  0  0
   21.9958   -8.1263  -13.6933 C   0  0  0  0  0  0  0  0  0  0  0  0
   20.9145   -7.0990  -13.3912 C   0  0  2  0  0  0  0  0  0  0  0  0
   19.9931   -7.0489  -14.5088 N   0  0  0  0  0  0  0  0  0  0  0  0
   21.5697   -5.7713  -13.2430 C   0  0  0  0  0  0  0  0  0  0  0  0
   21.4267   -4.8973  -14.1248 O   0  0  0  0  0  0  0  0  0  0  0  0
   22.3509   -5.4548  -12.1408 O   0  0  0  0  0  0  0  0  0  0  0  0
  2  1  1  6
  3  2  1  0
  4  3  1  0
  5  4  1  0
  6  5  1  0
  7  6  1  0
  8  2  1  0
  8  9  2  0
 10  8  1  0
 11 10  1  0
 11 12  1  1
 12 13  1  0
 14 13  1  0
 15 14  2  0
 16 11  1  0
 17 16  2  0
 18 14  1  0
 20 19  1  6
 20 21  1  0
 21 16  1  0
 22 24  1  0
 22 20  1  0
 23 22  2  0
M  END
$$$$
