KEA.pdb
     RDKit          3D

 24 23  0  0  1  0  0  0  0  0999 V2000
   20.4893  -11.1453  -15.1722 N   0  0  0  0  0  0  0  0  0  0  0  0
   19.5975  -10.2469  -15.8127 C   0  0  1  0  0  0  0  0  0  0  0  0
   18.1708  -10.6384  -15.8996 C   0  0  0  0  0  0  0  0  0  0  0  0
   17.9078  -11.9731  -16.4861 C   0  0  0  0  0  0  0  0  0  0  0  0
   16.4729  -12.3826  -16.4435 C   0  0  0  0  0  0  0  0  0  0  0  0
   16.3449  -13.7795  -17.0625 C   0  0  0  0  0  0  0  0  0  0  0  0
   14.9469  -14.1198  -17.1195 N   0  0  0  0  0  0  0  0  0  0  0  0
   19.7535   -8.8350  -15.3021 C   0  0  0  0  0  0  0  0  0  0  0  0
   19.4676   -8.6520  -14.1113 O   0  0  0  0  0  0  0  0  0  0  0  0
   20.1930   -7.7540  -16.0861 N   0  0  0  0  0  0  0  0  0  0  0  0
   20.3409   -6.4743  -15.4892 C   0  0  1  0  0  0  0  0  0  0  0  0
   21.7813   -5.9548  -15.5498 C   0  0  0  0  0  0  0  0  0  0  0  0
   21.8836   -4.6326  -14.7909 C   0  0  0  0  0  0  0  0  0  0  0  0
   21.9374   -4.8313  -13.3418 C   0  0  0  0  0  0  0  0  0  0  0  0
   22.3104   -5.9169  -12.8283 O   0  0  0  0  0  0  0  0  0  0  0  0
   19.4903   -5.4070  -16.0241 C   0  0  0  0  0  0  0  0  0  0  0  0
   19.5832   -5.2262  -17.2885 O   0  0  0  0  0  0  0  0  0  0  0  0
   21.5692   -3.8030  -12.4945 O   0  0  0  0  0  0  0  0  0  0  0  0
   16.7189   -3.1301  -15.0274 C   0  0  0  0  0  0  0  0  0  0  0  0
   17.8242   -3.6020  -15.9609 C   0  0  2  0  0  0  0  0  0  0  0  0
   18.6171   -4.6037  -15.2765 N   0  0  0  0  0  0  0  0  0  0  0  0
   18.6885   -2.4331  -16.2783 C   0  0  0  0  0  0  0  0  0  0  0  0
   19.7891   -2.2900  -15.7036 O   0  0  0  0  0  0  0  0  0  0  0  0
   18.3157   -1.4727  -17.2079 O   0  0  0  0  0  0  0  0  0  0  0  0
  2  1  1  1
  3  2  1  0
  4  3  1  0
  5  4  1  0
  6  5  1  0
  7  6  1  0
  8  2  1  0
  8  9  2  0
 10  8  1  0
 11 10  1  0
 11 12  1  6
 12 13  1  0
 14 13  1  0
 15 14  2  0
 16 11  1  0
 17 16  2  0
 18 14  1  0
 20 19  1  1
 20 21  1  0
 21 16  1  0
 22 24  1  0
 22 20  1  0
 23 22  2  0
M  END
$$$$
