KEA.pdb
     RDKit          3D

 24 23  0  0  1  0  0  0  0  0999 V2000
   18.6883  -13.1022  -15.7905 N   0  0  0  0  0  0  0  0  0  0  0  0
   18.1239  -11.8604  -16.1805 C   0  0  1  0  0  0  0  0  0  0  0  0
   16.8680  -11.4368  -15.5176 C   0  0  0  0  0  0  0  0  0  0  0  0
   15.7545  -12.4122  -15.5726 C   0  0  0  0  0  0  0  0  0  0  0  0
   14.5326  -11.9807  -14.8316 C   0  0  0  0  0  0  0  0  0  0  0  0
   13.5030  -13.1156  -14.8842 C   0  0  0  0  0  0  0  0  0  0  0  0
   12.3905  -12.7529  -14.0449 N   0  0  0  0  0  0  0  0  0  0  0  0
   19.1476  -10.7511  -16.1867 C   0  0  0  0  0  0  0  0  0  0  0  0
   20.0886  -10.8742  -15.3913 O   0  0  0  0  0  0  0  0  0  0  0  0
   19.0870   -9.6231  -17.0234 N   0  0  0  0  0  0  0  0  0  0  0  0
   20.1124   -8.6438  -16.9493 C   0  0  1  0  0  0  0  0  0  0  0  0
   20.2918   -7.8728  -18.2613 C   0  0  0  0  0  0  0  0  0  0  0  0
   21.4879   -6.9293  -18.1441 C   0  0  0  0  0  0  0  0  0  0  0  0
   21.6759   -6.1245  -19.3520 C   0  0  0  0  0  0  0  0  0  0  0  0
   20.9523   -6.2668  -20.3706 O   0  0  0  0  0  0  0  0  0  0  0  0
   19.9742   -7.6389  -15.8911 C   0  0  0  0  0  0  0  0  0  0  0  0
   18.7885   -7.1817  -15.7333 O   0  0  0  0  0  0  0  0  0  0  0  0
   22.6773   -5.1724  -19.3928 O   0  0  0  0  0  0  0  0  0  0  0  0
   21.6700   -6.5208  -12.8397 C   0  0  0  0  0  0  0  0  0  0  0  0
   20.6853   -6.2762  -13.9739 C   0  0  2  0  0  0  0  0  0  0  0  0
   21.0094   -7.1638  -15.0729 N   0  0  0  0  0  0  0  0  0  0  0  0
   20.8443   -4.8673  -14.4254 C   0  0  0  0  0  0  0  0  0  0  0  0
   21.3680   -4.6167  -15.5321 O   0  0  0  0  0  0  0  0  0  0  0  0
   20.4253   -3.7946  -13.6515 O   0  0  0  0  0  0  0  0  0  0  0  0
  2  1  1  1
  3  2  1  0
  4  3  1  0
  5  4  1  0
  6  5  1  0
  7  6  1  0
  8  2  1  0
  8  9  2  0
 10  8  1  0
 11 10  1  0
 11 12  1  6
 12 13  1  0
 14 13  1  0
 15 14  2  0
 16 11  1  0
 17 16  2  0
 18 14  1  0
 20 19  1  1
 20 21  1  0
 21 16  1  0
 22 24  1  0
 22 20  1  0
 23 22  2  0
M  END
$$$$
