KEA.pdb
     RDKit          3D

 24 23  0  0  1  0  0  0  0  0999 V2000
   28.3429  -19.3188  -17.5976 N   0  0  0  0  0  0  0  0  0  0  0  0
   27.5294  -20.1631  -16.7988 C   0  0  1  0  0  0  0  0  0  0  0  0
   28.1543  -20.8044  -15.6180 C   0  0  0  0  0  0  0  0  0  0  0  0
   29.0876  -21.9165  -15.9124 C   0  0  0  0  0  0  0  0  0  0  0  0
   28.4303  -23.1207  -16.5008 C   0  0  0  0  0  0  0  0  0  0  0  0
   29.4575  -24.2573  -16.5617 C   0  0  0  0  0  0  0  0  0  0  0  0
   28.8292  -25.3991  -17.1742 N   0  0  0  0  0  0  0  0  0  0  0  0
   26.2154  -19.5109  -16.4434 C   0  0  0  0  0  0  0  0  0  0  0  0
   26.2721  -18.5810  -15.6278 O   0  0  0  0  0  0  0  0  0  0  0  0
   24.9720  -19.8947  -16.9755 N   0  0  0  0  0  0  0  0  0  0  0  0
   23.7888  -19.2644  -16.5077 C   0  0  1  0  0  0  0  0  0  0  0  0
   22.8651  -18.8182  -17.6461 C   0  0  0  0  0  0  0  0  0  0  0  0
   21.6912  -18.0245  -17.0749 C   0  0  0  0  0  0  0  0  0  0  0  0
   20.7316  -17.6371  -18.1100 C   0  0  0  0  0  0  0  0  0  0  0  0
   20.1499  -18.4846  -18.8344 O   0  0  0  0  0  0  0  0  0  0  0  0
   22.9618  -20.0433  -15.5814 C   0  0  0  0  0  0  0  0  0  0  0  0
   22.7094  -21.2403  -15.9600 O   0  0  0  0  0  0  0  0  0  0  0  0
   20.4436  -16.3004  -18.3124 O   0  0  0  0  0  0  0  0  0  0  0  0
   21.5354  -19.8665  -12.1399 C   0  0  0  0  0  0  0  0  0  0  0  0
   21.7458  -20.5172  -13.4994 C   0  0  2  0  0  0  0  0  0  0  0  0
   22.4497  -19.5861  -14.3585 N   0  0  0  0  0  0  0  0  0  0  0  0
   20.4080  -20.8013  -14.0854 C   0  0  0  0  0  0  0  0  0  0  0  0
   19.9730  -20.1047  -15.0275 O   0  0  0  0  0  0  0  0  0  0  0  0
   19.6040  -21.8318  -13.6195 O   0  0  0  0  0  0  0  0  0  0  0  0
  2  1  1  1
  3  2  1  0
  4  3  1  0
  5  4  1  0
  6  5  1  0
  7  6  1  0
  8  2  1  0
  8  9  2  0
 10  8  1  0
 11 10  1  0
 11 12  1  6
 12 13  1  0
 14 13  1  0
 15 14  2  0
 16 11  1  0
 17 16  2  0
 18 14  1  0
 20 19  1  1
 20 21  1  0
 21 16  1  0
 22 24  1  0
 22 20  1  0
 23 22  2  0
M  END
$$$$
