KEA.pdb
     RDKit          3D

 24 23  0  0  1  0  0  0  0  0999 V2000
   20.6402  -10.8041  -15.4257 N   0  0  0  0  0  0  0  0  0  0  0  0
   19.3931  -10.2153  -15.7586 C   0  0  1  0  0  0  0  0  0  0  0  0
   18.1852  -11.0700  -15.6782 C   0  0  0  0  0  0  0  0  0  0  0  0
   17.9500  -11.9571  -16.8410 C   0  0  0  0  0  0  0  0  0  0  0  0
   16.6266  -12.6473  -16.8200 C   0  0  0  0  0  0  0  0  0  0  0  0
   16.5315  -13.5592  -18.0489 C   0  0  0  0  0  0  0  0  0  0  0  0
   17.4416  -14.6597  -17.8639 N   0  0  0  0  0  0  0  0  0  0  0  0
   19.1851   -8.8959  -15.0554 C   0  0  0  0  0  0  0  0  0  0  0  0
   19.1631   -8.9360  -13.8180 O   0  0  0  0  0  0  0  0  0  0  0  0
   19.0207   -7.6651  -15.7146 N   0  0  0  0  0  0  0  0  0  0  0  0
   18.7602   -6.4954  -14.9530 C   0  0  1  0  0  0  0  0  0  0  0  0
   19.9731   -5.5630  -14.8651 C   0  0  0  0  0  0  0  0  0  0  0  0
   20.8324   -5.9490  -13.6621 C   0  0  0  0  0  0  0  0  0  0  0  0
   22.0135   -5.0946  -13.5313 C   0  0  0  0  0  0  0  0  0  0  0  0
   22.7393   -5.1083  -12.5044 O   0  0  0  0  0  0  0  0  0  0  0  0
   17.6322   -5.6709  -15.3961 C   0  0  0  0  0  0  0  0  0  0  0  0
   17.5894   -5.4483  -16.6565 O   0  0  0  0  0  0  0  0  0  0  0  0
   22.3573   -4.2376  -14.5600 O   0  0  0  0  0  0  0  0  0  0  0  0
   14.4633   -4.1556  -14.1693 C   0  0  0  0  0  0  0  0  0  0  0  0
   15.6146   -4.2890  -15.1555 C   0  0  2  0  0  0  0  0  0  0  0  0
   16.6370   -5.1317  -14.5681 N   0  0  0  0  0  0  0  0  0  0  0  0
   16.1797   -2.9325  -15.3893 C   0  0  0  0  0  0  0  0  0  0  0  0
   17.1651   -2.5391  -14.7288 O   0  0  0  0  0  0  0  0  0  0  0  0
   15.6466   -2.0654  -16.3323 O   0  0  0  0  0  0  0  0  0  0  0  0
  2  1  1  1
  3  2  1  0
  4  3  1  0
  5  4  1  0
  6  5  1  0
  7  6  1  0
  8  2  1  0
  8  9  2  0
 10  8  1  0
 11 10  1  0
 11 12  1  6
 12 13  1  0
 14 13  1  0
 15 14  2  0
 16 11  1  0
 17 16  2  0
 18 14  1  0
 20 19  1  1
 20 21  1  0
 21 16  1  0
 22 24  1  0
 22 20  1  0
 23 22  2  0
M  END
$$$$
