KEA.pdb
     RDKit          3D

 24 23  0  0  1  0  0  0  0  0999 V2000
   17.4546  -15.4645  -16.7024 N   0  0  0  0  0  0  0  0  0  0  0  0
   18.3314  -14.3689  -16.4937 C   0  0  1  0  0  0  0  0  0  0  0  0
   19.6187  -14.3682  -17.2278 C   0  0  0  0  0  0  0  0  0  0  0  0
   20.0824  -15.6904  -17.7085 C   0  0  0  0  0  0  0  0  0  0  0  0
   21.4785  -15.6886  -18.2369 C   0  0  0  0  0  0  0  0  0  0  0  0
   21.8381  -17.1141  -18.6720 C   0  0  0  0  0  0  0  0  0  0  0  0
   23.1800  -17.0999  -19.1943 N   0  0  0  0  0  0  0  0  0  0  0  0
   17.6205  -13.0435  -16.6220 C   0  0  0  0  0  0  0  0  0  0  0  0
   17.2729  -12.7206  -17.7657 O   0  0  0  0  0  0  0  0  0  0  0  0
   17.3432  -12.1865  -15.5426 N   0  0  0  0  0  0  0  0  0  0  0  0
   16.6975  -10.9455  -15.7854 C   0  0  1  0  0  0  0  0  0  0  0  0
   15.5000  -10.7091  -14.8590 C   0  0  0  0  0  0  0  0  0  0  0  0
   14.7525   -9.4501  -15.2957 C   0  0  0  0  0  0  0  0  0  0  0  0
   13.6083   -9.1600  -14.4304 C   0  0  0  0  0  0  0  0  0  0  0  0
   13.3468   -9.8504  -13.4124 O   0  0  0  0  0  0  0  0  0  0  0  0
   17.5381   -9.7482  -15.6935 C   0  0  0  0  0  0  0  0  0  0  0  0
   18.3172   -9.7131  -14.6779 O   0  0  0  0  0  0  0  0  0  0  0  0
   12.7765   -8.0964  -14.7269 O   0  0  0  0  0  0  0  0  0  0  0  0
   18.6795   -6.8805  -17.7488 C   0  0  0  0  0  0  0  0  0  0  0  0
   18.5093   -7.6131  -16.4259 C   0  0  2  0  0  0  0  0  0  0  0  0
   17.5474   -8.6823  -16.6049 N   0  0  0  0  0  0  0  0  0  0  0  0
   17.9781   -6.6449  -15.4288 C   0  0  0  0  0  0  0  0  0  0  0  0
   16.7606   -6.6364  -15.1468 O   0  0  0  0  0  0  0  0  0  0  0  0
   18.7969   -5.7295  -14.7829 O   0  0  0  0  0  0  0  0  0  0  0  0
  2  1  1  6
  3  2  1  0
  4  3  1  0
  5  4  1  0
  6  5  1  0
  7  6  1  0
  8  2  1  0
  8  9  2  0
 10  8  1  0
 11 10  1  0
 11 12  1  1
 12 13  1  0
 14 13  1  0
 15 14  2  0
 16 11  1  0
 17 16  2  0
 18 14  1  0
 20 19  1  6
 20 21  1  0
 21 16  1  0
 22 24  1  0
 22 20  1  0
 23 22  2  0
M  END
$$$$
