GQT.pdb
     RDKit          3D

 21 20  0  0  1  0  0  0  0  0999 V2000
    7.3387  -20.3244   18.5712 N   0  0  0  0  0  0  0  0  0  0  0  0
    6.7779  -19.2718   19.3878 C   0  0  0  0  0  0  0  0  0  0  0  0
    7.8955  -18.4798   19.9735 C   0  0  0  0  0  0  0  0  0  0  0  0
    9.0454  -18.9570   20.1153 O   0  0  0  0  0  0  0  0  0  0  0  0
    7.5051  -12.3623   20.2068 N   0  0  0  0  0  0  0  0  0  0  0  0
    7.7446  -13.2106   19.1111 C   0  0  0  0  0  0  0  0  0  0  0  0
    7.5793  -12.8195   17.9315 O   0  0  0  0  0  0  0  0  0  0  0  0
    8.2007  -14.5941   19.3390 C   0  0  0  0  0  0  0  0  0  0  0  0
    8.3476  -14.8857   20.8226 C   0  0  0  0  0  0  0  0  0  0  0  0
    8.7755  -16.3549   20.9407 C   0  0  2  0  0  0  0  0  0  0  0  0
    7.7150  -17.1397   20.4024 N   0  0  0  0  0  0  0  0  0  0  0  0
    9.1184  -16.6604   22.3322 C   0  0  0  0  0  0  0  0  0  0  0  0
    8.2861  -16.4949   23.2534 O   0  0  0  0  0  0  0  0  0  0  0  0
   10.1370  -19.9861   23.8799 C   0  0  0  0  0  0  0  0  0  0  0  0
   11.1519  -18.9454   24.2034 C   0  0  1  0  0  0  0  0  0  0  0  0
   12.2568  -19.0510   23.3304 O   0  0  0  0  0  0  0  0  0  0  0  0
   10.6413  -17.5313   24.0687 C   0  0  2  0  0  0  0  0  0  0  0  0
   10.3849  -17.1510   22.7124 N   0  0  0  0  0  0  0  0  0  0  0  0
   11.5713  -16.6049   24.7581 C   0  0  0  0  0  0  0  0  0  0  0  0
   12.2254  -15.7492   24.1043 O   0  0  0  0  0  0  0  0  0  0  0  0
   11.7663  -16.6304   26.1293 O   0  0  0  0  0  0  0  0  0  0  0  0
  2  1  1  0
  2  3  1  0
  3  4  2  0
  3 11  1  0
  6  5  1  0
  7  6  2  0
  8  6  1  0
  9  8  1  0
 10 12  1  0
 10  9  1  1
 11 10  1  0
 12 18  1  0
 13 12  2  0
 15 14  1  6
 15 16  1  0
 17 19  1  0
 17 15  1  0
 17 18  1  6
 19 21  1  0
 20 19  2  0
M  END
$$$$
