GQT.pdb
     RDKit          3D

 21 20  0  0  1  0  0  0  0  0999 V2000
    1.2764  -24.9001   23.1103 N   0  0  0  0  0  0  0  0  0  0  0  0
    1.7761  -23.9193   24.0471 C   0  0  0  0  0  0  0  0  0  0  0  0
    2.6435  -22.9583   23.3097 C   0  0  0  0  0  0  0  0  0  0  0  0
    3.4771  -23.3368   22.4542 O   0  0  0  0  0  0  0  0  0  0  0  0
    1.4415  -19.9153   20.7453 N   0  0  0  0  0  0  0  0  0  0  0  0
    2.3631  -18.8600   20.6250 C   0  0  0  0  0  0  0  0  0  0  0  0
    2.4973  -18.2266   19.5515 O   0  0  0  0  0  0  0  0  0  0  0  0
    3.1974  -18.4781   21.7792 C   0  0  0  0  0  0  0  0  0  0  0  0
    2.7960  -19.2490   23.0250 C   0  0  0  0  0  0  0  0  0  0  0  0
    3.4536  -20.6316   22.9165 C   0  0  2  0  0  0  0  0  0  0  0  0
    2.5702  -21.5603   23.5388 N   0  0  0  0  0  0  0  0  0  0  0  0
    4.8001  -20.5861   23.4927 C   0  0  0  0  0  0  0  0  0  0  0  0
    4.9835  -20.7606   24.7193 O   0  0  0  0  0  0  0  0  0  0  0  0
    9.7315  -20.3363   22.9052 C   0  0  0  0  0  0  0  0  0  0  0  0
    8.3710  -20.2213   22.3108 C   0  0  1  0  0  0  0  0  0  0  0  0
    8.1701  -21.2347   21.3481 O   0  0  0  0  0  0  0  0  0  0  0  0
    7.2520  -20.3642   23.3137 C   0  0  2  0  0  0  0  0  0  0  0  0
    5.9518  -20.3471   22.7144 N   0  0  0  0  0  0  0  0  0  0  0  0
    7.4081  -19.3398   24.3741 C   0  0  0  0  0  0  0  0  0  0  0  0
    6.9337  -18.1824   24.2221 O   0  0  0  0  0  0  0  0  0  0  0  0
    8.0702  -19.5954   25.5638 O   0  0  0  0  0  0  0  0  0  0  0  0
  2  1  1  0
  2  3  1  0
  3  4  2  0
  3 11  1  0
  6  5  1  0
  7  6  2  0
  8  6  1  0
  9  8  1  0
 10 12  1  0
 10  9  1  1
 11 10  1  0
 12 18  1  0
 13 12  2  0
 15 14  1  1
 15 16  1  0
 17 19  1  0
 17 15  1  0
 17 18  1  6
 19 21  1  0
 20 19  2  0
M  END
$$$$
