GQT.pdb
     RDKit          3D

 21 20  0  0  1  0  0  0  0  0999 V2000
    3.8461  -19.1396   21.4290 N   0  0  0  0  0  0  0  0  0  0  0  0
    5.2235  -18.7744   21.6714 C   0  0  0  0  0  0  0  0  0  0  0  0
    5.3566  -18.3420   23.0909 C   0  0  0  0  0  0  0  0  0  0  0  0
    4.3824  -17.9051   23.7467 O   0  0  0  0  0  0  0  0  0  0  0  0
    9.2981  -20.3216   27.4864 N   0  0  0  0  0  0  0  0  0  0  0  0
    8.6044  -19.2593   28.0927 C   0  0  0  0  0  0  0  0  0  0  0  0
    8.6817  -19.0454   29.3256 O   0  0  0  0  0  0  0  0  0  0  0  0
    7.7632  -18.3681   27.2727 C   0  0  0  0  0  0  0  0  0  0  0  0
    7.7295  -18.8252   25.8244 C   0  0  0  0  0  0  0  0  0  0  0  0
    6.7798  -17.8724   25.0855 C   0  0  2  0  0  0  0  0  0  0  0  0
    6.5974  -18.4029   23.7757 N   0  0  0  0  0  0  0  0  0  0  0  0
    7.3161  -16.5094   25.1254 C   0  0  0  0  0  0  0  0  0  0  0  0
    8.1695  -16.1269   24.2923 O   0  0  0  0  0  0  0  0  0  0  0  0
    6.8528  -11.7957   26.4734 C   0  0  0  0  0  0  0  0  0  0  0  0
    6.3740  -13.2049   26.5239 C   0  0  1  0  0  0  0  0  0  0  0  0
    5.2257  -13.3611   25.7171 O   0  0  0  0  0  0  0  0  0  0  0  0
    7.3817  -14.2109   26.0230 C   0  0  2  0  0  0  0  0  0  0  0  0
    6.9107  -15.5614   26.0879 N   0  0  0  0  0  0  0  0  0  0  0  0
    8.6669  -14.0168   26.7365 C   0  0  0  0  0  0  0  0  0  0  0  0
    9.1425  -14.9317   27.4606 O   0  0  0  0  0  0  0  0  0  0  0  0
    9.3978  -12.8435   26.6467 O   0  0  0  0  0  0  0  0  0  0  0  0
  2  1  1  0
  2  3  1  0
  3  4  2  0
  3 11  1  0
  6  5  1  0
  7  6  2  0
  8  6  1  0
  9  8  1  0
 10 12  1  0
 10  9  1  1
 11 10  1  0
 12 18  1  0
 13 12  2  0
 15 14  1  6
 15 16  1  0
 17 19  1  0
 17 15  1  0
 17 18  1  1
 19 21  1  0
 20 19  2  0
M  END
$$$$
