GQT.pdb
     RDKit          3D

 21 20  0  0  1  0  0  0  0  0999 V2000
   11.2383  -20.1418   17.5093 N   0  0  0  0  0  0  0  0  0  0  0  0
    9.9538  -19.6702   17.9750 C   0  0  0  0  0  0  0  0  0  0  0  0
   10.1787  -18.5608   18.9435 C   0  0  0  0  0  0  0  0  0  0  0  0
   11.2853  -18.3814   19.5034 O   0  0  0  0  0  0  0  0  0  0  0  0
    8.1831  -11.8861   20.9293 N   0  0  0  0  0  0  0  0  0  0  0  0
    7.8225  -13.1533   20.4377 C   0  0  0  0  0  0  0  0  0  0  0  0
    6.8414  -13.3039   19.6720 O   0  0  0  0  0  0  0  0  0  0  0  0
    8.6066  -14.3412   20.8228 C   0  0  0  0  0  0  0  0  0  0  0  0
    8.2900  -15.5228   19.9223 C   0  0  0  0  0  0  0  0  0  0  0  0
    9.3263  -16.6087   20.2426 C   0  0  2  0  0  0  0  0  0  0  0  0
    9.1482  -17.6470   19.2832 N   0  0  0  0  0  0  0  0  0  0  0  0
    9.1840  -17.0328   21.6379 C   0  0  0  0  0  0  0  0  0  0  0  0
    8.4194  -17.9738   21.9518 O   0  0  0  0  0  0  0  0  0  0  0  0
   11.7368  -18.7761   24.9963 C   0  0  0  0  0  0  0  0  0  0  0  0
   11.2628  -18.1757   23.7186 C   0  0  1  0  0  0  0  0  0  0  0  0
   10.7237  -19.1745   22.8785 O   0  0  0  0  0  0  0  0  0  0  0  0
   10.1773  -17.1417   23.8951 C   0  0  2  0  0  0  0  0  0  0  0  0
    9.8875  -16.4176   22.6944 N   0  0  0  0  0  0  0  0  0  0  0  0
   10.5239  -16.2537   25.0308 C   0  0  0  0  0  0  0  0  0  0  0  0
   11.1114  -15.1572   24.8309 O   0  0  0  0  0  0  0  0  0  0  0  0
   10.2262  -16.5759   26.3447 O   0  0  0  0  0  0  0  0  0  0  0  0
  2  1  1  0
  2  3  1  0
  3  4  2  0
  3 11  1  0
  6  5  1  0
  7  6  2  0
  8  6  1  0
  9  8  1  0
 10 12  1  0
 10  9  1  6
 11 10  1  0
 12 18  1  0
 13 12  2  0
 15 14  1  1
 15 16  1  0
 17 19  1  0
 17 15  1  0
 17 18  1  6
 19 21  1  0
 20 19  2  0
M  END
$$$$
