GQT.pdb
     RDKit          3D

 21 20  0  0  1  0  0  0  0  0999 V2000
    7.2439  -13.1337   18.2082 N   0  0  0  0  0  0  0  0  0  0  0  0
    8.2713  -13.0252   19.2192 C   0  0  0  0  0  0  0  0  0  0  0  0
    7.8227  -13.7647   20.4322 C   0  0  0  0  0  0  0  0  0  0  0  0
    6.6122  -13.9930   20.6617 O   0  0  0  0  0  0  0  0  0  0  0  0
   10.2971  -18.7576   21.9359 N   0  0  0  0  0  0  0  0  0  0  0  0
    9.5320  -18.2187   20.8864 C   0  0  0  0  0  0  0  0  0  0  0  0
    9.3925  -18.8260   19.7986 O   0  0  0  0  0  0  0  0  0  0  0  0
    8.8728  -16.9105   21.0544 C   0  0  0  0  0  0  0  0  0  0  0  0
    9.1102  -16.3516   22.4468 C   0  0  0  0  0  0  0  0  0  0  0  0
    8.3463  -15.0225   22.5223 C   0  0  2  0  0  0  0  0  0  0  0  0
    8.7460  -14.2504   21.3934 N   0  0  0  0  0  0  0  0  0  0  0  0
    8.5902  -14.3842   23.8185 C   0  0  0  0  0  0  0  0  0  0  0  0
    9.6516  -13.7572   24.0398 O   0  0  0  0  0  0  0  0  0  0  0  0
    6.6568  -11.6213   25.7243 C   0  0  0  0  0  0  0  0  0  0  0  0
    6.7929  -12.8559   26.5457 C   0  0  1  0  0  0  0  0  0  0  0  0
    5.6155  -13.6311   26.4635 O   0  0  0  0  0  0  0  0  0  0  0  0
    7.9228  -13.7575   26.1109 C   0  0  2  0  0  0  0  0  0  0  0  0
    7.6604  -14.4362   24.8778 N   0  0  0  0  0  0  0  0  0  0  0  0
    8.2639  -14.6862   27.2153 C   0  0  0  0  0  0  0  0  0  0  0  0
    8.1808  -15.9329   27.0531 O   0  0  0  0  0  0  0  0  0  0  0  0
    8.6832  -14.2415   28.4585 O   0  0  0  0  0  0  0  0  0  0  0  0
  2  1  1  0
  2  3  1  0
  3  4  2  0
  3 11  1  0
  6  5  1  0
  7  6  2  0
  8  6  1  0
  9  8  1  0
 10 12  1  0
 10  9  1  1
 11 10  1  0
 12 18  1  0
 13 12  2  0
 15 14  1  6
 15 16  1  0
 17 19  1  0
 17 15  1  0
 17 18  1  6
 19 21  1  0
 20 19  2  0
M  END
$$$$
