GQT.pdb
     RDKit          3D

 21 20  0  0  1  0  0  0  0  0999 V2000
    9.2231  -18.3564   16.8763 N   0  0  0  0  0  0  0  0  0  0  0  0
    8.1913  -17.7873   17.7135 C   0  0  0  0  0  0  0  0  0  0  0  0
    8.8260  -16.8342   18.6664 C   0  0  0  0  0  0  0  0  0  0  0  0
   10.0494  -16.8770   18.9335 O   0  0  0  0  0  0  0  0  0  0  0  0
    6.9199  -14.5927   18.0082 N   0  0  0  0  0  0  0  0  0  0  0  0
    7.4742  -13.3046   18.1136 C   0  0  0  0  0  0  0  0  0  0  0  0
    7.5934  -12.5589   17.1129 O   0  0  0  0  0  0  0  0  0  0  0  0
    7.9299  -12.8059   19.4242 C   0  0  0  0  0  0  0  0  0  0  0  0
    7.6495  -13.8164   20.5232 C   0  0  0  0  0  0  0  0  0  0  0  0
    8.6367  -14.9735   20.3178 C   0  0  2  0  0  0  0  0  0  0  0  0
    8.0754  -15.8252   19.3229 N   0  0  0  0  0  0  0  0  0  0  0  0
    8.9082  -15.6265   21.6012 C   0  0  0  0  0  0  0  0  0  0  0  0
    8.0216  -16.2869   22.1896 O   0  0  0  0  0  0  0  0  0  0  0  0
   11.7724  -18.5568   22.3609 C   0  0  0  0  0  0  0  0  0  0  0  0
   10.4537  -17.9490   22.6909 C   0  0  1  0  0  0  0  0  0  0  0  0
    9.8078  -18.6980   23.6989 O   0  0  0  0  0  0  0  0  0  0  0  0
   10.5455  -16.5345   23.2098 C   0  0  2  0  0  0  0  0  0  0  0  0
   10.1630  -15.5522   22.2409 N   0  0  0  0  0  0  0  0  0  0  0  0
   11.9023  -16.2995   23.7598 C   0  0  0  0  0  0  0  0  0  0  0  0
   12.7119  -15.5388   23.1654 O   0  0  0  0  0  0  0  0  0  0  0  0
   12.3426  -16.8917   24.9321 O   0  0  0  0  0  0  0  0  0  0  0  0
  2  1  1  0
  2  3  1  0
  3  4  2  0
  3 11  1  0
  6  5  1  0
  7  6  2  0
  8  6  1  0
  9  8  1  0
 10 12  1  0
 10  9  1  1
 11 10  1  0
 12 18  1  0
 13 12  2  0
 15 14  1  1
 15 16  1  0
 17 19  1  0
 17 15  1  0
 17 18  1  6
 19 21  1  0
 20 19  2  0
M  END
$$$$
