GQT.pdb
     RDKit          3D

 21 20  0  0  1  0  0  0  0  0999 V2000
   11.7812  -17.4780   15.8752 N   0  0  0  0  0  0  0  0  0  0  0  0
   10.8566  -17.8043   16.9373 C   0  0  0  0  0  0  0  0  0  0  0  0
   11.1666  -16.9472   18.1157 C   0  0  0  0  0  0  0  0  0  0  0  0
   12.3394  -16.6144   18.4054 O   0  0  0  0  0  0  0  0  0  0  0  0
    7.3936  -12.0683   19.7492 N   0  0  0  0  0  0  0  0  0  0  0  0
    7.4790  -13.4703   19.8155 C   0  0  0  0  0  0  0  0  0  0  0  0
    6.4848  -14.1738   20.1127 O   0  0  0  0  0  0  0  0  0  0  0  0
    8.7603  -14.1426   19.5317 C   0  0  0  0  0  0  0  0  0  0  0  0
    9.1318  -15.1072   20.6448 C   0  0  0  0  0  0  0  0  0  0  0  0
   10.4268  -15.8050   20.2068 C   0  0  2  0  0  0  0  0  0  0  0  0
   10.1466  -16.4619   18.9739 N   0  0  0  0  0  0  0  0  0  0  0  0
   10.9006  -16.6866   21.2770 C   0  0  0  0  0  0  0  0  0  0  0  0
   10.4790  -17.8614   21.3796 O   0  0  0  0  0  0  0  0  0  0  0  0
   14.3129  -18.0347   24.5059 C   0  0  0  0  0  0  0  0  0  0  0  0
   13.8019  -17.0790   23.4846 C   0  0  1  0  0  0  0  0  0  0  0  0
   14.4285  -17.3105   22.2405 O   0  0  0  0  0  0  0  0  0  0  0  0
   12.3170  -17.1868   23.2357 C   0  0  2  0  0  0  0  0  0  0  0  0
   11.8441  -16.2728   22.2403 N   0  0  0  0  0  0  0  0  0  0  0  0
   11.5921  -17.0586   24.5228 C   0  0  0  0  0  0  0  0  0  0  0  0
   11.1312  -15.9451   24.8906 O   0  0  0  0  0  0  0  0  0  0  0  0
   11.3872  -18.1340   25.3715 O   0  0  0  0  0  0  0  0  0  0  0  0
  2  1  1  0
  2  3  1  0
  3  4  2  0
  3 11  1  0
  6  5  1  0
  7  6  2  0
  8  6  1  0
  9  8  1  0
 10 12  1  0
 10  9  1  1
 11 10  1  0
 12 18  1  0
 13 12  2  0
 15 14  1  1
 15 16  1  0
 17 19  1  0
 17 15  1  0
 17 18  1  6
 19 21  1  0
 20 19  2  0
M  END
$$$$
