GQT.pdb
     RDKit          3D

 21 20  0  0  1  0  0  0  0  0999 V2000
    4.3749  -19.2827   20.6832 N   0  0  0  0  0  0  0  0  0  0  0  0
    4.1917  -17.9633   21.2444 C   0  0  0  0  0  0  0  0  0  0  0  0
    5.5113  -17.2725   21.2722 C   0  0  0  0  0  0  0  0  0  0  0  0
    6.5930  -17.9047   21.2539 O   0  0  0  0  0  0  0  0  0  0  0  0
    8.0362  -13.1357   18.5004 N   0  0  0  0  0  0  0  0  0  0  0  0
    8.6747  -13.3870   19.7277 C   0  0  0  0  0  0  0  0  0  0  0  0
    9.8243  -13.8846   19.7782 O   0  0  0  0  0  0  0  0  0  0  0  0
    7.9893  -13.0632   20.9924 C   0  0  0  0  0  0  0  0  0  0  0  0
    6.6216  -13.7208   21.0589 C   0  0  0  0  0  0  0  0  0  0  0  0
    6.8560  -15.1804   21.4715 C   0  0  2  0  0  0  0  0  0  0  0  0
    5.6119  -15.8584   21.3210 N   0  0  0  0  0  0  0  0  0  0  0  0
    7.4204  -15.2284   22.8229 C   0  0  0  0  0  0  0  0  0  0  0  0
    6.7839  -14.7811   23.8044 O   0  0  0  0  0  0  0  0  0  0  0  0
    7.1008  -16.9856   25.3842 C   0  0  0  0  0  0  0  0  0  0  0  0
    8.5721  -17.0767   25.1730 C   0  0  1  0  0  0  0  0  0  0  0  0
    8.8858  -18.2134   24.3959 O   0  0  0  0  0  0  0  0  0  0  0  0
    9.1592  -15.8923   24.4442 C   0  0  2  0  0  0  0  0  0  0  0  0
    8.6930  -15.7719   23.0959 N   0  0  0  0  0  0  0  0  0  0  0  0
   10.6382  -15.9414   24.5374 C   0  0  0  0  0  0  0  0  0  0  0  0
   11.3436  -16.0239   23.4966 O   0  0  0  0  0  0  0  0  0  0  0  0
   11.3091  -15.8999   25.7486 O   0  0  0  0  0  0  0  0  0  0  0  0
  2  1  1  0
  2  3  1  0
  3  4  2  0
  3 11  1  0
  6  5  1  0
  7  6  2  0
  8  6  1  0
  9  8  1  0
 10 12  1  0
 10  9  1  1
 11 10  1  0
 12 18  1  0
 13 12  2  0
 15 14  1  6
 15 16  1  0
 17 19  1  0
 17 15  1  0
 17 18  1  6
 19 21  1  0
 20 19  2  0
M  END
$$$$
