GQT.pdb
     RDKit          3D

 21 20  0  0  1  0  0  0  0  0999 V2000
    7.8847  -19.2244   17.0480 N   0  0  0  0  0  0  0  0  0  0  0  0
    7.0943  -18.5791   18.0718 C   0  0  0  0  0  0  0  0  0  0  0  0
    7.9447  -17.5684   18.7607 C   0  0  0  0  0  0  0  0  0  0  0  0
    9.1962  -17.6271   18.7392 O   0  0  0  0  0  0  0  0  0  0  0  0
    9.8122  -11.8442   19.8894 N   0  0  0  0  0  0  0  0  0  0  0  0
    8.7331  -12.7419   19.8059 C   0  0  0  0  0  0  0  0  0  0  0  0
    8.2658  -13.1034   18.7001 O   0  0  0  0  0  0  0  0  0  0  0  0
    8.1270  -13.2788   21.0381 C   0  0  0  0  0  0  0  0  0  0  0  0
    7.2334  -14.4695   20.7360 C   0  0  0  0  0  0  0  0  0  0  0  0
    8.1585  -15.6114   20.2935 C   0  0  2  0  0  0  0  0  0  0  0  0
    7.3797  -16.4835   19.4791 N   0  0  0  0  0  0  0  0  0  0  0  0
    8.7598  -16.2456   21.4697 C   0  0  0  0  0  0  0  0  0  0  0  0
    8.0468  -16.7744   22.3532 O   0  0  0  0  0  0  0  0  0  0  0  0
   12.2604  -18.9044   23.4369 C   0  0  0  0  0  0  0  0  0  0  0  0
   11.6806  -18.1117   22.3175 C   0  0  1  0  0  0  0  0  0  0  0  0
   10.9730  -18.9564   21.4344 O   0  0  0  0  0  0  0  0  0  0  0  0
   10.7023  -17.0517   22.7621 C   0  0  2  0  0  0  0  0  0  0  0  0
   10.1542  -16.2982   21.6749 N   0  0  0  0  0  0  0  0  0  0  0  0
   11.3396  -16.1943   23.7902 C   0  0  0  0  0  0  0  0  0  0  0  0
   11.9829  -15.1637   23.4563 O   0  0  0  0  0  0  0  0  0  0  0  0
   11.2632  -16.4751   25.1446 O   0  0  0  0  0  0  0  0  0  0  0  0
  2  1  1  0
  2  3  1  0
  3  4  2  0
  3 11  1  0
  6  5  1  0
  7  6  2  0
  8  6  1  0
  9  8  1  0
 10 12  1  0
 10  9  1  1
 11 10  1  0
 12 18  1  0
 13 12  2  0
 15 14  1  1
 15 16  1  0
 17 19  1  0
 17 15  1  0
 17 18  1  6
 19 21  1  0
 20 19  2  0
M  END
$$$$
