GQT.pdb
     RDKit          3D

 21 20  0  0  1  0  0  0  0  0999 V2000
    7.9223  -12.9805   18.0734 N   0  0  0  0  0  0  0  0  0  0  0  0
    8.8380  -13.5111   19.0580 C   0  0  0  0  0  0  0  0  0  0  0  0
    8.0574  -13.9219   20.2585 C   0  0  0  0  0  0  0  0  0  0  0  0
    6.9374  -13.4270   20.5244 O   0  0  0  0  0  0  0  0  0  0  0  0
    4.8946  -18.6128   23.6121 N   0  0  0  0  0  0  0  0  0  0  0  0
    6.1241  -18.4021   22.9630 C   0  0  0  0  0  0  0  0  0  0  0  0
    6.4590  -19.0753   21.9598 O   0  0  0  0  0  0  0  0  0  0  0  0
    7.0509  -17.3695   23.4619 C   0  0  0  0  0  0  0  0  0  0  0  0
    7.9676  -16.8750   22.3562 C   0  0  0  0  0  0  0  0  0  0  0  0
    7.7872  -15.3525   22.2846 C   0  0  2  0  0  0  0  0  0  0  0  0
    8.5435  -14.8979   21.1659 N   0  0  0  0  0  0  0  0  0  0  0  0
    8.1642  -14.7485   23.5653 C   0  0  0  0  0  0  0  0  0  0  0  0
    9.3655  -14.5412   23.8525 O   0  0  0  0  0  0  0  0  0  0  0  0
    6.9448  -12.1845   27.6119 C   0  0  0  0  0  0  0  0  0  0  0  0
    6.5043  -12.9853   26.4362 C   0  0  1  0  0  0  0  0  0  0  0  0
    5.9249  -12.1448   25.4606 O   0  0  0  0  0  0  0  0  0  0  0  0
    7.6251  -13.7235   25.7452 C   0  0  2  0  0  0  0  0  0  0  0  0
    7.2134  -14.3702   24.5360 N   0  0  0  0  0  0  0  0  0  0  0  0
    8.2652  -14.6553   26.7046 C   0  0  0  0  0  0  0  0  0  0  0  0
    8.1441  -15.9017   26.5654 O   0  0  0  0  0  0  0  0  0  0  0  0
    9.0149  -14.2142   27.7827 O   0  0  0  0  0  0  0  0  0  0  0  0
  2  1  1  0
  2  3  1  0
  3  4  2  0
  3 11  1  0
  6  5  1  0
  7  6  2  0
  8  6  1  0
  9  8  1  0
 10 12  1  0
 10  9  1  1
 11 10  1  0
 12 18  1  0
 13 12  2  0
 15 14  1  1
 15 16  1  0
 17 19  1  0
 17 15  1  0
 17 18  1  6
 19 21  1  0
 20 19  2  0
M  END
$$$$
