GQT.pdb
     RDKit          3D

 21 20  0  0  1  0  0  0  0  0999 V2000
   11.1022  -18.2385   16.2614 N   0  0  0  0  0  0  0  0  0  0  0  0
   10.0854  -18.1544   17.2853 C   0  0  0  0  0  0  0  0  0  0  0  0
   10.5503  -17.2090   18.3386 C   0  0  0  0  0  0  0  0  0  0  0  0
   11.7668  -17.0023   18.5562 O   0  0  0  0  0  0  0  0  0  0  0  0
    7.3295  -11.9058   18.6800 N   0  0  0  0  0  0  0  0  0  0  0  0
    7.6540  -12.8482   19.6719 C   0  0  0  0  0  0  0  0  0  0  0  0
    7.0518  -12.8760   20.7712 O   0  0  0  0  0  0  0  0  0  0  0  0
    8.7245  -13.8325   19.4281 C   0  0  0  0  0  0  0  0  0  0  0  0
    8.8881  -14.7694   20.6126 C   0  0  0  0  0  0  0  0  0  0  0  0
   10.0509  -15.7108   20.2701 C   0  0  2  0  0  0  0  0  0  0  0  0
    9.6365  -16.4914   19.1525 N   0  0  0  0  0  0  0  0  0  0  0  0
   10.4247  -16.4874   21.4552 C   0  0  0  0  0  0  0  0  0  0  0  0
    9.7003  -17.4211   21.8698 O   0  0  0  0  0  0  0  0  0  0  0  0
   11.0420  -19.2009   22.2253 C   0  0  0  0  0  0  0  0  0  0  0  0
   12.2521  -18.5296   22.7754 C   0  0  1  0  0  0  0  0  0  0  0  0
   13.2593  -18.4503   21.7888 O   0  0  0  0  0  0  0  0  0  0  0  0
   12.0070  -17.1153   23.2427 C   0  0  2  0  0  0  0  0  0  0  0  0
   11.6029  -16.2349   22.1884 N   0  0  0  0  0  0  0  0  0  0  0  0
   13.2003  -16.6250   23.9735 C   0  0  0  0  0  0  0  0  0  0  0  0
   13.9165  -15.7084   23.4894 O   0  0  0  0  0  0  0  0  0  0  0  0
   13.5832  -17.1381   25.2019 O   0  0  0  0  0  0  0  0  0  0  0  0
  2  1  1  0
  2  3  1  0
  3  4  2  0
  3 11  1  0
  6  5  1  0
  7  6  2  0
  8  6  1  0
  9  8  1  0
 10 12  1  0
 10  9  1  1
 11 10  1  0
 12 18  1  0
 13 12  2  0
 15 14  1  6
 15 16  1  0
 17 19  1  0
 17 15  1  0
 17 18  1  6
 19 21  1  0
 20 19  2  0
M  END
$$$$
