GQT.pdb
     RDKit          3D

 21 20  0  0  1  0  0  0  0  0999 V2000
    7.5162  -13.1290   18.3388 N   0  0  0  0  0  0  0  0  0  0  0  0
    8.3923  -12.8614   19.4569 C   0  0  0  0  0  0  0  0  0  0  0  0
    8.1229  -13.8680   20.5217 C   0  0  0  0  0  0  0  0  0  0  0  0
    6.9882  -14.3733   20.6870 O   0  0  0  0  0  0  0  0  0  0  0  0
   11.2563  -18.6606   21.9806 N   0  0  0  0  0  0  0  0  0  0  0  0
   10.3838  -18.2739   20.9479 C   0  0  0  0  0  0  0  0  0  0  0  0
   10.2900  -18.9357   19.8873 O   0  0  0  0  0  0  0  0  0  0  0  0
    9.5539  -17.0648   21.1015 C   0  0  0  0  0  0  0  0  0  0  0  0
    9.8731  -16.3418   22.3988 C   0  0  0  0  0  0  0  0  0  0  0  0
    8.8812  -15.1755   22.5067 C   0  0  2  0  0  0  0  0  0  0  0  0
    9.1406  -14.3080   21.4065 N   0  0  0  0  0  0  0  0  0  0  0  0
    8.9988  -14.5458   23.8245 C   0  0  0  0  0  0  0  0  0  0  0  0
    9.9918  -13.8407   24.1167 O   0  0  0  0  0  0  0  0  0  0  0  0
    6.9054  -11.8939   25.6232 C   0  0  0  0  0  0  0  0  0  0  0  0
    6.9764  -13.1464   26.4256 C   0  0  1  0  0  0  0  0  0  0  0  0
    5.8239  -13.9330   26.2085 O   0  0  0  0  0  0  0  0  0  0  0  0
    8.1565  -14.0240   26.0854 C   0  0  2  0  0  0  0  0  0  0  0  0
    8.0177  -14.6929   24.8271 N   0  0  0  0  0  0  0  0  0  0  0  0
    8.4134  -14.9592   27.2068 C   0  0  0  0  0  0  0  0  0  0  0  0
    8.3209  -16.2043   27.0371 O   0  0  0  0  0  0  0  0  0  0  0  0
    8.7617  -14.5228   28.4746 O   0  0  0  0  0  0  0  0  0  0  0  0
  2  1  1  0
  2  3  1  0
  3  4  2  0
  3 11  1  0
  6  5  1  0
  7  6  2  0
  8  6  1  0
  9  8  1  0
 10 12  1  0
 10  9  1  1
 11 10  1  0
 12 18  1  0
 13 12  2  0
 15 14  1  6
 15 16  1  0
 17 19  1  0
 17 15  1  0
 17 18  1  6
 19 21  1  0
 20 19  2  0
M  END
$$$$
