GQT.pdb
     RDKit          3D

 21 20  0  0  1  0  0  0  0  0999 V2000
    4.7661  -19.9451   22.1588 N   0  0  0  0  0  0  0  0  0  0  0  0
    4.9909  -19.3954   23.4766 C   0  0  0  0  0  0  0  0  0  0  0  0
    5.9464  -18.2584   23.3593 C   0  0  0  0  0  0  0  0  0  0  0  0
    6.5757  -18.0255   22.3011 O   0  0  0  0  0  0  0  0  0  0  0  0
    6.1802  -13.1157   27.0215 N   0  0  0  0  0  0  0  0  0  0  0  0
    7.2111  -12.9373   26.0819 C   0  0  0  0  0  0  0  0  0  0  0  0
    7.8137  -11.8436   25.9704 O   0  0  0  0  0  0  0  0  0  0  0  0
    7.6034  -14.0527   25.2010 C   0  0  0  0  0  0  0  0  0  0  0  0
    6.6699  -15.2392   25.3697 C   0  0  0  0  0  0  0  0  0  0  0  0
    7.1285  -16.3048   24.3648 C   0  0  2  0  0  0  0  0  0  0  0  0
    6.1941  -17.3776   24.4434 N   0  0  0  0  0  0  0  0  0  0  0  0
    8.5176  -16.6807   24.6411 C   0  0  0  0  0  0  0  0  0  0  0  0
    8.7989  -17.4784   25.5648 O   0  0  0  0  0  0  0  0  0  0  0  0
   13.0169  -17.2207   22.6351 C   0  0  0  0  0  0  0  0  0  0  0  0
   11.7099  -16.5083   22.6779 C   0  0  1  0  0  0  0  0  0  0  0  0
   10.9469  -16.8158   21.5301 O   0  0  0  0  0  0  0  0  0  0  0  0
   10.8528  -16.8750   23.8650 C   0  0  2  0  0  0  0  0  0  0  0  0
    9.6038  -16.1757   23.8965 N   0  0  0  0  0  0  0  0  0  0  0  0
   11.6381  -16.7024   25.1107 C   0  0  0  0  0  0  0  0  0  0  0  0
   11.6430  -15.5982   25.7176 O   0  0  0  0  0  0  0  0  0  0  0  0
   12.3927  -17.7249   25.6621 O   0  0  0  0  0  0  0  0  0  0  0  0
  2  1  1  0
  2  3  1  0
  3  4  2  0
  3 11  1  0
  6  5  1  0
  7  6  2  0
  8  6  1  0
  9  8  1  0
 10 12  1  0
 10  9  1  1
 11 10  1  0
 12 18  1  0
 13 12  2  0
 15 14  1  6
 15 16  1  0
 17 19  1  0
 17 15  1  0
 17 18  1  1
 19 21  1  0
 20 19  2  0
M  END
$$$$
