GQT.pdb
     RDKit          3D

 21 20  0  0  1  0  0  0  0  0999 V2000
    7.0491  -18.8333   16.5192 N   0  0  0  0  0  0  0  0  0  0  0  0
    6.5045  -17.9144   17.4930 C   0  0  0  0  0  0  0  0  0  0  0  0
    7.6102  -17.0589   18.0078 C   0  0  0  0  0  0  0  0  0  0  0  0
    8.8153  -17.3621   17.8468 O   0  0  0  0  0  0  0  0  0  0  0  0
   11.4638  -13.3896   19.7042 N   0  0  0  0  0  0  0  0  0  0  0  0
   10.2826  -13.0701   19.0113 C   0  0  0  0  0  0  0  0  0  0  0  0
   10.2440  -13.0474   17.7584 O   0  0  0  0  0  0  0  0  0  0  0  0
    9.0538  -12.7524   19.7616 C   0  0  0  0  0  0  0  0  0  0  0  0
    7.8899  -13.6106   19.2964 C   0  0  0  0  0  0  0  0  0  0  0  0
    8.3927  -15.0606   19.2803 C   0  0  2  0  0  0  0  0  0  0  0  0
    7.3550  -15.8525   18.7091 N   0  0  0  0  0  0  0  0  0  0  0  0
    8.7951  -15.4601   20.6315 C   0  0  0  0  0  0  0  0  0  0  0  0
    8.1035  -15.1510   21.6289 O   0  0  0  0  0  0  0  0  0  0  0  0
    8.8867  -18.7336   22.3207 C   0  0  0  0  0  0  0  0  0  0  0  0
   10.2532  -18.1434   22.3661 C   0  0  1  0  0  0  0  0  0  0  0  0
   11.0440  -18.6581   21.3155 O   0  0  0  0  0  0  0  0  0  0  0  0
   10.2755  -16.6418   22.2144 C   0  0  2  0  0  0  0  0  0  0  0  0
    9.9657  -16.2043   20.8867 N   0  0  0  0  0  0  0  0  0  0  0  0
   11.5734  -16.1173   22.7028 C   0  0  0  0  0  0  0  0  0  0  0  0
   12.4038  -15.6131   21.9004 O   0  0  0  0  0  0  0  0  0  0  0  0
   11.9346  -16.1531   24.0396 O   0  0  0  0  0  0  0  0  0  0  0  0
  2  1  1  0
  2  3  1  0
  3  4  2  0
  3 11  1  0
  6  5  1  0
  7  6  2  0
  8  6  1  0
  9  8  1  0
 10 12  1  0
 10  9  1  1
 11 10  1  0
 12 18  1  0
 13 12  2  0
 15 14  1  6
 15 16  1  0
 17 19  1  0
 17 15  1  0
 17 18  1  6
 19 21  1  0
 20 19  2  0
M  END
$$$$
