GRC.pdb
     RDKit          3D

 22 21  0  0  1  0  0  0  0  0999 V2000
   25.0318  -26.3808  -17.0228 N   0  0  0  0  0  0  0  0  0  0  0  0
   25.7203  -25.7852  -15.8848 C   0  0  0  0  0  0  0  0  0  0  0  0
   25.3755  -24.3446  -15.7435 C   0  0  0  0  0  0  0  0  0  0  0  0
   24.7276  -23.8168  -16.6837 O   0  0  0  0  0  0  0  0  0  0  0  0
   25.5812  -19.4944   -8.9463 N   0  0  0  0  0  0  0  0  0  0  0  0
   24.7068  -20.4855   -9.4553 C   0  0  0  0  0  0  0  0  0  0  0  0
   23.6282  -20.7754   -8.7847 N   0  0  0  0  0  0  0  0  0  0  0  0
   25.0319  -21.1297  -10.6752 N   0  0  0  0  0  0  0  0  0  0  0  0
   26.2920  -21.7728  -10.8239 C   0  0  0  0  0  0  0  0  0  0  0  0
   26.4629  -22.3881  -12.2182 C   0  0  0  0  0  0  0  0  0  0  0  0
   25.4649  -21.6859  -13.1043 C   0  0  0  0  0  0  0  0  0  0  0  0
   25.4715  -22.2190  -14.5134 C   0  0  2  0  0  0  0  0  0  0  0  0
   25.7677  -23.6133  -14.5915 N   0  0  0  0  0  0  0  0  0  0  0  0
   26.5745  -21.4916  -15.2281 C   0  0  0  0  0  0  0  0  0  0  0  0
   27.7896  -21.7616  -15.0362 O   0  0  0  0  0  0  0  0  0  0  0  0
   22.9880  -21.5449   -9.0611 N   0  0  0  0  0  0  0  0  0  0  0  0
   26.1840  -20.4718  -16.1413 C   0  0  1  0  0  0  0  0  0  0  0  0
   27.1607  -19.8457  -17.0095 C   0  0  0  0  0  0  0  0  0  0  0  0
   27.6487  -20.8466  -18.0546 S   0  0  0  0  0  0  0  0  0  0  0  0
   28.8444  -19.9704  -19.1120 C   0  0  0  0  0  0  0  0  0  0  0  0
   26.5138  -18.6911  -17.6719 O   0  0  0  0  0  0  0  0  0  0  0  0
   25.1535  -18.4112  -17.5177 O   0  0  0  0  0  0  0  0  0  0  0  0
  1  2  1  0
  2  3  1  0
  3  4  2  0
  3 13  1  0
  6  5  1  0
  7  6  2  0
  8  6  1  0
  9  8  1  0
 10  9  1  0
 10 11  1  0
 12 11  1  1
 12 14  1  0
 13 12  1  0
 14 15  2  0
 14 16  1  0
 16 17  1  0
 17 20  1  0
 17 18  1  1
 18 19  1  0
 20 21  1  0
 22 20  2  0
M  END
$$$$
