GRC.pdb
     RDKit          3D

 22 21  0  0  1  0  0  0  0  0999 V2000
   22.8701  -21.1811  -16.5312 N   0  0  0  0  0  0  0  0  0  0  0  0
   23.8101  -20.2058  -15.9936 C   0  0  0  0  0  0  0  0  0  0  0  0
   24.6484  -20.8045  -14.9199 C   0  0  0  0  0  0  0  0  0  0  0  0
   24.0897  -21.6273  -14.1499 O   0  0  0  0  0  0  0  0  0  0  0  0
   31.5956  -21.0554  -10.1486 N   0  0  0  0  0  0  0  0  0  0  0  0
   31.8543  -21.9626  -11.2051 C   0  0  0  0  0  0  0  0  0  0  0  0
   32.6536  -22.9681  -10.9875 N   0  0  0  0  0  0  0  0  0  0  0  0
   31.2375  -21.7486  -12.4630 N   0  0  0  0  0  0  0  0  0  0  0  0
   30.4022  -20.6141  -12.6597 C   0  0  0  0  0  0  0  0  0  0  0  0
   28.9241  -20.9378  -12.4102 C   0  0  0  0  0  0  0  0  0  0  0  0
   28.1858  -20.4684  -13.6385 C   0  0  0  0  0  0  0  0  0  0  0  0
   26.7220  -20.8227  -13.6005 C   0  0  2  0  0  0  0  0  0  0  0  0
   26.0171  -20.4519  -14.7852 N   0  0  0  0  0  0  0  0  0  0  0  0
   26.1318  -20.0312  -12.4684 C   0  0  0  0  0  0  0  0  0  0  0  0
   25.7681  -18.8333  -12.6063 O   0  0  0  0  0  0  0  0  0  0  0  0
   32.8544  -23.6887  -11.7078 N   0  0  0  0  0  0  0  0  0  0  0  0
   26.0000  -20.6996  -11.2185 C   0  0  2  0  0  0  0  0  0  0  0  0
   25.1691  -20.1444  -10.1692 C   0  0  0  0  0  0  0  0  0  0  0  0
   23.6938  -20.3287  -10.5182 S   0  0  0  0  0  0  0  0  0  0  0  0
   22.7338  -19.8028   -9.0632 C   0  0  0  0  0  0  0  0  0  0  0  0
   25.4872  -20.8513   -8.9084 O   0  0  0  0  0  0  0  0  0  0  0  0
   25.9065  -20.1733   -7.7608 O   0  0  0  0  0  0  0  0  0  0  0  0
  1  2  1  0
  2  3  1  0
  3  4  2  0
  3 13  1  0
  6  5  1  0
  7  6  2  0
  8  6  1  0
  9  8  1  0
 10  9  1  0
 10 11  1  0
 12 11  1  6
 12 14  1  0
 13 12  1  0
 14 15  2  0
 14 16  1  0
 16 17  1  0
 17 20  1  0
 17 18  1  6
 18 19  1  0
 20 21  1  0
 22 20  2  0
M  END
$$$$
