GRC.pdb
     RDKit          3D

 22 21  0  0  1  0  0  0  0  0999 V2000
   18.7060  -19.3433  -15.3503 N   0  0  0  0  0  0  0  0  0  0  0  0
   19.4878  -18.1181  -15.4591 C   0  0  0  0  0  0  0  0  0  0  0  0
   20.8480  -18.2973  -14.8832 C   0  0  0  0  0  0  0  0  0  0  0  0
   21.3042  -17.3526  -14.1892 O   0  0  0  0  0  0  0  0  0  0  0  0
   23.6585  -20.8212   -9.6183 N   0  0  0  0  0  0  0  0  0  0  0  0
   24.9110  -21.0465  -10.2400 C   0  0  0  0  0  0  0  0  0  0  0  0
   25.9976  -20.8810   -9.5407 N   0  0  0  0  0  0  0  0  0  0  0  0
   24.9430  -21.4435  -11.6001 N   0  0  0  0  0  0  0  0  0  0  0  0
   24.7534  -20.4764  -12.6260 C   0  0  0  0  0  0  0  0  0  0  0  0
   24.8320  -21.0991  -14.0252 C   0  0  0  0  0  0  0  0  0  0  0  0
   23.4393  -21.0077  -14.5965 C   0  0  0  0  0  0  0  0  0  0  0  0
   22.9197  -19.5938  -14.6224 C   0  0  2  0  0  0  0  0  0  0  0  0
   21.5845  -19.4886  -15.1162 N   0  0  0  0  0  0  0  0  0  0  0  0
   23.8047  -18.8428  -15.5760 C   0  0  0  0  0  0  0  0  0  0  0  0
   23.6525  -18.9084  -16.8244 O   0  0  0  0  0  0  0  0  0  0  0  0
   26.9465  -20.9950   -9.9469 N   0  0  0  0  0  0  0  0  0  0  0  0
   24.8349  -18.0454  -15.0024 C   0  0  2  0  0  0  0  0  0  0  0  0
   25.6596  -17.1944  -15.8364 C   0  0  0  0  0  0  0  0  0  0  0  0
   26.4867  -16.2518  -14.9649 S   0  0  0  0  0  0  0  0  0  0  0  0
   27.5880  -15.3256  -16.0805 C   0  0  0  0  0  0  0  0  0  0  0  0
   26.5513  -18.0617  -16.6384 O   0  0  0  0  0  0  0  0  0  0  0  0
   26.9588  -17.7178  -17.9300 O   0  0  0  0  0  0  0  0  0  0  0  0
  1  2  1  0
  2  3  1  0
  3  4  2  0
  3 13  1  0
  6  5  1  0
  7  6  2  0
  8  6  1  0
  9  8  1  0
 10  9  1  0
 10 11  1  0
 12 11  1  6
 12 14  1  0
 13 12  1  0
 14 15  2  0
 14 16  1  0
 16 17  1  0
 17 20  1  0
 17 18  1  1
 18 19  1  0
 20 21  1  0
 22 20  2  0
M  END
$$$$
