GRC.pdb
     RDKit          3D

 22 21  0  0  1  0  0  0  0  0999 V2000
   17.9289  -23.3828  -12.3956 N   0  0  0  0  0  0  0  0  0  0  0  0
   18.3795  -23.1570  -13.7631 C   0  0  0  0  0  0  0  0  0  0  0  0
   19.4741  -22.1501  -13.8074 C   0  0  0  0  0  0  0  0  0  0  0  0
   19.4287  -21.2185  -12.9635 O   0  0  0  0  0  0  0  0  0  0  0  0
   24.8731  -20.3663  -10.8212 N   0  0  0  0  0  0  0  0  0  0  0  0
   25.6021  -21.4750  -11.3166 C   0  0  0  0  0  0  0  0  0  0  0  0
   26.7581  -21.7543  -10.7850 N   0  0  0  0  0  0  0  0  0  0  0  0
   25.0527  -22.2439  -12.3729 N   0  0  0  0  0  0  0  0  0  0  0  0
   24.2160  -21.6230  -13.3415 C   0  0  0  0  0  0  0  0  0  0  0  0
   23.6732  -22.6299  -14.3629 C   0  0  0  0  0  0  0  0  0  0  0  0
   22.8615  -21.8239  -15.3456 C   0  0  0  0  0  0  0  0  0  0  0  0
   21.5823  -21.3024  -14.7444 C   0  0  2  0  0  0  0  0  0  0  0  0
   20.5165  -22.2519  -14.7661 N   0  0  0  0  0  0  0  0  0  0  0  0
   21.1608  -20.1444  -15.6034 C   0  0  0  0  0  0  0  0  0  0  0  0
   20.6107  -20.3070  -16.7246 O   0  0  0  0  0  0  0  0  0  0  0  0
   27.3437  -22.5495  -11.1063 N   0  0  0  0  0  0  0  0  0  0  0  0
   21.4130  -18.8404  -15.0912 C   0  0  2  0  0  0  0  0  0  0  0  0
   20.9855  -17.6651  -15.8230 C   0  0  0  0  0  0  0  0  0  0  0  0
   21.2695  -16.4077  -15.0042 S   0  0  0  0  0  0  0  0  0  0  0  0
   20.6763  -14.9912  -15.9826 C   0  0  0  0  0  0  0  0  0  0  0  0
   21.7324  -17.6218  -17.1000 O   0  0  0  0  0  0  0  0  0  0  0  0
   23.0205  -18.1483  -17.2267 O   0  0  0  0  0  0  0  0  0  0  0  0
  1  2  1  0
  2  3  1  0
  3  4  2  0
  3 13  1  0
  6  5  1  0
  7  6  2  0
  8  6  1  0
  9  8  1  0
 10  9  1  0
 10 11  1  0
 12 11  1  6
 12 14  1  0
 13 12  1  0
 14 15  2  0
 14 16  1  0
 16 17  1  0
 17 20  1  0
 17 18  1  1
 18 19  1  0
 20 21  1  0
 22 20  2  0
M  END
$$$$
