GRC.pdb
     RDKit          3D

 22 21  0  0  1  0  0  0  0  0999 V2000
   25.4719  -13.9996  -16.3369 N   0  0  0  0  0  0  0  0  0  0  0  0
   26.3595  -14.8943  -15.6049 C   0  0  0  0  0  0  0  0  0  0  0  0
   25.6471  -16.1318  -15.1865 C   0  0  0  0  0  0  0  0  0  0  0  0
   24.4539  -16.0050  -14.8091 O   0  0  0  0  0  0  0  0  0  0  0  0
   22.6567  -23.1256  -14.3547 N   0  0  0  0  0  0  0  0  0  0  0  0
   21.9808  -21.8822  -14.4139 C   0  0  0  0  0  0  0  0  0  0  0  0
   20.8696  -21.7396  -13.7491 N   0  0  0  0  0  0  0  0  0  0  0  0
   22.5329  -20.8349  -15.1929 N   0  0  0  0  0  0  0  0  0  0  0  0
   23.6743  -21.0809  -16.0055 C   0  0  0  0  0  0  0  0  0  0  0  0
   24.9825  -20.9403  -15.2178 C   0  0  0  0  0  0  0  0  0  0  0  0
   25.6526  -19.6980  -15.7490 C   0  0  0  0  0  0  0  0  0  0  0  0
   25.6020  -18.5537  -14.7704 C   0  0  2  0  0  0  0  0  0  0  0  0
   26.3002  -17.3921  -15.2186 N   0  0  0  0  0  0  0  0  0  0  0  0
   26.2972  -19.0367  -13.5295 C   0  0  0  0  0  0  0  0  0  0  0  0
   27.5499  -19.1497  -13.4641 O   0  0  0  0  0  0  0  0  0  0  0  0
   20.3852  -20.8254  -13.6596 N   0  0  0  0  0  0  0  0  0  0  0  0
   25.4710  -19.3658  -12.4181 C   0  0  2  0  0  0  0  0  0  0  0  0
   26.0508  -19.8877  -11.1969 C   0  0  0  0  0  0  0  0  0  0  0  0
   24.9878  -19.9604  -10.1030 S   0  0  0  0  0  0  0  0  0  0  0  0
   25.6937  -20.9399   -8.7401 C   0  0  0  0  0  0  0  0  0  0  0  0
   26.5829  -21.2391  -11.4817 O   0  0  0  0  0  0  0  0  0  0  0  0
   27.8656  -21.6313  -11.0901 O   0  0  0  0  0  0  0  0  0  0  0  0
  1  2  1  0
  2  3  1  0
  3  4  2  0
  3 13  1  0
  6  5  1  0
  7  6  2  0
  8  6  1  0
  9  8  1  0
 10  9  1  0
 10 11  1  0
 12 11  1  6
 12 14  1  0
 13 12  1  0
 14 15  2  0
 14 16  1  0
 16 17  1  0
 17 20  1  0
 17 18  1  1
 18 19  1  0
 20 21  1  0
 22 20  2  0
M  END
$$$$
