GRC.pdb
     RDKit          3D

 22 21  0  0  1  0  0  0  0  0999 V2000
   18.1298  -20.7566  -12.3114 N   0  0  0  0  0  0  0  0  0  0  0  0
   19.1798  -19.9683  -12.9440 C   0  0  0  0  0  0  0  0  0  0  0  0
   20.4876  -20.6759  -12.8901 C   0  0  0  0  0  0  0  0  0  0  0  0
   20.8343  -21.1530  -11.7791 O   0  0  0  0  0  0  0  0  0  0  0  0
   27.4018  -24.0217  -16.1215 N   0  0  0  0  0  0  0  0  0  0  0  0
   26.3557  -24.9492  -16.3483 C   0  0  0  0  0  0  0  0  0  0  0  0
   26.6072  -26.2215  -16.2257 N   0  0  0  0  0  0  0  0  0  0  0  0
   25.0711  -24.4653  -16.7011 N   0  0  0  0  0  0  0  0  0  0  0  0
   24.7820  -23.0766  -16.5940 C   0  0  0  0  0  0  0  0  0  0  0  0
   24.3857  -22.6799  -15.1667 C   0  0  0  0  0  0  0  0  0  0  0  0
   23.0695  -21.9542  -15.2905 C   0  0  0  0  0  0  0  0  0  0  0  0
   22.5527  -21.4690  -13.9611 C   0  0  2  0  0  0  0  0  0  0  0  0
   21.2956  -20.7986  -14.0511 N   0  0  0  0  0  0  0  0  0  0  0  0
   23.5550  -20.4655  -13.4664 C   0  0  0  0  0  0  0  0  0  0  0  0
   23.4398  -19.2330  -13.6983 O   0  0  0  0  0  0  0  0  0  0  0  0
   25.8700  -26.9478  -16.3115 N   0  0  0  0  0  0  0  0  0  0  0  0
   24.6537  -20.9723  -12.7165 C   0  0  2  0  0  0  0  0  0  0  0  0
   25.6697  -20.0773  -12.2001 C   0  0  0  0  0  0  0  0  0  0  0  0
   25.8739  -20.3243  -10.7070 S   0  0  0  0  0  0  0  0  0  0  0  0
   26.3478  -22.0721  -10.5173 C   0  0  0  0  0  0  0  0  0  0  0  0
   26.9272  -20.3356  -12.9366 O   0  0  0  0  0  0  0  0  0  0  0  0
   28.0590  -19.5310  -12.7811 O   0  0  0  0  0  0  0  0  0  0  0  0
  1  2  1  0
  2  3  1  0
  3  4  2  0
  3 13  1  0
  6  5  1  0
  7  6  2  0
  8  6  1  0
  9  8  1  0
 10  9  1  0
 10 11  1  0
 12 11  1  6
 12 14  1  0
 13 12  1  0
 14 15  2  0
 14 16  1  0
 16 17  1  0
 17 20  1  0
 17 18  1  1
 18 19  1  0
 20 21  1  0
 22 20  2  0
M  END
$$$$
