GRC.pdb
     RDKit          3D

 22 21  0  0  1  0  0  0  0  0999 V2000
   20.9825  -13.8215  -17.0538 N   0  0  0  0  0  0  0  0  0  0  0  0
   19.6540  -13.4538  -16.5806 C   0  0  0  0  0  0  0  0  0  0  0  0
   19.4823  -11.9759  -16.5598 C   0  0  0  0  0  0  0  0  0  0  0  0
   19.6563  -11.3647  -17.6453 O   0  0  0  0  0  0  0  0  0  0  0  0
   12.7894   -8.7133  -13.1598 N   0  0  0  0  0  0  0  0  0  0  0  0
   12.6975   -9.3946  -14.3981 C   0  0  0  0  0  0  0  0  0  0  0  0
   11.5176   -9.6538  -14.8859 N   0  0  0  0  0  0  0  0  0  0  0  0
   13.8889   -9.7726  -15.0662 N   0  0  0  0  0  0  0  0  0  0  0  0
   15.1528   -9.4818  -14.4817 C   0  0  0  0  0  0  0  0  0  0  0  0
   16.3151   -9.8480  -15.4126 C   0  0  0  0  0  0  0  0  0  0  0  0
   17.5741   -9.5539  -14.6363 C   0  0  0  0  0  0  0  0  0  0  0  0
   18.8201   -9.9102  -15.4044 C   0  0  2  0  0  0  0  0  0  0  0  0
   19.1365  -11.3015  -15.3593 N   0  0  0  0  0  0  0  0  0  0  0  0
   19.9466   -9.1783  -14.7321 C   0  0  0  0  0  0  0  0  0  0  0  0
   20.2524   -9.3801  -13.5272 O   0  0  0  0  0  0  0  0  0  0  0  0
   11.3815  -10.1894  -15.7651 N   0  0  0  0  0  0  0  0  0  0  0  0
   20.6617   -8.2354  -15.5234 C   0  0  2  0  0  0  0  0  0  0  0  0
   21.8420   -7.5777  -14.9999 C   0  0  0  0  0  0  0  0  0  0  0  0
   22.7712   -7.1820  -16.1453 S   0  0  0  0  0  0  0  0  0  0  0  0
   23.3294   -8.7251  -16.9342 C   0  0  0  0  0  0  0  0  0  0  0  0
   21.4062   -6.3739  -14.2573 O   0  0  0  0  0  0  0  0  0  0  0  0
   22.1844   -5.7997  -13.2487 O   0  0  0  0  0  0  0  0  0  0  0  0
  1  2  1  0
  2  3  1  0
  3  4  2  0
  3 13  1  0
  6  5  1  0
  7  6  2  0
  8  6  1  0
  9  8  1  0
 10  9  1  0
 10 11  1  0
 12 11  1  1
 12 14  1  0
 13 12  1  0
 14 15  2  0
 14 16  1  0
 16 17  1  0
 17 20  1  0
 17 18  1  1
 18 19  1  0
 20 21  1  0
 22 20  2  0
M  END
$$$$
