GRC.pdb
     RDKit          3D

 22 21  0  0  1  0  0  0  0  0999 V2000
   23.5853  -18.0815  -17.8488 N   0  0  0  0  0  0  0  0  0  0  0  0
   23.4942  -17.9043  -16.4051 C   0  0  0  0  0  0  0  0  0  0  0  0
   23.0374  -19.1541  -15.7394 C   0  0  0  0  0  0  0  0  0  0  0  0
   22.7163  -20.1148  -16.4851 O   0  0  0  0  0  0  0  0  0  0  0  0
   28.0143  -21.1051  -13.8853 N   0  0  0  0  0  0  0  0  0  0  0  0
   27.0079  -22.0983  -13.8018 C   0  0  0  0  0  0  0  0  0  0  0  0
   26.7768  -22.8467  -14.8427 N   0  0  0  0  0  0  0  0  0  0  0  0
   26.2852  -22.2461  -12.5917 N   0  0  0  0  0  0  0  0  0  0  0  0
   24.8729  -22.0764  -12.5835 C   0  0  0  0  0  0  0  0  0  0  0  0
   24.4658  -20.6635  -12.1480 C   0  0  0  0  0  0  0  0  0  0  0  0
   22.9650  -20.6058  -12.2848 C   0  0  0  0  0  0  0  0  0  0  0  0
   22.5233  -20.4528  -13.7170 C   0  0  2  0  0  0  0  0  0  0  0  0
   22.9735  -19.2416  -14.3237 N   0  0  0  0  0  0  0  0  0  0  0  0
   21.0224  -20.4008  -13.6860 C   0  0  0  0  0  0  0  0  0  0  0  0
   20.3957  -19.4742  -13.1074 O   0  0  0  0  0  0  0  0  0  0  0  0
   26.0184  -23.5558  -14.8641 N   0  0  0  0  0  0  0  0  0  0  0  0
   20.3302  -21.4557  -14.3451 C   0  0  2  0  0  0  0  0  0  0  0  0
   18.8873  -21.4233  -14.4746 C   0  0  0  0  0  0  0  0  0  0  0  0
   18.4679  -22.0430  -15.8059 S   0  0  0  0  0  0  0  0  0  0  0  0
   19.3039  -21.0980  -17.1187 C   0  0  0  0  0  0  0  0  0  0  0  0
   18.3074  -22.1905  -13.3496 O   0  0  0  0  0  0  0  0  0  0  0  0
   16.9967  -21.9892  -12.9092 O   0  0  0  0  0  0  0  0  0  0  0  0
  1  2  1  0
  2  3  1  0
  3  4  2  0
  3 13  1  0
  6  5  1  0
  7  6  2  0
  8  6  1  0
  9  8  1  0
 10  9  1  0
 10 11  1  0
 12 11  1  1
 12 14  1  0
 13 12  1  0
 14 15  2  0
 14 16  1  0
 16 17  1  0
 17 20  1  0
 17 18  1  6
 18 19  1  0
 20 21  1  0
 22 20  2  0
M  END
$$$$
