GRC.pdb
     RDKit          3D

 22 21  0  0  1  0  0  0  0  0999 V2000
   20.7588  -16.3449  -17.1674 N   0  0  0  0  0  0  0  0  0  0  0  0
   20.9715  -17.7857  -17.2219 C   0  0  0  0  0  0  0  0  0  0  0  0
   22.0527  -18.2037  -16.2890 C   0  0  0  0  0  0  0  0  0  0  0  0
   23.1268  -17.5503  -16.3289 O   0  0  0  0  0  0  0  0  0  0  0  0
   23.8958  -20.9468   -9.0213 N   0  0  0  0  0  0  0  0  0  0  0  0
   25.1597  -20.7009   -9.6113 C   0  0  0  0  0  0  0  0  0  0  0  0
   26.2108  -20.6457   -8.8436 N   0  0  0  0  0  0  0  0  0  0  0  0
   25.2413  -20.5225  -11.0149 N   0  0  0  0  0  0  0  0  0  0  0  0
   24.0709  -20.2062  -11.7591 C   0  0  0  0  0  0  0  0  0  0  0  0
   23.7318  -21.2923  -12.7872 C   0  0  0  0  0  0  0  0  0  0  0  0
   22.5494  -20.7703  -13.5642 C   0  0  0  0  0  0  0  0  0  0  0  0
   22.9360  -19.6967  -14.5479 C   0  0  2  0  0  0  0  0  0  0  0  0
   21.8632  -19.2936  -15.3991 N   0  0  0  0  0  0  0  0  0  0  0  0
   23.9953  -20.2992  -15.4261 C   0  0  0  0  0  0  0  0  0  0  0  0
   23.7396  -21.2137  -16.2534 O   0  0  0  0  0  0  0  0  0  0  0  0
   27.1572  -20.4204   -9.2069 N   0  0  0  0  0  0  0  0  0  0  0  0
   25.3158  -19.7875  -15.2817 C   0  0  2  0  0  0  0  0  0  0  0  0
   26.3985  -20.2995  -16.0974 C   0  0  0  0  0  0  0  0  0  0  0  0
   27.5033  -19.2520  -16.2169 S   0  0  0  0  0  0  0  0  0  0  0  0
   28.8706  -20.0244  -17.1384 C   0  0  0  0  0  0  0  0  0  0  0  0
   26.9231  -21.5227  -15.4501 O   0  0  0  0  0  0  0  0  0  0  0  0
   26.5887  -21.8725  -14.1392 O   0  0  0  0  0  0  0  0  0  0  0  0
  1  2  1  0
  2  3  1  0
  3  4  2  0
  3 13  1  0
  6  5  1  0
  7  6  2  0
  8  6  1  0
  9  8  1  0
 10  9  1  0
 10 11  1  0
 12 11  1  1
 12 14  1  0
 13 12  1  0
 14 15  2  0
 14 16  1  0
 16 17  1  0
 17 20  1  0
 17 18  1  1
 18 19  1  0
 20 21  1  0
 22 20  2  0
M  END
$$$$
