GRC.pdb
     RDKit          3D

 22 21  0  0  1  0  0  0  0  0999 V2000
   21.7387  -14.9454  -18.9484 N   0  0  0  0  0  0  0  0  0  0  0  0
   22.2414  -15.3427  -17.6394 C   0  0  0  0  0  0  0  0  0  0  0  0
   22.0689  -16.8042  -17.4198 C   0  0  0  0  0  0  0  0  0  0  0  0
   22.0065  -17.5328  -18.4432 O   0  0  0  0  0  0  0  0  0  0  0  0
   25.2077  -22.5620  -15.1807 N   0  0  0  0  0  0  0  0  0  0  0  0
   24.5203  -23.2192  -14.1312 C   0  0  0  0  0  0  0  0  0  0  0  0
   24.5838  -24.5182  -14.0559 N   0  0  0  0  0  0  0  0  0  0  0  0
   23.7863  -22.4452  -13.1980 N   0  0  0  0  0  0  0  0  0  0  0  0
   23.6346  -21.0454  -13.4011 C   0  0  0  0  0  0  0  0  0  0  0  0
   22.8154  -20.7320  -14.6590 C   0  0  0  0  0  0  0  0  0  0  0  0
   22.7861  -19.2282  -14.7685 C   0  0  0  0  0  0  0  0  0  0  0  0
   21.9471  -18.7517  -15.9255 C   0  0  2  0  0  0  0  0  0  0  0  0
   21.9810  -17.3361  -16.1063 N   0  0  0  0  0  0  0  0  0  0  0  0
   20.5299  -19.1213  -15.5914 C   0  0  0  0  0  0  0  0  0  0  0  0
   19.8505  -18.4781  -14.7484 O   0  0  0  0  0  0  0  0  0  0  0  0
   24.0029  -25.0690  -13.3943 N   0  0  0  0  0  0  0  0  0  0  0  0
   19.9811  -20.2427  -16.2753 C   0  0  2  0  0  0  0  0  0  0  0  0
   18.6327  -20.6915  -15.9926 C   0  0  0  0  0  0  0  0  0  0  0  0
   18.1854  -21.7003  -17.0483 S   0  0  0  0  0  0  0  0  0  0  0  0
   16.4626  -22.1453  -16.6620 C   0  0  0  0  0  0  0  0  0  0  0  0
   18.6287  -21.3198  -14.6526 O   0  0  0  0  0  0  0  0  0  0  0  0
   17.5994  -21.1037  -13.7326 O   0  0  0  0  0  0  0  0  0  0  0  0
  1  2  1  0
  2  3  1  0
  3  4  2  0
  3 13  1  0
  6  5  1  0
  7  6  2  0
  8  6  1  0
  9  8  1  0
 10  9  1  0
 10 11  1  0
 12 11  1  1
 12 14  1  0
 13 12  1  0
 14 15  2  0
 14 16  1  0
 16 17  1  0
 17 20  1  0
 17 18  1  6
 18 19  1  0
 20 21  1  0
 22 20  2  0
M  END
$$$$
