VGG.pdb
     RDKit          3D

 16 15  0  0  1  0  0  0  0  0999 V2000
    7.6348  -12.4286   20.7546 C   0  0  0  0  0  0  0  0  0  0  0  0
    8.3238  -13.3420   19.7629 C   0  0  2  0  0  0  0  0  0  0  0  0
    7.6923  -13.2162   18.4138 C   0  0  0  0  0  0  0  0  0  0  0  0
    8.2961  -14.7553   20.2996 C   0  0  2  0  0  0  0  0  0  0  0  0
    6.9261  -15.2301   20.2550 N   0  0  0  0  0  0  0  0  0  0  0  0
    8.8772  -14.8601   21.6463 C   0  0  0  0  0  0  0  0  0  0  0  0
   10.1186  -14.8856   21.8379 O   0  0  0  0  0  0  0  0  0  0  0  0
    8.0385  -14.9372   22.7925 N   0  0  0  0  0  0  0  0  0  0  0  0
    8.5948  -14.8526   24.1451 C   0  0  0  0  0  0  0  0  0  0  0  0
    9.1061  -16.1810   24.5503 C   0  0  0  0  0  0  0  0  0  0  0  0
    8.3358  -17.0873   24.9499 O   0  0  0  0  0  0  0  0  0  0  0  0
   10.5018  -16.4293   24.4830 N   0  0  0  0  0  0  0  0  0  0  0  0
   10.9808  -17.7774   24.6527 C   0  0  0  0  0  0  0  0  0  0  0  0
   12.4349  -17.7733   24.9621 C   0  0  0  0  0  0  0  0  0  0  0  0
   12.9242  -18.2393   26.1827 O   0  0  0  0  0  0  0  0  0  0  0  0
   13.2347  -17.3399   24.1021 O   0  0  0  0  0  0  0  0  0  0  0  0
  2  1  1  1
  2  3  1  0
  4  2  1  0
  4  5  1  1
  6  4  1  0
  6  8  1  0
  7  6  2  0
  9  8  1  0
 10  9  1  0
 11 10  2  0
 12 10  1  0
 13 14  1  0
 13 12  1  0
 14 15  1  0
 16 14  2  0
M  END
$$$$
