VGG.pdb
     RDKit          3D

 16 15  0  0  1  0  0  0  0  0999 V2000
    0.1564  -21.1262   21.3568 C   0  0  0  0  0  0  0  0  0  0  0  0
    0.0534  -21.1012   22.8671 C   0  0  2  0  0  0  0  0  0  0  0  0
   -1.1190  -20.2782   23.2952 C   0  0  0  0  0  0  0  0  0  0  0  0
    1.3633  -20.6067   23.4380 C   0  0  2  0  0  0  0  0  0  0  0  0
    1.5257  -19.2155   23.0603 N   0  0  0  0  0  0  0  0  0  0  0  0
    2.5077  -21.4323   23.0246 C   0  0  0  0  0  0  0  0  0  0  0  0
    2.6672  -22.6078   23.4381 O   0  0  0  0  0  0  0  0  0  0  0  0
    3.4855  -20.9175   22.1291 N   0  0  0  0  0  0  0  0  0  0  0  0
    4.6398  -21.7231   21.7232 C   0  0  0  0  0  0  0  0  0  0  0  0
    5.8579  -21.2053   22.3851 C   0  0  0  0  0  0  0  0  0  0  0  0
    6.9895  -21.6964   22.1555 O   0  0  0  0  0  0  0  0  0  0  0  0
    5.7366  -20.1274   23.3004 N   0  0  0  0  0  0  0  0  0  0  0  0
    6.9303  -19.5568   23.8704 C   0  0  0  0  0  0  0  0  0  0  0  0
    7.3521  -20.3317   25.0670 C   0  0  0  0  0  0  0  0  0  0  0  0
    7.4064  -19.7494   26.3336 O   0  0  0  0  0  0  0  0  0  0  0  0
    7.6651  -21.5359   24.9280 O   0  0  0  0  0  0  0  0  0  0  0  0
  2  1  1  6
  2  3  1  0
  4  2  1  0
  4  5  1  6
  6  4  1  0
  6  8  1  0
  7  6  2  0
  9  8  1  0
 10  9  1  0
 11 10  2  0
 12 10  1  0
 13 14  1  0
 13 12  1  0
 14 15  1  0
 16 14  2  0
M  END
$$$$
