VGG.pdb
     RDKit          3D

 16 15  0  0  1  0  0  0  0  0999 V2000
    8.2731  -13.0127   21.7695 C   0  0  0  0  0  0  0  0  0  0  0  0
    8.0736  -13.5731   20.3772 C   0  0  2  0  0  0  0  0  0  0  0  0
    7.1403  -12.7052   19.5957 C   0  0  0  0  0  0  0  0  0  0  0  0
    7.5964  -15.0035   20.4900 C   0  0  2  0  0  0  0  0  0  0  0  0
    6.2613  -14.9923   21.0571 N   0  0  0  0  0  0  0  0  0  0  0  0
    8.5207  -15.8485   21.2607 C   0  0  0  0  0  0  0  0  0  0  0  0
    8.3412  -16.0958   22.4793 O   0  0  0  0  0  0  0  0  0  0  0  0
    9.6653  -16.4216   20.6405 N   0  0  0  0  0  0  0  0  0  0  0  0
   10.5421  -17.3405   21.3705 C   0  0  0  0  0  0  0  0  0  0  0  0
   11.4735  -16.5626   22.2175 C   0  0  0  0  0  0  0  0  0  0  0  0
   12.2631  -15.7214   21.7242 O   0  0  0  0  0  0  0  0  0  0  0  0
   11.4686  -16.7776   23.6204 N   0  0  0  0  0  0  0  0  0  0  0  0
   12.4224  -16.0734   24.4387 C   0  0  0  0  0  0  0  0  0  0  0  0
   13.7941  -16.5924   24.1950 C   0  0  0  0  0  0  0  0  0  0  0  0
   14.8660  -16.2394   25.0153 O   0  0  0  0  0  0  0  0  0  0  0  0
   13.9854  -17.3647   23.2285 O   0  0  0  0  0  0  0  0  0  0  0  0
  2  1  1  1
  2  3  1  0
  4  2  1  0
  4  5  1  1
  6  4  1  0
  6  8  1  0
  7  6  2  0
  9  8  1  0
 10  9  1  0
 11 10  2  0
 12 10  1  0
 13 14  1  0
 13 12  1  0
 14 15  1  0
 16 14  2  0
M  END
$$$$
