VGG.pdb
     RDKit          3D

 16 15  0  0  1  0  0  0  0  0999 V2000
    9.1115  -12.9099   19.8922 C   0  0  0  0  0  0  0  0  0  0  0  0
    7.8069  -13.6663   19.7576 C   0  0  2  0  0  0  0  0  0  0  0  0
    6.6476  -12.7453   19.9644 C   0  0  0  0  0  0  0  0  0  0  0  0
    7.8160  -14.8314   20.7214 C   0  0  2  0  0  0  0  0  0  0  0  0
    7.8643  -14.3023   22.0712 N   0  0  0  0  0  0  0  0  0  0  0  0
    8.9105  -15.7766   20.4552 C   0  0  0  0  0  0  0  0  0  0  0  0
    8.8213  -16.6719   19.5783 O   0  0  0  0  0  0  0  0  0  0  0  0
   10.1237  -15.7057   21.1941 N   0  0  0  0  0  0  0  0  0  0  0  0
   11.2196  -16.6450   20.9430 C   0  0  0  0  0  0  0  0  0  0  0  0
   12.3290  -16.3686   21.8826 C   0  0  0  0  0  0  0  0  0  0  0  0
   13.5191  -16.2978   21.4912 O   0  0  0  0  0  0  0  0  0  0  0  0
   12.0333  -16.1799   23.2578 N   0  0  0  0  0  0  0  0  0  0  0  0
   13.0006  -15.5189   24.0963 C   0  0  0  0  0  0  0  0  0  0  0  0
   14.1157  -16.4449   24.4267 C   0  0  0  0  0  0  0  0  0  0  0  0
   15.1196  -16.0887   25.3276 O   0  0  0  0  0  0  0  0  0  0  0  0
   14.1490  -17.5705   23.8798 O   0  0  0  0  0  0  0  0  0  0  0  0
  2  1  1  1
  2  3  1  0
  4  2  1  0
  4  5  1  1
  6  4  1  0
  6  8  1  0
  7  6  2  0
  9  8  1  0
 10  9  1  0
 11 10  2  0
 12 10  1  0
 13 14  1  0
 13 12  1  0
 14 15  1  0
 16 14  2  0
M  END
$$$$
