VGG.pdb
     RDKit          3D

 16 15  0  0  1  0  0  0  0  0999 V2000
    4.8214  -20.3757   23.7222 C   0  0  0  0  0  0  0  0  0  0  0  0
    5.8440  -20.3756   22.6056 C   0  0  2  0  0  0  0  0  0  0  0  0
    6.1779  -21.7769   22.2057 C   0  0  0  0  0  0  0  0  0  0  0  0
    7.0527  -19.5834   23.0501 C   0  0  2  0  0  0  0  0  0  0  0  0
    7.7069  -20.3157   24.1178 N   0  0  0  0  0  0  0  0  0  0  0  0
    6.7131  -18.2085   23.4459 C   0  0  0  0  0  0  0  0  0  0  0  0
    6.3317  -17.3486   22.6131 O   0  0  0  0  0  0  0  0  0  0  0  0
    6.8073  -17.8026   24.8059 N   0  0  0  0  0  0  0  0  0  0  0  0
    6.4799  -16.4338   25.2123 C   0  0  0  0  0  0  0  0  0  0  0  0
    7.7114  -15.6130   25.2117 C   0  0  0  0  0  0  0  0  0  0  0  0
    7.7000  -14.4112   25.5723 O   0  0  0  0  0  0  0  0  0  0  0  0
    8.9311  -16.2052   24.7922 N   0  0  0  0  0  0  0  0  0  0  0  0
   10.1470  -15.4372   24.8788 C   0  0  0  0  0  0  0  0  0  0  0  0
   11.2647  -16.1645   24.2216 C   0  0  0  0  0  0  0  0  0  0  0  0
   11.8454  -15.7002   23.0411 O   0  0  0  0  0  0  0  0  0  0  0  0
   11.6907  -17.2187   24.7453 O   0  0  0  0  0  0  0  0  0  0  0  0
  2  1  1  1
  2  3  1  0
  4  2  1  0
  4  5  1  1
  6  4  1  0
  6  8  1  0
  7  6  2  0
  9  8  1  0
 10  9  1  0
 11 10  2  0
 12 10  1  0
 13 14  1  0
 13 12  1  0
 14 15  1  0
 16 14  2  0
M  END
$$$$
