VGG.pdb
     RDKit          3D

 16 15  0  0  1  0  0  0  0  0999 V2000
    7.6711  -13.1707   18.6121 C   0  0  0  0  0  0  0  0  0  0  0  0
    7.3320  -13.4291   20.0650 C   0  0  2  0  0  0  0  0  0  0  0  0
    7.6424  -12.2244   20.8940 C   0  0  0  0  0  0  0  0  0  0  0  0
    8.0658  -14.6686   20.5249 C   0  0  2  0  0  0  0  0  0  0  0  0
    7.7189  -15.7580   19.6320 N   0  0  0  0  0  0  0  0  0  0  0  0
    7.7952  -14.9960   21.9326 C   0  0  0  0  0  0  0  0  0  0  0  0
    6.8080  -15.6918   22.2787 O   0  0  0  0  0  0  0  0  0  0  0  0
    8.6566  -14.5277   22.9631 N   0  0  0  0  0  0  0  0  0  0  0  0
    8.3431  -14.7583   24.3755 C   0  0  0  0  0  0  0  0  0  0  0  0
    9.4107  -15.5800   24.9881 C   0  0  0  0  0  0  0  0  0  0  0  0
    9.4373  -15.8088   26.2215 O   0  0  0  0  0  0  0  0  0  0  0  0
   10.4256  -16.1192   24.1553 N   0  0  0  0  0  0  0  0  0  0  0  0
   11.4964  -16.8722   24.7568 C   0  0  0  0  0  0  0  0  0  0  0  0
   12.7595  -16.6682   23.9997 C   0  0  0  0  0  0  0  0  0  0  0  0
   13.5896  -17.7370   23.6607 O   0  0  0  0  0  0  0  0  0  0  0  0
   13.0804  -15.5066   23.6609 O   0  0  0  0  0  0  0  0  0  0  0  0
  2  1  1  6
  2  3  1  0
  4  2  1  0
  4  5  1  6
  6  4  1  0
  6  8  1  0
  7  6  2  0
  9  8  1  0
 10  9  1  0
 11 10  2  0
 12 10  1  0
 13 14  1  0
 13 12  1  0
 14 15  1  0
 16 14  2  0
M  END
$$$$
