VGG.pdb
     RDKit          3D

 16 15  0  0  1  0  0  0  0  0999 V2000
    0.0609  -20.8150   24.7924 C   0  0  0  0  0  0  0  0  0  0  0  0
    0.3982  -21.0477   23.3348 C   0  0  2  0  0  0  0  0  0  0  0  0
    0.4040  -19.7522   22.5887 C   0  0  0  0  0  0  0  0  0  0  0  0
   -0.5739  -22.0551   22.7632 C   0  0  2  0  0  0  0  0  0  0  0  0
   -1.8919  -21.4497   22.7392 N   0  0  0  0  0  0  0  0  0  0  0  0
   -0.5613  -23.3307   23.4946 C   0  0  0  0  0  0  0  0  0  0  0  0
    0.4628  -24.0560   23.5546 O   0  0  0  0  0  0  0  0  0  0  0  0
   -1.7268  -23.7907   24.1676 N   0  0  0  0  0  0  0  0  0  0  0  0
   -1.6943  -24.9943   25.0021 C   0  0  0  0  0  0  0  0  0  0  0  0
   -1.9301  -24.6198   26.4143 C   0  0  0  0  0  0  0  0  0  0  0  0
   -1.2968  -23.6843   26.9603 O   0  0  0  0  0  0  0  0  0  0  0  0
   -2.8970  -25.3398   27.1634 N   0  0  0  0  0  0  0  0  0  0  0  0
   -3.0641  -25.0377   28.5621 C   0  0  0  0  0  0  0  0  0  0  0  0
   -4.1888  -24.0845   28.7534 C   0  0  0  0  0  0  0  0  0  0  0  0
   -4.6383  -23.7296   30.0256 O   0  0  0  0  0  0  0  0  0  0  0  0
   -4.7419  -23.5917   27.7443 O   0  0  0  0  0  0  0  0  0  0  0  0
  2  1  1  1
  2  3  1  0
  4  2  1  0
  4  5  1  1
  6  4  1  0
  6  8  1  0
  7  6  2  0
  9  8  1  0
 10  9  1  0
 11 10  2  0
 12 10  1  0
 13 14  1  0
 13 12  1  0
 14 15  1  0
 16 14  2  0
M  END
$$$$
