VGG.pdb
     RDKit          3D

 16 15  0  0  1  0  0  0  0  0999 V2000
    6.8491  -12.7846   20.3796 C   0  0  0  0  0  0  0  0  0  0  0  0
    8.3262  -13.0563   20.1876 C   0  0  2  0  0  0  0  0  0  0  0  0
    8.7955  -12.4865   18.8876 C   0  0  0  0  0  0  0  0  0  0  0  0
    8.5682  -14.5444   20.3029 C   0  0  2  0  0  0  0  0  0  0  0  0
    8.1197  -15.1729   19.0748 N   0  0  0  0  0  0  0  0  0  0  0  0
    7.9315  -15.1302   21.4919 C   0  0  0  0  0  0  0  0  0  0  0  0
    6.7116  -15.4296   21.5171 O   0  0  0  0  0  0  0  0  0  0  0  0
    8.6890  -15.3802   22.6695 N   0  0  0  0  0  0  0  0  0  0  0  0
    8.0586  -15.9262   23.8739 C   0  0  0  0  0  0  0  0  0  0  0  0
    9.0898  -16.1434   24.9130 C   0  0  0  0  0  0  0  0  0  0  0  0
    8.7896  -16.5505   26.0613 O   0  0  0  0  0  0  0  0  0  0  0  0
   10.4487  -15.8831   24.5970 N   0  0  0  0  0  0  0  0  0  0  0  0
   11.4541  -16.0948   25.6069 C   0  0  0  0  0  0  0  0  0  0  0  0
   12.0234  -17.4631   25.4896 C   0  0  0  0  0  0  0  0  0  0  0  0
   12.0411  -18.3431   26.5719 O   0  0  0  0  0  0  0  0  0  0  0  0
   12.4971  -17.8285   24.3899 O   0  0  0  0  0  0  0  0  0  0  0  0
  2  1  1  6
  2  3  1  0
  4  2  1  0
  4  5  1  6
  6  4  1  0
  6  8  1  0
  7  6  2  0
  9  8  1  0
 10  9  1  0
 11 10  2  0
 12 10  1  0
 13 14  1  0
 13 12  1  0
 14 15  1  0
 16 14  2  0
M  END
$$$$
