VGG.pdb
     RDKit          3D

 16 15  0  0  1  0  0  0  0  0999 V2000
    8.9005  -14.7092   17.9304 C   0  0  0  0  0  0  0  0  0  0  0  0
    7.9764  -13.7201   18.6089 C   0  0  2  0  0  0  0  0  0  0  0  0
    7.6109  -12.6186   17.6665 C   0  0  0  0  0  0  0  0  0  0  0  0
    8.6383  -13.2213   19.8735 C   0  0  2  0  0  0  0  0  0  0  0  0
    9.8348  -12.4907   19.5009 N   0  0  0  0  0  0  0  0  0  0  0  0
    8.9224  -14.3037   20.8276 C   0  0  0  0  0  0  0  0  0  0  0  0
    8.0088  -14.9872   21.3535 O   0  0  0  0  0  0  0  0  0  0  0  0
   10.2618  -14.6155   21.1906 N   0  0  0  0  0  0  0  0  0  0  0  0
   10.5597  -15.7060   22.1224 C   0  0  0  0  0  0  0  0  0  0  0  0
   12.0221  -15.7851   22.3350 C   0  0  0  0  0  0  0  0  0  0  0  0
   12.5544  -16.7860   22.8729 O   0  0  0  0  0  0  0  0  0  0  0  0
   12.8364  -14.6999   21.9184 N   0  0  0  0  0  0  0  0  0  0  0  0
   13.9870  -14.9660   21.0934 C   0  0  0  0  0  0  0  0  0  0  0  0
   15.1861  -15.2010   21.9403 C   0  0  0  0  0  0  0  0  0  0  0  0
   15.0790  -15.4277   23.3127 O   0  0  0  0  0  0  0  0  0  0  0  0
   16.3167  -15.1941   21.4028 O   0  0  0  0  0  0  0  0  0  0  0  0
  2  1  1  6
  2  3  1  0
  4  2  1  0
  4  5  1  6
  6  4  1  0
  6  8  1  0
  7  6  2  0
  9  8  1  0
 10  9  1  0
 11 10  2  0
 12 10  1  0
 13 14  1  0
 13 12  1  0
 14 15  1  0
 16 14  2  0
M  END
$$$$
