VGG.pdb
     RDKit          3D

 16 15  0  0  1  0  0  0  0  0999 V2000
    7.9104  -13.2898   21.3921 C   0  0  0  0  0  0  0  0  0  0  0  0
    8.3896  -13.3022   19.9559 C   0  0  2  0  0  0  0  0  0  0  0  0
    7.6326  -12.2991   19.1461 C   0  0  0  0  0  0  0  0  0  0  0  0
    8.2729  -14.7091   19.4142 C   0  0  2  0  0  0  0  0  0  0  0  0
    6.8654  -15.0536   19.3473 N   0  0  0  0  0  0  0  0  0  0  0  0
    9.0470  -15.6827   20.1984 C   0  0  0  0  0  0  0  0  0  0  0  0
    8.5250  -16.3722   21.1098 O   0  0  0  0  0  0  0  0  0  0  0  0
   10.4331  -15.8775   19.9457 N   0  0  0  0  0  0  0  0  0  0  0  0
   11.1721  -16.9722   20.5795 C   0  0  0  0  0  0  0  0  0  0  0  0
   11.5966  -16.5583   21.9354 C   0  0  0  0  0  0  0  0  0  0  0  0
   12.6838  -15.9628   22.1302 O   0  0  0  0  0  0  0  0  0  0  0  0
   10.7495  -16.8446   23.0375 N   0  0  0  0  0  0  0  0  0  0  0  0
   11.1656  -16.4514   24.3596 C   0  0  0  0  0  0  0  0  0  0  0  0
   12.2898  -17.3070   24.8226 C   0  0  0  0  0  0  0  0  0  0  0  0
   12.7184  -17.2960   26.1502 O   0  0  0  0  0  0  0  0  0  0  0  0
   12.8616  -18.0534   23.9961 O   0  0  0  0  0  0  0  0  0  0  0  0
  2  1  1  1
  2  3  1  0
  4  2  1  0
  4  5  1  1
  6  4  1  0
  6  8  1  0
  7  6  2  0
  9  8  1  0
 10  9  1  0
 11 10  2  0
 12 10  1  0
 13 14  1  0
 13 12  1  0
 14 15  1  0
 16 14  2  0
M  END
$$$$
