VGG.pdb
     RDKit          3D

 16 15  0  0  1  0  0  0  0  0999 V2000
    6.6620  -11.5421   25.1971 C   0  0  0  0  0  0  0  0  0  0  0  0
    6.1770  -12.5098   26.2558 C   0  0  2  0  0  0  0  0  0  0  0  0
    6.1838  -11.8564   27.6004 C   0  0  0  0  0  0  0  0  0  0  0  0
    7.0265  -13.7595   26.2012 C   0  0  2  0  0  0  0  0  0  0  0  0
    8.3712  -13.4120   26.6199 N   0  0  0  0  0  0  0  0  0  0  0  0
    7.0044  -14.4007   24.8780 C   0  0  0  0  0  0  0  0  0  0  0  0
    6.0485  -15.1244   24.5024 O   0  0  0  0  0  0  0  0  0  0  0  0
    8.0818  -14.2186   23.9675 N   0  0  0  0  0  0  0  0  0  0  0  0
    8.0939  -14.8884   22.6647 C   0  0  0  0  0  0  0  0  0  0  0  0
    9.1654  -15.9091   22.6467 C   0  0  0  0  0  0  0  0  0  0  0  0
    9.4358  -16.5594   21.6082 O   0  0  0  0  0  0  0  0  0  0  0  0
    9.9009  -16.1536   23.8356 N   0  0  0  0  0  0  0  0  0  0  0  0
   10.9433  -17.1480   23.8205 C   0  0  0  0  0  0  0  0  0  0  0  0
   12.2769  -16.4964   23.7348 C   0  0  0  0  0  0  0  0  0  0  0  0
   12.7965  -16.0513   22.5190 O   0  0  0  0  0  0  0  0  0  0  0  0
   12.9449  -16.3464   24.7828 O   0  0  0  0  0  0  0  0  0  0  0  0
  2  1  1  6
  2  3  1  0
  4  2  1  0
  4  5  1  6
  6  4  1  0
  6  8  1  0
  7  6  2  0
  9  8  1  0
 10  9  1  0
 11 10  2  0
 12 10  1  0
 13 14  1  0
 13 12  1  0
 14 15  1  0
 16 14  2  0
M  END
$$$$
