VGG.pdb
     RDKit          3D

 16 15  0  0  1  0  0  0  0  0999 V2000
    9.6696  -12.7293   20.1512 C   0  0  0  0  0  0  0  0  0  0  0  0
    8.5255  -13.5065   19.5353 C   0  0  2  0  0  0  0  0  0  0  0  0
    7.4651  -12.5724   19.0473 C   0  0  0  0  0  0  0  0  0  0  0  0
    8.0131  -14.5060   20.5475 C   0  0  2  0  0  0  0  0  0  0  0  0
    7.3536  -13.7747   21.6127 N   0  0  0  0  0  0  0  0  0  0  0  0
    9.0724  -15.3913   21.0540 C   0  0  0  0  0  0  0  0  0  0  0  0
    9.6824  -15.1568   22.1270 O   0  0  0  0  0  0  0  0  0  0  0  0
    9.4454  -16.5594   20.3334 N   0  0  0  0  0  0  0  0  0  0  0  0
   10.5054  -17.4447   20.8221 C   0  0  0  0  0  0  0  0  0  0  0  0
   11.8122  -16.7611   20.6995 C   0  0  0  0  0  0  0  0  0  0  0  0
   12.1735  -16.2226   19.6253 O   0  0  0  0  0  0  0  0  0  0  0  0
   12.6727  -16.7170   21.8273 N   0  0  0  0  0  0  0  0  0  0  0  0
   13.9768  -16.1208   21.6885 C   0  0  0  0  0  0  0  0  0  0  0  0
   14.6781  -16.1028   22.9992 C   0  0  0  0  0  0  0  0  0  0  0  0
   15.9696  -15.5918   23.1306 O   0  0  0  0  0  0  0  0  0  0  0  0
   14.0900  -16.5588   24.0059 O   0  0  0  0  0  0  0  0  0  0  0  0
  2  1  1  1
  2  3  1  0
  4  2  1  0
  4  5  1  1
  6  4  1  0
  6  8  1  0
  7  6  2  0
  9  8  1  0
 10  9  1  0
 11 10  2  0
 12 10  1  0
 13 14  1  0
 13 12  1  0
 14 15  1  0
 16 14  2  0
M  END
$$$$
