VGG.pdb
     RDKit          3D

 16 15  0  0  1  0  0  0  0  0999 V2000
    6.5305  -13.7135   20.5276 C   0  0  0  0  0  0  0  0  0  0  0  0
    7.8713  -13.0479   20.2998 C   0  0  2  0  0  0  0  0  0  0  0  0
    8.0005  -12.6118   18.8757 C   0  0  0  0  0  0  0  0  0  0  0  0
    8.9671  -13.9971   20.7294 C   0  0  2  0  0  0  0  0  0  0  0  0
    8.9180  -15.1646   19.8699 N   0  0  0  0  0  0  0  0  0  0  0  0
    8.8816  -14.3515   22.1540 C   0  0  0  0  0  0  0  0  0  0  0  0
    9.0114  -13.4953   23.0642 O   0  0  0  0  0  0  0  0  0  0  0  0
    8.6454  -15.6964   22.5523 N   0  0  0  0  0  0  0  0  0  0  0  0
    8.4887  -16.0516   23.9649 C   0  0  0  0  0  0  0  0  0  0  0  0
    9.8143  -16.3674   24.5423 C   0  0  0  0  0  0  0  0  0  0  0  0
    9.9346  -16.7943   25.7161 O   0  0  0  0  0  0  0  0  0  0  0  0
   10.9730  -16.1807   23.7444 N   0  0  0  0  0  0  0  0  0  0  0  0
   12.2593  -16.5388   24.2855 C   0  0  0  0  0  0  0  0  0  0  0  0
   13.3416  -16.1531   23.3420 C   0  0  0  0  0  0  0  0  0  0  0  0
   14.5632  -15.6542   23.7949 O   0  0  0  0  0  0  0  0  0  0  0  0
   13.1457  -16.2815   22.1123 O   0  0  0  0  0  0  0  0  0  0  0  0
  2  1  1  6
  2  3  1  0
  4  2  1  0
  4  5  1  6
  6  4  1  0
  6  8  1  0
  7  6  2  0
  9  8  1  0
 10  9  1  0
 11 10  2  0
 12 10  1  0
 13 14  1  0
 13 12  1  0
 14 15  1  0
 16 14  2  0
M  END
$$$$
