VGG.pdb
     RDKit          3D

 16 15  0  0  1  0  0  0  0  0999 V2000
   -0.7139  -20.0299   22.9884 C   0  0  0  0  0  0  0  0  0  0  0  0
   -0.2260  -19.5561   21.6356 C   0  0  2  0  0  0  0  0  0  0  0  0
   -1.3066  -19.7010   20.6127 C   0  0  0  0  0  0  0  0  0  0  0  0
    1.0327  -20.3135   21.2776 C   0  0  2  0  0  0  0  0  0  0  0  0
    0.6671  -21.6857   20.9812 N   0  0  0  0  0  0  0  0  0  0  0  0
    2.0620  -20.2261   22.3242 C   0  0  0  0  0  0  0  0  0  0  0  0
    1.9427  -20.8124   23.4289 O   0  0  0  0  0  0  0  0  0  0  0  0
    3.2438  -19.4628   22.1151 N   0  0  0  0  0  0  0  0  0  0  0  0
    4.2453  -19.3119   23.1736 C   0  0  0  0  0  0  0  0  0  0  0  0
    5.3656  -18.4829   22.6758 C   0  0  0  0  0  0  0  0  0  0  0  0
    5.3294  -17.9407   21.5448 O   0  0  0  0  0  0  0  0  0  0  0  0
    6.5051  -18.3008   23.5019 N   0  0  0  0  0  0  0  0  0  0  0  0
    7.5862  -17.4742   23.0292 C   0  0  0  0  0  0  0  0  0  0  0  0
    8.4128  -18.2196   22.0435 C   0  0  0  0  0  0  0  0  0  0  0  0
    8.5927  -17.7553   20.7403 O   0  0  0  0  0  0  0  0  0  0  0  0
    8.9581  -19.2893   22.3979 O   0  0  0  0  0  0  0  0  0  0  0  0
  2  1  1  1
  2  3  1  0
  4  2  1  0
  4  5  1  1
  6  4  1  0
  6  8  1  0
  7  6  2  0
  9  8  1  0
 10  9  1  0
 11 10  2  0
 12 10  1  0
 13 14  1  0
 13 12  1  0
 14 15  1  0
 16 14  2  0
M  END
$$$$
