VAA.pdb
     RDKit          3D

 18 17  0  0  1  0  0  0  0  0999 V2000
   -4.7913  -19.7736   25.1693 C   0  0  0  0  0  0  0  0  0  0  0  0
   -4.7210  -20.1584   23.7303 C   0  0  1  0  0  0  0  0  0  0  0  0
   -3.8906  -19.1956   22.9098 C   0  0  0  0  0  0  0  0  0  0  0  0
   -4.1235  -21.5424   23.5910 C   0  0  2  0  0  0  0  0  0  0  0  0
   -4.1355  -21.8137   22.1340 N   0  0  0  0  0  0  0  0  0  0  0  0
   -5.0097  -22.5183   24.2450 C   0  0  0  0  0  0  0  0  0  0  0  0
   -6.2189  -22.5915   23.8237 O   0  0  0  0  0  0  0  0  0  0  0  0
   -4.8193  -25.6808   25.8884 C   0  0  0  0  0  0  0  0  0  0  0  0
   -5.5760  -24.3482   25.7843 C   0  0  2  0  0  0  0  0  0  0  0  0
   -4.6296  -23.3826   25.3013 N   0  0  0  0  0  0  0  0  0  0  0  0
   -6.1029  -24.0100   27.1246 C   0  0  0  0  0  0  0  0  0  0  0  0
   -6.9392  -24.7210   27.7475 O   0  0  0  0  0  0  0  0  0  0  0  0
   -5.0273  -21.5993   29.7906 C   0  0  0  0  0  0  0  0  0  0  0  0
   -6.0616  -22.4718   29.1188 C   0  0  2  0  0  0  0  0  0  0  0  0
   -5.6550  -22.8251   27.7609 N   0  0  0  0  0  0  0  0  0  0  0  0
   -7.3794  -21.7976   29.0267 C   0  0  0  0  0  0  0  0  0  0  0  0
   -8.1622  -21.5319   30.1431 O   0  0  0  0  0  0  0  0  0  0  0  0
   -7.8321  -21.4429   27.9260 O   0  0  0  0  0  0  0  0  0  0  0  0
  2  1  1  1
  2  4  1  0
  3  2  1  0
  4  5  1  6
  4  6  1  0
  6 10  1  0
  6  7  2  0
  9  8  1  1
 10  9  1  0
 11  9  1  0
 11 12  2  0
 14 13  1  6
 14 15  1  0
 15 11  1  0
 16 14  1  0
 17 16  1  0
 18 16  2  0
M  END
$$$$
