VAA.pdb
     RDKit          3D

 18 17  0  0  1  0  0  0  0  0999 V2000
    8.3569  -12.5585   21.3541 C   0  0  0  0  0  0  0  0  0  0  0  0
    7.6531  -13.4378   20.3767 C   0  0  1  0  0  0  0  0  0  0  0  0
    7.8302  -12.9772   18.9463 C   0  0  0  0  0  0  0  0  0  0  0  0
    8.1691  -14.8567   20.4885 C   0  0  2  0  0  0  0  0  0  0  0  0
    7.2718  -15.6542   19.6194 N   0  0  0  0  0  0  0  0  0  0  0  0
    7.9983  -15.3241   21.8733 C   0  0  0  0  0  0  0  0  0  0  0  0
    6.8105  -15.3130   22.3570 O   0  0  0  0  0  0  0  0  0  0  0  0
    9.2619  -17.5715   24.2689 C   0  0  0  0  0  0  0  0  0  0  0  0
    8.7408  -16.1405   24.0690 C   0  0  2  0  0  0  0  0  0  0  0  0
    9.0434  -15.7862   22.7110 N   0  0  0  0  0  0  0  0  0  0  0  0
    9.4134  -15.2624   25.0513 C   0  0  0  0  0  0  0  0  0  0  0  0
   10.6092  -14.8746   24.9396 O   0  0  0  0  0  0  0  0  0  0  0  0
    8.2815  -13.0336   27.8167 C   0  0  0  0  0  0  0  0  0  0  0  0
    9.2965  -13.9763   27.2139 C   0  0  2  0  0  0  0  0  0  0  0  0
    8.6904  -14.8215   26.1882 N   0  0  0  0  0  0  0  0  0  0  0  0
    9.8929  -14.8734   28.2334 C   0  0  0  0  0  0  0  0  0  0  0  0
   10.8315  -14.4335   29.1582 O   0  0  0  0  0  0  0  0  0  0  0  0
    9.5645  -16.0696   28.2921 O   0  0  0  0  0  0  0  0  0  0  0  0
  2  1  1  1
  2  4  1  0
  3  2  1  0
  4  5  1  6
  4  6  1  0
  6 10  1  0
  6  7  2  0
  9  8  1  1
 10  9  1  0
 11  9  1  0
 11 12  2  0
 14 13  1  1
 14 15  1  0
 15 11  1  0
 16 14  1  0
 17 16  1  0
 18 16  2  0
M  END
$$$$
