VAA.pdb
     RDKit          3D

 18 17  0  0  1  0  0  0  0  0999 V2000
   -1.5552  -21.2900   26.4301 C   0  0  0  0  0  0  0  0  0  0  0  0
   -2.7331  -21.9022   27.1095 C   0  0  1  0  0  0  0  0  0  0  0  0
   -3.9457  -21.9877   26.2084 C   0  0  0  0  0  0  0  0  0  0  0  0
   -2.3917  -23.2988   27.5838 C   0  0  2  0  0  0  0  0  0  0  0  0
   -2.0882  -24.0543   26.3454 N   0  0  0  0  0  0  0  0  0  0  0  0
   -3.5813  -23.9008   28.2066 C   0  0  0  0  0  0  0  0  0  0  0  0
   -4.4540  -24.4246   27.4261 O   0  0  0  0  0  0  0  0  0  0  0  0
   -4.8421  -24.9132   31.5272 C   0  0  0  0  0  0  0  0  0  0  0  0
   -5.0717  -24.5110   30.0627 C   0  0  2  0  0  0  0  0  0  0  0  0
   -3.8351  -23.9474   29.5997 N   0  0  0  0  0  0  0  0  0  0  0  0
   -6.1911  -23.5449   30.0188 C   0  0  0  0  0  0  0  0  0  0  0  0
   -6.0382  -22.2936   30.0797 O   0  0  0  0  0  0  0  0  0  0  0  0
   -9.9098  -23.9031   29.3794 C   0  0  0  0  0  0  0  0  0  0  0  0
   -8.6637  -23.1392   29.7614 C   0  0  2  0  0  0  0  0  0  0  0  0
   -7.5168  -24.0330   29.9020 N   0  0  0  0  0  0  0  0  0  0  0  0
   -8.8274  -22.4207   31.0486 C   0  0  0  0  0  0  0  0  0  0  0  0
   -9.3963  -21.1561   31.1311 O   0  0  0  0  0  0  0  0  0  0  0  0
   -8.4531  -22.9388   32.1133 O   0  0  0  0  0  0  0  0  0  0  0  0
  2  1  1  6
  2  4  1  0
  3  2  1  0
  4  5  1  6
  4  6  1  0
  6 10  1  0
  6  7  2  0
  9  8  1  1
 10  9  1  0
 11  9  1  0
 11 12  2  0
 14 13  1  1
 14 15  1  0
 15 11  1  0
 16 14  1  0
 17 16  1  0
 18 16  2  0
M  END
$$$$
