VAA.pdb
     RDKit          3D

 18 17  0  0  1  0  0  0  0  0999 V2000
    4.1615  -19.2591   20.4613 C   0  0  0  0  0  0  0  0  0  0  0  0
    4.4750  -18.9301   21.8816 C   0  0  1  0  0  0  0  0  0  0  0  0
    4.7948  -20.1574   22.7068 C   0  0  0  0  0  0  0  0  0  0  0  0
    5.6589  -17.9887   21.9479 C   0  0  2  0  0  0  0  0  0  0  0  0
    6.8151  -18.8049   21.5081 N   0  0  0  0  0  0  0  0  0  0  0  0
    5.8836  -17.5946   23.3478 C   0  0  0  0  0  0  0  0  0  0  0  0
    4.9950  -16.8537   23.9015 O   0  0  0  0  0  0  0  0  0  0  0  0
    8.1444  -18.3033   26.1912 C   0  0  0  0  0  0  0  0  0  0  0  0
    7.1687  -17.3915   25.4324 C   0  0  2  0  0  0  0  0  0  0  0  0
    7.0033  -17.9716   24.1297 N   0  0  0  0  0  0  0  0  0  0  0  0
    7.7505  -16.0323   25.3823 C   0  0  0  0  0  0  0  0  0  0  0  0
    8.6811  -15.6980   24.5980 O   0  0  0  0  0  0  0  0  0  0  0  0
    6.6880  -12.6605   26.5005 C   0  0  0  0  0  0  0  0  0  0  0  0
    7.7826  -13.6769   26.2742 C   0  0  2  0  0  0  0  0  0  0  0  0
    7.2475  -15.0361   26.2564 N   0  0  0  0  0  0  0  0  0  0  0  0
    8.8181  -13.6209   27.3345 C   0  0  0  0  0  0  0  0  0  0  0  0
    9.7102  -12.5626   27.4523 O   0  0  0  0  0  0  0  0  0  0  0  0
    8.9210  -14.5374   28.1662 O   0  0  0  0  0  0  0  0  0  0  0  0
  2  1  1  6
  2  4  1  0
  3  2  1  0
  4  5  1  1
  4  6  1  0
  6 10  1  0
  6  7  2  0
  9  8  1  1
 10  9  1  0
 11  9  1  0
 11 12  2  0
 14 13  1  1
 14 15  1  0
 15 11  1  0
 16 14  1  0
 17 16  1  0
 18 16  2  0
M  END
$$$$
