VAA.pdb
     RDKit          3D

 18 17  0  0  1  0  0  0  0  0999 V2000
    8.2974  -12.5996   21.2886 C   0  0  0  0  0  0  0  0  0  0  0  0
    7.5341  -13.4568   20.3366 C   0  0  1  0  0  0  0  0  0  0  0  0
    7.6742  -13.0001   18.9007 C   0  0  0  0  0  0  0  0  0  0  0  0
    8.0117  -14.8904   20.4301 C   0  0  2  0  0  0  0  0  0  0  0  0
    7.0350  -15.6665   19.6301 N   0  0  0  0  0  0  0  0  0  0  0  0
    7.9173  -15.3397   21.8282 C   0  0  0  0  0  0  0  0  0  0  0  0
    6.7565  -15.3298   22.3735 O   0  0  0  0  0  0  0  0  0  0  0  0
    9.3934  -17.4930   24.2253 C   0  0  0  0  0  0  0  0  0  0  0  0
    8.7841  -16.1015   23.9977 C   0  0  2  0  0  0  0  0  0  0  0  0
    9.0083  -15.7832   22.6159 N   0  0  0  0  0  0  0  0  0  0  0  0
    9.4469  -15.1509   24.9172 C   0  0  0  0  0  0  0  0  0  0  0  0
   10.6377  -14.7567   24.7771 O   0  0  0  0  0  0  0  0  0  0  0  0
    8.3113  -12.7308   27.5035 C   0  0  0  0  0  0  0  0  0  0  0  0
    9.3206  -13.7337   26.9956 C   0  0  2  0  0  0  0  0  0  0  0  0
    8.7199  -14.6434   26.0233 N   0  0  0  0  0  0  0  0  0  0  0  0
    9.8790  -14.5612   28.0925 C   0  0  0  0  0  0  0  0  0  0  0  0
   10.7991  -14.0660   29.0078 O   0  0  0  0  0  0  0  0  0  0  0  0
    9.5336  -15.7463   28.2284 O   0  0  0  0  0  0  0  0  0  0  0  0
  2  1  1  1
  2  4  1  0
  3  2  1  0
  4  5  1  6
  4  6  1  0
  6 10  1  0
  6  7  2  0
  9  8  1  1
 10  9  1  0
 11  9  1  0
 11 12  2  0
 14 13  1  1
 14 15  1  0
 15 11  1  0
 16 14  1  0
 17 16  1  0
 18 16  2  0
M  END
$$$$
