VAA.pdb
     RDKit          3D

 18 17  0  0  1  0  0  0  0  0999 V2000
    9.0192  -13.0805   25.6111 C   0  0  0  0  0  0  0  0  0  0  0  0
    7.8090  -13.2821   26.4588 C   0  0  1  0  0  0  0  0  0  0  0  0
    7.5532  -12.1206   27.3944 C   0  0  0  0  0  0  0  0  0  0  0  0
    6.5872  -13.4686   25.5846 C   0  0  2  0  0  0  0  0  0  0  0  0
    5.5335  -13.9536   26.5071 N   0  0  0  0  0  0  0  0  0  0  0  0
    6.8561  -14.5287   24.6000 C   0  0  0  0  0  0  0  0  0  0  0  0
    6.7128  -15.7431   24.9872 O   0  0  0  0  0  0  0  0  0  0  0  0
    7.3267  -14.8719   20.9478 C   0  0  0  0  0  0  0  0  0  0  0  0
    7.3710  -15.4368   22.3754 C   0  0  2  0  0  0  0  0  0  0  0  0
    7.2588  -14.3110   23.2592 N   0  0  0  0  0  0  0  0  0  0  0  0
    8.6452  -16.1694   22.5431 C   0  0  0  0  0  0  0  0  0  0  0  0
    8.9844  -17.1553   21.8318 O   0  0  0  0  0  0  0  0  0  0  0  0
   11.9890  -15.6209   23.7607 C   0  0  0  0  0  0  0  0  0  0  0  0
   10.7662  -16.5024   23.8603 C   0  0  2  0  0  0  0  0  0  0  0  0
    9.5487  -15.7556   23.5541 N   0  0  0  0  0  0  0  0  0  0  0  0
   10.6059  -17.0756   25.2188 C   0  0  0  0  0  0  0  0  0  0  0  0
   11.5534  -17.9141   25.7924 O   0  0  0  0  0  0  0  0  0  0  0  0
    9.5991  -16.8178   25.8985 O   0  0  0  0  0  0  0  0  0  0  0  0
  2  1  1  6
  2  4  1  0
  3  2  1  0
  4  5  1  1
  4  6  1  0
  6 10  1  0
  6  7  2  0
  9  8  1  6
 10  9  1  0
 11  9  1  0
 11 12  2  0
 14 13  1  1
 14 15  1  0
 15 11  1  0
 16 14  1  0
 17 16  1  0
 18 16  2  0
M  END
$$$$
