VAA.pdb
     RDKit          3D

 18 17  0  0  1  0  0  0  0  0999 V2000
    8.5185  -12.3037   19.8439 C   0  0  0  0  0  0  0  0  0  0  0  0
    8.5612  -13.6673   20.4461 C   0  0  1  0  0  0  0  0  0  0  0  0
    7.6604  -13.7986   21.6548 C   0  0  0  0  0  0  0  0  0  0  0  0
    8.1405  -14.7008   19.4228 C   0  0  2  0  0  0  0  0  0  0  0  0
    6.7393  -14.3522   19.0885 N   0  0  0  0  0  0  0  0  0  0  0  0
    8.1430  -16.0310   20.0521 C   0  0  0  0  0  0  0  0  0  0  0  0
    7.1081  -16.3629   20.7332 O   0  0  0  0  0  0  0  0  0  0  0  0
    9.6847  -19.2923   19.7581 C   0  0  0  0  0  0  0  0  0  0  0  0
    9.0851  -18.2140   20.6729 C   0  0  2  0  0  0  0  0  0  0  0  0
    9.1983  -16.9720   19.9618 N   0  0  0  0  0  0  0  0  0  0  0  0
    9.8408  -18.2145   21.9447 C   0  0  0  0  0  0  0  0  0  0  0  0
    9.9476  -19.2239   22.6948 O   0  0  0  0  0  0  0  0  0  0  0  0
   12.3672  -15.9250   23.4908 C   0  0  0  0  0  0  0  0  0  0  0  0
   11.2657  -16.9536   23.5953 C   0  0  2  0  0  0  0  0  0  0  0  0
   10.4880  -17.0239   22.3607 N   0  0  0  0  0  0  0  0  0  0  0  0
   10.3225  -16.6450   24.6975 C   0  0  0  0  0  0  0  0  0  0  0  0
   10.6831  -16.7339   26.0361 O   0  0  0  0  0  0  0  0  0  0  0  0
    9.1580  -16.2905   24.4519 O   0  0  0  0  0  0  0  0  0  0  0  0
  2  1  1  6
  2  4  1  0
  3  2  1  0
  4  5  1  1
  4  6  1  0
  6 10  1  0
  6  7  2  0
  9  8  1  6
 10  9  1  0
 11  9  1  0
 11 12  2  0
 14 13  1  6
 14 15  1  0
 15 11  1  0
 16 14  1  0
 17 16  1  0
 18 16  2  0
M  END
$$$$
