VAA.pdb
     RDKit          3D

 18 17  0  0  1  0  0  0  0  0999 V2000
    4.1918  -23.3960   24.8420 C   0  0  0  0  0  0  0  0  0  0  0  0
    5.1490  -22.3277   24.4341 C   0  0  1  0  0  0  0  0  0  0  0  0
    6.5918  -22.7164   24.6727 C   0  0  0  0  0  0  0  0  0  0  0  0
    4.9773  -22.0096   22.9639 C   0  0  2  0  0  0  0  0  0  0  0  0
    5.3757  -23.2516   22.2601 N   0  0  0  0  0  0  0  0  0  0  0  0
    5.9230  -20.9471   22.5869 C   0  0  0  0  0  0  0  0  0  0  0  0
    7.1357  -21.2930   22.3530 O   0  0  0  0  0  0  0  0  0  0  0  0
    5.8852  -17.4652   21.3977 C   0  0  0  0  0  0  0  0  0  0  0  0
    6.6151  -18.6529   22.0426 C   0  0  2  0  0  0  0  0  0  0  0  0
    5.5966  -19.5742   22.4612 N   0  0  0  0  0  0  0  0  0  0  0  0
    7.4214  -18.1414   23.1725 C   0  0  0  0  0  0  0  0  0  0  0  0
    8.4418  -17.4124   23.0305 O   0  0  0  0  0  0  0  0  0  0  0  0
    6.8027  -17.0195   26.4534 C   0  0  0  0  0  0  0  0  0  0  0  0
    7.7214  -17.9222   25.6638 C   0  0  2  0  0  0  0  0  0  0  0  0
    7.0422  -18.4785   24.4962 N   0  0  0  0  0  0  0  0  0  0  0  0
    8.2118  -19.0614   26.4772 C   0  0  0  0  0  0  0  0  0  0  0  0
    9.0653  -18.8933   27.5602 O   0  0  0  0  0  0  0  0  0  0  0  0
    7.8669  -20.2239   26.2089 O   0  0  0  0  0  0  0  0  0  0  0  0
  2  1  1  6
  2  4  1  0
  3  2  1  0
  4  5  1  6
  4  6  1  0
  6 10  1  0
  6  7  2  0
  9  8  1  1
 10  9  1  0
 11  9  1  0
 11 12  2  0
 14 13  1  1
 14 15  1  0
 15 11  1  0
 16 14  1  0
 17 16  1  0
 18 16  2  0
M  END
$$$$
