VAA.pdb
     RDKit          3D

 18 17  0  0  1  0  0  0  0  0999 V2000
    8.2995  -13.2203   18.8854 C   0  0  0  0  0  0  0  0  0  0  0  0
    8.2848  -13.5869   20.3308 C   0  0  1  0  0  0  0  0  0  0  0  0
    7.3247  -12.7394   21.1369 C   0  0  0  0  0  0  0  0  0  0  0  0
    7.8917  -15.0398   20.4946 C   0  0  2  0  0  0  0  0  0  0  0  0
    6.5435  -15.1368   19.8869 N   0  0  0  0  0  0  0  0  0  0  0  0
    7.7701  -15.3476   21.9285 C   0  0  0  0  0  0  0  0  0  0  0  0
    6.6916  -14.9844   22.5200 O   0  0  0  0  0  0  0  0  0  0  0  0
    9.2008  -17.6004   24.4197 C   0  0  0  0  0  0  0  0  0  0  0  0
    8.4765  -16.2877   24.0863 C   0  0  2  0  0  0  0  0  0  0  0  0
    8.7506  -16.0148   22.7037 N   0  0  0  0  0  0  0  0  0  0  0  0
    8.9903  -15.2342   24.9888 C   0  0  0  0  0  0  0  0  0  0  0  0
   10.1496  -14.7428   24.9020 O   0  0  0  0  0  0  0  0  0  0  0  0
    7.3586  -12.9213   27.4632 C   0  0  0  0  0  0  0  0  0  0  0  0
    8.5571  -13.6423   26.8921 C   0  0  2  0  0  0  0  0  0  0  0  0
    8.1481  -14.7362   26.0145 N   0  0  0  0  0  0  0  0  0  0  0  0
    9.4131  -14.2221   27.9555 C   0  0  0  0  0  0  0  0  0  0  0  0
    9.6003  -15.5910   28.1003 O   0  0  0  0  0  0  0  0  0  0  0  0
   10.0003  -13.4861   28.7652 O   0  0  0  0  0  0  0  0  0  0  0  0
  2  1  1  6
  2  4  1  0
  3  2  1  0
  4  5  1  6
  4  6  1  0
  6 10  1  0
  6  7  2  0
  9  8  1  1
 10  9  1  0
 11  9  1  0
 11 12  2  0
 14 13  1  1
 14 15  1  0
 15 11  1  0
 16 14  1  0
 17 16  1  0
 18 16  2  0
M  END
$$$$
