VAA.pdb
     RDKit          3D

 18 17  0  0  1  0  0  0  0  0999 V2000
    7.8527  -12.3925   19.3729 C   0  0  0  0  0  0  0  0  0  0  0  0
    8.1907  -13.5498   20.2505 C   0  0  1  0  0  0  0  0  0  0  0  0
    6.9918  -14.0745   21.0101 C   0  0  0  0  0  0  0  0  0  0  0  0
    8.7630  -14.6805   19.4221 C   0  0  2  0  0  0  0  0  0  0  0  0
    7.6626  -15.0755   18.5113 N   0  0  0  0  0  0  0  0  0  0  0  0
    9.0590  -15.8215   20.3031 C   0  0  0  0  0  0  0  0  0  0  0  0
    8.1457  -16.7112   20.4424 O   0  0  0  0  0  0  0  0  0  0  0  0
   11.9665  -17.4452   21.8701 C   0  0  0  0  0  0  0  0  0  0  0  0
   10.4512  -17.2130   21.7742 C   0  0  2  0  0  0  0  0  0  0  0  0
   10.2739  -16.0130   21.0063 N   0  0  0  0  0  0  0  0  0  0  0  0
    9.9138  -17.0964   23.1476 C   0  0  0  0  0  0  0  0  0  0  0  0
    9.9822  -18.0187   24.0064 O   0  0  0  0  0  0  0  0  0  0  0  0
    8.4013  -14.2570   25.1441 C   0  0  0  0  0  0  0  0  0  0  0  0
    8.7031  -15.7113   24.8681 C   0  0  2  0  0  0  0  0  0  0  0  0
    9.2832  -15.8887   23.5392 N   0  0  0  0  0  0  0  0  0  0  0  0
    7.4835  -16.5525   24.9363 C   0  0  0  0  0  0  0  0  0  0  0  0
    6.9339  -16.9752   26.1401 O   0  0  0  0  0  0  0  0  0  0  0  0
    6.9049  -16.9119   23.8979 O   0  0  0  0  0  0  0  0  0  0  0  0
  2  1  1  6
  2  4  1  0
  3  2  1  0
  4  5  1  6
  4  6  1  0
  6 10  1  0
  6  7  2  0
  9  8  1  1
 10  9  1  0
 11  9  1  0
 11 12  2  0
 14 13  1  6
 14 15  1  0
 15 11  1  0
 16 14  1  0
 17 16  1  0
 18 16  2  0
M  END
$$$$
