VAA.pdb
     RDKit          3D

 18 17  0  0  1  0  0  0  0  0999 V2000
   -3.8032  -26.9423   27.1684 C   0  0  0  0  0  0  0  0  0  0  0  0
   -4.8496  -26.6810   28.1982 C   0  0  1  0  0  0  0  0  0  0  0  0
   -6.2288  -27.1128   27.7495 C   0  0  0  0  0  0  0  0  0  0  0  0
   -4.5132  -27.4145   29.4791 C   0  0  2  0  0  0  0  0  0  0  0  0
   -4.6222  -28.8510   29.1312 N   0  0  0  0  0  0  0  0  0  0  0  0
   -5.5366  -27.1105   30.4919 C   0  0  0  0  0  0  0  0  0  0  0  0
   -6.6135  -27.8067   30.4692 O   0  0  0  0  0  0  0  0  0  0  0  0
   -5.8660  -25.9414   33.8209 C   0  0  0  0  0  0  0  0  0  0  0  0
   -6.4997  -25.9330   32.4218 C   0  0  2  0  0  0  0  0  0  0  0  0
   -5.4227  -26.1106   31.4892 N   0  0  0  0  0  0  0  0  0  0  0  0
   -7.2044  -24.6448   32.2413 C   0  0  0  0  0  0  0  0  0  0  0  0
   -8.1327  -24.2434   32.9962 O   0  0  0  0  0  0  0  0  0  0  0  0
   -6.5973  -21.6256   30.0562 C   0  0  0  0  0  0  0  0  0  0  0  0
   -7.4483  -22.4946   30.9524 C   0  0  2  0  0  0  0  0  0  0  0  0
   -6.8298  -23.8007   31.1659 N   0  0  0  0  0  0  0  0  0  0  0  0
   -8.7957  -22.7295   30.3787 C   0  0  0  0  0  0  0  0  0  0  0  0
   -9.7993  -21.7696   30.4113 O   0  0  0  0  0  0  0  0  0  0  0  0
   -9.0729  -23.8139   29.8407 O   0  0  0  0  0  0  0  0  0  0  0  0
  2  1  1  6
  2  4  1  0
  3  2  1  0
  4  5  1  6
  4  6  1  0
  6 10  1  0
  6  7  2  0
  9  8  1  1
 10  9  1  0
 11  9  1  0
 11 12  2  0
 14 13  1  6
 14 15  1  0
 15 11  1  0
 16 14  1  0
 17 16  1  0
 18 16  2  0
M  END
$$$$
