TMR.pdb
     RDKit          3D

 27 26  0  0  1  0  0  0  0  0999 V2000
   28.3965  -19.0706  -16.1313 C   0  0  0  0  0  0  0  0  0  0  0  0
   27.4337  -19.5468  -15.0698 C   0  0  1  0  0  0  0  0  0  0  0  0
   26.2553  -19.9985  -15.7048 O   0  0  0  0  0  0  0  0  0  0  0  0
   28.0099  -20.7764  -14.3712 C   0  0  2  0  0  0  0  0  0  0  0  0
   27.9273  -21.9167  -15.3050 N   0  0  0  0  0  0  0  0  0  0  0  0
   27.1631  -21.1299  -13.2325 C   0  0  0  0  0  0  0  0  0  0  0  0
   26.2858  -22.0389  -13.3589 O   0  0  0  0  0  0  0  0  0  0  0  0
   28.2172  -20.3470   -6.6326 C   0  0  0  0  0  0  0  0  0  0  0  0
   26.7076  -19.4908   -7.0742 S   0  0  0  0  0  0  0  0  0  0  0  0
   25.8519  -20.2754   -8.4877 C   0  0  0  0  0  0  0  0  0  0  0  0
   26.7629  -20.1809   -9.6631 C   0  0  0  0  0  0  0  0  0  0  0  0
   26.2436  -20.7493  -10.9583 C   0  0  2  0  0  0  0  0  0  0  0  0
   27.2750  -20.5100  -11.9887 N   0  0  0  0  0  0  0  0  0  0  0  0
   25.0085  -20.1249  -11.4557 C   0  0  0  0  0  0  0  0  0  0  0  0
   25.0326  -19.2298  -12.3725 O   0  0  0  0  0  0  0  0  0  0  0  0
   19.6775  -19.7329  -17.2168 N   0  0  0  0  0  0  0  0  0  0  0  0
   19.0592  -20.7231  -16.4189 C   0  0  0  0  0  0  0  0  0  0  0  0
   17.8696  -21.1427  -16.7253 N   0  0  0  0  0  0  0  0  0  0  0  0
   19.6802  -21.2952  -15.2755 N   0  0  0  0  0  0  0  0  0  0  0  0
   20.9349  -20.8183  -14.7407 C   0  0  0  0  0  0  0  0  0  0  0  0
   21.3201  -21.5855  -13.4791 C   0  0  0  0  0  0  0  0  0  0  0  0
   22.6772  -21.2463  -13.0039 C   0  0  0  0  0  0  0  0  0  0  0  0
   22.5758  -20.2655  -11.8343 C   0  0  2  0  0  0  0  0  0  0  0  0
   23.7357  -20.4834  -10.9546 N   0  0  0  0  0  0  0  0  0  0  0  0
   21.3593  -20.5854  -11.0738 C   0  0  0  0  0  0  0  0  0  0  0  0
   21.1767  -21.5434  -10.3031 O   0  0  0  0  0  0  0  0  0  0  0  0
   20.2487  -19.7298  -11.2062 O   0  0  0  0  0  0  0  0  0  0  0  0
  2  1  1  6
  3  2  1  0
  4  2  1  0
  4  5  1  6
  6  4  1  0
  7  6  2  0
  9 10  1  0
  9  8  1  0
 12 11  1  1
 11 10  1  0
 12 13  1  0
 13  6  1  0
 14 15  2  0
 14 12  1  0
 16 17  1  0
 17 18  2  0
 19 20  1  0
 19 17  1  0
 21 20  1  0
 23 22  1  6
 22 21  1  0
 23 24  1  0
 24 14  1  0
 25 23  1  0
 26 25  2  0
 27 25  1  0
M  END
$$$$
