TMR.pdb
     RDKit          3D

 27 26  0  0  1  0  0  0  0  0999 V2000
   28.8773  -22.8488  -20.1627 C   0  0  0  0  0  0  0  0  0  0  0  0
   29.3845  -23.6693  -19.0008 C   0  0  1  0  0  0  0  0  0  0  0  0
   30.5978  -24.2840  -19.3830 O   0  0  0  0  0  0  0  0  0  0  0  0
   29.7508  -22.7440  -17.8425 C   0  0  2  0  0  0  0  0  0  0  0  0
   30.0635  -23.5802  -16.6670 N   0  0  0  0  0  0  0  0  0  0  0  0
   28.5823  -21.9484  -17.4678 C   0  0  0  0  0  0  0  0  0  0  0  0
   27.6964  -22.4501  -16.7093 O   0  0  0  0  0  0  0  0  0  0  0  0
   28.1599  -15.3738  -15.3197 C   0  0  0  0  0  0  0  0  0  0  0  0
   27.5624  -15.7484  -16.9658 S   0  0  0  0  0  0  0  0  0  0  0  0
   26.7168  -17.3684  -17.0461 C   0  0  0  0  0  0  0  0  0  0  0  0
   27.7625  -18.4006  -17.2941 C   0  0  0  0  0  0  0  0  0  0  0  0
   27.2925  -19.8316  -17.3345 C   0  0  2  0  0  0  0  0  0  0  0  0
   28.3896  -20.6391  -17.9064 N   0  0  0  0  0  0  0  0  0  0  0  0
   26.1158  -20.0715  -18.1833 C   0  0  0  0  0  0  0  0  0  0  0  0
   26.1824  -19.9867  -19.4603 O   0  0  0  0  0  0  0  0  0  0  0  0
   19.8606  -22.5745  -14.2640 N   0  0  0  0  0  0  0  0  0  0  0  0
   19.5347  -22.6719  -15.6365 C   0  0  0  0  0  0  0  0  0  0  0  0
   18.2944  -22.5822  -16.0089 N   0  0  0  0  0  0  0  0  0  0  0  0
   20.5099  -22.8679  -16.6519 N   0  0  0  0  0  0  0  0  0  0  0  0
   21.9064  -23.1042  -16.3660 C   0  0  0  0  0  0  0  0  0  0  0  0
   22.7594  -21.9054  -16.7709 C   0  0  0  0  0  0  0  0  0  0  0  0
   22.9794  -21.8358  -18.2300 C   0  0  0  0  0  0  0  0  0  0  0  0
   23.7268  -20.5451  -18.5703 C   0  0  2  0  0  0  0  0  0  0  0  0
   24.8571  -20.4131  -17.6367 N   0  0  0  0  0  0  0  0  0  0  0  0
   22.8139  -19.4154  -18.3449 C   0  0  0  0  0  0  0  0  0  0  0  0
   22.8801  -18.5533  -17.4518 O   0  0  0  0  0  0  0  0  0  0  0  0
   21.7246  -19.2559  -19.2229 O   0  0  0  0  0  0  0  0  0  0  0  0
  2  1  1  6
  3  2  1  0
  4  2  1  0
  4  5  1  1
  6  4  1  0
  7  6  2  0
  9 10  1  0
  9  8  1  0
 12 11  1  6
 11 10  1  0
 12 13  1  0
 13  6  1  0
 14 15  2  0
 14 12  1  0
 16 17  1  0
 17 18  2  0
 19 20  1  0
 19 17  1  0
 21 20  1  0
 23 22  1  1
 22 21  1  0
 23 24  1  0
 24 14  1  0
 25 23  1  0
 26 25  2  0
 27 25  1  0
M  END
$$$$
