TMR.pdb
     RDKit          3D

 27 26  0  0  1  0  0  0  0  0999 V2000
   28.2978  -19.0633  -16.5225 C   0  0  0  0  0  0  0  0  0  0  0  0
   27.2465  -19.6592  -15.6169 C   0  0  1  0  0  0  0  0  0  0  0  0
   26.1945  -20.1556  -16.4187 O   0  0  0  0  0  0  0  0  0  0  0  0
   27.8193  -20.8820  -14.9038 C   0  0  2  0  0  0  0  0  0  0  0  0
   27.9498  -21.9711  -15.8917 N   0  0  0  0  0  0  0  0  0  0  0  0
   26.8595  -21.3581  -13.9084 C   0  0  0  0  0  0  0  0  0  0  0  0
   26.2454  -22.4527  -14.0995 O   0  0  0  0  0  0  0  0  0  0  0  0
   26.6074  -18.8515   -7.8343 C   0  0  0  0  0  0  0  0  0  0  0  0
   26.0235  -20.5403   -7.7152 S   0  0  0  0  0  0  0  0  0  0  0  0
   25.1847  -21.0948   -9.2431 C   0  0  0  0  0  0  0  0  0  0  0  0
   26.0530  -20.7052  -10.3898 C   0  0  0  0  0  0  0  0  0  0  0  0
   25.6548  -21.2396  -11.7412 C   0  0  2  0  0  0  0  0  0  0  0  0
   26.5818  -20.6592  -12.7344 N   0  0  0  0  0  0  0  0  0  0  0  0
   24.2989  -20.8718  -12.1757 C   0  0  0  0  0  0  0  0  0  0  0  0
   24.0552  -19.7393  -12.7239 O   0  0  0  0  0  0  0  0  0  0  0  0
   16.7345  -25.4593  -12.4929 N   0  0  0  0  0  0  0  0  0  0  0  0
   17.7563  -25.2700  -13.4518 C   0  0  0  0  0  0  0  0  0  0  0  0
   17.9371  -26.1592  -14.3801 N   0  0  0  0  0  0  0  0  0  0  0  0
   18.6149  -24.1373  -13.4549 N   0  0  0  0  0  0  0  0  0  0  0  0
   18.4817  -23.0468  -12.5164 C   0  0  0  0  0  0  0  0  0  0  0  0
   19.5505  -21.9841  -12.7554 C   0  0  0  0  0  0  0  0  0  0  0  0
   20.9017  -22.4474  -12.3786 C   0  0  0  0  0  0  0  0  0  0  0  0
   21.8918  -21.2888  -12.5120 C   0  0  2  0  0  0  0  0  0  0  0  0
   23.2000  -21.7477  -12.0176 N   0  0  0  0  0  0  0  0  0  0  0  0
   21.4339  -20.1942  -11.6444 C   0  0  0  0  0  0  0  0  0  0  0  0
   21.7568  -19.9765  -10.4639 O   0  0  0  0  0  0  0  0  0  0  0  0
   20.5230  -19.2614  -12.1762 O   0  0  0  0  0  0  0  0  0  0  0  0
  2  1  1  6
  3  2  1  0
  4  2  1  0
  4  5  1  6
  6  4  1  0
  7  6  2  0
  9 10  1  0
  9  8  1  0
 12 11  1  1
 11 10  1  0
 12 13  1  0
 13  6  1  0
 14 15  2  0
 14 12  1  0
 16 17  1  0
 17 18  2  0
 19 20  1  0
 19 17  1  0
 21 20  1  0
 23 22  1  1
 22 21  1  0
 23 24  1  0
 24 14  1  0
 25 23  1  0
 26 25  2  0
 27 25  1  0
M  END
$$$$
