TMR.pdb
     RDKit          3D

 27 26  0  0  1  0  0  0  0  0999 V2000
   20.8338  -18.6437  -18.4037 C   0  0  0  0  0  0  0  0  0  0  0  0
   20.3044  -19.1326  -17.0766 C   0  0  1  0  0  0  0  0  0  0  0  0
   19.9628  -20.4973  -17.2065 O   0  0  0  0  0  0  0  0  0  0  0  0
   21.4210  -19.0956  -16.0356 C   0  0  2  0  0  0  0  0  0  0  0  0
   20.8620  -19.5456  -14.7455 N   0  0  0  0  0  0  0  0  0  0  0  0
   21.8451  -17.7118  -15.8266 C   0  0  0  0  0  0  0  0  0  0  0  0
   21.0851  -16.9078  -15.2038 O   0  0  0  0  0  0  0  0  0  0  0  0
   27.9427  -16.4726  -15.8504 C   0  0  0  0  0  0  0  0  0  0  0  0
   27.4513  -14.7505  -15.8497 S   0  0  0  0  0  0  0  0  0  0  0  0
   25.6527  -14.5414  -15.5905 C   0  0  0  0  0  0  0  0  0  0  0  0
   25.0030  -15.8367  -15.9377 C   0  0  0  0  0  0  0  0  0  0  0  0
   23.4969  -15.8601  -15.8996 C   0  0  2  0  0  0  0  0  0  0  0  0
   23.0682  -17.2213  -16.2820 N   0  0  0  0  0  0  0  0  0  0  0  0
   22.8409  -14.9396  -16.8404 C   0  0  0  0  0  0  0  0  0  0  0  0
   22.7566  -15.2074  -18.0908 O   0  0  0  0  0  0  0  0  0  0  0  0
   15.5242   -9.9326  -17.2526 N   0  0  0  0  0  0  0  0  0  0  0  0
   16.2998   -9.7906  -18.4264 C   0  0  0  0  0  0  0  0  0  0  0  0
   15.8568   -9.0588  -19.4029 N   0  0  0  0  0  0  0  0  0  0  0  0
   17.5628  -10.4188  -18.6006 N   0  0  0  0  0  0  0  0  0  0  0  0
   18.1642  -11.2673  -17.5975 C   0  0  0  0  0  0  0  0  0  0  0  0
   19.5972  -11.6315  -17.9750 C   0  0  0  0  0  0  0  0  0  0  0  0
   20.2070  -12.5840  -17.0246 C   0  0  0  0  0  0  0  0  0  0  0  0
   21.6513  -12.8653  -17.4432 C   0  0  2  0  0  0  0  0  0  0  0  0
   22.2660  -13.7199  -16.4144 N   0  0  0  0  0  0  0  0  0  0  0  0
   22.3769  -11.5873  -17.4687 C   0  0  0  0  0  0  0  0  0  0  0  0
   23.2394  -11.1888  -16.6672 O   0  0  0  0  0  0  0  0  0  0  0  0
   22.0903  -10.6811  -18.5077 O   0  0  0  0  0  0  0  0  0  0  0  0
  2  1  1  6
  3  2  1  0
  4  2  1  0
  4  5  1  1
  6  4  1  0
  7  6  2  0
  9 10  1  0
  9  8  1  0
 12 11  1  6
 11 10  1  0
 12 13  1  0
 13  6  1  0
 14 15  2  0
 14 12  1  0
 16 17  1  0
 17 18  2  0
 19 20  1  0
 19 17  1  0
 21 20  1  0
 23 22  1  1
 22 21  1  0
 23 24  1  0
 24 14  1  0
 25 23  1  0
 26 25  2  0
 27 25  1  0
M  END
$$$$
