TMR.pdb
     RDKit          3D

 27 26  0  0  1  0  0  0  0  0999 V2000
   26.3628  -17.8495  -15.1585 C   0  0  0  0  0  0  0  0  0  0  0  0
   27.1467  -18.8847  -15.9294 C   0  0  1  0  0  0  0  0  0  0  0  0
   28.1936  -18.2320  -16.6178 O   0  0  0  0  0  0  0  0  0  0  0  0
   27.8385  -19.8337  -14.9533 C   0  0  2  0  0  0  0  0  0  0  0  0
   28.5641  -20.8519  -15.7380 N   0  0  0  0  0  0  0  0  0  0  0  0
   26.8292  -20.5638  -14.1872 C   0  0  0  0  0  0  0  0  0  0  0  0
   26.3403  -21.6384  -14.6542 O   0  0  0  0  0  0  0  0  0  0  0  0
   25.1679  -19.9951   -7.8637 C   0  0  0  0  0  0  0  0  0  0  0  0
   26.7744  -20.6321   -8.3333 S   0  0  0  0  0  0  0  0  0  0  0  0
   26.8436  -21.1102  -10.0975 C   0  0  0  0  0  0  0  0  0  0  0  0
   25.5783  -20.6439  -10.7314 C   0  0  0  0  0  0  0  0  0  0  0  0
   25.4056  -20.9646  -12.1935 C   0  0  2  0  0  0  0  0  0  0  0  0
   26.3700  -20.1335  -12.9431 N   0  0  0  0  0  0  0  0  0  0  0  0
   24.0769  -20.6533  -12.7413 C   0  0  0  0  0  0  0  0  0  0  0  0
   23.6874  -19.4437  -12.9077 O   0  0  0  0  0  0  0  0  0  0  0  0
   18.3148  -21.7188  -18.0835 N   0  0  0  0  0  0  0  0  0  0  0  0
   19.3383  -22.6943  -18.0656 C   0  0  0  0  0  0  0  0  0  0  0  0
   19.9026  -23.0521  -19.1786 N   0  0  0  0  0  0  0  0  0  0  0  0
   19.7920  -23.3187  -16.8720 N   0  0  0  0  0  0  0  0  0  0  0  0
   19.1601  -23.1150  -15.5887 C   0  0  0  0  0  0  0  0  0  0  0  0
   19.8554  -22.0054  -14.8051 C   0  0  0  0  0  0  0  0  0  0  0  0
   21.1777  -22.4192  -14.2925 C   0  0  0  0  0  0  0  0  0  0  0  0
   21.8250  -21.2476  -13.5518 C   0  0  2  0  0  0  0  0  0  0  0  0
   23.1669  -21.6683  -13.1173 N   0  0  0  0  0  0  0  0  0  0  0  0
   21.0236  -20.9666  -12.3521 C   0  0  0  0  0  0  0  0  0  0  0  0
   21.0742  -21.5459  -11.2535 O   0  0  0  0  0  0  0  0  0  0  0  0
   20.0772  -19.9258  -12.4140 O   0  0  0  0  0  0  0  0  0  0  0  0
  2  1  1  1
  3  2  1  0
  4  2  1  0
  4  5  1  6
  6  4  1  0
  7  6  2  0
  9 10  1  0
  9  8  1  0
 12 11  1  1
 11 10  1  0
 12 13  1  0
 13  6  1  0
 14 15  2  0
 14 12  1  0
 16 17  1  0
 17 18  2  0
 19 20  1  0
 19 17  1  0
 21 20  1  0
 23 22  1  1
 22 21  1  0
 23 24  1  0
 24 14  1  0
 25 23  1  0
 26 25  2  0
 27 25  1  0
M  END
$$$$
