TMR.pdb
     RDKit          3D

 27 26  0  0  1  0  0  0  0  0999 V2000
   28.3354  -18.5468  -16.0343 C   0  0  0  0  0  0  0  0  0  0  0  0
   27.3336  -19.2172  -15.1247 C   0  0  1  0  0  0  0  0  0  0  0  0
   26.3140  -19.7835  -15.9222 O   0  0  0  0  0  0  0  0  0  0  0  0
   27.9944  -20.3993  -14.4191 C   0  0  2  0  0  0  0  0  0  0  0  0
   28.1952  -21.4735  -15.4115 N   0  0  0  0  0  0  0  0  0  0  0  0
   27.0759  -20.9445  -13.4202 C   0  0  0  0  0  0  0  0  0  0  0  0
   26.3854  -21.9737  -13.6955 O   0  0  0  0  0  0  0  0  0  0  0  0
   27.3706  -20.9609   -6.6067 C   0  0  0  0  0  0  0  0  0  0  0  0
   25.9308  -20.0823   -7.2086 S   0  0  0  0  0  0  0  0  0  0  0  0
   25.2831  -20.7935   -8.7644 C   0  0  0  0  0  0  0  0  0  0  0  0
   26.2256  -20.4077   -9.8523 C   0  0  0  0  0  0  0  0  0  0  0  0
   25.9137  -20.9407  -11.2267 C   0  0  2  0  0  0  0  0  0  0  0  0
   26.9197  -20.3828  -12.1537 N   0  0  0  0  0  0  0  0  0  0  0  0
   24.5992  -20.5491  -11.7573 C   0  0  0  0  0  0  0  0  0  0  0  0
   24.3492  -19.3406  -12.1027 O   0  0  0  0  0  0  0  0  0  0  0  0
   24.1670  -22.8103  -16.9477 N   0  0  0  0  0  0  0  0  0  0  0  0
   22.9765  -22.6107  -17.6842 C   0  0  0  0  0  0  0  0  0  0  0  0
   23.0448  -22.3357  -18.9510 N   0  0  0  0  0  0  0  0  0  0  0  0
   21.6826  -22.6948  -17.1019 N   0  0  0  0  0  0  0  0  0  0  0  0
   21.4663  -23.0059  -15.7076 C   0  0  0  0  0  0  0  0  0  0  0  0
   21.9158  -21.8544  -14.8128 C   0  0  0  0  0  0  0  0  0  0  0  0
   21.7234  -22.1461  -13.3774 C   0  0  0  0  0  0  0  0  0  0  0  0
   22.3067  -21.0036  -12.5440 C   0  0  2  0  0  0  0  0  0  0  0  0
   23.5501  -21.4834  -11.9193 N   0  0  0  0  0  0  0  0  0  0  0  0
   21.3512  -20.6850  -11.4734 C   0  0  0  0  0  0  0  0  0  0  0  0
   20.4721  -19.8061  -11.4783 O   0  0  0  0  0  0  0  0  0  0  0  0
   21.4053  -21.4422  -10.2875 O   0  0  0  0  0  0  0  0  0  0  0  0
  2  1  1  6
  3  2  1  0
  4  2  1  0
  4  5  1  6
  6  4  1  0
  7  6  2  0
  9 10  1  0
  9  8  1  0
 12 11  1  1
 11 10  1  0
 12 13  1  0
 13  6  1  0
 14 15  2  0
 14 12  1  0
 16 17  1  0
 17 18  2  0
 19 20  1  0
 19 17  1  0
 21 20  1  0
 23 22  1  6
 22 21  1  0
 23 24  1  0
 24 14  1  0
 25 23  1  0
 26 25  2  0
 27 25  1  0
M  END
$$$$
