TMR.pdb
     RDKit          3D

 27 26  0  0  1  0  0  0  0  0999 V2000
   26.9895  -18.1293  -13.7511 C   0  0  0  0  0  0  0  0  0  0  0  0
   27.0988  -19.3664  -14.6101 C   0  0  1  0  0  0  0  0  0  0  0  0
   27.9301  -19.0726  -15.7140 O   0  0  0  0  0  0  0  0  0  0  0  0
   27.8295  -20.4624  -13.8378 C   0  0  2  0  0  0  0  0  0  0  0  0
   27.8559  -21.6767  -14.6767 N   0  0  0  0  0  0  0  0  0  0  0  0
   27.0572  -20.8157  -12.6472 C   0  0  0  0  0  0  0  0  0  0  0  0
   26.1959  -21.7465  -12.7092 O   0  0  0  0  0  0  0  0  0  0  0  0
   26.9318  -20.0613   -4.7628 C   0  0  0  0  0  0  0  0  0  0  0  0
   27.6022  -19.7930   -6.4016 S   0  0  0  0  0  0  0  0  0  0  0  0
   26.5135  -20.4540   -7.7144 C   0  0  0  0  0  0  0  0  0  0  0  0
   27.1878  -20.1973   -9.0182 C   0  0  0  0  0  0  0  0  0  0  0  0
   26.4302  -20.6072  -10.2544 C   0  0  2  0  0  0  0  0  0  0  0  0
   27.2246  -20.1724  -11.4217 N   0  0  0  0  0  0  0  0  0  0  0  0
   25.1050  -19.9866  -10.4008 C   0  0  0  0  0  0  0  0  0  0  0  0
   24.9436  -18.8992  -11.0595 O   0  0  0  0  0  0  0  0  0  0  0  0
   22.5562  -18.4661  -16.2815 N   0  0  0  0  0  0  0  0  0  0  0  0
   23.5935  -19.3941  -16.0316 C   0  0  0  0  0  0  0  0  0  0  0  0
   24.7050  -19.3077  -16.6966 N   0  0  0  0  0  0  0  0  0  0  0  0
   23.4837  -20.4387  -15.0739 N   0  0  0  0  0  0  0  0  0  0  0  0
   22.2722  -20.7010  -14.3316 C   0  0  0  0  0  0  0  0  0  0  0  0
   22.3289  -20.0631  -12.9465 C   0  0  0  0  0  0  0  0  0  0  0  0
   22.7636  -21.0149  -11.9037 C   0  0  0  0  0  0  0  0  0  0  0  0
   22.6686  -20.3442  -10.5320 C   0  0  2  0  0  0  0  0  0  0  0  0
   23.9446  -20.5588   -9.8302 N   0  0  0  0  0  0  0  0  0  0  0  0
   21.6082  -21.0160   -9.7673 C   0  0  0  0  0  0  0  0  0  0  0  0
   21.7396  -21.7544   -8.7761 O   0  0  0  0  0  0  0  0  0  0  0  0
   20.2734  -20.8248  -10.1731 O   0  0  0  0  0  0  0  0  0  0  0  0
  2  1  1  1
  3  2  1  0
  4  2  1  0
  4  5  1  6
  6  4  1  0
  7  6  2  0
  9 10  1  0
  9  8  1  0
 12 11  1  1
 11 10  1  0
 12 13  1  0
 13  6  1  0
 14 15  2  0
 14 12  1  0
 16 17  1  0
 17 18  2  0
 19 20  1  0
 19 17  1  0
 21 20  1  0
 23 22  1  6
 22 21  1  0
 23 24  1  0
 24 14  1  0
 25 23  1  0
 26 25  2  0
 27 25  1  0
M  END
$$$$
