TMR.pdb
     RDKit          3D

 27 26  0  0  1  0  0  0  0  0999 V2000
   18.4086  -29.7538  -11.7615 C   0  0  0  0  0  0  0  0  0  0  0  0
   19.8857  -29.9759  -11.9830 C   0  0  1  0  0  0  0  0  0  0  0  0
   20.0468  -31.0692  -12.8632 O   0  0  0  0  0  0  0  0  0  0  0  0
   20.4784  -28.7767  -12.7196 C   0  0  2  0  0  0  0  0  0  0  0  0
   21.9338  -28.9882  -12.8462 N   0  0  0  0  0  0  0  0  0  0  0  0
   20.3186  -27.5757  -11.9007 C   0  0  0  0  0  0  0  0  0  0  0  0
   21.1451  -27.3360  -10.9672 O   0  0  0  0  0  0  0  0  0  0  0  0
   19.7503  -21.3466  -13.8657 C   0  0  0  0  0  0  0  0  0  0  0  0
   18.2483  -21.7984  -13.0015 S   0  0  0  0  0  0  0  0  0  0  0  0
   18.5586  -22.9803  -11.6404 C   0  0  0  0  0  0  0  0  0  0  0  0
   18.8770  -24.2965  -12.2624 C   0  0  0  0  0  0  0  0  0  0  0  0
   19.2630  -25.4057  -11.3185 C   0  0  2  0  0  0  0  0  0  0  0  0
   19.2865  -26.6597  -12.0993 N   0  0  0  0  0  0  0  0  0  0  0  0
   18.3242  -25.6266  -10.2083 C   0  0  0  0  0  0  0  0  0  0  0  0
   17.1222  -26.0199  -10.4156 O   0  0  0  0  0  0  0  0  0  0  0  0
   18.6183  -26.6008   -1.1595 N   0  0  0  0  0  0  0  0  0  0  0  0
   17.3135  -26.7420   -1.6860 C   0  0  0  0  0  0  0  0  0  0  0  0
   16.3299  -27.0358   -0.8915 N   0  0  0  0  0  0  0  0  0  0  0  0
   17.0133  -26.5780   -3.0656 N   0  0  0  0  0  0  0  0  0  0  0  0
   18.0064  -26.2085   -4.0480 C   0  0  0  0  0  0  0  0  0  0  0  0
   17.3718  -26.0119   -5.4218 C   0  0  0  0  0  0  0  0  0  0  0  0
   18.3745  -25.7528   -6.4753 C   0  0  0  0  0  0  0  0  0  0  0  0
   17.6721  -25.6458   -7.8301 C   0  0  2  0  0  0  0  0  0  0  0  0
   18.6998  -25.4234   -8.8602 N   0  0  0  0  0  0  0  0  0  0  0  0
   16.7948  -24.4668   -7.7982 C   0  0  0  0  0  0  0  0  0  0  0  0
   17.0683  -23.3081   -8.1555 O   0  0  0  0  0  0  0  0  0  0  0  0
   15.4826  -24.6280   -7.3137 O   0  0  0  0  0  0  0  0  0  0  0  0
  2  1  1  6
  3  2  1  0
  4  2  1  0
  4  5  1  1
  6  4  1  0
  7  6  2  0
  9 10  1  0
  9  8  1  0
 12 11  1  6
 11 10  1  0
 12 13  1  0
 13  6  1  0
 14 15  2  0
 14 12  1  0
 16 17  1  0
 17 18  2  0
 19 20  1  0
 19 17  1  0
 21 20  1  0
 23 22  1  1
 22 21  1  0
 23 24  1  0
 24 14  1  0
 25 23  1  0
 26 25  2  0
 27 25  1  0
M  END
$$$$
