TMR.pdb
     RDKit          3D

 27 26  0  0  1  0  0  0  0  0999 V2000
   22.4455  -13.0341  -20.5659 C   0  0  0  0  0  0  0  0  0  0  0  0
   21.7772  -14.1116  -19.7457 C   0  0  1  0  0  0  0  0  0  0  0  0
   21.4103  -15.1682  -20.6088 O   0  0  0  0  0  0  0  0  0  0  0  0
   22.7893  -14.7181  -18.7763 C   0  0  2  0  0  0  0  0  0  0  0  0
   22.1137  -15.7877  -18.0156 N   0  0  0  0  0  0  0  0  0  0  0  0
   23.1808  -13.7120  -17.7898 C   0  0  0  0  0  0  0  0  0  0  0  0
   22.3722  -13.3883  -16.8662 O   0  0  0  0  0  0  0  0  0  0  0  0
   28.9181  -13.1586  -14.9785 C   0  0  0  0  0  0  0  0  0  0  0  0
   28.6255  -11.4739  -15.5108 S   0  0  0  0  0  0  0  0  0  0  0  0
   26.8436  -11.1003  -15.6862 C   0  0  0  0  0  0  0  0  0  0  0  0
   26.2526  -12.1619  -16.5487 C   0  0  0  0  0  0  0  0  0  0  0  0
   24.7615  -12.1006  -16.7569 C   0  0  2  0  0  0  0  0  0  0  0  0
   24.4236  -13.0804  -17.8098 N   0  0  0  0  0  0  0  0  0  0  0  0
   24.2560  -10.8007  -17.2231 C   0  0  0  0  0  0  0  0  0  0  0  0
   24.4216  -10.4123  -18.4331 O   0  0  0  0  0  0  0  0  0  0  0  0
   17.5198   -5.1164  -15.2891 N   0  0  0  0  0  0  0  0  0  0  0  0
   18.4206   -4.5565  -16.2243 C   0  0  0  0  0  0  0  0  0  0  0  0
   18.1803   -3.3819  -16.7220 N   0  0  0  0  0  0  0  0  0  0  0  0
   19.5981   -5.2230  -16.6598 N   0  0  0  0  0  0  0  0  0  0  0  0
   20.0123   -6.5068  -16.1420 C   0  0  0  0  0  0  0  0  0  0  0  0
   21.3483   -6.9349  -16.7425 C   0  0  0  0  0  0  0  0  0  0  0  0
   21.8033   -8.2444  -16.2320 C   0  0  0  0  0  0  0  0  0  0  0  0
   23.1036   -8.6398  -16.9343 C   0  0  2  0  0  0  0  0  0  0  0  0
   23.5583   -9.9190  -16.3655 N   0  0  0  0  0  0  0  0  0  0  0  0
   24.1162   -7.6188  -16.6296 C   0  0  0  0  0  0  0  0  0  0  0  0
   24.8495   -7.5531  -15.6281 O   0  0  0  0  0  0  0  0  0  0  0  0
   24.3089   -6.5767  -17.5568 O   0  0  0  0  0  0  0  0  0  0  0  0
  2  1  1  6
  3  2  1  0
  4  2  1  0
  4  5  1  1
  6  4  1  0
  7  6  2  0
  9 10  1  0
  9  8  1  0
 12 11  1  6
 11 10  1  0
 12 13  1  0
 13  6  1  0
 14 15  2  0
 14 12  1  0
 16 17  1  0
 17 18  2  0
 19 20  1  0
 19 17  1  0
 21 20  1  0
 23 22  1  1
 22 21  1  0
 23 24  1  0
 24 14  1  0
 25 23  1  0
 26 25  2  0
 27 25  1  0
M  END
$$$$
