TMR.pdb
     RDKit          3D

 27 26  0  0  1  0  0  0  0  0999 V2000
   28.4180  -18.0701  -15.5641 C   0  0  0  0  0  0  0  0  0  0  0  0
   27.4573  -18.7876  -14.6463 C   0  0  1  0  0  0  0  0  0  0  0  0
   26.3332  -19.1902  -15.4015 O   0  0  0  0  0  0  0  0  0  0  0  0
   28.0942  -20.0846  -14.1521 C   0  0  2  0  0  0  0  0  0  0  0  0
   28.1550  -21.0282  -15.2856 N   0  0  0  0  0  0  0  0  0  0  0  0
   27.2198  -20.7080  -13.1593 C   0  0  0  0  0  0  0  0  0  0  0  0
   26.5105  -21.7091  -13.4857 O   0  0  0  0  0  0  0  0  0  0  0  0
   27.7946  -19.3171   -7.1075 C   0  0  0  0  0  0  0  0  0  0  0  0
   26.3530  -20.3492   -6.8552 S   0  0  0  0  0  0  0  0  0  0  0  0
   25.6582  -20.9691   -8.4295 C   0  0  0  0  0  0  0  0  0  0  0  0
   26.5566  -20.5022   -9.5229 C   0  0  0  0  0  0  0  0  0  0  0  0
   26.1484  -20.8700  -10.9260 C   0  0  2  0  0  0  0  0  0  0  0  0
   27.1266  -20.2525  -11.8449 N   0  0  0  0  0  0  0  0  0  0  0  0
   24.8257  -20.3736  -11.3345 C   0  0  0  0  0  0  0  0  0  0  0  0
   24.6575  -19.1688  -11.7376 O   0  0  0  0  0  0  0  0  0  0  0  0
   21.0068  -19.5463  -16.9316 N   0  0  0  0  0  0  0  0  0  0  0  0
   19.9376  -20.4713  -16.9065 C   0  0  0  0  0  0  0  0  0  0  0  0
   18.8365  -20.1958  -17.5365 N   0  0  0  0  0  0  0  0  0  0  0  0
   20.0024  -21.7110  -16.2143 N   0  0  0  0  0  0  0  0  0  0  0  0
   21.1499  -22.1185  -15.4365 C   0  0  0  0  0  0  0  0  0  0  0  0
   21.2911  -21.2650  -14.1793 C   0  0  0  0  0  0  0  0  0  0  0  0
   22.4651  -21.6455  -13.3672 C   0  0  0  0  0  0  0  0  0  0  0  0
   22.5198  -20.7720  -12.1126 C   0  0  2  0  0  0  0  0  0  0  0  0
   23.6776  -21.1988  -11.3100 N   0  0  0  0  0  0  0  0  0  0  0  0
   21.3026  -21.0227  -11.3277 C   0  0  0  0  0  0  0  0  0  0  0  0
   21.1226  -21.9016  -10.4673 O   0  0  0  0  0  0  0  0  0  0  0  0
   20.1879  -20.1905  -11.5462 O   0  0  0  0  0  0  0  0  0  0  0  0
  2  1  1  6
  3  2  1  0
  4  2  1  0
  4  5  1  6
  6  4  1  0
  7  6  2  0
  9 10  1  0
  9  8  1  0
 12 11  1  1
 11 10  1  0
 12 13  1  0
 13  6  1  0
 14 15  2  0
 14 12  1  0
 16 17  1  0
 17 18  2  0
 19 20  1  0
 19 17  1  0
 21 20  1  0
 23 22  1  6
 22 21  1  0
 23 24  1  0
 24 14  1  0
 25 23  1  0
 26 25  2  0
 27 25  1  0
M  END
$$$$
