TMR.pdb
     RDKit          3D

 27 26  0  0  1  0  0  0  0  0999 V2000
   21.5405  -15.9289  -20.7054 C   0  0  0  0  0  0  0  0  0  0  0  0
   21.6334  -17.0713  -19.7223 C   0  0  1  0  0  0  0  0  0  0  0  0
   21.3541  -18.2749  -20.4073 O   0  0  0  0  0  0  0  0  0  0  0  0
   23.0741  -17.2114  -19.2356 C   0  0  2  0  0  0  0  0  0  0  0  0
   23.1254  -18.3215  -18.2640 N   0  0  0  0  0  0  0  0  0  0  0  0
   23.4548  -16.0112  -18.4918 C   0  0  0  0  0  0  0  0  0  0  0  0
   23.6441  -16.0813  -17.2384 O   0  0  0  0  0  0  0  0  0  0  0  0
   28.4385  -12.7755  -15.4153 C   0  0  0  0  0  0  0  0  0  0  0  0
   27.1403  -13.7708  -16.1440 S   0  0  0  0  0  0  0  0  0  0  0  0
   27.0170  -13.5350  -17.9537 C   0  0  0  0  0  0  0  0  0  0  0  0
   25.9099  -14.4068  -18.4382 C   0  0  0  0  0  0  0  0  0  0  0  0
   24.5413  -13.7792  -18.4953 C   0  0  2  0  0  0  0  0  0  0  0  0
   23.6280  -14.7696  -19.1019 N   0  0  0  0  0  0  0  0  0  0  0  0
   24.4509  -12.5691  -19.3261 C   0  0  0  0  0  0  0  0  0  0  0  0
   24.6861  -12.6020  -20.5855 O   0  0  0  0  0  0  0  0  0  0  0  0
   20.6894   -7.8227  -14.7720 N   0  0  0  0  0  0  0  0  0  0  0  0
   21.0967   -7.0088  -15.8542 C   0  0  0  0  0  0  0  0  0  0  0  0
   21.1708   -5.7224  -15.6967 N   0  0  0  0  0  0  0  0  0  0  0  0
   21.4350   -7.5319  -17.1318 N   0  0  0  0  0  0  0  0  0  0  0  0
   21.3644   -8.9397  -17.4491 C   0  0  0  0  0  0  0  0  0  0  0  0
   21.8946   -9.2124  -18.8539 C   0  0  0  0  0  0  0  0  0  0  0  0
   23.3539   -9.0066  -18.9566 C   0  0  0  0  0  0  0  0  0  0  0  0
   23.9805  -10.1795  -19.7128 C   0  0  2  0  0  0  0  0  0  0  0  0
   24.0950  -11.3136  -18.7815 N   0  0  0  0  0  0  0  0  0  0  0  0
   25.3362   -9.7868  -20.1230 C   0  0  0  0  0  0  0  0  0  0  0  0
   26.3838   -9.8715  -19.4593 O   0  0  0  0  0  0  0  0  0  0  0  0
   25.5105   -9.2479  -21.4123 O   0  0  0  0  0  0  0  0  0  0  0  0
  2  1  1  6
  3  2  1  0
  4  2  1  0
  4  5  1  1
  6  4  1  0
  7  6  2  0
  9 10  1  0
  9  8  1  0
 12 11  1  6
 11 10  1  0
 12 13  1  0
 13  6  1  0
 14 15  2  0
 14 12  1  0
 16 17  1  0
 17 18  2  0
 19 20  1  0
 19 17  1  0
 21 20  1  0
 23 22  1  1
 22 21  1  0
 23 24  1  0
 24 14  1  0
 25 23  1  0
 26 25  2  0
 27 25  1  0
M  END
$$$$
