TMR.pdb
     RDKit          3D

 27 26  0  0  1  0  0  0  0  0999 V2000
   28.4361  -21.8479  -16.1580 C   0  0  0  0  0  0  0  0  0  0  0  0
   28.5752  -20.5001  -15.4913 C   0  0  1  0  0  0  0  0  0  0  0  0
   29.2462  -19.6292  -16.3785 O   0  0  0  0  0  0  0  0  0  0  0  0
   27.1926  -19.8831  -15.2920 C   0  0  2  0  0  0  0  0  0  0  0  0
   27.3700  -18.5267  -14.7371 N   0  0  0  0  0  0  0  0  0  0  0  0
   26.4648  -20.6396  -14.2739 C   0  0  0  0  0  0  0  0  0  0  0  0
   26.1762  -21.8583  -14.4819 O   0  0  0  0  0  0  0  0  0  0  0  0
   26.3830  -19.0052   -8.1777 C   0  0  0  0  0  0  0  0  0  0  0  0
   27.4333  -20.4083   -8.5458 S   0  0  0  0  0  0  0  0  0  0  0  0
   27.0907  -21.1186  -10.1962 C   0  0  0  0  0  0  0  0  0  0  0  0
   25.8416  -20.4815  -10.7005 C   0  0  0  0  0  0  0  0  0  0  0  0
   25.3710  -20.9198  -12.0631 C   0  0  2  0  0  0  0  0  0  0  0  0
   26.0672  -20.0806  -13.0600 N   0  0  0  0  0  0  0  0  0  0  0  0
   23.9314  -20.7430  -12.3058 C   0  0  0  0  0  0  0  0  0  0  0  0
   23.4735  -19.6962  -12.8863 O   0  0  0  0  0  0  0  0  0  0  0  0
   16.6005  -25.2307   -9.7290 N   0  0  0  0  0  0  0  0  0  0  0  0
   17.7245  -24.5572   -9.1975 C   0  0  0  0  0  0  0  0  0  0  0  0
   18.1453  -24.8540   -8.0058 N   0  0  0  0  0  0  0  0  0  0  0  0
   18.4328  -23.5516   -9.9097 N   0  0  0  0  0  0  0  0  0  0  0  0
   18.4050  -23.4406  -11.3501 C   0  0  0  0  0  0  0  0  0  0  0  0
   19.2972  -22.2991  -11.8293 C   0  0  0  0  0  0  0  0  0  0  0  0
   20.7289  -22.5535  -11.5684 C   0  0  0  0  0  0  0  0  0  0  0  0
   21.5620  -21.4071  -12.1444 C   0  0  2  0  0  0  0  0  0  0  0  0
   22.9829  -21.7178  -11.9187 N   0  0  0  0  0  0  0  0  0  0  0  0
   21.2371  -20.1848  -11.3953 C   0  0  0  0  0  0  0  0  0  0  0  0
   21.6936  -19.8248  -10.2966 O   0  0  0  0  0  0  0  0  0  0  0  0
   20.3044  -19.2907  -11.9550 O   0  0  0  0  0  0  0  0  0  0  0  0
  2  1  1  6
  3  2  1  0
  4  2  1  0
  4  5  1  1
  6  4  1  0
  7  6  2  0
  9 10  1  0
  9  8  1  0
 12 11  1  1
 11 10  1  0
 12 13  1  0
 13  6  1  0
 14 15  2  0
 14 12  1  0
 16 17  1  0
 17 18  2  0
 19 20  1  0
 19 17  1  0
 21 20  1  0
 23 22  1  1
 22 21  1  0
 23 24  1  0
 24 14  1  0
 25 23  1  0
 26 25  2  0
 27 25  1  0
M  END
$$$$
