TMR.pdb
     RDKit          3D

 27 26  0  0  1  0  0  0  0  0999 V2000
   28.7355  -20.7812  -16.1447 C   0  0  0  0  0  0  0  0  0  0  0  0
   28.7188  -19.6032  -15.2001 C   0  0  1  0  0  0  0  0  0  0  0  0
   29.3324  -18.5051  -15.8433 O   0  0  0  0  0  0  0  0  0  0  0  0
   27.2765  -19.1678  -14.9510 C   0  0  2  0  0  0  0  0  0  0  0  0
   27.2990  -17.9853  -14.0677 N   0  0  0  0  0  0  0  0  0  0  0  0
   26.5758  -20.2116  -14.2039 C   0  0  0  0  0  0  0  0  0  0  0  0
   26.3290  -21.3258  -14.7603 O   0  0  0  0  0  0  0  0  0  0  0  0
   25.9653  -19.5798   -7.9416 C   0  0  0  0  0  0  0  0  0  0  0  0
   26.8955  -21.0458   -8.3806 S   0  0  0  0  0  0  0  0  0  0  0  0
   26.9433  -21.3229  -10.1880 C   0  0  0  0  0  0  0  0  0  0  0  0
   25.6051  -20.9502  -10.7274 C   0  0  0  0  0  0  0  0  0  0  0  0
   25.4106  -21.1250  -12.2113 C   0  0  2  0  0  0  0  0  0  0  0  0
   26.1601  -20.0438  -12.8837 N   0  0  0  0  0  0  0  0  0  0  0  0
   24.0178  -21.0102  -12.6693 C   0  0  0  0  0  0  0  0  0  0  0  0
   23.4978  -19.8741  -12.9544 O   0  0  0  0  0  0  0  0  0  0  0  0
   16.5821  -22.8207  -14.9651 N   0  0  0  0  0  0  0  0  0  0  0  0
   17.2673  -23.6583  -15.8752 C   0  0  0  0  0  0  0  0  0  0  0  0
   16.8126  -23.8006  -17.0827 N   0  0  0  0  0  0  0  0  0  0  0  0
   18.4500  -24.3689  -15.5337 N   0  0  0  0  0  0  0  0  0  0  0  0
   19.0136  -24.3646  -14.2033 C   0  0  0  0  0  0  0  0  0  0  0  0
   19.7343  -23.0502  -13.9175 C   0  0  0  0  0  0  0  0  0  0  0  0
   21.1575  -23.2493  -13.5747 C   0  0  0  0  0  0  0  0  0  0  0  0
   21.7797  -21.9064  -13.1876 C   0  0  2  0  0  0  0  0  0  0  0  0
   23.1863  -22.1434  -12.8244 N   0  0  0  0  0  0  0  0  0  0  0  0
   21.0790  -21.4044  -11.9970 C   0  0  0  0  0  0  0  0  0  0  0  0
   21.4127  -21.5396  -10.8073 O   0  0  0  0  0  0  0  0  0  0  0  0
   19.8863  -20.6797  -12.1843 O   0  0  0  0  0  0  0  0  0  0  0  0
  2  1  1  6
  3  2  1  0
  4  2  1  0
  4  5  1  1
  6  4  1  0
  7  6  2  0
  9 10  1  0
  9  8  1  0
 12 11  1  1
 11 10  1  0
 12 13  1  0
 13  6  1  0
 14 15  2  0
 14 12  1  0
 16 17  1  0
 17 18  2  0
 19 20  1  0
 19 17  1  0
 21 20  1  0
 23 22  1  1
 22 21  1  0
 23 24  1  0
 24 14  1  0
 25 23  1  0
 26 25  2  0
 27 25  1  0
M  END
$$$$
