GSV.pdb
     RDKit          3D

 18 17  0  0  1  0  0  0  0  0999 V2000
   21.7137  -11.9146  -19.2313 N   0  0  0  0  0  0  0  0  0  0  0  0
   22.4370  -10.7426  -18.9076 C   0  0  0  0  0  0  0  0  0  0  0  0
   21.8897   -9.9504  -17.7967 C   0  0  0  0  0  0  0  0  0  0  0  0
   20.8472   -9.2860  -18.0011 O   0  0  0  0  0  0  0  0  0  0  0  0
   23.3923  -10.3255  -14.0147 O   0  0  0  0  0  0  0  0  0  0  0  0
   22.1937   -9.6156  -14.0671 C   0  0  0  0  0  0  0  0  0  0  0  0
   21.8777   -9.1204  -15.4469 C   0  0  2  0  0  0  0  0  0  0  0  0
   22.4538   -9.8782  -16.4997 N   0  0  0  0  0  0  0  0  0  0  0  0
   22.3582   -7.7173  -15.5427 C   0  0  0  0  0  0  0  0  0  0  0  0
   23.5146   -7.4551  -15.9263 O   0  0  0  0  0  0  0  0  0  0  0  0
   20.4699   -4.8818  -17.3518 C   0  0  0  0  0  0  0  0  0  0  0  0
   20.8385   -4.3921  -15.9844 C   0  0  1  0  0  0  0  0  0  0  0  0
   19.6152   -4.4098  -15.1136 C   0  0  0  0  0  0  0  0  0  0  0  0
   21.9083   -5.2390  -15.3344 C   0  0  2  0  0  0  0  0  0  0  0  0
   21.4972   -6.6165  -15.1932 N   0  0  0  0  0  0  0  0  0  0  0  0
   22.3284   -4.7165  -14.0281 C   0  0  0  0  0  0  0  0  0  0  0  0
   22.9937   -3.6622  -13.9373 O   0  0  0  0  0  0  0  0  0  0  0  0
   22.0048   -5.3709  -12.8377 O   0  0  0  0  0  0  0  0  0  0  0  0
  2  3  1  0
  2  1  1  0
  3  4  2  0
  6  5  1  0
  7  6  1  1
  7  9  1  0
  8  7  1  0
  8  3  1  0
  9 15  1  0
 10  9  2  0
 12 11  1  6
 12 14  1  0
 13 12  1  0
 14 16  1  0
 14 15  1  1
 16 17  2  0
 16 18  1  0
M  END
$$$$
