GSV.pdb
     RDKit          3D

 18 17  0  0  1  0  0  0  0  0999 V2000
   19.4446   -6.9820  -17.8083 N   0  0  0  0  0  0  0  0  0  0  0  0
   18.4702   -6.0433  -17.3951 C   0  0  0  0  0  0  0  0  0  0  0  0
   18.8929   -5.1233  -16.3293 C   0  0  0  0  0  0  0  0  0  0  0  0
   18.0420   -4.3342  -15.8569 O   0  0  0  0  0  0  0  0  0  0  0  0
   22.0937   -3.6025  -12.9861 O   0  0  0  0  0  0  0  0  0  0  0  0
   21.7616   -4.5461  -13.9570 C   0  0  0  0  0  0  0  0  0  0  0  0
   20.5720   -4.1378  -14.7736 C   0  0  2  0  0  0  0  0  0  0  0  0
   20.2002   -5.0577  -15.7884 N   0  0  0  0  0  0  0  0  0  0  0  0
   20.8849   -2.8272  -15.4007 C   0  0  0  0  0  0  0  0  0  0  0  0
   21.6080   -2.7514  -16.4128 O   0  0  0  0  0  0  0  0  0  0  0  0
   18.6101    0.6749  -14.3338 C   0  0  0  0  0  0  0  0  0  0  0  0
   19.3549    0.4973  -15.6219 C   0  0  1  0  0  0  0  0  0  0  0  0
   19.7197    1.8490  -16.1649 C   0  0  0  0  0  0  0  0  0  0  0  0
   20.6186   -0.3144  -15.4534 C   0  0  2  0  0  0  0  0  0  0  0  0
   20.3590   -1.6026  -14.8538 N   0  0  0  0  0  0  0  0  0  0  0  0
   21.6451    0.3905  -14.6753 C   0  0  0  0  0  0  0  0  0  0  0  0
   21.7996    0.1655  -13.4556 O   0  0  0  0  0  0  0  0  0  0  0  0
   22.4881    1.3373  -15.2610 O   0  0  0  0  0  0  0  0  0  0  0  0
  2  3  1  0
  2  1  1  0
  3  4  2  0
  6  5  1  0
  7  6  1  6
  7  9  1  0
  8  7  1  0
  8  3  1  0
  9 15  1  0
 10  9  2  0
 12 11  1  1
 12 14  1  0
 13 12  1  0
 14 16  1  0
 14 15  1  1
 16 17  2  0
 16 18  1  0
M  END
$$$$
