GSV.pdb
     RDKit          3D

 18 17  0  0  1  0  0  0  0  0999 V2000
   18.0220  -15.5453  -16.0901 N   0  0  0  0  0  0  0  0  0  0  0  0
   17.3927  -14.2947  -16.2931 C   0  0  0  0  0  0  0  0  0  0  0  0
   18.2985  -13.1708  -16.5716 C   0  0  0  0  0  0  0  0  0  0  0  0
   19.5329  -13.3810  -16.5284 O   0  0  0  0  0  0  0  0  0  0  0  0
   19.1533   -8.7578  -18.4180 O   0  0  0  0  0  0  0  0  0  0  0  0
   18.2038   -9.7097  -18.0493 C   0  0  0  0  0  0  0  0  0  0  0  0
   18.7883  -10.8154  -17.2219 C   0  0  2  0  0  0  0  0  0  0  0  0
   17.8813  -11.8549  -16.8884 N   0  0  0  0  0  0  0  0  0  0  0  0
   19.3127  -10.2115  -15.9694 C   0  0  0  0  0  0  0  0  0  0  0  0
   18.5743  -10.0267  -14.9826 O   0  0  0  0  0  0  0  0  0  0  0  0
   22.8248  -11.2655  -14.4564 C   0  0  0  0  0  0  0  0  0  0  0  0
   22.6894   -9.7733  -14.4361 C   0  0  1  0  0  0  0  0  0  0  0  0
   23.5333   -9.1918  -15.5336 C   0  0  0  0  0  0  0  0  0  0  0  0
   21.2613   -9.3183  -14.6302 C   0  0  2  0  0  0  0  0  0  0  0  0
   20.6951   -9.8210  -15.8604 N   0  0  0  0  0  0  0  0  0  0  0  0
   21.1215   -7.8573  -14.5874 C   0  0  0  0  0  0  0  0  0  0  0  0
   20.8810   -7.2004  -15.6232 O   0  0  0  0  0  0  0  0  0  0  0  0
   21.2504   -7.1427  -13.3946 O   0  0  0  0  0  0  0  0  0  0  0  0
  2  3  1  0
  2  1  1  0
  3  4  2  0
  6  5  1  0
  7  6  1  6
  7  9  1  0
  8  7  1  0
  8  3  1  0
  9 15  1  0
 10  9  2  0
 12 11  1  6
 12 14  1  0
 13 12  1  0
 14 16  1  0
 14 15  1  6
 16 17  2  0
 16 18  1  0
M  END
$$$$
