GSV.pdb
     RDKit          3D

 18 17  0  0  1  0  0  0  0  0999 V2000
   18.3681  -14.3404  -18.9075 N   0  0  0  0  0  0  0  0  0  0  0  0
   18.5863  -12.9468  -19.0147 C   0  0  0  0  0  0  0  0  0  0  0  0
   19.3994  -12.3516  -17.9443 C   0  0  0  0  0  0  0  0  0  0  0  0
   18.9590  -12.3965  -16.7722 O   0  0  0  0  0  0  0  0  0  0  0  0
   23.0025  -10.1191  -18.5687 O   0  0  0  0  0  0  0  0  0  0  0  0
   22.8137  -10.8193  -17.3781 C   0  0  0  0  0  0  0  0  0  0  0  0
   21.3661  -11.0827  -17.0884 C   0  0  2  0  0  0  0  0  0  0  0  0
   20.6549  -11.7246  -18.1355 N   0  0  0  0  0  0  0  0  0  0  0  0
   20.7207   -9.7764  -16.7959 C   0  0  0  0  0  0  0  0  0  0  0  0
   20.2444   -9.0725  -17.7074 O   0  0  0  0  0  0  0  0  0  0  0  0
   17.7927   -9.0149  -14.6985 C   0  0  0  0  0  0  0  0  0  0  0  0
   18.8811   -8.1318  -14.1685 C   0  0  1  0  0  0  0  0  0  0  0  0
   19.3865   -8.7031  -12.8750 C   0  0  0  0  0  0  0  0  0  0  0  0
   20.0419   -8.0032  -15.1278 C   0  0  2  0  0  0  0  0  0  0  0  0
   20.6270   -9.2851  -15.4449 N   0  0  0  0  0  0  0  0  0  0  0  0
   21.0861   -7.0961  -14.6350 C   0  0  0  0  0  0  0  0  0  0  0  0
   22.1973   -7.5311  -14.2633 O   0  0  0  0  0  0  0  0  0  0  0  0
   20.8840   -5.7163  -14.5607 O   0  0  0  0  0  0  0  0  0  0  0  0
  2  3  1  0
  2  1  1  0
  3  4  2  0
  6  5  1  0
  7  6  1  6
  7  9  1  0
  8  7  1  0
  8  3  1  0
  9 15  1  0
 10  9  2  0
 12 11  1  6
 12 14  1  0
 13 12  1  0
 14 16  1  0
 14 15  1  1
 16 17  2  0
 16 18  1  0
M  END
$$$$
