GSV.pdb
     RDKit          3D

 18 17  0  0  1  0  0  0  0  0999 V2000
   29.7112  -23.4730  -16.6093 N   0  0  0  0  0  0  0  0  0  0  0  0
   28.6824  -22.5807  -16.9921 C   0  0  0  0  0  0  0  0  0  0  0  0
   28.1813  -21.7013  -15.9260 C   0  0  0  0  0  0  0  0  0  0  0  0
   28.5781  -21.9055  -14.7552 O   0  0  0  0  0  0  0  0  0  0  0  0
   27.1477  -17.6440  -16.0713 O   0  0  0  0  0  0  0  0  0  0  0  0
   26.2128  -18.5012  -15.4929 C   0  0  0  0  0  0  0  0  0  0  0  0
   26.8163  -19.8042  -15.0608 C   0  0  2  0  0  0  0  0  0  0  0  0
   27.2756  -20.6298  -16.1200 N   0  0  0  0  0  0  0  0  0  0  0  0
   25.7857  -20.5423  -14.2850 C   0  0  0  0  0  0  0  0  0  0  0  0
   24.9565  -21.2806  -14.8511 O   0  0  0  0  0  0  0  0  0  0  0  0
   26.5782  -21.6848  -10.4481 C   0  0  0  0  0  0  0  0  0  0  0  0
   25.1539  -21.2490  -10.6122 C   0  0  1  0  0  0  0  0  0  0  0  0
   24.9769  -19.9060   -9.9641 C   0  0  0  0  0  0  0  0  0  0  0  0
   24.7432  -21.1449  -12.0629 C   0  0  2  0  0  0  0  0  0  0  0  0
   25.7161  -20.4246  -12.8509 N   0  0  0  0  0  0  0  0  0  0  0  0
   23.4210  -20.5296  -12.2345 C   0  0  0  0  0  0  0  0  0  0  0  0
   22.3794  -21.1307  -11.8940 O   0  0  0  0  0  0  0  0  0  0  0  0
   23.2711  -19.2539  -12.7822 O   0  0  0  0  0  0  0  0  0  0  0  0
  2  3  1  0
  2  1  1  0
  3  4  2  0
  6  5  1  0
  7  6  1  6
  7  9  1  0
  8  7  1  0
  8  3  1  0
  9 15  1  0
 10  9  2  0
 12 11  1  6
 12 14  1  0
 13 12  1  0
 14 16  1  0
 14 15  1  6
 16 17  2  0
 16 18  1  0
M  END
$$$$
