GSV.pdb
     RDKit          3D

 18 17  0  0  1  0  0  0  0  0999 V2000
   26.5862  -18.0622  -16.3658 N   0  0  0  0  0  0  0  0  0  0  0  0
   26.8027  -17.6030  -15.0454 C   0  0  0  0  0  0  0  0  0  0  0  0
   26.2133  -18.4327  -13.9845 C   0  0  0  0  0  0  0  0  0  0  0  0
   25.4609  -17.8789  -13.1496 O   0  0  0  0  0  0  0  0  0  0  0  0
   26.8868  -22.5971  -13.6116 O   0  0  0  0  0  0  0  0  0  0  0  0
   25.6744  -22.0696  -13.1697 C   0  0  0  0  0  0  0  0  0  0  0  0
   25.7646  -20.6068  -12.8521 C   0  0  2  0  0  0  0  0  0  0  0  0
   26.4312  -19.8235  -13.8302 N   0  0  0  0  0  0  0  0  0  0  0  0
   26.4784  -20.4708  -11.5557 C   0  0  0  0  0  0  0  0  0  0  0  0
   27.7205  -20.3816  -11.5082 O   0  0  0  0  0  0  0  0  0  0  0  0
   24.8980  -18.4582   -8.2804 C   0  0  0  0  0  0  0  0  0  0  0  0
   26.3152  -18.8966   -8.4920 C   0  0  1  0  0  0  0  0  0  0  0  0
   27.0458  -18.8348   -7.1816 C   0  0  0  0  0  0  0  0  0  0  0  0
   26.4116  -20.3039   -9.0347 C   0  0  2  0  0  0  0  0  0  0  0  0
   25.7514  -20.4381  -10.3124 N   0  0  0  0  0  0  0  0  0  0  0  0
   25.8836  -21.3079   -8.1023 C   0  0  0  0  0  0  0  0  0  0  0  0
   24.7981  -21.8870   -8.3227 O   0  0  0  0  0  0  0  0  0  0  0  0
   26.5674  -21.6571   -6.9359 O   0  0  0  0  0  0  0  0  0  0  0  0
  2  3  1  0
  2  1  1  0
  3  4  2  0
  6  5  1  0
  7  6  1  6
  7  9  1  0
  8  7  1  0
  8  3  1  0
  9 15  1  0
 10  9  2  0
 12 11  1  1
 12 14  1  0
 13 12  1  0
 14 16  1  0
 14 15  1  6
 16 17  2  0
 16 18  1  0
M  END
$$$$
