GSV.pdb
     RDKit          3D

 18 17  0  0  1  0  0  0  0  0999 V2000
   25.2755  -17.0870  -19.0770 N   0  0  0  0  0  0  0  0  0  0  0  0
   26.1295  -16.4129  -18.1728 C   0  0  0  0  0  0  0  0  0  0  0  0
   26.3579  -14.9899  -18.4627 C   0  0  0  0  0  0  0  0  0  0  0  0
   26.9356  -14.6894  -19.5331 O   0  0  0  0  0  0  0  0  0  0  0  0
   24.8536  -11.8751  -16.0478 O   0  0  0  0  0  0  0  0  0  0  0  0
   25.0732  -11.6399  -17.4043 C   0  0  0  0  0  0  0  0  0  0  0  0
   26.1070  -12.5564  -17.9875 C   0  0  2  0  0  0  0  0  0  0  0  0
   25.9723  -13.9202  -17.6183 N   0  0  0  0  0  0  0  0  0  0  0  0
   27.4404  -12.0670  -17.5504 C   0  0  0  0  0  0  0  0  0  0  0  0
   27.9505  -12.4507  -16.4801 O   0  0  0  0  0  0  0  0  0  0  0  0
   31.7103   -9.8344  -18.7704 C   0  0  0  0  0  0  0  0  0  0  0  0
   30.4221  -10.5074  -19.1352 C   0  0  1  0  0  0  0  0  0  0  0  0
   30.7213  -11.8822  -19.6599 C   0  0  0  0  0  0  0  0  0  0  0  0
   29.4801  -10.6318  -17.9598 C   0  0  2  0  0  0  0  0  0  0  0  0
   28.1838  -11.1315  -18.3551 N   0  0  0  0  0  0  0  0  0  0  0  0
   29.3166   -9.3688  -17.2290 C   0  0  0  0  0  0  0  0  0  0  0  0
   30.2223   -8.9285  -16.4886 O   0  0  0  0  0  0  0  0  0  0  0  0
   28.1490   -8.6093  -17.3289 O   0  0  0  0  0  0  0  0  0  0  0  0
  2  3  1  0
  2  1  1  0
  3  4  2  0
  6  5  1  0
  7  6  1  1
  7  9  1  0
  8  7  1  0
  8  3  1  0
  9 15  1  0
 10  9  2  0
 12 11  1  1
 12 14  1  0
 13 12  1  0
 14 16  1  0
 14 15  1  6
 16 17  2  0
 16 18  1  0
M  END
$$$$
