GSV.pdb
     RDKit          3D

 18 17  0  0  1  0  0  0  0  0999 V2000
   18.7462  -13.5497  -16.4713 N   0  0  0  0  0  0  0  0  0  0  0  0
   18.4848  -12.6381  -15.4215 C   0  0  0  0  0  0  0  0  0  0  0  0
   18.7425  -11.2250  -15.7345 C   0  0  0  0  0  0  0  0  0  0  0  0
   19.5973  -10.9596  -16.6113 O   0  0  0  0  0  0  0  0  0  0  0  0
   16.9906   -7.8624  -13.7068 O   0  0  0  0  0  0  0  0  0  0  0  0
   17.2860   -7.8046  -15.0680 C   0  0  0  0  0  0  0  0  0  0  0  0
   18.3548   -8.7779  -15.4670 C   0  0  2  0  0  0  0  0  0  0  0  0
   18.0938  -10.1282  -15.1165 N   0  0  0  0  0  0  0  0  0  0  0  0
   19.6209   -8.3466  -14.8191 C   0  0  0  0  0  0  0  0  0  0  0  0
   19.9041   -8.6971  -13.6572 O   0  0  0  0  0  0  0  0  0  0  0  0
   23.1073   -8.3030  -16.7554 C   0  0  0  0  0  0  0  0  0  0  0  0
   22.9148   -7.0244  -15.9982 C   0  0  1  0  0  0  0  0  0  0  0  0
   22.5444   -5.9362  -16.9644 C   0  0  0  0  0  0  0  0  0  0  0  0
   21.8322   -7.1297  -14.9487 C   0  0  2  0  0  0  0  0  0  0  0  0
   20.5601   -7.5079  -15.5189 N   0  0  0  0  0  0  0  0  0  0  0  0
   21.6735   -5.8933  -14.1727 C   0  0  0  0  0  0  0  0  0  0  0  0
   22.5835   -5.4799  -13.4222 O   0  0  0  0  0  0  0  0  0  0  0  0
   20.5058   -5.1303  -14.2393 O   0  0  0  0  0  0  0  0  0  0  0  0
  2  3  1  0
  2  1  1  0
  3  4  2  0
  6  5  1  0
  7  6  1  1
  7  9  1  0
  8  7  1  0
  8  3  1  0
  9 15  1  0
 10  9  2  0
 12 11  1  6
 12 14  1  0
 13 12  1  0
 14 16  1  0
 14 15  1  6
 16 17  2  0
 16 18  1  0
M  END
$$$$
