GSV.pdb
     RDKit          3D

 18 17  0  0  1  0  0  0  0  0999 V2000
   18.3749  -13.8056  -19.1462 N   0  0  0  0  0  0  0  0  0  0  0  0
   18.5389  -12.4097  -19.3073 C   0  0  0  0  0  0  0  0  0  0  0  0
   19.4689  -11.7710  -18.3647 C   0  0  0  0  0  0  0  0  0  0  0  0
   19.4146  -12.1089  -17.1595 O   0  0  0  0  0  0  0  0  0  0  0  0
   22.0364   -8.4021  -19.1892 O   0  0  0  0  0  0  0  0  0  0  0  0
   22.4665   -9.4517  -18.3786 C   0  0  0  0  0  0  0  0  0  0  0  0
   21.3270  -10.2182  -17.7762 C   0  0  2  0  0  0  0  0  0  0  0  0
   20.4318  -10.7935  -18.7154 N   0  0  0  0  0  0  0  0  0  0  0  0
   20.5726   -9.2868  -16.8975 C   0  0  0  0  0  0  0  0  0  0  0  0
   19.5690   -8.6763  -17.3135 O   0  0  0  0  0  0  0  0  0  0  0  0
   21.4498   -9.0285  -12.6162 C   0  0  0  0  0  0  0  0  0  0  0  0
   20.1260   -8.7472  -13.2597 C   0  0  1  0  0  0  0  0  0  0  0  0
   19.3679   -7.7693  -12.4089 C   0  0  0  0  0  0  0  0  0  0  0  0
   20.2681   -8.1717  -14.6500 C   0  0  2  0  0  0  0  0  0  0  0  0
   20.9821   -9.0627  -15.5347 N   0  0  0  0  0  0  0  0  0  0  0  0
   20.9158   -6.8540  -14.6539 C   0  0  0  0  0  0  0  0  0  0  0  0
   20.2974   -5.8287  -14.2953 O   0  0  0  0  0  0  0  0  0  0  0  0
   22.2430   -6.6902  -15.0562 O   0  0  0  0  0  0  0  0  0  0  0  0
  2  3  1  0
  2  1  1  0
  3  4  2  0
  6  5  1  0
  7  6  1  6
  7  9  1  0
  8  7  1  0
  8  3  1  0
  9 15  1  0
 10  9  2  0
 12 11  1  1
 12 14  1  0
 13 12  1  0
 14 16  1  0
 14 15  1  6
 16 17  2  0
 16 18  1  0
M  END
$$$$
