GSV.pdb
     RDKit          3D

 18 17  0  0  1  0  0  0  0  0999 V2000
   14.4237  -13.0894  -14.9075 N   0  0  0  0  0  0  0  0  0  0  0  0
   14.7631  -11.7352  -14.6790 C   0  0  0  0  0  0  0  0  0  0  0  0
   15.9808  -11.2673  -15.3569 C   0  0  0  0  0  0  0  0  0  0  0  0
   16.7213  -12.1204  -15.8987 O   0  0  0  0  0  0  0  0  0  0  0  0
   16.9174   -7.1781  -16.0486 O   0  0  0  0  0  0  0  0  0  0  0  0
   17.4160   -8.1892  -16.8687 C   0  0  0  0  0  0  0  0  0  0  0  0
   17.5475   -9.4997  -16.1518 C   0  0  2  0  0  0  0  0  0  0  0  0
   16.3873   -9.9136  -15.4467 N   0  0  0  0  0  0  0  0  0  0  0  0
   18.6771   -9.3774  -15.1939 C   0  0  0  0  0  0  0  0  0  0  0  0
   18.4809   -9.0940  -13.9963 O   0  0  0  0  0  0  0  0  0  0  0  0
   23.5440   -9.9886  -14.2645 C   0  0  0  0  0  0  0  0  0  0  0  0
   22.3736  -10.1740  -15.1818 C   0  0  1  0  0  0  0  0  0  0  0  0
   22.0055  -11.6294  -15.2150 C   0  0  0  0  0  0  0  0  0  0  0  0
   21.1646   -9.3782  -14.7467 C   0  0  2  0  0  0  0  0  0  0  0  0
   20.0362   -9.5839  -15.6246 N   0  0  0  0  0  0  0  0  0  0  0  0
   21.4430   -7.9408  -14.6349 C   0  0  0  0  0  0  0  0  0  0  0  0
   21.2520   -7.1686  -15.5989 O   0  0  0  0  0  0  0  0  0  0  0  0
   21.9302   -7.3778  -13.4535 O   0  0  0  0  0  0  0  0  0  0  0  0
  2  3  1  0
  2  1  1  0
  3  4  2  0
  6  5  1  0
  7  6  1  1
  7  9  1  0
  8  7  1  0
  8  3  1  0
  9 15  1  0
 10  9  2  0
 12 11  1  1
 12 14  1  0
 13 12  1  0
 14 16  1  0
 14 15  1  6
 16 17  2  0
 16 18  1  0
M  END
$$$$
