GSV.pdb
     RDKit          3D

 18 17  0  0  1  0  0  0  0  0999 V2000
   19.4656  -12.0608  -16.1612 N   0  0  0  0  0  0  0  0  0  0  0  0
   18.3387  -11.2742  -15.8256 C   0  0  0  0  0  0  0  0  0  0  0  0
   18.5954   -9.8338  -15.6816 C   0  0  0  0  0  0  0  0  0  0  0  0
   19.5113   -9.3245  -16.3683 O   0  0  0  0  0  0  0  0  0  0  0  0
   15.7056   -7.2464  -14.4811 O   0  0  0  0  0  0  0  0  0  0  0  0
   16.9752   -6.7828  -14.1393 C   0  0  0  0  0  0  0  0  0  0  0  0
   18.0707   -7.5606  -14.8053 C   0  0  2  0  0  0  0  0  0  0  0  0
   17.8813   -8.9672  -14.8186 N   0  0  0  0  0  0  0  0  0  0  0  0
   19.3388   -7.2507  -14.0950 C   0  0  0  0  0  0  0  0  0  0  0  0
   19.5944   -7.7494  -12.9819 O   0  0  0  0  0  0  0  0  0  0  0  0
   22.8157   -7.6641  -15.5964 C   0  0  0  0  0  0  0  0  0  0  0  0
   22.7348   -6.2762  -15.0374 C   0  0  1  0  0  0  0  0  0  0  0  0
   22.5448   -5.3054  -16.1672 C   0  0  0  0  0  0  0  0  0  0  0  0
   21.5943   -6.1109  -14.0595 C   0  0  2  0  0  0  0  0  0  0  0  0
   20.3121   -6.3613  -14.6756 N   0  0  0  0  0  0  0  0  0  0  0  0
   21.5819   -4.7881  -13.4222 C   0  0  0  0  0  0  0  0  0  0  0  0
   22.5017   -4.4320  -12.6545 O   0  0  0  0  0  0  0  0  0  0  0  0
   20.5481   -3.8762  -13.6450 O   0  0  0  0  0  0  0  0  0  0  0  0
  2  3  1  0
  2  1  1  0
  3  4  2  0
  6  5  1  0
  7  6  1  1
  7  9  1  0
  8  7  1  0
  8  3  1  0
  9 15  1  0
 10  9  2  0
 12 11  1  6
 12 14  1  0
 13 12  1  0
 14 16  1  0
 14 15  1  6
 16 17  2  0
 16 18  1  0
M  END
$$$$
