GSV.pdb
     RDKit          3D

 18 17  0  0  1  0  0  0  0  0999 V2000
   22.4316  -21.0453  -11.1739 N   0  0  0  0  0  0  0  0  0  0  0  0
   23.5719  -20.2113  -11.2480 C   0  0  0  0  0  0  0  0  0  0  0  0
   24.6695  -20.5612  -10.3347 C   0  0  0  0  0  0  0  0  0  0  0  0
   24.3846  -21.1469   -9.2644 O   0  0  0  0  0  0  0  0  0  0  0  0
   29.4069  -21.2937   -9.4922 O   0  0  0  0  0  0  0  0  0  0  0  0
   28.4498  -20.7000  -10.3137 C   0  0  0  0  0  0  0  0  0  0  0  0
   27.0766  -20.7287   -9.7117 C   0  0  2  0  0  0  0  0  0  0  0  0
   26.0383  -20.2855  -10.5718 N   0  0  0  0  0  0  0  0  0  0  0  0
   27.0988  -19.8699   -8.4989 C   0  0  0  0  0  0  0  0  0  0  0  0
   26.7490  -18.6748   -8.5469 O   0  0  0  0  0  0  0  0  0  0  0  0
   26.2902  -21.2805   -4.7992 C   0  0  0  0  0  0  0  0  0  0  0  0
   27.4907  -20.3839   -4.7778 C   0  0  1  0  0  0  0  0  0  0  0  0
   28.7234  -21.2232   -4.6025 C   0  0  0  0  0  0  0  0  0  0  0  0
   27.6320  -19.5743   -6.0462 C   0  0  2  0  0  0  0  0  0  0  0  0
   27.5271  -20.3973   -7.2286 N   0  0  0  0  0  0  0  0  0  0  0  0
   28.8833  -18.8074   -6.0921 C   0  0  0  0  0  0  0  0  0  0  0  0
   29.7508  -19.0375   -6.9620 O   0  0  0  0  0  0  0  0  0  0  0  0
   29.1567  -17.7937   -5.1713 O   0  0  0  0  0  0  0  0  0  0  0  0
  2  3  1  0
  2  1  1  0
  3  4  2  0
  6  5  1  0
  7  6  1  6
  7  9  1  0
  8  7  1  0
  8  3  1  0
  9 15  1  0
 10  9  2  0
 12 11  1  6
 12 14  1  0
 13 12  1  0
 14 16  1  0
 14 15  1  6
 16 17  2  0
 16 18  1  0
M  END
$$$$
