GSV.pdb
     RDKit          3D

 18 17  0  0  1  0  0  0  0  0999 V2000
   16.0245  -12.6580  -14.7068 N   0  0  0  0  0  0  0  0  0  0  0  0
   15.7721  -11.2677  -14.6390 C   0  0  0  0  0  0  0  0  0  0  0  0
   16.1903  -10.6109  -13.3920 C   0  0  0  0  0  0  0  0  0  0  0  0
   15.6516  -10.9761  -12.3214 O   0  0  0  0  0  0  0  0  0  0  0  0
   18.8590   -7.3166  -13.2248 O   0  0  0  0  0  0  0  0  0  0  0  0
   18.7925   -8.1691  -12.1237 C   0  0  0  0  0  0  0  0  0  0  0  0
   17.5177   -8.9577  -12.0822 C   0  0  2  0  0  0  0  0  0  0  0  0
   17.1648   -9.5868  -13.3045 N   0  0  0  0  0  0  0  0  0  0  0  0
   16.4272   -8.0298  -11.6840 C   0  0  0  0  0  0  0  0  0  0  0  0
   15.7503   -7.4242  -12.5373 O   0  0  0  0  0  0  0  0  0  0  0  0
   15.8377   -6.7070   -7.4730 C   0  0  0  0  0  0  0  0  0  0  0  0
   14.7301   -7.0462   -8.4237 C   0  0  1  0  0  0  0  0  0  0  0  0
   13.5455   -6.1735   -8.1241 C   0  0  0  0  0  0  0  0  0  0  0  0
   15.1255   -6.8472   -9.8688 C   0  0  2  0  0  0  0  0  0  0  0  0
   16.1208   -7.8035  -10.2946 N   0  0  0  0  0  0  0  0  0  0  0  0
   15.6043   -5.4864  -10.1427 C   0  0  0  0  0  0  0  0  0  0  0  0
   16.8217   -5.2075  -10.0935 O   0  0  0  0  0  0  0  0  0  0  0  0
   14.7255   -4.4512  -10.4682 O   0  0  0  0  0  0  0  0  0  0  0  0
  2  3  1  0
  2  1  1  0
  3  4  2  0
  6  5  1  0
  7  6  1  6
  7  9  1  0
  8  7  1  0
  8  3  1  0
  9 15  1  0
 10  9  2  0
 12 11  1  1
 12 14  1  0
 13 12  1  0
 14 16  1  0
 14 15  1  1
 16 17  2  0
 16 18  1  0
M  END
$$$$
