GSV.pdb
     RDKit          3D

 18 17  0  0  1  0  0  0  0  0999 V2000
   28.8339  -18.4690  -17.8706 N   0  0  0  0  0  0  0  0  0  0  0  0
   28.4121  -18.0488  -16.5873 C   0  0  0  0  0  0  0  0  0  0  0  0
   28.1233  -19.1294  -15.6333 C   0  0  0  0  0  0  0  0  0  0  0  0
   27.1191  -19.8493  -15.8409 O   0  0  0  0  0  0  0  0  0  0  0  0
   30.4003  -19.8144  -12.1520 O   0  0  0  0  0  0  0  0  0  0  0  0
   29.6940  -20.8942  -12.6798 C   0  0  0  0  0  0  0  0  0  0  0  0
   28.5722  -20.4648  -13.5776 C   0  0  2  0  0  0  0  0  0  0  0  0
   28.8990  -19.4240  -14.4855 N   0  0  0  0  0  0  0  0  0  0  0  0
   27.4498  -20.0167  -12.7127 C   0  0  0  0  0  0  0  0  0  0  0  0
   27.3233  -18.8206  -12.3863 O   0  0  0  0  0  0  0  0  0  0  0  0
   23.5110  -22.2204  -11.1888 C   0  0  0  0  0  0  0  0  0  0  0  0
   24.0414  -21.0252  -11.9207 C   0  0  1  0  0  0  0  0  0  0  0  0
   23.0517  -19.9021  -11.8027 C   0  0  0  0  0  0  0  0  0  0  0  0
   25.3724  -20.5573  -11.3786 C   0  0  2  0  0  0  0  0  0  0  0  0
   26.4725  -20.9562  -12.2253 N   0  0  0  0  0  0  0  0  0  0  0  0
   25.6183  -21.0174  -10.0061 C   0  0  0  0  0  0  0  0  0  0  0  0
   26.3969  -21.9669   -9.7725 O   0  0  0  0  0  0  0  0  0  0  0  0
   24.9965  -20.4177   -8.9089 O   0  0  0  0  0  0  0  0  0  0  0  0
  2  3  1  0
  2  1  1  0
  3  4  2  0
  6  5  1  0
  7  6  1  1
  7  9  1  0
  8  7  1  0
  8  3  1  0
  9 15  1  0
 10  9  2  0
 12 11  1  1
 12 14  1  0
 13 12  1  0
 14 16  1  0
 14 15  1  6
 16 17  2  0
 16 18  1  0
M  END
$$$$
