DLM.pdb
     RDKit          3D

 25 24  0  0  1  0  0  0  0  0999 V2000
   26.7334  -18.9099  -13.9011 N   0  0  0  0  0  0  0  0  0  0  0  0
   26.4933  -20.3336  -13.9013 C   0  0  1  0  0  0  0  0  0  0  0  0
   27.4102  -21.0174  -14.8603 C   0  0  0  0  0  0  0  0  0  0  0  0
   27.2189  -20.4702  -16.2180 C   0  0  0  0  0  0  0  0  0  0  0  0
   26.0653  -20.4182  -16.6933 O   0  0  0  0  0  0  0  0  0  0  0  0
   26.7477  -20.8853  -12.5344 C   0  0  0  0  0  0  0  0  0  0  0  0
   26.6894  -22.1351  -12.3412 O   0  0  0  0  0  0  0  0  0  0  0  0
   28.3002  -20.0314  -16.9300 O   0  0  0  0  0  0  0  0  0  0  0  0
   28.7789  -20.5859   -7.3103 C   0  0  0  0  0  0  0  0  0  0  0  0
   27.4743  -19.8857   -7.6642 C   0  0  1  0  0  0  0  0  0  0  0  0
   27.1822  -18.8496   -6.6417 C   0  0  0  0  0  0  0  0  0  0  0  0
   27.4456  -19.4471   -9.0743 C   0  0  0  0  0  0  0  0  0  0  0  0
   27.0946  -20.4808  -10.0850 C   0  0  2  0  0  0  0  0  0  0  0  0
   27.0556  -20.0375  -11.4356 N   0  0  0  0  0  0  0  0  0  0  0  0
   25.8006  -21.1603   -9.7186 C   0  0  0  0  0  0  0  0  0  0  0  0
   25.7628  -22.3526   -9.3431 O   0  0  0  0  0  0  0  0  0  0  0  0
   23.2184  -20.6463   -4.7739 C   0  0  0  0  0  0  0  0  0  0  0  0
   21.8929  -21.6613   -5.4801 S   0  0  0  0  0  0  0  0  0  0  0  0
   21.9444  -21.6368   -7.2859 C   0  0  0  0  0  0  0  0  0  0  0  0
   23.2743  -21.0726   -7.7875 C   0  0  0  0  0  0  0  0  0  0  0  0
   23.3312  -21.0507   -9.2788 C   0  0  2  0  0  0  0  0  0  0  0  0
   24.5572  -20.4688   -9.7849 N   0  0  0  0  0  0  0  0  0  0  0  0
   22.1353  -20.3221   -9.7751 C   0  0  0  0  0  0  0  0  0  0  0  0
   22.3099  -19.2254  -10.3640 O   0  0  0  0  0  0  0  0  0  0  0  0
   20.8503  -20.8072   -9.6114 O   0  0  0  0  0  0  0  0  0  0  0  0
  2  1  1  1
  2  3  1  0
  2  6  1  0
  4  8  1  0
  4  3  1  0
  5  4  2  0
  6  7  2  0
 10  9  1  1
 10 11  1  0
 12 10  1  0
 13 12  1  1
 14 13  1  0
 14  6  1  0
 15 13  1  0
 15 22  1  0
 16 15  2  0
 17 18  1  0
 18 19  1  0
 19 20  1  0
 21 22  1  0
 21 20  1  1
 23 21  1  0
 24 23  2  0
 25 23  1  0
M  END
$$$$
