DLM.pdb
     RDKit          3D

 25 24  0  0  1  0  0  0  0  0999 V2000
   27.0426  -19.9214  -14.7143 N   0  0  0  0  0  0  0  0  0  0  0  0
   26.0898  -20.7503  -15.4141 C   0  0  1  0  0  0  0  0  0  0  0  0
   26.7685  -21.9422  -16.0031 C   0  0  0  0  0  0  0  0  0  0  0  0
   27.6451  -21.5249  -17.1152 C   0  0  0  0  0  0  0  0  0  0  0  0
   27.2598  -20.6184  -17.8830 O   0  0  0  0  0  0  0  0  0  0  0  0
   25.0448  -21.2304  -14.4576 C   0  0  0  0  0  0  0  0  0  0  0  0
   24.4179  -22.3032  -14.6996 O   0  0  0  0  0  0  0  0  0  0  0  0
   28.8574  -22.1328  -17.2870 O   0  0  0  0  0  0  0  0  0  0  0  0
   25.5099  -20.1683   -9.0068 C   0  0  0  0  0  0  0  0  0  0  0  0
   25.3288  -20.7608  -10.3973 C   0  0  1  0  0  0  0  0  0  0  0  0
   25.8020  -22.1681  -10.3947 C   0  0  0  0  0  0  0  0  0  0  0  0
   23.9715  -20.5225  -10.9288 C   0  0  0  0  0  0  0  0  0  0  0  0
   23.7341  -20.9120  -12.3448 C   0  0  2  0  0  0  0  0  0  0  0  0
   24.7327  -20.5086  -13.2734 N   0  0  0  0  0  0  0  0  0  0  0  0
   22.3754  -20.4459  -12.8005 C   0  0  0  0  0  0  0  0  0  0  0  0
   22.0809  -19.2324  -12.8683 O   0  0  0  0  0  0  0  0  0  0  0  0
   16.0329  -21.1620  -17.3004 C   0  0  0  0  0  0  0  0  0  0  0  0
   17.6236  -21.8437  -16.7612 S   0  0  0  0  0  0  0  0  0  0  0  0
   18.1738  -21.0759  -15.2210 C   0  0  0  0  0  0  0  0  0  0  0  0
   19.5761  -21.5540  -14.8421 C   0  0  0  0  0  0  0  0  0  0  0  0
   20.0346  -20.9419  -13.5604 C   0  0  2  0  0  0  0  0  0  0  0  0
   21.3623  -21.3741  -13.1757 N   0  0  0  0  0  0  0  0  0  0  0  0
   19.0312  -21.2612  -12.5121 C   0  0  0  0  0  0  0  0  0  0  0  0
   17.9571  -20.6082  -12.4995 O   0  0  0  0  0  0  0  0  0  0  0  0
   19.2394  -22.2432  -11.5605 O   0  0  0  0  0  0  0  0  0  0  0  0
  2  1  1  1
  2  3  1  0
  2  6  1  0
  4  8  1  0
  4  3  1  0
  5  4  2  0
  6  7  2  0
 10  9  1  1
 10 11  1  0
 12 10  1  0
 13 12  1  1
 14 13  1  0
 14  6  1  0
 15 13  1  0
 15 22  1  0
 16 15  2  0
 17 18  1  0
 18 19  1  0
 19 20  1  0
 21 22  1  0
 21 20  1  6
 23 21  1  0
 24 23  2  0
 25 23  1  0
M  END
$$$$
