DLM.pdb
     RDKit          3D

 25 24  0  0  1  0  0  0  0  0999 V2000
   22.9077  -12.6449  -19.4927 N   0  0  0  0  0  0  0  0  0  0  0  0
   23.0377  -11.2088  -19.5646 C   0  0  1  0  0  0  0  0  0  0  0  0
   21.8105  -10.6029  -20.1605 C   0  0  0  0  0  0  0  0  0  0  0  0
   21.7508  -10.9026  -21.6048 C   0  0  0  0  0  0  0  0  0  0  0  0
   20.6352  -11.0033  -22.1571 O   0  0  0  0  0  0  0  0  0  0  0  0
   23.2147  -10.6516  -18.1878 C   0  0  0  0  0  0  0  0  0  0  0  0
   22.2895  -10.7830  -17.3338 O   0  0  0  0  0  0  0  0  0  0  0  0
   22.9097  -11.0642  -22.3117 O   0  0  0  0  0  0  0  0  0  0  0  0
   28.0640  -10.6733  -15.5677 C   0  0  0  0  0  0  0  0  0  0  0  0
   26.5839  -10.7497  -15.9158 C   0  0  1  0  0  0  0  0  0  0  0  0
   25.9253  -11.7476  -15.0354 C   0  0  0  0  0  0  0  0  0  0  0  0
   25.9598   -9.4126  -15.9793 C   0  0  0  0  0  0  0  0  0  0  0  0
   24.5847   -9.3468  -16.5433 C   0  0  2  0  0  0  0  0  0  0  0  0
   24.4040   -9.9717  -17.8079 N   0  0  0  0  0  0  0  0  0  0  0  0
   24.0999   -7.9208  -16.5891 C   0  0  0  0  0  0  0  0  0  0  0  0
   24.0640   -7.2013  -15.5669 O   0  0  0  0  0  0  0  0  0  0  0  0
   26.1758   -5.7001  -21.8354 C   0  0  0  0  0  0  0  0  0  0  0  0
   25.4953   -4.3413  -20.8473 S   0  0  0  0  0  0  0  0  0  0  0  0
   25.0256   -4.9066  -19.1968 C   0  0  0  0  0  0  0  0  0  0  0  0
   23.5439   -5.2819  -19.1484 C   0  0  0  0  0  0  0  0  0  0  0  0
   23.1929   -5.9580  -17.8649 C   0  0  2  0  0  0  0  0  0  0  0  0
   23.6590   -7.3280  -17.8068 N   0  0  0  0  0  0  0  0  0  0  0  0
   21.7202   -5.8741  -17.6874 C   0  0  0  0  0  0  0  0  0  0  0  0
   21.0626   -6.9452  -17.6659 O   0  0  0  0  0  0  0  0  0  0  0  0
   21.0575   -4.6682  -17.5466 O   0  0  0  0  0  0  0  0  0  0  0  0
  2  1  1  1
  2  3  1  0
  2  6  1  0
  4  8  1  0
  4  3  1  0
  5  4  2  0
  6  7  2  0
 10  9  1  1
 10 11  1  0
 12 10  1  0
 13 12  1  6
 14 13  1  0
 14  6  1  0
 15 13  1  0
 15 22  1  0
 16 15  2  0
 17 18  1  0
 18 19  1  0
 19 20  1  0
 21 22  1  0
 21 20  1  6
 23 21  1  0
 24 23  2  0
 25 23  1  0
M  END
$$$$
