DLM.pdb
     RDKit          3D

 25 24  0  0  1  0  0  0  0  0999 V2000
   25.0509  -18.8166  -12.9566 N   0  0  0  0  0  0  0  0  0  0  0  0
   24.1251  -19.9243  -12.9397 C   0  0  1  0  0  0  0  0  0  0  0  0
   24.3786  -20.8340  -14.0957 C   0  0  0  0  0  0  0  0  0  0  0  0
   24.0318  -20.1530  -15.3587 C   0  0  0  0  0  0  0  0  0  0  0  0
   23.5519  -19.0009  -15.3140 O   0  0  0  0  0  0  0  0  0  0  0  0
   24.3034  -20.7079  -11.6781 C   0  0  0  0  0  0  0  0  0  0  0  0
   24.4581  -21.9630  -11.7355 O   0  0  0  0  0  0  0  0  0  0  0  0
   24.2398  -20.7893  -16.5506 O   0  0  0  0  0  0  0  0  0  0  0  0
   26.9488  -18.5487   -7.4604 C   0  0  0  0  0  0  0  0  0  0  0  0
   26.5013  -19.7197   -8.3242 C   0  0  1  0  0  0  0  0  0  0  0  0
   27.5027  -20.8114   -8.2251 C   0  0  0  0  0  0  0  0  0  0  0  0
   25.0944  -20.0902   -8.0696 C   0  0  0  0  0  0  0  0  0  0  0  0
   24.3797  -20.7853   -9.1738 C   0  0  2  0  0  0  0  0  0  0  0  0
   24.3036  -20.0767  -10.4044 N   0  0  0  0  0  0  0  0  0  0  0  0
   23.0046  -21.2109   -8.7279 C   0  0  0  0  0  0  0  0  0  0  0  0
   22.0614  -20.3963   -8.6240 O   0  0  0  0  0  0  0  0  0  0  0  0
   18.6298  -23.0062   -3.0775 C   0  0  0  0  0  0  0  0  0  0  0  0
   20.0031  -22.2442   -3.9825 S   0  0  0  0  0  0  0  0  0  0  0  0
   20.0873  -22.8597   -5.6791 C   0  0  0  0  0  0  0  0  0  0  0  0
   21.3648  -22.3826   -6.3712 C   0  0  0  0  0  0  0  0  0  0  0  0
   21.4884  -22.9536   -7.7446 C   0  0  2  0  0  0  0  0  0  0  0  0
   22.7191  -22.5681   -8.4038 N   0  0  0  0  0  0  0  0  0  0  0  0
   20.2961  -22.5360   -8.5265 C   0  0  0  0  0  0  0  0  0  0  0  0
   19.1728  -22.9816   -8.1802 O   0  0  0  0  0  0  0  0  0  0  0  0
   20.3821  -21.6821   -9.6112 O   0  0  0  0  0  0  0  0  0  0  0  0
  2  1  1  1
  2  3  1  0
  2  6  1  0
  4  8  1  0
  4  3  1  0
  5  4  2  0
  6  7  2  0
 10  9  1  1
 10 11  1  0
 12 10  1  0
 13 12  1  1
 14 13  1  0
 14  6  1  0
 15 13  1  0
 15 22  1  0
 16 15  2  0
 17 18  1  0
 18 19  1  0
 19 20  1  0
 21 22  1  0
 21 20  1  1
 23 21  1  0
 24 23  2  0
 25 23  1  0
M  END
$$$$
