DLM.pdb
     RDKit          3D

 25 24  0  0  1  0  0  0  0  0999 V2000
   20.0015  -21.1609  -11.9703 N   0  0  0  0  0  0  0  0  0  0  0  0
   20.6952  -21.1970  -13.2360 C   0  0  1  0  0  0  0  0  0  0  0  0
   19.8652  -20.5661  -14.3042 C   0  0  0  0  0  0  0  0  0  0  0  0
   18.7433  -21.4561  -14.6626 C   0  0  0  0  0  0  0  0  0  0  0  0
   18.5605  -22.4980  -13.9988 O   0  0  0  0  0  0  0  0  0  0  0  0
   21.9778  -20.4350  -13.1269 C   0  0  0  0  0  0  0  0  0  0  0  0
   21.9520  -19.1980  -12.8591 O   0  0  0  0  0  0  0  0  0  0  0  0
   17.9264  -21.1287  -15.7087 O   0  0  0  0  0  0  0  0  0  0  0  0
   26.2739  -22.1470  -10.2740 C   0  0  0  0  0  0  0  0  0  0  0  0
   25.2373  -21.2665  -10.9581 C   0  0  1  0  0  0  0  0  0  0  0  0
   25.0463  -20.0276  -10.1625 C   0  0  0  0  0  0  0  0  0  0  0  0
   25.5230  -21.0893  -12.3962 C   0  0  0  0  0  0  0  0  0  0  0  0
   24.4830  -20.3922  -13.1998 C   0  0  2  0  0  0  0  0  0  0  0  0
   23.2368  -21.0669  -13.3178 N   0  0  0  0  0  0  0  0  0  0  0  0
   25.0182  -20.0372  -14.5630 C   0  0  0  0  0  0  0  0  0  0  0  0
   24.9908  -20.8468  -15.5157 O   0  0  0  0  0  0  0  0  0  0  0  0
   27.6805  -14.3314  -19.4570 C   0  0  0  0  0  0  0  0  0  0  0  0
   27.3326  -14.8274  -17.7485 S   0  0  0  0  0  0  0  0  0  0  0  0
   26.8225  -16.5586  -17.6631 C   0  0  0  0  0  0  0  0  0  0  0  0
   26.4647  -16.9531  -16.2295 C   0  0  0  0  0  0  0  0  0  0  0  0
   26.0618  -18.3875  -16.1417 C   0  0  2  0  0  0  0  0  0  0  0  0
   25.5816  -18.7558  -14.8258 N   0  0  0  0  0  0  0  0  0  0  0  0
   27.2233  -19.2185  -16.5515 C   0  0  0  0  0  0  0  0  0  0  0  0
   28.0834  -19.5074  -15.6813 O   0  0  0  0  0  0  0  0  0  0  0  0
   27.3863  -19.6789  -17.8456 O   0  0  0  0  0  0  0  0  0  0  0  0
  2  1  1  1
  2  3  1  0
  2  6  1  0
  4  8  1  0
  4  3  1  0
  5  4  2  0
  6  7  2  0
 10  9  1  1
 10 11  1  0
 12 10  1  0
 13 12  1  6
 14 13  1  0
 14  6  1  0
 15 13  1  0
 15 22  1  0
 16 15  2  0
 17 18  1  0
 18 19  1  0
 19 20  1  0
 21 22  1  0
 21 20  1  1
 23 21  1  0
 24 23  2  0
 25 23  1  0
M  END
$$$$
