DLM.pdb
     RDKit          3D

 25 24  0  0  1  0  0  0  0  0999 V2000
   16.6477  -23.8043   -9.1461 N   0  0  0  0  0  0  0  0  0  0  0  0
   17.9949  -24.1985   -9.4841 C   0  0  1  0  0  0  0  0  0  0  0  0
   17.9807  -25.2488  -10.5447 C   0  0  0  0  0  0  0  0  0  0  0  0
   17.4951  -26.5251   -9.9838 C   0  0  0  0  0  0  0  0  0  0  0  0
   16.8573  -27.3067  -10.7199 O   0  0  0  0  0  0  0  0  0  0  0  0
   18.7478  -23.0158  -10.0052 C   0  0  0  0  0  0  0  0  0  0  0  0
   18.1370  -22.1228  -10.6626 O   0  0  0  0  0  0  0  0  0  0  0  0
   17.7492  -26.8305   -8.6758 O   0  0  0  0  0  0  0  0  0  0  0  0
   22.6215  -19.2795  -10.2217 C   0  0  0  0  0  0  0  0  0  0  0  0
   23.1690  -20.6775  -10.4738 C   0  0  1  0  0  0  0  0  0  0  0  0
   24.6141  -20.7054  -10.1341 C   0  0  0  0  0  0  0  0  0  0  0  0
   22.3263  -21.7221   -9.8573 C   0  0  0  0  0  0  0  0  0  0  0  0
   20.9227  -21.8155  -10.3412 C   0  0  2  0  0  0  0  0  0  0  0  0
   20.1436  -22.8651   -9.7813 N   0  0  0  0  0  0  0  0  0  0  0  0
   20.8857  -21.8806  -11.8462 C   0  0  0  0  0  0  0  0  0  0  0  0
   21.1793  -22.9237  -12.4706 O   0  0  0  0  0  0  0  0  0  0  0  0
   16.2416  -20.8706  -15.6105 C   0  0  0  0  0  0  0  0  0  0  0  0
   17.5144  -20.6120  -16.8749 S   0  0  0  0  0  0  0  0  0  0  0  0
   19.1715  -20.8029  -16.1807 C   0  0  0  0  0  0  0  0  0  0  0  0
   19.1447  -20.6715  -14.6573 C   0  0  0  0  0  0  0  0  0  0  0  0
   20.5141  -20.7855  -14.0746 C   0  0  2  0  0  0  0  0  0  0  0  0
   20.5124  -20.7492  -12.6267 N   0  0  0  0  0  0  0  0  0  0  0  0
   21.3506  -19.6992  -14.6472 C   0  0  0  0  0  0  0  0  0  0  0  0
   21.6338  -19.7500  -15.8709 O   0  0  0  0  0  0  0  0  0  0  0  0
   21.8221  -18.6459  -13.8848 O   0  0  0  0  0  0  0  0  0  0  0  0
  2  1  1  6
  2  3  1  0
  2  6  1  0
  4  8  1  0
  4  3  1  0
  5  4  2  0
  6  7  2  0
 10  9  1  1
 10 11  1  0
 12 10  1  0
 13 12  1  1
 14 13  1  0
 14  6  1  0
 15 13  1  0
 15 22  1  0
 16 15  2  0
 17 18  1  0
 18 19  1  0
 19 20  1  0
 21 22  1  0
 21 20  1  6
 23 21  1  0
 24 23  2  0
 25 23  1  0
M  END
$$$$
