DLM.pdb
     RDKit          3D

 25 24  0  0  1  0  0  0  0  0999 V2000
   24.0329  -21.9079  -16.9531 N   0  0  0  0  0  0  0  0  0  0  0  0
   24.8158  -22.9774  -16.3805 C   0  0  1  0  0  0  0  0  0  0  0  0
   25.7411  -23.5512  -17.4016 C   0  0  0  0  0  0  0  0  0  0  0  0
   24.9668  -24.0938  -18.5353 C   0  0  0  0  0  0  0  0  0  0  0  0
   24.1243  -24.9901  -18.3199 O   0  0  0  0  0  0  0  0  0  0  0  0
   25.6372  -22.4471  -15.2484 C   0  0  0  0  0  0  0  0  0  0  0  0
   26.5129  -23.1850  -14.7089 O   0  0  0  0  0  0  0  0  0  0  0  0
   25.1819  -23.6103  -19.7957 O   0  0  0  0  0  0  0  0  0  0  0  0
   27.0075  -16.9707  -14.8612 C   0  0  0  0  0  0  0  0  0  0  0  0
   27.0258  -18.4925  -14.8997 C   0  0  1  0  0  0  0  0  0  0  0  0
   28.4042  -18.9576  -15.1969 C   0  0  0  0  0  0  0  0  0  0  0  0
   26.3709  -19.0847  -13.7158 C   0  0  0  0  0  0  0  0  0  0  0  0
   26.2343  -20.5660  -13.7029 C   0  0  2  0  0  0  0  0  0  0  0  0
   25.4598  -21.1252  -14.7563 N   0  0  0  0  0  0  0  0  0  0  0  0
   25.7208  -21.0379  -12.3671 C   0  0  0  0  0  0  0  0  0  0  0  0
   24.5349  -21.4003  -12.2048 O   0  0  0  0  0  0  0  0  0  0  0  0
   28.9497  -19.2050   -7.0362 C   0  0  0  0  0  0  0  0  0  0  0  0
   27.3285  -19.5718   -6.3131 S   0  0  0  0  0  0  0  0  0  0  0  0
   26.2555  -20.4030   -7.5056 C   0  0  0  0  0  0  0  0  0  0  0  0
   26.9249  -20.4870   -8.8780 C   0  0  0  0  0  0  0  0  0  0  0  0
   26.0382  -21.1495   -9.8792 C   0  0  2  0  0  0  0  0  0  0  0  0
   26.5702  -21.0915  -11.2250 N   0  0  0  0  0  0  0  0  0  0  0  0
   24.6957  -20.5185   -9.7949 C   0  0  0  0  0  0  0  0  0  0  0  0
   24.4852  -19.4779  -10.4680 O   0  0  0  0  0  0  0  0  0  0  0  0
   23.6818  -21.0341   -9.0080 O   0  0  0  0  0  0  0  0  0  0  0  0
  2  1  1  6
  2  3  1  0
  2  6  1  0
  4  8  1  0
  4  3  1  0
  5  4  2  0
  6  7  2  0
 10  9  1  1
 10 11  1  0
 12 10  1  0
 13 12  1  1
 14 13  1  0
 14  6  1  0
 15 13  1  0
 15 22  1  0
 16 15  2  0
 17 18  1  0
 18 19  1  0
 19 20  1  0
 21 22  1  0
 21 20  1  1
 23 21  1  0
 24 23  2  0
 25 23  1  0
M  END
$$$$
