DLM.pdb
     RDKit          3D

 25 24  0  0  1  0  0  0  0  0999 V2000
   21.6798  -18.6651  -16.8494 N   0  0  0  0  0  0  0  0  0  0  0  0
   22.0996  -17.7737  -17.9047 C   0  0  1  0  0  0  0  0  0  0  0  0
   20.9995  -17.5832  -18.8954 C   0  0  0  0  0  0  0  0  0  0  0  0
   20.6997  -18.8627  -19.5681 C   0  0  0  0  0  0  0  0  0  0  0  0
   19.5371  -19.3159  -19.5174 O   0  0  0  0  0  0  0  0  0  0  0  0
   22.4458  -16.4387  -17.3256 C   0  0  0  0  0  0  0  0  0  0  0  0
   21.6282  -15.8590  -16.5522 O   0  0  0  0  0  0  0  0  0  0  0  0
   21.6924  -19.5278  -20.2321 O   0  0  0  0  0  0  0  0  0  0  0  0
   27.8425  -14.8854  -16.5580 C   0  0  0  0  0  0  0  0  0  0  0  0
   26.3614  -15.1455  -16.3205 C   0  0  1  0  0  0  0  0  0  0  0  0
   26.1049  -15.2134  -14.8597 C   0  0  0  0  0  0  0  0  0  0  0  0
   25.5058  -14.2267  -17.0983 C   0  0  0  0  0  0  0  0  0  0  0  0
   24.0480  -14.5233  -17.1075 C   0  0  2  0  0  0  0  0  0  0  0  0
   23.6787  -15.7963  -17.6225 N   0  0  0  0  0  0  0  0  0  0  0  0
   23.2908  -13.4307  -17.8172 C   0  0  0  0  0  0  0  0  0  0  0  0
   23.1891  -13.3984  -19.0632 O   0  0  0  0  0  0  0  0  0  0  0  0
   17.1552   -9.9359  -16.7126 C   0  0  0  0  0  0  0  0  0  0  0  0
   17.7817  -10.9007  -18.1134 S   0  0  0  0  0  0  0  0  0  0  0  0
   19.5461  -10.6081  -18.3698 C   0  0  0  0  0  0  0  0  0  0  0  0
   20.3834  -11.7098  -17.7189 C   0  0  0  0  0  0  0  0  0  0  0  0
   21.8393  -11.3833  -17.7547 C   0  0  2  0  0  0  0  0  0  0  0  0
   22.6545  -12.3816  -17.0940 N   0  0  0  0  0  0  0  0  0  0  0  0
   22.0252  -10.0389  -17.1499 C   0  0  0  0  0  0  0  0  0  0  0  0
   22.5790   -9.9657  -16.0238 O   0  0  0  0  0  0  0  0  0  0  0  0
   21.6126   -8.8787  -17.7798 O   0  0  0  0  0  0  0  0  0  0  0  0
  2  1  1  1
  2  3  1  0
  2  6  1  0
  4  8  1  0
  4  3  1  0
  5  4  2  0
  6  7  2  0
 10  9  1  1
 10 11  1  0
 12 10  1  0
 13 12  1  6
 14 13  1  0
 14  6  1  0
 15 13  1  0
 15 22  1  0
 16 15  2  0
 17 18  1  0
 18 19  1  0
 19 20  1  0
 21 22  1  0
 21 20  1  1
 23 21  1  0
 24 23  2  0
 25 23  1  0
M  END
$$$$
