DLM.pdb
     RDKit          3D

 25 24  0  0  1  0  0  0  0  0999 V2000
   26.8703  -20.7815  -17.6444 N   0  0  0  0  0  0  0  0  0  0  0  0
   26.6319  -19.7733  -16.6389 C   0  0  1  0  0  0  0  0  0  0  0  0
   25.7611  -18.6897  -17.1825 C   0  0  0  0  0  0  0  0  0  0  0  0
   26.5236  -17.8617  -18.1377 C   0  0  0  0  0  0  0  0  0  0  0  0
   27.7677  -17.8144  -18.0400 O   0  0  0  0  0  0  0  0  0  0  0  0
   25.9374  -20.3891  -15.4659 C   0  0  0  0  0  0  0  0  0  0  0  0
   25.0759  -21.2977  -15.6526 O   0  0  0  0  0  0  0  0  0  0  0  0
   25.8610  -17.1636  -19.1084 O   0  0  0  0  0  0  0  0  0  0  0  0
   28.5350  -20.7148  -10.5137 C   0  0  0  0  0  0  0  0  0  0  0  0
   27.7468  -21.0270  -11.7782 C   0  0  1  0  0  0  0  0  0  0  0  0
   27.8717  -22.4737  -12.0877 C   0  0  0  0  0  0  0  0  0  0  0  0
   26.3760  -20.4796  -11.7260 C   0  0  0  0  0  0  0  0  0  0  0  0
   25.5897  -20.5348  -12.9877 C   0  0  2  0  0  0  0  0  0  0  0  0
   26.2199  -19.9783  -14.1346 N   0  0  0  0  0  0  0  0  0  0  0  0
   24.2275  -19.9219  -12.7887 C   0  0  0  0  0  0  0  0  0  0  0  0
   24.0830  -18.7572  -12.3566 O   0  0  0  0  0  0  0  0  0  0  0  0
   19.9787  -22.2417  -17.6597 C   0  0  0  0  0  0  0  0  0  0  0  0
   20.0237  -20.7569  -16.6209 S   0  0  0  0  0  0  0  0  0  0  0  0
   20.8501  -21.0859  -15.0483 C   0  0  0  0  0  0  0  0  0  0  0  0
   21.0695  -19.7913  -14.2643 C   0  0  0  0  0  0  0  0  0  0  0  0
   21.7256  -20.0529  -12.9495 C   0  0  2  0  0  0  0  0  0  0  0  0
   23.0389  -20.6479  -13.0864 N   0  0  0  0  0  0  0  0  0  0  0  0
   20.8184  -20.9110  -12.1444 C   0  0  0  0  0  0  0  0  0  0  0  0
   19.7453  -20.4097  -11.7231 O   0  0  0  0  0  0  0  0  0  0  0  0
   21.1142  -22.2291  -11.8471 O   0  0  0  0  0  0  0  0  0  0  0  0
  2  1  1  6
  2  3  1  0
  2  6  1  0
  4  8  1  0
  4  3  1  0
  5  4  2  0
  6  7  2  0
 10  9  1  1
 10 11  1  0
 12 10  1  0
 13 12  1  1
 14 13  1  0
 14  6  1  0
 15 13  1  0
 15 22  1  0
 16 15  2  0
 17 18  1  0
 18 19  1  0
 19 20  1  0
 21 22  1  0
 21 20  1  6
 23 21  1  0
 24 23  2  0
 25 23  1  0
M  END
$$$$
