DLM.pdb
     RDKit          3D

 25 24  0  0  1  0  0  0  0  0999 V2000
   26.3272  -19.3304  -19.9511 N   0  0  0  0  0  0  0  0  0  0  0  0
   26.7081  -17.9920  -20.3362 C   0  0  1  0  0  0  0  0  0  0  0  0
   26.1008  -17.6349  -21.6521 C   0  0  0  0  0  0  0  0  0  0  0  0
   26.6334  -18.5170  -22.7092 C   0  0  0  0  0  0  0  0  0  0  0  0
   25.8619  -18.9285  -23.6008 O   0  0  0  0  0  0  0  0  0  0  0  0
   26.2178  -17.0171  -19.3132 C   0  0  0  0  0  0  0  0  0  0  0  0
   25.1923  -17.2930  -18.6241 O   0  0  0  0  0  0  0  0  0  0  0  0
   27.9546  -18.8681  -22.6965 O   0  0  0  0  0  0  0  0  0  0  0  0
   26.4645  -13.4911  -15.3454 C   0  0  0  0  0  0  0  0  0  0  0  0
   27.1393  -12.9336  -16.5910 C   0  0  1  0  0  0  0  0  0  0  0  0
   28.1861  -11.9614  -16.1866 C   0  0  0  0  0  0  0  0  0  0  0  0
   27.5562  -14.0028  -17.5208 C   0  0  0  0  0  0  0  0  0  0  0  0
   26.4708  -14.8337  -18.1080 C   0  0  2  0  0  0  0  0  0  0  0  0
   26.8770  -15.7773  -19.0913 N   0  0  0  0  0  0  0  0  0  0  0  0
   25.3672  -13.9593  -18.6447 C   0  0  0  0  0  0  0  0  0  0  0  0
   25.5148  -13.2653  -19.6746 O   0  0  0  0  0  0  0  0  0  0  0  0
   17.5904  -12.7259  -19.3142 C   0  0  0  0  0  0  0  0  0  0  0  0
   18.9269  -13.5717  -18.4287 S   0  0  0  0  0  0  0  0  0  0  0  0
   20.5408  -12.9058  -18.8936 C   0  0  0  0  0  0  0  0  0  0  0  0
   21.6706  -13.7113  -18.2506 C   0  0  0  0  0  0  0  0  0  0  0  0
   23.0056  -13.1131  -18.5467 C   0  0  2  0  0  0  0  0  0  0  0  0
   24.1007  -13.8856  -17.9974 N   0  0  0  0  0  0  0  0  0  0  0  0
   23.0097  -11.7186  -18.0340 C   0  0  0  0  0  0  0  0  0  0  0  0
   23.4369  -11.5153  -16.8693 O   0  0  0  0  0  0  0  0  0  0  0  0
   22.5634  -10.6493  -18.7893 O   0  0  0  0  0  0  0  0  0  0  0  0
  2  1  1  1
  2  3  1  0
  2  6  1  0
  4  8  1  0
  4  3  1  0
  5  4  2  0
  6  7  2  0
 10  9  1  1
 10 11  1  0
 12 10  1  0
 13 12  1  6
 14 13  1  0
 14  6  1  0
 15 13  1  0
 15 22  1  0
 16 15  2  0
 17 18  1  0
 18 19  1  0
 19 20  1  0
 21 22  1  0
 21 20  1  1
 23 21  1  0
 24 23  2  0
 25 23  1  0
M  END
$$$$
