DLM.pdb
     RDKit          3D

 25 24  0  0  1  0  0  0  0  0999 V2000
   19.9046  -13.6111  -18.3414 N   0  0  0  0  0  0  0  0  0  0  0  0
   18.9724  -12.6755  -17.7583 C   0  0  1  0  0  0  0  0  0  0  0  0
   17.8981  -13.4016  -17.0189 C   0  0  0  0  0  0  0  0  0  0  0  0
   17.0256  -14.1168  -17.9710 C   0  0  0  0  0  0  0  0  0  0  0  0
   17.1868  -13.9337  -19.1958 O   0  0  0  0  0  0  0  0  0  0  0  0
   19.6905  -11.7886  -16.7913 C   0  0  0  0  0  0  0  0  0  0  0  0
   19.0957  -11.3849  -15.7492 O   0  0  0  0  0  0  0  0  0  0  0  0
   16.0606  -14.9634  -17.5011 O   0  0  0  0  0  0  0  0  0  0  0  0
   23.4346   -9.8880  -13.6745 C   0  0  0  0  0  0  0  0  0  0  0  0
   23.9723   -9.9238  -15.0983 C   0  0  1  0  0  0  0  0  0  0  0  0
   25.4416  -10.1339  -15.0610 C   0  0  0  0  0  0  0  0  0  0  0  0
   23.1970  -10.8385  -15.9606 C   0  0  0  0  0  0  0  0  0  0  0  0
   21.7530  -10.5251  -16.1335 C   0  0  2  0  0  0  0  0  0  0  0  0
   21.0347  -11.3821  -17.0120 N   0  0  0  0  0  0  0  0  0  0  0  0
   21.5696   -9.0855  -16.5392 C   0  0  0  0  0  0  0  0  0  0  0  0
   22.1908   -8.5855  -17.5027 O   0  0  0  0  0  0  0  0  0  0  0  0
   17.0148   -9.1667  -16.4252 C   0  0  0  0  0  0  0  0  0  0  0  0
   16.9705   -7.7807  -17.5925 S   0  0  0  0  0  0  0  0  0  0  0  0
   18.6055   -7.0355  -17.7824 C   0  0  0  0  0  0  0  0  0  0  0  0
   19.0999   -6.4564  -16.4562 C   0  0  0  0  0  0  0  0  0  0  0  0
   20.5200   -6.8315  -16.1915 C   0  0  2  0  0  0  0  0  0  0  0  0
   20.6749   -8.2275  -15.8379 N   0  0  0  0  0  0  0  0  0  0  0  0
   21.0421   -5.9371  -15.1262 C   0  0  0  0  0  0  0  0  0  0  0  0
   21.0378   -4.6977  -15.3363 O   0  0  0  0  0  0  0  0  0  0  0  0
   21.5273   -6.4197  -13.9242 O   0  0  0  0  0  0  0  0  0  0  0  0
  2  1  1  1
  2  3  1  0
  2  6  1  0
  4  8  1  0
  4  3  1  0
  5  4  2  0
  6  7  2  0
 10  9  1  1
 10 11  1  0
 12 10  1  0
 13 12  1  6
 14 13  1  0
 14  6  1  0
 15 13  1  0
 15 22  1  0
 16 15  2  0
 17 18  1  0
 18 19  1  0
 19 20  1  0
 21 22  1  0
 21 20  1  1
 23 21  1  0
 24 23  2  0
 25 23  1  0
M  END
$$$$
