KQK.pdb
     RDKit          3D

 28 27  0  0  1  0  0  0  0  0999 V2000
   11.4789  -19.0321   15.5639 N   0  0  0  0  0  0  0  0  0  0  0  0
   11.4524  -17.9104   16.4500 C   0  0  1  0  0  0  0  0  0  0  0  0
   10.3116  -18.0239   17.4927 C   0  0  0  0  0  0  0  0  0  0  0  0
    9.9952  -19.4817   17.5673 C   0  0  0  0  0  0  0  0  0  0  0  0
    8.8868  -19.7592   18.5190 C   0  0  0  0  0  0  0  0  0  0  0  0
    8.5187  -21.1940   18.7178 C   0  0  0  0  0  0  0  0  0  0  0  0
    7.4540  -21.4473   19.6382 N   0  0  0  0  0  0  0  0  0  0  0  0
   12.6930  -17.7060   17.2294 C   0  0  0  0  0  0  0  0  0  0  0  0
   13.3029  -18.7132   17.6536 O   0  0  0  0  0  0  0  0  0  0  0  0
   15.8317  -12.2096   17.3450 N   0  0  0  0  0  0  0  0  0  0  0  0
   16.7780  -13.2610   17.4891 C   0  0  0  0  0  0  0  0  0  0  0  0
   17.9254  -13.1078   17.0030 O   0  0  0  0  0  0  0  0  0  0  0  0
   16.3978  -14.5414   18.2192 C   0  0  0  0  0  0  0  0  0  0  0  0
   15.1111  -14.9983   17.6450 C   0  0  0  0  0  0  0  0  0  0  0  0
   14.5237  -16.2447   18.1876 C   0  0  2  0  0  0  0  0  0  0  0  0
   13.2069  -16.4394   17.5088 N   0  0  0  0  0  0  0  0  0  0  0  0
   14.2624  -16.3185   19.6258 C   0  0  0  0  0  0  0  0  0  0  0  0
   13.3752  -15.5189   20.1093 O   0  0  0  0  0  0  0  0  0  0  0  0
   14.8547  -17.1662   20.5763 N   0  0  0  0  0  0  0  0  0  0  0  0
   14.4212  -17.1303   22.0213 C   0  0  1  0  0  0  0  0  0  0  0  0
   14.2888  -18.4985   22.5185 C   0  0  0  0  0  0  0  0  0  0  0  0
   13.1606  -19.3266   22.1566 C   0  0  0  0  0  0  0  0  0  0  0  0
   12.9058  -20.7221   22.4745 C   0  0  0  0  0  0  0  0  0  0  0  0
   11.6639  -21.3530   21.9121 C   0  0  0  0  0  0  0  0  0  0  0  0
   11.6659  -22.7967   22.1084 N   0  0  0  0  0  0  0  0  0  0  0  0
   15.6801  -16.4818   22.5988 C   0  0  0  0  0  0  0  0  0  0  0  0
   16.7603  -16.5354   21.8989 O   0  0  0  0  0  0  0  0  0  0  0  0
   15.8231  -15.8447   23.7817 O   0  0  0  0  0  0  0  0  0  0  0  0
  2  1  1  1
  2  3  1  0
  3  4  1  0
  4  5  1  0
  5  6  1  0
  7  6  1  0
  8  2  1  0
  8  9  2  0
 10 11  1  0
 11 13  1  0
 11 12  2  0
 13 14  1  0
 15 14  1  1
 15 16  1  0
 16  8  1  0
 17 15  1  0
 18 17  2  0
 19 17  1  0
 20 19  1  0
 20 26  1  0
 20 21  1  1
 22 23  1  0
 22 21  1  0
 23 24  1  0
 24 25  1  0
 26 28  1  0
 27 26  2  0
M  END
$$$$
