KQK.pdb
     RDKit          3D

 28 27  0  0  1  0  0  0  0  0999 V2000
    5.3952  -20.5255   20.0805 N   0  0  0  0  0  0  0  0  0  0  0  0
    5.4297  -19.8063   21.3157 C   0  0  1  0  0  0  0  0  0  0  0  0
    5.5230  -20.7570   22.5360 C   0  0  0  0  0  0  0  0  0  0  0  0
    4.1093  -20.9893   22.9582 C   0  0  0  0  0  0  0  0  0  0  0  0
    4.0284  -21.8334   24.1798 C   0  0  0  0  0  0  0  0  0  0  0  0
    2.6665  -22.0466   24.7571 C   0  0  0  0  0  0  0  0  0  0  0  0
    1.6105  -22.2528   23.8151 N   0  0  0  0  0  0  0  0  0  0  0  0
    6.5599  -18.8616   21.4523 C   0  0  0  0  0  0  0  0  0  0  0  0
    7.7247  -19.3067   21.3447 O   0  0  0  0  0  0  0  0  0  0  0  0
    7.1334  -12.0567   20.0280 N   0  0  0  0  0  0  0  0  0  0  0  0
    7.7040  -13.3468   19.8501 C   0  0  0  0  0  0  0  0  0  0  0  0
    7.8815  -13.7696   18.6814 O   0  0  0  0  0  0  0  0  0  0  0  0
    8.0881  -14.1896   21.0581 C   0  0  0  0  0  0  0  0  0  0  0  0
    7.0931  -15.2826   21.1542 C   0  0  0  0  0  0  0  0  0  0  0  0
    7.5249  -16.5470   21.7929 C   0  0  2  0  0  0  0  0  0  0  0  0
    6.3781  -17.5001   21.6957 N   0  0  0  0  0  0  0  0  0  0  0  0
    7.9156  -16.5127   23.2030 C   0  0  0  0  0  0  0  0  0  0  0  0
    6.9855  -16.3106   24.0714 O   0  0  0  0  0  0  0  0  0  0  0  0
    9.1956  -16.6801   23.7563 N   0  0  0  0  0  0  0  0  0  0  0  0
    9.4140  -16.5758   25.2458 C   0  0  1  0  0  0  0  0  0  0  0  0
    9.8411  -17.8750   25.7621 C   0  0  0  0  0  0  0  0  0  0  0  0
    8.9304  -18.7374   26.4809 C   0  0  0  0  0  0  0  0  0  0  0  0
    9.1629  -20.0613   27.0344 C   0  0  0  0  0  0  0  0  0  0  0  0
    8.0502  -20.6982   27.8175 C   0  0  0  0  0  0  0  0  0  0  0  0
    7.8817  -22.0998   27.4570 N   0  0  0  0  0  0  0  0  0  0  0  0
   10.5983  -15.6089   25.2141 C   0  0  0  0  0  0  0  0  0  0  0  0
   11.2316  -15.4687   24.1010 O   0  0  0  0  0  0  0  0  0  0  0  0
   11.0924  -14.8608   26.2251 O   0  0  0  0  0  0  0  0  0  0  0  0
  2  1  1  6
  2  3  1  0
  3  4  1  0
  4  5  1  0
  5  6  1  0
  7  6  1  0
  8  2  1  0
  8  9  2  0
 10 11  1  0
 11 13  1  0
 11 12  2  0
 13 14  1  0
 15 14  1  1
 15 16  1  0
 16  8  1  0
 17 15  1  0
 18 17  2  0
 19 17  1  0
 20 19  1  0
 20 26  1  0
 20 21  1  6
 22 23  1  0
 22 21  1  0
 23 24  1  0
 24 25  1  0
 26 28  1  0
 27 26  2  0
M  END
$$$$
