KQK.pdb
     RDKit          3D

 28 27  0  0  1  0  0  0  0  0999 V2000
    9.4803  -18.8328   17.8477 N   0  0  0  0  0  0  0  0  0  0  0  0
    9.9877  -18.6588   19.1729 C   0  0  1  0  0  0  0  0  0  0  0  0
   11.0390  -17.5226   19.2451 C   0  0  0  0  0  0  0  0  0  0  0  0
   12.2789  -18.1000   18.6451 C   0  0  0  0  0  0  0  0  0  0  0  0
   13.4389  -17.1792   18.7790 C   0  0  0  0  0  0  0  0  0  0  0  0
   14.7532  -17.6806   18.2742 C   0  0  0  0  0  0  0  0  0  0  0  0
   15.8883  -16.8564   18.5523 N   0  0  0  0  0  0  0  0  0  0  0  0
    8.9656  -18.3285   20.1902 C   0  0  0  0  0  0  0  0  0  0  0  0
    7.8849  -17.8262   19.8078 O   0  0  0  0  0  0  0  0  0  0  0  0
    5.8455  -21.7183   25.4616 N   0  0  0  0  0  0  0  0  0  0  0  0
    7.0467  -21.1334   24.9752 C   0  0  0  0  0  0  0  0  0  0  0  0
    8.0954  -21.8238   24.9776 O   0  0  0  0  0  0  0  0  0  0  0  0
    7.0505  -19.6994   24.4646 C   0  0  0  0  0  0  0  0  0  0  0  0
    7.9139  -19.6734   23.2613 C   0  0  0  0  0  0  0  0  0  0  0  0
    8.0634  -18.3809   22.5541 C   0  0  2  0  0  0  0  0  0  0  0  0
    9.1593  -18.5541   21.5532 N   0  0  0  0  0  0  0  0  0  0  0  0
    8.4063  -17.1959   23.3417 C   0  0  0  0  0  0  0  0  0  0  0  0
    9.6556  -16.9723   23.5637 O   0  0  0  0  0  0  0  0  0  0  0  0
    7.5410  -16.2398   23.8984 N   0  0  0  0  0  0  0  0  0  0  0  0
    8.0816  -15.0809   24.6996 C   0  0  1  0  0  0  0  0  0  0  0  0
    6.9977  -14.1403   24.9776 C   0  0  0  0  0  0  0  0  0  0  0  0
    7.2042  -12.9759   25.8090 C   0  0  0  0  0  0  0  0  0  0  0  0
    6.2731  -11.9122   26.1476 C   0  0  0  0  0  0  0  0  0  0  0  0
    6.7497  -10.8347   27.0797 C   0  0  0  0  0  0  0  0  0  0  0  0
    5.6842   -9.8903   27.3889 N   0  0  0  0  0  0  0  0  0  0  0  0
    8.4414  -15.8561   25.9678 C   0  0  0  0  0  0  0  0  0  0  0  0
    7.6771  -16.8341   26.3130 O   0  0  0  0  0  0  0  0  0  0  0  0
    9.4799  -15.6481   26.8068 O   0  0  0  0  0  0  0  0  0  0  0  0
  2  1  1  6
  2  3  1  0
  3  4  1  0
  4  5  1  0
  5  6  1  0
  7  6  1  0
  8  2  1  0
  8  9  2  0
 10 11  1  0
 11 13  1  0
 11 12  2  0
 13 14  1  0
 15 14  1  1
 15 16  1  0
 16  8  1  0
 17 15  1  0
 18 17  2  0
 19 17  1  0
 20 19  1  0
 20 26  1  0
 20 21  1  1
 22 23  1  0
 22 21  1  0
 23 24  1  0
 24 25  1  0
 26 28  1  0
 27 26  2  0
M  END
$$$$
