KQK.pdb
     RDKit          3D

 28 27  0  0  1  0  0  0  0  0999 V2000
    7.5233  -18.1431   21.8629 N   0  0  0  0  0  0  0  0  0  0  0  0
    8.6819  -18.4615   22.6377 C   0  0  1  0  0  0  0  0  0  0  0  0
    9.9109  -18.7629   21.7432 C   0  0  0  0  0  0  0  0  0  0  0  0
    9.4285  -18.5766   20.3421 C   0  0  0  0  0  0  0  0  0  0  0  0
   10.5172  -18.7816   19.3502 C   0  0  0  0  0  0  0  0  0  0  0  0
   10.1497  -18.6224   17.9103 C   0  0  0  0  0  0  0  0  0  0  0  0
   10.3299  -17.3162   17.3571 N   0  0  0  0  0  0  0  0  0  0  0  0
    9.1138  -17.4000   23.5731 C   0  0  0  0  0  0  0  0  0  0  0  0
   10.2961  -17.4124   23.9836 O   0  0  0  0  0  0  0  0  0  0  0  0
    5.7556  -12.4354   24.5900 N   0  0  0  0  0  0  0  0  0  0  0  0
    6.7251  -12.1434   25.5882 C   0  0  0  0  0  0  0  0  0  0  0  0
    6.6405  -11.0549   26.2082 O   0  0  0  0  0  0  0  0  0  0  0  0
    7.8382  -13.1364   25.8911 C   0  0  0  0  0  0  0  0  0  0  0  0
    7.6740  -14.2675   24.9488 C   0  0  0  0  0  0  0  0  0  0  0  0
    8.6953  -15.3394   24.9816 C   0  0  2  0  0  0  0  0  0  0  0  0
    8.2578  -16.3903   24.0136 N   0  0  0  0  0  0  0  0  0  0  0  0
    8.9407  -16.0238   26.2519 C   0  0  0  0  0  0  0  0  0  0  0  0
    8.0592  -16.8769   26.6459 O   0  0  0  0  0  0  0  0  0  0  0  0
   10.0350  -15.8813   27.1208 N   0  0  0  0  0  0  0  0  0  0  0  0
   10.0712  -16.6056   28.4441 C   0  0  1  0  0  0  0  0  0  0  0  0
   11.1660  -17.5741   28.4332 C   0  0  0  0  0  0  0  0  0  0  0  0
   11.3460  -18.5211   29.5106 C   0  0  0  0  0  0  0  0  0  0  0  0
   12.3734  -19.5354   29.6799 C   0  0  0  0  0  0  0  0  0  0  0  0
   12.3160  -20.3913   30.9133 C   0  0  0  0  0  0  0  0  0  0  0  0
   13.4175  -21.3443   30.9502 N   0  0  0  0  0  0  0  0  0  0  0  0
   10.4374  -15.4099   29.3244 C   0  0  0  0  0  0  0  0  0  0  0  0
   10.9629  -14.3810   28.7544 O   0  0  0  0  0  0  0  0  0  0  0  0
   10.2867  -15.2801   30.6609 O   0  0  0  0  0  0  0  0  0  0  0  0
  2  1  1  6
  2  3  1  0
  3  4  1  0
  4  5  1  0
  5  6  1  0
  7  6  1  0
  8  2  1  0
  8  9  2  0
 10 11  1  0
 11 13  1  0
 11 12  2  0
 13 14  1  0
 15 14  1  1
 15 16  1  0
 16  8  1  0
 17 15  1  0
 18 17  2  0
 19 17  1  0
 20 19  1  0
 20 26  1  0
 20 21  1  6
 22 23  1  0
 22 21  1  0
 23 24  1  0
 24 25  1  0
 26 28  1  0
 27 26  2  0
M  END
$$$$
