KQK.pdb
     RDKit          3D

 28 27  0  0  1  0  0  0  0  0999 V2000
   10.0418  -19.8853   19.1769 N   0  0  0  0  0  0  0  0  0  0  0  0
   10.8886  -18.9020   18.5768 C   0  0  1  0  0  0  0  0  0  0  0  0
   10.6106  -18.7474   17.0601 C   0  0  0  0  0  0  0  0  0  0  0  0
   11.9572  -18.6087   16.4290 C   0  0  0  0  0  0  0  0  0  0  0  0
   11.8631  -18.4516   14.9533 C   0  0  0  0  0  0  0  0  0  0  0  0
   13.1441  -18.2080   14.2230 C   0  0  0  0  0  0  0  0  0  0  0  0
   13.0283  -17.9503   12.8212 N   0  0  0  0  0  0  0  0  0  0  0  0
   10.7657  -17.5439   19.1503 C   0  0  0  0  0  0  0  0  0  0  0  0
   11.6548  -16.7033   18.8870 O   0  0  0  0  0  0  0  0  0  0  0  0
    8.0217  -13.4159   18.6611 N   0  0  0  0  0  0  0  0  0  0  0  0
    7.8832  -13.0356   20.0241 C   0  0  0  0  0  0  0  0  0  0  0  0
    7.8172  -11.8133   20.3035 O   0  0  0  0  0  0  0  0  0  0  0  0
    7.8174  -14.0960   21.1142 C   0  0  0  0  0  0  0  0  0  0  0  0
    8.1921  -15.3836   20.4850 C   0  0  0  0  0  0  0  0  0  0  0  0
    9.6088  -15.8046   20.5791 C   0  0  2  0  0  0  0  0  0  0  0  0
    9.7020  -17.1660   19.9699 N   0  0  0  0  0  0  0  0  0  0  0  0
   10.2153  -15.9037   21.9074 C   0  0  0  0  0  0  0  0  0  0  0  0
   10.6873  -14.8228   22.4261 O   0  0  0  0  0  0  0  0  0  0  0  0
   10.3525  -17.0414   22.7195 N   0  0  0  0  0  0  0  0  0  0  0  0
   10.9807  -16.9435   24.0881 C   0  0  1  0  0  0  0  0  0  0  0  0
   10.7457  -18.1892   24.8161 C   0  0  0  0  0  0  0  0  0  0  0  0
   10.7349  -18.2277   26.2612 C   0  0  0  0  0  0  0  0  0  0  0  0
   11.3102  -19.2165   27.1580 C   0  0  0  0  0  0  0  0  0  0  0  0
   11.0514  -19.0616   28.6298 C   0  0  0  0  0  0  0  0  0  0  0  0
   11.6548  -20.1468   29.3922 N   0  0  0  0  0  0  0  0  0  0  0  0
   12.4408  -16.8652   23.6403 C   0  0  0  0  0  0  0  0  0  0  0  0
   12.7916  -17.5508   22.6075 O   0  0  0  0  0  0  0  0  0  0  0  0
   13.4482  -16.1584   24.1983 O   0  0  0  0  0  0  0  0  0  0  0  0
  2  1  1  1
  2  3  1  0
  3  4  1  0
  4  5  1  0
  5  6  1  0
  7  6  1  0
  8  2  1  0
  8  9  2  0
 10 11  1  0
 11 13  1  0
 11 12  2  0
 13 14  1  0
 15 14  1  1
 15 16  1  0
 16  8  1  0
 17 15  1  0
 18 17  2  0
 19 17  1  0
 20 19  1  0
 20 26  1  0
 20 21  1  1
 22 23  1  0
 22 21  1  0
 23 24  1  0
 24 25  1  0
 26 28  1  0
 27 26  2  0
M  END
$$$$
