KQK.pdb
     RDKit          3D

 28 27  0  0  1  0  0  0  0  0999 V2000
    0.5828  -24.2193   18.7498 N   0  0  0  0  0  0  0  0  0  0  0  0
    1.0778  -23.1296   19.5318 C   0  0  1  0  0  0  0  0  0  0  0  0
    0.2943  -22.9671   20.8589 C   0  0  0  0  0  0  0  0  0  0  0  0
   -1.0253  -23.6230   20.6154 C   0  0  0  0  0  0  0  0  0  0  0  0
   -1.8660  -23.6468   21.8417 C   0  0  0  0  0  0  0  0  0  0  0  0
   -3.2350  -24.2301   21.7036 C   0  0  0  0  0  0  0  0  0  0  0  0
   -3.9013  -23.9811   20.4630 N   0  0  0  0  0  0  0  0  0  0  0  0
    2.5027  -23.2377   19.9147 C   0  0  0  0  0  0  0  0  0  0  0  0
    2.9502  -24.3621   20.2338 O   0  0  0  0  0  0  0  0  0  0  0  0
    7.6291  -21.5749   17.3260 N   0  0  0  0  0  0  0  0  0  0  0  0
    7.1209  -20.3775   17.9002 C   0  0  0  0  0  0  0  0  0  0  0  0
    7.6429  -19.2842   17.5709 O   0  0  0  0  0  0  0  0  0  0  0  0
    5.9677  -20.4311   18.8922 C   0  0  0  0  0  0  0  0  0  0  0  0
    5.5316  -21.8446   18.9692 C   0  0  0  0  0  0  0  0  0  0  0  0
    4.8271  -22.2775   20.1978 C   0  0  2  0  0  0  0  0  0  0  0  0
    3.3627  -22.1394   19.9340 N   0  0  0  0  0  0  0  0  0  0  0  0
    5.0933  -21.5524   21.4410 C   0  0  0  0  0  0  0  0  0  0  0  0
    4.2580  -20.6324   21.7817 O   0  0  0  0  0  0  0  0  0  0  0  0
    6.1568  -21.7286   22.3414 N   0  0  0  0  0  0  0  0  0  0  0  0
    6.3009  -20.8390   23.5518 C   0  0  1  0  0  0  0  0  0  0  0  0
    6.7186  -21.6468   24.6962 C   0  0  0  0  0  0  0  0  0  0  0  0
    7.0131  -21.0447   25.9770 C   0  0  0  0  0  0  0  0  0  0  0  0
    7.4193  -21.6808   27.2194 C   0  0  0  0  0  0  0  0  0  0  0  0
    7.6651  -20.7985   28.4102 C   0  0  0  0  0  0  0  0  0  0  0  0
    7.8870  -21.5844   29.6168 N   0  0  0  0  0  0  0  0  0  0  0  0
    7.4731  -19.9949   23.0497 C   0  0  0  0  0  0  0  0  0  0  0  0
    8.2270  -20.4961   22.1331 O   0  0  0  0  0  0  0  0  0  0  0  0
    7.8435  -18.7587   23.4503 O   0  0  0  0  0  0  0  0  0  0  0  0
  2  1  1  1
  2  3  1  0
  3  4  1  0
  4  5  1  0
  5  6  1  0
  7  6  1  0
  8  2  1  0
  8  9  2  0
 10 11  1  0
 11 13  1  0
 11 12  2  0
 13 14  1  0
 15 14  1  6
 15 16  1  0
 16  8  1  0
 17 15  1  0
 18 17  2  0
 19 17  1  0
 20 19  1  0
 20 26  1  0
 20 21  1  1
 22 23  1  0
 22 21  1  0
 23 24  1  0
 24 25  1  0
 26 28  1  0
 27 26  2  0
M  END
$$$$
