KQK.pdb
     RDKit          3D

 28 27  0  0  1  0  0  0  0  0999 V2000
    7.8306  -17.7603   18.5686 N   0  0  0  0  0  0  0  0  0  0  0  0
    8.6137  -16.9556   19.4535 C   0  0  1  0  0  0  0  0  0  0  0  0
    8.0566  -15.5142   19.5702 C   0  0  0  0  0  0  0  0  0  0  0  0
    8.8372  -14.7131   18.5804 C   0  0  0  0  0  0  0  0  0  0  0  0
    8.5354  -13.2607   18.6831 C   0  0  0  0  0  0  0  0  0  0  0  0
    9.2408  -12.3607   17.7208 C   0  0  0  0  0  0  0  0  0  0  0  0
    9.0136  -10.9591   17.8900 N   0  0  0  0  0  0  0  0  0  0  0  0
    8.7059  -17.4663   20.8388 C   0  0  0  0  0  0  0  0  0  0  0  0
    7.6462  -17.7542   21.4393 O   0  0  0  0  0  0  0  0  0  0  0  0
   13.3922  -20.4201   23.0780 N   0  0  0  0  0  0  0  0  0  0  0  0
   12.8950  -20.0504   24.3577 C   0  0  0  0  0  0  0  0  0  0  0  0
   13.5119  -20.4423   25.3785 O   0  0  0  0  0  0  0  0  0  0  0  0
   11.6402  -19.1969   24.4766 C   0  0  0  0  0  0  0  0  0  0  0  0
   11.2190  -18.8567   23.0979 C   0  0  0  0  0  0  0  0  0  0  0  0
   10.0012  -18.0291   22.9389 C   0  0  2  0  0  0  0  0  0  0  0  0
    9.9229  -17.6383   21.4987 N   0  0  0  0  0  0  0  0  0  0  0  0
    9.9009  -16.7890   23.7098 C   0  0  0  0  0  0  0  0  0  0  0  0
   10.6064  -15.7860   23.3143 O   0  0  0  0  0  0  0  0  0  0  0  0
    9.1174  -16.5312   24.8466 N   0  0  0  0  0  0  0  0  0  0  0  0
    9.2039  -15.2047   25.5609 C   0  0  1  0  0  0  0  0  0  0  0  0
    7.8790  -14.5880   25.5936 C   0  0  0  0  0  0  0  0  0  0  0  0
    7.6284  -13.3785   26.3446 C   0  0  0  0  0  0  0  0  0  0  0  0
    6.3895  -12.6341   26.5005 C   0  0  0  0  0  0  0  0  0  0  0  0
    6.4321  -11.3633   27.3005 C   0  0  0  0  0  0  0  0  0  0  0  0
    5.1361  -10.6976   27.3094 N   0  0  0  0  0  0  0  0  0  0  0  0
    9.5680  -15.7394   26.9466 C   0  0  0  0  0  0  0  0  0  0  0  0
    9.1836  -16.9303   27.2527 O   0  0  0  0  0  0  0  0  0  0  0  0
   10.2542  -15.1143   27.9286 O   0  0  0  0  0  0  0  0  0  0  0  0
  2  1  1  6
  2  3  1  0
  3  4  1  0
  4  5  1  0
  5  6  1  0
  7  6  1  0
  8  2  1  0
  8  9  2  0
 10 11  1  0
 11 13  1  0
 11 12  2  0
 13 14  1  0
 15 14  1  6
 15 16  1  0
 16  8  1  0
 17 15  1  0
 18 17  2  0
 19 17  1  0
 20 19  1  0
 20 26  1  0
 20 21  1  1
 22 23  1  0
 22 21  1  0
 23 24  1  0
 24 25  1  0
 26 28  1  0
 27 26  2  0
M  END
$$$$
