KQK.pdb
     RDKit          3D

 28 27  0  0  1  0  0  0  0  0999 V2000
    9.3421  -19.9671   18.7670 N   0  0  0  0  0  0  0  0  0  0  0  0
    9.1193  -18.6507   19.2782 C   0  0  1  0  0  0  0  0  0  0  0  0
    8.1405  -18.6549   20.4797 C   0  0  0  0  0  0  0  0  0  0  0  0
    6.9166  -19.3521   19.9831 C   0  0  0  0  0  0  0  0  0  0  0  0
    5.8625  -19.4319   21.0290 C   0  0  0  0  0  0  0  0  0  0  0  0
    4.5810  -20.0944   20.6387 C   0  0  0  0  0  0  0  0  0  0  0  0
    3.5855  -20.1873   21.6611 N   0  0  0  0  0  0  0  0  0  0  0  0
   10.3360  -17.9545   19.7509 C   0  0  0  0  0  0  0  0  0  0  0  0
   11.3027  -18.6452   20.1443 O   0  0  0  0  0  0  0  0  0  0  0  0
   13.8145  -14.8347   17.7463 N   0  0  0  0  0  0  0  0  0  0  0  0
   14.0478  -14.0339   18.8977 C   0  0  0  0  0  0  0  0  0  0  0  0
   15.2131  -13.6210   19.1167 O   0  0  0  0  0  0  0  0  0  0  0  0
   12.9018  -13.6901   19.8388 C   0  0  0  0  0  0  0  0  0  0  0  0
   11.7810  -14.5978   19.5015 C   0  0  0  0  0  0  0  0  0  0  0  0
   11.6810  -15.8702   20.2525 C   0  0  2  0  0  0  0  0  0  0  0  0
   10.4466  -16.5641   19.7752 N   0  0  0  0  0  0  0  0  0  0  0  0
   11.5822  -15.8077   21.7114 C   0  0  0  0  0  0  0  0  0  0  0  0
   12.6244  -15.4164   22.3603 O   0  0  0  0  0  0  0  0  0  0  0  0
   10.4788  -16.1166   22.5237 N   0  0  0  0  0  0  0  0  0  0  0  0
   10.2909  -15.4443   23.8615 C   0  0  1  0  0  0  0  0  0  0  0  0
    8.9304  -14.9167   23.9485 C   0  0  0  0  0  0  0  0  0  0  0  0
    8.4367  -14.3000   25.1592 C   0  0  0  0  0  0  0  0  0  0  0  0
    7.1476  -13.6782   25.4136 C   0  0  0  0  0  0  0  0  0  0  0  0
    6.9249  -13.0542   26.7619 C   0  0  0  0  0  0  0  0  0  0  0  0
    5.5583  -12.5693   26.9036 N   0  0  0  0  0  0  0  0  0  0  0  0
   10.4280  -16.6888   24.7395 C   0  0  0  0  0  0  0  0  0  0  0  0
   10.2984  -16.5446   26.0131 O   0  0  0  0  0  0  0  0  0  0  0  0
   10.6798  -17.9590   24.3535 O   0  0  0  0  0  0  0  0  0  0  0  0
  2  1  1  1
  2  3  1  0
  3  4  1  0
  4  5  1  0
  5  6  1  0
  7  6  1  0
  8  2  1  0
  8  9  2  0
 10 11  1  0
 11 13  1  0
 11 12  2  0
 13 14  1  0
 15 14  1  6
 15 16  1  0
 16  8  1  0
 17 15  1  0
 18 17  2  0
 19 17  1  0
 20 19  1  0
 20 26  1  0
 20 21  1  6
 22 23  1  0
 22 21  1  0
 23 24  1  0
 24 25  1  0
 26 28  1  0
 27 26  2  0
M  END
$$$$
