KQK.pdb
     RDKit          3D

 28 27  0  0  1  0  0  0  0  0999 V2000
    5.9025  -16.7757   20.5714 N   0  0  0  0  0  0  0  0  0  0  0  0
    7.0639  -15.9774   20.8122 C   0  0  1  0  0  0  0  0  0  0  0  0
    6.7006  -14.5904   21.4001 C   0  0  0  0  0  0  0  0  0  0  0  0
    7.5375  -13.6138   20.6408 C   0  0  0  0  0  0  0  0  0  0  0  0
    7.4577  -13.8401   19.1733 C   0  0  0  0  0  0  0  0  0  0  0  0
    8.3066  -12.9609   18.3132 C   0  0  0  0  0  0  0  0  0  0  0  0
    8.3553  -13.2992   16.9246 N   0  0  0  0  0  0  0  0  0  0  0  0
    8.0408  -16.5708   21.7513 C   0  0  0  0  0  0  0  0  0  0  0  0
    7.6345  -16.9501   22.8727 O   0  0  0  0  0  0  0  0  0  0  0  0
   14.0601  -18.5644   20.1145 N   0  0  0  0  0  0  0  0  0  0  0  0
   13.3805  -19.3204   21.1085 C   0  0  0  0  0  0  0  0  0  0  0  0
   13.4605  -20.5728   21.0704 O   0  0  0  0  0  0  0  0  0  0  0  0
   12.5756  -18.6165   22.1918 C   0  0  0  0  0  0  0  0  0  0  0  0
   11.4725  -17.8997   21.5110 C   0  0  0  0  0  0  0  0  0  0  0  0
   10.3493  -17.4191   22.3480 C   0  0  2  0  0  0  0  0  0  0  0  0
    9.3914  -16.7229   21.4367 N   0  0  0  0  0  0  0  0  0  0  0  0
   10.6450  -16.4809   23.4318 C   0  0  0  0  0  0  0  0  0  0  0  0
   11.0588  -15.3059   23.1028 O   0  0  0  0  0  0  0  0  0  0  0  0
   10.5314  -16.6861   24.8166 N   0  0  0  0  0  0  0  0  0  0  0  0
   10.9954  -15.6350   25.7949 C   0  0  1  0  0  0  0  0  0  0  0  0
   10.4212  -15.9140   27.1099 C   0  0  0  0  0  0  0  0  0  0  0  0
   10.8820  -15.2267   28.2953 C   0  0  0  0  0  0  0  0  0  0  0  0
   10.4708  -15.4040   29.6782 C   0  0  0  0  0  0  0  0  0  0  0  0
   11.1098  -14.5266   30.7169 C   0  0  0  0  0  0  0  0  0  0  0  0
   10.6207  -14.8421   32.0525 N   0  0  0  0  0  0  0  0  0  0  0  0
   12.4835  -15.9874   25.7868 C   0  0  0  0  0  0  0  0  0  0  0  0
   13.3320  -15.0182   25.8036 O   0  0  0  0  0  0  0  0  0  0  0  0
   13.0507  -17.2135   25.7580 O   0  0  0  0  0  0  0  0  0  0  0  0
  2  1  1  1
  2  3  1  0
  3  4  1  0
  4  5  1  0
  5  6  1  0
  7  6  1  0
  8  2  1  0
  8  9  2  0
 10 11  1  0
 11 13  1  0
 11 12  2  0
 13 14  1  0
 15 14  1  6
 15 16  1  0
 16  8  1  0
 17 15  1  0
 18 17  2  0
 19 17  1  0
 20 19  1  0
 20 26  1  0
 20 21  1  1
 22 23  1  0
 22 21  1  0
 23 24  1  0
 24 25  1  0
 26 28  1  0
 27 26  2  0
M  END
$$$$
