DHT.pdb
     RDKit          3D

 26 26  0  0  1  0  0  0  0  0999 V2000
   23.4584  -33.5917  -15.3618 N   0  0  0  0  0  0  0  0  0  0  0  0
   24.6879  -33.6364  -14.6372 C   0  0  1  0  0  0  0  0  0  0  0  0
   25.6999  -32.6235  -15.1143 C   0  0  0  0  0  0  0  0  0  0  0  0
   26.2953  -32.9959  -16.4158 C   0  0  0  0  0  0  0  0  0  0  0  0
   25.9109  -34.0580  -16.9511 O   0  0  0  0  0  0  0  0  0  0  0  0
   24.4074  -33.2925  -13.1930 C   0  0  0  0  0  0  0  0  0  0  0  0
   25.3491  -33.1058  -12.3876 O   0  0  0  0  0  0  0  0  0  0  0  0
   27.2472  -32.2019  -17.0296 O   0  0  0  0  0  0  0  0  0  0  0  0
   23.0771  -33.1771  -12.7323 N   0  0  0  0  0  0  0  0  0  0  0  0
   22.6668  -32.9556  -11.3883 C   0  0  1  0  0  0  0  0  0  0  0  0
   21.1644  -32.9634  -11.1492 C   0  0  0  0  0  0  0  0  0  0  0  0
   20.8105  -32.7256   -9.7395 C   0  0  0  0  0  0  0  0  0  0  0  0
   21.5274  -32.5001   -8.6019 C   0  0  0  0  0  0  0  0  0  0  0  0
   20.6814  -32.3326   -7.5611 N   0  0  0  0  0  0  0  0  0  0  0  0
   19.4363  -32.4474   -8.0163 C   0  0  0  0  0  0  0  0  0  0  0  0
   19.5090  -32.6845   -9.3300 N   0  0  0  0  0  0  0  0  0  0  0  0
   23.3782  -33.7259  -10.3622 C   0  0  0  0  0  0  0  0  0  0  0  0
   23.2042  -34.9687  -10.3247 O   0  0  0  0  0  0  0  0  0  0  0  0
   26.5306  -32.0250   -8.1421 C   0  0  0  0  0  0  0  0  0  0  0  0
   26.4790  -33.5062   -8.4481 C   0  0  1  0  0  0  0  0  0  0  0  0
   27.1809  -34.1633   -7.4217 O   0  0  0  0  0  0  0  0  0  0  0  0
   25.0255  -33.9179   -8.4500 C   0  0  2  0  0  0  0  0  0  0  0  0
   24.2519  -33.1520   -9.4085 N   0  0  0  0  0  0  0  0  0  0  0  0
   24.5031  -33.7339   -7.0693 C   0  0  0  0  0  0  0  0  0  0  0  0
   23.7772  -32.7559   -6.7704 O   0  0  0  0  0  0  0  0  0  0  0  0
   24.7926  -34.6349   -6.0424 O   0  0  0  0  0  0  0  0  0  0  0  0
  2  3  1  0
  2  1  1  6
  3  4  1  0
  4  5  2  0
  4  8  1  0
  6  7  2  0
  6  2  1  0
  9  6  1  0
 10  9  1  0
 10 11  1  6
 12 11  1  0
 12 13  2  0
 14 13  1  0
 15 16  2  0
 15 14  1  0
 16 12  1  0
 17 10  1  0
 17 23  1  0
 18 17  2  0
 20 19  1  1
 21 20  1  0
 22 20  1  0
 22 23  1  6
 24 22  1  0
 25 24  2  0
 26 24  1  0
M  END
$$$$
