DHT.pdb
     RDKit          3D

 26 26  0  0  1  0  0  0  0  0999 V2000
   23.3976  -10.9014  -20.8353 N   0  0  0  0  0  0  0  0  0  0  0  0
   23.9968  -10.6808  -19.5581 C   0  0  1  0  0  0  0  0  0  0  0  0
   25.2618   -9.8605  -19.6252 C   0  0  0  0  0  0  0  0  0  0  0  0
   26.3667  -10.5868  -20.2875 C   0  0  0  0  0  0  0  0  0  0  0  0
   26.2495  -11.8229  -20.4312 O   0  0  0  0  0  0  0  0  0  0  0  0
   23.0340   -9.8877  -18.7059 C   0  0  0  0  0  0  0  0  0  0  0  0
   22.6793   -8.7357  -19.0485 O   0  0  0  0  0  0  0  0  0  0  0  0
   27.4977   -9.9295  -20.7372 O   0  0  0  0  0  0  0  0  0  0  0  0
   22.5207  -10.4367  -17.5099 N   0  0  0  0  0  0  0  0  0  0  0  0
   21.5993   -9.8128  -16.6235 C   0  0  1  0  0  0  0  0  0  0  0  0
   20.6739  -10.7540  -15.8671 C   0  0  0  0  0  0  0  0  0  0  0  0
   19.6855  -10.0395  -15.0413 C   0  0  0  0  0  0  0  0  0  0  0  0
   19.4169   -8.7246  -14.8007 C   0  0  0  0  0  0  0  0  0  0  0  0
   18.3706   -8.6261  -13.9507 N   0  0  0  0  0  0  0  0  0  0  0  0
   17.9672   -9.8568  -13.6451 C   0  0  0  0  0  0  0  0  0  0  0  0
   18.7575  -10.7130  -14.3008 N   0  0  0  0  0  0  0  0  0  0  0  0
   22.1528   -8.7795  -15.7414 C   0  0  0  0  0  0  0  0  0  0  0  0
   23.1278   -9.0818  -15.0106 O   0  0  0  0  0  0  0  0  0  0  0  0
   21.6692   -4.7521  -16.5660 C   0  0  0  0  0  0  0  0  0  0  0  0
   22.8158   -5.3015  -15.7452 C   0  0  1  0  0  0  0  0  0  0  0  0
   23.3030   -4.2427  -14.9581 O   0  0  0  0  0  0  0  0  0  0  0  0
   22.2616   -6.4041  -14.8738 C   0  0  2  0  0  0  0  0  0  0  0  0
   21.6534   -7.4579  -15.6634 N   0  0  0  0  0  0  0  0  0  0  0  0
   21.2741   -5.7913  -13.9451 C   0  0  0  0  0  0  0  0  0  0  0  0
   20.0498   -6.0492  -14.0303 O   0  0  0  0  0  0  0  0  0  0  0  0
   21.6577   -4.9035  -12.9378 O   0  0  0  0  0  0  0  0  0  0  0  0
  2  3  1  0
  2  1  1  6
  3  4  1  0
  4  5  2  0
  4  8  1  0
  6  7  2  0
  6  2  1  0
  9  6  1  0
 10  9  1  0
 10 11  1  1
 12 11  1  0
 12 13  2  0
 14 13  1  0
 15 16  2  0
 15 14  1  0
 16 12  1  0
 17 10  1  0
 17 23  1  0
 18 17  2  0
 20 19  1  6
 21 20  1  0
 22 20  1  0
 22 23  1  6
 24 22  1  0
 25 24  2  0
 26 24  1  0
M  END
$$$$
