DHT.pdb
     RDKit          3D

 26 26  0  0  1  0  0  0  0  0999 V2000
   17.0933  -24.9728    3.8819 N   0  0  0  0  0  0  0  0  0  0  0  0
   17.9096  -24.7040    5.0222 C   0  0  1  0  0  0  0  0  0  0  0  0
   19.2678  -25.3583    4.9525 C   0  0  0  0  0  0  0  0  0  0  0  0
   19.1883  -26.8299    5.0757 C   0  0  0  0  0  0  0  0  0  0  0  0
   18.0534  -27.3524    5.1091 O   0  0  0  0  0  0  0  0  0  0  0  0
   18.1694  -23.2171    5.0875 C   0  0  0  0  0  0  0  0  0  0  0  0
   19.1401  -22.7121    4.4769 O   0  0  0  0  0  0  0  0  0  0  0  0
   20.3266  -27.6120    5.1522 O   0  0  0  0  0  0  0  0  0  0  0  0
   17.3191  -22.3765    5.8397 N   0  0  0  0  0  0  0  0  0  0  0  0
   17.4088  -20.9603    5.9413 C   0  0  1  0  0  0  0  0  0  0  0  0
   16.2059  -20.1860    5.4240 C   0  0  0  0  0  0  0  0  0  0  0  0
   16.0646  -20.2640    3.9600 C   0  0  0  0  0  0  0  0  0  0  0  0
   16.7899  -20.8450    2.9622 C   0  0  0  0  0  0  0  0  0  0  0  0
   16.1906  -20.6104    1.7736 N   0  0  0  0  0  0  0  0  0  0  0  0
   15.0947  -19.8894    1.9968 C   0  0  0  0  0  0  0  0  0  0  0  0
   15.0145  -19.6779    3.3145 N   0  0  0  0  0  0  0  0  0  0  0  0
   17.8722  -20.4350    7.2304 C   0  0  0  0  0  0  0  0  0  0  0  0
   17.3885  -20.9249    8.2803 O   0  0  0  0  0  0  0  0  0  0  0  0
   21.4557  -20.0994    8.4702 C   0  0  0  0  0  0  0  0  0  0  0  0
   20.8293  -18.7296    8.6169 C   0  0  1  0  0  0  0  0  0  0  0  0
   21.2225  -17.9751    7.4971 O   0  0  0  0  0  0  0  0  0  0  0  0
   19.3303  -18.9167    8.6358 C   0  0  2  0  0  0  0  0  0  0  0  0
   18.8344  -19.4062    7.3637 N   0  0  0  0  0  0  0  0  0  0  0  0
   18.7170  -17.6064    8.9825 C   0  0  0  0  0  0  0  0  0  0  0  0
   17.9469  -17.0151    8.1888 O   0  0  0  0  0  0  0  0  0  0  0  0
   18.9661  -16.9722   10.2014 O   0  0  0  0  0  0  0  0  0  0  0  0
  2  3  1  0
  2  1  1  6
  3  4  1  0
  4  5  2  0
  4  8  1  0
  6  7  2  0
  6  2  1  0
  9  6  1  0
 10  9  1  0
 10 11  1  1
 12 11  1  0
 12 13  2  0
 14 13  1  0
 15 16  2  0
 15 14  1  0
 16 12  1  0
 17 10  1  0
 17 23  1  0
 18 17  2  0
 20 19  1  6
 21 20  1  0
 22 20  1  0
 22 23  1  6
 24 22  1  0
 25 24  2  0
 26 24  1  0
M  END
$$$$
