DHT.pdb
     RDKit          3D

 26 26  0  0  1  0  0  0  0  0999 V2000
   23.1629  -12.8932  -20.0974 N   0  0  0  0  0  0  0  0  0  0  0  0
   22.5238  -13.3297  -18.8974 C   0  0  1  0  0  0  0  0  0  0  0  0
   23.0921  -14.6169  -18.3517 C   0  0  0  0  0  0  0  0  0  0  0  0
   22.6913  -15.7920  -19.1553 C   0  0  0  0  0  0  0  0  0  0  0  0
   22.6632  -15.6669  -20.3986 O   0  0  0  0  0  0  0  0  0  0  0  0
   22.7518  -12.2895  -17.8257 C   0  0  0  0  0  0  0  0  0  0  0  0
   22.2770  -12.4436  -16.6764 O   0  0  0  0  0  0  0  0  0  0  0  0
   22.3564  -16.9950  -18.5604 O   0  0  0  0  0  0  0  0  0  0  0  0
   23.5048  -11.1280  -18.1073 N   0  0  0  0  0  0  0  0  0  0  0  0
   23.7553  -10.0489  -17.2147 C   0  0  1  0  0  0  0  0  0  0  0  0
   25.2148   -9.6488  -17.0594 C   0  0  0  0  0  0  0  0  0  0  0  0
   26.0501  -10.7372  -16.5236 C   0  0  0  0  0  0  0  0  0  0  0  0
   25.8021  -12.0103  -16.1035 C   0  0  0  0  0  0  0  0  0  0  0  0
   26.9587  -12.5891  -15.7106 N   0  0  0  0  0  0  0  0  0  0  0  0
   27.9406  -11.7060  -15.8734 C   0  0  0  0  0  0  0  0  0  0  0  0
   27.3973  -10.5871  -16.3638 N   0  0  0  0  0  0  0  0  0  0  0  0
   22.8892   -8.8744  -17.3647 C   0  0  0  0  0  0  0  0  0  0  0  0
   22.9282   -8.2416  -18.4483 O   0  0  0  0  0  0  0  0  0  0  0  0
   19.6709   -8.3448  -18.0611 C   0  0  0  0  0  0  0  0  0  0  0  0
   19.7271   -7.6012  -16.7442 C   0  0  1  0  0  0  0  0  0  0  0  0
   19.2589   -8.4826  -15.7534 O   0  0  0  0  0  0  0  0  0  0  0  0
   21.1706   -7.2331  -16.4931 C   0  0  2  0  0  0  0  0  0  0  0  0
   22.0091   -8.4090  -16.3592 N   0  0  0  0  0  0  0  0  0  0  0  0
   21.2155   -6.3990  -15.2620 C   0  0  0  0  0  0  0  0  0  0  0  0
   21.7583   -6.8147  -14.2108 O   0  0  0  0  0  0  0  0  0  0  0  0
   20.6589   -5.1192  -15.2147 O   0  0  0  0  0  0  0  0  0  0  0  0
  2  3  1  0
  2  1  1  6
  3  4  1  0
  4  5  2  0
  4  8  1  0
  6  7  2  0
  6  2  1  0
  9  6  1  0
 10  9  1  0
 10 11  1  6
 12 11  1  0
 12 13  2  0
 14 13  1  0
 15 16  2  0
 15 14  1  0
 16 12  1  0
 17 10  1  0
 17 23  1  0
 18 17  2  0
 20 19  1  6
 21 20  1  0
 22 20  1  0
 22 23  1  1
 24 22  1  0
 25 24  2  0
 26 24  1  0
M  END
$$$$
