DHT.pdb
     RDKit          3D

 26 26  0  0  1  0  0  0  0  0999 V2000
   25.1410  -17.6992  -18.9594 N   0  0  0  0  0  0  0  0  0  0  0  0
   25.6093  -18.1086  -17.6741 C   0  0  1  0  0  0  0  0  0  0  0  0
   26.7814  -17.2971  -17.1787 C   0  0  0  0  0  0  0  0  0  0  0  0
   28.0070  -17.5419  -17.9692 C   0  0  0  0  0  0  0  0  0  0  0  0
   27.9423  -18.3662  -18.9065 O   0  0  0  0  0  0  0  0  0  0  0  0
   24.5025  -17.8937  -16.6684 C   0  0  0  0  0  0  0  0  0  0  0  0
   24.6792  -18.1660  -15.4581 O   0  0  0  0  0  0  0  0  0  0  0  0
   29.1918  -16.8852  -17.6891 O   0  0  0  0  0  0  0  0  0  0  0  0
   23.2523  -17.3822  -17.0815 N   0  0  0  0  0  0  0  0  0  0  0  0
   22.1591  -17.0440  -16.2363 C   0  0  1  0  0  0  0  0  0  0  0  0
   21.7039  -15.5937  -16.2980 C   0  0  0  0  0  0  0  0  0  0  0  0
   22.7317  -14.6531  -15.8203 C   0  0  0  0  0  0  0  0  0  0  0  0
   23.9791  -14.7941  -15.2882 C   0  0  0  0  0  0  0  0  0  0  0  0
   24.5004  -13.5739  -15.0308 N   0  0  0  0  0  0  0  0  0  0  0  0
   23.6059  -12.6566  -15.3902 C   0  0  0  0  0  0  0  0  0  0  0  0
   22.5372  -13.3029  -15.8672 N   0  0  0  0  0  0  0  0  0  0  0  0
   21.0186  -17.9666  -16.2580 C   0  0  0  0  0  0  0  0  0  0  0  0
   20.5969  -18.3643  -17.3716 O   0  0  0  0  0  0  0  0  0  0  0  0
   20.7262  -21.2913  -15.1503 C   0  0  0  0  0  0  0  0  0  0  0  0
   19.5714  -20.6533  -14.4087 C   0  0  1  0  0  0  0  0  0  0  0  0
   20.0109  -20.4080  -13.0955 O   0  0  0  0  0  0  0  0  0  0  0  0
   19.2413  -19.3580  -15.1126 C   0  0  2  0  0  0  0  0  0  0  0  0
   20.3621  -18.4375  -15.0964 N   0  0  0  0  0  0  0  0  0  0  0  0
   18.0532  -18.7689  -14.4384 C   0  0  0  0  0  0  0  0  0  0  0  0
   16.9281  -19.3195  -14.4984 O   0  0  0  0  0  0  0  0  0  0  0  0
   18.1299  -17.5804  -13.7092 O   0  0  0  0  0  0  0  0  0  0  0  0
  2  3  1  0
  2  1  1  6
  3  4  1  0
  4  5  2  0
  4  8  1  0
  6  7  2  0
  6  2  1  0
  9  6  1  0
 10  9  1  0
 10 11  1  6
 12 11  1  0
 12 13  2  0
 14 13  1  0
 15 16  2  0
 15 14  1  0
 16 12  1  0
 17 10  1  0
 17 23  1  0
 18 17  2  0
 20 19  1  6
 21 20  1  0
 22 20  1  0
 22 23  1  1
 24 22  1  0
 25 24  2  0
 26 24  1  0
M  END
$$$$
