DHT.pdb
     RDKit          3D

 26 26  0  0  1  0  0  0  0  0999 V2000
   26.5639  -10.5766  -18.9520 N   0  0  0  0  0  0  0  0  0  0  0  0
   26.3610   -9.7200  -17.8277 C   0  0  1  0  0  0  0  0  0  0  0  0
   26.9719   -8.3509  -18.0015 C   0  0  0  0  0  0  0  0  0  0  0  0
   28.4463   -8.4037  -18.1036 C   0  0  0  0  0  0  0  0  0  0  0  0
   28.9966   -9.5238  -18.0342 O   0  0  0  0  0  0  0  0  0  0  0  0
   24.8770   -9.4925  -17.6584 C   0  0  0  0  0  0  0  0  0  0  0  0
   24.1303   -9.3849  -18.6590 O   0  0  0  0  0  0  0  0  0  0  0  0
   29.2015   -7.2569  -18.2704 O   0  0  0  0  0  0  0  0  0  0  0  0
   24.3123   -9.3981  -16.3671 N   0  0  0  0  0  0  0  0  0  0  0  0
   22.9293   -9.2695  -16.0594 C   0  0  1  0  0  0  0  0  0  0  0  0
   22.4290  -10.1280  -14.9074 C   0  0  0  0  0  0  0  0  0  0  0  0
   20.9666  -10.0661  -14.7438 C   0  0  0  0  0  0  0  0  0  0  0  0
   19.9627   -9.4059  -15.3883 C   0  0  0  0  0  0  0  0  0  0  0  0
   18.7773   -9.7243  -14.8223 N   0  0  0  0  0  0  0  0  0  0  0  0
   19.0085  -10.5770  -13.8272 C   0  0  0  0  0  0  0  0  0  0  0  0
   20.3280  -10.7863  -13.7760 N   0  0  0  0  0  0  0  0  0  0  0  0
   22.4135   -7.8989  -15.9717 C   0  0  0  0  0  0  0  0  0  0  0  0
   22.9093   -7.1313  -15.1109 O   0  0  0  0  0  0  0  0  0  0  0  0
   21.7164   -5.4921  -19.0330 C   0  0  0  0  0  0  0  0  0  0  0  0
   20.4901   -5.5462  -18.1478 C   0  0  1  0  0  0  0  0  0  0  0  0
   19.6078   -6.4779  -18.7232 O   0  0  0  0  0  0  0  0  0  0  0  0
   20.9382   -6.0081  -16.7810 C   0  0  2  0  0  0  0  0  0  0  0  0
   21.3876   -7.3870  -16.8009 N   0  0  0  0  0  0  0  0  0  0  0  0
   19.7936   -5.8302  -15.8475 C   0  0  0  0  0  0  0  0  0  0  0  0
   19.2146   -6.8142  -15.3287 O   0  0  0  0  0  0  0  0  0  0  0  0
   19.3087   -4.5666  -15.5037 O   0  0  0  0  0  0  0  0  0  0  0  0
  2  3  1  0
  2  1  1  6
  3  4  1  0
  4  5  2  0
  4  8  1  0
  6  7  2  0
  6  2  1  0
  9  6  1  0
 10  9  1  0
 10 11  1  1
 12 11  1  0
 12 13  2  0
 14 13  1  0
 15 16  2  0
 15 14  1  0
 16 12  1  0
 17 10  1  0
 17 23  1  0
 18 17  2  0
 20 19  1  6
 21 20  1  0
 22 20  1  0
 22 23  1  6
 24 22  1  0
 25 24  2  0
 26 24  1  0
M  END
$$$$
