DHT.pdb
     RDKit          3D

 26 26  0  0  1  0  0  0  0  0999 V2000
   25.7780  -19.7894  -16.0523 N   0  0  0  0  0  0  0  0  0  0  0  0
   25.5625  -21.1984  -16.1362 C   0  0  1  0  0  0  0  0  0  0  0  0
   26.6921  -22.0115  -15.5525 C   0  0  0  0  0  0  0  0  0  0  0  0
   27.9509  -21.8482  -16.3113 C   0  0  0  0  0  0  0  0  0  0  0  0
   27.9198  -21.1564  -17.3519 O   0  0  0  0  0  0  0  0  0  0  0  0
   24.3383  -21.5467  -15.3222 C   0  0  0  0  0  0  0  0  0  0  0  0
   23.9805  -22.7401  -15.1876 O   0  0  0  0  0  0  0  0  0  0  0  0
   29.1301  -22.4373  -15.8920 O   0  0  0  0  0  0  0  0  0  0  0  0
   23.5806  -20.5288  -14.7017 N   0  0  0  0  0  0  0  0  0  0  0  0
   22.4514  -20.7149  -13.8565 C   0  0  1  0  0  0  0  0  0  0  0  0
   22.5547  -20.0898  -12.4735 C   0  0  0  0  0  0  0  0  0  0  0  0
   23.5733  -20.7379  -11.6298 C   0  0  0  0  0  0  0  0  0  0  0  0
   24.4555  -21.7605  -11.8168 C   0  0  0  0  0  0  0  0  0  0  0  0
   25.1816  -21.9415  -10.6912 N   0  0  0  0  0  0  0  0  0  0  0  0
   24.7771  -21.0508   -9.7891 C   0  0  0  0  0  0  0  0  0  0  0  0
   23.8069  -20.3223  -10.3508 N   0  0  0  0  0  0  0  0  0  0  0  0
   21.1416  -20.4586  -14.4656 C   0  0  0  0  0  0  0  0  0  0  0  0
   20.9334  -19.3301  -14.9748 O   0  0  0  0  0  0  0  0  0  0  0  0
   16.7512  -22.0455  -16.0835 C   0  0  0  0  0  0  0  0  0  0  0  0
   18.0673  -22.4283  -15.4418 C   0  0  1  0  0  0  0  0  0  0  0  0
   18.7952  -23.1576  -16.3989 O   0  0  0  0  0  0  0  0  0  0  0  0
   18.7863  -21.1486  -15.0848 C   0  0  2  0  0  0  0  0  0  0  0  0
   20.0944  -21.4089  -14.5147 N   0  0  0  0  0  0  0  0  0  0  0  0
   17.9250  -20.3986  -14.1314 C   0  0  0  0  0  0  0  0  0  0  0  0
   17.8486  -20.7262  -12.9233 O   0  0  0  0  0  0  0  0  0  0  0  0
   17.1627  -19.2989  -14.5306 O   0  0  0  0  0  0  0  0  0  0  0  0
  2  3  1  0
  2  1  1  1
  3  4  1  0
  4  5  2  0
  4  8  1  0
  6  7  2  0
  6  2  1  0
  9  6  1  0
 10  9  1  0
 10 11  1  1
 12 11  1  0
 12 13  2  0
 14 13  1  0
 15 16  2  0
 15 14  1  0
 16 12  1  0
 17 10  1  0
 17 23  1  0
 18 17  2  0
 20 19  1  6
 21 20  1  0
 22 20  1  0
 22 23  1  1
 24 22  1  0
 25 24  2  0
 26 24  1  0
M  END
$$$$
