DHT.pdb
     RDKit          3D

 26 26  0  0  1  0  0  0  0  0999 V2000
   20.0164  -11.8711  -19.0232 N   0  0  0  0  0  0  0  0  0  0  0  0
   21.0846  -11.3511  -18.2311 C   0  0  1  0  0  0  0  0  0  0  0  0
   22.2542  -10.8638  -19.0509 C   0  0  0  0  0  0  0  0  0  0  0  0
   23.0050  -11.9757  -19.6731 C   0  0  0  0  0  0  0  0  0  0  0  0
   22.6018  -13.1404  -19.4657 O   0  0  0  0  0  0  0  0  0  0  0  0
   20.5789  -10.1455  -17.4741 C   0  0  0  0  0  0  0  0  0  0  0  0
   19.9010   -9.2661  -18.0550 O   0  0  0  0  0  0  0  0  0  0  0  0
   24.1185  -11.7454  -20.4607 O   0  0  0  0  0  0  0  0  0  0  0  0
   20.8648   -9.9947  -16.0990 N   0  0  0  0  0  0  0  0  0  0  0  0
   20.3587   -8.9806  -15.2391 C   0  0  1  0  0  0  0  0  0  0  0  0
   19.4617   -9.4634  -14.1092 C   0  0  0  0  0  0  0  0  0  0  0  0
   18.1612   -9.9625  -14.5877 C   0  0  0  0  0  0  0  0  0  0  0  0
   17.5984  -10.1284  -15.8184 C   0  0  0  0  0  0  0  0  0  0  0  0
   16.3573  -10.6458  -15.6810 N   0  0  0  0  0  0  0  0  0  0  0  0
   16.1191  -10.8130  -14.3825 C   0  0  0  0  0  0  0  0  0  0  0  0
   17.2046  -10.4021  -13.7189 N   0  0  0  0  0  0  0  0  0  0  0  0
   21.3334   -7.9914  -14.7661 C   0  0  0  0  0  0  0  0  0  0  0  0
   22.3382   -8.4017  -14.1352 O   0  0  0  0  0  0  0  0  0  0  0  0
   22.9870   -5.1336  -16.7941 C   0  0  0  0  0  0  0  0  0  0  0  0
   22.3668   -4.5165  -15.5592 C   0  0  1  0  0  0  0  0  0  0  0  0
   21.1216   -3.9883  -15.9441 O   0  0  0  0  0  0  0  0  0  0  0  0
   22.1882   -5.6195  -14.5425 C   0  0  2  0  0  0  0  0  0  0  0  0
   21.2100   -6.5979  -14.9781 N   0  0  0  0  0  0  0  0  0  0  0  0
   21.7803   -4.9876  -13.2590 C   0  0  0  0  0  0  0  0  0  0  0  0
   20.6580   -5.2137  -12.7471 O   0  0  0  0  0  0  0  0  0  0  0  0
   22.6208   -4.1160  -12.5633 O   0  0  0  0  0  0  0  0  0  0  0  0
  2  3  1  0
  2  1  1  6
  3  4  1  0
  4  5  2  0
  4  8  1  0
  6  7  2  0
  6  2  1  0
  9  6  1  0
 10  9  1  0
 10 11  1  1
 12 11  1  0
 12 13  2  0
 14 13  1  0
 15 16  2  0
 15 14  1  0
 16 12  1  0
 17 10  1  0
 17 23  1  0
 18 17  2  0
 20 19  1  6
 21 20  1  0
 22 20  1  0
 22 23  1  6
 24 22  1  0
 25 24  2  0
 26 24  1  0
M  END
$$$$
