GFC.pdb
     RDKit          3D

 22 22  0  0  1  0  0  0  0  0999 V2000
   25.5740  -10.1746  -15.5153 N   0  0  0  0  0  0  0  0  0  0  0  0
   24.2529  -10.4307  -15.0317 C   0  0  0  0  0  0  0  0  0  0  0  0
   23.2614   -9.4464  -15.5456 C   0  0  0  0  0  0  0  0  0  0  0  0
   23.3173   -9.0162  -16.7380 O   0  0  0  0  0  0  0  0  0  0  0  0
   22.2318   -8.9785  -14.6856 N   0  0  0  0  0  0  0  0  0  0  0  0
   21.1939   -8.0806  -15.0966 C   0  0  1  0  0  0  0  0  0  0  0  0
   19.8527   -8.7827  -14.8538 C   0  0  0  0  0  0  0  0  0  0  0  0
   19.6271   -9.8531  -15.8315 C   0  0  0  0  0  0  0  0  0  0  0  0
   19.8951  -11.1535  -15.4993 C   0  0  0  0  0  0  0  0  0  0  0  0
   19.6720  -12.1503  -16.4462 C   0  0  0  0  0  0  0  0  0  0  0  0
   19.1868  -11.8059  -17.6956 C   0  0  0  0  0  0  0  0  0  0  0  0
   18.9212  -10.4823  -18.0138 C   0  0  0  0  0  0  0  0  0  0  0  0
   19.1414   -9.4991  -17.0794 C   0  0  0  0  0  0  0  0  0  0  0  0
   21.2088   -6.7924  -14.3781 C   0  0  0  0  0  0  0  0  0  0  0  0
   21.5730   -6.6348  -13.2032 O   0  0  0  0  0  0  0  0  0  0  0  0
   20.7719   -5.6392  -15.0855 N   0  0  0  0  0  0  0  0  0  0  0  0
   20.8648   -4.3014  -14.5803 C   0  0  1  0  0  0  0  0  0  0  0  0
   22.1326   -3.5953  -14.9739 C   0  0  0  0  0  0  0  0  0  0  0  0
   23.5904   -4.2754  -14.1808 S   0  0  0  0  0  0  0  0  0  0  0  0
   19.6530   -3.5215  -14.8836 C   0  0  0  0  0  0  0  0  0  0  0  0
   18.9024   -3.9254  -15.8095 O   0  0  0  0  0  0  0  0  0  0  0  0
   19.2791   -2.3760  -14.2244 O   0  0  0  0  0  0  0  0  0  0  0  0
  2  1  1  0
  2  3  1  0
  3  5  1  0
  3  4  2  0
  5  6  1  0
  6 14  1  0
  6  7  1  1
  8  7  1  0
  8 13  2  0
  9  8  1  0
 10  9  2  0
 10 11  1  0
 11 12  2  0
 12 13  1  0
 14 15  2  0
 14 16  1  0
 16 17  1  0
 17 20  1  0
 17 18  1  6
 19 18  1  0
 20 22  1  0
 21 20  2  0
M  END
$$$$
