GFC.pdb
     RDKit          3D

 22 22  0  0  1  0  0  0  0  0999 V2000
   28.4513  -23.4245  -17.6174 N   0  0  0  0  0  0  0  0  0  0  0  0
   28.1133  -22.1826  -16.9944 C   0  0  0  0  0  0  0  0  0  0  0  0
   27.1586  -22.3571  -15.8655 C   0  0  0  0  0  0  0  0  0  0  0  0
   26.5021  -23.4329  -15.7181 O   0  0  0  0  0  0  0  0  0  0  0  0
   26.9778  -21.2996  -14.9341 N   0  0  0  0  0  0  0  0  0  0  0  0
   26.0239  -21.3300  -13.8658 C   0  0  1  0  0  0  0  0  0  0  0  0
   26.5271  -20.3832  -12.7699 C   0  0  0  0  0  0  0  0  0  0  0  0
   25.7172  -20.4997  -11.5520 C   0  0  0  0  0  0  0  0  0  0  0  0
   26.1985  -21.1879  -10.4713 C   0  0  0  0  0  0  0  0  0  0  0  0
   25.4091  -21.2832   -9.3276 C   0  0  0  0  0  0  0  0  0  0  0  0
   24.1623  -20.6833   -9.3091 C   0  0  0  0  0  0  0  0  0  0  0  0
   23.6917  -19.9900  -10.4144 C   0  0  0  0  0  0  0  0  0  0  0  0
   24.4706  -19.8960  -11.5426 C   0  0  0  0  0  0  0  0  0  0  0  0
   24.6655  -20.9262  -14.2753 C   0  0  0  0  0  0  0  0  0  0  0  0
   24.3819  -19.8743  -14.8676 O   0  0  0  0  0  0  0  0  0  0  0  0
   23.5954  -21.8105  -13.9683 N   0  0  0  0  0  0  0  0  0  0  0  0
   22.2200  -21.5456  -14.2709 C   0  0  1  0  0  0  0  0  0  0  0  0
   21.6468  -22.4587  -15.3190 C   0  0  0  0  0  0  0  0  0  0  0  0
   19.8694  -22.2961  -15.4959 S   0  0  0  0  0  0  0  0  0  0  0  0
   21.3984  -21.4822  -13.0504 C   0  0  0  0  0  0  0  0  0  0  0  0
   21.6324  -22.3109  -12.1325 O   0  0  0  0  0  0  0  0  0  0  0  0
   20.3869  -20.5774  -12.8387 O   0  0  0  0  0  0  0  0  0  0  0  0
  2  1  1  0
  2  3  1  0
  3  5  1  0
  3  4  2  0
  5  6  1  0
  6 14  1  0
  6  7  1  1
  8  7  1  0
  8 13  2  0
  9  8  1  0
 10  9  2  0
 10 11  1  0
 11 12  2  0
 12 13  1  0
 14 15  2  0
 14 16  1  0
 16 17  1  0
 17 20  1  0
 17 18  1  6
 19 18  1  0
 20 22  1  0
 21 20  2  0
M  END
$$$$
