GFC.pdb
     RDKit          3D

 22 22  0  0  1  0  0  0  0  0999 V2000
   29.0984  -21.4898  -16.3515 N   0  0  0  0  0  0  0  0  0  0  0  0
   28.7441  -20.5332  -15.3494 C   0  0  0  0  0  0  0  0  0  0  0  0
   27.9016  -21.1255  -14.2744 C   0  0  0  0  0  0  0  0  0  0  0  0
   27.2449  -22.1942  -14.4655 O   0  0  0  0  0  0  0  0  0  0  0  0
   27.8304  -20.4829  -13.0093 N   0  0  0  0  0  0  0  0  0  0  0  0
   26.8717  -20.8142  -11.9976 C   0  0  1  0  0  0  0  0  0  0  0  0
   27.5195  -20.5321  -10.6370 C   0  0  0  0  0  0  0  0  0  0  0  0
   28.8689  -21.1032  -10.5607 C   0  0  0  0  0  0  0  0  0  0  0  0
   29.9600  -20.2794  -10.4964 C   0  0  0  0  0  0  0  0  0  0  0  0
   31.2297  -20.8477  -10.4247 C   0  0  0  0  0  0  0  0  0  0  0  0
   31.3594  -22.2254  -10.4201 C   0  0  0  0  0  0  0  0  0  0  0  0
   30.2416  -23.0439  -10.4859 C   0  0  0  0  0  0  0  0  0  0  0  0
   28.9892  -22.4830  -10.5566 C   0  0  0  0  0  0  0  0  0  0  0  0
   25.6119  -20.0545  -12.1065 C   0  0  0  0  0  0  0  0  0  0  0  0
   25.5226  -18.8661  -12.4492 O   0  0  0  0  0  0  0  0  0  0  0  0
   24.4036  -20.7357  -11.7947 N   0  0  0  0  0  0  0  0  0  0  0  0
   23.1515  -20.4946  -12.4486 C   0  0  1  0  0  0  0  0  0  0  0  0
   23.2394  -20.5268  -13.9494 C   0  0  0  0  0  0  0  0  0  0  0  0
   23.3008  -18.8919  -14.6843 S   0  0  0  0  0  0  0  0  0  0  0  0
   22.0854  -21.3592  -11.9153 C   0  0  0  0  0  0  0  0  0  0  0  0
   22.2358  -22.6062  -11.9950 O   0  0  0  0  0  0  0  0  0  0  0  0
   20.9294  -20.9006  -11.3324 O   0  0  0  0  0  0  0  0  0  0  0  0
  2  1  1  0
  2  3  1  0
  3  5  1  0
  3  4  2  0
  5  6  1  0
  6 14  1  0
  6  7  1  1
  8  7  1  0
  8 13  2  0
  9  8  1  0
 10  9  2  0
 10 11  1  0
 11 12  2  0
 12 13  1  0
 14 15  2  0
 14 16  1  0
 16 17  1  0
 17 20  1  0
 17 18  1  6
 19 18  1  0
 20 22  1  0
 21 20  2  0
M  END
$$$$
