GFC.pdb
     RDKit          3D

 22 22  0  0  1  0  0  0  0  0999 V2000
   26.5215  -10.5247  -15.5521 N   0  0  0  0  0  0  0  0  0  0  0  0
   25.1036  -10.6220  -15.3942 C   0  0  0  0  0  0  0  0  0  0  0  0
   24.3796   -9.5268  -16.0959 C   0  0  0  0  0  0  0  0  0  0  0  0
   25.0039   -8.5554  -16.6219 O   0  0  0  0  0  0  0  0  0  0  0  0
   22.9618   -9.5684  -16.1793 N   0  0  0  0  0  0  0  0  0  0  0  0
   22.1705   -8.5717  -16.8370 C   0  0  1  0  0  0  0  0  0  0  0  0
   21.1811   -9.2990  -17.7551 C   0  0  0  0  0  0  0  0  0  0  0  0
   20.4777   -8.3571  -18.6330 C   0  0  0  0  0  0  0  0  0  0  0  0
   21.1305   -7.7894  -19.6935 C   0  0  0  0  0  0  0  0  0  0  0  0
   20.4392   -6.8984  -20.5112 C   0  0  0  0  0  0  0  0  0  0  0  0
   19.1148   -6.6083  -20.2348 C   0  0  0  0  0  0  0  0  0  0  0  0
   18.4701   -7.1937  -19.1552 C   0  0  0  0  0  0  0  0  0  0  0  0
   19.1523   -8.0726  -18.3487 C   0  0  0  0  0  0  0  0  0  0  0  0
   21.4261   -7.7008  -15.9078 C   0  0  0  0  0  0  0  0  0  0  0  0
   20.7136   -8.0978  -14.9738 O   0  0  0  0  0  0  0  0  0  0  0  0
   21.5320   -6.2955  -16.0954 N   0  0  0  0  0  0  0  0  0  0  0  0
   20.9459   -5.3204  -15.2241 C   0  0  1  0  0  0  0  0  0  0  0  0
   21.9515   -4.5741  -14.3917 C   0  0  0  0  0  0  0  0  0  0  0  0
   22.6396   -5.5660  -13.0652 S   0  0  0  0  0  0  0  0  0  0  0  0
   20.0234   -4.4301  -15.9485 C   0  0  0  0  0  0  0  0  0  0  0  0
   19.9839   -4.5092  -17.2039 O   0  0  0  0  0  0  0  0  0  0  0  0
   19.1960   -3.5120  -15.3492 O   0  0  0  0  0  0  0  0  0  0  0  0
  2  1  1  0
  2  3  1  0
  3  5  1  0
  3  4  2  0
  5  6  1  0
  6 14  1  0
  6  7  1  6
  8  7  1  0
  8 13  2  0
  9  8  1  0
 10  9  2  0
 10 11  1  0
 11 12  2  0
 12 13  1  0
 14 15  2  0
 14 16  1  0
 16 17  1  0
 17 20  1  0
 17 18  1  6
 19 18  1  0
 20 22  1  0
 21 20  2  0
M  END
$$$$
