GFC.pdb
     RDKit          3D

 22 22  0  0  1  0  0  0  0  0999 V2000
   27.6330   -8.3875  -17.3782 N   0  0  0  0  0  0  0  0  0  0  0  0
   26.4057   -8.8748  -16.8295 C   0  0  0  0  0  0  0  0  0  0  0  0
   25.8836  -10.0553  -17.5711 C   0  0  0  0  0  0  0  0  0  0  0  0
   26.3252  -10.3591  -18.7211 O   0  0  0  0  0  0  0  0  0  0  0  0
   24.8710  -10.8586  -16.9810 N   0  0  0  0  0  0  0  0  0  0  0  0
   24.2303  -11.9534  -17.6469 C   0  0  1  0  0  0  0  0  0  0  0  0
   24.4699  -13.2112  -16.8035 C   0  0  0  0  0  0  0  0  0  0  0  0
   25.9033  -13.4827  -16.6472 C   0  0  0  0  0  0  0  0  0  0  0  0
   26.5584  -13.0799  -15.5151 C   0  0  0  0  0  0  0  0  0  0  0  0
   27.9193  -13.3504  -15.3921 C   0  0  0  0  0  0  0  0  0  0  0  0
   28.5756  -14.0169  -16.4119 C   0  0  0  0  0  0  0  0  0  0  0  0
   27.8944  -14.4174  -17.5518 C   0  0  0  0  0  0  0  0  0  0  0  0
   26.5519  -14.1504  -17.6728 C   0  0  0  0  0  0  0  0  0  0  0  0
   22.7803  -11.7613  -17.8378 C   0  0  0  0  0  0  0  0  0  0  0  0
   22.0244  -12.5591  -18.4122 O   0  0  0  0  0  0  0  0  0  0  0  0
   22.2011  -10.5689  -17.3241 N   0  0  0  0  0  0  0  0  0  0  0  0
   20.8474  -10.1637  -17.5626 C   0  0  1  0  0  0  0  0  0  0  0  0
   19.8485  -10.8417  -16.6661 C   0  0  0  0  0  0  0  0  0  0  0  0
   18.2472  -10.0338  -16.6617 S   0  0  0  0  0  0  0  0  0  0  0  0
   20.7131   -8.6973  -17.5694 C   0  0  0  0  0  0  0  0  0  0  0  0
   21.6493   -8.0123  -17.0811 O   0  0  0  0  0  0  0  0  0  0  0  0
   19.6320   -8.0166  -18.0737 O   0  0  0  0  0  0  0  0  0  0  0  0
  2  1  1  0
  2  3  1  0
  3  5  1  0
  3  4  2  0
  5  6  1  0
  6 14  1  0
  6  7  1  1
  8  7  1  0
  8 13  2  0
  9  8  1  0
 10  9  2  0
 10 11  1  0
 11 12  2  0
 12 13  1  0
 14 15  2  0
 14 16  1  0
 16 17  1  0
 17 20  1  0
 17 18  1  1
 19 18  1  0
 20 22  1  0
 21 20  2  0
M  END
$$$$
