GFC.pdb
     RDKit          3D

 22 22  0  0  1  0  0  0  0  0999 V2000
   23.7465  -13.8869  -18.5415 N   0  0  0  0  0  0  0  0  0  0  0  0
   23.0293  -12.6868  -18.8420 C   0  0  0  0  0  0  0  0  0  0  0  0
   23.0534  -11.7157  -17.7140 C   0  0  0  0  0  0  0  0  0  0  0  0
   22.8239  -12.0847  -16.5219 O   0  0  0  0  0  0  0  0  0  0  0  0
   23.3386  -10.3486  -17.9756 N   0  0  0  0  0  0  0  0  0  0  0  0
   23.2416   -9.3101  -16.9936 C   0  0  1  0  0  0  0  0  0  0  0  0
   24.5844   -8.5705  -16.9691 C   0  0  0  0  0  0  0  0  0  0  0  0
   25.6826   -9.4722  -16.6033 C   0  0  0  0  0  0  0  0  0  0  0  0
   26.4625  -10.0339  -17.5776 C   0  0  0  0  0  0  0  0  0  0  0  0
   27.4985  -10.8863  -17.2030 C   0  0  0  0  0  0  0  0  0  0  0  0
   27.7153  -11.1453  -15.8611 C   0  0  0  0  0  0  0  0  0  0  0  0
   26.9141  -10.5665  -14.8879 C   0  0  0  0  0  0  0  0  0  0  0  0
   25.8922   -9.7256  -15.2578 C   0  0  0  0  0  0  0  0  0  0  0  0
   22.1571   -8.3461  -17.2589 C   0  0  0  0  0  0  0  0  0  0  0  0
   21.7795   -7.9887  -18.3848 O   0  0  0  0  0  0  0  0  0  0  0  0
   21.4903   -7.7805  -16.1377 N   0  0  0  0  0  0  0  0  0  0  0  0
   20.3326   -6.9409  -16.2286 C   0  0  1  0  0  0  0  0  0  0  0  0
   19.2217   -7.3435  -15.2987 C   0  0  0  0  0  0  0  0  0  0  0  0
   17.8806   -6.1536  -15.2506 S   0  0  0  0  0  0  0  0  0  0  0  0
   20.6863   -5.5155  -16.1205 C   0  0  0  0  0  0  0  0  0  0  0  0
   21.5768   -5.1849  -15.2949 O   0  0  0  0  0  0  0  0  0  0  0  0
   20.1107   -4.5121  -16.8610 O   0  0  0  0  0  0  0  0  0  0  0  0
  2  1  1  0
  2  3  1  0
  3  5  1  0
  3  4  2  0
  5  6  1  0
  6 14  1  0
  6  7  1  6
  8  7  1  0
  8 13  2  0
  9  8  1  0
 10  9  2  0
 10 11  1  0
 11 12  2  0
 12 13  1  0
 14 15  2  0
 14 16  1  0
 16 17  1  0
 17 20  1  0
 17 18  1  1
 19 18  1  0
 20 22  1  0
 21 20  2  0
M  END
$$$$
