GFC.pdb
     RDKit          3D

 22 22  0  0  1  0  0  0  0  0999 V2000
   31.3134  -22.0068  -10.3694 N   0  0  0  0  0  0  0  0  0  0  0  0
   30.5116  -20.8613  -10.0698 C   0  0  0  0  0  0  0  0  0  0  0  0
   29.2152  -21.2280   -9.4366 C   0  0  0  0  0  0  0  0  0  0  0  0
   28.8738  -22.4411   -9.2888 O   0  0  0  0  0  0  0  0  0  0  0  0
   28.3419  -20.2008   -8.9883 N   0  0  0  0  0  0  0  0  0  0  0  0
   27.0162  -20.4363   -8.4990 C   0  0  1  0  0  0  0  0  0  0  0  0
   26.7484  -19.4198   -7.3828 C   0  0  0  0  0  0  0  0  0  0  0  0
   27.6613  -19.6181   -6.2514 C   0  0  0  0  0  0  0  0  0  0  0  0
   28.7286  -18.7795   -6.0759 C   0  0  0  0  0  0  0  0  0  0  0  0
   29.5797  -18.9901   -4.9935 C   0  0  0  0  0  0  0  0  0  0  0  0
   29.3288  -20.0369   -4.1240 C   0  0  0  0  0  0  0  0  0  0  0  0
   28.2419  -20.8763   -4.3184 C   0  0  0  0  0  0  0  0  0  0  0  0
   27.4024  -20.6683   -5.3863 C   0  0  0  0  0  0  0  0  0  0  0  0
   25.9735  -20.3112   -9.5349 C   0  0  0  0  0  0  0  0  0  0  0  0
   25.8596  -19.3594  -10.3215 O   0  0  0  0  0  0  0  0  0  0  0  0
   25.0231  -21.3631   -9.6423 N   0  0  0  0  0  0  0  0  0  0  0  0
   23.8645  -21.3186  -10.4844 C   0  0  1  0  0  0  0  0  0  0  0  0
   22.9679  -20.1420  -10.2142 C   0  0  0  0  0  0  0  0  0  0  0  0
   21.4629  -20.1676  -11.1893 S   0  0  0  0  0  0  0  0  0  0  0  0
   24.2216  -21.4561  -11.9064 C   0  0  0  0  0  0  0  0  0  0  0  0
   25.4351  -21.3616  -12.2264 O   0  0  0  0  0  0  0  0  0  0  0  0
   23.3197  -21.6818  -12.9174 O   0  0  0  0  0  0  0  0  0  0  0  0
  2  1  1  0
  2  3  1  0
  3  5  1  0
  3  4  2  0
  5  6  1  0
  6 14  1  0
  6  7  1  1
  8  7  1  0
  8 13  2  0
  9  8  1  0
 10  9  2  0
 10 11  1  0
 11 12  2  0
 12 13  1  0
 14 15  2  0
 14 16  1  0
 16 17  1  0
 17 20  1  0
 17 18  1  6
 19 18  1  0
 20 22  1  0
 21 20  2  0
M  END
$$$$
