GFC.pdb
     RDKit          3D

 22 22  0  0  1  0  0  0  0  0999 V2000
   25.3349  -12.1321  -19.6463 N   0  0  0  0  0  0  0  0  0  0  0  0
   24.3758  -11.0729  -19.7020 C   0  0  0  0  0  0  0  0  0  0  0  0
   24.0639  -10.5205  -18.3553 C   0  0  0  0  0  0  0  0  0  0  0  0
   23.3251  -11.1515  -17.5392 O   0  0  0  0  0  0  0  0  0  0  0  0
   24.6030   -9.2623  -17.9747 N   0  0  0  0  0  0  0  0  0  0  0  0
   24.3438   -8.6297  -16.7157 C   0  0  1  0  0  0  0  0  0  0  0  0
   25.6980   -8.3123  -16.0707 C   0  0  0  0  0  0  0  0  0  0  0  0
   26.5620   -9.4976  -16.0347 C   0  0  0  0  0  0  0  0  0  0  0  0
   27.6047   -9.6135  -16.9136 C   0  0  0  0  0  0  0  0  0  0  0  0
   28.4094  -10.7491  -16.8580 C   0  0  0  0  0  0  0  0  0  0  0  0
   28.1384  -11.7300  -15.9203 C   0  0  0  0  0  0  0  0  0  0  0  0
   27.0769  -11.5946  -15.0378 C   0  0  0  0  0  0  0  0  0  0  0  0
   26.2833  -10.4742  -15.0929 C   0  0  0  0  0  0  0  0  0  0  0  0
   23.5535   -7.3895  -16.8297 C   0  0  0  0  0  0  0  0  0  0  0  0
   23.5264   -6.6494  -17.8244 O   0  0  0  0  0  0  0  0  0  0  0  0
   22.7595   -7.0101  -15.7130 N   0  0  0  0  0  0  0  0  0  0  0  0
   21.7877   -5.9572  -15.7365 C   0  0  1  0  0  0  0  0  0  0  0  0
   20.8318   -6.0452  -16.8939 C   0  0  0  0  0  0  0  0  0  0  0  0
   19.5715   -4.7694  -16.8622 S   0  0  0  0  0  0  0  0  0  0  0  0
   21.1082   -5.8168  -14.4376 C   0  0  0  0  0  0  0  0  0  0  0  0
   20.7289   -6.8626  -13.8490 O   0  0  0  0  0  0  0  0  0  0  0  0
   20.8562   -4.6181  -13.8163 O   0  0  0  0  0  0  0  0  0  0  0  0
  2  1  1  0
  2  3  1  0
  3  5  1  0
  3  4  2  0
  5  6  1  0
  6 14  1  0
  6  7  1  6
  8  7  1  0
  8 13  2  0
  9  8  1  0
 10  9  2  0
 10 11  1  0
 11 12  2  0
 12 13  1  0
 14 15  2  0
 14 16  1  0
 16 17  1  0
 17 20  1  0
 17 18  1  6
 19 18  1  0
 20 22  1  0
 21 20  2  0
M  END
$$$$
