GFC.pdb
     RDKit          3D

 22 22  0  0  1  0  0  0  0  0999 V2000
   28.0652  -21.9908  -14.0636 N   0  0  0  0  0  0  0  0  0  0  0  0
   28.4729  -21.0092  -13.1069 C   0  0  0  0  0  0  0  0  0  0  0  0
   27.9771  -21.3143  -11.7367 C   0  0  0  0  0  0  0  0  0  0  0  0
   27.1076  -22.2164  -11.5363 O   0  0  0  0  0  0  0  0  0  0  0  0
   28.4863  -20.5821  -10.6308 N   0  0  0  0  0  0  0  0  0  0  0  0
   27.9416  -20.6514   -9.3076 C   0  0  1  0  0  0  0  0  0  0  0  0
   28.9221  -19.9415   -8.3666 C   0  0  0  0  0  0  0  0  0  0  0  0
   28.4010  -19.8877   -6.9961 C   0  0  0  0  0  0  0  0  0  0  0  0
   27.6200  -18.8359   -6.5999 C   0  0  0  0  0  0  0  0  0  0  0  0
   27.1382  -18.8094   -5.2932 C   0  0  0  0  0  0  0  0  0  0  0  0
   27.4581  -19.8416   -4.4289 C   0  0  0  0  0  0  0  0  0  0  0  0
   28.2511  -20.8992   -4.8488 C   0  0  0  0  0  0  0  0  0  0  0  0
   28.7262  -20.9251   -6.1379 C   0  0  0  0  0  0  0  0  0  0  0  0
   26.6091  -20.0309   -9.1842 C   0  0  0  0  0  0  0  0  0  0  0  0
   26.3873  -18.8108   -9.1844 O   0  0  0  0  0  0  0  0  0  0  0  0
   25.4892  -20.8971   -9.0548 N   0  0  0  0  0  0  0  0  0  0  0  0
   24.1247  -20.4632   -9.1125 C   0  0  1  0  0  0  0  0  0  0  0  0
   23.4601  -20.7383  -10.4329 C   0  0  0  0  0  0  0  0  0  0  0  0
   24.3192  -19.9937  -11.8201 S   0  0  0  0  0  0  0  0  0  0  0  0
   23.3489  -20.9581   -7.9629 C   0  0  0  0  0  0  0  0  0  0  0  0
   22.1448  -20.6058   -7.8623 O   0  0  0  0  0  0  0  0  0  0  0  0
   23.8473  -21.7828   -6.9841 O   0  0  0  0  0  0  0  0  0  0  0  0
  2  1  1  0
  2  3  1  0
  3  5  1  0
  3  4  2  0
  5  6  1  0
  6 14  1  0
  6  7  1  1
  8  7  1  0
  8 13  2  0
  9  8  1  0
 10  9  2  0
 10 11  1  0
 11 12  2  0
 12 13  1  0
 14 15  2  0
 14 16  1  0
 16 17  1  0
 17 20  1  0
 17 18  1  6
 19 18  1  0
 20 22  1  0
 21 20  2  0
M  END
$$$$
