MIE.pdb
     RDKit          3D

 26 25  0  0  1  0  0  0  0  0999 V2000
    5.3128  -20.5736   18.6613 C   0  0  0  0  0  0  0  0  0  0  0  0
    6.3894  -21.0877   17.3039 S   0  0  0  0  0  0  0  0  0  0  0  0
    7.3216  -19.6554   16.7307 C   0  0  0  0  0  0  0  0  0  0  0  0
    8.0049  -19.0187   17.9007 C   0  0  0  0  0  0  0  0  0  0  0  0
    8.7073  -17.7553   17.4497 C   0  0  2  0  0  0  0  0  0  0  0  0
    9.8078  -18.0621   16.5737 N   0  0  0  0  0  0  0  0  0  0  0  0
    9.2159  -16.9870   18.6037 C   0  0  0  0  0  0  0  0  0  0  0  0
   10.4607  -17.0822   18.8409 O   0  0  0  0  0  0  0  0  0  0  0  0
    6.6922  -12.2619   20.1397 C   0  0  0  0  0  0  0  0  0  0  0  0
    7.7956  -13.2641   19.7976 C   0  0  0  0  0  0  0  0  0  0  0  0
    7.9082  -14.3193   20.8556 C   0  0  2  0  0  0  0  0  0  0  0  0
    8.3754  -13.5914   22.1247 C   0  0  0  0  0  0  0  0  0  0  0  0
    8.8574  -15.4068   20.5084 C   0  0  2  0  0  0  0  0  0  0  0  0
    8.3524  -16.2019   19.3808 N   0  0  0  0  0  0  0  0  0  0  0  0
    9.1047  -16.3151   21.6680 C   0  0  0  0  0  0  0  0  0  0  0  0
    8.2196  -17.0329   22.1830 O   0  0  0  0  0  0  0  0  0  0  0  0
   10.3999  -16.4098   22.2608 N   0  0  0  0  0  0  0  0  0  0  0  0
   10.7081  -17.3270   23.3401 C   0  0  1  0  0  0  0  0  0  0  0  0
   11.8723  -18.1877   23.0239 C   0  0  0  0  0  0  0  0  0  0  0  0
   13.1522  -17.5765   22.6500 C   0  0  0  0  0  0  0  0  0  0  0  0
   14.2590  -18.4471   22.2593 C   0  0  0  0  0  0  0  0  0  0  0  0
   14.6864  -19.4176   22.9018 O   0  0  0  0  0  0  0  0  0  0  0  0
   10.6621  -16.6373   24.6120 C   0  0  0  0  0  0  0  0  0  0  0  0
   10.4517  -15.2667   24.7059 O   0  0  0  0  0  0  0  0  0  0  0  0
   14.9235  -18.1899   21.0494 O   0  0  0  0  0  0  0  0  0  0  0  0
   10.8179  -17.2605   25.6879 O   0  0  0  0  0  0  0  0  0  0  0  0
  2  1  1  0
  3  2  1  0
  3  4  1  0
  4  5  1  0
  5  6  1  6
  7  5  1  0
  7  8  2  0
 10  9  1  0
 11 10  1  0
 11 13  1  0
 11 12  1  1
 13 14  1  6
 14  7  1  0
 15 13  1  0
 16 15  2  0
 17 15  1  0
 18 19  1  6
 18 17  1  0
 19 20  1  0
 21 20  1  0
 21 22  2  0
 23 18  1  0
 24 23  1  0
 25 21  1  0
 26 23  2  0
M  END
$$$$
