MIE.pdb
     RDKit          3D

 26 25  0  0  1  0  0  0  0  0999 V2000
    7.1549  -19.3204   21.3310 C   0  0  0  0  0  0  0  0  0  0  0  0
    6.3680  -18.6016   19.8714 S   0  0  0  0  0  0  0  0  0  0  0  0
    6.6861  -16.8274   19.8574 C   0  0  0  0  0  0  0  0  0  0  0  0
    7.4185  -16.4538   21.1085 C   0  0  0  0  0  0  0  0  0  0  0  0
    7.5113  -14.9458   21.2086 C   0  0  2  0  0  0  0  0  0  0  0  0
    8.2017  -14.3952   20.0715 N   0  0  0  0  0  0  0  0  0  0  0  0
    8.2164  -14.5355   22.4394 C   0  0  0  0  0  0  0  0  0  0  0  0
    9.4861  -14.5702   22.4011 O   0  0  0  0  0  0  0  0  0  0  0  0
    6.0181  -11.2923   26.3035 C   0  0  0  0  0  0  0  0  0  0  0  0
    7.0974  -11.9606   25.4505 C   0  0  0  0  0  0  0  0  0  0  0  0
    7.3200  -13.3782   25.8818 C   0  0  2  0  0  0  0  0  0  0  0  0
    8.0544  -13.2958   27.2281 C   0  0  0  0  0  0  0  0  0  0  0  0
    8.1134  -14.1745   24.9118 C   0  0  2  0  0  0  0  0  0  0  0  0
    7.5016  -14.1331   23.5766 N   0  0  0  0  0  0  0  0  0  0  0  0
    8.2417  -15.5993   25.3410 C   0  0  0  0  0  0  0  0  0  0  0  0
    7.6010  -16.5375   24.8183 O   0  0  0  0  0  0  0  0  0  0  0  0
    9.1268  -15.9687   26.3983 N   0  0  0  0  0  0  0  0  0  0  0  0
   10.0445  -17.0868   26.3043 C   0  0  1  0  0  0  0  0  0  0  0  0
   10.7694  -17.1048   25.0118 C   0  0  0  0  0  0  0  0  0  0  0  0
   11.8707  -18.0513   24.8054 C   0  0  0  0  0  0  0  0  0  0  0  0
   12.5390  -18.0792   23.5061 C   0  0  0  0  0  0  0  0  0  0  0  0
   12.0072  -18.3406   22.4170 O   0  0  0  0  0  0  0  0  0  0  0  0
   10.7907  -17.2274   27.5367 C   0  0  0  0  0  0  0  0  0  0  0  0
   10.9626  -16.1723   28.4247 O   0  0  0  0  0  0  0  0  0  0  0  0
   13.9114  -17.7877   23.4482 O   0  0  0  0  0  0  0  0  0  0  0  0
   11.3196  -18.3201   27.8476 O   0  0  0  0  0  0  0  0  0  0  0  0
  2  1  1  0
  3  2  1  0
  3  4  1  0
  4  5  1  0
  5  6  1  6
  7  5  1  0
  7  8  2  0
 10  9  1  0
 11 10  1  0
 11 13  1  0
 11 12  1  1
 13 14  1  6
 14  7  1  0
 15 13  1  0
 16 15  2  0
 17 15  1  0
 18 19  1  6
 18 17  1  0
 19 20  1  0
 21 20  1  0
 21 22  2  0
 23 18  1  0
 24 23  1  0
 25 21  1  0
 26 23  2  0
M  END
$$$$
