MIE.pdb
     RDKit          3D

 26 25  0  0  1  0  0  0  0  0999 V2000
    6.2143  -12.1224   18.3028 C   0  0  0  0  0  0  0  0  0  0  0  0
    7.7984  -12.9853   18.4125 S   0  0  0  0  0  0  0  0  0  0  0  0
    7.6169  -14.3877   19.5303 C   0  0  0  0  0  0  0  0  0  0  0  0
    8.3249  -14.0827   20.8136 C   0  0  0  0  0  0  0  0  0  0  0  0
    8.2303  -15.2773   21.7392 C   0  0  2  0  0  0  0  0  0  0  0  0
    6.8663  -15.7171   21.8756 N   0  0  0  0  0  0  0  0  0  0  0  0
    8.7648  -14.9580   23.0782 C   0  0  0  0  0  0  0  0  0  0  0  0
    9.9987  -14.6598   23.1373 O   0  0  0  0  0  0  0  0  0  0  0  0
    5.9365  -12.0760   26.4394 C   0  0  0  0  0  0  0  0  0  0  0  0
    7.2239  -12.6359   25.8329 C   0  0  0  0  0  0  0  0  0  0  0  0
    7.5338  -13.9918   26.3906 C   0  0  2  0  0  0  0  0  0  0  0  0
    8.1319  -13.7448   27.7834 C   0  0  0  0  0  0  0  0  0  0  0  0
    8.4811  -14.7729   25.5559 C   0  0  2  0  0  0  0  0  0  0  0  0
    7.9359  -14.9889   24.2087 N   0  0  0  0  0  0  0  0  0  0  0  0
    8.7941  -16.0983   26.1691 C   0  0  0  0  0  0  0  0  0  0  0  0
    7.9332  -16.9798   26.3832 O   0  0  0  0  0  0  0  0  0  0  0  0
   10.1286  -16.4317   26.5511 N   0  0  0  0  0  0  0  0  0  0  0  0
   10.5290  -17.7723   26.9298 C   0  0  1  0  0  0  0  0  0  0  0  0
   11.6357  -18.2819   26.0862 C   0  0  0  0  0  0  0  0  0  0  0  0
   12.2144  -19.6016   26.3599 C   0  0  0  0  0  0  0  0  0  0  0  0
   13.3248  -20.0674   25.5317 C   0  0  0  0  0  0  0  0  0  0  0  0
   14.4050  -20.5154   25.9436 O   0  0  0  0  0  0  0  0  0  0  0  0
   10.6304  -17.8768   28.3700 C   0  0  0  0  0  0  0  0  0  0  0  0
   10.9307  -16.7837   29.1741 O   0  0  0  0  0  0  0  0  0  0  0  0
   13.1903  -20.0172   24.1349 O   0  0  0  0  0  0  0  0  0  0  0  0
   10.4533  -18.9736   28.9497 O   0  0  0  0  0  0  0  0  0  0  0  0
  2  1  1  0
  3  2  1  0
  3  4  1  0
  4  5  1  0
  5  6  1  1
  7  5  1  0
  7  8  2  0
 10  9  1  0
 11 10  1  0
 11 13  1  0
 11 12  1  1
 13 14  1  6
 14  7  1  0
 15 13  1  0
 16 15  2  0
 17 15  1  0
 18 19  1  6
 18 17  1  0
 19 20  1  0
 21 20  1  0
 21 22  2  0
 23 18  1  0
 24 23  1  0
 25 21  1  0
 26 23  2  0
M  END
$$$$
