MIE.pdb
     RDKit          3D

 26 25  0  0  1  0  0  0  0  0999 V2000
   10.3238  -14.4906   29.0563 C   0  0  0  0  0  0  0  0  0  0  0  0
   10.4014  -15.8499   30.2447 S   0  0  0  0  0  0  0  0  0  0  0  0
   10.0803  -17.3964   29.3763 C   0  0  0  0  0  0  0  0  0  0  0  0
    9.7319  -17.0925   27.9524 C   0  0  0  0  0  0  0  0  0  0  0  0
    8.2683  -17.3986   27.7138 C   0  0  2  0  0  0  0  0  0  0  0  0
    8.0363  -18.8193   27.6887 N   0  0  0  0  0  0  0  0  0  0  0  0
    7.8027  -16.8165   26.4391 C   0  0  0  0  0  0  0  0  0  0  0  0
    7.2627  -17.6196   25.6155 O   0  0  0  0  0  0  0  0  0  0  0  0
    6.6126  -11.6017   26.5028 C   0  0  0  0  0  0  0  0  0  0  0  0
    6.3002  -12.9503   25.8529 C   0  0  0  0  0  0  0  0  0  0  0  0
    7.4307  -13.3981   24.9773 C   0  0  2  0  0  0  0  0  0  0  0  0
    7.1491  -12.7994   23.5913 C   0  0  0  0  0  0  0  0  0  0  0  0
    7.5577  -14.8743   24.8830 C   0  0  2  0  0  0  0  0  0  0  0  0
    7.9590  -15.4485   26.1745 N   0  0  0  0  0  0  0  0  0  0  0  0
    8.5524  -15.2779   23.8445 C   0  0  0  0  0  0  0  0  0  0  0  0
    8.3172  -15.2501   22.6165 O   0  0  0  0  0  0  0  0  0  0  0  0
    9.8558  -15.7275   24.2143 N   0  0  0  0  0  0  0  0  0  0  0  0
   10.8965  -16.0110   23.2460 C   0  0  1  0  0  0  0  0  0  0  0  0
   12.2345  -15.5958   23.7293 C   0  0  0  0  0  0  0  0  0  0  0  0
   13.4295  -15.9302   22.9472 C   0  0  0  0  0  0  0  0  0  0  0  0
   14.7390  -15.5343   23.4611 C   0  0  0  0  0  0  0  0  0  0  0  0
   14.9586  -14.6319   24.2826 O   0  0  0  0  0  0  0  0  0  0  0  0
   10.7224  -17.3394   22.6979 C   0  0  0  0  0  0  0  0  0  0  0  0
   11.0268  -17.6427   21.3762 O   0  0  0  0  0  0  0  0  0  0  0  0
   15.8770  -16.2180   23.0035 O   0  0  0  0  0  0  0  0  0  0  0  0
   10.2797  -18.2744   23.4051 O   0  0  0  0  0  0  0  0  0  0  0  0
  2  1  1  0
  3  2  1  0
  3  4  1  0
  4  5  1  0
  5  6  1  6
  7  5  1  0
  7  8  2  0
 10  9  1  0
 11 10  1  0
 11 13  1  0
 11 12  1  6
 13 14  1  1
 14  7  1  0
 15 13  1  0
 16 15  2  0
 17 15  1  0
 18 19  1  1
 18 17  1  0
 19 20  1  0
 21 20  1  0
 21 22  2  0
 23 18  1  0
 24 23  1  0
 25 21  1  0
 26 23  2  0
M  END
$$$$
