MIE.pdb
     RDKit          3D

 26 25  0  0  1  0  0  0  0  0999 V2000
    4.1846  -18.9501   22.7068 C   0  0  0  0  0  0  0  0  0  0  0  0
    4.4760  -18.8697   20.9250 S   0  0  0  0  0  0  0  0  0  0  0  0
    5.1507  -17.2475   20.5219 C   0  0  0  0  0  0  0  0  0  0  0  0
    6.1629  -16.8696   21.5581 C   0  0  0  0  0  0  0  0  0  0  0  0
    6.4925  -15.3973   21.4293 C   0  0  2  0  0  0  0  0  0  0  0  0
    7.1074  -15.1160   20.1583 N   0  0  0  0  0  0  0  0  0  0  0  0
    7.4016  -14.9581   22.5068 C   0  0  0  0  0  0  0  0  0  0  0  0
    8.6462  -15.0314   22.2604 O   0  0  0  0  0  0  0  0  0  0  0  0
    5.6484  -11.3778   26.3398 C   0  0  0  0  0  0  0  0  0  0  0  0
    6.5661  -12.0629   25.3263 C   0  0  0  0  0  0  0  0  0  0  0  0
    7.0950  -13.3552   25.8700 C   0  0  2  0  0  0  0  0  0  0  0  0
    8.0672  -12.9695   26.9946 C   0  0  0  0  0  0  0  0  0  0  0  0
    7.7890  -14.1854   24.8534 C   0  0  2  0  0  0  0  0  0  0  0  0
    6.8954  -14.4893   23.7274 N   0  0  0  0  0  0  0  0  0  0  0  0
    8.2879  -15.4677   25.4345 C   0  0  0  0  0  0  0  0  0  0  0  0
    7.5354  -16.3659   25.8712 O   0  0  0  0  0  0  0  0  0  0  0  0
    9.6871  -15.7367   25.5217 N   0  0  0  0  0  0  0  0  0  0  0  0
   10.2219  -17.0628   25.7600 C   0  0  1  0  0  0  0  0  0  0  0  0
   11.3090  -17.4032   24.8121 C   0  0  0  0  0  0  0  0  0  0  0  0
   12.0481  -18.6603   24.9696 C   0  0  0  0  0  0  0  0  0  0  0  0
   13.1375  -18.9559   24.0415 C   0  0  0  0  0  0  0  0  0  0  0  0
   13.8671  -19.9581   24.0673 O   0  0  0  0  0  0  0  0  0  0  0  0
   10.4268  -17.2729   27.1775 C   0  0  0  0  0  0  0  0  0  0  0  0
   10.6923  -16.2261   28.0523 O   0  0  0  0  0  0  0  0  0  0  0  0
   13.4120  -18.0413   23.0119 O   0  0  0  0  0  0  0  0  0  0  0  0
   10.3762  -18.4235   27.6713 O   0  0  0  0  0  0  0  0  0  0  0  0
  2  1  1  0
  3  2  1  0
  3  4  1  0
  4  5  1  0
  5  6  1  6
  7  5  1  0
  7  8  2  0
 10  9  1  0
 11 10  1  0
 11 13  1  0
 11 12  1  1
 13 14  1  6
 14  7  1  0
 15 13  1  0
 16 15  2  0
 17 15  1  0
 18 19  1  6
 18 17  1  0
 19 20  1  0
 21 20  1  0
 21 22  2  0
 23 18  1  0
 24 23  1  0
 25 21  1  0
 26 23  2  0
M  END
$$$$
