MIE.pdb
     RDKit          3D

 26 25  0  0  1  0  0  0  0  0999 V2000
    8.2140  -12.4542   28.5704 C   0  0  0  0  0  0  0  0  0  0  0  0
    9.6589  -13.5019   28.2860 S   0  0  0  0  0  0  0  0  0  0  0  0
    9.0958  -15.1601   27.8589 C   0  0  0  0  0  0  0  0  0  0  0  0
    8.0169  -15.0575   26.8262 C   0  0  0  0  0  0  0  0  0  0  0  0
    7.5615  -16.4466   26.4313 C   0  0  2  0  0  0  0  0  0  0  0  0
    8.4176  -17.4521   27.0047 N   0  0  0  0  0  0  0  0  0  0  0  0
    7.5529  -16.6078   24.9635 C   0  0  0  0  0  0  0  0  0  0  0  0
    7.0594  -17.6904   24.5172 O   0  0  0  0  0  0  0  0  0  0  0  0
    7.4411  -11.8180   22.4512 C   0  0  0  0  0  0  0  0  0  0  0  0
    6.9531  -13.2521   22.6607 C   0  0  0  0  0  0  0  0  0  0  0  0
    7.9421  -14.2393   22.1197 C   0  0  2  0  0  0  0  0  0  0  0  0
    7.7189  -14.2657   20.6004 C   0  0  0  0  0  0  0  0  0  0  0  0
    7.7873  -15.6032   22.6854 C   0  0  2  0  0  0  0  0  0  0  0  0
    8.0672  -15.6062   24.1278 N   0  0  0  0  0  0  0  0  0  0  0  0
    8.6915  -16.5851   22.0153 C   0  0  0  0  0  0  0  0  0  0  0  0
    8.5696  -16.9303   20.8195 O   0  0  0  0  0  0  0  0  0  0  0  0
    9.7683  -17.1937   22.7279 N   0  0  0  0  0  0  0  0  0  0  0  0
   11.1198  -17.2610   22.2082 C   0  0  1  0  0  0  0  0  0  0  0  0
   11.5550  -15.9719   21.6207 C   0  0  0  0  0  0  0  0  0  0  0  0
   12.9456  -15.7996   21.1871 C   0  0  0  0  0  0  0  0  0  0  0  0
   13.2041  -15.2792   19.8462 C   0  0  0  0  0  0  0  0  0  0  0  0
   12.4918  -15.4521   18.8461 O   0  0  0  0  0  0  0  0  0  0  0  0
   11.9856  -17.9382   23.1501 C   0  0  0  0  0  0  0  0  0  0  0  0
   11.9266  -17.6979   24.5177 O   0  0  0  0  0  0  0  0  0  0  0  0
   14.3577  -14.5073   19.6341 O   0  0  0  0  0  0  0  0  0  0  0  0
   12.8341  -18.7731   22.7587 O   0  0  0  0  0  0  0  0  0  0  0  0
  2  1  1  0
  3  2  1  0
  3  4  1  0
  4  5  1  0
  5  6  1  1
  7  5  1  0
  7  8  2  0
 10  9  1  0
 11 10  1  0
 11 13  1  0
 11 12  1  6
 13 14  1  1
 14  7  1  0
 15 13  1  0
 16 15  2  0
 17 15  1  0
 18 19  1  1
 18 17  1  0
 19 20  1  0
 21 20  1  0
 21 22  2  0
 23 18  1  0
 24 23  1  0
 25 21  1  0
 26 23  2  0
M  END
$$$$
