MIE.pdb
     RDKit          3D

 26 25  0  0  1  0  0  0  0  0999 V2000
   10.5297  -14.9372   30.0089 C   0  0  0  0  0  0  0  0  0  0  0  0
   10.8150  -16.7111   30.2032 S   0  0  0  0  0  0  0  0  0  0  0  0
    9.4744  -17.6045   29.3945 C   0  0  0  0  0  0  0  0  0  0  0  0
    9.2479  -17.0181   28.0359 C   0  0  0  0  0  0  0  0  0  0  0  0
    7.9908  -17.6093   27.4334 C   0  0  2  0  0  0  0  0  0  0  0  0
    8.1339  -19.0275   27.2310 N   0  0  0  0  0  0  0  0  0  0  0  0
    7.6690  -16.9729   26.1403 C   0  0  0  0  0  0  0  0  0  0  0  0
    7.5355  -17.7520   25.1453 O   0  0  0  0  0  0  0  0  0  0  0  0
    6.1803  -11.8302   26.3651 C   0  0  0  0  0  0  0  0  0  0  0  0
    6.0785  -13.1105   25.5348 C   0  0  0  0  0  0  0  0  0  0  0  0
    7.3927  -13.4403   24.8949 C   0  0  2  0  0  0  0  0  0  0  0  0
    7.3699  -12.7609   23.5178 C   0  0  0  0  0  0  0  0  0  0  0  0
    7.6286  -14.8984   24.7445 C   0  0  2  0  0  0  0  0  0  0  0  0
    7.5233  -15.5819   26.0409 N   0  0  0  0  0  0  0  0  0  0  0  0
    8.9713  -15.1828   24.1556 C   0  0  0  0  0  0  0  0  0  0  0  0
   10.0326  -15.1637   24.8168 O   0  0  0  0  0  0  0  0  0  0  0  0
    9.1115  -15.4988   22.7705 N   0  0  0  0  0  0  0  0  0  0  0  0
   10.2788  -16.1651   22.2278 C   0  0  1  0  0  0  0  0  0  0  0  0
   10.7477  -17.2664   23.1015 C   0  0  0  0  0  0  0  0  0  0  0  0
   12.0465  -17.1617   23.7750 C   0  0  0  0  0  0  0  0  0  0  0  0
   12.3311  -18.0557   24.8954 C   0  0  0  0  0  0  0  0  0  0  0  0
   13.0035  -17.7771   25.8992 O   0  0  0  0  0  0  0  0  0  0  0  0
   10.1026  -16.4104   20.8121 C   0  0  0  0  0  0  0  0  0  0  0  0
   11.1778  -16.6000   19.9522 O   0  0  0  0  0  0  0  0  0  0  0  0
   11.8104  -19.3595   24.8658 O   0  0  0  0  0  0  0  0  0  0  0  0
    8.9578  -16.4558   20.3045 O   0  0  0  0  0  0  0  0  0  0  0  0
  2  1  1  0
  3  2  1  0
  3  4  1  0
  4  5  1  0
  5  6  1  6
  7  5  1  0
  7  8  2  0
 10  9  1  0
 11 10  1  0
 11 13  1  0
 11 12  1  6
 13 14  1  1
 14  7  1  0
 15 13  1  0
 16 15  2  0
 17 15  1  0
 18 19  1  1
 18 17  1  0
 19 20  1  0
 21 20  1  0
 21 22  2  0
 23 18  1  0
 24 23  1  0
 25 21  1  0
 26 23  2  0
M  END
$$$$
