MIE.pdb
     RDKit          3D

 26 25  0  0  1  0  0  0  0  0999 V2000
    6.5205  -19.6467   21.3402 C   0  0  0  0  0  0  0  0  0  0  0  0
    5.0551  -18.7871   20.7238 S   0  0  0  0  0  0  0  0  0  0  0  0
    5.3974  -17.0179   20.6814 C   0  0  0  0  0  0  0  0  0  0  0  0
    6.3996  -16.6899   21.7440 C   0  0  0  0  0  0  0  0  0  0  0  0
    6.7024  -15.2066   21.7125 C   0  0  2  0  0  0  0  0  0  0  0  0
    7.2984  -14.8287   20.4576 N   0  0  0  0  0  0  0  0  0  0  0  0
    7.6156  -14.8254   22.8085 C   0  0  0  0  0  0  0  0  0  0  0  0
    8.8592  -14.8857   22.5539 O   0  0  0  0  0  0  0  0  0  0  0  0
    6.0194  -11.2827   26.5943 C   0  0  0  0  0  0  0  0  0  0  0  0
    7.0325  -11.9818   25.6867 C   0  0  0  0  0  0  0  0  0  0  0  0
    7.3789  -13.3400   26.2164 C   0  0  2  0  0  0  0  0  0  0  0  0
    8.3459  -13.0993   27.3850 C   0  0  0  0  0  0  0  0  0  0  0  0
    8.0063  -14.2276   25.2050 C   0  0  2  0  0  0  0  0  0  0  0  0
    7.1140  -14.4221   24.0541 N   0  0  0  0  0  0  0  0  0  0  0  0
    8.3521  -15.5621   25.7798 C   0  0  0  0  0  0  0  0  0  0  0  0
    7.5012  -16.3609   26.2292 O   0  0  0  0  0  0  0  0  0  0  0  0
    9.7086  -16.0018   25.8458 N   0  0  0  0  0  0  0  0  0  0  0  0
   10.0836  -17.3465   26.2360 C   0  0  1  0  0  0  0  0  0  0  0  0
   11.0553  -17.9491   25.2931 C   0  0  0  0  0  0  0  0  0  0  0  0
   12.4313  -17.4439   25.2406 C   0  0  0  0  0  0  0  0  0  0  0  0
   13.3541  -18.0190   24.2643 C   0  0  0  0  0  0  0  0  0  0  0  0
   13.0768  -18.8805   23.4168 O   0  0  0  0  0  0  0  0  0  0  0  0
   10.3503  -17.3996   27.6578 C   0  0  0  0  0  0  0  0  0  0  0  0
   10.4837  -18.6011   28.3435 O   0  0  0  0  0  0  0  0  0  0  0  0
   14.6873  -17.5782   24.2566 O   0  0  0  0  0  0  0  0  0  0  0  0
   10.4666  -16.3487   28.3303 O   0  0  0  0  0  0  0  0  0  0  0  0
  2  1  1  0
  3  2  1  0
  3  4  1  0
  4  5  1  0
  5  6  1  6
  7  5  1  0
  7  8  2  0
 10  9  1  0
 11 10  1  0
 11 13  1  0
 11 12  1  1
 13 14  1  6
 14  7  1  0
 15 13  1  0
 16 15  2  0
 17 15  1  0
 18 19  1  6
 18 17  1  0
 19 20  1  0
 21 20  1  0
 21 22  2  0
 23 18  1  0
 24 23  1  0
 25 21  1  0
 26 23  2  0
M  END
$$$$
