MIE.pdb
     RDKit          3D

 26 25  0  0  1  0  0  0  0  0999 V2000
    5.7319  -19.8389   22.6928 C   0  0  0  0  0  0  0  0  0  0  0  0
    4.5750  -19.1135   21.5089 S   0  0  0  0  0  0  0  0  0  0  0  0
    5.1097  -17.4337   21.1326 C   0  0  0  0  0  0  0  0  0  0  0  0
    6.1667  -17.0279   22.1120 C   0  0  0  0  0  0  0  0  0  0  0  0
    6.5459  -15.5811   21.8758 C   0  0  2  0  0  0  0  0  0  0  0  0
    7.1570  -15.4129   20.5831 N   0  0  0  0  0  0  0  0  0  0  0  0
    7.4810  -15.0989   22.9119 C   0  0  0  0  0  0  0  0  0  0  0  0
    8.7193  -15.2458   22.6674 O   0  0  0  0  0  0  0  0  0  0  0  0
    5.8831  -11.3457   26.6861 C   0  0  0  0  0  0  0  0  0  0  0  0
    6.8680  -12.0323   25.7389 C   0  0  0  0  0  0  0  0  0  0  0  0
    7.2334  -13.3958   26.2417 C   0  0  2  0  0  0  0  0  0  0  0  0
    8.1674  -13.1641   27.4385 C   0  0  0  0  0  0  0  0  0  0  0  0
    7.9041  -14.2424   25.2230 C   0  0  2  0  0  0  0  0  0  0  0  0
    7.0042  -14.5140   24.0937 N   0  0  0  0  0  0  0  0  0  0  0  0
    8.3622  -15.5418   25.7995 C   0  0  0  0  0  0  0  0  0  0  0  0
    7.5816  -16.4508   26.1579 O   0  0  0  0  0  0  0  0  0  0  0  0
    9.7522  -15.8160   25.9743 N   0  0  0  0  0  0  0  0  0  0  0  0
   10.2619  -17.1350   26.2931 C   0  0  1  0  0  0  0  0  0  0  0  0
   11.3129  -17.5701   25.3432 C   0  0  0  0  0  0  0  0  0  0  0  0
   12.0040  -18.8467   25.5535 C   0  0  0  0  0  0  0  0  0  0  0  0
   13.0883  -19.2164   24.6462 C   0  0  0  0  0  0  0  0  0  0  0  0
   12.9590  -19.7283   23.5243 O   0  0  0  0  0  0  0  0  0  0  0  0
   10.5023  -17.2486   27.7160 C   0  0  0  0  0  0  0  0  0  0  0  0
   10.6831  -18.4760   28.3424 O   0  0  0  0  0  0  0  0  0  0  0  0
   14.4131  -18.9847   25.0500 O   0  0  0  0  0  0  0  0  0  0  0  0
   10.5513  -16.2297   28.4437 O   0  0  0  0  0  0  0  0  0  0  0  0
  2  1  1  0
  3  2  1  0
  3  4  1  0
  4  5  1  0
  5  6  1  6
  7  5  1  0
  7  8  2  0
 10  9  1  0
 11 10  1  0
 11 13  1  0
 11 12  1  1
 13 14  1  6
 14  7  1  0
 15 13  1  0
 16 15  2  0
 17 15  1  0
 18 19  1  6
 18 17  1  0
 19 20  1  0
 21 20  1  0
 21 22  2  0
 23 18  1  0
 24 23  1  0
 25 21  1  0
 26 23  2  0
M  END
$$$$
