MIE.pdb
     RDKit          3D

 26 25  0  0  1  0  0  0  0  0999 V2000
    3.6761  -18.3491   21.7331 C   0  0  0  0  0  0  0  0  0  0  0  0
    4.9596  -18.7181   20.5154 S   0  0  0  0  0  0  0  0  0  0  0  0
    5.9758  -17.2476   20.2827 C   0  0  0  0  0  0  0  0  0  0  0  0
    5.8542  -16.3747   21.4928 C   0  0  0  0  0  0  0  0  0  0  0  0
    6.6617  -15.1104   21.2872 C   0  0  2  0  0  0  0  0  0  0  0  0
    7.4745  -15.2049   20.1027 N   0  0  0  0  0  0  0  0  0  0  0  0
    7.5366  -14.8421   22.4461 C   0  0  0  0  0  0  0  0  0  0  0  0
    8.7539  -15.1866   22.3263 O   0  0  0  0  0  0  0  0  0  0  0  0
    5.9436  -11.1161   26.1524 C   0  0  0  0  0  0  0  0  0  0  0  0
    6.9500  -11.8692   25.2814 C   0  0  0  0  0  0  0  0  0  0  0  0
    7.2001  -13.2454   25.8190 C   0  0  2  0  0  0  0  0  0  0  0  0
    8.1194  -13.0590   27.0350 C   0  0  0  0  0  0  0  0  0  0  0  0
    7.8302  -14.1603   24.8341 C   0  0  2  0  0  0  0  0  0  0  0  0
    7.0285  -14.2388   23.6053 N   0  0  0  0  0  0  0  0  0  0  0  0
    8.0007  -15.5364   25.3889 C   0  0  0  0  0  0  0  0  0  0  0  0
    7.2020  -16.4730   25.1680 O   0  0  0  0  0  0  0  0  0  0  0  0
    9.1149  -15.8575   26.2216 N   0  0  0  0  0  0  0  0  0  0  0  0
    9.8673  -17.0896   26.0919 C   0  0  1  0  0  0  0  0  0  0  0  0
   10.3229  -17.3197   24.7006 C   0  0  0  0  0  0  0  0  0  0  0  0
   11.2200  -18.4412   24.4021 C   0  0  0  0  0  0  0  0  0  0  0  0
   11.6961  -18.6143   23.0313 C   0  0  0  0  0  0  0  0  0  0  0  0
   12.8011  -18.2628   22.5923 O   0  0  0  0  0  0  0  0  0  0  0  0
   10.8167  -17.2135   27.1775 C   0  0  0  0  0  0  0  0  0  0  0  0
   11.1691  -16.1362   27.9818 O   0  0  0  0  0  0  0  0  0  0  0  0
   10.8494  -19.2327   22.0972 O   0  0  0  0  0  0  0  0  0  0  0  0
   11.3656  -18.3113   27.4303 O   0  0  0  0  0  0  0  0  0  0  0  0
  2  1  1  0
  3  2  1  0
  3  4  1  0
  4  5  1  0
  5  6  1  6
  7  5  1  0
  7  8  2  0
 10  9  1  0
 11 10  1  0
 11 13  1  0
 11 12  1  1
 13 14  1  6
 14  7  1  0
 15 13  1  0
 16 15  2  0
 17 15  1  0
 18 19  1  6
 18 17  1  0
 19 20  1  0
 21 20  1  0
 21 22  2  0
 23 18  1  0
 24 23  1  0
 25 21  1  0
 26 23  2  0
M  END
$$$$
