RRT.pdb
     RDKit          3D

 30 29  0  0  1  0  0  0  0  0999 V2000
   10.4469  -23.4996   25.8191 N   0  0  0  0  0  0  0  0  0  0  0  0
   10.7303  -24.1148   24.5609 C   0  0  0  0  0  0  0  0  0  0  0  0
   11.1652  -25.3229   24.4935 N   0  0  0  0  0  0  0  0  0  0  0  0
   10.5401  -23.4116   23.3476 N   0  0  0  0  0  0  0  0  0  0  0  0
    9.4881  -22.4525   23.2336 C   0  0  0  0  0  0  0  0  0  0  0  0
    8.3612  -22.8642   22.3626 C   0  0  0  0  0  0  0  0  0  0  0  0
    7.2786  -21.8224   22.3794 C   0  0  0  0  0  0  0  0  0  0  0  0
    7.1233  -21.1520   21.0638 C   0  0  2  0  0  0  0  0  0  0  0  0
    7.6651  -21.9921   20.0265 N   0  0  0  0  0  0  0  0  0  0  0  0
    7.8171  -19.8326   21.0104 C   0  0  0  0  0  0  0  0  0  0  0  0
    8.8513  -19.7518   20.3080 O   0  0  0  0  0  0  0  0  0  0  0  0
   11.2885  -25.7781   23.5763 N   0  0  0  0  0  0  0  0  0  0  0  0
    8.5209  -12.5171   17.3355 C   0  0  0  0  0  0  0  0  0  0  0  0
    8.5698  -12.7542   18.7370 N   0  0  0  0  0  0  0  0  0  0  0  0
    8.8422  -11.7926   19.5457 N   0  0  0  0  0  0  0  0  0  0  0  0
    8.3261  -14.0277   19.3065 C   0  0  0  0  0  0  0  0  0  0  0  0
    7.2958  -14.1725   20.2963 C   0  0  0  0  0  0  0  0  0  0  0  0
    7.7271  -14.8970   21.5146 C   0  0  0  0  0  0  0  0  0  0  0  0
    7.1805  -16.2679   21.6795 C   0  0  2  0  0  0  0  0  0  0  0  0
    8.0983  -17.4211   21.6115 N   0  0  0  0  0  0  0  0  0  0  0  0
    7.3709  -18.6995   21.6981 C   0  0  0  0  0  0  0  0  0  0  0  0
    9.2575  -17.4304   22.5167 O   0  0  0  0  0  0  0  0  0  0  0  0
    9.0749  -17.3968   23.7849 C   0  0  0  0  0  0  0  0  0  0  0  0
    8.8224  -11.9871   20.5669 C   0  0  2  0  0  0  0  0  0  0  0  0
   12.2339  -19.8648   22.6893 O   0  0  0  0  0  0  0  0  0  0  0  0
   12.7584  -18.4486   22.5891 C   0  0  2  0  0  0  0  0  0  0  0  0
   13.1038  -18.1400   21.2728 N   0  0  0  0  0  0  0  0  0  0  0  0
   11.7068  -17.4598   23.0932 C   0  0  0  0  0  0  0  0  0  0  0  0
   10.6174  -17.4776   22.1157 O   0  0  0  0  0  0  0  0  0  0  0  0
   12.2809  -16.1299   23.3083 O   0  0  0  0  0  0  0  0  0  0  0  0
  2  3  2  0
  2  1  1  0
  4  2  1  0
  5  4  1  0
  6  5  1  0
  7  6  1  0
  8  7  1  0
  8  9  1  6
 10  8  1  0
 11 10  2  0
 13 12  1  0
 14 13  2  0
 15 13  1  0
 16 15  1  0
 17 16  1  0
 17 18  1  0
 19 18  1  6
 19 21  1  0
 19 20  1  0
 20 10  1  0
 21 22  2  0
 24 23  1  6
 24 26  1  0
 25 24  1  0
 26 28  1  0
 26 27  1  6
 27 21  1  0
 28 29  2  0
 28 30  1  0
M  END
$$$$
