RRT.pdb
     RDKit          3D

 30 29  0  0  1  0  0  0  0  0999 V2000
    9.5253  -13.0758   20.3350 N   0  0  0  0  0  0  0  0  0  0  0  0
    8.3756  -12.6688   19.5905 C   0  0  0  0  0  0  0  0  0  0  0  0
    8.4355  -11.6954   18.7525 N   0  0  0  0  0  0  0  0  0  0  0  0
    7.1331  -13.3264   19.7526 N   0  0  0  0  0  0  0  0  0  0  0  0
    7.0360  -14.4753   20.5954 C   0  0  0  0  0  0  0  0  0  0  0  0
    7.7612  -15.6715   20.1044 C   0  0  0  0  0  0  0  0  0  0  0  0
    7.4131  -16.8732   20.9365 C   0  0  0  0  0  0  0  0  0  0  0  0
    8.2911  -18.0339   20.6425 C   0  0  2  0  0  0  0  0  0  0  0  0
    7.4826  -19.1821   20.3209 N   0  0  0  0  0  0  0  0  0  0  0  0
    9.1735  -18.3875   21.7920 C   0  0  0  0  0  0  0  0  0  0  0  0
    8.7783  -19.2881   22.5680 O   0  0  0  0  0  0  0  0  0  0  0  0
    7.5977  -11.4211   18.2172 N   0  0  0  0  0  0  0  0  0  0  0  0
   15.1920  -20.2632   19.0005 C   0  0  0  0  0  0  0  0  0  0  0  0
   15.7964  -19.9165   20.2404 N   0  0  0  0  0  0  0  0  0  0  0  0
   17.0224  -19.5312   20.2761 N   0  0  0  0  0  0  0  0  0  0  0  0
   15.1007  -19.9723   21.4727 C   0  0  0  0  0  0  0  0  0  0  0  0
   13.6770  -19.7854   21.4884 C   0  0  0  0  0  0  0  0  0  0  0  0
   13.2556  -18.3677   21.5758 C   0  0  0  0  0  0  0  0  0  0  0  0
   12.6861  -17.9414   22.8794 C   0  0  2  0  0  0  0  0  0  0  0  0
   11.2596  -18.1947   23.1583 N   0  0  0  0  0  0  0  0  0  0  0  0
   10.4034  -17.7685   22.0375 C   0  0  0  0  0  0  0  0  0  0  0  0
   10.7122  -17.7073   24.4335 O   0  0  0  0  0  0  0  0  0  0  0  0
   10.9979  -16.5253   24.8384 C   0  0  0  0  0  0  0  0  0  0  0  0
   17.4508  -19.3363   21.2032 C   0  0  2  0  0  0  0  0  0  0  0  0
    7.3431  -17.0181   25.7009 O   0  0  0  0  0  0  0  0  0  0  0  0
    7.9533  -17.9943   26.6834 C   0  0  1  0  0  0  0  0  0  0  0  0
    7.5271  -19.2963   26.4180 N   0  0  0  0  0  0  0  0  0  0  0  0
    9.4792  -17.9258   26.6162 C   0  0  0  0  0  0  0  0  0  0  0  0
    9.8606  -18.4399   25.2998 O   0  0  0  0  0  0  0  0  0  0  0  0
   10.0979  -18.6477   27.7302 O   0  0  0  0  0  0  0  0  0  0  0  0
  2  3  2  0
  2  1  1  0
  4  2  1  0
  5  4  1  0
  6  5  1  0
  7  6  1  0
  8  7  1  0
  8  9  1  1
 10  8  1  0
 11 10  2  0
 13 12  1  0
 14 13  2  0
 15 13  1  0
 16 15  1  0
 17 16  1  0
 17 18  1  0
 19 18  1  6
 19 21  1  0
 19 20  1  0
 20 10  1  0
 21 22  2  0
 24 23  1  6
 24 26  1  0
 25 24  1  0
 26 28  1  0
 26 27  1  6
 27 21  1  0
 28 29  2  0
 28 30  1  0
M  END
$$$$
