RRT.pdb
     RDKit          3D

 30 29  0  0  1  0  0  0  0  0999 V2000
    9.3715  -15.4760   15.9078 N   0  0  0  0  0  0  0  0  0  0  0  0
    8.3557  -14.5360   15.5525 C   0  0  0  0  0  0  0  0  0  0  0  0
    8.2398  -14.1052   14.3466 N   0  0  0  0  0  0  0  0  0  0  0  0
    7.4437  -14.0497   16.5191 N   0  0  0  0  0  0  0  0  0  0  0  0
    7.9200  -13.3109   17.6447 C   0  0  0  0  0  0  0  0  0  0  0  0
    9.0945  -13.9042   18.3278 C   0  0  0  0  0  0  0  0  0  0  0  0
    8.7950  -14.1308   19.7826 C   0  0  0  0  0  0  0  0  0  0  0  0
    8.6554  -15.5724   20.1098 C   0  0  2  0  0  0  0  0  0  0  0  0
    7.8664  -16.2237   19.0957 N   0  0  0  0  0  0  0  0  0  0  0  0
    8.0006  -15.7968   21.4311 C   0  0  0  0  0  0  0  0  0  0  0  0
    6.7484  -15.7839   21.4648 O   0  0  0  0  0  0  0  0  0  0  0  0
    7.5088  -13.4169   14.1110 N   0  0  0  0  0  0  0  0  0  0  0  0
    8.6183  -21.6581   28.1693 C   0  0  0  0  0  0  0  0  0  0  0  0
    7.4005  -20.9460   27.9890 N   0  0  0  0  0  0  0  0  0  0  0  0
    6.2776  -21.5043   28.2725 N   0  0  0  0  0  0  0  0  0  0  0  0
    7.3563  -19.6169   27.5020 C   0  0  0  0  0  0  0  0  0  0  0  0
    7.8954  -19.3227   26.2040 C   0  0  0  0  0  0  0  0  0  0  0  0
    7.6775  -17.9251   25.7629 C   0  0  0  0  0  0  0  0  0  0  0  0
    8.2110  -17.5798   24.4206 C   0  0  1  0  0  0  0  0  0  0  0  0
    8.0123  -16.2149   23.8970 N   0  0  0  0  0  0  0  0  0  0  0  0
    8.7114  -16.0181   22.6150 C   0  0  0  0  0  0  0  0  0  0  0  0
    8.2781  -15.0867   24.8024 O   0  0  0  0  0  0  0  0  0  0  0  0
    9.4863  -14.7855   25.1061 C   0  0  0  0  0  0  0  0  0  0  0  0
    5.4051  -20.9575   28.1277 C   0  0  2  0  0  0  0  0  0  0  0  0
    5.2165  -13.0581   26.8489 O   0  0  0  0  0  0  0  0  0  0  0  0
    6.4363  -12.2678   26.4267 C   0  0  1  0  0  0  0  0  0  0  0  0
    6.6947  -11.2354   27.3292 N   0  0  0  0  0  0  0  0  0  0  0  0
    7.6536  -13.1879   26.3311 C   0  0  0  0  0  0  0  0  0  0  0  0
    7.2936  -14.2578   25.3992 O   0  0  0  0  0  0  0  0  0  0  0  0
    8.0646  -13.6722   27.6506 O   0  0  0  0  0  0  0  0  0  0  0  0
  2  3  2  0
  2  1  1  0
  4  2  1  0
  5  4  1  0
  6  5  1  0
  7  6  1  0
  8  7  1  0
  8  9  1  6
 10  8  1  0
 11 10  2  0
 13 12  1  0
 14 13  2  0
 15 13  1  0
 16 15  1  0
 17 16  1  0
 17 18  1  0
 19 18  1  6
 19 21  1  0
 19 20  1  0
 20 10  1  0
 21 22  2  0
 24 23  1  1
 24 26  1  0
 25 24  1  0
 26 28  1  0
 26 27  1  6
 27 21  1  0
 28 29  2  0
 28 30  1  0
M  END
$$$$
