RRT.pdb
     RDKit          3D

 30 29  0  0  1  0  0  0  0  0999 V2000
    9.5682  -15.4885   16.0556 N   0  0  0  0  0  0  0  0  0  0  0  0
    8.9147  -14.2634   15.7186 C   0  0  0  0  0  0  0  0  0  0  0  0
    9.2945  -13.5616   14.7104 N   0  0  0  0  0  0  0  0  0  0  0  0
    7.8264  -13.7840   16.4857 N   0  0  0  0  0  0  0  0  0  0  0  0
    7.2832  -14.5849   17.5360 C   0  0  0  0  0  0  0  0  0  0  0  0
    7.2630  -13.9352   18.8685 C   0  0  0  0  0  0  0  0  0  0  0  0
    8.3353  -14.5120   19.7488 C   0  0  0  0  0  0  0  0  0  0  0  0
    7.9780  -15.8592   20.2607 C   0  0  2  0  0  0  0  0  0  0  0  0
    6.9149  -16.4132   19.4617 N   0  0  0  0  0  0  0  0  0  0  0  0
    7.5301  -15.8288   21.6832 C   0  0  0  0  0  0  0  0  0  0  0  0
    6.4776  -15.2015   21.9441 O   0  0  0  0  0  0  0  0  0  0  0  0
    8.8202  -12.6727   14.4905 N   0  0  0  0  0  0  0  0  0  0  0  0
   10.6485  -19.2798   27.8565 C   0  0  0  0  0  0  0  0  0  0  0  0
    9.4668  -19.6580   28.5518 N   0  0  0  0  0  0  0  0  0  0  0  0
    9.5434  -20.3938   29.6033 N   0  0  0  0  0  0  0  0  0  0  0  0
    8.1737  -19.2552   28.1382 C   0  0  0  0  0  0  0  0  0  0  0  0
    7.8296  -19.3094   26.7451 C   0  0  0  0  0  0  0  0  0  0  0  0
    7.5051  -17.9910   26.1520 C   0  0  0  0  0  0  0  0  0  0  0  0
    7.9184  -17.7981   24.7387 C   0  0  1  0  0  0  0  0  0  0  0  0
    7.6744  -16.4960   24.0894 N   0  0  0  0  0  0  0  0  0  0  0  0
    8.2217  -16.4603   22.7218 C   0  0  0  0  0  0  0  0  0  0  0  0
    8.0554  -15.2802   24.8242 O   0  0  0  0  0  0  0  0  0  0  0  0
    9.2551  -14.8365   24.7416 C   0  0  0  0  0  0  0  0  0  0  0  0
    8.6593  -20.6830   30.0677 C   0  0  2  0  0  0  0  0  0  0  0  0
    6.4745  -11.5641   25.3793 O   0  0  0  0  0  0  0  0  0  0  0  0
    6.5706  -12.4129   26.6286 C   0  0  2  0  0  0  0  0  0  0  0  0
    5.3685  -13.0797   26.8685 N   0  0  0  0  0  0  0  0  0  0  0  0
    7.7061  -13.4275   26.4908 C   0  0  0  0  0  0  0  0  0  0  0  0
    7.1954  -14.5108   25.6492 O   0  0  0  0  0  0  0  0  0  0  0  0
    8.1853  -13.8769   27.7997 O   0  0  0  0  0  0  0  0  0  0  0  0
  2  3  2  0
  2  1  1  0
  4  2  1  0
  5  4  1  0
  6  5  1  0
  7  6  1  0
  8  7  1  0
  8  9  1  6
 10  8  1  0
 11 10  2  0
 13 12  1  0
 14 13  2  0
 15 13  1  0
 16 15  1  0
 17 16  1  0
 17 18  1  0
 19 18  1  6
 19 21  1  0
 19 20  1  0
 20 10  1  0
 21 22  2  0
 24 23  1  6
 24 26  1  0
 25 24  1  0
 26 28  1  0
 26 27  1  6
 27 21  1  0
 28 29  2  0
 28 30  1  0
M  END
$$$$
