RRT.pdb
     RDKit          3D

 30 29  0  0  1  0  0  0  0  0999 V2000
   10.2060  -12.9824   17.4659 N   0  0  0  0  0  0  0  0  0  0  0  0
    8.8534  -13.3443   17.7511 C   0  0  0  0  0  0  0  0  0  0  0  0
    7.8933  -13.0022   16.9673 N   0  0  0  0  0  0  0  0  0  0  0  0
    8.5285  -14.0926   18.9076 N   0  0  0  0  0  0  0  0  0  0  0  0
    8.3255  -15.5031   18.8137 C   0  0  0  0  0  0  0  0  0  0  0  0
    7.0097  -15.9774   19.3054 C   0  0  0  0  0  0  0  0  0  0  0  0
    6.9870  -15.9941   20.8077 C   0  0  0  0  0  0  0  0  0  0  0  0
    7.3233  -17.3306   21.3601 C   0  0  2  0  0  0  0  0  0  0  0  0
    6.3019  -18.2770   20.9908 N   0  0  0  0  0  0  0  0  0  0  0  0
    7.4393  -17.3207   22.8472 C   0  0  0  0  0  0  0  0  0  0  0  0
    6.3774  -17.3720   23.5098 O   0  0  0  0  0  0  0  0  0  0  0  0
    6.9200  -13.2484   17.2033 N   0  0  0  0  0  0  0  0  0  0  0  0
   12.4548  -18.9708   30.8996 C   0  0  0  0  0  0  0  0  0  0  0  0
   12.2266  -19.0915   29.5010 N   0  0  0  0  0  0  0  0  0  0  0  0
   13.2131  -19.0374   28.6784 N   0  0  0  0  0  0  0  0  0  0  0  0
   10.9351  -19.2753   28.9496 C   0  0  0  0  0  0  0  0  0  0  0  0
   10.7689  -19.2650   27.5233 C   0  0  0  0  0  0  0  0  0  0  0  0
    9.7918  -18.2630   27.0370 C   0  0  0  0  0  0  0  0  0  0  0  0
    9.6015  -18.2064   25.5652 C   0  0  1  0  0  0  0  0  0  0  0  0
    8.7146  -17.1751   24.9939 N   0  0  0  0  0  0  0  0  0  0  0  0
    8.6618  -17.2584   23.5237 C   0  0  0  0  0  0  0  0  0  0  0  0
    8.9180  -15.7820   25.4197 O   0  0  0  0  0  0  0  0  0  0  0  0
    9.9334  -15.1275   24.9915 C   0  0  0  0  0  0  0  0  0  0  0  0
   13.0186  -19.1740   27.6662 C   0  0  2  0  0  0  0  0  0  0  0  0
    6.0177  -13.5137   27.4265 O   0  0  0  0  0  0  0  0  0  0  0  0
    7.1325  -12.8714   26.6295 C   0  0  1  0  0  0  0  0  0  0  0  0
    7.3746  -11.5713   27.0748 N   0  0  0  0  0  0  0  0  0  0  0  0
    8.4100  -13.7036   26.7442 C   0  0  0  0  0  0  0  0  0  0  0  0
    8.0687  -15.0531   26.2913 O   0  0  0  0  0  0  0  0  0  0  0  0
    8.9576  -13.6608   28.1017 O   0  0  0  0  0  0  0  0  0  0  0  0
  2  3  2  0
  2  1  1  0
  4  2  1  0
  5  4  1  0
  6  5  1  0
  7  6  1  0
  8  7  1  0
  8  9  1  1
 10  8  1  0
 11 10  2  0
 13 12  1  0
 14 13  2  0
 15 13  1  0
 16 15  1  0
 17 16  1  0
 17 18  1  0
 19 18  1  1
 19 21  1  0
 19 20  1  0
 20 10  1  0
 21 22  2  0
 24 23  1  1
 24 26  1  0
 25 24  1  0
 26 28  1  0
 26 27  1  6
 27 21  1  0
 28 29  2  0
 28 30  1  0
M  END
$$$$
