RRT.pdb
     RDKit          3D

 30 29  0  0  1  0  0  0  0  0999 V2000
    8.5931  -15.8513   16.6674 N   0  0  0  0  0  0  0  0  0  0  0  0
    8.5865  -14.5496   16.0781 C   0  0  0  0  0  0  0  0  0  0  0  0
    8.4785  -14.3952   14.8062 N   0  0  0  0  0  0  0  0  0  0  0  0
    8.6983  -13.3877   16.8783 N   0  0  0  0  0  0  0  0  0  0  0  0
    8.7476  -13.5006   18.3011 C   0  0  0  0  0  0  0  0  0  0  0  0
    7.4855  -13.1547   18.9979 C   0  0  0  0  0  0  0  0  0  0  0  0
    7.5423  -13.5942   20.4336 C   0  0  0  0  0  0  0  0  0  0  0  0
    7.9028  -15.0282   20.5685 C   0  0  2  0  0  0  0  0  0  0  0  0
    6.9653  -15.8338   19.8285 N   0  0  0  0  0  0  0  0  0  0  0  0
    7.8986  -15.4866   21.9880 C   0  0  0  0  0  0  0  0  0  0  0  0
    6.8162  -15.4154   22.6147 O   0  0  0  0  0  0  0  0  0  0  0  0
    8.5154  -13.4503   14.3947 N   0  0  0  0  0  0  0  0  0  0  0  0
   11.7655  -20.5953   21.4228 C   0  0  0  0  0  0  0  0  0  0  0  0
   12.2853  -20.2777   22.7080 N   0  0  0  0  0  0  0  0  0  0  0  0
   13.5553  -20.2707   22.9075 N   0  0  0  0  0  0  0  0  0  0  0  0
   11.4564  -19.9578   23.8108 C   0  0  0  0  0  0  0  0  0  0  0  0
   10.0354  -20.1317   23.6993 C   0  0  0  0  0  0  0  0  0  0  0  0
    9.2943  -18.8794   23.4204 C   0  0  0  0  0  0  0  0  0  0  0  0
    9.6760  -17.7046   24.2448 C   0  0  2  0  0  0  0  0  0  0  0  0
    8.9691  -16.4252   24.0443 N   0  0  0  0  0  0  0  0  0  0  0  0
    9.0312  -15.9851   22.6395 C   0  0  0  0  0  0  0  0  0  0  0  0
    9.2995  -15.3098   24.9444 O   0  0  0  0  0  0  0  0  0  0  0  0
   10.3115  -14.5655   24.6903 C   0  0  0  0  0  0  0  0  0  0  0  0
   13.9021  -20.0764   23.8683 C   0  0  2  0  0  0  0  0  0  0  0  0
    7.6576  -12.1067   25.9938 O   0  0  0  0  0  0  0  0  0  0  0  0
    7.8791  -12.9504   27.2306 C   0  0  1  0  0  0  0  0  0  0  0  0
    6.7324  -13.6814   27.5438 N   0  0  0  0  0  0  0  0  0  0  0  0
    9.0564  -13.9021   27.0159 C   0  0  0  0  0  0  0  0  0  0  0  0
    8.5817  -14.9536   26.1149 O   0  0  0  0  0  0  0  0  0  0  0  0
    9.5749  -14.4091   28.2883 O   0  0  0  0  0  0  0  0  0  0  0  0
  2  3  2  0
  2  1  1  0
  4  2  1  0
  5  4  1  0
  6  5  1  0
  7  6  1  0
  8  7  1  0
  8  9  1  6
 10  8  1  0
 11 10  2  0
 13 12  1  0
 14 13  2  0
 15 13  1  0
 16 15  1  0
 17 16  1  0
 17 18  1  0
 19 18  1  6
 19 21  1  0
 19 20  1  0
 20 10  1  0
 21 22  2  0
 24 23  1  6
 24 26  1  0
 25 24  1  0
 26 28  1  0
 26 27  1  6
 27 21  1  0
 28 29  2  0
 28 30  1  0
M  END
$$$$
