RRT.pdb
     RDKit          3D

 30 29  0  0  1  0  0  0  0  0999 V2000
   12.8919  -22.2770   13.2268 N   0  0  0  0  0  0  0  0  0  0  0  0
   13.6577  -21.0707   13.2124 C   0  0  0  0  0  0  0  0  0  0  0  0
   14.4631  -20.8050   12.2460 N   0  0  0  0  0  0  0  0  0  0  0  0
   13.5525  -20.1291   14.2636 N   0  0  0  0  0  0  0  0  0  0  0  0
   12.7073  -20.3977   15.3830 C   0  0  0  0  0  0  0  0  0  0  0  0
   11.2569  -20.4236   15.0769 C   0  0  0  0  0  0  0  0  0  0  0  0
   10.4604  -20.6403   16.3323 C   0  0  0  0  0  0  0  0  0  0  0  0
    9.3384  -19.6762   16.4596 C   0  0  2  0  0  0  0  0  0  0  0  0
    9.1121  -19.0284   15.1930 N   0  0  0  0  0  0  0  0  0  0  0  0
    9.6027  -18.6252   17.4845 C   0  0  0  0  0  0  0  0  0  0  0  0
   10.4731  -17.7645   17.2182 O   0  0  0  0  0  0  0  0  0  0  0  0
   15.0231  -19.9391   12.2623 N   0  0  0  0  0  0  0  0  0  0  0  0
    8.2626  -12.4509   20.0463 C   0  0  0  0  0  0  0  0  0  0  0  0
    7.7290  -12.4968   21.3639 N   0  0  0  0  0  0  0  0  0  0  0  0
    7.9700  -11.5435   22.1921 N   0  0  0  0  0  0  0  0  0  0  0  0
    6.9220  -13.5651   21.8257 C   0  0  0  0  0  0  0  0  0  0  0  0
    6.7860  -14.7460   21.0201 C   0  0  0  0  0  0  0  0  0  0  0  0
    8.0685  -15.4277   20.7273 C   0  0  0  0  0  0  0  0  0  0  0  0
    7.9762  -16.6429   19.8787 C   0  0  2  0  0  0  0  0  0  0  0  0
    9.1851  -17.4591   19.6575 N   0  0  0  0  0  0  0  0  0  0  0  0
    8.9319  -18.5586   18.7099 C   0  0  0  0  0  0  0  0  0  0  0  0
    9.9020  -17.9590   20.8405 O   0  0  0  0  0  0  0  0  0  0  0  0
    9.3658  -18.8623   21.5749 C   0  0  0  0  0  0  0  0  0  0  0  0
    7.5888  -11.6205   23.1564 C   0  0  2  0  0  0  0  0  0  0  0  0
   13.5025  -19.1633   20.9932 O   0  0  0  0  0  0  0  0  0  0  0  0
   13.3021  -18.2187   22.1586 C   0  0  2  0  0  0  0  0  0  0  0  0
   13.8453  -16.9641   21.8787 N   0  0  0  0  0  0  0  0  0  0  0  0
   11.8126  -18.0786   22.4738 C   0  0  0  0  0  0  0  0  0  0  0  0
   11.1833  -17.5293   21.2717 O   0  0  0  0  0  0  0  0  0  0  0  0
   11.5924  -17.2687   23.6739 O   0  0  0  0  0  0  0  0  0  0  0  0
  2  3  2  0
  2  1  1  0
  4  2  1  0
  5  4  1  0
  6  5  1  0
  7  6  1  0
  8  7  1  0
  8  9  1  6
 10  8  1  0
 11 10  2  0
 13 12  1  0
 14 13  2  0
 15 13  1  0
 16 15  1  0
 17 16  1  0
 17 18  1  0
 19 18  1  6
 19 21  1  0
 19 20  1  0
 20 10  1  0
 21 22  2  0
 24 23  1  6
 24 26  1  0
 25 24  1  0
 26 28  1  0
 26 27  1  6
 27 21  1  0
 28 29  2  0
 28 30  1  0
M  END
$$$$
