RRT.pdb
     RDKit          3D

 30 29  0  0  1  0  0  0  0  0999 V2000
    7.2710  -14.1055   13.8682 N   0  0  0  0  0  0  0  0  0  0  0  0
    8.3693  -14.9667   13.5621 C   0  0  0  0  0  0  0  0  0  0  0  0
    8.7756  -15.1230   12.3522 N   0  0  0  0  0  0  0  0  0  0  0  0
    9.0454  -15.6753   14.5836 N   0  0  0  0  0  0  0  0  0  0  0  0
    8.6302  -15.5406   15.9434 C   0  0  0  0  0  0  0  0  0  0  0  0
    9.3813  -16.3768   16.9102 C   0  0  0  0  0  0  0  0  0  0  0  0
    8.8399  -16.1863   18.2988 C   0  0  0  0  0  0  0  0  0  0  0  0
    9.4822  -15.0466   19.0011 C   0  0  2  0  0  0  0  0  0  0  0  0
   10.8301  -14.8807   18.5204 N   0  0  0  0  0  0  0  0  0  0  0  0
    9.5310  -15.2416   20.4791 C   0  0  0  0  0  0  0  0  0  0  0  0
   10.6314  -15.5644   20.9832 O   0  0  0  0  0  0  0  0  0  0  0  0
    9.6236  -15.6772   12.1586 N   0  0  0  0  0  0  0  0  0  0  0  0
    5.9474  -10.3340   26.6464 C   0  0  0  0  0  0  0  0  0  0  0  0
    6.2589  -11.5140   27.3767 N   0  0  0  0  0  0  0  0  0  0  0  0
    5.9793  -11.5913   28.6292 N   0  0  0  0  0  0  0  0  0  0  0  0
    6.8761  -12.6413   26.7819 C   0  0  0  0  0  0  0  0  0  0  0  0
    6.8823  -12.7698   25.3517 C   0  0  0  0  0  0  0  0  0  0  0  0
    7.4339  -14.0555   24.8638 C   0  0  0  0  0  0  0  0  0  0  0  0
    7.4638  -14.2285   23.3891 C   0  0  1  0  0  0  0  0  0  0  0  0
    8.5753  -14.9802   22.7757 N   0  0  0  0  0  0  0  0  0  0  0  0
    8.4204  -15.0816   21.3139 C   0  0  0  0  0  0  0  0  0  0  0  0
    8.9137  -16.2930   23.3460 O   0  0  0  0  0  0  0  0  0  0  0  0
    8.0655  -17.2518   23.2832 C   0  0  0  0  0  0  0  0  0  0  0  0
    6.2812  -12.4390   29.1500 C   0  0  2  0  0  0  0  0  0  0  0  0
   11.7636  -18.6257   22.7329 O   0  0  0  0  0  0  0  0  0  0  0  0
   11.7139  -18.4143   24.2307 C   0  0  2  0  0  0  0  0  0  0  0  0
   12.6866  -17.4990   24.6346 N   0  0  0  0  0  0  0  0  0  0  0  0
   10.3299  -17.9157   24.6473 C   0  0  0  0  0  0  0  0  0  0  0  0
   10.1362  -16.6251   23.9843 O   0  0  0  0  0  0  0  0  0  0  0  0
   10.1990  -17.8525   26.1046 O   0  0  0  0  0  0  0  0  0  0  0  0
  2  3  2  0
  2  1  1  0
  4  2  1  0
  5  4  1  0
  6  5  1  0
  7  6  1  0
  8  7  1  0
  8  9  1  6
 10  8  1  0
 11 10  2  0
 13 12  1  0
 14 13  2  0
 15 13  1  0
 16 15  1  0
 17 16  1  0
 17 18  1  0
 19 18  1  6
 19 21  1  0
 19 20  1  0
 20 10  1  0
 21 22  2  0
 24 23  1  6
 24 26  1  0
 25 24  1  0
 26 28  1  0
 26 27  1  6
 27 21  1  0
 28 29  2  0
 28 30  1  0
M  END
$$$$
