RRT.pdb
     RDKit          3D

 30 29  0  0  1  0  0  0  0  0999 V2000
    7.6947  -13.0485   17.2717 N   0  0  0  0  0  0  0  0  0  0  0  0
    7.7128  -12.5515   18.6112 C   0  0  0  0  0  0  0  0  0  0  0  0
    8.3121  -11.4527   18.9056 N   0  0  0  0  0  0  0  0  0  0  0  0
    7.0696  -13.2550   19.6573 N   0  0  0  0  0  0  0  0  0  0  0  0
    6.9059  -14.6712   19.5726 C   0  0  0  0  0  0  0  0  0  0  0  0
    7.8648  -15.3567   18.6733 C   0  0  0  0  0  0  0  0  0  0  0  0
    9.1000  -15.7549   19.4304 C   0  0  0  0  0  0  0  0  0  0  0  0
   10.0853  -16.4566   18.5693 C   0  0  2  0  0  0  0  0  0  0  0  0
    9.5635  -17.7443   18.1886 N   0  0  0  0  0  0  0  0  0  0  0  0
   11.3950  -16.6635   19.2526 C   0  0  0  0  0  0  0  0  0  0  0  0
   11.6254  -17.7993   19.7282 O   0  0  0  0  0  0  0  0  0  0  0  0
    8.3300  -11.1183   19.8810 N   0  0  0  0  0  0  0  0  0  0  0  0
   18.5402  -12.3083   17.3847 C   0  0  0  0  0  0  0  0  0  0  0  0
   17.4051  -13.1641   17.4287 N   0  0  0  0  0  0  0  0  0  0  0  0
   16.3581  -12.8846   16.7370 N   0  0  0  0  0  0  0  0  0  0  0  0
   17.3649  -14.3419   18.2140 C   0  0  0  0  0  0  0  0  0  0  0  0
   17.0886  -14.2436   19.6198 C   0  0  0  0  0  0  0  0  0  0  0  0
   16.0837  -15.2175   20.1067 C   0  0  0  0  0  0  0  0  0  0  0  0
   14.6841  -14.9737   19.6741 C   0  0  2  0  0  0  0  0  0  0  0  0
   13.6273  -15.9132   20.0951 N   0  0  0  0  0  0  0  0  0  0  0  0
   12.3621  -15.6617   19.3830 C   0  0  0  0  0  0  0  0  0  0  0  0
   13.3802  -16.0676   21.5368 O   0  0  0  0  0  0  0  0  0  0  0  0
   13.4317  -15.0426   22.3045 C   0  0  0  0  0  0  0  0  0  0  0  0
   15.5430  -13.5275   16.7952 C   0  0  2  0  0  0  0  0  0  0  0  0
   10.4065  -17.1958   23.3904 O   0  0  0  0  0  0  0  0  0  0  0  0
   11.5504  -18.0582   23.8788 C   0  0  1  0  0  0  0  0  0  0  0  0
   11.5536  -19.2924   23.2277 N   0  0  0  0  0  0  0  0  0  0  0  0
   12.8837  -17.3471   23.6459 C   0  0  0  0  0  0  0  0  0  0  0  0
   13.0742  -17.2859   22.1959 O   0  0  0  0  0  0  0  0  0  0  0  0
   13.9781  -18.0145   24.3542 O   0  0  0  0  0  0  0  0  0  0  0  0
  2  3  2  0
  2  1  1  0
  4  2  1  0
  5  4  1  0
  6  5  1  0
  7  6  1  0
  8  7  1  0
  8  9  1  1
 10  8  1  0
 11 10  2  0
 13 12  1  0
 14 13  2  0
 15 13  1  0
 16 15  1  0
 17 16  1  0
 17 18  1  0
 19 18  1  6
 19 21  1  0
 19 20  1  0
 20 10  1  0
 21 22  2  0
 24 23  1  6
 24 26  1  0
 25 24  1  0
 26 28  1  0
 26 27  1  1
 27 21  1  0
 28 29  2  0
 28 30  1  0
M  END
$$$$
