RRT.pdb
     RDKit          3D

 30 29  0  0  1  0  0  0  0  0999 V2000
    9.5188  -14.3963   17.6070 N   0  0  0  0  0  0  0  0  0  0  0  0
    8.2535  -13.9265   18.0761 C   0  0  0  0  0  0  0  0  0  0  0  0
    7.5923  -13.0347   17.4273 N   0  0  0  0  0  0  0  0  0  0  0  0
    7.6879  -14.4297   19.2716 N   0  0  0  0  0  0  0  0  0  0  0  0
    8.3581  -15.4567   20.0036 C   0  0  0  0  0  0  0  0  0  0  0  0
    8.7072  -16.6603   19.2113 C   0  0  0  0  0  0  0  0  0  0  0  0
   10.1410  -17.0436   19.4454 C   0  0  0  0  0  0  0  0  0  0  0  0
   10.2952  -17.9646   20.5998 C   0  0  2  0  0  0  0  0  0  0  0  0
    9.2901  -18.9946   20.5337 N   0  0  0  0  0  0  0  0  0  0  0  0
   10.1648  -17.2640   21.9101 C   0  0  0  0  0  0  0  0  0  0  0  0
   10.9224  -16.2890   22.1218 O   0  0  0  0  0  0  0  0  0  0  0  0
    6.6907  -12.6917   17.7921 N   0  0  0  0  0  0  0  0  0  0  0  0
    7.2473  -13.6577   22.0992 C   0  0  0  0  0  0  0  0  0  0  0  0
    7.3403  -12.6959   23.1429 N   0  0  0  0  0  0  0  0  0  0  0  0
    7.0009  -11.4747   22.9282 N   0  0  0  0  0  0  0  0  0  0  0  0
    7.7977  -13.0201   24.4434 C   0  0  0  0  0  0  0  0  0  0  0  0
    7.0542  -13.9551   25.2403 C   0  0  0  0  0  0  0  0  0  0  0  0
    7.7536  -15.2405   25.4718 C   0  0  0  0  0  0  0  0  0  0  0  0
    7.9623  -16.0888   24.2708 C   0  0  2  0  0  0  0  0  0  0  0  0
    9.1756  -16.9236   24.1820 N   0  0  0  0  0  0  0  0  0  0  0  0
    9.2482  -17.6408   22.8969 C   0  0  0  0  0  0  0  0  0  0  0  0
    9.4609  -17.8408   25.2958 O   0  0  0  0  0  0  0  0  0  0  0  0
    8.4961  -18.4397   25.8901 C   0  0  0  0  0  0  0  0  0  0  0  0
    7.0429  -10.8047   23.7222 C   0  0  2  0  0  0  0  0  0  0  0  0
   11.9895  -20.7243   25.2409 O   0  0  0  0  0  0  0  0  0  0  0  0
   12.2098  -19.9173   26.5022 C   0  0  1  0  0  0  0  0  0  0  0  0
   13.2763  -19.0314   26.3439 N   0  0  0  0  0  0  0  0  0  0  0  0
   10.9419  -19.1415   26.8601 C   0  0  0  0  0  0  0  0  0  0  0  0
   10.7499  -18.1483   25.8021 O   0  0  0  0  0  0  0  0  0  0  0  0
   11.0294  -18.5608   28.2017 O   0  0  0  0  0  0  0  0  0  0  0  0
  2  3  2  0
  2  1  1  0
  4  2  1  0
  5  4  1  0
  6  5  1  0
  7  6  1  0
  8  7  1  0
  8  9  1  6
 10  8  1  0
 11 10  2  0
 13 12  1  0
 14 13  2  0
 15 13  1  0
 16 15  1  0
 17 16  1  0
 17 18  1  0
 19 18  1  6
 19 21  1  0
 19 20  1  0
 20 10  1  0
 21 22  2  0
 24 23  1  6
 24 26  1  0
 25 24  1  0
 26 28  1  0
 26 27  1  6
 27 21  1  0
 28 29  2  0
 28 30  1  0
M  END
$$$$
