RRT.pdb
     RDKit          3D

 30 29  0  0  1  0  0  0  0  0999 V2000
    9.4974  -18.6921   18.9510 N   0  0  0  0  0  0  0  0  0  0  0  0
   10.1779  -18.2484   17.7755 C   0  0  0  0  0  0  0  0  0  0  0  0
   11.4528  -18.3681   17.6591 N   0  0  0  0  0  0  0  0  0  0  0  0
    9.4677  -17.6627   16.7007 N   0  0  0  0  0  0  0  0  0  0  0  0
    8.0567  -17.4651   16.7984 C   0  0  0  0  0  0  0  0  0  0  0  0
    7.6409  -16.3914   17.7324 C   0  0  0  0  0  0  0  0  0  0  0  0
    8.0515  -15.0472   17.2013 C   0  0  0  0  0  0  0  0  0  0  0  0
    7.5672  -13.9335   18.0556 C   0  0  2  0  0  0  0  0  0  0  0  0
    8.0410  -12.6792   17.5287 N   0  0  0  0  0  0  0  0  0  0  0  0
    8.0306  -14.0549   19.4682 C   0  0  0  0  0  0  0  0  0  0  0  0
    9.2566  -13.9199   19.6877 O   0  0  0  0  0  0  0  0  0  0  0  0
   11.9182  -18.1104   16.7756 N   0  0  0  0  0  0  0  0  0  0  0  0
    5.5017  -11.6795   27.0583 C   0  0  0  0  0  0  0  0  0  0  0  0
    6.7365  -12.2931   27.4066 N   0  0  0  0  0  0  0  0  0  0  0  0
    7.1441  -12.2783   28.6258 N   0  0  0  0  0  0  0  0  0  0  0  0
    7.5642  -12.9398   26.4567 C   0  0  0  0  0  0  0  0  0  0  0  0
    7.3091  -12.7539   25.0558 C   0  0  0  0  0  0  0  0  0  0  0  0
    6.9314  -13.9957   24.3414 C   0  0  0  0  0  0  0  0  0  0  0  0
    6.6742  -13.8519   22.8858 C   0  0  1  0  0  0  0  0  0  0  0  0
    7.6744  -14.3562   21.9255 N   0  0  0  0  0  0  0  0  0  0  0  0
    7.1706  -14.3081   20.5417 C   0  0  0  0  0  0  0  0  0  0  0  0
    8.2916  -15.6628   22.1995 O   0  0  0  0  0  0  0  0  0  0  0  0
    7.6073  -16.7351   22.0429 C   0  0  0  0  0  0  0  0  0  0  0  0
    8.0472  -12.7428   28.8491 C   0  0  2  0  0  0  0  0  0  0  0  0
   11.4248  -17.4251   21.0910 O   0  0  0  0  0  0  0  0  0  0  0  0
   11.4669  -17.4060   22.6037 C   0  0  2  0  0  0  0  0  0  0  0  0
   12.3402  -16.4191   23.0627 N   0  0  0  0  0  0  0  0  0  0  0  0
   10.0670  -17.1606   23.1673 C   0  0  0  0  0  0  0  0  0  0  0  0
    9.6254  -15.8702   22.6356 O   0  0  0  0  0  0  0  0  0  0  0  0
   10.0589  -17.2265   24.6303 O   0  0  0  0  0  0  0  0  0  0  0  0
  2  3  2  0
  2  1  1  0
  4  2  1  0
  5  4  1  0
  6  5  1  0
  7  6  1  0
  8  7  1  0
  8  9  1  6
 10  8  1  0
 11 10  2  0
 13 12  1  0
 14 13  2  0
 15 13  1  0
 16 15  1  0
 17 16  1  0
 17 18  1  0
 19 18  1  6
 19 21  1  0
 19 20  1  0
 20 10  1  0
 21 22  2  0
 24 23  1  6
 24 26  1  0
 25 24  1  0
 26 28  1  0
 26 27  1  6
 27 21  1  0
 28 29  2  0
 28 30  1  0
M  END
$$$$
