RRT.pdb
     RDKit          3D

 30 29  0  0  1  0  0  0  0  0999 V2000
    7.7934  -12.0290   18.6301 N   0  0  0  0  0  0  0  0  0  0  0  0
    8.3934  -13.0686   17.8550 C   0  0  0  0  0  0  0  0  0  0  0  0
    8.0002  -13.3168   16.6562 N   0  0  0  0  0  0  0  0  0  0  0  0
    9.4417  -13.8585   18.3841 N   0  0  0  0  0  0  0  0  0  0  0  0
    9.2487  -15.2583   18.5911 C   0  0  0  0  0  0  0  0  0  0  0  0
    7.8538  -15.6565   18.8976 C   0  0  0  0  0  0  0  0  0  0  0  0
    7.6301  -15.6796   20.3832 C   0  0  0  0  0  0  0  0  0  0  0  0
    8.6621  -16.4756   21.0946 C   0  0  2  0  0  0  0  0  0  0  0  0
    8.6370  -17.8349   20.6183 N   0  0  0  0  0  0  0  0  0  0  0  0
    8.4530  -16.4911   22.5715 C   0  0  0  0  0  0  0  0  0  0  0  0
    7.3901  -15.9934   23.0097 O   0  0  0  0  0  0  0  0  0  0  0  0
    8.4005  -14.1111   16.1343 N   0  0  0  0  0  0  0  0  0  0  0  0
   12.0781  -21.0786   29.3522 C   0  0  0  0  0  0  0  0  0  0  0  0
   11.5104  -19.9176   29.9461 N   0  0  0  0  0  0  0  0  0  0  0  0
   11.6875  -19.6794   31.1970 N   0  0  0  0  0  0  0  0  0  0  0  0
   10.7402  -18.9821   29.2132 C   0  0  0  0  0  0  0  0  0  0  0  0
   10.7386  -19.0394   27.7783 C   0  0  0  0  0  0  0  0  0  0  0  0
    9.9270  -17.9809   27.1332 C   0  0  0  0  0  0  0  0  0  0  0  0
    9.8961  -18.0040   25.6486 C   0  0  1  0  0  0  0  0  0  0  0  0
    9.1504  -16.9542   24.9284 N   0  0  0  0  0  0  0  0  0  0  0  0
    9.3760  -17.0287   23.4742 C   0  0  0  0  0  0  0  0  0  0  0  0
    9.2916  -15.5673   25.3970 O   0  0  0  0  0  0  0  0  0  0  0  0
   10.3668  -14.9168   25.1449 C   0  0  0  0  0  0  0  0  0  0  0  0
   11.2637  -18.8196   31.5996 C   0  0  2  0  0  0  0  0  0  0  0  0
    7.4266  -12.2097   24.9378 O   0  0  0  0  0  0  0  0  0  0  0  0
    7.4020  -12.6393   26.3888 C   0  0  2  0  0  0  0  0  0  0  0  0
    6.2251  -13.3295   26.6815 N   0  0  0  0  0  0  0  0  0  0  0  0
    8.6105  -13.5235   26.6976 C   0  0  0  0  0  0  0  0  0  0  0  0
    8.3179  -14.8403   26.1290 O   0  0  0  0  0  0  0  0  0  0  0  0
    8.8991  -13.5548   28.1330 O   0  0  0  0  0  0  0  0  0  0  0  0
  2  3  2  0
  2  1  1  0
  4  2  1  0
  5  4  1  0
  6  5  1  0
  7  6  1  0
  8  7  1  0
  8  9  1  6
 10  8  1  0
 11 10  2  0
 13 12  1  0
 14 13  2  0
 15 13  1  0
 16 15  1  0
 17 16  1  0
 17 18  1  0
 19 18  1  6
 19 21  1  0
 19 20  1  0
 20 10  1  0
 21 22  2  0
 24 23  1  6
 24 26  1  0
 25 24  1  0
 26 28  1  0
 26 27  1  6
 27 21  1  0
 28 29  2  0
 28 30  1  0
M  END
$$$$
