LVT.pdb
     RDKit          3D

 23 22  0  0  1  0  0  0  0  0999 V2000
    5.0013  -16.2790   20.2832 C   0  0  0  0  0  0  0  0  0  0  0  0
    6.2698  -17.0814   20.4062 C   0  0  2  0  0  0  0  0  0  0  0  0
    5.9818  -18.5663   20.5664 C   0  0  0  0  0  0  0  0  0  0  0  0
    7.0856  -16.6620   21.6132 C   0  0  0  0  0  0  0  0  0  0  0  0
    7.3617  -15.1800   21.6384 C   0  0  2  0  0  0  0  0  0  0  0  0
    8.1242  -14.8500   20.4536 N   0  0  0  0  0  0  0  0  0  0  0  0
    8.0726  -14.7518   22.8577 C   0  0  0  0  0  0  0  0  0  0  0  0
    9.3270  -14.8335   22.8831 O   0  0  0  0  0  0  0  0  0  0  0  0
    7.9354  -12.2067   27.1013 C   0  0  0  0  0  0  0  0  0  0  0  0
    7.3666  -12.7906   25.8630 C   0  0  2  0  0  0  0  0  0  0  0  0
    5.9533  -13.2885   26.1907 C   0  0  0  0  0  0  0  0  0  0  0  0
    8.1708  -13.8587   25.1881 C   0  0  2  0  0  0  0  0  0  0  0  0
    7.3959  -14.2529   23.9993 N   0  0  0  0  0  0  0  0  0  0  0  0
    8.4500  -15.0434   26.0189 C   0  0  0  0  0  0  0  0  0  0  0  0
    7.5137  -15.8725   26.2824 O   0  0  0  0  0  0  0  0  0  0  0  0
   10.4499  -17.8045   25.1726 C   0  0  0  0  0  0  0  0  0  0  0  0
   10.9175  -17.4837   26.5573 C   0  0  1  0  0  0  0  0  0  0  0  0
   12.1595  -16.8332   26.4194 O   0  0  0  0  0  0  0  0  0  0  0  0
    9.9499  -16.5881   27.3019 C   0  0  2  0  0  0  0  0  0  0  0  0
    9.7181  -15.3478   26.5658 N   0  0  0  0  0  0  0  0  0  0  0  0
   10.3737  -16.3263   28.6862 C   0  0  0  0  0  0  0  0  0  0  0  0
   10.4877  -17.3141   29.6484 O   0  0  0  0  0  0  0  0  0  0  0  0
   10.6487  -15.1480   29.0231 O   0  0  0  0  0  0  0  0  0  0  0  0
  2  1  1  1
  2  3  1  0
  2  4  1  0
  4  5  1  0
  5  6  1  6
  7  8  2  0
  7  5  1  0
 10  9  1  1
 10 11  1  0
 10 12  1  0
 12 13  1  6
 12 14  1  0
 13  7  1  0
 14 20  1  0
 15 14  2  0
 17 16  1  6
 17 18  1  0
 19 21  1  0
 19 17  1  0
 19 20  1  6
 21 22  1  0
 23 21  2  0
M  END
$$$$
