LVT.pdb
     RDKit          3D

 23 22  0  0  1  0  0  0  0  0999 V2000
    8.0638  -12.6256   27.6348 C   0  0  0  0  0  0  0  0  0  0  0  0
    7.2514  -13.1438   26.4773 C   0  0  2  0  0  0  0  0  0  0  0  0
    6.1546  -12.1679   26.0795 C   0  0  0  0  0  0  0  0  0  0  0  0
    6.5687  -14.4553   26.8122 C   0  0  0  0  0  0  0  0  0  0  0  0
    5.9920  -15.1346   25.5959 C   0  0  2  0  0  0  0  0  0  0  0  0
    5.1728  -16.2376   26.0496 N   0  0  0  0  0  0  0  0  0  0  0  0
    7.0290  -15.6009   24.6565 C   0  0  0  0  0  0  0  0  0  0  0  0
    7.6667  -16.6480   24.9353 O   0  0  0  0  0  0  0  0  0  0  0  0
    8.6043  -13.2976   21.3097 C   0  0  0  0  0  0  0  0  0  0  0  0
    8.1412  -14.7041   21.2369 C   0  0  2  0  0  0  0  0  0  0  0  0
    6.6954  -14.6913   20.7247 C   0  0  0  0  0  0  0  0  0  0  0  0
    8.2627  -15.5211   22.4863 C   0  0  2  0  0  0  0  0  0  0  0  0
    7.3327  -14.9143   23.4538 N   0  0  0  0  0  0  0  0  0  0  0  0
    9.6181  -15.5764   23.0620 C   0  0  0  0  0  0  0  0  0  0  0  0
   10.0609  -14.5920   23.7464 O   0  0  0  0  0  0  0  0  0  0  0  0
   11.3630  -17.4283   25.7538 C   0  0  0  0  0  0  0  0  0  0  0  0
   12.0792  -17.7114   24.4708 C   0  0  1  0  0  0  0  0  0  0  0  0
   11.5732  -18.9360   23.9920 O   0  0  0  0  0  0  0  0  0  0  0  0
   11.8624  -16.6277   23.4358 C   0  0  2  0  0  0  0  0  0  0  0  0
   10.4988  -16.6728   22.9137 N   0  0  0  0  0  0  0  0  0  0  0  0
   12.8590  -16.6720   22.3544 C   0  0  0  0  0  0  0  0  0  0  0  0
   14.1884  -16.3301   22.5283 O   0  0  0  0  0  0  0  0  0  0  0  0
   12.4948  -17.0377   21.2094 O   0  0  0  0  0  0  0  0  0  0  0  0
  2  1  1  1
  2  3  1  0
  2  4  1  0
  4  5  1  0
  5  6  1  1
  7  8  2  0
  7  5  1  0
 10  9  1  1
 10 11  1  0
 10 12  1  0
 12 13  1  1
 12 14  1  0
 13  7  1  0
 14 20  1  0
 15 14  2  0
 17 16  1  1
 17 18  1  0
 19 21  1  0
 19 17  1  0
 19 20  1  6
 21 22  1  0
 23 21  2  0
M  END
$$$$
