LVT.pdb
     RDKit          3D

 23 22  0  0  1  0  0  0  0  0999 V2000
    9.6938  -13.4998   19.4421 C   0  0  0  0  0  0  0  0  0  0  0  0
    8.3389  -13.5564   18.7868 C   0  0  2  0  0  0  0  0  0  0  0  0
    7.7903  -12.1650   18.5100 C   0  0  0  0  0  0  0  0  0  0  0  0
    7.3206  -14.2615   19.6611 C   0  0  0  0  0  0  0  0  0  0  0  0
    7.8342  -15.5694   20.2078 C   0  0  2  0  0  0  0  0  0  0  0  0
    7.4878  -16.6114   19.2655 N   0  0  0  0  0  0  0  0  0  0  0  0
    7.3034  -15.8756   21.5495 C   0  0  0  0  0  0  0  0  0  0  0  0
    6.2237  -16.5136   21.6384 O   0  0  0  0  0  0  0  0  0  0  0  0
    6.8958  -18.2448   23.0079 C   0  0  0  0  0  0  0  0  0  0  0  0
    7.7224  -17.4846   23.9759 C   0  0  2  0  0  0  0  0  0  0  0  0
    7.5307  -18.1269   25.3556 C   0  0  0  0  0  0  0  0  0  0  0  0
    7.5031  -16.0043   24.0358 C   0  0  2  0  0  0  0  0  0  0  0  0
    7.9637  -15.4783   22.7396 N   0  0  0  0  0  0  0  0  0  0  0  0
    8.2063  -15.3168   25.1333 C   0  0  0  0  0  0  0  0  0  0  0  0
    9.4831  -15.2605   25.1362 O   0  0  0  0  0  0  0  0  0  0  0  0
    6.9950  -11.7640   26.4764 C   0  0  0  0  0  0  0  0  0  0  0  0
    7.3980  -12.6693   27.5976 C   0  0  1  0  0  0  0  0  0  0  0  0
    6.2060  -13.1838   28.1445 O   0  0  0  0  0  0  0  0  0  0  0  0
    8.2817  -13.8077   27.1329 C   0  0  2  0  0  0  0  0  0  0  0  0
    7.5568  -14.6899   26.2219 N   0  0  0  0  0  0  0  0  0  0  0  0
    8.8763  -14.5543   28.2526 C   0  0  0  0  0  0  0  0  0  0  0  0
    9.7388  -13.9876   29.1742 O   0  0  0  0  0  0  0  0  0  0  0  0
    8.5932  -15.7704   28.3883 O   0  0  0  0  0  0  0  0  0  0  0  0
  2  1  1  1
  2  3  1  0
  2  4  1  0
  4  5  1  0
  5  6  1  6
  7  8  2  0
  7  5  1  0
 10  9  1  6
 10 11  1  0
 10 12  1  0
 12 13  1  6
 12 14  1  0
 13  7  1  0
 14 20  1  0
 15 14  2  0
 17 16  1  6
 17 18  1  0
 19 21  1  0
 19 17  1  0
 19 20  1  1
 21 22  1  0
 23 21  2  0
M  END
$$$$
