LVT.pdb
     RDKit          3D

 23 22  0  0  1  0  0  0  0  0999 V2000
    8.4821  -14.4187   18.9419 C   0  0  0  0  0  0  0  0  0  0  0  0
    7.6053  -13.4546   19.6967 C   0  0  2  0  0  0  0  0  0  0  0  0
    7.5078  -12.1118   18.9889 C   0  0  0  0  0  0  0  0  0  0  0  0
    8.1416  -13.1774   21.0873 C   0  0  0  0  0  0  0  0  0  0  0  0
    8.1743  -14.4123   21.9517 C   0  0  2  0  0  0  0  0  0  0  0  0
    6.8600  -15.0164   21.9130 N   0  0  0  0  0  0  0  0  0  0  0  0
    8.5816  -14.1272   23.3403 C   0  0  0  0  0  0  0  0  0  0  0  0
    9.7862  -13.8490   23.5691 O   0  0  0  0  0  0  0  0  0  0  0  0
    5.7201  -13.4765   26.4554 C   0  0  0  0  0  0  0  0  0  0  0  0
    7.0993  -12.9384   26.3756 C   0  0  2  0  0  0  0  0  0  0  0  0
    7.0332  -11.5997   25.6297 C   0  0  0  0  0  0  0  0  0  0  0  0
    8.1413  -13.8352   25.7814 C   0  0  2  0  0  0  0  0  0  0  0  0
    7.6678  -14.1549   24.4239 N   0  0  0  0  0  0  0  0  0  0  0  0
    8.3895  -15.0795   26.5308 C   0  0  0  0  0  0  0  0  0  0  0  0
    8.6598  -15.0290   27.7790 O   0  0  0  0  0  0  0  0  0  0  0  0
    6.2976  -18.4884   26.1010 C   0  0  0  0  0  0  0  0  0  0  0  0
    7.7701  -18.7415   26.1838 C   0  0  1  0  0  0  0  0  0  0  0  0
    8.2102  -18.9771   24.8664 O   0  0  0  0  0  0  0  0  0  0  0  0
    8.5262  -17.5702   26.7748 C   0  0  2  0  0  0  0  0  0  0  0  0
    8.3489  -16.3719   25.9583 N   0  0  0  0  0  0  0  0  0  0  0  0
    9.9494  -17.8704   26.9958 C   0  0  0  0  0  0  0  0  0  0  0  0
   10.3959  -18.8505   27.8644 O   0  0  0  0  0  0  0  0  0  0  0  0
   10.8129  -17.2082   26.3685 O   0  0  0  0  0  0  0  0  0  0  0  0
  2  1  1  6
  2  3  1  0
  2  4  1  0
  4  5  1  0
  5  6  1  1
  7  8  2  0
  7  5  1  0
 10  9  1  6
 10 11  1  0
 10 12  1  0
 12 13  1  6
 12 14  1  0
 13  7  1  0
 14 20  1  0
 15 14  2  0
 17 16  1  6
 17 18  1  0
 19 21  1  0
 19 17  1  0
 19 20  1  6
 21 22  1  0
 23 21  2  0
M  END
$$$$
