LVT.pdb
     RDKit          3D

 23 22  0  0  1  0  0  0  0  0999 V2000
    5.6263  -12.3949   26.3380 C   0  0  0  0  0  0  0  0  0  0  0  0
    6.6450  -13.0421   27.2389 C   0  0  2  0  0  0  0  0  0  0  0  0
    7.6770  -12.0391   27.7315 C   0  0  0  0  0  0  0  0  0  0  0  0
    7.4090  -14.1403   26.5257 C   0  0  0  0  0  0  0  0  0  0  0  0
    6.5223  -14.9847   25.6460 C   0  0  2  0  0  0  0  0  0  0  0  0
    5.8623  -15.9605   26.4863 N   0  0  0  0  0  0  0  0  0  0  0  0
    7.2625  -15.6451   24.5545 C   0  0  0  0  0  0  0  0  0  0  0  0
    7.5954  -16.8493   24.6955 O   0  0  0  0  0  0  0  0  0  0  0  0
    8.6880  -13.6082   20.9470 C   0  0  0  0  0  0  0  0  0  0  0  0
    7.9779  -14.9079   21.0156 C   0  0  2  0  0  0  0  0  0  0  0  0
    6.4841  -14.6330   20.8019 C   0  0  0  0  0  0  0  0  0  0  0  0
    8.2028  -15.7369   22.2425 C   0  0  2  0  0  0  0  0  0  0  0  0
    7.6118  -14.9744   23.3552 N   0  0  0  0  0  0  0  0  0  0  0  0
    9.6149  -16.0388   22.5370 C   0  0  0  0  0  0  0  0  0  0  0  0
   10.3502  -15.1599   23.1031 O   0  0  0  0  0  0  0  0  0  0  0  0
   11.1384  -18.8931   24.6587 C   0  0  0  0  0  0  0  0  0  0  0  0
   11.7550  -18.8777   23.2953 C   0  0  1  0  0  0  0  0  0  0  0  0
   11.0794  -19.8562   22.5397 O   0  0  0  0  0  0  0  0  0  0  0  0
   11.6281  -17.5294   22.6181 C   0  0  2  0  0  0  0  0  0  0  0  0
   10.2430  -17.2690   22.2339 N   0  0  0  0  0  0  0  0  0  0  0  0
   12.5445  -17.3824   21.4765 C   0  0  0  0  0  0  0  0  0  0  0  0
   13.9168  -17.2673   21.6103 O   0  0  0  0  0  0  0  0  0  0  0  0
   12.0667  -17.3587   20.3151 O   0  0  0  0  0  0  0  0  0  0  0  0
  2  1  1  6
  2  3  1  0
  2  4  1  0
  4  5  1  0
  5  6  1  1
  7  8  2  0
  7  5  1  0
 10  9  1  1
 10 11  1  0
 10 12  1  0
 12 13  1  1
 12 14  1  0
 13  7  1  0
 14 20  1  0
 15 14  2  0
 17 16  1  1
 17 18  1  0
 19 21  1  0
 19 17  1  0
 19 20  1  6
 21 22  1  0
 23 21  2  0
M  END
$$$$
