LVT.pdb
     RDKit          3D

 23 22  0  0  1  0  0  0  0  0999 V2000
    2.7130  -17.8495   20.7360 C   0  0  0  0  0  0  0  0  0  0  0  0
    3.7338  -18.9152   21.0364 C   0  0  2  0  0  0  0  0  0  0  0  0
    3.4462  -19.6119   22.3577 C   0  0  0  0  0  0  0  0  0  0  0  0
    5.1327  -18.3403   21.1413 C   0  0  0  0  0  0  0  0  0  0  0  0
    5.5234  -17.5431   19.9227 C   0  0  2  0  0  0  0  0  0  0  0  0
    5.5110  -18.4366   18.7846 N   0  0  0  0  0  0  0  0  0  0  0  0
    6.8383  -16.8900   20.0646 C   0  0  0  0  0  0  0  0  0  0  0  0
    7.8580  -17.4921   19.6423 O   0  0  0  0  0  0  0  0  0  0  0  0
    7.3807  -12.9480   21.8732 C   0  0  0  0  0  0  0  0  0  0  0  0
    8.1738  -13.5608   20.7807 C   0  0  2  0  0  0  0  0  0  0  0  0
    7.5549  -13.1139   19.4503 C   0  0  0  0  0  0  0  0  0  0  0  0
    8.3453  -15.0480   20.8224 C   0  0  2  0  0  0  0  0  0  0  0  0
    6.9947  -15.6118   20.6579 N   0  0  0  0  0  0  0  0  0  0  0  0
    8.9574  -15.5676   22.0581 C   0  0  0  0  0  0  0  0  0  0  0  0
    8.2922  -15.5644   23.1494 O   0  0  0  0  0  0  0  0  0  0  0  0
    9.4872  -18.7851   23.1626 C   0  0  0  0  0  0  0  0  0  0  0  0
   10.8446  -18.1695   23.2951 C   0  0  1  0  0  0  0  0  0  0  0  0
   11.5737  -18.5596   22.1545 O   0  0  0  0  0  0  0  0  0  0  0  0
   10.7892  -16.6584   23.3758 C   0  0  2  0  0  0  0  0  0  0  0  0
   10.2692  -16.0903   22.1345 N   0  0  0  0  0  0  0  0  0  0  0  0
   12.0842  -16.0648   23.7434 C   0  0  0  0  0  0  0  0  0  0  0  0
   12.6638  -16.2122   24.9911 O   0  0  0  0  0  0  0  0  0  0  0  0
   12.7046  -15.3864   22.8875 O   0  0  0  0  0  0  0  0  0  0  0  0
  2  1  1  1
  2  3  1  0
  2  4  1  0
  4  5  1  0
  5  6  1  6
  7  8  2  0
  7  5  1  0
 10  9  1  1
 10 11  1  0
 10 12  1  0
 12 13  1  1
 12 14  1  0
 13  7  1  0
 14 20  1  0
 15 14  2  0
 17 16  1  6
 17 18  1  0
 19 21  1  0
 19 17  1  0
 19 20  1  6
 21 22  1  0
 23 21  2  0
M  END
$$$$
