LVT.pdb
     RDKit          3D

 23 22  0  0  1  0  0  0  0  0999 V2000
    5.3169  -17.8353   21.0302 C   0  0  0  0  0  0  0  0  0  0  0  0
    6.7739  -18.1985   21.1462 C   0  0  2  0  0  0  0  0  0  0  0  0
    6.9636  -19.6870   21.3953 C   0  0  0  0  0  0  0  0  0  0  0  0
    7.4439  -17.4742   22.2973 C   0  0  0  0  0  0  0  0  0  0  0  0
    7.3225  -15.9754   22.1869 C   0  0  2  0  0  0  0  0  0  0  0  0
    7.8936  -15.5757   20.9189 N   0  0  0  0  0  0  0  0  0  0  0  0
    7.9732  -15.2657   23.3042 C   0  0  0  0  0  0  0  0  0  0  0  0
    9.2184  -15.0961   23.2658 O   0  0  0  0  0  0  0  0  0  0  0  0
    6.4102  -12.1247   25.3369 C   0  0  0  0  0  0  0  0  0  0  0  0
    6.9807  -13.2053   26.1765 C   0  0  2  0  0  0  0  0  0  0  0  0
    7.5751  -12.5538   27.4315 C   0  0  0  0  0  0  0  0  0  0  0  0
    7.9722  -14.1174   25.5222 C   0  0  2  0  0  0  0  0  0  0  0  0
    7.2488  -14.7688   24.4171 N   0  0  0  0  0  0  0  0  0  0  0  0
    8.5552  -15.1392   26.4097 C   0  0  0  0  0  0  0  0  0  0  0  0
    7.8342  -16.1092   26.8255 O   0  0  0  0  0  0  0  0  0  0  0  0
   12.2074  -17.9852   27.7851 C   0  0  0  0  0  0  0  0  0  0  0  0
   11.6477  -16.8409   27.0002 C   0  0  1  0  0  0  0  0  0  0  0  0
   11.2886  -17.3580   25.7398 O   0  0  0  0  0  0  0  0  0  0  0  0
   10.4358  -16.2216   27.6640 C   0  0  2  0  0  0  0  0  0  0  0  0
    9.8982  -15.1325   26.8524 N   0  0  0  0  0  0  0  0  0  0  0  0
   10.7077  -15.7871   29.0431 C   0  0  0  0  0  0  0  0  0  0  0  0
   10.7940  -16.6589   30.1141 O   0  0  0  0  0  0  0  0  0  0  0  0
   10.8716  -14.5630   29.2716 O   0  0  0  0  0  0  0  0  0  0  0  0
  2  1  1  1
  2  3  1  0
  2  4  1  0
  4  5  1  0
  5  6  1  6
  7  8  2  0
  7  5  1  0
 10  9  1  6
 10 11  1  0
 10 12  1  0
 12 13  1  6
 12 14  1  0
 13  7  1  0
 14 20  1  0
 15 14  2  0
 17 16  1  1
 17 18  1  0
 19 21  1  0
 19 17  1  0
 19 20  1  6
 21 22  1  0
 23 21  2  0
M  END
$$$$
