LVT.pdb
     RDKit          3D

 23 22  0  0  1  0  0  0  0  0999 V2000
    5.4628  -21.0935   25.6359 C   0  0  0  0  0  0  0  0  0  0  0  0
    5.3041  -20.7435   24.1797 C   0  0  2  0  0  0  0  0  0  0  0  0
    5.1431  -21.9864   23.3177 C   0  0  0  0  0  0  0  0  0  0  0  0
    6.5101  -19.9955   23.6466 C   0  0  0  0  0  0  0  0  0  0  0  0
    6.1610  -19.0722   22.5068 C   0  0  2  0  0  0  0  0  0  0  0  0
    5.7900  -19.8889   21.3713 N   0  0  0  0  0  0  0  0  0  0  0  0
    7.2613  -18.1543   22.1575 C   0  0  0  0  0  0  0  0  0  0  0  0
    8.1687  -18.5665   21.3911 O   0  0  0  0  0  0  0  0  0  0  0  0
    7.3808  -13.9374   23.3372 C   0  0  0  0  0  0  0  0  0  0  0  0
    7.8863  -14.5899   22.1056 C   0  0  2  0  0  0  0  0  0  0  0  0
    6.7521  -14.5752   21.0731 C   0  0  0  0  0  0  0  0  0  0  0  0
    8.4598  -15.9652   22.2561 C   0  0  2  0  0  0  0  0  0  0  0  0
    7.3338  -16.8276   22.6526 N   0  0  0  0  0  0  0  0  0  0  0  0
    9.5487  -16.0788   23.2427 C   0  0  0  0  0  0  0  0  0  0  0  0
    9.3212  -15.8282   24.4751 O   0  0  0  0  0  0  0  0  0  0  0  0
   10.9742  -18.7002   24.9560 C   0  0  0  0  0  0  0  0  0  0  0  0
   12.1422  -18.0569   24.2772 C   0  0  1  0  0  0  0  0  0  0  0  0
   12.3579  -18.7761   23.0850 O   0  0  0  0  0  0  0  0  0  0  0  0
   11.8941  -16.5978   23.9575 C   0  0  2  0  0  0  0  0  0  0  0  0
   10.8726  -16.4588   22.9226 N   0  0  0  0  0  0  0  0  0  0  0  0
   13.1281  -15.8799   23.6017 C   0  0  0  0  0  0  0  0  0  0  0  0
   14.1478  -15.6242   24.5013 O   0  0  0  0  0  0  0  0  0  0  0  0
   13.2738  -15.4732   22.4223 O   0  0  0  0  0  0  0  0  0  0  0  0
  2  1  1  1
  2  3  1  0
  2  4  1  0
  4  5  1  0
  5  6  1  6
  7  8  2  0
  7  5  1  0
 10  9  1  1
 10 11  1  0
 10 12  1  0
 12 13  1  1
 12 14  1  0
 13  7  1  0
 14 20  1  0
 15 14  2  0
 17 16  1  6
 17 18  1  0
 19 21  1  0
 19 17  1  0
 19 20  1  6
 21 22  1  0
 23 21  2  0
M  END
$$$$
