LVT.pdb
     RDKit          3D

 23 22  0  0  1  0  0  0  0  0999 V2000
    7.6969  -12.7943   25.3215 C   0  0  0  0  0  0  0  0  0  0  0  0
    6.2544  -12.7636   25.7534 C   0  0  2  0  0  0  0  0  0  0  0  0
    6.0129  -11.7173   26.8307 C   0  0  0  0  0  0  0  0  0  0  0  0
    5.8116  -14.0941   26.3296 C   0  0  0  0  0  0  0  0  0  0  0  0
    5.7715  -15.1887   25.2936 C   0  0  2  0  0  0  0  0  0  0  0  0
    5.0152  -16.2931   25.8432 N   0  0  0  0  0  0  0  0  0  0  0  0
    7.1156  -15.6283   24.8746 C   0  0  0  0  0  0  0  0  0  0  0  0
    7.7532  -16.4118   25.6232 O   0  0  0  0  0  0  0  0  0  0  0  0
    8.0518  -15.7058   20.8309 C   0  0  0  0  0  0  0  0  0  0  0  0
    9.1443  -15.3941   21.7835 C   0  0  2  0  0  0  0  0  0  0  0  0
   10.4464  -15.9527   21.1960 C   0  0  0  0  0  0  0  0  0  0  0  0
    8.9554  -15.8446   23.1993 C   0  0  2  0  0  0  0  0  0  0  0  0
    7.7140  -15.2015   23.6621 N   0  0  0  0  0  0  0  0  0  0  0  0
   10.0634  -15.5076   24.1107 C   0  0  0  0  0  0  0  0  0  0  0  0
   10.6123  -14.3551   24.0483 O   0  0  0  0  0  0  0  0  0  0  0  0
    9.8909  -15.9607   27.9073 C   0  0  0  0  0  0  0  0  0  0  0  0
   10.9232  -15.1603   27.1773 C   0  0  1  0  0  0  0  0  0  0  0  0
   11.8915  -14.7910   28.1316 O   0  0  0  0  0  0  0  0  0  0  0  0
   11.5784  -15.9434   26.0591 C   0  0  2  0  0  0  0  0  0  0  0  0
   10.5849  -16.3894   25.0854 N   0  0  0  0  0  0  0  0  0  0  0  0
   12.3921  -17.0640   26.5560 C   0  0  0  0  0  0  0  0  0  0  0  0
   13.5291  -16.8976   27.3267 O   0  0  0  0  0  0  0  0  0  0  0  0
   12.0458  -18.2372   26.2713 O   0  0  0  0  0  0  0  0  0  0  0  0
  2  1  1  1
  2  3  1  0
  2  4  1  0
  4  5  1  0
  5  6  1  1
  7  8  2  0
  7  5  1  0
 10  9  1  6
 10 11  1  0
 10 12  1  0
 12 13  1  1
 12 14  1  0
 13  7  1  0
 14 20  1  0
 15 14  2  0
 17 16  1  1
 17 18  1  0
 19 21  1  0
 19 17  1  0
 19 20  1  6
 21 22  1  0
 23 21  2  0
M  END
$$$$
