LVT.pdb
     RDKit          3D

 23 22  0  0  1  0  0  0  0  0999 V2000
    5.4814  -16.5838   20.1937 C   0  0  0  0  0  0  0  0  0  0  0  0
    6.8312  -17.2322   20.3538 C   0  0  2  0  0  0  0  0  0  0  0  0
    6.7185  -18.7455   20.4590 C   0  0  0  0  0  0  0  0  0  0  0  0
    7.5372  -16.7585   21.6090 C   0  0  0  0  0  0  0  0  0  0  0  0
    7.5848  -15.2551   21.7137 C   0  0  2  0  0  0  0  0  0  0  0  0
    8.3623  -14.7567   20.5997 N   0  0  0  0  0  0  0  0  0  0  0  0
    8.1444  -14.7891   22.9962 C   0  0  0  0  0  0  0  0  0  0  0  0
    9.3934  -14.7037   23.1123 O   0  0  0  0  0  0  0  0  0  0  0  0
    6.5625  -11.8823   25.3012 C   0  0  0  0  0  0  0  0  0  0  0  0
    6.9585  -13.1112   26.0299 C   0  0  2  0  0  0  0  0  0  0  0  0
    7.4422  -12.6897   27.4231 C   0  0  0  0  0  0  0  0  0  0  0  0
    7.9584  -14.0020   25.3593 C   0  0  2  0  0  0  0  0  0  0  0  0
    7.3285  -14.4347   24.1003 N   0  0  0  0  0  0  0  0  0  0  0  0
    8.3659  -15.1798   26.1456 C   0  0  0  0  0  0  0  0  0  0  0  0
    7.5016  -16.0677   26.4586 O   0  0  0  0  0  0  0  0  0  0  0  0
   10.5683  -17.7971   25.1798 C   0  0  0  0  0  0  0  0  0  0  0  0
   11.0426  -17.4540   26.5568 C   0  0  1  0  0  0  0  0  0  0  0  0
   12.2348  -16.7203   26.3981 O   0  0  0  0  0  0  0  0  0  0  0  0
   10.0329  -16.6304   27.3281 C   0  0  2  0  0  0  0  0  0  0  0  0
    9.6856  -15.4150   26.5960 N   0  0  0  0  0  0  0  0  0  0  0  0
   10.4774  -16.3302   28.6981 C   0  0  0  0  0  0  0  0  0  0  0  0
   10.6806  -17.3002   29.6636 O   0  0  0  0  0  0  0  0  0  0  0  0
   10.6862  -15.1339   29.0189 O   0  0  0  0  0  0  0  0  0  0  0  0
  2  1  1  1
  2  3  1  0
  2  4  1  0
  4  5  1  0
  5  6  1  6
  7  8  2  0
  7  5  1  0
 10  9  1  6
 10 11  1  0
 10 12  1  0
 12 13  1  6
 12 14  1  0
 13  7  1  0
 14 20  1  0
 15 14  2  0
 17 16  1  6
 17 18  1  0
 19 21  1  0
 19 17  1  0
 19 20  1  6
 21 22  1  0
 23 21  2  0
M  END
$$$$
