LVT.pdb
     RDKit          3D

 23 22  0  0  1  0  0  0  0  0999 V2000
    5.9302  -12.8285   26.0338 C   0  0  0  0  0  0  0  0  0  0  0  0
    6.6729  -13.4980   27.1600 C   0  0  2  0  0  0  0  0  0  0  0  0
    7.6959  -12.5657   27.7907 C   0  0  0  0  0  0  0  0  0  0  0  0
    7.4316  -14.7212   26.6842 C   0  0  0  0  0  0  0  0  0  0  0  0
    6.6159  -15.5822   25.7532 C   0  0  2  0  0  0  0  0  0  0  0  0
    6.2117  -16.7652   26.4819 N   0  0  0  0  0  0  0  0  0  0  0  0
    7.3458  -15.9451   24.5241 C   0  0  0  0  0  0  0  0  0  0  0  0
    7.8674  -17.0866   24.4487 O   0  0  0  0  0  0  0  0  0  0  0  0
    6.3691  -14.5515   20.8121 C   0  0  0  0  0  0  0  0  0  0  0  0
    7.8165  -14.5706   21.1330 C   0  0  2  0  0  0  0  0  0  0  0  0
    8.5755  -14.8834   19.8373 C   0  0  0  0  0  0  0  0  0  0  0  0
    8.2505  -15.4767   22.2437 C   0  0  2  0  0  0  0  0  0  0  0  0
    7.4808  -15.0571   23.4271 N   0  0  0  0  0  0  0  0  0  0  0  0
    9.6924  -15.4410   22.5460 C   0  0  0  0  0  0  0  0  0  0  0  0
   10.1501  -14.5768   23.3689 O   0  0  0  0  0  0  0  0  0  0  0  0
   11.0353  -15.9220   24.8309 C   0  0  0  0  0  0  0  0  0  0  0  0
   11.8416  -16.9001   24.0357 C   0  0  1  0  0  0  0  0  0  0  0  0
   11.1801  -18.1398   24.1372 O   0  0  0  0  0  0  0  0  0  0  0  0
   11.9629  -16.5017   22.5799 C   0  0  2  0  0  0  0  0  0  0  0  0
   10.6439  -16.3201   21.9790 N   0  0  0  0  0  0  0  0  0  0  0  0
   12.7877  -17.4412   21.8042 C   0  0  0  0  0  0  0  0  0  0  0  0
   12.2690  -18.3162   20.8662 O   0  0  0  0  0  0  0  0  0  0  0  0
   14.0289  -17.4585   21.9957 O   0  0  0  0  0  0  0  0  0  0  0  0
  2  1  1  6
  2  3  1  0
  2  4  1  0
  4  5  1  0
  5  6  1  1
  7  8  2  0
  7  5  1  0
 10  9  1  6
 10 11  1  0
 10 12  1  0
 12 13  1  1
 12 14  1  0
 13  7  1  0
 14 20  1  0
 15 14  2  0
 17 16  1  1
 17 18  1  0
 19 21  1  0
 19 17  1  0
 19 20  1  6
 21 22  1  0
 23 21  2  0
M  END
$$$$
