LVT.pdb
     RDKit          3D

 23 22  0  0  1  0  0  0  0  0999 V2000
    5.5444  -11.9806   26.5251 C   0  0  0  0  0  0  0  0  0  0  0  0
    6.5243  -12.8952   27.2120 C   0  0  2  0  0  0  0  0  0  0  0  0
    7.5663  -12.1137   27.9976 C   0  0  0  0  0  0  0  0  0  0  0  0
    7.2806  -13.7561   26.2195 C   0  0  0  0  0  0  0  0  0  0  0  0
    6.3647  -14.5999   25.3695 C   0  0  2  0  0  0  0  0  0  0  0  0
    5.6886  -15.5370   26.2404 N   0  0  0  0  0  0  0  0  0  0  0  0
    7.0777  -15.3062   24.2888 C   0  0  0  0  0  0  0  0  0  0  0  0
    7.3362  -16.5277   24.4362 O   0  0  0  0  0  0  0  0  0  0  0  0
    8.6924  -13.3175   20.7429 C   0  0  0  0  0  0  0  0  0  0  0  0
    8.0312  -14.6437   20.7885 C   0  0  2  0  0  0  0  0  0  0  0  0
    6.5513  -14.4371   20.4424 C   0  0  0  0  0  0  0  0  0  0  0  0
    8.1838  -15.4317   22.0529 C   0  0  2  0  0  0  0  0  0  0  0  0
    7.4815  -14.6606   23.0928 N   0  0  0  0  0  0  0  0  0  0  0  0
    9.5766  -15.6772   22.4668 C   0  0  0  0  0  0  0  0  0  0  0  0
   10.2324  -14.7627   23.0727 O   0  0  0  0  0  0  0  0  0  0  0  0
   11.1819  -18.2205   24.8304 C   0  0  0  0  0  0  0  0  0  0  0  0
   11.8183  -18.3261   23.4802 C   0  0  1  0  0  0  0  0  0  0  0  0
   11.1871  -19.4008   22.8234 O   0  0  0  0  0  0  0  0  0  0  0  0
   11.6571  -17.0609   22.6640 C   0  0  2  0  0  0  0  0  0  0  0  0
   10.2697  -16.8889   22.2404 N   0  0  0  0  0  0  0  0  0  0  0  0
   12.5838  -17.0032   21.5228 C   0  0  0  0  0  0  0  0  0  0  0  0
   13.9450  -16.7936   21.6559 O   0  0  0  0  0  0  0  0  0  0  0  0
   12.1261  -17.1503   20.3625 O   0  0  0  0  0  0  0  0  0  0  0  0
  2  1  1  6
  2  3  1  0
  2  4  1  0
  4  5  1  0
  5  6  1  1
  7  8  2  0
  7  5  1  0
 10  9  1  1
 10 11  1  0
 10 12  1  0
 12 13  1  1
 12 14  1  0
 13  7  1  0
 14 20  1  0
 15 14  2  0
 17 16  1  1
 17 18  1  0
 19 21  1  0
 19 17  1  0
 19 20  1  6
 21 22  1  0
 23 21  2  0
M  END
$$$$
