LVT.pdb
     RDKit          3D

 23 22  0  0  1  0  0  0  0  0999 V2000
    8.4382  -12.9410   27.3166 C   0  0  0  0  0  0  0  0  0  0  0  0
    7.4065  -13.5791   26.4240 C   0  0  2  0  0  0  0  0  0  0  0  0
    6.1724  -12.7024   26.2758 C   0  0  0  0  0  0  0  0  0  0  0  0
    6.9332  -14.9101   26.9742 C   0  0  0  0  0  0  0  0  0  0  0  0
    6.2771  -15.7701   25.9237 C   0  0  2  0  0  0  0  0  0  0  0  0
    5.8301  -16.9888   26.5630 N   0  0  0  0  0  0  0  0  0  0  0  0
    7.1713  -16.0683   24.7894 C   0  0  0  0  0  0  0  0  0  0  0  0
    7.7924  -17.1615   24.7839 O   0  0  0  0  0  0  0  0  0  0  0  0
    6.5930  -14.4700   20.9887 C   0  0  0  0  0  0  0  0  0  0  0  0
    7.9794  -14.5496   21.5081 C   0  0  2  0  0  0  0  0  0  0  0  0
    8.9114  -14.7780   20.3114 C   0  0  0  0  0  0  0  0  0  0  0  0
    8.2388  -15.5505   22.5915 C   0  0  2  0  0  0  0  0  0  0  0  0
    7.3562  -15.1707   23.7076 N   0  0  0  0  0  0  0  0  0  0  0  0
    9.6356  -15.6130   23.0570 C   0  0  0  0  0  0  0  0  0  0  0  0
   10.1552  -14.6080   23.6515 O   0  0  0  0  0  0  0  0  0  0  0  0
   11.5150  -17.7411   25.5861 C   0  0  0  0  0  0  0  0  0  0  0  0
   12.1674  -17.8834   24.2470 C   0  0  1  0  0  0  0  0  0  0  0  0
   11.6648  -19.0719   23.6814 O   0  0  0  0  0  0  0  0  0  0  0  0
   11.8701  -16.7146   23.3313 C   0  0  2  0  0  0  0  0  0  0  0  0
   10.4765  -16.7383   22.8941 N   0  0  0  0  0  0  0  0  0  0  0  0
   12.7956  -16.6418   22.1900 C   0  0  0  0  0  0  0  0  0  0  0  0
   14.0816  -16.1396   22.2820 O   0  0  0  0  0  0  0  0  0  0  0  0
   12.4083  -17.0540   21.0686 O   0  0  0  0  0  0  0  0  0  0  0  0
  2  1  1  1
  2  3  1  0
  2  4  1  0
  4  5  1  0
  5  6  1  1
  7  8  2  0
  7  5  1  0
 10  9  1  6
 10 11  1  0
 10 12  1  0
 12 13  1  1
 12 14  1  0
 13  7  1  0
 14 20  1  0
 15 14  2  0
 17 16  1  1
 17 18  1  0
 19 21  1  0
 19 17  1  0
 19 20  1  6
 21 22  1  0
 23 21  2  0
M  END
$$$$
