LVT.pdb
     RDKit          3D

 23 22  0  0  1  0  0  0  0  0999 V2000
    4.8799  -19.9744   22.2336 C   0  0  0  0  0  0  0  0  0  0  0  0
    6.1850  -20.2938   22.9140 C   0  0  2  0  0  0  0  0  0  0  0  0
    5.9706  -20.7879   24.3365 C   0  0  0  0  0  0  0  0  0  0  0  0
    7.0840  -19.0765   23.0054 C   0  0  0  0  0  0  0  0  0  0  0  0
    7.3114  -18.4232   21.6656 C   0  0  2  0  0  0  0  0  0  0  0  0
    7.9017  -19.4085   20.7855 N   0  0  0  0  0  0  0  0  0  0  0  0
    8.1601  -17.2202   21.7532 C   0  0  0  0  0  0  0  0  0  0  0  0
    9.4025  -17.3678   21.8770 O   0  0  0  0  0  0  0  0  0  0  0  0
    6.6337  -13.1120   21.4143 C   0  0  0  0  0  0  0  0  0  0  0  0
    7.9066  -13.6887   20.9189 C   0  0  2  0  0  0  0  0  0  0  0  0
    7.6644  -14.1900   19.4896 C   0  0  0  0  0  0  0  0  0  0  0  0
    8.5404  -14.7517   21.7623 C   0  0  2  0  0  0  0  0  0  0  0  0
    7.6286  -15.9067   21.7032 N   0  0  0  0  0  0  0  0  0  0  0  0
    8.7758  -14.3714   23.1665 C   0  0  0  0  0  0  0  0  0  0  0  0
    9.5965  -13.4316   23.4436 O   0  0  0  0  0  0  0  0  0  0  0  0
    6.8651  -12.6141   25.8103 C   0  0  0  0  0  0  0  0  0  0  0  0
    7.1870  -13.9918   26.2975 C   0  0  1  0  0  0  0  0  0  0  0  0
    6.0712  -14.7955   25.9905 O   0  0  0  0  0  0  0  0  0  0  0  0
    8.4261  -14.5630   25.6409 C   0  0  2  0  0  0  0  0  0  0  0  0
    8.1413  -14.9846   24.2715 N   0  0  0  0  0  0  0  0  0  0  0  0
    9.0327  -15.6483   26.4275 C   0  0  0  0  0  0  0  0  0  0  0  0
    9.4500  -15.4986   27.7382 O   0  0  0  0  0  0  0  0  0  0  0  0
    9.1847  -16.7737   25.8909 O   0  0  0  0  0  0  0  0  0  0  0  0
  2  1  1  1
  2  3  1  0
  2  4  1  0
  4  5  1  0
  5  6  1  6
  7  8  2  0
  7  5  1  0
 10  9  1  1
 10 11  1  0
 10 12  1  0
 12 13  1  1
 12 14  1  0
 13  7  1  0
 14 20  1  0
 15 14  2  0
 17 16  1  6
 17 18  1  0
 19 21  1  0
 19 17  1  0
 19 20  1  6
 21 22  1  0
 23 21  2  0
M  END
$$$$
