LWF.pdb
     RDKit          3D

 34 36  0  0  1  0  0  0  0  0999 V2000
    8.5526  -12.4298   17.6204 C   0  0  0  0  0  0  0  0  0  0  0  0
    8.2028  -13.7220   18.3064 C   0  0  2  0  0  0  0  0  0  0  0  0
    6.7040  -13.8875   18.3960 C   0  0  0  0  0  0  0  0  0  0  0  0
    8.9171  -13.9586   19.5788 C   0  0  0  0  0  0  0  0  0  0  0  0
    9.2316  -15.3646   19.9597 C   0  0  2  0  0  0  0  0  0  0  0  0
    8.1349  -16.2865   19.7557 N   0  0  0  0  0  0  0  0  0  0  0  0
    9.5206  -15.3304   21.4292 C   0  0  0  0  0  0  0  0  0  0  0  0
   10.3638  -14.5138   21.8813 O   0  0  0  0  0  0  0  0  0  0  0  0
    8.8643  -16.1924   22.3051 N   0  0  0  0  0  0  0  0  0  0  0  0
    9.0267  -16.0528   23.7770 C   0  0  1  0  0  0  0  0  0  0  0  0
    7.7803  -16.5132   24.4363 C   0  0  0  0  0  0  0  0  0  0  0  0
    6.9044  -15.5590   25.0769 C   0  0  0  0  0  0  0  0  0  0  0  0
    5.6795  -15.7311   25.7124 C   0  0  0  0  0  0  0  0  0  0  0  0
    5.2153  -14.5745   26.1700 N   0  0  0  0  0  0  0  0  0  0  0  0
    6.1080  -13.6446   25.8497 C   0  0  0  0  0  0  0  0  0  0  0  0
    6.0567  -12.2758   26.1438 C   0  0  0  0  0  0  0  0  0  0  0  0
    7.0760  -11.4369   25.7615 C   0  0  0  0  0  0  0  0  0  0  0  0
    8.1554  -11.9955   25.0744 C   0  0  0  0  0  0  0  0  0  0  0  0
    8.1905  -13.3609   24.7893 C   0  0  0  0  0  0  0  0  0  0  0  0
    7.1698  -14.2021   25.1726 C   0  0  0  0  0  0  0  0  0  0  0  0
   10.2886  -16.6598   24.2050 C   0  0  0  0  0  0  0  0  0  0  0  0
   10.7676  -17.6595   23.5626 O   0  0  0  0  0  0  0  0  0  0  0  0
   11.0385  -16.1995   25.3017 N   0  0  0  0  0  0  0  0  0  0  0  0
   12.3008  -16.8583   25.7014 C   0  0  1  0  0  0  0  0  0  0  0  0
   12.8741  -15.9153   26.7897 C   0  0  0  0  0  0  0  0  0  0  0  0
   11.8189  -15.5497   27.7556 C   0  0  0  0  0  0  0  0  0  0  0  0
   11.0166  -14.4303   27.5092 C   0  0  0  0  0  0  0  0  0  0  0  0
   10.0326  -14.1075   28.3930 C   0  0  0  0  0  0  0  0  0  0  0  0
    9.8153  -14.8640   29.5224 C   0  0  0  0  0  0  0  0  0  0  0  0
   10.6257  -15.9770   29.7509 C   0  0  0  0  0  0  0  0  0  0  0  0
   11.6283  -16.3255   28.8728 C   0  0  0  0  0  0  0  0  0  0  0  0
   12.0634  -18.1540   26.3259 C   0  0  0  0  0  0  0  0  0  0  0  0
   13.1353  -18.9509   26.6693 O   0  0  0  0  0  0  0  0  0  0  0  0
   10.8746  -18.5480   26.5504 O   0  0  0  0  0  0  0  0  0  0  0  0
  2  1  1  1
  2  3  1  0
  4  2  1  0
  5  4  1  0
  5  6  1  1
  7  9  1  0
  7  5  1  0
  8  7  2  0
 10 21  1  0
 10  9  1  0
 10 11  1  1
 12 11  1  0
 12 20  1  0
 13 12  2  0
 14 13  1  0
 14 15  1  0
 15 16  1  0
 15 20  2  0
 16 17  2  0
 17 18  1  0
 19 18  2  0
 20 19  1  0
 21 22  2  0
 23 24  1  0
 23 21  1  0
 24 25  1  1
 26 27  2  0
 26 25  1  0
 28 27  1  0
 29 28  2  0
 30 29  1  0
 30 31  2  0
 31 26  1  0
 32 24  1  0
 33 32  1  0
 34 32  2  0
M  END
$$$$
