LWF.pdb
     RDKit          3D

 34 36  0  0  1  0  0  0  0  0999 V2000
   11.8335  -20.8493   17.3797 C   0  0  0  0  0  0  0  0  0  0  0  0
   10.8324  -19.7808   17.0354 C   0  0  2  0  0  0  0  0  0  0  0  0
   11.1754  -19.1374   15.7124 C   0  0  0  0  0  0  0  0  0  0  0  0
   10.5554  -18.8202   18.1242 C   0  0  0  0  0  0  0  0  0  0  0  0
   10.3673  -19.3528   19.5032 C   0  0  2  0  0  0  0  0  0  0  0  0
    9.2174  -20.2199   19.6451 N   0  0  0  0  0  0  0  0  0  0  0  0
   10.1344  -18.1543   20.3713 C   0  0  0  0  0  0  0  0  0  0  0  0
   10.9725  -17.2163   20.3796 O   0  0  0  0  0  0  0  0  0  0  0  0
    8.9970  -18.0633   21.1708 N   0  0  0  0  0  0  0  0  0  0  0  0
    8.7853  -16.8940   22.0652 C   0  0  1  0  0  0  0  0  0  0  0  0
    7.4943  -16.2551   21.7111 C   0  0  0  0  0  0  0  0  0  0  0  0
    7.3787  -15.4789   20.4978 C   0  0  0  0  0  0  0  0  0  0  0  0
    7.0092  -15.8515   19.2101 C   0  0  0  0  0  0  0  0  0  0  0  0
    7.0324  -14.8087   18.3887 N   0  0  0  0  0  0  0  0  0  0  0  0
    7.4092  -13.7574   19.1078 C   0  0  0  0  0  0  0  0  0  0  0  0
    7.5560  -12.4342   18.6716 C   0  0  0  0  0  0  0  0  0  0  0  0
    7.9352  -11.4445   19.5467 C   0  0  0  0  0  0  0  0  0  0  0  0
    8.1669  -11.8046   20.8756 C   0  0  0  0  0  0  0  0  0  0  0  0
    8.0162  -13.1274   21.2932 C   0  0  0  0  0  0  0  0  0  0  0  0
    7.6359  -14.1193   20.4171 C   0  0  0  0  0  0  0  0  0  0  0  0
    8.9931  -17.2828   23.4615 C   0  0  0  0  0  0  0  0  0  0  0  0
    8.0167  -17.7487   24.1477 O   0  0  0  0  0  0  0  0  0  0  0  0
   10.2328  -17.1854   24.1179 N   0  0  0  0  0  0  0  0  0  0  0  0
   10.4946  -16.1240   25.1138 C   0  0  1  0  0  0  0  0  0  0  0  0
    9.4746  -16.4242   26.2417 C   0  0  0  0  0  0  0  0  0  0  0  0
    9.6605  -15.4808   27.3621 C   0  0  0  0  0  0  0  0  0  0  0  0
   10.3220  -15.9063   28.5191 C   0  0  0  0  0  0  0  0  0  0  0  0
   10.5076  -15.0278   29.5425 C   0  0  0  0  0  0  0  0  0  0  0  0
   10.0557  -13.7303   29.4564 C   0  0  0  0  0  0  0  0  0  0  0  0
    9.3982  -13.3244   28.2942 C   0  0  0  0  0  0  0  0  0  0  0  0
    9.1973  -14.1932   27.2442 C   0  0  0  0  0  0  0  0  0  0  0  0
   11.8293  -16.2362   25.6895 C   0  0  0  0  0  0  0  0  0  0  0  0
   12.5677  -17.3817   25.4786 O   0  0  0  0  0  0  0  0  0  0  0  0
   12.3085  -15.2841   26.3844 O   0  0  0  0  0  0  0  0  0  0  0  0
  2  1  1  1
  2  3  1  0
  4  2  1  0
  5  4  1  0
  5  6  1  6
  7  9  1  0
  7  5  1  0
  8  7  2  0
 10 21  1  0
 10  9  1  0
 10 11  1  1
 12 11  1  0
 12 20  1  0
 13 12  2  0
 14 13  1  0
 14 15  1  0
 15 16  1  0
 15 20  2  0
 16 17  2  0
 17 18  1  0
 19 18  2  0
 20 19  1  0
 21 22  2  0
 23 24  1  0
 23 21  1  0
 24 25  1  1
 26 27  2  0
 26 25  1  0
 28 27  1  0
 29 28  2  0
 30 29  1  0
 30 31  2  0
 31 26  1  0
 32 24  1  0
 33 32  1  0
 34 32  2  0
M  END
$$$$
