LWF.pdb
     RDKit          3D

 34 36  0  0  1  0  0  0  0  0999 V2000
    7.8756  -12.3112   18.1394 C   0  0  0  0  0  0  0  0  0  0  0  0
    7.7886  -13.6832   18.7498 C   0  0  2  0  0  0  0  0  0  0  0  0
    6.4143  -13.9206   19.3303 C   0  0  0  0  0  0  0  0  0  0  0  0
    8.9005  -14.0248   19.6620 C   0  0  0  0  0  0  0  0  0  0  0  0
    8.9858  -15.4203   20.1777 C   0  0  2  0  0  0  0  0  0  0  0  0
    7.7022  -16.0746   20.3137 N   0  0  0  0  0  0  0  0  0  0  0  0
    9.5795  -15.3093   21.5486 C   0  0  0  0  0  0  0  0  0  0  0  0
   10.6090  -14.6093   21.7289 O   0  0  0  0  0  0  0  0  0  0  0  0
    9.0035  -15.9713   22.6308 N   0  0  0  0  0  0  0  0  0  0  0  0
    9.6101  -15.8882   23.9862 C   0  0  1  0  0  0  0  0  0  0  0  0
    8.6112  -16.3498   24.9808 C   0  0  0  0  0  0  0  0  0  0  0  0
    7.4582  -15.5328   25.2826 C   0  0  0  0  0  0  0  0  0  0  0  0
    6.1408  -15.8829   25.5575 C   0  0  0  0  0  0  0  0  0  0  0  0
    5.4006  -14.8048   25.7864 N   0  0  0  0  0  0  0  0  0  0  0  0
    6.2022  -13.7523   25.6683 C   0  0  0  0  0  0  0  0  0  0  0  0
    5.8690  -12.4027   25.8427 C   0  0  0  0  0  0  0  0  0  0  0  0
    6.8215  -11.4212   25.7070 C   0  0  0  0  0  0  0  0  0  0  0  0
    8.1228  -11.8165   25.3912 C   0  0  0  0  0  0  0  0  0  0  0  0
    8.4375  -13.1651   25.2207 C   0  0  0  0  0  0  0  0  0  0  0  0
    7.4837  -14.1490   25.3571 C   0  0  0  0  0  0  0  0  0  0  0  0
   10.9248  -16.5329   23.9908 C   0  0  0  0  0  0  0  0  0  0  0  0
   11.1448  -17.5420   23.2327 O   0  0  0  0  0  0  0  0  0  0  0  0
   11.9987  -16.1000   24.7886 N   0  0  0  0  0  0  0  0  0  0  0  0
   12.4556  -16.8853   25.9555 C   0  0  1  0  0  0  0  0  0  0  0  0
   11.1373  -17.2628   26.6782 C   0  0  0  0  0  0  0  0  0  0  0  0
   10.7022  -16.1581   27.5559 C   0  0  0  0  0  0  0  0  0  0  0  0
    9.7044  -16.3873   28.5095 C   0  0  0  0  0  0  0  0  0  0  0  0
    9.3193  -15.3709   29.3292 C   0  0  0  0  0  0  0  0  0  0  0  0
    9.8953  -14.1242   29.2347 C   0  0  0  0  0  0  0  0  0  0  0  0
   10.8890  -13.9149   28.2773 C   0  0  0  0  0  0  0  0  0  0  0  0
   11.2972  -14.9260   27.4355 C   0  0  0  0  0  0  0  0  0  0  0  0
   13.1056  -18.1269   25.5541 C   0  0  0  0  0  0  0  0  0  0  0  0
   12.3744  -19.0994   24.9050 O   0  0  0  0  0  0  0  0  0  0  0  0
   14.3394  -18.3129   25.8035 O   0  0  0  0  0  0  0  0  0  0  0  0
  2  1  1  1
  2  3  1  0
  4  2  1  0
  5  4  1  0
  5  6  1  1
  7  9  1  0
  7  5  1  0
  8  7  2  0
 10 21  1  0
 10  9  1  0
 10 11  1  1
 12 11  1  0
 12 20  1  0
 13 12  2  0
 14 13  1  0
 14 15  1  0
 15 16  1  0
 15 20  2  0
 16 17  2  0
 17 18  1  0
 19 18  2  0
 20 19  1  0
 21 22  2  0
 23 24  1  0
 23 21  1  0
 24 25  1  1
 26 27  2  0
 26 25  1  0
 28 27  1  0
 29 28  2  0
 30 29  1  0
 30 31  2  0
 31 26  1  0
 32 24  1  0
 33 32  1  0
 34 32  2  0
M  END
$$$$
