LWF.pdb
     RDKit          3D

 34 36  0  0  1  0  0  0  0  0999 V2000
    2.1788  -51.8113  -12.8741 C   0  0  0  0  0  0  0  0  0  0  0  0
    1.4903  -50.4772  -12.7809 C   0  0  2  0  0  0  0  0  0  0  0  0
    0.0509  -50.5897  -13.2249 C   0  0  0  0  0  0  0  0  0  0  0  0
    2.2303  -49.3560  -13.3976 C   0  0  0  0  0  0  0  0  0  0  0  0
    3.6217  -49.0903  -12.9346 C   0  0  2  0  0  0  0  0  0  0  0  0
    4.5796  -48.9455  -14.0097 N   0  0  0  0  0  0  0  0  0  0  0  0
    4.0201  -50.2953  -12.1388 C   0  0  0  0  0  0  0  0  0  0  0  0
    4.5729  -50.1493  -11.0183 O   0  0  0  0  0  0  0  0  0  0  0  0
    3.7840  -51.5799  -12.6237 N   0  0  0  0  0  0  0  0  0  0  0  0
    3.0668  -52.5870  -11.7970 C   0  0  1  0  0  0  0  0  0  0  0  0
    3.5340  -53.9394  -12.1878 C   0  0  0  0  0  0  0  0  0  0  0  0
    4.6413  -54.0866  -13.1045 C   0  0  0  0  0  0  0  0  0  0  0  0
    5.3109  -53.1480  -13.8819 C   0  0  0  0  0  0  0  0  0  0  0  0
    6.2825  -53.7188  -14.5839 N   0  0  0  0  0  0  0  0  0  0  0  0
    6.2671  -55.0131  -14.2856 C   0  0  0  0  0  0  0  0  0  0  0  0
    7.1244  -56.0100  -14.7694 C   0  0  0  0  0  0  0  0  0  0  0  0
    6.9964  -57.3116  -14.3470 C   0  0  0  0  0  0  0  0  0  0  0  0
    5.9880  -57.6005  -13.4255 C   0  0  0  0  0  0  0  0  0  0  0  0
    5.1427  -56.5955  -12.9541 C   0  0  0  0  0  0  0  0  0  0  0  0
    5.2708  -55.2911  -13.3764 C   0  0  0  0  0  0  0  0  0  0  0  0
    3.1417  -52.2228  -10.3808 C   0  0  0  0  0  0  0  0  0  0  0  0
    4.1861  -51.6367   -9.9257 O   0  0  0  0  0  0  0  0  0  0  0  0
    2.1089  -52.4718   -9.4596 N   0  0  0  0  0  0  0  0  0  0  0  0
    2.0478  -53.7367   -8.6958 C   0  0  1  0  0  0  0  0  0  0  0  0
    2.8723  -53.4307   -7.4195 C   0  0  0  0  0  0  0  0  0  0  0  0
    2.5407  -52.0859   -6.9080 C   0  0  0  0  0  0  0  0  0  0  0  0
    3.4216  -51.0238   -7.1390 C   0  0  0  0  0  0  0  0  0  0  0  0
    3.1031  -49.7817   -6.6817 C   0  0  0  0  0  0  0  0  0  0  0  0
    1.9303  -49.5551   -5.9975 C   0  0  0  0  0  0  0  0  0  0  0  0
    1.0642  -50.6271   -5.7769 C   0  0  0  0  0  0  0  0  0  0  0  0
    1.3624  -51.8938   -6.2288 C   0  0  0  0  0  0  0  0  0  0  0  0
    0.6884  -54.0514   -8.2736 C   0  0  0  0  0  0  0  0  0  0  0  0
    0.1985  -55.3281   -8.4514 O   0  0  0  0  0  0  0  0  0  0  0  0
   -0.0422  -53.1527   -7.7466 O   0  0  0  0  0  0  0  0  0  0  0  0
  2  1  1  6
  2  3  1  0
  4  2  1  0
  5  4  1  0
  5  6  1  6
  7  9  1  0
  7  5  1  0
  8  7  2  0
 10 21  1  0
 10  9  1  0
 10 11  1  1
 12 11  1  0
 12 20  1  0
 13 12  2  0
 14 13  1  0
 14 15  1  0
 15 16  1  0
 15 20  2  0
 16 17  2  0
 17 18  1  0
 19 18  2  0
 20 19  1  0
 21 22  2  0
 23 24  1  0
 23 21  1  0
 24 25  1  1
 26 27  2  0
 26 25  1  0
 28 27  1  0
 29 28  2  0
 30 29  1  0
 30 31  2  0
 31 26  1  0
 32 24  1  0
 33 32  1  0
 34 32  2  0
M  END
$$$$
