LWF.pdb
     RDKit          3D

 34 36  0  0  1  0  0  0  0  0999 V2000
    8.7233  -14.4279   17.9280 C   0  0  0  0  0  0  0  0  0  0  0  0
    7.8894  -13.8979   19.0621 C   0  0  2  0  0  0  0  0  0  0  0  0
    7.4083  -12.4983   18.7593 C   0  0  0  0  0  0  0  0  0  0  0  0
    8.4962  -14.0551   20.4008 C   0  0  0  0  0  0  0  0  0  0  0  0
    8.9600  -15.4110   20.8097 C   0  0  2  0  0  0  0  0  0  0  0  0
    7.9184  -16.4157   20.7962 N   0  0  0  0  0  0  0  0  0  0  0  0
    9.4268  -15.2687   22.2260 C   0  0  0  0  0  0  0  0  0  0  0  0
   10.3096  -14.4191   22.5106 O   0  0  0  0  0  0  0  0  0  0  0  0
    8.8928  -16.0659   23.2362 N   0  0  0  0  0  0  0  0  0  0  0  0
    9.3998  -15.9705   24.6312 C   0  0  1  0  0  0  0  0  0  0  0  0
    8.2712  -16.2132   25.5625 C   0  0  0  0  0  0  0  0  0  0  0  0
    7.1005  -15.3673   25.5182 C   0  0  0  0  0  0  0  0  0  0  0  0
    5.7682  -15.6692   25.2580 C   0  0  0  0  0  0  0  0  0  0  0  0
    5.0125  -14.5796   25.3246 N   0  0  0  0  0  0  0  0  0  0  0  0
    5.8184  -13.5668   25.6230 C   0  0  0  0  0  0  0  0  0  0  0  0
    5.4657  -12.2248   25.8164 C   0  0  0  0  0  0  0  0  0  0  0  0
    6.4174  -11.2892   26.1450 C   0  0  0  0  0  0  0  0  0  0  0  0
    7.7379  -11.7229   26.2774 C   0  0  0  0  0  0  0  0  0  0  0  0
    8.0719  -13.0634   26.0810 C   0  0  0  0  0  0  0  0  0  0  0  0
    7.1188  -14.0013   25.7523 C   0  0  0  0  0  0  0  0  0  0  0  0
   10.6019  -16.7917   24.7882 C   0  0  0  0  0  0  0  0  0  0  0  0
   11.5415  -16.7226   23.9200 O   0  0  0  0  0  0  0  0  0  0  0  0
   10.8053  -17.6715   25.8661 N   0  0  0  0  0  0  0  0  0  0  0  0
   12.1361  -18.2542   26.1428 C   0  0  1  0  0  0  0  0  0  0  0  0
   12.9631  -17.0460   26.6518 C   0  0  0  0  0  0  0  0  0  0  0  0
   12.1831  -16.2733   27.6389 C   0  0  0  0  0  0  0  0  0  0  0  0
   11.9013  -16.8364   28.8882 C   0  0  0  0  0  0  0  0  0  0  0  0
   11.1977  -16.1132   29.8023 C   0  0  0  0  0  0  0  0  0  0  0  0
   10.7606  -14.8394   29.5169 C   0  0  0  0  0  0  0  0  0  0  0  0
   11.0515  -14.2947   28.2653 C   0  0  0  0  0  0  0  0  0  0  0  0
   11.7615  -15.0050   27.3223 C   0  0  0  0  0  0  0  0  0  0  0  0
   12.0864  -19.2353   27.2199 C   0  0  0  0  0  0  0  0  0  0  0  0
   10.9025  -19.4461   27.8950 O   0  0  0  0  0  0  0  0  0  0  0  0
   13.1297  -19.8912   27.5367 O   0  0  0  0  0  0  0  0  0  0  0  0
  2  1  1  6
  2  3  1  0
  4  2  1  0
  5  4  1  0
  5  6  1  1
  7  9  1  0
  7  5  1  0
  8  7  2  0
 10 21  1  0
 10  9  1  0
 10 11  1  1
 12 11  1  0
 12 20  1  0
 13 12  2  0
 14 13  1  0
 14 15  1  0
 15 16  1  0
 15 20  2  0
 16 17  2  0
 17 18  1  0
 19 18  2  0
 20 19  1  0
 21 22  2  0
 23 24  1  0
 23 21  1  0
 24 25  1  1
 26 27  2  0
 26 25  1  0
 28 27  1  0
 29 28  2  0
 30 29  1  0
 30 31  2  0
 31 26  1  0
 32 24  1  0
 33 32  1  0
 34 32  2  0
M  END
$$$$
