LWF.pdb
     RDKit          3D

 34 36  0  0  1  0  0  0  0  0999 V2000
    8.6279  -14.1116   17.2156 C   0  0  0  0  0  0  0  0  0  0  0  0
    7.9614  -13.5314   18.4328 C   0  0  2  0  0  0  0  0  0  0  0  0
    7.5582  -12.0968   18.1852 C   0  0  0  0  0  0  0  0  0  0  0  0
    8.6932  -13.7466   19.6991 C   0  0  0  0  0  0  0  0  0  0  0  0
    9.1140  -15.1341   20.0430 C   0  0  2  0  0  0  0  0  0  0  0  0
    8.1019  -16.1352   19.7827 N   0  0  0  0  0  0  0  0  0  0  0  0
    9.3666  -15.1258   21.5196 C   0  0  0  0  0  0  0  0  0  0  0  0
   10.1068  -14.2416   22.0220 O   0  0  0  0  0  0  0  0  0  0  0  0
    8.7889  -16.0864   22.3471 N   0  0  0  0  0  0  0  0  0  0  0  0
    9.0329  -16.0752   23.8142 C   0  0  1  0  0  0  0  0  0  0  0  0
    7.8269  -16.6018   24.4985 C   0  0  0  0  0  0  0  0  0  0  0  0
    6.9142  -15.6960   25.1578 C   0  0  0  0  0  0  0  0  0  0  0  0
    5.6469  -15.9074   25.6897 C   0  0  0  0  0  0  0  0  0  0  0  0
    5.1590  -14.7892   26.2133 N   0  0  0  0  0  0  0  0  0  0  0  0
    6.0777  -13.8461   26.0378 C   0  0  0  0  0  0  0  0  0  0  0  0
    6.0145  -12.5073   26.4459 C   0  0  0  0  0  0  0  0  0  0  0  0
    7.0632  -11.6510   26.2096 C   0  0  0  0  0  0  0  0  0  0  0  0
    8.1845  -12.1613   25.5526 C   0  0  0  0  0  0  0  0  0  0  0  0
    8.2309  -13.4972   25.1526 C   0  0  0  0  0  0  0  0  0  0  0  0
    7.1807  -14.3558   25.3896 C   0  0  0  0  0  0  0  0  0  0  0  0
   10.3187  -16.7071   24.1164 C   0  0  0  0  0  0  0  0  0  0  0  0
   10.7595  -17.6495   23.3688 O   0  0  0  0  0  0  0  0  0  0  0  0
   11.1324  -16.3315   25.1999 N   0  0  0  0  0  0  0  0  0  0  0  0
   12.3287  -17.1171   25.5722 C   0  0  1  0  0  0  0  0  0  0  0  0
   13.1126  -16.1634   26.5095 C   0  0  0  0  0  0  0  0  0  0  0  0
   12.1833  -15.4648   27.4197 C   0  0  0  0  0  0  0  0  0  0  0  0
   11.6639  -14.2189   27.0515 C   0  0  0  0  0  0  0  0  0  0  0  0
   10.7929  -13.5867   27.8852 C   0  0  0  0  0  0  0  0  0  0  0  0
   10.4161  -14.1532   29.0819 C   0  0  0  0  0  0  0  0  0  0  0  0
   10.9447  -15.3966   29.4319 C   0  0  0  0  0  0  0  0  0  0  0  0
   11.8278  -16.0575   28.6066 C   0  0  0  0  0  0  0  0  0  0  0  0
   11.9811  -18.3028   26.3458 C   0  0  0  0  0  0  0  0  0  0  0  0
   10.6598  -18.5537   26.6507 O   0  0  0  0  0  0  0  0  0  0  0  0
   12.8917  -19.0998   26.7394 O   0  0  0  0  0  0  0  0  0  0  0  0
  2  1  1  6
  2  3  1  0
  4  2  1  0
  5  4  1  0
  5  6  1  1
  7  9  1  0
  7  5  1  0
  8  7  2  0
 10 21  1  0
 10  9  1  0
 10 11  1  1
 12 11  1  0
 12 20  1  0
 13 12  2  0
 14 13  1  0
 14 15  1  0
 15 16  1  0
 15 20  2  0
 16 17  2  0
 17 18  1  0
 19 18  2  0
 20 19  1  0
 21 22  2  0
 23 24  1  0
 23 21  1  0
 24 25  1  1
 26 27  2  0
 26 25  1  0
 28 27  1  0
 29 28  2  0
 30 29  1  0
 30 31  2  0
 31 26  1  0
 32 24  1  0
 33 32  1  0
 34 32  2  0
M  END
$$$$
