LWF.pdb
     RDKit          3D

 34 36  0  0  1  0  0  0  0  0999 V2000
    7.8982  -12.4629   20.0218 C   0  0  0  0  0  0  0  0  0  0  0  0
    8.4483  -13.8482   20.2239 C   0  0  2  0  0  0  0  0  0  0  0  0
    9.9107  -13.8996   19.8487 C   0  0  0  0  0  0  0  0  0  0  0  0
    7.6314  -14.9293   19.6330 C   0  0  0  0  0  0  0  0  0  0  0  0
    7.9604  -16.3378   19.9915 C   0  0  2  0  0  0  0  0  0  0  0  0
    7.1621  -17.3223   19.2931 N   0  0  0  0  0  0  0  0  0  0  0  0
    7.6527  -16.4658   21.4520 C   0  0  0  0  0  0  0  0  0  0  0  0
    6.4978  -16.1987   21.8730 O   0  0  0  0  0  0  0  0  0  0  0  0
    8.6311  -16.8802   22.3531 N   0  0  0  0  0  0  0  0  0  0  0  0
    8.3148  -17.0523   23.7962 C   0  0  1  0  0  0  0  0  0  0  0  0
    8.5411  -18.4713   24.1642 C   0  0  0  0  0  0  0  0  0  0  0  0
    8.1799  -18.9449   25.4808 C   0  0  0  0  0  0  0  0  0  0  0  0
    6.9482  -18.9953   26.1242 C   0  0  0  0  0  0  0  0  0  0  0  0
    7.0682  -19.5157   27.3397 N   0  0  0  0  0  0  0  0  0  0  0  0
    8.3523  -19.8091   27.5105 C   0  0  0  0  0  0  0  0  0  0  0  0
    8.9510  -20.3965   28.6328 C   0  0  0  0  0  0  0  0  0  0  0  0
   10.2996  -20.6604   28.6516 C   0  0  0  0  0  0  0  0  0  0  0  0
   11.0445  -20.3236   27.5197 C   0  0  0  0  0  0  0  0  0  0  0  0
   10.4324  -19.7389   26.4105 C   0  0  0  0  0  0  0  0  0  0  0  0
    9.0811  -19.4747   26.3908 C   0  0  0  0  0  0  0  0  0  0  0  0
    8.9960  -16.0259   24.5877 C   0  0  0  0  0  0  0  0  0  0  0  0
   10.1196  -15.5543   24.1922 O   0  0  0  0  0  0  0  0  0  0  0  0
    8.4797  -15.4995   25.7850 N   0  0  0  0  0  0  0  0  0  0  0  0
    9.2839  -14.5995   26.6396 C   0  0  1  0  0  0  0  0  0  0  0  0
    8.2331  -13.9566   27.5803 C   0  0  0  0  0  0  0  0  0  0  0  0
    7.4653  -12.9233   26.8572 C   0  0  0  0  0  0  0  0  0  0  0  0
    6.1958  -13.2319   26.3565 C   0  0  0  0  0  0  0  0  0  0  0  0
    5.4836  -12.2708   25.7065 C   0  0  0  0  0  0  0  0  0  0  0  0
    5.9919  -11.0030   25.5352 C   0  0  0  0  0  0  0  0  0  0  0  0
    7.2598  -10.7142   26.0418 C   0  0  0  0  0  0  0  0  0  0  0  0
    8.0014  -11.6682   26.7032 C   0  0  0  0  0  0  0  0  0  0  0  0
   10.2239  -15.3384   27.4736 C   0  0  0  0  0  0  0  0  0  0  0  0
   10.2259  -16.7171   27.4402 O   0  0  0  0  0  0  0  0  0  0  0  0
   11.0357  -14.7150   28.2295 O   0  0  0  0  0  0  0  0  0  0  0  0
  2  1  1  6
  2  3  1  0
  4  2  1  0
  5  4  1  0
  5  6  1  6
  7  9  1  0
  7  5  1  0
  8  7  2  0
 10 21  1  0
 10  9  1  0
 10 11  1  1
 12 11  1  0
 12 20  1  0
 13 12  2  0
 14 13  1  0
 14 15  1  0
 15 16  1  0
 15 20  2  0
 16 17  2  0
 17 18  1  0
 19 18  2  0
 20 19  1  0
 21 22  2  0
 23 24  1  0
 23 21  1  0
 24 25  1  1
 26 27  2  0
 26 25  1  0
 28 27  1  0
 29 28  2  0
 30 29  1  0
 30 31  2  0
 31 26  1  0
 32 24  1  0
 33 32  1  0
 34 32  2  0
M  END
$$$$
