LWF.pdb
     RDKit          3D

 34 36  0  0  1  0  0  0  0  0999 V2000
    7.1860  -12.9185   18.3429 C   0  0  0  0  0  0  0  0  0  0  0  0
    8.4245  -13.5257   18.9429 C   0  0  2  0  0  0  0  0  0  0  0  0
    9.6499  -12.7374   18.5443 C   0  0  0  0  0  0  0  0  0  0  0  0
    8.5522  -14.9856   18.7497 C   0  0  0  0  0  0  0  0  0  0  0  0
    9.6836  -15.6888   19.4177 C   0  0  2  0  0  0  0  0  0  0  0  0
    9.6477  -17.1281   19.2711 N   0  0  0  0  0  0  0  0  0  0  0  0
    9.5440  -15.3836   20.8776 C   0  0  0  0  0  0  0  0  0  0  0  0
    9.9766  -14.2934   21.3322 O   0  0  0  0  0  0  0  0  0  0  0  0
    8.9375  -16.2931   21.7413 N   0  0  0  0  0  0  0  0  0  0  0  0
    8.7638  -15.9754   23.1839 C   0  0  1  0  0  0  0  0  0  0  0  0
    7.3495  -16.2231   23.5560 C   0  0  0  0  0  0  0  0  0  0  0  0
    6.7655  -15.5338   24.6838 C   0  0  0  0  0  0  0  0  0  0  0  0
    6.1571  -16.0231   25.8346 C   0  0  0  0  0  0  0  0  0  0  0  0
    5.7607  -15.0298   26.6212 N   0  0  0  0  0  0  0  0  0  0  0  0
    6.0949  -13.8971   26.0134 C   0  0  0  0  0  0  0  0  0  0  0  0
    5.8952  -12.5898   26.4760 C   0  0  0  0  0  0  0  0  0  0  0  0
    6.3194  -11.5113   25.7374 C   0  0  0  0  0  0  0  0  0  0  0  0
    6.9514  -11.7653   24.5185 C   0  0  0  0  0  0  0  0  0  0  0  0
    7.1420  -13.0736   24.0726 C   0  0  0  0  0  0  0  0  0  0  0  0
    6.7177  -14.1546   24.8124 C   0  0  0  0  0  0  0  0  0  0  0  0
    9.8028  -16.6378   23.9749 C   0  0  0  0  0  0  0  0  0  0  0  0
   10.0174  -17.8921   23.8264 O   0  0  0  0  0  0  0  0  0  0  0  0
   10.6128  -15.9676   24.9086 N   0  0  0  0  0  0  0  0  0  0  0  0
   11.7473  -16.6471   25.5707 C   0  0  1  0  0  0  0  0  0  0  0  0
   12.2823  -15.5807   26.5602 C   0  0  0  0  0  0  0  0  0  0  0  0
   11.3111  -15.3640   27.6510 C   0  0  0  0  0  0  0  0  0  0  0  0
   10.3571  -14.3475   27.5328 C   0  0  0  0  0  0  0  0  0  0  0  0
    9.4517  -14.1630   28.5326 C   0  0  0  0  0  0  0  0  0  0  0  0
    9.4602  -14.9597   29.6553 C   0  0  0  0  0  0  0  0  0  0  0  0
   10.4194  -15.9685   29.7550 C   0  0  0  0  0  0  0  0  0  0  0  0
   11.3469  -16.1763   28.7579 C   0  0  0  0  0  0  0  0  0  0  0  0
   11.3098  -17.7938   26.3575 C   0  0  0  0  0  0  0  0  0  0  0  0
   12.2493  -18.6175   26.9410 O   0  0  0  0  0  0  0  0  0  0  0  0
   10.0687  -18.0342   26.5026 O   0  0  0  0  0  0  0  0  0  0  0  0
  2  1  1  6
  2  3  1  0
  4  2  1  0
  5  4  1  0
  5  6  1  1
  7  9  1  0
  7  5  1  0
  8  7  2  0
 10 21  1  0
 10  9  1  0
 10 11  1  1
 12 11  1  0
 12 20  1  0
 13 12  2  0
 14 13  1  0
 14 15  1  0
 15 16  1  0
 15 20  2  0
 16 17  2  0
 17 18  1  0
 19 18  2  0
 20 19  1  0
 21 22  2  0
 23 24  1  0
 23 21  1  0
 24 25  1  1
 26 27  2  0
 26 25  1  0
 28 27  1  0
 29 28  2  0
 30 29  1  0
 30 31  2  0
 31 26  1  0
 32 24  1  0
 33 32  1  0
 34 32  2  0
M  END
$$$$
