LWF.pdb
     RDKit          3D

 34 36  0  0  1  0  0  0  0  0999 V2000
   10.5521  -20.5452   18.9067 C   0  0  0  0  0  0  0  0  0  0  0  0
    9.4776  -19.4931   18.8730 C   0  0  2  0  0  0  0  0  0  0  0  0
    9.1684  -19.0945   17.4491 C   0  0  0  0  0  0  0  0  0  0  0  0
    9.7001  -18.3536   19.7879 C   0  0  0  0  0  0  0  0  0  0  0  0
   10.1166  -18.6452   21.1887 C   0  0  2  0  0  0  0  0  0  0  0  0
    9.1010  -19.3111   21.9757 N   0  0  0  0  0  0  0  0  0  0  0  0
   10.3704  -17.3112   21.8212 C   0  0  0  0  0  0  0  0  0  0  0  0
   11.2755  -16.5658   21.3658 O   0  0  0  0  0  0  0  0  0  0  0  0
    9.6134  -16.8825   22.9095 N   0  0  0  0  0  0  0  0  0  0  0  0
    9.8966  -15.5802   23.5696 C   0  0  1  0  0  0  0  0  0  0  0  0
    8.6786  -14.7370   23.4946 C   0  0  0  0  0  0  0  0  0  0  0  0
    7.8380  -14.7810   22.3200 C   0  0  0  0  0  0  0  0  0  0  0  0
    6.7680  -15.6082   21.9964 C   0  0  0  0  0  0  0  0  0  0  0  0
    6.2718  -15.2985   20.8046 N   0  0  0  0  0  0  0  0  0  0  0  0
    6.9918  -14.2853   20.3364 C   0  0  0  0  0  0  0  0  0  0  0  0
    6.8234  -13.6093   19.1209 C   0  0  0  0  0  0  0  0  0  0  0  0
    7.6410  -12.5573   18.7836 C   0  0  0  0  0  0  0  0  0  0  0  0
    8.6376  -12.1910   19.6902 C   0  0  0  0  0  0  0  0  0  0  0  0
    8.7917  -12.8752   20.8963 C   0  0  0  0  0  0  0  0  0  0  0  0
    7.9726  -13.9290   21.2352 C   0  0  0  0  0  0  0  0  0  0  0  0
   10.4917  -15.8023   24.8888 C   0  0  0  0  0  0  0  0  0  0  0  0
   11.5720  -15.1949   25.2134 O   0  0  0  0  0  0  0  0  0  0  0  0
    9.9354  -16.6564   25.8574 N   0  0  0  0  0  0  0  0  0  0  0  0
   10.4508  -16.6871   27.2432 C   0  0  1  0  0  0  0  0  0  0  0  0
    9.1982  -16.3824   28.1037 C   0  0  0  0  0  0  0  0  0  0  0  0
    8.7220  -15.0092   27.8434 C   0  0  0  0  0  0  0  0  0  0  0  0
    7.4998  -14.8155   27.1906 C   0  0  0  0  0  0  0  0  0  0  0  0
    7.0557  -13.5478   26.9690 C   0  0  0  0  0  0  0  0  0  0  0  0
    7.7888  -12.4563   27.3768 C   0  0  0  0  0  0  0  0  0  0  0  0
    9.0054  -12.6696   28.0265 C   0  0  0  0  0  0  0  0  0  0  0  0
    9.4778  -13.9419   28.2630 C   0  0  0  0  0  0  0  0  0  0  0  0
   10.9263  -18.0136   27.6169 C   0  0  0  0  0  0  0  0  0  0  0  0
   10.7054  -19.0796   26.7703 O   0  0  0  0  0  0  0  0  0  0  0  0
   11.5390  -18.1869   28.7185 O   0  0  0  0  0  0  0  0  0  0  0  0
  2  1  1  6
  2  3  1  0
  4  2  1  0
  5  4  1  0
  5  6  1  1
  7  9  1  0
  7  5  1  0
  8  7  2  0
 10 21  1  0
 10  9  1  0
 10 11  1  1
 12 11  1  0
 12 20  1  0
 13 12  2  0
 14 13  1  0
 14 15  1  0
 15 16  1  0
 15 20  2  0
 16 17  2  0
 17 18  1  0
 19 18  2  0
 20 19  1  0
 21 22  2  0
 23 24  1  0
 23 21  1  0
 24 25  1  1
 26 27  2  0
 26 25  1  0
 28 27  1  0
 29 28  2  0
 30 29  1  0
 30 31  2  0
 31 26  1  0
 32 24  1  0
 33 32  1  0
 34 32  2  0
M  END
$$$$
