LWF.pdb
     RDKit          3D

 34 36  0  0  1  0  0  0  0  0999 V2000
    8.1975  -14.7221   16.7754 C   0  0  0  0  0  0  0  0  0  0  0  0
    7.6330  -14.0322   17.9869 C   0  0  2  0  0  0  0  0  0  0  0  0
    7.0531  -12.6887   17.6117 C   0  0  0  0  0  0  0  0  0  0  0  0
    8.5374  -13.9983   19.1557 C   0  0  0  0  0  0  0  0  0  0  0  0
    9.0739  -15.2901   19.6696 C   0  0  2  0  0  0  0  0  0  0  0  0
    8.1178  -16.3759   19.6382 N   0  0  0  0  0  0  0  0  0  0  0  0
    9.4219  -15.0409   21.1052 C   0  0  0  0  0  0  0  0  0  0  0  0
   10.2964  -14.1850   21.3967 O   0  0  0  0  0  0  0  0  0  0  0  0
    8.7864  -15.7454   22.1255 N   0  0  0  0  0  0  0  0  0  0  0  0
    8.9561  -15.3460   23.5481 C   0  0  1  0  0  0  0  0  0  0  0  0
    7.9333  -16.0476   24.3617 C   0  0  0  0  0  0  0  0  0  0  0  0
    6.9392  -15.2897   25.0865 C   0  0  0  0  0  0  0  0  0  0  0  0
    5.8708  -15.7069   25.8729 C   0  0  0  0  0  0  0  0  0  0  0  0
    5.2056  -14.6668   26.3608 N   0  0  0  0  0  0  0  0  0  0  0  0
    5.8128  -13.5737   25.9129 C   0  0  0  0  0  0  0  0  0  0  0  0
    5.4775  -12.2404   26.1829 C   0  0  0  0  0  0  0  0  0  0  0  0
    6.2209  -11.2098   25.6595 C   0  0  0  0  0  0  0  0  0  0  0  0
    7.3136  -11.5387   24.8550 C   0  0  0  0  0  0  0  0  0  0  0  0
    7.6335  -12.8719   24.5960 C   0  0  0  0  0  0  0  0  0  0  0  0
    6.8893  -13.9050   25.1205 C   0  0  0  0  0  0  0  0  0  0  0  0
   10.3579  -15.4854   23.9473 C   0  0  0  0  0  0  0  0  0  0  0  0
   11.0498  -14.4440   24.2266 O   0  0  0  0  0  0  0  0  0  0  0  0
   11.0139  -16.7242   24.0577 N   0  0  0  0  0  0  0  0  0  0  0  0
   11.3217  -17.3169   25.3771 C   0  0  1  0  0  0  0  0  0  0  0  0
   10.1198  -16.8886   26.2572 C   0  0  0  0  0  0  0  0  0  0  0  0
   10.5389  -15.8561   27.2259 C   0  0  0  0  0  0  0  0  0  0  0  0
   11.5449  -16.1486   28.1532 C   0  0  0  0  0  0  0  0  0  0  0  0
   11.9413  -15.1878   29.0324 C   0  0  0  0  0  0  0  0  0  0  0  0
   11.3691  -13.9357   29.0228 C   0  0  0  0  0  0  0  0  0  0  0  0
   10.3672  -13.6628   28.0903 C   0  0  0  0  0  0  0  0  0  0  0  0
    9.9476  -14.6170   27.1897 C   0  0  0  0  0  0  0  0  0  0  0  0
   11.3319  -18.7739   25.3294 C   0  0  0  0  0  0  0  0  0  0  0  0
   12.0939  -19.4796   26.2367 O   0  0  0  0  0  0  0  0  0  0  0  0
   10.6439  -19.3903   24.4543 O   0  0  0  0  0  0  0  0  0  0  0  0
  2  1  1  6
  2  3  1  0
  4  2  1  0
  5  4  1  0
  5  6  1  1
  7  9  1  0
  7  5  1  0
  8  7  2  0
 10 21  1  0
 10  9  1  0
 10 11  1  1
 12 11  1  0
 12 20  1  0
 13 12  2  0
 14 13  1  0
 14 15  1  0
 15 16  1  0
 15 20  2  0
 16 17  2  0
 17 18  1  0
 19 18  2  0
 20 19  1  0
 21 22  2  0
 23 24  1  0
 23 21  1  0
 24 25  1  1
 26 27  2  0
 26 25  1  0
 28 27  1  0
 29 28  2  0
 30 29  1  0
 30 31  2  0
 31 26  1  0
 32 24  1  0
 33 32  1  0
 34 32  2  0
M  END
$$$$
