LWF.pdb
     RDKit          3D

 34 36  0  0  1  0  0  0  0  0999 V2000
    9.6437  -14.0404   19.6007 C   0  0  0  0  0  0  0  0  0  0  0  0
    8.1766  -13.8454   19.3322 C   0  0  2  0  0  0  0  0  0  0  0  0
    7.8306  -12.3751   19.3123 C   0  0  0  0  0  0  0  0  0  0  0  0
    7.2805  -14.6689   20.1711 C   0  0  0  0  0  0  0  0  0  0  0  0
    7.5816  -16.1219   20.3086 C   0  0  2  0  0  0  0  0  0  0  0  0
    6.7611  -16.9722   19.4731 N   0  0  0  0  0  0  0  0  0  0  0  0
    7.2756  -16.4652   21.7343 C   0  0  0  0  0  0  0  0  0  0  0  0
    6.1006  -16.3463   22.1673 O   0  0  0  0  0  0  0  0  0  0  0  0
    8.2779  -16.9180   22.5895 N   0  0  0  0  0  0  0  0  0  0  0  0
    7.9861  -17.2125   24.0179 C   0  0  1  0  0  0  0  0  0  0  0  0
    8.0147  -18.6825   24.2134 C   0  0  0  0  0  0  0  0  0  0  0  0
    7.7275  -19.2465   25.5124 C   0  0  0  0  0  0  0  0  0  0  0  0
    6.5543  -19.2631   26.2588 C   0  0  0  0  0  0  0  0  0  0  0  0
    6.7325  -19.9004   27.4097 N   0  0  0  0  0  0  0  0  0  0  0  0
    7.9977  -20.3038   27.4374 C   0  0  0  0  0  0  0  0  0  0  0  0
    8.6379  -21.0350   28.4465 C   0  0  0  0  0  0  0  0  0  0  0  0
    9.9568  -21.4001   28.3200 C   0  0  0  0  0  0  0  0  0  0  0  0
   10.6292  -21.0177   27.1576 C   0  0  0  0  0  0  0  0  0  0  0  0
    9.9765  -20.2894   26.1624 C   0  0  0  0  0  0  0  0  0  0  0  0
    8.6549  -19.9238   26.2884 C   0  0  0  0  0  0  0  0  0  0  0  0
    8.8343  -16.3928   24.8854 C   0  0  0  0  0  0  0  0  0  0  0  0
   10.0171  -16.0758   24.5086 O   0  0  0  0  0  0  0  0  0  0  0  0
    8.4225  -15.9069   26.1389 N   0  0  0  0  0  0  0  0  0  0  0  0
    9.3368  -15.1254   26.9993 C   0  0  1  0  0  0  0  0  0  0  0  0
    8.3830  -14.4209   27.9976 C   0  0  0  0  0  0  0  0  0  0  0  0
    7.5592  -13.4173   27.2946 C   0  0  0  0  0  0  0  0  0  0  0  0
    6.1657  -13.5415   27.3022 C   0  0  0  0  0  0  0  0  0  0  0  0
    5.4091  -12.6038   26.6684 C   0  0  0  0  0  0  0  0  0  0  0  0
    5.9928  -11.5377   26.0221 C   0  0  0  0  0  0  0  0  0  0  0  0
    7.3843  -11.4308   26.0255 C   0  0  0  0  0  0  0  0  0  0  0  0
    8.1730  -12.3657   26.6590 C   0  0  0  0  0  0  0  0  0  0  0  0
   10.2227  -15.9860   27.7737 C   0  0  0  0  0  0  0  0  0  0  0  0
   11.2338  -15.4235   28.5241 O   0  0  0  0  0  0  0  0  0  0  0  0
   10.0654  -17.2486   27.7552 O   0  0  0  0  0  0  0  0  0  0  0  0
  2  1  1  1
  2  3  1  0
  4  2  1  0
  5  4  1  0
  5  6  1  6
  7  9  1  0
  7  5  1  0
  8  7  2  0
 10 21  1  0
 10  9  1  0
 10 11  1  6
 12 11  1  0
 12 20  1  0
 13 12  2  0
 14 13  1  0
 14 15  1  0
 15 16  1  0
 15 20  2  0
 16 17  2  0
 17 18  1  0
 19 18  2  0
 20 19  1  0
 21 22  2  0
 23 24  1  0
 23 21  1  0
 24 25  1  1
 26 27  2  0
 26 25  1  0
 28 27  1  0
 29 28  2  0
 30 29  1  0
 30 31  2  0
 31 26  1  0
 32 24  1  0
 33 32  1  0
 34 32  2  0
M  END
$$$$
