LFF.pdb
     RDKit          3D

 31 32  0  0  1  0  0  0  0  0999 V2000
   13.9279   -9.4131  -17.3593 C   0  0  0  0  0  0  0  0  0  0  0  0
   15.4429   -9.6730  -17.4234 C   0  0  1  0  0  0  0  0  0  0  0  0
   16.0189   -8.6116  -18.2959 C   0  0  0  0  0  0  0  0  0  0  0  0
   15.9146   -9.7035  -16.0184 C   0  0  0  0  0  0  0  0  0  0  0  0
   17.3922   -9.8210  -15.8117 C   0  0  2  0  0  0  0  0  0  0  0  0
   17.9864  -11.0481  -16.2117 N   0  0  0  0  0  0  0  0  0  0  0  0
   17.8202   -9.4816  -14.4443 C   0  0  0  0  0  0  0  0  0  0  0  0
   17.6640  -10.2383  -13.4528 O   0  0  0  0  0  0  0  0  0  0  0  0
   18.4462   -8.2332  -14.2135 N   0  0  0  0  0  0  0  0  0  0  0  0
   18.9446   -7.8560  -12.8959 C   0  0  1  0  0  0  0  0  0  0  0  0
   20.3160   -7.2292  -13.0434 C   0  0  0  0  0  0  0  0  0  0  0  0
   21.3652   -8.1923  -13.4006 C   0  0  0  0  0  0  0  0  0  0  0  0
   21.8132   -9.0692  -12.4190 C   0  0  0  0  0  0  0  0  0  0  0  0
   22.7911   -9.9913  -12.7181 C   0  0  0  0  0  0  0  0  0  0  0  0
   23.3089  -10.0271  -13.9906 C   0  0  0  0  0  0  0  0  0  0  0  0
   22.8534   -9.1486  -14.9570 C   0  0  0  0  0  0  0  0  0  0  0  0
   21.8655   -8.2095  -14.6735 C   0  0  0  0  0  0  0  0  0  0  0  0
   17.9645   -6.9374  -12.2684 C   0  0  0  0  0  0  0  0  0  0  0  0
   17.3766   -6.0407  -12.9254 O   0  0  0  0  0  0  0  0  0  0  0  0
   17.6498   -7.0374  -10.8858 N   0  0  0  0  0  0  0  0  0  0  0  0
   16.6640   -6.1113  -10.3014 C   0  0  1  0  0  0  0  0  0  0  0  0
   15.5749   -6.9780   -9.7606 C   0  0  0  0  0  0  0  0  0  0  0  0
   14.5763   -6.1868   -9.0455 C   0  0  0  0  0  0  0  0  0  0  0  0
   14.5223   -6.0792   -7.6686 C   0  0  0  0  0  0  0  0  0  0  0  0
   13.5585   -5.2953   -7.0871 C   0  0  0  0  0  0  0  0  0  0  0  0
   12.6264   -4.5990   -7.8298 C   0  0  0  0  0  0  0  0  0  0  0  0
   12.6811   -4.7062   -9.1891 C   0  0  0  0  0  0  0  0  0  0  0  0
   13.6370   -5.4844   -9.7854 C   0  0  0  0  0  0  0  0  0  0  0  0
   17.3161   -5.3776   -9.2030 C   0  0  0  0  0  0  0  0  0  0  0  0
   16.9123   -4.0829   -8.9045 O   0  0  0  0  0  0  0  0  0  0  0  0
   18.2252   -5.8740   -8.5219 O   0  0  0  0  0  0  0  0  0  0  0  0
  2  1  1  1
  3  2  1  0
  4  5  1  0
  4  2  1  0
  5  7  1  0
  5  6  1  1
  7  8  2  0
  9 10  1  0
  9  7  1  0
 11 12  1  0
 10 11  1  6
 12 17  2  0
 13 14  2  0
 13 12  1  0
 14 15  1  0
 15 16  2  0
 17 16  1  0
 18 20  1  0
 18 10  1  0
 19 18  2  0
 21 20  1  0
 21 22  1  1
 23 22  1  0
 23 24  2  0
 25 24  1  0
 26 25  2  0
 27 28  2  0
 27 26  1  0
 28 23  1  0
 29 21  1  0
 30 29  1  0
 31 29  2  0
M  END
$$$$
