LFF.pdb
     RDKit          3D

 31 32  0  0  1  0  0  0  0  0999 V2000
   23.3294  -23.3811  -18.4358 C   0  0  0  0  0  0  0  0  0  0  0  0
   24.2675  -23.7926  -17.2881 C   0  0  1  0  0  0  0  0  0  0  0  0
   23.3951  -24.1556  -16.1363 C   0  0  0  0  0  0  0  0  0  0  0  0
   25.1317  -24.8687  -17.8291 C   0  0  0  0  0  0  0  0  0  0  0  0
   26.0764  -25.5155  -16.8655 C   0  0  2  0  0  0  0  0  0  0  0  0
   27.1559  -24.7120  -16.4096 N   0  0  0  0  0  0  0  0  0  0  0  0
   26.5845  -26.8174  -17.3292 C   0  0  0  0  0  0  0  0  0  0  0  0
   26.6894  -27.1379  -18.5401 O   0  0  0  0  0  0  0  0  0  0  0  0
   26.9829  -27.7777  -16.3687 N   0  0  0  0  0  0  0  0  0  0  0  0
   27.6567  -29.0131  -16.7516 C   0  0  1  0  0  0  0  0  0  0  0  0
   29.1118  -28.9355  -16.3365 C   0  0  0  0  0  0  0  0  0  0  0  0
   29.8858  -30.1330  -16.6869 C   0  0  0  0  0  0  0  0  0  0  0  0
   29.9686  -31.1582  -15.7513 C   0  0  0  0  0  0  0  0  0  0  0  0
   30.6797  -32.2997  -16.0465 C   0  0  0  0  0  0  0  0  0  0  0  0
   31.2985  -32.4042  -17.2692 C   0  0  0  0  0  0  0  0  0  0  0  0
   31.2074  -31.3762  -18.1901 C   0  0  0  0  0  0  0  0  0  0  0  0
   30.4929  -30.2146  -17.9098 C   0  0  0  0  0  0  0  0  0  0  0  0
   26.9458  -30.1509  -16.1207 C   0  0  0  0  0  0  0  0  0  0  0  0
   26.8389  -30.2600  -14.8725 O   0  0  0  0  0  0  0  0  0  0  0  0
   26.3521  -31.1716  -16.9121 N   0  0  0  0  0  0  0  0  0  0  0  0
   25.7258  -32.3277  -16.2472 C   0  0  1  0  0  0  0  0  0  0  0  0
   24.2928  -32.3001  -16.6661 C   0  0  0  0  0  0  0  0  0  0  0  0
   23.5615  -33.4421  -16.1224 C   0  0  0  0  0  0  0  0  0  0  0  0
   23.0941  -33.5084  -14.8233 C   0  0  0  0  0  0  0  0  0  0  0  0
   22.3991  -34.6158  -14.4085 C   0  0  0  0  0  0  0  0  0  0  0  0
   22.1429  -35.6828  -15.2459 C   0  0  0  0  0  0  0  0  0  0  0  0
   22.6048  -35.6158  -16.5282 C   0  0  0  0  0  0  0  0  0  0  0  0
   23.3002  -34.5175  -16.9582 C   0  0  0  0  0  0  0  0  0  0  0  0
   26.3732  -33.5528  -16.7469 C   0  0  0  0  0  0  0  0  0  0  0  0
   26.5397  -34.6391  -15.8981 O   0  0  0  0  0  0  0  0  0  0  0  0
   26.7829  -33.6582  -17.9122 O   0  0  0  0  0  0  0  0  0  0  0  0
  2  1  1  6
  3  2  1  0
  4  5  1  0
  4  2  1  0
  5  7  1  0
  5  6  1  6
  7  8  2  0
  9 10  1  0
  9  7  1  0
 11 12  1  0
 10 11  1  1
 12 17  2  0
 13 14  2  0
 13 12  1  0
 14 15  1  0
 15 16  2  0
 17 16  1  0
 18 20  1  0
 18 10  1  0
 19 18  2  0
 21 20  1  0
 21 22  1  6
 23 22  1  0
 23 24  2  0
 25 24  1  0
 26 25  2  0
 27 28  2  0
 27 26  1  0
 28 23  1  0
 29 21  1  0
 30 29  1  0
 31 29  2  0
M  END
$$$$
