LFF.pdb
     RDKit          3D

 31 32  0  0  1  0  0  0  0  0999 V2000
   27.1455  -19.7936  -19.4257 C   0  0  0  0  0  0  0  0  0  0  0  0
   27.9841  -20.7855  -18.6012 C   0  0  1  0  0  0  0  0  0  0  0  0
   29.3271  -20.1645  -18.4282 C   0  0  0  0  0  0  0  0  0  0  0  0
   27.2114  -21.0477  -17.3636 C   0  0  0  0  0  0  0  0  0  0  0  0
   27.8850  -21.8807  -16.3187 C   0  0  2  0  0  0  0  0  0  0  0  0
   28.2675  -23.1916  -16.7113 N   0  0  0  0  0  0  0  0  0  0  0  0
   27.1435  -21.9368  -15.0478 C   0  0  0  0  0  0  0  0  0  0  0  0
   26.2153  -22.7513  -14.8132 O   0  0  0  0  0  0  0  0  0  0  0  0
   27.4821  -21.0271  -14.0176 N   0  0  0  0  0  0  0  0  0  0  0  0
   26.8212  -21.0581  -12.7179 C   0  0  1  0  0  0  0  0  0  0  0  0
   27.7289  -20.4251  -11.6830 C   0  0  0  0  0  0  0  0  0  0  0  0
   27.1164  -20.3191  -10.3527 C   0  0  0  0  0  0  0  0  0  0  0  0
   27.4325  -21.2867   -9.4055 C   0  0  0  0  0  0  0  0  0  0  0  0
   26.8832  -21.2170   -8.1449 C   0  0  0  0  0  0  0  0  0  0  0  0
   26.0268  -20.1847   -7.8453 C   0  0  0  0  0  0  0  0  0  0  0  0
   25.7216  -19.2293   -8.7977 C   0  0  0  0  0  0  0  0  0  0  0  0
   26.2671  -19.2830  -10.0775 C   0  0  0  0  0  0  0  0  0  0  0  0
   25.5196  -20.3583  -12.8361 C   0  0  0  0  0  0  0  0  0  0  0  0
   25.4130  -19.2409  -13.4028 O   0  0  0  0  0  0  0  0  0  0  0  0
   24.3309  -20.9310  -12.3073 N   0  0  0  0  0  0  0  0  0  0  0  0
   23.0357  -20.2819  -12.5761 C   0  0  1  0  0  0  0  0  0  0  0  0
   22.7962  -20.4613  -14.0390 C   0  0  0  0  0  0  0  0  0  0  0  0
   21.4917  -19.9316  -14.4294 C   0  0  0  0  0  0  0  0  0  0  0  0
   20.3389  -20.6921  -14.4876 C   0  0  0  0  0  0  0  0  0  0  0  0
   19.1543  -20.1011  -14.8464 C   0  0  0  0  0  0  0  0  0  0  0  0
   19.0632  -18.7591  -15.1566 C   0  0  0  0  0  0  0  0  0  0  0  0
   20.2021  -18.0096  -15.0986 C   0  0  0  0  0  0  0  0  0  0  0  0
   21.3927  -18.5842  -14.7420 C   0  0  0  0  0  0  0  0  0  0  0  0
   21.9978  -20.9882  -11.8055 C   0  0  0  0  0  0  0  0  0  0  0  0
   20.9265  -20.2776  -11.2805 O   0  0  0  0  0  0  0  0  0  0  0  0
   22.0398  -22.2103  -11.6016 O   0  0  0  0  0  0  0  0  0  0  0  0
  2  1  1  6
  3  2  1  0
  4  5  1  0
  4  2  1  0
  5  7  1  0
  5  6  1  6
  7  8  2  0
  9 10  1  0
  9  7  1  0
 11 12  1  0
 10 11  1  1
 12 17  2  0
 13 14  2  0
 13 12  1  0
 14 15  1  0
 15 16  2  0
 17 16  1  0
 18 20  1  0
 18 10  1  0
 19 18  2  0
 21 20  1  0
 21 22  1  6
 23 22  1  0
 23 24  2  0
 25 24  1  0
 26 25  2  0
 27 28  2  0
 27 26  1  0
 28 23  1  0
 29 21  1  0
 30 29  1  0
 31 29  2  0
M  END
$$$$
