LFF.pdb
     RDKit          3D

 31 32  0  0  1  0  0  0  0  0999 V2000
   27.4945  -14.3822  -16.0808 C   0  0  0  0  0  0  0  0  0  0  0  0
   27.2362  -15.8397  -16.4997 C   0  0  1  0  0  0  0  0  0  0  0  0
   28.4333  -16.6206  -16.0793 C   0  0  0  0  0  0  0  0  0  0  0  0
   25.9448  -16.2228  -15.8807 C   0  0  0  0  0  0  0  0  0  0  0  0
   25.5298  -17.6528  -16.0303 C   0  0  2  0  0  0  0  0  0  0  0  0
   25.7620  -18.2442  -17.3012 N   0  0  0  0  0  0  0  0  0  0  0  0
   24.1423  -17.9064  -15.6079 C   0  0  0  0  0  0  0  0  0  0  0  0
   23.3790  -17.0231  -15.1417 O   0  0  0  0  0  0  0  0  0  0  0  0
   23.6198  -19.2166  -15.7261 N   0  0  0  0  0  0  0  0  0  0  0  0
   22.2261  -19.5181  -15.4203 C   0  0  1  0  0  0  0  0  0  0  0  0
   21.5340  -20.0014  -16.6785 C   0  0  0  0  0  0  0  0  0  0  0  0
   21.2027  -18.9216  -17.6167 C   0  0  0  0  0  0  0  0  0  0  0  0
   22.1163  -18.6210  -18.6207 C   0  0  0  0  0  0  0  0  0  0  0  0
   21.8377  -17.6194  -19.5236 C   0  0  0  0  0  0  0  0  0  0  0  0
   20.6531  -16.9313  -19.4138 C   0  0  0  0  0  0  0  0  0  0  0  0
   19.7537  -17.2415  -18.4098 C   0  0  0  0  0  0  0  0  0  0  0  0
   20.0177  -18.2507  -17.4879 C   0  0  0  0  0  0  0  0  0  0  0  0
   22.1911  -20.5229  -14.3308 C   0  0  0  0  0  0  0  0  0  0  0  0
   22.7983  -21.6207  -14.4173 O   0  0  0  0  0  0  0  0  0  0  0  0
   21.4618  -20.2799  -13.1351 N   0  0  0  0  0  0  0  0  0  0  0  0
   21.5755  -21.2302  -12.0148 C   0  0  1  0  0  0  0  0  0  0  0  0
   22.2237  -20.4656  -10.9080 C   0  0  0  0  0  0  0  0  0  0  0  0
   23.6742  -20.4191  -11.0771 C   0  0  0  0  0  0  0  0  0  0  0  0
   24.5105  -21.4949  -10.8453 C   0  0  0  0  0  0  0  0  0  0  0  0
   25.8600  -21.3613  -11.0510 C   0  0  0  0  0  0  0  0  0  0  0  0
   26.4268  -20.1802  -11.4862 C   0  0  0  0  0  0  0  0  0  0  0  0
   25.5999  -19.1191  -11.7147 C   0  0  0  0  0  0  0  0  0  0  0  0
   24.2504  -19.2359  -11.5144 C   0  0  0  0  0  0  0  0  0  0  0  0
   20.2171  -21.6380  -11.6171 C   0  0  0  0  0  0  0  0  0  0  0  0
   20.0470  -22.6856  -10.7215 O   0  0  0  0  0  0  0  0  0  0  0  0
   19.2017  -21.0773  -12.0545 O   0  0  0  0  0  0  0  0  0  0  0  0
  2  1  1  1
  3  2  1  0
  4  5  1  0
  4  2  1  0
  5  7  1  0
  5  6  1  6
  7  8  2  0
  9 10  1  0
  9  7  1  0
 11 12  1  0
 10 11  1  6
 12 17  2  0
 13 14  2  0
 13 12  1  0
 14 15  1  0
 15 16  2  0
 17 16  1  0
 18 20  1  0
 18 10  1  0
 19 18  2  0
 21 20  1  0
 21 22  1  1
 23 22  1  0
 23 24  2  0
 25 24  1  0
 26 25  2  0
 27 28  2  0
 27 26  1  0
 28 23  1  0
 29 21  1  0
 30 29  1  0
 31 29  2  0
M  END
$$$$
