LFF.pdb
     RDKit          3D

 31 32  0  0  1  0  0  0  0  0999 V2000
   26.3537  -22.7139  -16.1533 C   0  0  0  0  0  0  0  0  0  0  0  0
   26.1990  -21.4059  -15.3584 C   0  0  1  0  0  0  0  0  0  0  0  0
   25.0071  -20.7082  -15.9172 C   0  0  0  0  0  0  0  0  0  0  0  0
   26.1274  -21.7985  -13.9307 C   0  0  0  0  0  0  0  0  0  0  0  0
   26.0694  -20.6845  -12.9331 C   0  0  2  0  0  0  0  0  0  0  0  0
   26.9126  -19.5695  -13.1875 N   0  0  0  0  0  0  0  0  0  0  0  0
   26.2441  -21.1352  -11.5423 C   0  0  0  0  0  0  0  0  0  0  0  0
   26.0418  -22.3145  -11.1569 O   0  0  0  0  0  0  0  0  0  0  0  0
   26.6640  -20.1988  -10.5673 N   0  0  0  0  0  0  0  0  0  0  0  0
   26.7775  -20.5562   -9.1580 C   0  0  1  0  0  0  0  0  0  0  0  0
   27.8874  -19.7411   -8.5259 C   0  0  0  0  0  0  0  0  0  0  0  0
   27.9521  -19.8730   -7.0650 C   0  0  0  0  0  0  0  0  0  0  0  0
   27.3628  -18.8806   -6.2895 C   0  0  0  0  0  0  0  0  0  0  0  0
   27.3972  -18.9731   -4.9161 C   0  0  0  0  0  0  0  0  0  0  0  0
   28.0178  -20.0525   -4.3343 C   0  0  0  0  0  0  0  0  0  0  0  0
   28.5996  -21.0321   -5.1185 C   0  0  0  0  0  0  0  0  0  0  0  0
   28.5750  -20.9561   -6.5084 C   0  0  0  0  0  0  0  0  0  0  0  0
   25.4645  -20.3282   -8.5084 C   0  0  0  0  0  0  0  0  0  0  0  0
   24.8247  -19.2561   -8.6576 O   0  0  0  0  0  0  0  0  0  0  0  0
   24.8739  -21.3242   -7.6839 N   0  0  0  0  0  0  0  0  0  0  0  0
   23.5939  -21.0389   -7.0122 C   0  0  1  0  0  0  0  0  0  0  0  0
   22.5360  -21.5222   -7.9487 C   0  0  0  0  0  0  0  0  0  0  0  0
   21.5119  -22.2859   -7.2398 C   0  0  0  0  0  0  0  0  0  0  0  0
   21.6851  -23.5868   -6.8059 C   0  0  0  0  0  0  0  0  0  0  0  0
   20.6714  -24.2167   -6.1298 C   0  0  0  0  0  0  0  0  0  0  0  0
   19.4677  -23.5971   -5.8601 C   0  0  0  0  0  0  0  0  0  0  0  0
   19.2983  -22.3127   -6.2889 C   0  0  0  0  0  0  0  0  0  0  0  0
   20.3003  -21.6697   -6.9652 C   0  0  0  0  0  0  0  0  0  0  0  0
   23.5489  -21.8122   -5.7592 C   0  0  0  0  0  0  0  0  0  0  0  0
   22.7100  -21.4069   -4.7295 O   0  0  0  0  0  0  0  0  0  0  0  0
   24.2392  -22.8263   -5.5808 O   0  0  0  0  0  0  0  0  0  0  0  0
  2  1  1  6
  3  2  1  0
  4  5  1  0
  4  2  1  0
  5  7  1  0
  5  6  1  6
  7  8  2  0
  9 10  1  0
  9  7  1  0
 11 12  1  0
 10 11  1  1
 12 17  2  0
 13 14  2  0
 13 12  1  0
 14 15  1  0
 15 16  2  0
 17 16  1  0
 18 20  1  0
 18 10  1  0
 19 18  2  0
 21 20  1  0
 21 22  1  6
 23 22  1  0
 23 24  2  0
 25 24  1  0
 26 25  2  0
 27 28  2  0
 27 26  1  0
 28 23  1  0
 29 21  1  0
 30 29  1  0
 31 29  2  0
M  END
$$$$
