LFF.pdb
     RDKit          3D

 31 32  0  0  1  0  0  0  0  0999 V2000
   29.9442  -20.2769  -20.3228 C   0  0  0  0  0  0  0  0  0  0  0  0
   28.8967  -19.4649  -19.5418 C   0  0  1  0  0  0  0  0  0  0  0  0
   27.7033  -19.3498  -20.4262 C   0  0  0  0  0  0  0  0  0  0  0  0
   28.7014  -20.1752  -18.2554 C   0  0  0  0  0  0  0  0  0  0  0  0
   27.6457  -19.6312  -17.3448 C   0  0  2  0  0  0  0  0  0  0  0  0
   27.6116  -18.2185  -17.1967 N   0  0  0  0  0  0  0  0  0  0  0  0
   27.6292  -20.2725  -16.0195 C   0  0  0  0  0  0  0  0  0  0  0  0
   27.9022  -21.4838  -15.8235 O   0  0  0  0  0  0  0  0  0  0  0  0
   27.2878  -19.4946  -14.8873 N   0  0  0  0  0  0  0  0  0  0  0  0
   27.1947  -20.0784  -13.5542 C   0  0  1  0  0  0  0  0  0  0  0  0
   27.8839  -19.1644  -12.5616 C   0  0  0  0  0  0  0  0  0  0  0  0
   27.7799  -19.6246  -11.1711 C   0  0  0  0  0  0  0  0  0  0  0  0
   28.6216  -20.6499  -10.7544 C   0  0  0  0  0  0  0  0  0  0  0  0
   28.5581  -21.1037   -9.4559 C   0  0  0  0  0  0  0  0  0  0  0  0
   27.6574  -20.5300   -8.5908 C   0  0  0  0  0  0  0  0  0  0  0  0
   26.8265  -19.5107   -9.0195 C   0  0  0  0  0  0  0  0  0  0  0  0
   26.8761  -19.0386  -10.3283 C   0  0  0  0  0  0  0  0  0  0  0  0
   25.7629  -20.2896  -13.2328 C   0  0  0  0  0  0  0  0  0  0  0  0
   24.8886  -19.4216  -13.4846 O   0  0  0  0  0  0  0  0  0  0  0  0
   25.3207  -21.4943  -12.6215 N   0  0  0  0  0  0  0  0  0  0  0  0
   23.9121  -21.6186  -12.2075 C   0  0  1  0  0  0  0  0  0  0  0  0
   23.4725  -22.9623  -12.6883 C   0  0  0  0  0  0  0  0  0  0  0  0
   23.1986  -22.9461  -14.1233 C   0  0  0  0  0  0  0  0  0  0  0  0
   21.9489  -22.7111  -14.6653 C   0  0  0  0  0  0  0  0  0  0  0  0
   21.7928  -22.6957  -16.0279 C   0  0  0  0  0  0  0  0  0  0  0  0
   22.8465  -22.9082  -16.8939 C   0  0  0  0  0  0  0  0  0  0  0  0
   24.0797  -23.1399  -16.3574 C   0  0  0  0  0  0  0  0  0  0  0  0
   24.2526  -23.1584  -14.9992 C   0  0  0  0  0  0  0  0  0  0  0  0
   23.8582  -21.5676  -10.7363 C   0  0  0  0  0  0  0  0  0  0  0  0
   22.6347  -21.4185  -10.0967 O   0  0  0  0  0  0  0  0  0  0  0  0
   24.8750  -21.6533  -10.0323 O   0  0  0  0  0  0  0  0  0  0  0  0
  2  1  1  6
  3  2  1  0
  4  5  1  0
  4  2  1  0
  5  7  1  0
  5  6  1  1
  7  8  2  0
  9 10  1  0
  9  7  1  0
 11 12  1  0
 10 11  1  1
 12 17  2  0
 13 14  2  0
 13 12  1  0
 14 15  1  0
 15 16  2  0
 17 16  1  0
 18 20  1  0
 18 10  1  0
 19 18  2  0
 21 20  1  0
 21 22  1  1
 23 22  1  0
 23 24  2  0
 25 24  1  0
 26 25  2  0
 27 28  2  0
 27 26  1  0
 28 23  1  0
 29 21  1  0
 30 29  1  0
 31 29  2  0
M  END
$$$$
