LFF.pdb
     RDKit          3D

 31 32  0  0  1  0  0  0  0  0999 V2000
   33.5306  -21.6838  -10.3551 C   0  0  0  0  0  0  0  0  0  0  0  0
   32.5602  -22.2594  -11.4009 C   0  0  1  0  0  0  0  0  0  0  0  0
   32.1364  -23.5956  -10.8964 C   0  0  0  0  0  0  0  0  0  0  0  0
   31.4914  -21.2464  -11.5714 C   0  0  0  0  0  0  0  0  0  0  0  0
   30.4146  -21.5704  -12.5589 C   0  0  2  0  0  0  0  0  0  0  0  0
   30.8314  -21.7518  -13.9051 N   0  0  0  0  0  0  0  0  0  0  0  0
   29.2764  -20.6375  -12.5102 C   0  0  0  0  0  0  0  0  0  0  0  0
   29.3871  -19.4087  -12.2699 O   0  0  0  0  0  0  0  0  0  0  0  0
   27.9727  -21.1362  -12.7452 N   0  0  0  0  0  0  0  0  0  0  0  0
   26.8109  -20.2560  -12.7928 C   0  0  1  0  0  0  0  0  0  0  0  0
   26.2720  -20.2196  -14.2084 C   0  0  0  0  0  0  0  0  0  0  0  0
   27.0330  -19.3380  -15.1026 C   0  0  0  0  0  0  0  0  0  0  0  0
   26.8471  -17.9650  -14.9851 C   0  0  0  0  0  0  0  0  0  0  0  0
   27.5482  -17.1061  -15.8016 C   0  0  0  0  0  0  0  0  0  0  0  0
   28.4245  -17.6265  -16.7235 C   0  0  0  0  0  0  0  0  0  0  0  0
   28.5993  -18.9945  -16.8290 C   0  0  0  0  0  0  0  0  0  0  0  0
   27.8995  -19.8787  -16.0123 C   0  0  0  0  0  0  0  0  0  0  0  0
   25.8093  -20.7470  -11.8161 C   0  0  0  0  0  0  0  0  0  0  0  0
   25.3826  -21.9296  -11.8370 O   0  0  0  0  0  0  0  0  0  0  0  0
   25.2889  -19.8895  -10.8089 N   0  0  0  0  0  0  0  0  0  0  0  0
   24.2729  -20.4065   -9.8754 C   0  0  1  0  0  0  0  0  0  0  0  0
   24.4130  -19.5828   -8.6378 C   0  0  0  0  0  0  0  0  0  0  0  0
   25.6101  -19.9557   -7.8878 C   0  0  0  0  0  0  0  0  0  0  0  0
   25.9197  -21.2543   -7.5294 C   0  0  0  0  0  0  0  0  0  0  0  0
   27.0786  -21.5098   -6.8415 C   0  0  0  0  0  0  0  0  0  0  0  0
   27.9619  -20.5101   -6.4868 C   0  0  0  0  0  0  0  0  0  0  0  0
   27.6549  -19.2286   -6.8415 C   0  0  0  0  0  0  0  0  0  0  0  0
   26.5021  -18.9566   -7.5285 C   0  0  0  0  0  0  0  0  0  0  0  0
   22.9447  -20.1925  -10.4753 C   0  0  0  0  0  0  0  0  0  0  0  0
   22.8371  -19.5345  -11.6934 O   0  0  0  0  0  0  0  0  0  0  0  0
   21.9009  -20.5808   -9.9308 O   0  0  0  0  0  0  0  0  0  0  0  0
  2  1  1  1
  3  2  1  0
  4  5  1  0
  4  2  1  0
  5  7  1  0
  5  6  1  6
  7  8  2  0
  9 10  1  0
  9  7  1  0
 11 12  1  0
 10 11  1  6
 12 17  2  0
 13 14  2  0
 13 12  1  0
 14 15  1  0
 15 16  2  0
 17 16  1  0
 18 20  1  0
 18 10  1  0
 19 18  2  0
 21 20  1  0
 21 22  1  1
 23 22  1  0
 23 24  2  0
 25 24  1  0
 26 25  2  0
 27 28  2  0
 27 26  1  0
 28 23  1  0
 29 21  1  0
 30 29  1  0
 31 29  2  0
M  END
$$$$
