LFF.pdb
     RDKit          3D

 31 32  0  0  1  0  0  0  0  0999 V2000
   27.1691  -23.0441  -19.5804 C   0  0  0  0  0  0  0  0  0  0  0  0
   27.7369  -22.1723  -18.4470 C   0  0  1  0  0  0  0  0  0  0  0  0
   27.5892  -20.7564  -18.8862 C   0  0  0  0  0  0  0  0  0  0  0  0
   27.0038  -22.5648  -17.2198 C   0  0  0  0  0  0  0  0  0  0  0  0
   27.1958  -21.6930  -16.0187 C   0  0  2  0  0  0  0  0  0  0  0  0
   28.4844  -21.7230  -15.4208 N   0  0  0  0  0  0  0  0  0  0  0  0
   26.1625  -21.8828  -14.9870 C   0  0  0  0  0  0  0  0  0  0  0  0
   25.5779  -22.9749  -14.7730 O   0  0  0  0  0  0  0  0  0  0  0  0
   25.7922  -20.7813  -14.1788 N   0  0  0  0  0  0  0  0  0  0  0  0
   24.8486  -20.9210  -13.0757 C   0  0  1  0  0  0  0  0  0  0  0  0
   25.1173  -19.8377  -12.0510 C   0  0  0  0  0  0  0  0  0  0  0  0
   25.8838  -20.3068  -10.8898 C   0  0  0  0  0  0  0  0  0  0  0  0
   27.2004  -20.7066  -11.0903 C   0  0  0  0  0  0  0  0  0  0  0  0
   27.9531  -21.1460  -10.0243 C   0  0  0  0  0  0  0  0  0  0  0  0
   27.3841  -21.1812   -8.7738 C   0  0  0  0  0  0  0  0  0  0  0  0
   26.0733  -20.7804   -8.5895 C   0  0  0  0  0  0  0  0  0  0  0  0
   25.2966  -20.3330   -9.6548 C   0  0  0  0  0  0  0  0  0  0  0  0
   23.4726  -20.8559  -13.6237 C   0  0  0  0  0  0  0  0  0  0  0  0
   23.1117  -19.9450  -14.4119 O   0  0  0  0  0  0  0  0  0  0  0  0
   22.4996  -21.8316  -13.2744 N   0  0  0  0  0  0  0  0  0  0  0  0
   21.1225  -21.6903  -13.7790 C   0  0  1  0  0  0  0  0  0  0  0  0
   20.7577  -23.0322  -14.3229 C   0  0  0  0  0  0  0  0  0  0  0  0
   19.3890  -23.0406  -14.8339 C   0  0  0  0  0  0  0  0  0  0  0  0
   19.0096  -22.4542  -16.0267 C   0  0  0  0  0  0  0  0  0  0  0  0
   17.7022  -22.5311  -16.4343 C   0  0  0  0  0  0  0  0  0  0  0  0
   16.7348  -23.1788  -15.6927 C   0  0  0  0  0  0  0  0  0  0  0  0
   17.1109  -23.7574  -14.5154 C   0  0  0  0  0  0  0  0  0  0  0  0
   18.4120  -23.6899  -14.0942 C   0  0  0  0  0  0  0  0  0  0  0  0
   20.2480  -21.3526  -12.6427 C   0  0  0  0  0  0  0  0  0  0  0  0
   20.4887  -21.9168  -11.3969 O   0  0  0  0  0  0  0  0  0  0  0  0
   19.2901  -20.5733  -12.7519 O   0  0  0  0  0  0  0  0  0  0  0  0
  2  1  1  6
  3  2  1  0
  4  5  1  0
  4  2  1  0
  5  7  1  0
  5  6  1  1
  7  8  2  0
  9 10  1  0
  9  7  1  0
 11 12  1  0
 10 11  1  1
 12 17  2  0
 13 14  2  0
 13 12  1  0
 14 15  1  0
 15 16  2  0
 17 16  1  0
 18 20  1  0
 18 10  1  0
 19 18  2  0
 21 20  1  0
 21 22  1  1
 23 22  1  0
 23 24  2  0
 25 24  1  0
 26 25  2  0
 27 28  2  0
 27 26  1  0
 28 23  1  0
 29 21  1  0
 30 29  1  0
 31 29  2  0
M  END
$$$$
