LFF.pdb
     RDKit          3D

 31 32  0  0  1  0  0  0  0  0999 V2000
   26.8919  -20.2879  -19.9461 C   0  0  0  0  0  0  0  0  0  0  0  0
   27.9650  -20.6297  -18.8981 C   0  0  1  0  0  0  0  0  0  0  0  0
   28.5507  -19.3344  -18.4525 C   0  0  0  0  0  0  0  0  0  0  0  0
   27.2831  -21.4398  -17.8606 C   0  0  0  0  0  0  0  0  0  0  0  0
   28.0365  -21.6674  -16.5878 C   0  0  2  0  0  0  0  0  0  0  0  0
   29.0518  -22.6606  -16.6283 N   0  0  0  0  0  0  0  0  0  0  0  0
   27.1635  -21.8933  -15.4237 C   0  0  0  0  0  0  0  0  0  0  0  0
   26.6119  -22.9926  -15.1641 O   0  0  0  0  0  0  0  0  0  0  0  0
   26.9192  -20.8203  -14.5334 N   0  0  0  0  0  0  0  0  0  0  0  0
   26.1786  -21.0068  -13.2910 C   0  0  1  0  0  0  0  0  0  0  0  0
   26.7710  -20.1138  -12.2199 C   0  0  0  0  0  0  0  0  0  0  0  0
   28.0319  -20.6218  -11.6649 C   0  0  0  0  0  0  0  0  0  0  0  0
   28.0038  -21.2164  -10.4083 C   0  0  0  0  0  0  0  0  0  0  0  0
   29.1650  -21.7108   -9.8579 C   0  0  0  0  0  0  0  0  0  0  0  0
   30.3379  -21.6061  -10.5665 C   0  0  0  0  0  0  0  0  0  0  0  0
   30.3507  -21.0121  -11.8155 C   0  0  0  0  0  0  0  0  0  0  0  0
   29.1869  -20.5066  -12.3885 C   0  0  0  0  0  0  0  0  0  0  0  0
   24.7483  -20.7134  -13.5483 C   0  0  0  0  0  0  0  0  0  0  0  0
   24.3671  -19.6050  -14.0036 O   0  0  0  0  0  0  0  0  0  0  0  0
   23.7441  -21.6849  -13.2868 N   0  0  0  0  0  0  0  0  0  0  0  0
   22.3324  -21.3506  -13.5442 C   0  0  1  0  0  0  0  0  0  0  0  0
   21.6211  -22.6610  -13.6255 C   0  0  0  0  0  0  0  0  0  0  0  0
   20.1927  -22.4724  -13.8682 C   0  0  0  0  0  0  0  0  0  0  0  0
   19.2253  -22.5768  -12.8864 C   0  0  0  0  0  0  0  0  0  0  0  0
   17.9088  -22.3626  -13.2063 C   0  0  0  0  0  0  0  0  0  0  0  0
   17.5030  -22.0424  -14.4863 C   0  0  0  0  0  0  0  0  0  0  0  0
   18.4593  -21.9395  -15.4544 C   0  0  0  0  0  0  0  0  0  0  0  0
   19.7779  -22.1501  -15.1516 C   0  0  0  0  0  0  0  0  0  0  0  0
   21.8270  -20.5732  -12.3996 C   0  0  0  0  0  0  0  0  0  0  0  0
   20.8632  -19.5945  -12.6035 O   0  0  0  0  0  0  0  0  0  0  0  0
   22.2316  -20.7577  -11.2424 O   0  0  0  0  0  0  0  0  0  0  0  0
  2  1  1  6
  3  2  1  0
  4  5  1  0
  4  2  1  0
  5  7  1  0
  5  6  1  6
  7  8  2  0
  9 10  1  0
  9  7  1  0
 11 12  1  0
 10 11  1  1
 12 17  2  0
 13 14  2  0
 13 12  1  0
 14 15  1  0
 15 16  2  0
 17 16  1  0
 18 20  1  0
 18 10  1  0
 19 18  2  0
 21 20  1  0
 21 22  1  1
 23 22  1  0
 23 24  2  0
 25 24  1  0
 26 25  2  0
 27 28  2  0
 27 26  1  0
 28 23  1  0
 29 21  1  0
 30 29  1  0
 31 29  2  0
M  END
$$$$
