LFF.pdb
     RDKit          3D

 31 32  0  0  1  0  0  0  0  0999 V2000
   18.9410  -21.4528  -15.1116 C   0  0  0  0  0  0  0  0  0  0  0  0
   19.6025  -21.8705  -13.7870 C   0  0  1  0  0  0  0  0  0  0  0  0
   20.1297  -23.2488  -13.9920 C   0  0  0  0  0  0  0  0  0  0  0  0
   20.6005  -20.8193  -13.4764 C   0  0  0  0  0  0  0  0  0  0  0  0
   21.6670  -21.1802  -12.4904 C   0  0  2  0  0  0  0  0  0  0  0  0
   21.3127  -21.0804  -11.1180 N   0  0  0  0  0  0  0  0  0  0  0  0
   22.9429  -20.4848  -12.7283 C   0  0  0  0  0  0  0  0  0  0  0  0
   23.0586  -19.2348  -12.7930 O   0  0  0  0  0  0  0  0  0  0  0  0
   24.1196  -21.2533  -12.8969 N   0  0  0  0  0  0  0  0  0  0  0  0
   25.4286  -20.6293  -13.0521 C   0  0  1  0  0  0  0  0  0  0  0  0
   26.3940  -21.2451  -12.0598 C   0  0  0  0  0  0  0  0  0  0  0  0
   26.1518  -20.8304  -10.6722 C   0  0  0  0  0  0  0  0  0  0  0  0
   26.4896  -19.5322  -10.3066 C   0  0  0  0  0  0  0  0  0  0  0  0
   26.2710  -19.1047   -9.0160 C   0  0  0  0  0  0  0  0  0  0  0  0
   25.7191  -19.9762   -8.1079 C   0  0  0  0  0  0  0  0  0  0  0  0
   25.3880  -21.2648   -8.4860 C   0  0  0  0  0  0  0  0  0  0  0  0
   25.6015  -21.7150   -9.7860 C   0  0  0  0  0  0  0  0  0  0  0  0
   25.8689  -20.8047  -14.4569 C   0  0  0  0  0  0  0  0  0  0  0  0
   26.0922  -21.9405  -14.9481 O   0  0  0  0  0  0  0  0  0  0  0  0
   26.0570  -19.6831  -15.3096 N   0  0  0  0  0  0  0  0  0  0  0  0
   26.4237  -19.9022  -16.7197 C   0  0  1  0  0  0  0  0  0  0  0  0
   26.0509  -18.6422  -17.4289 C   0  0  0  0  0  0  0  0  0  0  0  0
   26.8251  -17.5073  -16.9316 C   0  0  0  0  0  0  0  0  0  0  0  0
   26.5081  -16.8030  -15.7854 C   0  0  0  0  0  0  0  0  0  0  0  0
   27.3076  -15.7626  -15.3859 C   0  0  0  0  0  0  0  0  0  0  0  0
   28.4324  -15.3834  -16.0907 C   0  0  0  0  0  0  0  0  0  0  0  0
   28.7442  -16.0798  -17.2220 C   0  0  0  0  0  0  0  0  0  0  0  0
   27.9565  -17.1212  -17.6344 C   0  0  0  0  0  0  0  0  0  0  0  0
   27.8807  -20.1076  -16.7901 C   0  0  0  0  0  0  0  0  0  0  0  0
   28.4519  -20.5956  -17.9580 O   0  0  0  0  0  0  0  0  0  0  0  0
   28.6321  -19.8597  -15.8358 O   0  0  0  0  0  0  0  0  0  0  0  0
  2  1  1  6
  3  2  1  0
  4  5  1  0
  4  2  1  0
  5  7  1  0
  5  6  1  1
  7  8  2  0
  9 10  1  0
  9  7  1  0
 11 12  1  0
 10 11  1  1
 12 17  2  0
 13 14  2  0
 13 12  1  0
 14 15  1  0
 15 16  2  0
 17 16  1  0
 18 20  1  0
 18 10  1  0
 19 18  2  0
 21 20  1  0
 21 22  1  6
 23 22  1  0
 23 24  2  0
 25 24  1  0
 26 25  2  0
 27 28  2  0
 27 26  1  0
 28 23  1  0
 29 21  1  0
 30 29  1  0
 31 29  2  0
M  END
$$$$
