LFF.pdb
     RDKit          3D

 31 32  0  0  1  0  0  0  0  0999 V2000
   25.7994  -22.0690  -21.7871 C   0  0  0  0  0  0  0  0  0  0  0  0
   25.7120  -20.8639  -20.8349 C   0  0  1  0  0  0  0  0  0  0  0  0
   24.6169  -19.9949  -21.3498 C   0  0  0  0  0  0  0  0  0  0  0  0
   25.5274  -21.4263  -19.4758 C   0  0  0  0  0  0  0  0  0  0  0  0
   25.2912  -20.4437  -18.3720 C   0  0  2  0  0  0  0  0  0  0  0  0
   26.3033  -19.4662  -18.1746 N   0  0  0  0  0  0  0  0  0  0  0  0
   24.9525  -21.0779  -17.0870 C   0  0  0  0  0  0  0  0  0  0  0  0
   24.7224  -22.3061  -16.9506 O   0  0  0  0  0  0  0  0  0  0  0  0
   24.8765  -20.2723  -15.9257 N   0  0  0  0  0  0  0  0  0  0  0  0
   24.5422  -20.8340  -14.6220 C   0  0  1  0  0  0  0  0  0  0  0  0
   25.2985  -20.0804  -13.5469 C   0  0  0  0  0  0  0  0  0  0  0  0
   24.9887  -20.5341  -12.1852 C   0  0  0  0  0  0  0  0  0  0  0  0
   25.8168  -21.4899  -11.6073 C   0  0  0  0  0  0  0  0  0  0  0  0
   25.5622  -21.9349  -10.3294 C   0  0  0  0  0  0  0  0  0  0  0  0
   24.4866  -21.4217   -9.6450 C   0  0  0  0  0  0  0  0  0  0  0  0
   23.6715  -20.4712  -10.2326 C   0  0  0  0  0  0  0  0  0  0  0  0
   23.9129  -20.0090  -11.5235 C   0  0  0  0  0  0  0  0  0  0  0  0
   23.0726  -20.7591  -14.4412 C   0  0  0  0  0  0  0  0  0  0  0  0
   22.4527  -19.6655  -14.4697 O   0  0  0  0  0  0  0  0  0  0  0  0
   22.3015  -21.9339  -14.2267 N   0  0  0  0  0  0  0  0  0  0  0  0
   20.8605  -21.8099  -13.9459 C   0  0  1  0  0  0  0  0  0  0  0  0
   20.2647  -23.1233  -14.3326 C   0  0  0  0  0  0  0  0  0  0  0  0
   18.8173  -23.1260  -14.1328 C   0  0  0  0  0  0  0  0  0  0  0  0
   17.9300  -22.4234  -14.9263 C   0  0  0  0  0  0  0  0  0  0  0  0
   16.5843  -22.5033  -14.6733 C   0  0  0  0  0  0  0  0  0  0  0  0
   16.0709  -23.2672  -13.6445 C   0  0  0  0  0  0  0  0  0  0  0  0
   16.9481  -23.9604  -12.8622 C   0  0  0  0  0  0  0  0  0  0  0  0
   18.2945  -23.8915  -13.1014 C   0  0  0  0  0  0  0  0  0  0  0  0
   20.6906  -21.5860  -12.4998 C   0  0  0  0  0  0  0  0  0  0  0  0
   21.3481  -22.4076  -11.5938 O   0  0  0  0  0  0  0  0  0  0  0  0
   19.9740  -20.6805  -12.0488 O   0  0  0  0  0  0  0  0  0  0  0  0
  2  1  1  6
  3  2  1  0
  4  5  1  0
  4  2  1  0
  5  7  1  0
  5  6  1  1
  7  8  2  0
  9 10  1  0
  9  7  1  0
 11 12  1  0
 10 11  1  1
 12 17  2  0
 13 14  2  0
 13 12  1  0
 14 15  1  0
 15 16  2  0
 17 16  1  0
 18 20  1  0
 18 10  1  0
 19 18  2  0
 21 20  1  0
 21 22  1  1
 23 22  1  0
 23 24  2  0
 25 24  1  0
 26 25  2  0
 27 28  2  0
 27 26  1  0
 28 23  1  0
 29 21  1  0
 30 29  1  0
 31 29  2  0
M  END
$$$$
