LFF.pdb
     RDKit          3D

 31 32  0  0  1  0  0  0  0  0999 V2000
   28.9553  -17.6737  -16.3461 C   0  0  0  0  0  0  0  0  0  0  0  0
   28.0880  -18.3982  -17.3900 C   0  0  1  0  0  0  0  0  0  0  0  0
   29.0282  -19.0699  -18.3303 C   0  0  0  0  0  0  0  0  0  0  0  0
   27.1742  -19.2798  -16.6248 C   0  0  0  0  0  0  0  0  0  0  0  0
   27.7811  -20.5049  -16.0162 C   0  0  2  0  0  0  0  0  0  0  0  0
   28.0953  -21.5615  -16.9128 N   0  0  0  0  0  0  0  0  0  0  0  0
   27.0157  -21.0309  -14.8737 C   0  0  0  0  0  0  0  0  0  0  0  0
   26.1297  -21.9172  -14.9719 O   0  0  0  0  0  0  0  0  0  0  0  0
   27.2793  -20.5199  -13.5802 N   0  0  0  0  0  0  0  0  0  0  0  0
   26.4429  -20.8600  -12.4350 C   0  0  1  0  0  0  0  0  0  0  0  0
   27.1437  -20.4306  -11.1621 C   0  0  0  0  0  0  0  0  0  0  0  0
   26.2712  -20.4395   -9.9812 C   0  0  0  0  0  0  0  0  0  0  0  0
   25.6655  -21.6384   -9.6216 C   0  0  0  0  0  0  0  0  0  0  0  0
   24.8460  -21.6876   -8.5162 C   0  0  0  0  0  0  0  0  0  0  0  0
   24.6411  -20.5425   -7.7846 C   0  0  0  0  0  0  0  0  0  0  0  0
   25.2504  -19.3570   -8.1543 C   0  0  0  0  0  0  0  0  0  0  0  0
   26.0822  -19.2875   -9.2685 C   0  0  0  0  0  0  0  0  0  0  0  0
   25.1238  -20.2052  -12.6059 C   0  0  0  0  0  0  0  0  0  0  0  0
   25.0174  -19.0058  -12.9685 O   0  0  0  0  0  0  0  0  0  0  0  0
   23.9173  -20.9168  -12.3636 N   0  0  0  0  0  0  0  0  0  0  0  0
   22.6261  -20.2635  -12.6408 C   0  0  1  0  0  0  0  0  0  0  0  0
   22.5501  -20.1456  -14.1274 C   0  0  0  0  0  0  0  0  0  0  0  0
   21.2795  -19.5587  -14.5464 C   0  0  0  0  0  0  0  0  0  0  0  0
   21.0405  -18.1982  -14.5979 C   0  0  0  0  0  0  0  0  0  0  0  0
   19.8200  -17.7399  -15.0242 C   0  0  0  0  0  0  0  0  0  0  0  0
   18.8051  -18.5925  -15.4096 C   0  0  0  0  0  0  0  0  0  0  0  0
   19.0425  -19.9353  -15.3583 C   0  0  0  0  0  0  0  0  0  0  0  0
   20.2555  -20.4092  -14.9353 C   0  0  0  0  0  0  0  0  0  0  0  0
   21.5505  -21.1420  -12.1495 C   0  0  0  0  0  0  0  0  0  0  0  0
   21.7084  -22.5205  -12.2038 O   0  0  0  0  0  0  0  0  0  0  0  0
   20.4925  -20.6966  -11.6816 O   0  0  0  0  0  0  0  0  0  0  0  0
  2  1  1  1
  3  2  1  0
  4  5  1  0
  4  2  1  0
  5  7  1  0
  5  6  1  6
  7  8  2  0
  9 10  1  0
  9  7  1  0
 11 12  1  0
 10 11  1  1
 12 17  2  0
 13 14  2  0
 13 12  1  0
 14 15  1  0
 15 16  2  0
 17 16  1  0
 18 20  1  0
 18 10  1  0
 19 18  2  0
 21 20  1  0
 21 22  1  6
 23 22  1  0
 23 24  2  0
 25 24  1  0
 26 25  2  0
 27 28  2  0
 27 26  1  0
 28 23  1  0
 29 21  1  0
 30 29  1  0
 31 29  2  0
M  END
$$$$
