LFF.pdb
     RDKit          3D

 31 32  0  0  1  0  0  0  0  0999 V2000
   27.5038  -17.6589  -17.7911 C   0  0  0  0  0  0  0  0  0  0  0  0
   27.2169  -18.8969  -16.9241 C   0  0  1  0  0  0  0  0  0  0  0  0
   27.6137  -20.0830  -17.7335 C   0  0  0  0  0  0  0  0  0  0  0  0
   27.9501  -18.6875  -15.6529 C   0  0  0  0  0  0  0  0  0  0  0  0
   27.9514  -19.8296  -14.6858 C   0  0  2  0  0  0  0  0  0  0  0  0
   27.6812  -21.1137  -15.2307 N   0  0  0  0  0  0  0  0  0  0  0  0
   27.1001  -19.5986  -13.5068 C   0  0  0  0  0  0  0  0  0  0  0  0
   26.9166  -18.4698  -12.9850 O   0  0  0  0  0  0  0  0  0  0  0  0
   26.4415  -20.7013  -12.9119 N   0  0  0  0  0  0  0  0  0  0  0  0
   25.4920  -20.5301  -11.8184 C   0  0  1  0  0  0  0  0  0  0  0  0
   24.2463  -21.3420  -12.1094 C   0  0  0  0  0  0  0  0  0  0  0  0
   23.3346  -20.6954  -13.0616 C   0  0  0  0  0  0  0  0  0  0  0  0
   23.3199  -21.1568  -14.3731 C   0  0  0  0  0  0  0  0  0  0  0  0
   22.4733  -20.5799  -15.2932 C   0  0  0  0  0  0  0  0  0  0  0  0
   21.6533  -19.5517  -14.8941 C   0  0  0  0  0  0  0  0  0  0  0  0
   21.6788  -19.1033  -13.5860 C   0  0  0  0  0  0  0  0  0  0  0  0
   22.5277  -19.6739  -12.6416 C   0  0  0  0  0  0  0  0  0  0  0  0
   26.1526  -20.9363  -10.5548 C   0  0  0  0  0  0  0  0  0  0  0  0
   26.6451  -22.0828  -10.3993 O   0  0  0  0  0  0  0  0  0  0  0  0
   26.2548  -20.0348   -9.4605 N   0  0  0  0  0  0  0  0  0  0  0  0
   26.8870  -20.4878   -8.2091 C   0  0  1  0  0  0  0  0  0  0  0  0
   27.6554  -19.3120   -7.7025 C   0  0  0  0  0  0  0  0  0  0  0  0
   28.2333  -19.5850   -6.3887 C   0  0  0  0  0  0  0  0  0  0  0  0
   29.3131  -20.4230   -6.1824 C   0  0  0  0  0  0  0  0  0  0  0  0
   29.7992  -20.6024   -4.9124 C   0  0  0  0  0  0  0  0  0  0  0  0
   29.2476  -19.9720   -3.8152 C   0  0  0  0  0  0  0  0  0  0  0  0
   28.1818  -19.1449   -4.0204 C   0  0  0  0  0  0  0  0  0  0  0  0
   27.6845  -18.9549   -5.2820 C   0  0  0  0  0  0  0  0  0  0  0  0
   25.8208  -20.8413   -7.2561 C   0  0  0  0  0  0  0  0  0  0  0  0
   26.1082  -21.6644   -6.1753 O   0  0  0  0  0  0  0  0  0  0  0  0
   24.6582  -20.4290   -7.3790 O   0  0  0  0  0  0  0  0  0  0  0  0
  2  1  1  6
  3  2  1  0
  4  5  1  0
  4  2  1  0
  5  7  1  0
  5  6  1  6
  7  8  2  0
  9 10  1  0
  9  7  1  0
 11 12  1  0
 10 11  1  6
 12 17  2  0
 13 14  2  0
 13 12  1  0
 14 15  1  0
 15 16  2  0
 17 16  1  0
 18 20  1  0
 18 10  1  0
 19 18  2  0
 21 20  1  0
 21 22  1  1
 23 22  1  0
 23 24  2  0
 25 24  1  0
 26 25  2  0
 27 28  2  0
 27 26  1  0
 28 23  1  0
 29 21  1  0
 30 29  1  0
 31 29  2  0
M  END
$$$$
