TDH.pdb
     RDKit          3D

 26 26  0  0  1  0  0  0  0  0999 V2000
   24.5367   -5.7657  -20.3678 C   0  0  0  0  0  0  0  0  0  0  0  0
   23.5906   -6.3343  -19.3638 C   0  0  1  0  0  0  0  0  0  0  0  0
   23.2703   -7.6427  -19.7629 O   0  0  0  0  0  0  0  0  0  0  0  0
   24.1412   -6.4173  -17.9609 C   0  0  2  0  0  0  0  0  0  0  0  0
   25.3963   -7.1533  -18.0114 N   0  0  0  0  0  0  0  0  0  0  0  0
   23.1803   -7.1015  -17.0218 C   0  0  0  0  0  0  0  0  0  0  0  0
   23.2180   -8.3479  -16.9321 O   0  0  0  0  0  0  0  0  0  0  0  0
   22.2609   -6.3585  -16.2625 N   0  0  0  0  0  0  0  0  0  0  0  0
   21.2909   -6.8000  -15.3114 C   0  0  1  0  0  0  0  0  0  0  0  0
   20.9117   -5.7986  -14.2326 C   0  0  0  0  0  0  0  0  0  0  0  0
   22.0763   -5.2808  -13.4845 C   0  0  0  0  0  0  0  0  0  0  0  0
   22.6371   -6.0204  -12.6395 O   0  0  0  0  0  0  0  0  0  0  0  0
   20.1790   -7.5841  -15.8280 C   0  0  0  0  0  0  0  0  0  0  0  0
   19.5658   -7.1581  -16.8366 O   0  0  0  0  0  0  0  0  0  0  0  0
   22.5740   -4.0109  -13.6793 O   0  0  0  0  0  0  0  0  0  0  0  0
   19.7927   -8.7865  -15.2241 N   0  0  0  0  0  0  0  0  0  0  0  0
   18.7112   -9.6297  -15.7580 C   0  0  1  0  0  0  0  0  0  0  0  0
   18.8580  -10.9598  -15.0091 C   0  0  0  0  0  0  0  0  0  0  0  0
   17.8012  -11.9050  -15.3370 C   0  0  0  0  0  0  0  0  0  0  0  0
   16.7920  -11.7231  -16.2533 C   0  0  0  0  0  0  0  0  0  0  0  0
   16.0125  -12.8404  -16.2613 N   0  0  0  0  0  0  0  0  0  0  0  0
   16.5190  -13.6993  -15.3744 C   0  0  0  0  0  0  0  0  0  0  0  0
   17.6193  -13.1243  -14.8059 N   0  0  0  0  0  0  0  0  0  0  0  0
   17.4326   -8.9590  -15.4258 C   0  0  0  0  0  0  0  0  0  0  0  0
   17.3543   -8.2970  -14.3564 O   0  0  0  0  0  0  0  0  0  0  0  0
   16.2979   -9.0104  -16.2237 O   0  0  0  0  0  0  0  0  0  0  0  0
  2  1  1  6
  2  4  1  0
  3  2  1  0
  4  5  1  6
  6  4  1  0
  7  6  2  0
  8  6  1  0
  9  8  1  0
  9 10  1  6
 10 11  1  0
 11 15  1  0
 12 11  2  0
 13  9  1  0
 14 13  2  0
 16 13  1  0
 17 16  1  0
 17 18  1  1
 18 19  1  0
 19 23  1  0
 20 19  2  0
 20 21  1  0
 21 22  1  0
 23 22  2  0
 24 26  1  0
 24 17  1  0
 25 24  2  0
M  END
$$$$
