TDH.pdb
     RDKit          3D

 26 26  0  0  1  0  0  0  0  0999 V2000
   26.6560  -32.7467   -4.6123 C   0  0  0  0  0  0  0  0  0  0  0  0
   26.2806  -32.6994   -3.1689 C   0  0  1  0  0  0  0  0  0  0  0  0
   25.6857  -31.4518   -2.9168 O   0  0  0  0  0  0  0  0  0  0  0  0
   25.2938  -33.7591   -2.7431 C   0  0  2  0  0  0  0  0  0  0  0  0
   24.0939  -33.6105   -3.5542 N   0  0  0  0  0  0  0  0  0  0  0  0
   24.9445  -33.6438   -1.2809 C   0  0  0  0  0  0  0  0  0  0  0  0
   23.9078  -33.0226   -0.9613 O   0  0  0  0  0  0  0  0  0  0  0  0
   25.7637  -34.2203   -0.2956 N   0  0  0  0  0  0  0  0  0  0  0  0
   25.6225  -34.2224    1.1258 C   0  0  1  0  0  0  0  0  0  0  0  0
   26.6512  -35.0338    1.8963 C   0  0  0  0  0  0  0  0  0  0  0  0
   28.0201  -34.4864    1.7926 C   0  0  0  0  0  0  0  0  0  0  0  0
   28.2069  -33.4280    1.1442 O   0  0  0  0  0  0  0  0  0  0  0  0
   25.2583  -32.9582    1.7481 C   0  0  0  0  0  0  0  0  0  0  0  0
   25.7995  -31.9075    1.3265 O   0  0  0  0  0  0  0  0  0  0  0  0
   29.1057  -35.0954    2.3833 O   0  0  0  0  0  0  0  0  0  0  0  0
   24.3278  -32.9016    2.7925 N   0  0  0  0  0  0  0  0  0  0  0  0
   23.8989  -31.6335    3.4037 C   0  0  1  0  0  0  0  0  0  0  0  0
   22.5439  -31.3335    2.7513 C   0  0  0  0  0  0  0  0  0  0  0  0
   21.8467  -30.2297    3.3941 C   0  0  0  0  0  0  0  0  0  0  0  0
   22.3781  -29.3349    4.2930 C   0  0  0  0  0  0  0  0  0  0  0  0
   21.4000  -28.4592    4.6567 N   0  0  0  0  0  0  0  0  0  0  0  0
   20.2859  -28.7955    4.0037 C   0  0  0  0  0  0  0  0  0  0  0  0
   20.5604  -29.8844    3.2269 N   0  0  0  0  0  0  0  0  0  0  0  0
   23.7579  -31.8776    4.8582 C   0  0  0  0  0  0  0  0  0  0  0  0
   23.8989  -33.0519    5.2932 O   0  0  0  0  0  0  0  0  0  0  0  0
   23.4769  -30.8867    5.7888 O   0  0  0  0  0  0  0  0  0  0  0  0
  2  1  1  6
  2  4  1  0
  3  2  1  0
  4  5  1  6
  6  4  1  0
  7  6  2  0
  8  6  1  0
  9  8  1  0
  9 10  1  1
 10 11  1  0
 11 15  1  0
 12 11  2  0
 13  9  1  0
 14 13  2  0
 16 13  1  0
 17 16  1  0
 17 18  1  6
 18 19  1  0
 19 23  1  0
 20 19  2  0
 20 21  1  0
 21 22  1  0
 23 22  2  0
 24 26  1  0
 24 17  1  0
 25 24  2  0
M  END
$$$$
