TDH.pdb
     RDKit          3D

 26 26  0  0  1  0  0  0  0  0999 V2000
   27.2255  -21.1666  -18.7297 C   0  0  0  0  0  0  0  0  0  0  0  0
   26.1435  -20.7468  -17.7919 C   0  0  1  0  0  0  0  0  0  0  0  0
   26.4056  -21.3284  -16.5401 O   0  0  0  0  0  0  0  0  0  0  0  0
   26.0422  -19.2559  -17.5794 C   0  0  2  0  0  0  0  0  0  0  0  0
   27.3613  -18.7617  -17.2117 N   0  0  0  0  0  0  0  0  0  0  0  0
   25.0442  -18.9103  -16.5033 C   0  0  0  0  0  0  0  0  0  0  0  0
   25.4559  -18.7605  -15.3324 O   0  0  0  0  0  0  0  0  0  0  0  0
   23.6804  -18.7591  -16.8055 N   0  0  0  0  0  0  0  0  0  0  0  0
   22.5673  -18.5528  -15.9343 C   0  0  1  0  0  0  0  0  0  0  0  0
   21.4470  -17.6824  -16.4796 C   0  0  0  0  0  0  0  0  0  0  0  0
   21.8986  -16.3308  -16.8714 C   0  0  0  0  0  0  0  0  0  0  0  0
   22.6208  -15.6754  -16.0812 O   0  0  0  0  0  0  0  0  0  0  0  0
   22.1203  -19.7024  -15.1619 C   0  0  0  0  0  0  0  0  0  0  0  0
   22.1105  -20.8275  -15.7173 O   0  0  0  0  0  0  0  0  0  0  0  0
   21.5566  -15.7585  -18.0772 O   0  0  0  0  0  0  0  0  0  0  0  0
   21.7088  -19.5700  -13.8303 N   0  0  0  0  0  0  0  0  0  0  0  0
   21.3928  -20.7286  -12.9798 C   0  0  1  0  0  0  0  0  0  0  0  0
   21.9772  -20.3673  -11.6088 C   0  0  0  0  0  0  0  0  0  0  0  0
   23.3949  -20.6792  -11.5061 C   0  0  0  0  0  0  0  0  0  0  0  0
   24.1851  -21.2403  -12.4819 C   0  0  0  0  0  0  0  0  0  0  0  0
   25.4490  -21.3685  -11.9900 N   0  0  0  0  0  0  0  0  0  0  0  0
   25.4514  -20.9007  -10.7402 C   0  0  0  0  0  0  0  0  0  0  0  0
   24.1881  -20.4765  -10.4425 N   0  0  0  0  0  0  0  0  0  0  0  0
   19.9164  -20.8398  -12.9274 C   0  0  0  0  0  0  0  0  0  0  0  0
   19.2226  -19.8040  -13.1113 O   0  0  0  0  0  0  0  0  0  0  0  0
   19.2344  -22.0245  -12.6860 O   0  0  0  0  0  0  0  0  0  0  0  0
  2  1  1  6
  2  4  1  0
  3  2  1  0
  4  5  1  1
  6  4  1  0
  7  6  2  0
  8  6  1  0
  9  8  1  0
  9 10  1  6
 10 11  1  0
 11 15  1  0
 12 11  2  0
 13  9  1  0
 14 13  2  0
 16 13  1  0
 17 16  1  0
 17 18  1  1
 18 19  1  0
 19 23  1  0
 20 19  2  0
 20 21  1  0
 21 22  1  0
 23 22  2  0
 24 26  1  0
 24 17  1  0
 25 24  2  0
M  END
$$$$
