TDH.pdb
     RDKit          3D

 26 26  0  0  1  0  0  0  0  0999 V2000
   26.0518   -8.9212  -19.2247 C   0  0  0  0  0  0  0  0  0  0  0  0
   24.8026   -9.0028  -18.4127 C   0  0  1  0  0  0  0  0  0  0  0  0
   24.2756  -10.2971  -18.5575 O   0  0  0  0  0  0  0  0  0  0  0  0
   24.9988   -8.7631  -16.9354 C   0  0  2  0  0  0  0  0  0  0  0  0
   25.9849   -9.7179  -16.4503 N   0  0  0  0  0  0  0  0  0  0  0  0
   23.7107   -8.9178  -16.1672 C   0  0  0  0  0  0  0  0  0  0  0  0
   23.4862  -10.0034  -15.5894 O   0  0  0  0  0  0  0  0  0  0  0  0
   22.7801   -7.8673  -16.0997 N   0  0  0  0  0  0  0  0  0  0  0  0
   21.5481   -7.7806  -15.3818 C   0  0  1  0  0  0  0  0  0  0  0  0
   21.1569   -6.3948  -14.8951 C   0  0  0  0  0  0  0  0  0  0  0  0
   22.1382   -5.8089  -13.9581 C   0  0  0  0  0  0  0  0  0  0  0  0
   22.3052   -6.3443  -12.8352 O   0  0  0  0  0  0  0  0  0  0  0  0
   20.4415   -8.5812  -15.8840 C   0  0  0  0  0  0  0  0  0  0  0  0
   20.1273   -8.4731  -17.0940 O   0  0  0  0  0  0  0  0  0  0  0  0
   22.8817   -4.6917  -14.2705 O   0  0  0  0  0  0  0  0  0  0  0  0
   19.7363   -9.4551  -15.0481 N   0  0  0  0  0  0  0  0  0  0  0  0
   18.6743  -10.3437  -15.5461 C   0  0  1  0  0  0  0  0  0  0  0  0
   18.4720  -11.3659  -14.4210 C   0  0  0  0  0  0  0  0  0  0  0  0
   17.4273  -12.3323  -14.7255 C   0  0  0  0  0  0  0  0  0  0  0  0
   17.2264  -12.9738  -15.9252 C   0  0  0  0  0  0  0  0  0  0  0  0
   16.1472  -13.7953  -15.7975 N   0  0  0  0  0  0  0  0  0  0  0  0
   15.6841  -13.6723  -14.5521 C   0  0  0  0  0  0  0  0  0  0  0  0
   16.4715  -12.7727  -13.8924 N   0  0  0  0  0  0  0  0  0  0  0  0
   17.4661   -9.5092  -15.7437 C   0  0  0  0  0  0  0  0  0  0  0  0
   17.2666   -8.5366  -14.9677 O   0  0  0  0  0  0  0  0  0  0  0  0
   16.5247   -9.7283  -16.7400 O   0  0  0  0  0  0  0  0  0  0  0  0
  2  1  1  6
  2  4  1  0
  3  2  1  0
  4  5  1  1
  6  4  1  0
  7  6  2  0
  8  6  1  0
  9  8  1  0
  9 10  1  6
 10 11  1  0
 11 15  1  0
 12 11  2  0
 13  9  1  0
 14 13  2  0
 16 13  1  0
 17 16  1  0
 17 18  1  1
 18 19  1  0
 19 23  1  0
 20 19  2  0
 20 21  1  0
 21 22  1  0
 23 22  2  0
 24 26  1  0
 24 17  1  0
 25 24  2  0
M  END
$$$$
