TDH.pdb
     RDKit          3D

 26 26  0  0  1  0  0  0  0  0999 V2000
   31.0614  -21.6900  -13.3541 C   0  0  0  0  0  0  0  0  0  0  0  0
   29.9572  -20.7775  -13.7722 C   0  0  1  0  0  0  0  0  0  0  0  0
   30.4897  -19.8353  -14.6680 O   0  0  0  0  0  0  0  0  0  0  0  0
   28.8101  -21.4628  -14.4742 C   0  0  2  0  0  0  0  0  0  0  0  0
   29.3158  -22.0322  -15.7150 N   0  0  0  0  0  0  0  0  0  0  0  0
   27.6822  -20.5065  -14.7684 C   0  0  0  0  0  0  0  0  0  0  0  0
   27.9082  -19.5259  -15.5102 O   0  0  0  0  0  0  0  0  0  0  0  0
   26.4034  -20.7090  -14.2226 N   0  0  0  0  0  0  0  0  0  0  0  0
   25.1419  -20.1712  -14.6224 C   0  0  1  0  0  0  0  0  0  0  0  0
   24.9202  -20.0350  -16.1199 C   0  0  0  0  0  0  0  0  0  0  0  0
   25.0159  -18.6396  -16.5974 C   0  0  0  0  0  0  0  0  0  0  0  0
   24.1118  -18.1851  -17.3401 O   0  0  0  0  0  0  0  0  0  0  0  0
   23.9753  -20.6170  -13.8753 C   0  0  0  0  0  0  0  0  0  0  0  0
   22.8450  -20.2039  -14.2308 O   0  0  0  0  0  0  0  0  0  0  0  0
   26.0643  -17.8128  -16.2572 O   0  0  0  0  0  0  0  0  0  0  0  0
   24.0970  -21.4860  -12.7845 N   0  0  0  0  0  0  0  0  0  0  0  0
   23.5188  -21.1868  -11.4648 C   0  0  1  0  0  0  0  0  0  0  0  0
   24.1261  -19.8325  -11.0793 C   0  0  0  0  0  0  0  0  0  0  0  0
   25.0930  -19.9416   -9.9971 C   0  0  0  0  0  0  0  0  0  0  0  0
   25.5473  -21.1022   -9.4158 C   0  0  0  0  0  0  0  0  0  0  0  0
   26.4420  -20.7733   -8.4425 N   0  0  0  0  0  0  0  0  0  0  0  0
   26.5459  -19.4432   -8.4143 C   0  0  0  0  0  0  0  0  0  0  0  0
   25.7164  -18.9315   -9.3706 N   0  0  0  0  0  0  0  0  0  0  0  0
   22.0513  -21.0912  -11.6445 C   0  0  0  0  0  0  0  0  0  0  0  0
   21.6015  -20.5915  -12.7104 O   0  0  0  0  0  0  0  0  0  0  0  0
   21.1237  -21.5209  -10.7055 O   0  0  0  0  0  0  0  0  0  0  0  0
  2  1  1  6
  2  4  1  0
  3  2  1  0
  4  5  1  6
  6  4  1  0
  7  6  2  0
  8  6  1  0
  9  8  1  0
  9 10  1  6
 10 11  1  0
 11 15  1  0
 12 11  2  0
 13  9  1  0
 14 13  2  0
 16 13  1  0
 17 16  1  0
 17 18  1  6
 18 19  1  0
 19 23  1  0
 20 19  2  0
 20 21  1  0
 21 22  1  0
 23 22  2  0
 24 26  1  0
 24 17  1  0
 25 24  2  0
M  END
$$$$
