TDH.pdb
     RDKit          3D

 26 26  0  0  1  0  0  0  0  0999 V2000
   25.4239  -12.3139  -15.6685 C   0  0  0  0  0  0  0  0  0  0  0  0
   25.4422  -13.0771  -16.9505 C   0  0  1  0  0  0  0  0  0  0  0  0
   26.3651  -14.1279  -16.8158 O   0  0  0  0  0  0  0  0  0  0  0  0
   24.1177  -13.6921  -17.3325 C   0  0  2  0  0  0  0  0  0  0  0  0
   24.3149  -14.4702  -18.5470 N   0  0  0  0  0  0  0  0  0  0  0  0
   23.0581  -12.6436  -17.5588 C   0  0  0  0  0  0  0  0  0  0  0  0
   23.1869  -11.8632  -18.5269 O   0  0  0  0  0  0  0  0  0  0  0  0
   21.9487  -12.5423  -16.7027 N   0  0  0  0  0  0  0  0  0  0  0  0
   20.9298  -11.5430  -16.6392 C   0  0  1  0  0  0  0  0  0  0  0  0
   19.5013  -12.0533  -16.5440 C   0  0  0  0  0  0  0  0  0  0  0  0
   18.4926  -10.9756  -16.6173 C   0  0  0  0  0  0  0  0  0  0  0  0
   18.1672  -10.3713  -15.5664 O   0  0  0  0  0  0  0  0  0  0  0  0
   21.2115  -10.3739  -15.8196 C   0  0  0  0  0  0  0  0  0  0  0  0
   21.5217  -10.5489  -14.6164 O   0  0  0  0  0  0  0  0  0  0  0  0
   17.8919  -10.6057  -17.8008 O   0  0  0  0  0  0  0  0  0  0  0  0
   21.1421   -9.0795  -16.3485 N   0  0  0  0  0  0  0  0  0  0  0  0
   21.4126   -7.8786  -15.5421 C   0  0  1  0  0  0  0  0  0  0  0  0
   21.6767   -6.7761  -16.5748 C   0  0  0  0  0  0  0  0  0  0  0  0
   21.9651   -5.4902  -15.9575 C   0  0  0  0  0  0  0  0  0  0  0  0
   22.2856   -5.2656  -14.6391 C   0  0  0  0  0  0  0  0  0  0  0  0
   22.4807   -3.9284  -14.4663 N   0  0  0  0  0  0  0  0  0  0  0  0
   22.2878   -3.3310  -15.6439 C   0  0  0  0  0  0  0  0  0  0  0  0
   21.9709   -4.2914  -16.5613 N   0  0  0  0  0  0  0  0  0  0  0  0
   20.1900   -7.6003  -14.7529 C   0  0  0  0  0  0  0  0  0  0  0  0
   20.2895   -7.4762  -13.5028 O   0  0  0  0  0  0  0  0  0  0  0  0
   18.9232   -7.4647  -15.3042 O   0  0  0  0  0  0  0  0  0  0  0  0
  2  1  1  1
  2  4  1  0
  3  2  1  0
  4  5  1  6
  6  4  1  0
  7  6  2  0
  8  6  1  0
  9  8  1  0
  9 10  1  1
 10 11  1  0
 11 15  1  0
 12 11  2  0
 13  9  1  0
 14 13  2  0
 16 13  1  0
 17 16  1  0
 17 18  1  6
 18 19  1  0
 19 23  1  0
 20 19  2  0
 20 21  1  0
 21 22  1  0
 23 22  2  0
 24 26  1  0
 24 17  1  0
 25 24  2  0
M  END
$$$$
