TDH.pdb
     RDKit          3D

 26 26  0  0  1  0  0  0  0  0999 V2000
   15.5549  -11.0933  -16.0170 C   0  0  0  0  0  0  0  0  0  0  0  0
   15.6807  -12.3468  -15.2174 C   0  0  1  0  0  0  0  0  0  0  0  0
   14.5171  -13.1078  -15.4190 O   0  0  0  0  0  0  0  0  0  0  0  0
   16.8546  -13.2166  -15.5966 C   0  0  2  0  0  0  0  0  0  0  0  0
   16.8217  -14.4085  -14.7612 N   0  0  0  0  0  0  0  0  0  0  0  0
   18.1667  -12.4965  -15.4151 C   0  0  0  0  0  0  0  0  0  0  0  0
   18.5240  -12.1881  -14.2575 O   0  0  0  0  0  0  0  0  0  0  0  0
   18.9734  -12.1768  -16.5202 N   0  0  0  0  0  0  0  0  0  0  0  0
   20.2198  -11.4809  -16.5728 C   0  0  1  0  0  0  0  0  0  0  0  0
   21.3039  -12.1196  -17.4255 C   0  0  0  0  0  0  0  0  0  0  0  0
   22.5991  -11.4125  -17.3452 C   0  0  0  0  0  0  0  0  0  0  0  0
   23.1476  -11.2682  -16.2255 O   0  0  0  0  0  0  0  0  0  0  0  0
   20.1547  -10.0299  -16.6625 C   0  0  0  0  0  0  0  0  0  0  0  0
   19.4282   -9.5184  -17.5487 O   0  0  0  0  0  0  0  0  0  0  0  0
   23.2324  -10.9025  -18.4576 O   0  0  0  0  0  0  0  0  0  0  0  0
   20.8797   -9.2125  -15.7872 N   0  0  0  0  0  0  0  0  0  0  0  0
   20.7796   -7.7445  -15.8079 C   0  0  1  0  0  0  0  0  0  0  0  0
   21.5139   -7.2931  -14.5396 C   0  0  0  0  0  0  0  0  0  0  0  0
   21.5806   -5.8444  -14.4184 C   0  0  0  0  0  0  0  0  0  0  0  0
   22.6693   -5.0474  -14.6842 C   0  0  0  0  0  0  0  0  0  0  0  0
   22.3213   -3.7518  -14.4469 N   0  0  0  0  0  0  0  0  0  0  0  0
   21.0494   -3.7368  -14.0436 C   0  0  0  0  0  0  0  0  0  0  0  0
   20.5935   -5.0238  -14.0261 N   0  0  0  0  0  0  0  0  0  0  0  0
   21.4740   -7.2785  -17.0309 C   0  0  0  0  0  0  0  0  0  0  0  0
   22.3632   -8.0116  -17.5408 O   0  0  0  0  0  0  0  0  0  0  0  0
   21.2083   -6.0718  -17.6635 O   0  0  0  0  0  0  0  0  0  0  0  0
  2  1  1  6
  2  4  1  0
  3  2  1  0
  4  5  1  1
  6  4  1  0
  7  6  2  0
  8  6  1  0
  9  8  1  0
  9 10  1  6
 10 11  1  0
 11 15  1  0
 12 11  2  0
 13  9  1  0
 14 13  2  0
 16 13  1  0
 17 16  1  0
 17 18  1  1
 18 19  1  0
 19 23  1  0
 20 19  2  0
 20 21  1  0
 21 22  1  0
 23 22  2  0
 24 26  1  0
 24 17  1  0
 25 24  2  0
M  END
$$$$
