LFY.pdb
     RDKit          3D

 32 33  0  0  1  0  0  0  0  0999 V2000
   10.4108  -20.9655   19.4499 C   0  0  0  0  0  0  0  0  0  0  0  0
   10.0522  -19.5775   18.9678 C   0  0  2  0  0  0  0  0  0  0  0  0
   10.7514  -19.2366   17.6726 C   0  0  0  0  0  0  0  0  0  0  0  0
   10.2801  -18.5317   20.0178 C   0  0  0  0  0  0  0  0  0  0  0  0
    9.6810  -17.1956   19.6359 C   0  0  2  0  0  0  0  0  0  0  0  0
   10.3100  -16.6148   18.4905 N   0  0  0  0  0  0  0  0  0  0  0  0
    9.7412  -16.2585   20.7767 C   0  0  0  0  0  0  0  0  0  0  0  0
   10.7387  -15.4923   20.9473 O   0  0  0  0  0  0  0  0  0  0  0  0
    8.6874  -16.1902   21.7104 N   0  0  0  0  0  0  0  0  0  0  0  0
    8.6934  -15.1318   22.7625 C   0  0  1  0  0  0  0  0  0  0  0  0
    7.3148  -14.6291   22.9534 C   0  0  0  0  0  0  0  0  0  0  0  0
    7.0469  -13.8245   24.1626 C   0  0  0  0  0  0  0  0  0  0  0  0
    7.4662  -12.5219   24.2772 C   0  0  0  0  0  0  0  0  0  0  0  0
    7.2019  -11.7455   25.3626 C   0  0  0  0  0  0  0  0  0  0  0  0
    6.4680  -12.3092   26.4059 C   0  0  0  0  0  0  0  0  0  0  0  0
    6.0447  -13.6106   26.3001 C   0  0  0  0  0  0  0  0  0  0  0  0
    6.3232  -14.3768   25.1942 C   0  0  0  0  0  0  0  0  0  0  0  0
    9.3634  -15.7426   23.9264 C   0  0  0  0  0  0  0  0  0  0  0  0
    9.1330  -16.9841   24.2012 O   0  0  0  0  0  0  0  0  0  0  0  0
   11.9824  -17.1520   32.0703 O   0  0  0  0  0  0  0  0  0  0  0  0
   11.7766  -16.5226   30.8511 C   0  0  0  0  0  0  0  0  0  0  0  0
   10.9421  -15.4542   30.6727 C   0  0  0  0  0  0  0  0  0  0  0  0
   10.7876  -14.8789   29.4273 C   0  0  0  0  0  0  0  0  0  0  0  0
   11.4672  -15.3544   28.3046 C   0  0  0  0  0  0  0  0  0  0  0  0
   11.2351  -14.7044   27.0045 C   0  0  0  0  0  0  0  0  0  0  0  0
   10.6221  -15.7195   26.0547 C   0  0  2  0  0  0  0  0  0  0  0  0
   10.2698  -15.0879   24.7992 N   0  0  0  0  0  0  0  0  0  0  0  0
    9.5017  -16.4559   26.6283 C   0  0  0  0  0  0  0  0  0  0  0  0
    8.3288  -15.9792   26.7347 O   0  0  0  0  0  0  0  0  0  0  0  0
   12.2993  -16.4323   28.5223 C   0  0  0  0  0  0  0  0  0  0  0  0
   12.4621  -17.0159   29.7624 C   0  0  0  0  0  0  0  0  0  0  0  0
    9.6771  -17.7493   27.0952 O   0  0  0  0  0  0  0  0  0  0  0  0
  2  3  1  6
  2  1  1  0
  4  2  1  0
  5  4  1  0
  5  6  1  6
  7  8  2  0
  7  5  1  0
  9  7  1  0
 10  9  1  0
 11 12  1  0
 10 11  1  1
 12 13  2  0
 12 17  1  0
 13 14  1  0
 14 15  2  0
 16 15  1  0
 17 16  2  0
 18 10  1  0
 18 19  2  0
 20 21  1  0
 21 22  2  0
 22 23  1  0
 24 25  1  0
 24 23  2  0
 26 27  1  0
 26 25  1  1
 27 18  1  0
 28 26  1  0
 29 28  2  0
 30 24  1  0
 31 30  2  0
 31 21  1  0
 32 28  1  0
M  END
$$$$
