LFY.pdb
     RDKit          3D

 32 33  0  0  1  0  0  0  0  0999 V2000
    6.9338  -14.8184   17.6722 C   0  0  0  0  0  0  0  0  0  0  0  0
    7.9520  -14.0486   18.4834 C   0  0  2  0  0  0  0  0  0  0  0  0
    8.0622  -12.6126   18.0267 C   0  0  0  0  0  0  0  0  0  0  0  0
    9.2880  -14.7285   18.5161 C   0  0  0  0  0  0  0  0  0  0  0  0
    9.3803  -15.7585   19.6209 C   0  0  2  0  0  0  0  0  0  0  0  0
    8.3095  -16.7055   19.5850 N   0  0  0  0  0  0  0  0  0  0  0  0
    9.4268  -15.0961   20.9408 C   0  0  0  0  0  0  0  0  0  0  0  0
   10.3696  -14.3030   21.2465 O   0  0  0  0  0  0  0  0  0  0  0  0
    8.4207  -15.3283   21.9003 N   0  0  0  0  0  0  0  0  0  0  0  0
    8.4405  -14.5842   23.1938 C   0  0  1  0  0  0  0  0  0  0  0  0
    7.0510  -14.3937   23.6657 C   0  0  0  0  0  0  0  0  0  0  0  0
    6.8571  -13.6321   24.9162 C   0  0  0  0  0  0  0  0  0  0  0  0
    6.3002  -14.2005   26.0352 C   0  0  0  0  0  0  0  0  0  0  0  0
    6.1435  -13.5349   27.2113 C   0  0  0  0  0  0  0  0  0  0  0  0
    6.5729  -12.2096   27.2740 C   0  0  0  0  0  0  0  0  0  0  0  0
    7.1309  -11.6330   26.1603 C   0  0  0  0  0  0  0  0  0  0  0  0
    7.2794  -12.3243   24.9823 C   0  0  0  0  0  0  0  0  0  0  0  0
    9.3585  -15.3419   24.0656 C   0  0  0  0  0  0  0  0  0  0  0  0
    9.4410  -16.6237   23.9244 O   0  0  0  0  0  0  0  0  0  0  0  0
   11.8989  -18.2522   31.7694 O   0  0  0  0  0  0  0  0  0  0  0  0
   11.7026  -17.3874   30.7024 C   0  0  0  0  0  0  0  0  0  0  0  0
   10.9406  -16.2539   30.7663 C   0  0  0  0  0  0  0  0  0  0  0  0
   10.7910  -15.4402   29.6612 C   0  0  0  0  0  0  0  0  0  0  0  0
   11.4027  -15.7319   28.4409 C   0  0  0  0  0  0  0  0  0  0  0  0
   11.1793  -14.8297   27.2995 C   0  0  0  0  0  0  0  0  0  0  0  0
   10.7122  -15.6532   26.1114 C   0  0  2  0  0  0  0  0  0  0  0  0
   10.1926  -14.7890   25.0709 N   0  0  0  0  0  0  0  0  0  0  0  0
    9.7701  -16.7088   26.4648 C   0  0  0  0  0  0  0  0  0  0  0  0
   10.0583  -17.9458   26.4367 O   0  0  0  0  0  0  0  0  0  0  0  0
   12.1628  -16.8822   28.4139 C   0  0  0  0  0  0  0  0  0  0  0  0
   12.3200  -17.7035   29.5119 C   0  0  0  0  0  0  0  0  0  0  0  0
    8.4791  -16.3940   26.8598 O   0  0  0  0  0  0  0  0  0  0  0  0
  2  3  1  6
  2  1  1  0
  4  2  1  0
  5  4  1  0
  5  6  1  1
  7  8  2  0
  7  5  1  0
  9  7  1  0
 10  9  1  0
 11 12  1  0
 10 11  1  1
 12 13  2  0
 12 17  1  0
 13 14  1  0
 14 15  2  0
 16 15  1  0
 17 16  2  0
 18 10  1  0
 18 19  2  0
 20 21  1  0
 21 22  2  0
 22 23  1  0
 24 25  1  0
 24 23  2  0
 26 27  1  0
 26 25  1  1
 27 18  1  0
 28 26  1  0
 29 28  2  0
 30 24  1  0
 31 30  2  0
 31 21  1  0
 32 28  1  0
M  END
$$$$
