LFY.pdb
     RDKit          3D

 32 33  0  0  1  0  0  0  0  0999 V2000
    8.5503  -16.2924   16.8736 C   0  0  0  0  0  0  0  0  0  0  0  0
    8.4391  -14.9338   17.5289 C   0  0  2  0  0  0  0  0  0  0  0  0
    8.3300  -13.8263   16.5070 C   0  0  0  0  0  0  0  0  0  0  0  0
    9.5439  -14.6814   18.5106 C   0  0  0  0  0  0  0  0  0  0  0  0
    9.5644  -15.7037   19.6261 C   0  0  2  0  0  0  0  0  0  0  0  0
    8.4651  -16.6157   19.5607 N   0  0  0  0  0  0  0  0  0  0  0  0
    9.5873  -15.0312   20.9416 C   0  0  0  0  0  0  0  0  0  0  0  0
   10.5345  -14.2507   21.2655 O   0  0  0  0  0  0  0  0  0  0  0  0
    8.5530  -15.2395   21.8763 N   0  0  0  0  0  0  0  0  0  0  0  0
    8.5227  -14.4475   23.1408 C   0  0  1  0  0  0  0  0  0  0  0  0
    7.1197  -14.1113   23.4697 C   0  0  0  0  0  0  0  0  0  0  0  0
    6.8814  -13.3059   24.6846 C   0  0  0  0  0  0  0  0  0  0  0  0
    7.2371  -11.9819   24.7609 C   0  0  0  0  0  0  0  0  0  0  0  0
    6.9966  -11.2061   25.8523 C   0  0  0  0  0  0  0  0  0  0  0  0
    6.3564  -11.7936   26.9431 C   0  0  0  0  0  0  0  0  0  0  0  0
    5.9972  -13.1166   26.8757 C   0  0  0  0  0  0  0  0  0  0  0  0
    6.2501  -13.8817   25.7629 C   0  0  0  0  0  0  0  0  0  0  0  0
    9.2791  -15.2494   24.1214 C   0  0  0  0  0  0  0  0  0  0  0  0
    9.3306  -16.5322   23.9747 O   0  0  0  0  0  0  0  0  0  0  0  0
   12.6636  -18.5357   31.4278 O   0  0  0  0  0  0  0  0  0  0  0  0
   12.3139  -17.6299   30.4367 C   0  0  0  0  0  0  0  0  0  0  0  0
   11.3476  -16.6734   30.5807 C   0  0  0  0  0  0  0  0  0  0  0  0
   11.0538  -15.8052   29.5483 C   0  0  0  0  0  0  0  0  0  0  0  0
   11.7209  -15.8615   28.3235 C   0  0  0  0  0  0  0  0  0  0  0  0
   11.3382  -14.9174   27.2609 C   0  0  0  0  0  0  0  0  0  0  0  0
   10.5358  -15.6657   26.2100 C   0  0  2  0  0  0  0  0  0  0  0  0
    9.9849  -14.7397   25.2412 N   0  0  0  0  0  0  0  0  0  0  0  0
    9.5137  -16.5431   26.7686 C   0  0  0  0  0  0  0  0  0  0  0  0
    8.3494  -16.1492   27.0901 O   0  0  0  0  0  0  0  0  0  0  0  0
   12.6884  -16.8381   28.2147 C   0  0  0  0  0  0  0  0  0  0  0  0
   12.9909  -17.7117   29.2395 C   0  0  0  0  0  0  0  0  0  0  0  0
    9.7802  -17.8873   26.9774 O   0  0  0  0  0  0  0  0  0  0  0  0
  2  3  1  6
  2  1  1  0
  4  2  1  0
  5  4  1  0
  5  6  1  1
  7  8  2  0
  7  5  1  0
  9  7  1  0
 10  9  1  0
 11 12  1  0
 10 11  1  1
 12 13  2  0
 12 17  1  0
 13 14  1  0
 14 15  2  0
 16 15  1  0
 17 16  2  0
 18 10  1  0
 18 19  2  0
 20 21  1  0
 21 22  2  0
 22 23  1  0
 24 25  1  0
 24 23  2  0
 26 27  1  0
 26 25  1  1
 27 18  1  0
 28 26  1  0
 29 28  2  0
 30 24  1  0
 31 30  2  0
 31 21  1  0
 32 28  1  0
M  END
$$$$
