LFY.pdb
     RDKit          3D

 32 33  0  0  1  0  0  0  0  0999 V2000
    6.8724  -13.8021   18.4657 C   0  0  0  0  0  0  0  0  0  0  0  0
    8.2823  -13.4420   18.8781 C   0  0  2  0  0  0  0  0  0  0  0  0
    8.6671  -12.0586   18.4084 C   0  0  0  0  0  0  0  0  0  0  0  0
    9.2828  -14.4748   18.4533 C   0  0  0  0  0  0  0  0  0  0  0  0
    9.2450  -15.7057   19.3328 C   0  0  2  0  0  0  0  0  0  0  0  0
    8.0273  -16.4433   19.1995 N   0  0  0  0  0  0  0  0  0  0  0  0
    9.4611  -15.3359   20.7469 C   0  0  0  0  0  0  0  0  0  0  0  0
   10.5456  -14.7976   21.1282 O   0  0  0  0  0  0  0  0  0  0  0  0
    8.4640  -15.5720   21.7148 N   0  0  0  0  0  0  0  0  0  0  0  0
    8.6230  -15.0268   23.0949 C   0  0  1  0  0  0  0  0  0  0  0  0
    7.3151  -14.5263   23.5730 C   0  0  0  0  0  0  0  0  0  0  0  0
    7.3042  -13.7446   24.8260 C   0  0  0  0  0  0  0  0  0  0  0  0
    7.8306  -12.4784   24.8980 C   0  0  0  0  0  0  0  0  0  0  0  0
    7.8013  -11.7210   26.0277 C   0  0  0  0  0  0  0  0  0  0  0  0
    7.2048  -12.2661   27.1643 C   0  0  0  0  0  0  0  0  0  0  0  0
    6.6759  -13.5312   27.1017 C   0  0  0  0  0  0  0  0  0  0  0  0
    6.7167  -14.2787   25.9496 C   0  0  0  0  0  0  0  0  0  0  0  0
    9.2640  -16.1066   23.8693 C   0  0  0  0  0  0  0  0  0  0  0  0
    9.0413  -17.3346   23.5343 O   0  0  0  0  0  0  0  0  0  0  0  0
    9.9514  -14.7532   31.3153 O   0  0  0  0  0  0  0  0  0  0  0  0
   10.4606  -15.2447   30.1220 C   0  0  0  0  0  0  0  0  0  0  0  0
   10.9550  -16.5097   29.9644 C   0  0  0  0  0  0  0  0  0  0  0  0
   11.4460  -16.9292   28.7442 C   0  0  0  0  0  0  0  0  0  0  0  0
   11.4612  -16.0925   27.6270 C   0  0  0  0  0  0  0  0  0  0  0  0
   12.0210  -16.6017   26.3645 C   0  0  0  0  0  0  0  0  0  0  0  0
   10.8788  -17.0667   25.4773 C   0  0  2  0  0  0  0  0  0  0  0  0
   10.1339  -15.9296   24.9757 N   0  0  0  0  0  0  0  0  0  0  0  0
   10.0097  -18.0520   26.1100 C   0  0  0  0  0  0  0  0  0  0  0  0
    8.7727  -17.8608   26.3274 O   0  0  0  0  0  0  0  0  0  0  0  0
   10.9550  -14.8249   27.8234 C   0  0  0  0  0  0  0  0  0  0  0  0
   10.4614  -14.3941   29.0382 C   0  0  0  0  0  0  0  0  0  0  0  0
   10.5154  -19.2785   26.5123 O   0  0  0  0  0  0  0  0  0  0  0  0
  2  3  1  6
  2  1  1  0
  4  2  1  0
  5  4  1  0
  5  6  1  1
  7  8  2  0
  7  5  1  0
  9  7  1  0
 10  9  1  0
 11 12  1  0
 10 11  1  1
 12 13  2  0
 12 17  1  0
 13 14  1  0
 14 15  2  0
 16 15  1  0
 17 16  2  0
 18 10  1  0
 18 19  2  0
 20 21  1  0
 21 22  2  0
 22 23  1  0
 24 25  1  0
 24 23  2  0
 26 27  1  0
 26 25  1  1
 27 18  1  0
 28 26  1  0
 29 28  2  0
 30 24  1  0
 31 30  2  0
 31 21  1  0
 32 28  1  0
M  END
$$$$
