LFY.pdb
     RDKit          3D

 32 33  0  0  1  0  0  0  0  0999 V2000
    6.6548  -14.0615   18.2637 C   0  0  0  0  0  0  0  0  0  0  0  0
    8.0457  -13.5035   18.4674 C   0  0  2  0  0  0  0  0  0  0  0  0
    8.2445  -12.2071   17.7174 C   0  0  0  0  0  0  0  0  0  0  0  0
    9.1150  -14.5043   18.1464 C   0  0  0  0  0  0  0  0  0  0  0  0
    9.0958  -15.6868   19.0906 C   0  0  2  0  0  0  0  0  0  0  0  0
    7.8787  -16.4336   19.0169 N   0  0  0  0  0  0  0  0  0  0  0  0
    9.3339  -15.2416   20.4793 C   0  0  0  0  0  0  0  0  0  0  0  0
   10.4188  -14.6725   20.8113 O   0  0  0  0  0  0  0  0  0  0  0  0
    8.3578  -15.4381   21.4770 N   0  0  0  0  0  0  0  0  0  0  0  0
    8.5697  -14.8800   22.8449 C   0  0  1  0  0  0  0  0  0  0  0  0
    7.2564  -14.5651   23.4496 C   0  0  0  0  0  0  0  0  0  0  0  0
    7.2576  -13.9339   24.7849 C   0  0  0  0  0  0  0  0  0  0  0  0
    7.5605  -12.6063   24.9616 C   0  0  0  0  0  0  0  0  0  0  0  0
    7.5335  -11.9895   26.1738 C   0  0  0  0  0  0  0  0  0  0  0  0
    7.1794  -12.7516   27.2868 C   0  0  0  0  0  0  0  0  0  0  0  0
    6.8751  -14.0796   27.1197 C   0  0  0  0  0  0  0  0  0  0  0  0
    6.9089  -14.6822   25.8855 C   0  0  0  0  0  0  0  0  0  0  0  0
    9.4216  -15.8639   23.5398 C   0  0  0  0  0  0  0  0  0  0  0  0
    8.9735  -17.0621   23.7221 O   0  0  0  0  0  0  0  0  0  0  0  0
   11.0544  -16.1348   31.7965 O   0  0  0  0  0  0  0  0  0  0  0  0
   10.8585  -15.7959   30.4655 C   0  0  0  0  0  0  0  0  0  0  0  0
   10.8169  -14.5105   30.0012 C   0  0  0  0  0  0  0  0  0  0  0  0
   10.6177  -14.2500   28.6602 C   0  0  0  0  0  0  0  0  0  0  0  0
   10.4512  -15.2734   27.7257 C   0  0  0  0  0  0  0  0  0  0  0  0
   10.2205  -14.9188   26.3159 C   0  0  0  0  0  0  0  0  0  0  0  0
   11.0071  -15.8768   25.4374 C   0  0  2  0  0  0  0  0  0  0  0  0
   10.7278  -15.6240   24.0383 N   0  0  0  0  0  0  0  0  0  0  0  0
   10.8186  -17.2801   25.7865 C   0  0  0  0  0  0  0  0  0  0  0  0
   11.7644  -18.0465   26.1501 O   0  0  0  0  0  0  0  0  0  0  0  0
   10.4989  -16.5561   28.2300 C   0  0  0  0  0  0  0  0  0  0  0  0
   10.6974  -16.8291   29.5683 C   0  0  0  0  0  0  0  0  0  0  0  0
    9.5574  -17.8531   25.7346 O   0  0  0  0  0  0  0  0  0  0  0  0
  2  3  1  6
  2  1  1  0
  4  2  1  0
  5  4  1  0
  5  6  1  1
  7  8  2  0
  7  5  1  0
  9  7  1  0
 10  9  1  0
 11 12  1  0
 10 11  1  1
 12 13  2  0
 12 17  1  0
 13 14  1  0
 14 15  2  0
 16 15  1  0
 17 16  2  0
 18 10  1  0
 18 19  2  0
 20 21  1  0
 21 22  2  0
 22 23  1  0
 24 25  1  0
 24 23  2  0
 26 27  1  0
 26 25  1  1
 27 18  1  0
 28 26  1  0
 29 28  2  0
 30 24  1  0
 31 30  2  0
 31 21  1  0
 32 28  1  0
M  END
$$$$
