LFY.pdb
     RDKit          3D

 32 33  0  0  1  0  0  0  0  0999 V2000
    8.5387  -19.8997   18.1226 C   0  0  0  0  0  0  0  0  0  0  0  0
    9.9823  -19.7223   18.5374 C   0  0  2  0  0  0  0  0  0  0  0  0
   10.6163  -21.0349   18.9345 C   0  0  0  0  0  0  0  0  0  0  0  0
   10.1466  -18.6781   19.6008 C   0  0  0  0  0  0  0  0  0  0  0  0
    9.4285  -17.3913   19.2568 C   0  0  2  0  0  0  0  0  0  0  0  0
    9.9141  -16.7920   18.0528 N   0  0  0  0  0  0  0  0  0  0  0  0
    9.5260  -16.4313   20.3757 C   0  0  0  0  0  0  0  0  0  0  0  0
   10.5614  -15.7157   20.5408 O   0  0  0  0  0  0  0  0  0  0  0  0
    8.4669  -16.2838   21.2941 N   0  0  0  0  0  0  0  0  0  0  0  0
    8.5791  -15.2951   22.4063 C   0  0  1  0  0  0  0  0  0  0  0  0
    7.2233  -14.8539   22.8024 C   0  0  0  0  0  0  0  0  0  0  0  0
    7.1018  -14.0673   24.0465 C   0  0  0  0  0  0  0  0  0  0  0  0
    6.5508  -14.5934   25.1890 C   0  0  0  0  0  0  0  0  0  0  0  0
    6.4598  -13.9054   26.3590 C   0  0  0  0  0  0  0  0  0  0  0  0
    6.9532  -12.6014   26.3902 C   0  0  0  0  0  0  0  0  0  0  0  0
    7.5057  -12.0672   25.2529 C   0  0  0  0  0  0  0  0  0  0  0  0
    7.5874  -12.7805   24.0815 C   0  0  0  0  0  0  0  0  0  0  0  0
    9.4080  -15.9552   23.4328 C   0  0  0  0  0  0  0  0  0  0  0  0
    9.0496  -17.1147   23.8766 O   0  0  0  0  0  0  0  0  0  0  0  0
   11.2680  -15.7360   31.6976 O   0  0  0  0  0  0  0  0  0  0  0  0
   10.8820  -15.6122   30.3707 C   0  0  0  0  0  0  0  0  0  0  0  0
   10.2421  -16.5932   29.6652 C   0  0  0  0  0  0  0  0  0  0  0  0
    9.8883  -16.3975   28.3453 C   0  0  0  0  0  0  0  0  0  0  0  0
   10.1634  -15.2039   27.6760 C   0  0  0  0  0  0  0  0  0  0  0  0
    9.7762  -15.0759   26.2616 C   0  0  0  0  0  0  0  0  0  0  0  0
   10.8793  -15.6653   25.3991 C   0  0  2  0  0  0  0  0  0  0  0  0
   10.6011  -15.4342   23.9960 N   0  0  0  0  0  0  0  0  0  0  0  0
   11.1519  -17.0707   25.6770 C   0  0  0  0  0  0  0  0  0  0  0  0
   10.3016  -17.9986   25.5039 O   0  0  0  0  0  0  0  0  0  0  0  0
   10.8093  -14.2380   28.4186 C   0  0  0  0  0  0  0  0  0  0  0  0
   11.1681  -14.4218   29.7386 C   0  0  0  0  0  0  0  0  0  0  0  0
   12.3919  -17.4637   26.1563 O   0  0  0  0  0  0  0  0  0  0  0  0
  2  3  1  1
  2  1  1  0
  4  2  1  0
  5  4  1  0
  5  6  1  6
  7  8  2  0
  7  5  1  0
  9  7  1  0
 10  9  1  0
 11 12  1  0
 10 11  1  1
 12 13  2  0
 12 17  1  0
 13 14  1  0
 14 15  2  0
 16 15  1  0
 17 16  2  0
 18 10  1  0
 18 19  2  0
 20 21  1  0
 21 22  2  0
 22 23  1  0
 24 25  1  0
 24 23  2  0
 26 27  1  0
 26 25  1  1
 27 18  1  0
 28 26  1  0
 29 28  2  0
 30 24  1  0
 31 30  2  0
 31 21  1  0
 32 28  1  0
M  END
$$$$
