LFY.pdb
     RDKit          3D

 32 33  0  0  1  0  0  0  0  0999 V2000
    7.2053  -14.5514   16.9971 C   0  0  0  0  0  0  0  0  0  0  0  0
    8.0474  -13.6848   17.9066 C   0  0  2  0  0  0  0  0  0  0  0  0
    8.1648  -12.2723   17.3835 C   0  0  0  0  0  0  0  0  0  0  0  0
    9.3902  -14.2894   18.1888 C   0  0  0  0  0  0  0  0  0  0  0  0
    9.2986  -15.4822   19.1156 C   0  0  2  0  0  0  0  0  0  0  0  0
    8.1037  -16.2432   18.9210 N   0  0  0  0  0  0  0  0  0  0  0  0
    9.3999  -15.0494   20.5247 C   0  0  0  0  0  0  0  0  0  0  0  0
   10.3647  -14.3275   20.9239 O   0  0  0  0  0  0  0  0  0  0  0  0
    8.4231  -15.4283   21.4676 N   0  0  0  0  0  0  0  0  0  0  0  0
    8.4903  -14.8993   22.8615 C   0  0  1  0  0  0  0  0  0  0  0  0
    7.1158  -14.7160   23.3781 C   0  0  0  0  0  0  0  0  0  0  0  0
    6.9653  -14.0398   24.6825 C   0  0  0  0  0  0  0  0  0  0  0  0
    6.8395  -14.7422   25.8557 C   0  0  0  0  0  0  0  0  0  0  0  0
    6.7368  -14.1470   27.0747 C   0  0  0  0  0  0  0  0  0  0  0  0
    6.7615  -12.7536   27.1254 C   0  0  0  0  0  0  0  0  0  0  0  0
    6.8869  -12.0431   25.9576 C   0  0  0  0  0  0  0  0  0  0  0  0
    6.9892  -12.6653   24.7369 C   0  0  0  0  0  0  0  0  0  0  0  0
    9.3734  -15.8301   23.5897 C   0  0  0  0  0  0  0  0  0  0  0  0
    9.6379  -16.9814   23.0659 O   0  0  0  0  0  0  0  0  0  0  0  0
    9.4755  -15.4521   31.1769 O   0  0  0  0  0  0  0  0  0  0  0  0
   10.1033  -15.3878   29.9413 C   0  0  0  0  0  0  0  0  0  0  0  0
   10.2534  -14.2370   29.2183 C   0  0  0  0  0  0  0  0  0  0  0  0
   10.8907  -14.2503   27.9937 C   0  0  0  0  0  0  0  0  0  0  0  0
   11.4059  -15.4244   27.4420 C   0  0  0  0  0  0  0  0  0  0  0  0
   12.0529  -15.3654   26.1212 C   0  0  0  0  0  0  0  0  0  0  0  0
   11.2538  -16.2162   25.1486 C   0  0  2  0  0  0  0  0  0  0  0  0
    9.9881  -15.5803   24.8435 N   0  0  0  0  0  0  0  0  0  0  0  0
   11.0796  -17.5967   25.5848 C   0  0  0  0  0  0  0  0  0  0  0  0
   12.0452  -18.3998   25.7768 O   0  0  0  0  0  0  0  0  0  0  0  0
   11.2362  -16.5646   28.1989 C   0  0  0  0  0  0  0  0  0  0  0  0
   10.6010  -16.5639   29.4242 C   0  0  0  0  0  0  0  0  0  0  0  0
    9.8107  -18.1050   25.8161 O   0  0  0  0  0  0  0  0  0  0  0  0
  2  3  1  6
  2  1  1  0
  4  2  1  0
  5  4  1  0
  5  6  1  1
  7  8  2  0
  7  5  1  0
  9  7  1  0
 10  9  1  0
 11 12  1  0
 10 11  1  1
 12 13  2  0
 12 17  1  0
 13 14  1  0
 14 15  2  0
 16 15  1  0
 17 16  2  0
 18 10  1  0
 18 19  2  0
 20 21  1  0
 21 22  2  0
 22 23  1  0
 24 25  1  0
 24 23  2  0
 26 27  1  0
 26 25  1  1
 27 18  1  0
 28 26  1  0
 29 28  2  0
 30 24  1  0
 31 30  2  0
 31 21  1  0
 32 28  1  0
M  END
$$$$
