LFY.pdb
     RDKit          3D

 32 33  0  0  1  0  0  0  0  0999 V2000
    8.1531  -20.5174   19.8436 C   0  0  0  0  0  0  0  0  0  0  0  0
    9.5515  -19.9426   19.8818 C   0  0  2  0  0  0  0  0  0  0  0  0
   10.5782  -20.9908   20.2422 C   0  0  0  0  0  0  0  0  0  0  0  0
    9.6492  -18.7369   20.7677 C   0  0  0  0  0  0  0  0  0  0  0  0
    8.6021  -17.6957   20.4367 C   0  0  2  0  0  0  0  0  0  0  0  0
    8.6376  -17.2923   19.0653 N   0  0  0  0  0  0  0  0  0  0  0  0
    8.7509  -16.5173   21.3155 C   0  0  0  0  0  0  0  0  0  0  0  0
    9.4687  -15.5277   20.9738 O   0  0  0  0  0  0  0  0  0  0  0  0
    8.0966  -16.4603   22.5627 N   0  0  0  0  0  0  0  0  0  0  0  0
    8.2200  -15.2395   23.4123 C   0  0  1  0  0  0  0  0  0  0  0  0
    7.0107  -15.1103   24.2552 C   0  0  0  0  0  0  0  0  0  0  0  0
    6.9693  -13.9892   25.2158 C   0  0  0  0  0  0  0  0  0  0  0  0
    7.6559  -14.0239   26.4044 C   0  0  0  0  0  0  0  0  0  0  0  0
    7.6663  -12.9920   27.2909 C   0  0  0  0  0  0  0  0  0  0  0  0
    6.9405  -11.8459   26.9677 C   0  0  0  0  0  0  0  0  0  0  0  0
    6.2510  -11.8022   25.7816 C   0  0  0  0  0  0  0  0  0  0  0  0
    6.2544  -12.8567   24.9008 C   0  0  0  0  0  0  0  0  0  0  0  0
    9.5187  -15.3723   24.0995 C   0  0  0  0  0  0  0  0  0  0  0  0
   10.0024  -14.3515   24.7270 O   0  0  0  0  0  0  0  0  0  0  0  0
   10.5328  -14.8724   30.8479 O   0  0  0  0  0  0  0  0  0  0  0  0
   10.8057  -15.5477   29.6671 C   0  0  0  0  0  0  0  0  0  0  0  0
   10.8914  -16.9086   29.5662 C   0  0  0  0  0  0  0  0  0  0  0  0
   11.1670  -17.5111   28.3550 C   0  0  0  0  0  0  0  0  0  0  0  0
   11.3688  -16.7691   27.1900 C   0  0  0  0  0  0  0  0  0  0  0  0
   11.6810  -17.4797   25.9393 C   0  0  0  0  0  0  0  0  0  0  0  0
   11.6139  -16.4912   24.7875 C   0  0  2  0  0  0  0  0  0  0  0  0
   10.3138  -16.5460   24.1501 N   0  0  0  0  0  0  0  0  0  0  0  0
   12.6998  -16.6388   23.8253 C   0  0  0  0  0  0  0  0  0  0  0  0
   13.9272  -16.5072   24.1259 O   0  0  0  0  0  0  0  0  0  0  0  0
   11.2749  -15.4005   27.3299 C   0  0  0  0  0  0  0  0  0  0  0  0
   10.9999  -14.7867   28.5351 C   0  0  0  0  0  0  0  0  0  0  0  0
   12.4272  -16.9396   22.4998 O   0  0  0  0  0  0  0  0  0  0  0  0
  2  3  1  1
  2  1  1  0
  4  2  1  0
  5  4  1  0
  5  6  1  6
  7  8  2  0
  7  5  1  0
  9  7  1  0
 10  9  1  0
 11 12  1  0
 10 11  1  1
 12 13  2  0
 12 17  1  0
 13 14  1  0
 14 15  2  0
 16 15  1  0
 17 16  2  0
 18 10  1  0
 18 19  2  0
 20 21  1  0
 21 22  2  0
 22 23  1  0
 24 25  1  0
 24 23  2  0
 26 27  1  0
 26 25  1  1
 27 18  1  0
 28 26  1  0
 29 28  2  0
 30 24  1  0
 31 30  2  0
 31 21  1  0
 32 28  1  0
M  END
$$$$
