QHI.pdb
     RDKit          3D

 28 28  0  0  1  0  0  0  0  0999 V2000
   16.0265  -16.5303   22.7484 N   0  0  0  0  0  0  0  0  0  0  0  0
   16.0269  -15.2465   22.1414 C   0  0  0  0  0  0  0  0  0  0  0  0
   16.9705  -14.4645   22.4046 O   0  0  0  0  0  0  0  0  0  0  0  0
   14.9641  -14.8179   21.2243 C   0  0  0  0  0  0  0  0  0  0  0  0
   13.9249  -15.8413   20.9234 C   0  0  0  0  0  0  0  0  0  0  0  0
   12.9395  -15.4331   19.8630 C   0  0  2  0  0  0  0  0  0  0  0  0
   13.6026  -14.5089   18.9335 N   0  0  0  0  0  0  0  0  0  0  0  0
   11.8110  -14.7007   20.4757 C   0  0  0  0  0  0  0  0  0  0  0  0
   11.8691  -13.4810   20.6573 O   0  0  0  0  0  0  0  0  0  0  0  0
   10.6085  -15.3534   20.8848 N   0  0  0  0  0  0  0  0  0  0  0  0
    9.4523  -14.6447   21.3949 C   0  0  1  0  0  0  0  0  0  0  0  0
    8.1946  -15.0045   20.6649 C   0  0  0  0  0  0  0  0  0  0  0  0
    8.0334  -14.4702   19.3259 C   0  0  0  0  0  0  0  0  0  0  0  0
    8.9014  -13.6528   18.6207 C   0  0  0  0  0  0  0  0  0  0  0  0
    8.3699  -13.3884   17.4117 N   0  0  0  0  0  0  0  0  0  0  0  0
    7.1942  -14.0185   17.3435 C   0  0  0  0  0  0  0  0  0  0  0  0
    7.0004  -14.6602   18.4863 N   0  0  0  0  0  0  0  0  0  0  0  0
    9.3845  -14.6162   22.8478 C   0  0  0  0  0  0  0  0  0  0  0  0
   10.1981  -15.3205   23.5086 O   0  0  0  0  0  0  0  0  0  0  0  0
    7.3129  -11.3409   27.6237 C   0  0  0  0  0  0  0  0  0  0  0  0
    7.7378  -12.7309   27.1922 C   0  0  0  0  0  0  0  0  0  0  0  0
    7.6566  -12.7700   25.6875 C   0  0  2  0  0  0  0  0  0  0  0  0
    6.2119  -12.8497   25.2443 C   0  0  0  0  0  0  0  0  0  0  0  0
    8.4929  -13.8752   25.0886 C   0  0  2  0  0  0  0  0  0  0  0  0
    8.4828  -13.8662   23.6486 N   0  0  0  0  0  0  0  0  0  0  0  0
    7.9967  -15.1766   25.5832 C   0  0  0  0  0  0  0  0  0  0  0  0
    8.1616  -15.4585   26.7883 O   0  0  0  0  0  0  0  0  0  0  0  0
    7.3621  -16.0822   24.7625 O   0  0  0  0  0  0  0  0  0  0  0  0
  2  1  1  0
  2  3  2  0
  4  5  1  0
  4  2  1  0
  5  6  1  0
  6  8  1  0
  6  7  1  6
  8  9  2  0
 10  8  1  0
 10 11  1  0
 11 12  1  6
 13 12  1  0
 14 13  2  0
 15 14  1  0
 16 15  1  0
 16 17  2  0
 17 13  1  0
 18 19  2  0
 18 11  1  0
 21 20  1  0
 21 22  1  0
 22 24  1  0
 22 23  1  1
 24 25  1  6
 25 18  1  0
 26 24  1  0
 26 28  1  0
 27 26  2  0
M  END
$$$$
