QHI.pdb
     RDKit          3D

 28 28  0  0  1  0  0  0  0  0999 V2000
    9.8244  -13.8787   17.0137 N   0  0  0  0  0  0  0  0  0  0  0  0
    8.4393  -13.9260   16.7042 C   0  0  0  0  0  0  0  0  0  0  0  0
    8.0953  -14.3679   15.5828 O   0  0  0  0  0  0  0  0  0  0  0  0
    7.4132  -13.4768   17.6527 C   0  0  0  0  0  0  0  0  0  0  0  0
    7.8979  -13.1789   19.0289 C   0  0  0  0  0  0  0  0  0  0  0  0
    8.7059  -14.2819   19.6556 C   0  0  2  0  0  0  0  0  0  0  0  0
    8.7258  -15.4305   18.7402 N   0  0  0  0  0  0  0  0  0  0  0  0
    8.0619  -14.7326   20.9074 C   0  0  0  0  0  0  0  0  0  0  0  0
    7.4139  -13.9482   21.6066 O   0  0  0  0  0  0  0  0  0  0  0  0
    8.1515  -16.0805   21.3705 N   0  0  0  0  0  0  0  0  0  0  0  0
    7.6849  -16.5069   22.6743 C   0  0  1  0  0  0  0  0  0  0  0  0
    7.6019  -17.9980   22.7912 C   0  0  0  0  0  0  0  0  0  0  0  0
    7.2268  -18.5383   24.0841 C   0  0  0  0  0  0  0  0  0  0  0  0
    6.8849  -17.8460   25.2342 C   0  0  0  0  0  0  0  0  0  0  0  0
    6.6040  -18.7299   26.2109 N   0  0  0  0  0  0  0  0  0  0  0  0
    6.7613  -19.9544   25.7015 C   0  0  0  0  0  0  0  0  0  0  0  0
    7.1322  -19.8328   24.4354 N   0  0  0  0  0  0  0  0  0  0  0  0
    8.3132  -15.7944   23.7761 C   0  0  0  0  0  0  0  0  0  0  0  0
    9.5470  -15.5347   23.7077 O   0  0  0  0  0  0  0  0  0  0  0  0
    5.6959  -11.8234   26.3811 C   0  0  0  0  0  0  0  0  0  0  0  0
    6.7396  -12.6152   25.6179 C   0  0  0  0  0  0  0  0  0  0  0  0
    7.4129  -13.5290   26.6098 C   0  0  2  0  0  0  0  0  0  0  0  0
    8.1111  -12.7161   27.6784 C   0  0  0  0  0  0  0  0  0  0  0  0
    8.3463  -14.5159   25.9509 C   0  0  2  0  0  0  0  0  0  0  0  0
    7.6888  -15.3357   24.9664 N   0  0  0  0  0  0  0  0  0  0  0  0
    8.9524  -15.3737   26.9908 C   0  0  0  0  0  0  0  0  0  0  0  0
    8.4436  -16.4923   27.2118 O   0  0  0  0  0  0  0  0  0  0  0  0
   10.0533  -14.9811   27.7188 O   0  0  0  0  0  0  0  0  0  0  0  0
  2  1  1  0
  2  3  2  0
  4  5  1  0
  4  2  1  0
  5  6  1  0
  6  8  1  0
  6  7  1  6
  8  9  2  0
 10  8  1  0
 10 11  1  0
 11 12  1  1
 13 12  1  0
 14 13  2  0
 15 14  1  0
 16 15  1  0
 16 17  2  0
 17 13  1  0
 18 19  2  0
 18 11  1  0
 21 20  1  0
 21 22  1  0
 22 24  1  0
 22 23  1  1
 24 25  1  6
 25 18  1  0
 26 24  1  0
 26 28  1  0
 27 26  2  0
M  END
$$$$
