QHI.pdb
     RDKit          3D

 28 28  0  0  1  0  0  0  0  0999 V2000
    7.6286  -19.3330   17.3140 N   0  0  0  0  0  0  0  0  0  0  0  0
    7.9753  -18.0942   16.7127 C   0  0  0  0  0  0  0  0  0  0  0  0
    8.3332  -18.0957   15.5114 O   0  0  0  0  0  0  0  0  0  0  0  0
    7.9251  -16.8277   17.4529 C   0  0  0  0  0  0  0  0  0  0  0  0
    7.4831  -16.9306   18.8713 C   0  0  0  0  0  0  0  0  0  0  0  0
    8.5649  -16.6591   19.8804 C   0  0  2  0  0  0  0  0  0  0  0  0
    9.4662  -17.8180   19.9290 N   0  0  0  0  0  0  0  0  0  0  0  0
    7.9744  -16.5088   21.2273 C   0  0  0  0  0  0  0  0  0  0  0  0
    7.1091  -15.6570   21.4500 O   0  0  0  0  0  0  0  0  0  0  0  0
    8.3658  -17.3287   22.3290 N   0  0  0  0  0  0  0  0  0  0  0  0
    7.7573  -17.2423   23.6411 C   0  0  1  0  0  0  0  0  0  0  0  0
    7.5500  -18.5888   24.2639 C   0  0  0  0  0  0  0  0  0  0  0  0
    6.5792  -19.4640   23.6346 C   0  0  0  0  0  0  0  0  0  0  0  0
    5.7777  -19.2028   22.5354 C   0  0  0  0  0  0  0  0  0  0  0  0
    5.0196  -20.2860   22.2782 N   0  0  0  0  0  0  0  0  0  0  0  0
    5.3265  -21.2157   23.1867 C   0  0  0  0  0  0  0  0  0  0  0  0
    6.2553  -20.7196   23.9908 N   0  0  0  0  0  0  0  0  0  0  0  0
    8.3415  -16.2104   24.4840 C   0  0  0  0  0  0  0  0  0  0  0  0
    9.5743  -15.9608   24.3737 O   0  0  0  0  0  0  0  0  0  0  0  0
    5.5529  -11.8903   26.4705 C   0  0  0  0  0  0  0  0  0  0  0  0
    6.6554  -12.6743   25.7861 C   0  0  0  0  0  0  0  0  0  0  0  0
    7.3994  -13.4218   26.8632 C   0  0  2  0  0  0  0  0  0  0  0  0
    8.1128  -12.4487   27.7766 C   0  0  0  0  0  0  0  0  0  0  0  0
    8.3380  -14.4645   26.3052 C   0  0  2  0  0  0  0  0  0  0  0  0
    7.6732  -15.4167   25.4537 N   0  0  0  0  0  0  0  0  0  0  0  0
    8.9950  -15.1699   27.4256 C   0  0  0  0  0  0  0  0  0  0  0  0
    9.9970  -14.6455   27.9546 O   0  0  0  0  0  0  0  0  0  0  0  0
    8.5400  -16.3793   27.9015 O   0  0  0  0  0  0  0  0  0  0  0  0
  2  1  1  0
  2  3  2  0
  4  5  1  0
  4  2  1  0
  5  6  1  0
  6  8  1  0
  6  7  1  1
  8  9  2  0
 10  8  1  0
 10 11  1  0
 11 12  1  1
 13 12  1  0
 14 13  2  0
 15 14  1  0
 16 15  1  0
 16 17  2  0
 17 13  1  0
 18 19  2  0
 18 11  1  0
 21 20  1  0
 21 22  1  0
 22 24  1  0
 22 23  1  6
 24 25  1  1
 25 18  1  0
 26 24  1  0
 26 28  1  0
 27 26  2  0
M  END
$$$$
