QHI.pdb
     RDKit          3D

 28 28  0  0  1  0  0  0  0  0999 V2000
   11.9805  -14.7267   20.3418 N   0  0  0  0  0  0  0  0  0  0  0  0
   12.1027  -13.7663   19.3030 C   0  0  0  0  0  0  0  0  0  0  0  0
   13.2426  -13.5400   18.8333 O   0  0  0  0  0  0  0  0  0  0  0  0
   10.9423  -13.0416   18.7714 C   0  0  0  0  0  0  0  0  0  0  0  0
    9.6361  -13.3659   19.4089 C   0  0  0  0  0  0  0  0  0  0  0  0
    9.1837  -14.7865   19.2109 C   0  0  2  0  0  0  0  0  0  0  0  0
    8.1314  -14.8079   18.1862 N   0  0  0  0  0  0  0  0  0  0  0  0
    8.5875  -15.3066   20.4596 C   0  0  0  0  0  0  0  0  0  0  0  0
    7.4022  -15.0959   20.7334 O   0  0  0  0  0  0  0  0  0  0  0  0
    9.3378  -16.0708   21.4042 N   0  0  0  0  0  0  0  0  0  0  0  0
    8.7625  -16.6338   22.6089 C   0  0  1  0  0  0  0  0  0  0  0  0
    8.8750  -18.1269   22.6512 C   0  0  0  0  0  0  0  0  0  0  0  0
    8.2865  -18.8641   21.5491 C   0  0  0  0  0  0  0  0  0  0  0  0
    6.9478  -18.9715   21.2096 C   0  0  0  0  0  0  0  0  0  0  0  0
    6.8337  -19.7502   20.1166 N   0  0  0  0  0  0  0  0  0  0  0  0
    8.0645  -20.1314   19.7651 C   0  0  0  0  0  0  0  0  0  0  0  0
    8.9241  -19.6004   20.6221 N   0  0  0  0  0  0  0  0  0  0  0  0
    9.1282  -15.9119   23.8179 C   0  0  0  0  0  0  0  0  0  0  0  0
   10.3291  -15.5538   23.9727 O   0  0  0  0  0  0  0  0  0  0  0  0
    6.0221  -12.1396   26.1093 C   0  0  0  0  0  0  0  0  0  0  0  0
    7.1905  -12.9034   25.5175 C   0  0  0  0  0  0  0  0  0  0  0  0
    7.6742  -13.8605   26.5768 C   0  0  2  0  0  0  0  0  0  0  0  0
    8.1689  -13.0956   27.7852 C   0  0  0  0  0  0  0  0  0  0  0  0
    8.7107  -14.8277   26.0573 C   0  0  2  0  0  0  0  0  0  0  0  0
    8.2705  -15.5443   24.8885 N   0  0  0  0  0  0  0  0  0  0  0  0
    9.0562  -15.7848   27.1292 C   0  0  0  0  0  0  0  0  0  0  0  0
    8.5029  -16.9040   27.1302 O   0  0  0  0  0  0  0  0  0  0  0  0
    9.9635  -15.4835   28.1204 O   0  0  0  0  0  0  0  0  0  0  0  0
  2  1  1  0
  2  3  2  0
  4  5  1  0
  4  2  1  0
  5  6  1  0
  6  8  1  0
  6  7  1  6
  8  9  2  0
 10  8  1  0
 10 11  1  0
 11 12  1  1
 13 12  1  0
 14 13  2  0
 15 14  1  0
 16 15  1  0
 16 17  2  0
 17 13  1  0
 18 19  2  0
 18 11  1  0
 21 20  1  0
 21 22  1  0
 22 24  1  0
 22 23  1  1
 24 25  1  6
 25 18  1  0
 26 24  1  0
 26 28  1  0
 27 26  2  0
M  END
$$$$
