QHI.pdb
     RDKit          3D

 28 28  0  0  1  0  0  0  0  0999 V2000
    8.5826  -12.1158   18.8208 N   0  0  0  0  0  0  0  0  0  0  0  0
    9.3971  -12.8421   19.7295 C   0  0  0  0  0  0  0  0  0  0  0  0
   10.2245  -12.2072   20.4248 O   0  0  0  0  0  0  0  0  0  0  0  0
    9.2952  -14.2992   19.8738 C   0  0  0  0  0  0  0  0  0  0  0  0
    8.2387  -14.9530   19.0528 C   0  0  0  0  0  0  0  0  0  0  0  0
    7.9733  -16.3895   19.4111 C   0  0  2  0  0  0  0  0  0  0  0  0
    6.8706  -16.8873   18.5780 N   0  0  0  0  0  0  0  0  0  0  0  0
    7.5348  -16.4872   20.8194 C   0  0  0  0  0  0  0  0  0  0  0  0
    6.4641  -15.9945   21.1870 O   0  0  0  0  0  0  0  0  0  0  0  0
    8.3131  -17.1476   21.8180 N   0  0  0  0  0  0  0  0  0  0  0  0
    7.8848  -17.2915   23.1947 C   0  0  1  0  0  0  0  0  0  0  0  0
    7.8757  -18.7208   23.6430 C   0  0  0  0  0  0  0  0  0  0  0  0
    7.5279  -18.9753   25.0281 C   0  0  0  0  0  0  0  0  0  0  0  0
    7.0916  -18.0696   25.9811 C   0  0  0  0  0  0  0  0  0  0  0  0
    6.8795  -18.7211   27.1407 N   0  0  0  0  0  0  0  0  0  0  0  0
    7.1717  -20.0083   26.9371 C   0  0  0  0  0  0  0  0  0  0  0  0
    7.5570  -20.1524   25.6777 N   0  0  0  0  0  0  0  0  0  0  0  0
    8.4924  -16.3235   24.0948 C   0  0  0  0  0  0  0  0  0  0  0  0
    9.7196  -16.0568   23.9628 O   0  0  0  0  0  0  0  0  0  0  0  0
    5.7877  -12.0458   26.3173 C   0  0  0  0  0  0  0  0  0  0  0  0
    6.8267  -12.8638   25.5756 C   0  0  0  0  0  0  0  0  0  0  0  0
    7.5848  -13.6565   26.6095 C   0  0  2  0  0  0  0  0  0  0  0  0
    8.2984  -12.7231   27.5633 C   0  0  0  0  0  0  0  0  0  0  0  0
    8.5265  -14.6638   25.9947 C   0  0  2  0  0  0  0  0  0  0  0  0
    7.8538  -15.6121   25.1450 N   0  0  0  0  0  0  0  0  0  0  0  0
    9.2391  -15.3786   27.0745 C   0  0  0  0  0  0  0  0  0  0  0  0
    8.7849  -16.4740   27.4651 O   0  0  0  0  0  0  0  0  0  0  0  0
   10.3807  -14.8780   27.6595 O   0  0  0  0  0  0  0  0  0  0  0  0
  2  1  1  0
  2  3  2  0
  4  5  1  0
  4  2  1  0
  5  6  1  0
  6  8  1  0
  6  7  1  6
  8  9  2  0
 10  8  1  0
 10 11  1  0
 11 12  1  1
 13 12  1  0
 14 13  2  0
 15 14  1  0
 16 15  1  0
 16 17  2  0
 17 13  1  0
 18 19  2  0
 18 11  1  0
 21 20  1  0
 21 22  1  0
 22 24  1  0
 22 23  1  6
 24 25  1  1
 25 18  1  0
 26 24  1  0
 26 28  1  0
 27 26  2  0
M  END
$$$$
