QHI.pdb
     RDKit          3D

 28 28  0  0  1  0  0  0  0  0999 V2000
    7.6541  -12.3573   18.4950 N   0  0  0  0  0  0  0  0  0  0  0  0
    8.4242  -13.4472   18.9803 C   0  0  0  0  0  0  0  0  0  0  0  0
    9.6732  -13.3414   18.9760 O   0  0  0  0  0  0  0  0  0  0  0  0
    7.8024  -14.6787   19.4813 C   0  0  0  0  0  0  0  0  0  0  0  0
    8.5740  -15.9299   19.2433 C   0  0  0  0  0  0  0  0  0  0  0  0
    7.9104  -17.1770   19.7595 C   0  0  2  0  0  0  0  0  0  0  0  0
    6.7274  -17.4576   18.9351 N   0  0  0  0  0  0  0  0  0  0  0  0
    7.4369  -16.9627   21.1433 C   0  0  0  0  0  0  0  0  0  0  0  0
    6.3212  -16.4835   21.3659 O   0  0  0  0  0  0  0  0  0  0  0  0
    8.2316  -17.2937   22.2828 N   0  0  0  0  0  0  0  0  0  0  0  0
    7.7301  -17.2542   23.6415 C   0  0  1  0  0  0  0  0  0  0  0  0
    7.6546  -18.6157   24.2617 C   0  0  0  0  0  0  0  0  0  0  0  0
    6.5916  -19.4906   23.8045 C   0  0  0  0  0  0  0  0  0  0  0  0
    5.6527  -19.2512   22.8146 C   0  0  0  0  0  0  0  0  0  0  0  0
    4.8474  -20.3252   22.7051 N   0  0  0  0  0  0  0  0  0  0  0  0
    5.2582  -21.2279   23.5996 C   0  0  0  0  0  0  0  0  0  0  0  0
    6.2966  -20.7244   24.2505 N   0  0  0  0  0  0  0  0  0  0  0  0
    8.3206  -16.1962   24.4467 C   0  0  0  0  0  0  0  0  0  0  0  0
    9.5574  -15.9665   24.3367 O   0  0  0  0  0  0  0  0  0  0  0  0
    5.6193  -11.7078   26.2584 C   0  0  0  0  0  0  0  0  0  0  0  0
    6.6440  -12.6117   25.6013 C   0  0  0  0  0  0  0  0  0  0  0  0
    7.3951  -13.3056   26.7088 C   0  0  2  0  0  0  0  0  0  0  0  0
    8.1198  -12.2896   27.5647 C   0  0  0  0  0  0  0  0  0  0  0  0
    8.3252  -14.3791   26.1969 C   0  0  2  0  0  0  0  0  0  0  0  0
    7.6549  -15.3556   25.3779 N   0  0  0  0  0  0  0  0  0  0  0  0
    8.9673  -15.0487   27.3476 C   0  0  0  0  0  0  0  0  0  0  0  0
    8.4845  -16.1251   27.7564 O   0  0  0  0  0  0  0  0  0  0  0  0
   10.0741  -14.5265   27.9789 O   0  0  0  0  0  0  0  0  0  0  0  0
  2  1  1  0
  2  3  2  0
  4  5  1  0
  4  2  1  0
  5  6  1  0
  6  8  1  0
  6  7  1  6
  8  9  2  0
 10  8  1  0
 10 11  1  0
 11 12  1  1
 13 12  1  0
 14 13  2  0
 15 14  1  0
 16 15  1  0
 16 17  2  0
 17 13  1  0
 18 19  2  0
 18 11  1  0
 21 20  1  0
 21 22  1  0
 22 24  1  0
 22 23  1  6
 24 25  1  1
 25 18  1  0
 26 24  1  0
 26 28  1  0
 27 26  2  0
M  END
$$$$
