QHI.pdb
     RDKit          3D

 28 28  0  0  1  0  0  0  0  0999 V2000
    8.8429  -12.1963   18.0422 N   0  0  0  0  0  0  0  0  0  0  0  0
    9.0536  -12.8204   19.3003 C   0  0  0  0  0  0  0  0  0  0  0  0
   10.1940  -13.2737   19.5556 O   0  0  0  0  0  0  0  0  0  0  0  0
    7.9835  -12.9455   20.2970 C   0  0  0  0  0  0  0  0  0  0  0  0
    6.8731  -13.8690   19.9337 C   0  0  0  0  0  0  0  0  0  0  0  0
    7.2393  -15.3272   19.9736 C   0  0  2  0  0  0  0  0  0  0  0  0
    6.0961  -16.1140   19.4922 N   0  0  0  0  0  0  0  0  0  0  0  0
    7.5011  -15.7454   21.3670 C   0  0  0  0  0  0  0  0  0  0  0  0
    6.5934  -15.7727   22.2033 O   0  0  0  0  0  0  0  0  0  0  0  0
    8.7991  -16.1359   21.8166 N   0  0  0  0  0  0  0  0  0  0  0  0
    9.0476  -16.7221   23.1182 C   0  0  1  0  0  0  0  0  0  0  0  0
    9.9809  -17.8917   23.0485 C   0  0  0  0  0  0  0  0  0  0  0  0
   10.2888  -18.5649   24.2960 C   0  0  0  0  0  0  0  0  0  0  0  0
    9.8303  -18.2620   25.5676 C   0  0  0  0  0  0  0  0  0  0  0  0
   10.3594  -19.1368   26.4444 N   0  0  0  0  0  0  0  0  0  0  0  0
   11.1352  -19.9771   25.7546 C   0  0  0  0  0  0  0  0  0  0  0  0
   11.0886  -19.6307   24.4766 N   0  0  0  0  0  0  0  0  0  0  0  0
    9.3032  -15.7372   24.1580 C   0  0  0  0  0  0  0  0  0  0  0  0
   10.2639  -14.9313   24.0094 O   0  0  0  0  0  0  0  0  0  0  0  0
    6.0800  -12.1582   26.1387 C   0  0  0  0  0  0  0  0  0  0  0  0
    7.2516  -12.9674   25.6178 C   0  0  0  0  0  0  0  0  0  0  0  0
    7.8383  -13.7030   26.7954 C   0  0  2  0  0  0  0  0  0  0  0  0
    8.2667  -12.7209   27.8640 C   0  0  0  0  0  0  0  0  0  0  0  0
    8.9604  -14.6327   26.4001 C   0  0  2  0  0  0  0  0  0  0  0  0
    8.5797  -15.5609   25.3672 N   0  0  0  0  0  0  0  0  0  0  0  0
    9.4149  -15.3742   27.5952 C   0  0  0  0  0  0  0  0  0  0  0  0
   10.0103  -14.7466   28.4954 O   0  0  0  0  0  0  0  0  0  0  0  0
    9.2039  -16.7266   27.7462 O   0  0  0  0  0  0  0  0  0  0  0  0
  2  1  1  0
  2  3  2  0
  4  5  1  0
  4  2  1  0
  5  6  1  0
  6  8  1  0
  6  7  1  1
  8  9  2  0
 10  8  1  0
 10 11  1  0
 11 12  1  6
 13 12  1  0
 14 13  2  0
 15 14  1  0
 16 15  1  0
 16 17  2  0
 17 13  1  0
 18 19  2  0
 18 11  1  0
 21 20  1  0
 21 22  1  0
 22 24  1  0
 22 23  1  1
 24 25  1  6
 25 18  1  0
 26 24  1  0
 26 28  1  0
 27 26  2  0
M  END
$$$$
