QHI.pdb
     RDKit          3D

 28 28  0  0  1  0  0  0  0  0999 V2000
    8.2411  -12.1762   18.9425 N   0  0  0  0  0  0  0  0  0  0  0  0
    8.2981  -13.1652   17.9250 C   0  0  0  0  0  0  0  0  0  0  0  0
    8.2654  -12.7907   16.7292 O   0  0  0  0  0  0  0  0  0  0  0  0
    8.3940  -14.5967   18.2344 C   0  0  0  0  0  0  0  0  0  0  0  0
    8.4201  -14.9398   19.6833 C   0  0  0  0  0  0  0  0  0  0  0  0
    8.6709  -16.3942   19.9732 C   0  0  2  0  0  0  0  0  0  0  0  0
    7.6449  -17.1946   19.2918 N   0  0  0  0  0  0  0  0  0  0  0  0
    8.5346  -16.6523   21.4223 C   0  0  0  0  0  0  0  0  0  0  0  0
    7.4222  -16.7241   21.9529 O   0  0  0  0  0  0  0  0  0  0  0  0
    9.6652  -16.8311   22.2763 N   0  0  0  0  0  0  0  0  0  0  0  0
    9.5555  -17.1154   23.6928 C   0  0  1  0  0  0  0  0  0  0  0  0
   10.2862  -18.3637   24.0824 C   0  0  0  0  0  0  0  0  0  0  0  0
    9.8310  -19.6067   23.4893 C   0  0  0  0  0  0  0  0  0  0  0  0
    8.7656  -20.4013   23.8797 C   0  0  0  0  0  0  0  0  0  0  0  0
    8.6889  -21.4663   23.0588 N   0  0  0  0  0  0  0  0  0  0  0  0
    9.6773  -21.3578   22.1670 C   0  0  0  0  0  0  0  0  0  0  0  0
   10.3530  -20.2488   22.4293 N   0  0  0  0  0  0  0  0  0  0  0  0
    9.7542  -15.9464   24.5356 C   0  0  0  0  0  0  0  0  0  0  0  0
   10.8270  -15.2901   24.4222 O   0  0  0  0  0  0  0  0  0  0  0  0
    5.9374  -12.3487   25.8168 C   0  0  0  0  0  0  0  0  0  0  0  0
    7.2144  -13.0410   25.3824 C   0  0  0  0  0  0  0  0  0  0  0  0
    7.9458  -13.4456   26.6368 C   0  0  2  0  0  0  0  0  0  0  0  0
    8.2975  -12.2215   27.4541 C   0  0  0  0  0  0  0  0  0  0  0  0
    9.1562  -14.3025   26.3535 C   0  0  2  0  0  0  0  0  0  0  0  0
    8.8579  -15.4295   25.5084 N   0  0  0  0  0  0  0  0  0  0  0  0
    9.7222  -14.7749   27.6346 C   0  0  0  0  0  0  0  0  0  0  0  0
   10.3471  -13.9614   28.3463 O   0  0  0  0  0  0  0  0  0  0  0  0
    9.5829  -16.0754   28.0654 O   0  0  0  0  0  0  0  0  0  0  0  0
  2  1  1  0
  2  3  2  0
  4  5  1  0
  4  2  1  0
  5  6  1  0
  6  8  1  0
  6  7  1  6
  8  9  2  0
 10  8  1  0
 10 11  1  0
 11 12  1  1
 13 12  1  0
 14 13  2  0
 15 14  1  0
 16 15  1  0
 16 17  2  0
 17 13  1  0
 18 19  2  0
 18 11  1  0
 21 20  1  0
 21 22  1  0
 22 24  1  0
 22 23  1  6
 24 25  1  6
 25 18  1  0
 26 24  1  0
 26 28  1  0
 27 26  2  0
M  END
$$$$
