QHI.pdb
     RDKit          3D

 28 28  0  0  1  0  0  0  0  0999 V2000
    7.0381  -15.6261   16.4751 N   0  0  0  0  0  0  0  0  0  0  0  0
    7.5278  -14.3243   16.1886 C   0  0  0  0  0  0  0  0  0  0  0  0
    7.6953  -14.0026   14.9888 O   0  0  0  0  0  0  0  0  0  0  0  0
    7.8382  -13.3578   17.2488 C   0  0  0  0  0  0  0  0  0  0  0  0
    7.5651  -13.8195   18.6380 C   0  0  0  0  0  0  0  0  0  0  0  0
    8.7836  -13.9036   19.5157 C   0  0  2  0  0  0  0  0  0  0  0  0
    9.7533  -14.8128   18.8906 N   0  0  0  0  0  0  0  0  0  0  0  0
    8.4239  -14.4837   20.8269 C   0  0  0  0  0  0  0  0  0  0  0  0
    7.4700  -14.0443   21.4758 O   0  0  0  0  0  0  0  0  0  0  0  0
    9.1485  -15.5690   21.4070 N   0  0  0  0  0  0  0  0  0  0  0  0
    8.7304  -16.2490   22.6162 C   0  0  1  0  0  0  0  0  0  0  0  0
    9.0412  -17.7140   22.5835 C   0  0  0  0  0  0  0  0  0  0  0  0
    8.3495  -18.5129   21.5897 C   0  0  0  0  0  0  0  0  0  0  0  0
    7.3649  -18.1102   20.7024 C   0  0  0  0  0  0  0  0  0  0  0  0
    6.9925  -19.1651   19.9523 N   0  0  0  0  0  0  0  0  0  0  0  0
    7.7178  -20.2147   20.3474 C   0  0  0  0  0  0  0  0  0  0  0  0
    8.5232  -19.8193   21.3223 N   0  0  0  0  0  0  0  0  0  0  0  0
    9.0741  -15.5304   23.8336 C   0  0  0  0  0  0  0  0  0  0  0  0
   10.2313  -15.0370   23.9424 O   0  0  0  0  0  0  0  0  0  0  0  0
    5.9665  -11.8539   25.9292 C   0  0  0  0  0  0  0  0  0  0  0  0
    7.1348  -12.6690   25.4105 C   0  0  0  0  0  0  0  0  0  0  0  0
    7.6056  -13.5391   26.5479 C   0  0  2  0  0  0  0  0  0  0  0  0
    8.0938  -12.6807   27.6945 C   0  0  0  0  0  0  0  0  0  0  0  0
    8.6421  -14.5489   26.1172 C   0  0  2  0  0  0  0  0  0  0  0  0
    8.2389  -15.3049   24.9598 N   0  0  0  0  0  0  0  0  0  0  0  0
    8.9166  -15.4670   27.2425 C   0  0  0  0  0  0  0  0  0  0  0  0
    9.5112  -15.0198   28.2452 O   0  0  0  0  0  0  0  0  0  0  0  0
    8.5398  -16.7913   27.2204 O   0  0  0  0  0  0  0  0  0  0  0  0
  2  1  1  0
  2  3  2  0
  4  5  1  0
  4  2  1  0
  5  6  1  0
  6  8  1  0
  6  7  1  6
  8  9  2  0
 10  8  1  0
 10 11  1  0
 11 12  1  1
 13 12  1  0
 14 13  2  0
 15 14  1  0
 16 15  1  0
 16 17  2  0
 17 13  1  0
 18 19  2  0
 18 11  1  0
 21 20  1  0
 21 22  1  0
 22 24  1  0
 22 23  1  1
 24 25  1  6
 25 18  1  0
 26 24  1  0
 26 28  1  0
 27 26  2  0
M  END
$$$$
