QHI.pdb
     RDKit          3D

 28 28  0  0  1  0  0  0  0  0999 V2000
    7.5169  -16.0903   17.0308 N   0  0  0  0  0  0  0  0  0  0  0  0
    7.6255  -14.7726   16.5128 C   0  0  0  0  0  0  0  0  0  0  0  0
    7.6833  -14.6253   15.2694 O   0  0  0  0  0  0  0  0  0  0  0  0
    7.6703  -13.5935   17.3857 C   0  0  0  0  0  0  0  0  0  0  0  0
    7.4077  -13.8528   18.8285 C   0  0  0  0  0  0  0  0  0  0  0  0
    8.5057  -13.3999   19.7512 C   0  0  2  0  0  0  0  0  0  0  0  0
    9.7865  -13.4825   19.0365 N   0  0  0  0  0  0  0  0  0  0  0  0
    8.5958  -14.3074   20.9145 C   0  0  0  0  0  0  0  0  0  0  0  0
    7.6359  -14.4623   21.6752 O   0  0  0  0  0  0  0  0  0  0  0  0
    9.7803  -15.0450   21.2184 N   0  0  0  0  0  0  0  0  0  0  0  0
    9.8752  -15.9788   22.3221 C   0  0  1  0  0  0  0  0  0  0  0  0
   10.9911  -16.9620   22.1434 C   0  0  0  0  0  0  0  0  0  0  0  0
   10.8029  -17.9992   21.1468 C   0  0  0  0  0  0  0  0  0  0  0  0
    9.6604  -18.2895   20.4193 C   0  0  0  0  0  0  0  0  0  0  0  0
    9.9138  -19.3291   19.6012 N   0  0  0  0  0  0  0  0  0  0  0  0
   11.1830  -19.6950   19.7985 C   0  0  0  0  0  0  0  0  0  0  0  0
   11.7061  -18.8993   20.7197 N   0  0  0  0  0  0  0  0  0  0  0  0
    9.7575  -15.3472   23.6274 C   0  0  0  0  0  0  0  0  0  0  0  0
   10.7524  -14.7251   24.0940 O   0  0  0  0  0  0  0  0  0  0  0  0
    6.3019  -11.9385   27.1113 C   0  0  0  0  0  0  0  0  0  0  0  0
    7.4641  -12.9112   27.1532 C   0  0  0  0  0  0  0  0  0  0  0  0
    7.4727  -13.6455   25.8368 C   0  0  2  0  0  0  0  0  0  0  0  0
    6.1120  -14.2503   25.5671 C   0  0  0  0  0  0  0  0  0  0  0  0
    8.5748  -14.6739   25.7517 C   0  0  2  0  0  0  0  0  0  0  0  0
    8.6193  -15.3416   24.4767 N   0  0  0  0  0  0  0  0  0  0  0  0
    8.3900  -15.6681   26.8298 C   0  0  0  0  0  0  0  0  0  0  0  0
    7.8725  -16.7678   26.5442 O   0  0  0  0  0  0  0  0  0  0  0  0
    8.7682  -15.4215   28.1307 O   0  0  0  0  0  0  0  0  0  0  0  0
  2  1  1  0
  2  3  2  0
  4  5  1  0
  4  2  1  0
  5  6  1  0
  6  8  1  0
  6  7  1  6
  8  9  2  0
 10  8  1  0
 10 11  1  0
 11 12  1  1
 13 12  1  0
 14 13  2  0
 15 14  1  0
 16 15  1  0
 16 17  2  0
 17 13  1  0
 18 19  2  0
 18 11  1  0
 21 20  1  0
 21 22  1  0
 22 24  1  0
 22 23  1  1
 24 25  1  6
 25 18  1  0
 26 24  1  0
 26 28  1  0
 27 26  2  0
M  END
$$$$
