QHI.pdb
     RDKit          3D

 28 28  0  0  1  0  0  0  0  0999 V2000
    9.5048  -13.5071   16.1736 N   0  0  0  0  0  0  0  0  0  0  0  0
    8.2111  -14.0715   16.0171 C   0  0  0  0  0  0  0  0  0  0  0  0
    7.8942  -14.5300   14.8944 O   0  0  0  0  0  0  0  0  0  0  0  0
    7.2482  -14.1316   17.1232 C   0  0  0  0  0  0  0  0  0  0  0  0
    7.6684  -13.4478   18.3777 C   0  0  0  0  0  0  0  0  0  0  0  0
    8.6992  -14.1958   19.1778 C   0  0  2  0  0  0  0  0  0  0  0  0
    9.0886  -15.4019   18.4352 N   0  0  0  0  0  0  0  0  0  0  0  0
    8.1174  -14.6424   20.4613 C   0  0  0  0  0  0  0  0  0  0  0  0
    7.3068  -13.9383   21.0704 O   0  0  0  0  0  0  0  0  0  0  0  0
    8.4552  -15.8947   21.0587 N   0  0  0  0  0  0  0  0  0  0  0  0
    7.9114  -16.3453   22.3239 C   0  0  1  0  0  0  0  0  0  0  0  0
    7.8330  -17.8387   22.4118 C   0  0  0  0  0  0  0  0  0  0  0  0
    6.8309  -18.4958   21.5943 C   0  0  0  0  0  0  0  0  0  0  0  0
    5.6396  -17.9742   21.1173 C   0  0  0  0  0  0  0  0  0  0  0  0
    5.0043  -18.9189   20.3975 N   0  0  0  0  0  0  0  0  0  0  0  0
    5.7668  -20.0154   20.4125 C   0  0  0  0  0  0  0  0  0  0  0  0
    6.8523  -19.7564   21.1267 N   0  0  0  0  0  0  0  0  0  0  0  0
    8.4640  -15.6466   23.4740 C   0  0  0  0  0  0  0  0  0  0  0  0
    9.7039  -15.4093   23.5034 O   0  0  0  0  0  0  0  0  0  0  0  0
    7.1526  -11.1056   27.2429 C   0  0  0  0  0  0  0  0  0  0  0  0
    8.0512  -12.3171   27.0891 C   0  0  0  0  0  0  0  0  0  0  0  0
    7.4516  -13.1766   26.0056 C   0  0  2  0  0  0  0  0  0  0  0  0
    6.0644  -13.6296   26.4061 C   0  0  0  0  0  0  0  0  0  0  0  0
    8.3382  -14.3387   25.6277 C   0  0  2  0  0  0  0  0  0  0  0  0
    7.7566  -15.1789   24.6131 N   0  0  0  0  0  0  0  0  0  0  0  0
    8.6231  -15.1400   26.8366 C   0  0  0  0  0  0  0  0  0  0  0  0
    8.0466  -16.2390   26.9729 O   0  0  0  0  0  0  0  0  0  0  0  0
    9.4988  -14.7157   27.8110 O   0  0  0  0  0  0  0  0  0  0  0  0
  2  1  1  0
  2  3  2  0
  4  5  1  0
  4  2  1  0
  5  6  1  0
  6  8  1  0
  6  7  1  6
  8  9  2  0
 10  8  1  0
 10 11  1  0
 11 12  1  1
 13 12  1  0
 14 13  2  0
 15 14  1  0
 16 15  1  0
 16 17  2  0
 17 13  1  0
 18 19  2  0
 18 11  1  0
 21 20  1  0
 21 22  1  0
 22 24  1  0
 22 23  1  1
 24 25  1  6
 25 18  1  0
 26 24  1  0
 26 28  1  0
 27 26  2  0
M  END
$$$$
