AHM.pdb
     RDKit          3D

 24 24  0  0  1  0  0  0  0  0999 V2000
   32.4788  -14.0697  -18.8789 C   0  0  0  0  0  0  0  0  0  0  0  0
   31.0389  -14.5060  -18.6835 C   0  0  2  0  0  0  0  0  0  0  0  0
   30.7351  -15.7054  -19.4218 N   0  0  0  0  0  0  0  0  0  0  0  0
   30.1020  -13.4355  -19.0782 C   0  0  0  0  0  0  0  0  0  0  0  0
   29.8720  -13.2453  -20.3089 O   0  0  0  0  0  0  0  0  0  0  0  0
   29.4835  -12.6495  -18.1067 N   0  0  0  0  0  0  0  0  0  0  0  0
   28.5813  -11.5490  -18.5408 C   0  0  1  0  0  0  0  0  0  0  0  0
   27.2628  -11.8656  -17.9623 C   0  0  0  0  0  0  0  0  0  0  0  0
   26.3647  -12.7359  -18.7126 C   0  0  0  0  0  0  0  0  0  0  0  0
   26.4497  -13.4552  -19.8602 C   0  0  0  0  0  0  0  0  0  0  0  0
   25.2901  -14.1452  -20.0619 N   0  0  0  0  0  0  0  0  0  0  0  0
   24.4936  -13.8492  -19.0355 C   0  0  0  0  0  0  0  0  0  0  0  0
   25.1197  -13.0140  -18.2274 N   0  0  0  0  0  0  0  0  0  0  0  0
   29.1624  -10.3271  -17.8679 C   0  0  0  0  0  0  0  0  0  0  0  0
   29.5157  -10.4506  -16.6767 O   0  0  0  0  0  0  0  0  0  0  0  0
   33.8709   -8.7269  -14.8797 C   0  0  0  0  0  0  0  0  0  0  0  0
   33.9348   -7.9419  -16.5154 S   0  0  0  0  0  0  0  0  0  0  0  0
   32.2279   -7.4121  -16.8993 C   0  0  0  0  0  0  0  0  0  0  0  0
   31.4565   -8.5148  -17.5627 C   0  0  0  0  0  0  0  0  0  0  0  0
   30.0755   -8.0574  -17.8685 C   0  0  2  0  0  0  0  0  0  0  0  0
   29.3045   -9.0883  -18.5508 N   0  0  0  0  0  0  0  0  0  0  0  0
   30.1145   -6.9107  -18.7996 C   0  0  0  0  0  0  0  0  0  0  0  0
   29.8312   -7.1395  -20.0286 O   0  0  0  0  0  0  0  0  0  0  0  0
   30.4299   -5.6056  -18.4507 O   0  0  0  0  0  0  0  0  0  0  0  0
  2  1  1  6
  2  3  1  0
  2  4  1  0
  4  5  2  0
  6  4  1  0
  6  7  1  0
  7 14  1  0
  7  8  1  1
  9 10  2  0
  9  8  1  0
 11 10  1  0
 12 13  2  0
 12 11  1  0
 13  9  1  0
 14 15  2  0
 14 21  1  0
 17 18  1  0
 17 16  1  0
 19 18  1  0
 20 19  1  6
 21 20  1  0
 22 20  1  0
 22 24  1  0
 23 22  2  0
M  END
$$$$
