AHM.pdb
     RDKit          3D

 24 24  0  0  1  0  0  0  0  0999 V2000
   27.7005  -37.8581  -18.2111 C   0  0  0  0  0  0  0  0  0  0  0  0
   28.7076  -36.7257  -18.2843 C   0  0  2  0  0  0  0  0  0  0  0  0
   30.0181  -37.1941  -18.6571 N   0  0  0  0  0  0  0  0  0  0  0  0
   28.7906  -36.0056  -16.9982 C   0  0  0  0  0  0  0  0  0  0  0  0
   29.7099  -36.3116  -16.1827 O   0  0  0  0  0  0  0  0  0  0  0  0
   27.8684  -35.0057  -16.6917 N   0  0  0  0  0  0  0  0  0  0  0  0
   28.0278  -34.2464  -15.4223 C   0  0  1  0  0  0  0  0  0  0  0  0
   28.3781  -32.8718  -15.8238 C   0  0  0  0  0  0  0  0  0  0  0  0
   29.7749  -32.5653  -16.1102 C   0  0  0  0  0  0  0  0  0  0  0  0
   30.9406  -33.2600  -16.0941 C   0  0  0  0  0  0  0  0  0  0  0  0
   31.9625  -32.4608  -16.5165 N   0  0  0  0  0  0  0  0  0  0  0  0
   31.4219  -31.2747  -16.7932 C   0  0  0  0  0  0  0  0  0  0  0  0
   30.1242  -31.3237  -16.5566 N   0  0  0  0  0  0  0  0  0  0  0  0
   26.6436  -34.2723  -14.8168 C   0  0  0  0  0  0  0  0  0  0  0  0
   25.6919  -33.9673  -15.5655 O   0  0  0  0  0  0  0  0  0  0  0  0
   25.0947  -39.7377  -14.8760 C   0  0  0  0  0  0  0  0  0  0  0  0
   24.0069  -38.2987  -14.6723 S   0  0  0  0  0  0  0  0  0  0  0  0
   25.0317  -36.9793  -13.9306 C   0  0  0  0  0  0  0  0  0  0  0  0
   24.2648  -35.6940  -13.8262 C   0  0  0  0  0  0  0  0  0  0  0  0
   25.0343  -34.7056  -13.0257 C   0  0  2  0  0  0  0  0  0  0  0  0
   26.4235  -34.6261  -13.4575 N   0  0  0  0  0  0  0  0  0  0  0  0
   25.0832  -35.1260  -11.6100 C   0  0  0  0  0  0  0  0  0  0  0  0
   26.0626  -35.8703  -11.2496 O   0  0  0  0  0  0  0  0  0  0  0  0
   24.1564  -34.7778  -10.6382 O   0  0  0  0  0  0  0  0  0  0  0  0
  2  1  1  1
  2  3  1  0
  2  4  1  0
  4  5  2  0
  6  4  1  0
  6  7  1  0
  7 14  1  0
  7  8  1  6
  9 10  2  0
  9  8  1  0
 11 10  1  0
 12 13  2  0
 12 11  1  0
 13  9  1  0
 14 15  2  0
 14 21  1  0
 17 18  1  0
 17 16  1  0
 19 18  1  0
 20 19  1  6
 21 20  1  0
 22 20  1  0
 22 24  1  0
 23 22  2  0
M  END
$$$$
