AHM.pdb
     RDKit          3D

 24 24  0  0  1  0  0  0  0  0999 V2000
   30.8477  -22.4772   -9.3031 C   0  0  0  0  0  0  0  0  0  0  0  0
   31.1960  -22.1273  -10.7377 C   0  0  2  0  0  0  0  0  0  0  0  0
   32.5143  -21.5566  -10.8476 N   0  0  0  0  0  0  0  0  0  0  0  0
   30.2069  -21.1932  -11.3110 C   0  0  0  0  0  0  0  0  0  0  0  0
   30.5725  -20.0164  -11.6028 O   0  0  0  0  0  0  0  0  0  0  0  0
   28.8924  -21.6060  -11.5254 N   0  0  0  0  0  0  0  0  0  0  0  0
   27.9518  -20.6799  -12.2118 C   0  0  1  0  0  0  0  0  0  0  0  0
   28.4837  -20.5143  -13.5767 C   0  0  0  0  0  0  0  0  0  0  0  0
   27.6646  -19.8191  -14.5630 C   0  0  0  0  0  0  0  0  0  0  0  0
   26.4617  -19.1910  -14.5515 C   0  0  0  0  0  0  0  0  0  0  0  0
   26.2042  -18.6598  -15.7816 N   0  0  0  0  0  0  0  0  0  0  0  0
   27.2517  -18.9620  -16.5478 C   0  0  0  0  0  0  0  0  0  0  0  0
   28.1256  -19.6495  -15.8364 N   0  0  0  0  0  0  0  0  0  0  0  0
   26.6555  -21.4554  -12.2515 C   0  0  0  0  0  0  0  0  0  0  0  0
   26.7252  -22.6860  -12.0512 O   0  0  0  0  0  0  0  0  0  0  0  0
   23.0286  -22.2283   -7.9008 C   0  0  0  0  0  0  0  0  0  0  0  0
   24.4695  -21.1239   -7.8970 S   0  0  0  0  0  0  0  0  0  0  0  0
   24.1199  -19.8170   -9.1263 C   0  0  0  0  0  0  0  0  0  0  0  0
   25.0780  -19.8892  -10.2786 C   0  0  0  0  0  0  0  0  0  0  0  0
   24.4971  -20.7104  -11.3732 C   0  0  2  0  0  0  0  0  0  0  0  0
   25.4078  -20.8228  -12.5048 N   0  0  0  0  0  0  0  0  0  0  0  0
   23.2818  -20.0603  -11.9060 C   0  0  0  0  0  0  0  0  0  0  0  0
   22.1618  -20.3713  -11.3657 O   0  0  0  0  0  0  0  0  0  0  0  0
   23.2553  -19.1378  -12.9419 O   0  0  0  0  0  0  0  0  0  0  0  0
  2  1  1  1
  2  3  1  0
  2  4  1  0
  4  5  2  0
  6  4  1  0
  6  7  1  0
  7 14  1  0
  7  8  1  6
  9 10  2  0
  9  8  1  0
 11 10  1  0
 12 13  2  0
 12 11  1  0
 13  9  1  0
 14 15  2  0
 14 21  1  0
 17 18  1  0
 17 16  1  0
 19 18  1  0
 20 19  1  1
 21 20  1  0
 22 20  1  0
 22 24  1  0
 23 22  2  0
M  END
$$$$
