AHM.pdb
     RDKit          3D

 24 24  0  0  1  0  0  0  0  0999 V2000
   20.8127  -12.8277  -18.0449 C   0  0  0  0  0  0  0  0  0  0  0  0
   20.0991  -11.6280  -18.6394 C   0  0  2  0  0  0  0  0  0  0  0  0
   20.9107  -10.9491  -19.6172 N   0  0  0  0  0  0  0  0  0  0  0  0
   19.6974  -10.6743  -17.5865 C   0  0  0  0  0  0  0  0  0  0  0  0
   19.3842  -11.1198  -16.4431 O   0  0  0  0  0  0  0  0  0  0  0  0
   19.6651   -9.3060  -17.8527 N   0  0  0  0  0  0  0  0  0  0  0  0
   19.3252   -8.3676  -16.7495 C   0  0  1  0  0  0  0  0  0  0  0  0
   20.4051   -8.5148  -15.7568 C   0  0  0  0  0  0  0  0  0  0  0  0
   20.0604   -8.4615  -14.3407 C   0  0  0  0  0  0  0  0  0  0  0  0
   18.9083   -8.3820  -13.6279 C   0  0  0  0  0  0  0  0  0  0  0  0
   19.1856   -8.4201  -12.2926 N   0  0  0  0  0  0  0  0  0  0  0  0
   20.5098   -8.5244  -12.1869 C   0  0  0  0  0  0  0  0  0  0  0  0
   21.0407   -8.5502  -13.3952 N   0  0  0  0  0  0  0  0  0  0  0  0
   19.4043   -7.0075  -17.4031 C   0  0  0  0  0  0  0  0  0  0  0  0
   20.2940   -6.8435  -18.2638 O   0  0  0  0  0  0  0  0  0  0  0  0
   16.4362   -0.2555  -19.7532 C   0  0  0  0  0  0  0  0  0  0  0  0
   16.1403   -1.5941  -18.5630 S   0  0  0  0  0  0  0  0  0  0  0  0
   17.6488   -2.6265  -18.5636 C   0  0  0  0  0  0  0  0  0  0  0  0
   17.4399   -3.8883  -17.7793 C   0  0  0  0  0  0  0  0  0  0  0  0
   18.6861   -4.6990  -17.7779 C   0  0  2  0  0  0  0  0  0  0  0  0
   18.5115   -5.9553  -17.0610 N   0  0  0  0  0  0  0  0  0  0  0  0
   19.7593   -3.9797  -17.0607 C   0  0  0  0  0  0  0  0  0  0  0  0
   19.8495   -4.1649  -15.7956 O   0  0  0  0  0  0  0  0  0  0  0  0
   20.6794   -3.1225  -17.6465 O   0  0  0  0  0  0  0  0  0  0  0  0
  2  1  1  1
  2  3  1  0
  2  4  1  0
  4  5  2  0
  6  4  1  0
  6  7  1  0
  7 14  1  0
  7  8  1  1
  9 10  2  0
  9  8  1  0
 11 10  1  0
 12 13  2  0
 12 11  1  0
 13  9  1  0
 14 15  2  0
 14 21  1  0
 17 18  1  0
 17 16  1  0
 19 18  1  0
 20 19  1  1
 21 20  1  0
 22 20  1  0
 22 24  1  0
 23 22  2  0
M  END
$$$$
