AHM.pdb
     RDKit          3D

 24 24  0  0  1  0  0  0  0  0999 V2000
   16.2718  -18.0382    0.0983 C   0  0  0  0  0  0  0  0  0  0  0  0
   16.3005  -18.8540    1.3771 C   0  0  2  0  0  0  0  0  0  0  0  0
   15.0590  -18.7617    2.1024 N   0  0  0  0  0  0  0  0  0  0  0  0
   17.4127  -18.4315    2.2511 C   0  0  0  0  0  0  0  0  0  0  0  0
   18.5936  -18.4536    1.7941 O   0  0  0  0  0  0  0  0  0  0  0  0
   17.1609  -18.0160    3.5580 N   0  0  0  0  0  0  0  0  0  0  0  0
   18.2958  -17.5307    4.3886 C   0  0  1  0  0  0  0  0  0  0  0  0
   17.8066  -16.3095    5.0539 C   0  0  0  0  0  0  0  0  0  0  0  0
   18.1886  -15.0152    4.5007 C   0  0  0  0  0  0  0  0  0  0  0  0
   18.8737  -14.5948    3.4073 C   0  0  0  0  0  0  0  0  0  0  0  0
   18.8811  -13.2313    3.3608 N   0  0  0  0  0  0  0  0  0  0  0  0
   18.1984  -12.8154    4.4268 C   0  0  0  0  0  0  0  0  0  0  0  0
   17.7818  -13.8644    5.1113 N   0  0  0  0  0  0  0  0  0  0  0  0
   18.4887  -18.6324    5.4047 C   0  0  0  0  0  0  0  0  0  0  0  0
   17.5329  -19.4171    5.5778 O   0  0  0  0  0  0  0  0  0  0  0  0
   20.7906  -25.3011    6.7811 C   0  0  0  0  0  0  0  0  0  0  0  0
   20.6855  -23.8481    5.6979 S   0  0  0  0  0  0  0  0  0  0  0  0
   20.2800  -22.4295    6.7769 C   0  0  0  0  0  0  0  0  0  0  0  0
   20.0840  -21.1781    5.9730 C   0  0  0  0  0  0  0  0  0  0  0  0
   19.8618  -20.0205    6.8789 C   0  0  2  0  0  0  0  0  0  0  0  0
   19.6991  -18.7777    6.1362 N   0  0  0  0  0  0  0  0  0  0  0  0
   21.0446  -19.8151    7.7403 C   0  0  0  0  0  0  0  0  0  0  0  0
   21.8964  -18.9313    7.3710 O   0  0  0  0  0  0  0  0  0  0  0  0
   21.3063  -20.4991    8.9185 O   0  0  0  0  0  0  0  0  0  0  0  0
  2  1  1  6
  2  3  1  0
  2  4  1  0
  4  5  2  0
  6  4  1  0
  6  7  1  0
  7 14  1  0
  7  8  1  1
  9 10  2  0
  9  8  1  0
 11 10  1  0
 12 13  2  0
 12 11  1  0
 13  9  1  0
 14 15  2  0
 14 21  1  0
 17 18  1  0
 17 16  1  0
 19 18  1  0
 20 19  1  6
 21 20  1  0
 22 20  1  0
 22 24  1  0
 23 22  2  0
M  END
$$$$
