AHM.pdb
     RDKit          3D

 24 24  0  0  1  0  0  0  0  0999 V2000
   16.3598  -10.1806  -19.8643 C   0  0  0  0  0  0  0  0  0  0  0  0
   17.5017   -9.2222  -19.5825 C   0  0  2  0  0  0  0  0  0  0  0  0
   18.5209   -9.2856  -20.5989 N   0  0  0  0  0  0  0  0  0  0  0  0
   18.1064   -9.4908  -18.2628 C   0  0  0  0  0  0  0  0  0  0  0  0
   17.3642   -9.4880  -17.2366 O   0  0  0  0  0  0  0  0  0  0  0  0
   19.4734   -9.7427  -18.1542 N   0  0  0  0  0  0  0  0  0  0  0  0
   20.0493  -10.0129  -16.8092 C   0  0  1  0  0  0  0  0  0  0  0  0
   20.7199  -11.3210  -16.9205 C   0  0  0  0  0  0  0  0  0  0  0  0
   19.9655  -12.5211  -16.5773 C   0  0  0  0  0  0  0  0  0  0  0  0
   18.7175  -12.7786  -16.1108 C   0  0  0  0  0  0  0  0  0  0  0  0
   18.5247  -14.1263  -16.0217 N   0  0  0  0  0  0  0  0  0  0  0  0
   19.6562  -14.6957  -16.4356 C   0  0  0  0  0  0  0  0  0  0  0  0
   20.5191  -13.7539  -16.7684 N   0  0  0  0  0  0  0  0  0  0  0  0
   21.0757   -8.9176  -16.6358 C   0  0  0  0  0  0  0  0  0  0  0  0
   21.6160   -8.4783  -17.6723 O   0  0  0  0  0  0  0  0  0  0  0  0
   26.5909  -10.9059  -14.6759 C   0  0  0  0  0  0  0  0  0  0  0  0
   25.9309   -9.6766  -15.8374 S   0  0  0  0  0  0  0  0  0  0  0  0
   24.4359   -8.9768  -15.0521 C   0  0  0  0  0  0  0  0  0  0  0  0
   23.7433   -8.0142  -15.9712 C   0  0  0  0  0  0  0  0  0  0  0  0
   22.5304   -7.4633  -15.3114 C   0  0  2  0  0  0  0  0  0  0  0  0
   21.4183   -8.4035  -15.3554 N   0  0  0  0  0  0  0  0  0  0  0  0
   22.0616   -6.2614  -16.0318 C   0  0  0  0  0  0  0  0  0  0  0  0
   22.8215   -5.2293  -16.0135 O   0  0  0  0  0  0  0  0  0  0  0  0
   20.8667   -6.1607  -16.7294 O   0  0  0  0  0  0  0  0  0  0  0  0
  2  1  1  6
  2  3  1  0
  2  4  1  0
  4  5  2  0
  6  4  1  0
  6  7  1  0
  7 14  1  0
  7  8  1  6
  9 10  2  0
  9  8  1  0
 11 10  1  0
 12 13  2  0
 12 11  1  0
 13  9  1  0
 14 15  2  0
 14 21  1  0
 17 18  1  0
 17 16  1  0
 19 18  1  0
 20 19  1  6
 21 20  1  0
 22 20  1  0
 22 24  1  0
 23 22  2  0
M  END
$$$$
