AHM.pdb
     RDKit          3D

 24 24  0  0  1  0  0  0  0  0999 V2000
   27.6643  -20.3797  -16.8140 C   0  0  0  0  0  0  0  0  0  0  0  0
   27.8564  -21.0529  -15.4679 C   0  0  2  0  0  0  0  0  0  0  0  0
   27.5119  -22.4511  -15.5114 N   0  0  0  0  0  0  0  0  0  0  0  0
   27.0598  -20.3828  -14.4211 C   0  0  0  0  0  0  0  0  0  0  0  0
   27.2357  -19.1457  -14.2148 O   0  0  0  0  0  0  0  0  0  0  0  0
   26.1301  -21.1057  -13.6747 N   0  0  0  0  0  0  0  0  0  0  0  0
   25.2561  -20.3771  -12.7162 C   0  0  1  0  0  0  0  0  0  0  0  0
   23.8950  -20.8930  -12.9496 C   0  0  0  0  0  0  0  0  0  0  0  0
   23.0235  -20.1672  -13.8665 C   0  0  0  0  0  0  0  0  0  0  0  0
   23.1200  -19.0246  -14.5922 C   0  0  0  0  0  0  0  0  0  0  0  0
   21.9893  -18.8504  -15.3356 N   0  0  0  0  0  0  0  0  0  0  0  0
   21.1990  -19.8889  -15.0658 C   0  0  0  0  0  0  0  0  0  0  0  0
   21.8013  -20.6778  -14.1956 N   0  0  0  0  0  0  0  0  0  0  0  0
   25.7569  -20.8297  -11.3643 C   0  0  0  0  0  0  0  0  0  0  0  0
   26.2117  -21.9901  -11.2881 O   0  0  0  0  0  0  0  0  0  0  0  0
   28.7201  -19.7258   -4.3050 C   0  0  0  0  0  0  0  0  0  0  0  0
   28.1971  -18.8612   -5.8133 S   0  0  0  0  0  0  0  0  0  0  0  0
   27.3222  -20.0965   -6.8379 C   0  0  0  0  0  0  0  0  0  0  0  0
   26.9539  -19.5254   -8.1755 C   0  0  0  0  0  0  0  0  0  0  0  0
   26.2275  -20.5423   -8.9807 C   0  0  2  0  0  0  0  0  0  0  0  0
   25.7164  -19.9811  -10.2243 N   0  0  0  0  0  0  0  0  0  0  0  0
   25.0391  -21.0197   -8.2438 C   0  0  0  0  0  0  0  0  0  0  0  0
   23.8933  -20.6042   -8.6406 O   0  0  0  0  0  0  0  0  0  0  0  0
   25.0628  -21.8841   -7.1590 O   0  0  0  0  0  0  0  0  0  0  0  0
  2  1  1  6
  2  3  1  0
  2  4  1  0
  4  5  2  0
  6  4  1  0
  6  7  1  0
  7 14  1  0
  7  8  1  6
  9 10  2  0
  9  8  1  0
 11 10  1  0
 12 13  2  0
 12 11  1  0
 13  9  1  0
 14 15  2  0
 14 21  1  0
 17 18  1  0
 17 16  1  0
 19 18  1  0
 20 19  1  1
 21 20  1  0
 22 20  1  0
 22 24  1  0
 23 22  2  0
M  END
$$$$
