AHM.pdb
     RDKit          3D

 24 24  0  0  1  0  0  0  0  0999 V2000
   25.8815  -11.9784  -16.2663 C   0  0  0  0  0  0  0  0  0  0  0  0
   24.5086  -12.5338  -15.9368 C   0  0  2  0  0  0  0  0  0  0  0  0
   24.2747  -13.8042  -16.5748 N   0  0  0  0  0  0  0  0  0  0  0  0
   23.4456  -11.5857  -16.3252 C   0  0  0  0  0  0  0  0  0  0  0  0
   23.0185  -11.5986  -17.5173 O   0  0  0  0  0  0  0  0  0  0  0  0
   22.9243  -10.6926  -15.3899 N   0  0  0  0  0  0  0  0  0  0  0  0
   21.7918   -9.8143  -15.7892 C   0  0  1  0  0  0  0  0  0  0  0  0
   20.6237  -10.3066  -15.0364 C   0  0  0  0  0  0  0  0  0  0  0  0
   19.8475  -11.4064  -15.5976 C   0  0  0  0  0  0  0  0  0  0  0  0
   19.4491  -11.7730  -16.8420 C   0  0  0  0  0  0  0  0  0  0  0  0
   18.7696  -12.9546  -16.7821 N   0  0  0  0  0  0  0  0  0  0  0  0
   18.7527  -13.3133  -15.4989 C   0  0  0  0  0  0  0  0  0  0  0  0
   19.3893  -12.4031  -14.7856 N   0  0  0  0  0  0  0  0  0  0  0  0
   22.2012   -8.4525  -15.2780 C   0  0  0  0  0  0  0  0  0  0  0  0
   22.9059   -8.4226  -14.2476 O   0  0  0  0  0  0  0  0  0  0  0  0
   23.7494   -2.4504  -18.2158 C   0  0  0  0  0  0  0  0  0  0  0  0
   22.5418   -2.2101  -16.8817 S   0  0  0  0  0  0  0  0  0  0  0  0
   22.7448   -3.6250  -15.7424 C   0  0  0  0  0  0  0  0  0  0  0  0
   22.2368   -4.8939  -16.3612 C   0  0  0  0  0  0  0  0  0  0  0  0
   22.3415   -6.0125  -15.3877 C   0  0  2  0  0  0  0  0  0  0  0  0
   21.8071   -7.2536  -15.9326 N   0  0  0  0  0  0  0  0  0  0  0  0
   21.5258   -5.7222  -14.1903 C   0  0  0  0  0  0  0  0  0  0  0  0
   20.3019   -6.1028  -14.2044 O   0  0  0  0  0  0  0  0  0  0  0  0
   21.9784   -5.0736  -13.0506 O   0  0  0  0  0  0  0  0  0  0  0  0
  2  1  1  6
  2  3  1  0
  2  4  1  0
  4  5  2  0
  6  4  1  0
  6  7  1  0
  7 14  1  0
  7  8  1  1
  9 10  2  0
  9  8  1  0
 11 10  1  0
 12 13  2  0
 12 11  1  0
 13  9  1  0
 14 15  2  0
 14 21  1  0
 17 18  1  0
 17 16  1  0
 19 18  1  0
 20 19  1  6
 21 20  1  0
 22 20  1  0
 22 24  1  0
 23 22  2  0
M  END
$$$$
