AHM.pdb
     RDKit          3D

 24 24  0  0  1  0  0  0  0  0999 V2000
   28.6845  -20.9484  -17.7630 C   0  0  0  0  0  0  0  0  0  0  0  0
   28.3957  -21.5931  -16.4202 C   0  0  2  0  0  0  0  0  0  0  0  0
   27.7132  -22.8537  -16.5641 N   0  0  0  0  0  0  0  0  0  0  0  0
   27.5961  -20.6964  -15.5623 C   0  0  0  0  0  0  0  0  0  0  0  0
   28.0320  -19.5329  -15.3174 O   0  0  0  0  0  0  0  0  0  0  0  0
   26.3810  -21.1294  -15.0328 N   0  0  0  0  0  0  0  0  0  0  0  0
   25.5794  -20.1850  -14.2088 C   0  0  1  0  0  0  0  0  0  0  0  0
   24.2715  -20.0836  -14.8815 C   0  0  0  0  0  0  0  0  0  0  0  0
   24.0974  -19.0693  -15.9148 C   0  0  0  0  0  0  0  0  0  0  0  0
   24.8627  -18.0763  -16.4342 C   0  0  0  0  0  0  0  0  0  0  0  0
   24.1914  -17.4545  -17.4463 N   0  0  0  0  0  0  0  0  0  0  0  0
   23.0131  -18.0684  -17.5480 C   0  0  0  0  0  0  0  0  0  0  0  0
   22.9450  -19.0288  -16.6449 N   0  0  0  0  0  0  0  0  0  0  0  0
   25.4287  -20.9050  -12.8889 C   0  0  0  0  0  0  0  0  0  0  0  0
   25.1951  -22.1308  -12.9357 O   0  0  0  0  0  0  0  0  0  0  0  0
   29.3356  -19.9479   -7.3802 C   0  0  0  0  0  0  0  0  0  0  0  0
   27.5666  -19.5717   -7.5381 S   0  0  0  0  0  0  0  0  0  0  0  0
   26.9662  -20.5162   -8.9833 C   0  0  0  0  0  0  0  0  0  0  0  0
   25.5012  -20.2845   -9.2092 C   0  0  0  0  0  0  0  0  0  0  0  0
   25.0696  -20.9448  -10.4692 C   0  0  2  0  0  0  0  0  0  0  0  0
   25.5454  -20.2273  -11.6446 N   0  0  0  0  0  0  0  0  0  0  0  0
   23.5954  -20.9348  -10.5691 C   0  0  0  0  0  0  0  0  0  0  0  0
   23.0536  -19.9556  -11.1940 O   0  0  0  0  0  0  0  0  0  0  0  0
   22.7502  -21.9014  -10.0438 O   0  0  0  0  0  0  0  0  0  0  0  0
  2  1  1  6
  2  3  1  0
  2  4  1  0
  4  5  2  0
  6  4  1  0
  6  7  1  0
  7 14  1  0
  7  8  1  6
  9 10  2  0
  9  8  1  0
 11 10  1  0
 12 13  2  0
 12 11  1  0
 13  9  1  0
 14 15  2  0
 14 21  1  0
 17 18  1  0
 17 16  1  0
 19 18  1  0
 20 19  1  1
 21 20  1  0
 22 20  1  0
 22 24  1  0
 23 22  2  0
M  END
$$$$
