AHM.pdb
     RDKit          3D

 24 24  0  0  1  0  0  0  0  0999 V2000
   15.9981  -12.2755  -14.4323 C   0  0  0  0  0  0  0  0  0  0  0  0
   15.3236  -11.0223  -13.9066 C   0  0  2  0  0  0  0  0  0  0  0  0
   15.1353  -10.0379  -14.9416 N   0  0  0  0  0  0  0  0  0  0  0  0
   16.0975  -10.4284  -12.7985 C   0  0  0  0  0  0  0  0  0  0  0  0
   16.3306  -11.1288  -11.7694 O   0  0  0  0  0  0  0  0  0  0  0  0
   16.5615   -9.1167  -12.8891 N   0  0  0  0  0  0  0  0  0  0  0  0
   17.3272   -8.5454  -11.7486 C   0  0  1  0  0  0  0  0  0  0  0  0
   18.3853   -7.7180  -12.3562 C   0  0  0  0  0  0  0  0  0  0  0  0
   19.5535   -8.3856  -12.9191 C   0  0  0  0  0  0  0  0  0  0  0  0
   19.9636   -9.6728  -13.0476 C   0  0  0  0  0  0  0  0  0  0  0  0
   21.1482   -9.7168  -13.7230 N   0  0  0  0  0  0  0  0  0  0  0  0
   21.4640   -8.4544  -14.0099 C   0  0  0  0  0  0  0  0  0  0  0  0
   20.5256   -7.6547  -13.5385 N   0  0  0  0  0  0  0  0  0  0  0  0
   16.3182   -7.6645  -11.0492 C   0  0  0  0  0  0  0  0  0  0  0  0
   15.5172   -7.0362  -11.7723 O   0  0  0  0  0  0  0  0  0  0  0  0
   12.0356   -8.6162   -6.6521 C   0  0  0  0  0  0  0  0  0  0  0  0
   12.6139   -7.0252   -5.9963 S   0  0  0  0  0  0  0  0  0  0  0  0
   13.6209   -6.2597   -7.3159 C   0  0  0  0  0  0  0  0  0  0  0  0
   14.5672   -7.2553   -7.9194 C   0  0  0  0  0  0  0  0  0  0  0  0
   15.2628   -6.6534   -9.0873 C   0  0  2  0  0  0  0  0  0  0  0  0
   16.2744   -7.5487   -9.6329 N   0  0  0  0  0  0  0  0  0  0  0  0
   15.9925   -5.4372   -8.6728 C   0  0  0  0  0  0  0  0  0  0  0  0
   17.2348   -5.5650   -8.3839 O   0  0  0  0  0  0  0  0  0  0  0  0
   15.4425   -4.1674   -8.5739 O   0  0  0  0  0  0  0  0  0  0  0  0
  2  1  1  6
  2  3  1  0
  2  4  1  0
  4  5  2  0
  6  4  1  0
  6  7  1  0
  7 14  1  0
  7  8  1  6
  9 10  2  0
  9  8  1  0
 11 10  1  0
 12 13  2  0
 12 11  1  0
 13  9  1  0
 14 15  2  0
 14 21  1  0
 17 18  1  0
 17 16  1  0
 19 18  1  0
 20 19  1  1
 21 20  1  0
 22 20  1  0
 22 24  1  0
 23 22  2  0
M  END
$$$$
