AHM.pdb
     RDKit          3D

 24 24  0  0  1  0  0  0  0  0999 V2000
   17.7062  -12.1255  -17.6614 C   0  0  0  0  0  0  0  0  0  0  0  0
   17.9959  -11.1993  -16.4952 C   0  0  2  0  0  0  0  0  0  0  0  0
   16.7965  -10.8408  -15.7818 N   0  0  0  0  0  0  0  0  0  0  0  0
   18.6827   -9.9738  -16.9488 C   0  0  0  0  0  0  0  0  0  0  0  0
   19.8022  -10.0786  -17.5315 O   0  0  0  0  0  0  0  0  0  0  0  0
   18.1031   -8.7236  -16.7361 N   0  0  0  0  0  0  0  0  0  0  0  0
   18.8908   -7.5029  -17.0572 C   0  0  1  0  0  0  0  0  0  0  0  0
   17.9658   -6.6138  -17.7833 C   0  0  0  0  0  0  0  0  0  0  0  0
   18.4087   -5.2619  -18.1046 C   0  0  0  0  0  0  0  0  0  0  0  0
   19.5457   -4.5457  -17.9147 C   0  0  0  0  0  0  0  0  0  0  0  0
   19.4175   -3.3125  -18.4840 N   0  0  0  0  0  0  0  0  0  0  0  0
   18.2002   -3.2732  -19.0247 C   0  0  0  0  0  0  0  0  0  0  0  0
   17.5915   -4.4241  -18.8068 N   0  0  0  0  0  0  0  0  0  0  0  0
   19.2116   -6.9202  -15.7004 C   0  0  0  0  0  0  0  0  0  0  0  0
   18.3075   -6.9572  -14.8399 O   0  0  0  0  0  0  0  0  0  0  0  0
   23.4620  -10.3034  -12.7353 C   0  0  0  0  0  0  0  0  0  0  0  0
   22.0526   -9.2926  -12.1988 S   0  0  0  0  0  0  0  0  0  0  0  0
   21.9117   -7.9249  -13.4033 C   0  0  0  0  0  0  0  0  0  0  0  0
   20.7409   -7.0426  -13.0841 C   0  0  0  0  0  0  0  0  0  0  0  0
   20.6882   -5.9023  -14.0364 C   0  0  2  0  0  0  0  0  0  0  0  0
   20.4816   -6.3528  -15.4065 N   0  0  0  0  0  0  0  0  0  0  0  0
   21.9815   -5.1876  -14.0455 C   0  0  0  0  0  0  0  0  0  0  0  0
   22.6402   -5.1749  -15.1450 O   0  0  0  0  0  0  0  0  0  0  0  0
   22.5392   -4.5265  -12.9608 O   0  0  0  0  0  0  0  0  0  0  0  0
  2  1  1  6
  2  3  1  0
  2  4  1  0
  4  5  2  0
  6  4  1  0
  6  7  1  0
  7 14  1  0
  7  8  1  6
  9 10  2  0
  9  8  1  0
 11 10  1  0
 12 13  2  0
 12 11  1  0
 13  9  1  0
 14 15  2  0
 14 21  1  0
 17 18  1  0
 17 16  1  0
 19 18  1  0
 20 19  1  1
 21 20  1  0
 22 20  1  0
 22 24  1  0
 23 22  2  0
M  END
$$$$
