NGN.pdb
     RDKit          3D

 21 20  0  0  1  0  0  0  0  0999 V2000
   19.4405  -15.2488  -16.9409 N   0  0  0  0  0  0  0  0  0  0  0  0
   19.9392  -14.8023  -18.2080 C   0  0  0  0  0  0  0  0  0  0  0  0
   20.3037  -15.6893  -19.0173 O   0  0  0  0  0  0  0  0  0  0  0  0
   19.9979  -13.3601  -18.4910 C   0  0  0  0  0  0  0  0  0  0  0  0
   19.4423  -12.4679  -17.4111 C   0  0  2  0  0  0  0  0  0  0  0  0
   17.9760  -12.5203  -17.5757 N   0  0  0  0  0  0  0  0  0  0  0  0
   19.9101  -11.0779  -17.6369 C   0  0  0  0  0  0  0  0  0  0  0  0
   21.0118  -10.6747  -17.2055 O   0  0  0  0  0  0  0  0  0  0  0  0
   19.1161  -10.1131  -18.3695 N   0  0  0  0  0  0  0  0  0  0  0  0
   19.6209   -8.7746  -18.5267 C   0  0  0  0  0  0  0  0  0  0  0  0
   19.6217   -7.9495  -17.3320 C   0  0  0  0  0  0  0  0  0  0  0  0
   18.4679   -7.6032  -16.8871 O   0  0  0  0  0  0  0  0  0  0  0  0
   19.0696   -8.4325  -14.1607 N   0  0  0  0  0  0  0  0  0  0  0  0
   20.3187   -8.1369  -13.5771 C   0  0  0  0  0  0  0  0  0  0  0  0
   20.6180   -8.6407  -12.4778 O   0  0  0  0  0  0  0  0  0  0  0  0
   21.2527   -7.2420  -14.2659 C   0  0  0  0  0  0  0  0  0  0  0  0
   20.6669   -6.6415  -15.5253 C   0  0  2  0  0  0  0  0  0  0  0  0
   20.7754   -7.5204  -16.6539 N   0  0  0  0  0  0  0  0  0  0  0  0
   21.2473   -5.2949  -15.8010 C   0  0  0  0  0  0  0  0  0  0  0  0
   21.9543   -4.9770  -16.9482 O   0  0  0  0  0  0  0  0  0  0  0  0
   21.0892   -4.3893  -14.9440 O   0  0  0  0  0  0  0  0  0  0  0  0
  1  2  1  0
  2  3  2  0
  4  5  1  0
  4  2  1  0
  5  6  1  6
  7  5  1  0
  7  8  2  0
  9  7  1  0
 10  9  1  0
 10 11  1  0
 11 18  1  0
 12 11  2  0
 14 16  1  0
 14 13  1  0
 15 14  2  0
 17 16  1  1
 17 19  1  0
 18 17  1  0
 19 21  2  0
 19 20  1  0
M  END
$$$$
