NGN.pdb
     RDKit          3D

 21 20  0  0  1  0  0  0  0  0999 V2000
   17.9915  -16.4260  -15.0173 N   0  0  0  0  0  0  0  0  0  0  0  0
   17.3264  -15.1718  -15.2138 C   0  0  0  0  0  0  0  0  0  0  0  0
   16.1845  -15.0512  -14.7078 O   0  0  0  0  0  0  0  0  0  0  0  0
   17.9994  -14.1125  -15.9809 C   0  0  0  0  0  0  0  0  0  0  0  0
   17.3794  -12.7434  -15.8709 C   0  0  2  0  0  0  0  0  0  0  0  0
   16.3952  -12.6698  -16.9690 N   0  0  0  0  0  0  0  0  0  0  0  0
   18.4269  -11.7141  -16.0836 C   0  0  0  0  0  0  0  0  0  0  0  0
   19.3164  -11.8480  -16.9515 O   0  0  0  0  0  0  0  0  0  0  0  0
   18.4757  -10.4986  -15.2974 N   0  0  0  0  0  0  0  0  0  0  0  0
   19.5519   -9.5697  -15.5211 C   0  0  0  0  0  0  0  0  0  0  0  0
   19.5583   -8.3871  -14.6787 C   0  0  0  0  0  0  0  0  0  0  0  0
   18.5791   -8.2784  -13.8549 O   0  0  0  0  0  0  0  0  0  0  0  0
   22.1041   -5.5107  -15.9474 N   0  0  0  0  0  0  0  0  0  0  0  0
   22.6138   -5.3547  -14.6420 C   0  0  0  0  0  0  0  0  0  0  0  0
   23.7878   -4.9695  -14.4828 O   0  0  0  0  0  0  0  0  0  0  0  0
   21.7616   -5.6460  -13.4860 C   0  0  0  0  0  0  0  0  0  0  0  0
   20.4187   -6.2220  -13.8791 C   0  0  2  0  0  0  0  0  0  0  0  0
   20.5427   -7.3847  -14.7103 N   0  0  0  0  0  0  0  0  0  0  0  0
   19.5441   -5.1805  -14.4927 C   0  0  0  0  0  0  0  0  0  0  0  0
   19.1035   -5.2149  -15.8049 O   0  0  0  0  0  0  0  0  0  0  0  0
   19.1816   -4.2099  -13.7814 O   0  0  0  0  0  0  0  0  0  0  0  0
  1  2  1  0
  2  3  2  0
  4  5  1  0
  4  2  1  0
  5  6  1  6
  7  5  1  0
  7  8  2  0
  9  7  1  0
 10  9  1  0
 10 11  1  0
 11 18  1  0
 12 11  2  0
 14 16  1  0
 14 13  1  0
 15 14  2  0
 17 16  1  6
 17 19  1  0
 18 17  1  0
 19 21  2  0
 19 20  1  0
M  END
$$$$
