NGN.pdb
     RDKit          3D

 21 20  0  0  1  0  0  0  0  0999 V2000
   28.0336  -12.5170  -15.0907 N   0  0  0  0  0  0  0  0  0  0  0  0
   27.2562  -12.5403  -16.2944 C   0  0  0  0  0  0  0  0  0  0  0  0
   27.8092  -13.0136  -17.3164 O   0  0  0  0  0  0  0  0  0  0  0  0
   25.8803  -12.0205  -16.2729 C   0  0  0  0  0  0  0  0  0  0  0  0
   25.4927  -11.1726  -17.4569 C   0  0  2  0  0  0  0  0  0  0  0  0
   26.2987   -9.9414  -17.3375 N   0  0  0  0  0  0  0  0  0  0  0  0
   24.0532  -10.8259  -17.3592 C   0  0  0  0  0  0  0  0  0  0  0  0
   23.1569  -11.6859  -17.4988 O   0  0  0  0  0  0  0  0  0  0  0  0
   23.6085   -9.4727  -17.0966 N   0  0  0  0  0  0  0  0  0  0  0  0
   22.1967   -9.2138  -16.9916 C   0  0  0  0  0  0  0  0  0  0  0  0
   21.8217   -7.8499  -16.6640 C   0  0  0  0  0  0  0  0  0  0  0  0
   20.5623   -7.6236  -16.5560 O   0  0  0  0  0  0  0  0  0  0  0  0
   20.9151   -5.9580  -13.8795 N   0  0  0  0  0  0  0  0  0  0  0  0
   22.0829   -5.1735  -13.7851 C   0  0  0  0  0  0  0  0  0  0  0  0
   22.4668   -4.7747  -12.6690 O   0  0  0  0  0  0  0  0  0  0  0  0
   22.8340   -4.8340  -14.9968 C   0  0  0  0  0  0  0  0  0  0  0  0
   22.2483   -5.4607  -16.2434 C   0  0  2  0  0  0  0  0  0  0  0  0
   22.7280   -6.7945  -16.4639 N   0  0  0  0  0  0  0  0  0  0  0  0
   22.4510   -4.5841  -17.4337 C   0  0  0  0  0  0  0  0  0  0  0  0
   21.9757   -4.8774  -18.7007 O   0  0  0  0  0  0  0  0  0  0  0  0
   23.0915   -3.5131  -17.2849 O   0  0  0  0  0  0  0  0  0  0  0  0
  1  2  1  0
  2  3  2  0
  4  5  1  0
  4  2  1  0
  5  6  1  1
  7  5  1  0
  7  8  2  0
  9  7  1  0
 10  9  1  0
 10 11  1  0
 11 18  1  0
 12 11  2  0
 14 16  1  0
 14 13  1  0
 15 14  2  0
 17 16  1  1
 17 19  1  0
 18 17  1  0
 19 21  2  0
 19 20  1  0
M  END
$$$$
