NGN.pdb
     RDKit          3D

 21 20  0  0  1  0  0  0  0  0999 V2000
   28.6803  -19.3273  -18.5591 N   0  0  0  0  0  0  0  0  0  0  0  0
   28.8095  -18.6813  -17.2864 C   0  0  0  0  0  0  0  0  0  0  0  0
   29.1632  -17.4775  -17.2960 O   0  0  0  0  0  0  0  0  0  0  0  0
   28.5276  -19.4434  -16.0603 C   0  0  0  0  0  0  0  0  0  0  0  0
   27.0789  -19.7928  -15.8369 C   0  0  2  0  0  0  0  0  0  0  0  0
   26.3950  -18.5035  -15.6134 N   0  0  0  0  0  0  0  0  0  0  0  0
   26.9602  -20.6271  -14.6154 C   0  0  0  0  0  0  0  0  0  0  0  0
   27.1203  -21.8664  -14.6454 O   0  0  0  0  0  0  0  0  0  0  0  0
   26.6528  -20.0511  -13.3226 N   0  0  0  0  0  0  0  0  0  0  0  0
   26.4327  -20.9308  -12.2051 C   0  0  0  0  0  0  0  0  0  0  0  0
   25.0544  -21.3150  -11.9586 C   0  0  0  0  0  0  0  0  0  0  0  0
   24.8527  -22.0551  -10.9286 O   0  0  0  0  0  0  0  0  0  0  0  0
   22.3081  -19.5641  -14.4657 N   0  0  0  0  0  0  0  0  0  0  0  0
   21.5242  -19.3888  -13.3069 C   0  0  0  0  0  0  0  0  0  0  0  0
   20.7240  -18.4360  -13.2447 O   0  0  0  0  0  0  0  0  0  0  0  0
   21.6562  -20.3257  -12.1878 C   0  0  0  0  0  0  0  0  0  0  0  0
   22.6472  -21.4348  -12.4667 C   0  0  2  0  0  0  0  0  0  0  0  0
   23.9609  -20.9364  -12.7560 N   0  0  0  0  0  0  0  0  0  0  0  0
   22.1445  -22.3519  -13.5308 C   0  0  0  0  0  0  0  0  0  0  0  0
   22.7605  -22.5236  -14.7589 O   0  0  0  0  0  0  0  0  0  0  0  0
   21.0987  -23.0116  -13.3060 O   0  0  0  0  0  0  0  0  0  0  0  0
  1  2  1  0
  2  3  2  0
  4  5  1  0
  4  2  1  0
  5  6  1  1
  7  5  1  0
  7  8  2  0
  9  7  1  0
 10  9  1  0
 10 11  1  0
 11 18  1  0
 12 11  2  0
 14 16  1  0
 14 13  1  0
 15 14  2  0
 17 16  1  6
 17 19  1  0
 18 17  1  0
 19 21  2  0
 19 20  1  0
M  END
$$$$
