NGN.pdb
     RDKit          3D

 21 20  0  0  1  0  0  0  0  0999 V2000
   21.3468  -22.8039  -18.0153 N   0  0  0  0  0  0  0  0  0  0  0  0
   21.5317  -21.7495  -17.0625 C   0  0  0  0  0  0  0  0  0  0  0  0
   22.5275  -21.0044  -17.2289 O   0  0  0  0  0  0  0  0  0  0  0  0
   20.5677  -21.5962  -15.9622 C   0  0  0  0  0  0  0  0  0  0  0  0
   21.1688  -21.2766  -14.6178 C   0  0  2  0  0  0  0  0  0  0  0  0
   22.0882  -22.3939  -14.3243 N   0  0  0  0  0  0  0  0  0  0  0  0
   20.0931  -21.2473  -13.5961 C   0  0  0  0  0  0  0  0  0  0  0  0
   19.2201  -20.3529  -13.5832 O   0  0  0  0  0  0  0  0  0  0  0  0
   19.9961  -22.2533  -12.5586 N   0  0  0  0  0  0  0  0  0  0  0  0
   18.9367  -22.1518  -11.5899 C   0  0  0  0  0  0  0  0  0  0  0  0
   18.7767  -23.2874  -10.6993 C   0  0  0  0  0  0  0  0  0  0  0  0
   19.4758  -24.3268  -10.9825 O   0  0  0  0  0  0  0  0  0  0  0  0
   19.4458  -24.7216   -6.5677 N   0  0  0  0  0  0  0  0  0  0  0  0
   18.1090  -24.3433   -6.3270 C   0  0  0  0  0  0  0  0  0  0  0  0
   17.7409  -24.0939   -5.1633 O   0  0  0  0  0  0  0  0  0  0  0  0
   17.1654  -24.2466   -7.4442 C   0  0  0  0  0  0  0  0  0  0  0  0
   17.8174  -24.5050   -8.7851 C   0  0  2  0  0  0  0  0  0  0  0  0
   17.9281  -23.3157   -9.5795 N   0  0  0  0  0  0  0  0  0  0  0  0
   17.1291  -25.6093   -9.5152 C   0  0  0  0  0  0  0  0  0  0  0  0
   17.4980  -26.9411   -9.4301 O   0  0  0  0  0  0  0  0  0  0  0  0
   16.1547  -25.3205  -10.2545 O   0  0  0  0  0  0  0  0  0  0  0  0
  1  2  1  0
  2  3  2  0
  4  5  1  0
  4  2  1  0
  5  6  1  1
  7  5  1  0
  7  8  2  0
  9  7  1  0
 10  9  1  0
 10 11  1  0
 11 18  1  0
 12 11  2  0
 14 16  1  0
 14 13  1  0
 15 14  2  0
 17 16  1  1
 17 19  1  0
 18 17  1  0
 19 21  2  0
 19 20  1  0
M  END
$$$$
