NGN.pdb
     RDKit          3D

 21 20  0  0  1  0  0  0  0  0999 V2000
   14.7598  -16.3984  -17.1262 N   0  0  0  0  0  0  0  0  0  0  0  0
   15.0914  -15.4411  -16.1126 C   0  0  0  0  0  0  0  0  0  0  0  0
   14.9471  -15.8057  -14.9207 O   0  0  0  0  0  0  0  0  0  0  0  0
   15.5735  -14.1095  -16.5101 C   0  0  0  0  0  0  0  0  0  0  0  0
   17.0289  -13.8397  -16.2276 C   0  0  2  0  0  0  0  0  0  0  0  0
   17.1351  -13.7650  -14.7569 N   0  0  0  0  0  0  0  0  0  0  0  0
   17.4052  -12.5286  -16.8120 C   0  0  0  0  0  0  0  0  0  0  0  0
   17.4035  -12.3321  -18.0464 O   0  0  0  0  0  0  0  0  0  0  0  0
   17.7945  -11.4056  -15.9843 N   0  0  0  0  0  0  0  0  0  0  0  0
   18.2520  -10.1990  -16.6214 C   0  0  0  0  0  0  0  0  0  0  0  0
   18.5569   -9.0881  -15.7376 C   0  0  0  0  0  0  0  0  0  0  0  0
   17.9501   -9.0870  -14.6059 O   0  0  0  0  0  0  0  0  0  0  0  0
   22.6919   -8.7430  -14.9555 N   0  0  0  0  0  0  0  0  0  0  0  0
   21.8176   -7.9317  -14.2034 C   0  0  0  0  0  0  0  0  0  0  0  0
   21.6044   -8.2031  -13.0064 O   0  0  0  0  0  0  0  0  0  0  0  0
   21.1682   -6.7788  -14.8334 C   0  0  0  0  0  0  0  0  0  0  0  0
   19.6926   -7.0025  -15.0834 C   0  0  2  0  0  0  0  0  0  0  0  0
   19.4500   -8.0454  -16.0381 N   0  0  0  0  0  0  0  0  0  0  0  0
   19.0093   -5.7287  -15.4531 C   0  0  0  0  0  0  0  0  0  0  0  0
   18.5858   -4.7829  -14.5349 O   0  0  0  0  0  0  0  0  0  0  0  0
   18.8020   -5.4934  -16.6701 O   0  0  0  0  0  0  0  0  0  0  0  0
  1  2  1  0
  2  3  2  0
  4  5  1  0
  4  2  1  0
  5  6  1  1
  7  5  1  0
  7  8  2  0
  9  7  1  0
 10  9  1  0
 10 11  1  0
 11 18  1  0
 12 11  2  0
 14 16  1  0
 14 13  1  0
 15 14  2  0
 17 16  1  6
 17 19  1  0
 18 17  1  0
 19 21  2  0
 19 20  1  0
M  END
$$$$
