NGN.pdb
     RDKit          3D

 21 20  0  0  1  0  0  0  0  0999 V2000
   17.8413  -24.1332  -12.4242 N   0  0  0  0  0  0  0  0  0  0  0  0
   18.9703  -23.5112  -11.7977 C   0  0  0  0  0  0  0  0  0  0  0  0
   19.7444  -22.8624  -12.5421 O   0  0  0  0  0  0  0  0  0  0  0  0
   19.1614  -23.6606  -10.3470 C   0  0  0  0  0  0  0  0  0  0  0  0
   18.1106  -24.4759   -9.6386 C   0  0  2  0  0  0  0  0  0  0  0  0
   16.9984  -23.5404   -9.3787 N   0  0  0  0  0  0  0  0  0  0  0  0
   18.6558  -24.9583   -8.3455 C   0  0  0  0  0  0  0  0  0  0  0  0
   19.6042  -25.7708   -8.2919 O   0  0  0  0  0  0  0  0  0  0  0  0
   18.1191  -24.5141   -7.0757 N   0  0  0  0  0  0  0  0  0  0  0  0
   18.6795  -25.0449   -5.8611 C   0  0  0  0  0  0  0  0  0  0  0  0
   17.8124  -25.9142   -5.0860 C   0  0  0  0  0  0  0  0  0  0  0  0
   16.6591  -26.1575   -5.5959 O   0  0  0  0  0  0  0  0  0  0  0  0
   18.6272  -30.3690   -2.8254 N   0  0  0  0  0  0  0  0  0  0  0  0
   18.8895  -29.0033   -2.5920 C   0  0  0  0  0  0  0  0  0  0  0  0
   20.0211  -28.5442   -2.8381 O   0  0  0  0  0  0  0  0  0  0  0  0
   17.8323  -28.1371   -2.0632 C   0  0  0  0  0  0  0  0  0  0  0  0
   17.1912  -27.2775   -3.1309 C   0  0  2  0  0  0  0  0  0  0  0  0
   18.1501  -26.4878   -3.8483 N   0  0  0  0  0  0  0  0  0  0  0  0
   16.0876  -26.4482   -2.5645 C   0  0  0  0  0  0  0  0  0  0  0  0
   14.8259  -26.9361   -2.2698 O   0  0  0  0  0  0  0  0  0  0  0  0
   16.3096  -25.2319   -2.3391 O   0  0  0  0  0  0  0  0  0  0  0  0
  1  2  1  0
  2  3  2  0
  4  5  1  0
  4  2  1  0
  5  6  1  1
  7  5  1  0
  7  8  2  0
  9  7  1  0
 10  9  1  0
 10 11  1  0
 11 18  1  0
 12 11  2  0
 14 16  1  0
 14 13  1  0
 15 14  2  0
 17 16  1  1
 17 19  1  0
 18 17  1  0
 19 21  2  0
 19 20  1  0
M  END
$$$$
