NGN.pdb
     RDKit          3D

 21 20  0  0  1  0  0  0  0  0999 V2000
   25.9592  -17.3203  -19.0618 N   0  0  0  0  0  0  0  0  0  0  0  0
   25.8486  -18.6185  -18.4648 C   0  0  0  0  0  0  0  0  0  0  0  0
   26.1681  -19.5991  -19.1793 O   0  0  0  0  0  0  0  0  0  0  0  0
   25.3770  -18.7345  -17.0764 C   0  0  0  0  0  0  0  0  0  0  0  0
   24.2385  -19.6980  -16.8604 C   0  0  2  0  0  0  0  0  0  0  0  0
   23.0772  -19.0907  -17.5403 N   0  0  0  0  0  0  0  0  0  0  0  0
   23.9552  -19.8016  -15.4075 C   0  0  0  0  0  0  0  0  0  0  0  0
   24.8054  -20.2326  -14.5990 O   0  0  0  0  0  0  0  0  0  0  0  0
   22.6785  -19.4091  -14.8473 N   0  0  0  0  0  0  0  0  0  0  0  0
   22.4030  -19.7120  -13.4676 C   0  0  0  0  0  0  0  0  0  0  0  0
   21.3790  -20.7129  -13.2272 C   0  0  0  0  0  0  0  0  0  0  0  0
   20.7654  -21.1505  -14.2670 O   0  0  0  0  0  0  0  0  0  0  0  0
   18.9875  -24.8524   -9.5185 N   0  0  0  0  0  0  0  0  0  0  0  0
   18.7634  -23.6915  -10.2868 C   0  0  0  0  0  0  0  0  0  0  0  0
   17.6637  -23.5298  -10.8492 O   0  0  0  0  0  0  0  0  0  0  0  0
   19.8225  -22.6871  -10.4177 C   0  0  0  0  0  0  0  0  0  0  0  0
   19.9565  -22.1583  -11.8292 C   0  0  2  0  0  0  0  0  0  0  0  0
   21.0300  -21.2162  -11.9623 N   0  0  0  0  0  0  0  0  0  0  0  0
   18.6602  -21.6105  -12.3250 C   0  0  0  0  0  0  0  0  0  0  0  0
   18.2178  -20.3227  -12.0740 O   0  0  0  0  0  0  0  0  0  0  0  0
   17.9196  -22.3577  -13.0124 O   0  0  0  0  0  0  0  0  0  0  0  0
  1  2  1  0
  2  3  2  0
  4  5  1  0
  4  2  1  0
  5  6  1  6
  7  5  1  0
  7  8  2  0
  9  7  1  0
 10  9  1  0
 10 11  1  0
 11 18  1  0
 12 11  2  0
 14 16  1  0
 14 13  1  0
 15 14  2  0
 17 16  1  1
 17 19  1  0
 18 17  1  0
 19 21  2  0
 19 20  1  0
M  END
$$$$
