NGN.pdb
     RDKit          3D

 21 20  0  0  1  0  0  0  0  0999 V2000
   18.5486  -14.1588  -17.6785 N   0  0  0  0  0  0  0  0  0  0  0  0
   19.9413  -13.8470  -17.8096 C   0  0  0  0  0  0  0  0  0  0  0  0
   20.6539  -14.6832  -18.4156 O   0  0  0  0  0  0  0  0  0  0  0  0
   20.4546  -12.5915  -17.2407 C   0  0  0  0  0  0  0  0  0  0  0  0
   19.4076  -11.6558  -16.6936 C   0  0  2  0  0  0  0  0  0  0  0  0
   18.9645  -10.8469  -17.8464 N   0  0  0  0  0  0  0  0  0  0  0  0
   20.0286  -10.7657  -15.6817 C   0  0  0  0  0  0  0  0  0  0  0  0
   20.5412  -11.2151  -14.6340 O   0  0  0  0  0  0  0  0  0  0  0  0
   20.0748   -9.3282  -15.8528 N   0  0  0  0  0  0  0  0  0  0  0  0
   20.7897   -8.5365  -14.8869 C   0  0  0  0  0  0  0  0  0  0  0  0
   20.8366   -7.1081  -15.1431 C   0  0  0  0  0  0  0  0  0  0  0  0
   20.5881   -6.7448  -16.3495 O   0  0  0  0  0  0  0  0  0  0  0  0
   19.1858   -1.8588  -13.9568 N   0  0  0  0  0  0  0  0  0  0  0  0
   20.4478   -2.4617  -13.7778 C   0  0  0  0  0  0  0  0  0  0  0  0
   21.4807   -1.7828  -13.9333 O   0  0  0  0  0  0  0  0  0  0  0  0
   20.5348   -3.8780  -13.4115 C   0  0  0  0  0  0  0  0  0  0  0  0
   21.0925   -4.7374  -14.5252 C   0  0  2  0  0  0  0  0  0  0  0  0
   21.1290   -6.1289  -14.1783 N   0  0  0  0  0  0  0  0  0  0  0  0
   22.4213   -4.2343  -14.9805 C   0  0  0  0  0  0  0  0  0  0  0  0
   22.6065   -3.4431  -16.1015 O   0  0  0  0  0  0  0  0  0  0  0  0
   23.4388   -4.5438  -14.3109 O   0  0  0  0  0  0  0  0  0  0  0  0
  1  2  1  0
  2  3  2  0
  4  5  1  0
  4  2  1  0
  5  6  1  6
  7  5  1  0
  7  8  2  0
  9  7  1  0
 10  9  1  0
 10 11  1  0
 11 18  1  0
 12 11  2  0
 14 16  1  0
 14 13  1  0
 15 14  2  0
 17 16  1  1
 17 19  1  0
 18 17  1  0
 19 21  2  0
 19 20  1  0
M  END
$$$$
