NGN.pdb
     RDKit          3D

 21 20  0  0  1  0  0  0  0  0999 V2000
   11.3066  -26.5428   -4.4945 N   0  0  0  0  0  0  0  0  0  0  0  0
   11.0525  -25.1455   -4.6870 C   0  0  0  0  0  0  0  0  0  0  0  0
    9.9124  -24.8299   -5.1053 O   0  0  0  0  0  0  0  0  0  0  0  0
   12.1158  -24.1731   -4.3916 C   0  0  0  0  0  0  0  0  0  0  0  0
   11.6814  -22.9598   -3.6105 C   0  0  2  0  0  0  0  0  0  0  0  0
   11.1337  -22.0242   -4.6127 N   0  0  0  0  0  0  0  0  0  0  0  0
   12.8669  -22.3447   -2.9639 C   0  0  0  0  0  0  0  0  0  0  0  0
   13.7417  -21.7449   -3.6252 O   0  0  0  0  0  0  0  0  0  0  0  0
   13.0749  -22.4057   -1.5318 N   0  0  0  0  0  0  0  0  0  0  0  0
   14.1743  -21.6755   -0.9581 C   0  0  0  0  0  0  0  0  0  0  0  0
   14.2880  -21.7275    0.4885 C   0  0  0  0  0  0  0  0  0  0  0  0
   13.3576  -22.3645    1.1030 O   0  0  0  0  0  0  0  0  0  0  0  0
   15.6702  -23.9554    2.8293 N   0  0  0  0  0  0  0  0  0  0  0  0
   16.7355  -23.1609    3.3007 C   0  0  0  0  0  0  0  0  0  0  0  0
   17.7440  -23.7095    3.7843 O   0  0  0  0  0  0  0  0  0  0  0  0
   16.6487  -21.7003    3.2185 C   0  0  0  0  0  0  0  0  0  0  0  0
   15.3234  -21.2229    2.6657 C   0  0  2  0  0  0  0  0  0  0  0  0
   15.3245  -21.1397    1.2336 N   0  0  0  0  0  0  0  0  0  0  0  0
   14.9027  -19.9420    3.3050 C   0  0  0  0  0  0  0  0  0  0  0  0
   15.1252  -18.6919    2.7529 O   0  0  0  0  0  0  0  0  0  0  0  0
   14.3102  -19.9932    4.4121 O   0  0  0  0  0  0  0  0  0  0  0  0
  1  2  1  0
  2  3  2  0
  4  5  1  0
  4  2  1  0
  5  6  1  6
  7  5  1  0
  7  8  2  0
  9  7  1  0
 10  9  1  0
 10 11  1  0
 11 18  1  0
 12 11  2  0
 14 16  1  0
 14 13  1  0
 15 14  2  0
 17 16  1  1
 17 19  1  0
 18 17  1  0
 19 21  2  0
 19 20  1  0
M  END
$$$$
