NGN.pdb
     RDKit          3D

 21 20  0  0  1  0  0  0  0  0999 V2000
   20.5716  -16.6660  -17.9424 N   0  0  0  0  0  0  0  0  0  0  0  0
   21.5217  -16.0915  -18.8486 C   0  0  0  0  0  0  0  0  0  0  0  0
   22.2292  -16.8904  -19.5085 O   0  0  0  0  0  0  0  0  0  0  0  0
   21.6184  -14.6279  -18.9578 C   0  0  0  0  0  0  0  0  0  0  0  0
   20.6804  -13.8516  -18.0699 C   0  0  2  0  0  0  0  0  0  0  0  0
   19.3699  -13.8988  -18.7484 N   0  0  0  0  0  0  0  0  0  0  0  0
   21.1384  -12.4424  -17.9888 C   0  0  0  0  0  0  0  0  0  0  0  0
   22.1101  -12.1047  -17.2789 O   0  0  0  0  0  0  0  0  0  0  0  0
   20.4847  -11.3820  -18.7278 N   0  0  0  0  0  0  0  0  0  0  0  0
   20.9739  -10.0357  -18.5896 C   0  0  0  0  0  0  0  0  0  0  0  0
   20.3146   -9.2180  -17.5870 C   0  0  0  0  0  0  0  0  0  0  0  0
   19.1287   -9.5825  -17.2553 O   0  0  0  0  0  0  0  0  0  0  0  0
   20.6236   -9.2345  -14.0912 N   0  0  0  0  0  0  0  0  0  0  0  0
   21.1724   -7.9561  -13.8611 C   0  0  0  0  0  0  0  0  0  0  0  0
   21.8299   -7.7474  -12.8238 O   0  0  0  0  0  0  0  0  0  0  0  0
   20.9656   -6.8860  -14.8407 C   0  0  0  0  0  0  0  0  0  0  0  0
   20.1267   -7.3264  -16.0205 C   0  0  2  0  0  0  0  0  0  0  0  0
   20.8803   -8.0857  -16.9763 N   0  0  0  0  0  0  0  0  0  0  0  0
   19.4263   -6.1672  -16.6467 C   0  0  0  0  0  0  0  0  0  0  0  0
   18.2095   -5.6709  -16.2107 O   0  0  0  0  0  0  0  0  0  0  0  0
   19.9676   -5.6024  -17.6302 O   0  0  0  0  0  0  0  0  0  0  0  0
  1  2  1  0
  2  3  2  0
  4  5  1  0
  4  2  1  0
  5  6  1  6
  7  5  1  0
  7  8  2  0
  9  7  1  0
 10  9  1  0
 10 11  1  0
 11 18  1  0
 12 11  2  0
 14 16  1  0
 14 13  1  0
 15 14  2  0
 17 16  1  1
 17 19  1  0
 18 17  1  0
 19 21  2  0
 19 20  1  0
M  END
$$$$
