NGN.pdb
     RDKit          3D

 21 20  0  0  1  0  0  0  0  0999 V2000
   15.9916  -20.0652    1.9776 N   0  0  0  0  0  0  0  0  0  0  0  0
   17.2662  -19.4737    1.6959 C   0  0  0  0  0  0  0  0  0  0  0  0
   17.3521  -18.7854    0.6503 O   0  0  0  0  0  0  0  0  0  0  0  0
   18.3847  -19.6974    2.6246 C   0  0  0  0  0  0  0  0  0  0  0  0
   18.0688  -20.5609    3.8185 C   0  0  2  0  0  0  0  0  0  0  0  0
   17.2119  -19.7297    4.6872 N   0  0  0  0  0  0  0  0  0  0  0  0
   19.3274  -20.8817    4.5362 C   0  0  0  0  0  0  0  0  0  0  0  0
   20.2530  -21.5206    3.9908 O   0  0  0  0  0  0  0  0  0  0  0  0
   19.5518  -20.4721    5.9072 N   0  0  0  0  0  0  0  0  0  0  0  0
   20.8235  -20.7569    6.5177 C   0  0  0  0  0  0  0  0  0  0  0  0
   21.0418  -20.1822    7.8331 C   0  0  0  0  0  0  0  0  0  0  0  0
   20.0569  -19.5246    8.3298 O   0  0  0  0  0  0  0  0  0  0  0  0
   23.3947  -22.8562   10.6648 N   0  0  0  0  0  0  0  0  0  0  0  0
   22.7620  -21.6945   11.1530 C   0  0  0  0  0  0  0  0  0  0  0  0
   21.7657  -21.8023   11.8931 O   0  0  0  0  0  0  0  0  0  0  0  0
   23.2793  -20.3731   10.7871 C   0  0  0  0  0  0  0  0  0  0  0  0
   22.3675  -19.6307    9.8345 C   0  0  2  0  0  0  0  0  0  0  0  0
   22.2310  -20.2994    8.5727 N   0  0  0  0  0  0  0  0  0  0  0  0
   22.7945  -18.2098    9.6768 C   0  0  0  0  0  0  0  0  0  0  0  0
   22.3164  -17.1674   10.4527 O   0  0  0  0  0  0  0  0  0  0  0  0
   23.6389  -17.9348    8.7875 O   0  0  0  0  0  0  0  0  0  0  0  0
  1  2  1  0
  2  3  2  0
  4  5  1  0
  4  2  1  0
  5  6  1  1
  7  5  1  0
  7  8  2  0
  9  7  1  0
 10  9  1  0
 10 11  1  0
 11 18  1  0
 12 11  2  0
 14 16  1  0
 14 13  1  0
 15 14  2  0
 17 16  1  1
 17 19  1  0
 18 17  1  0
 19 21  2  0
 19 20  1  0
M  END
$$$$
