NGN.pdb
     RDKit          3D

 21 20  0  0  1  0  0  0  0  0999 V2000
   29.0237  -21.9562  -16.5291 N   0  0  0  0  0  0  0  0  0  0  0  0
   28.3601  -22.3762  -17.7279 C   0  0  0  0  0  0  0  0  0  0  0  0
   29.0455  -22.3910  -18.7788 O   0  0  0  0  0  0  0  0  0  0  0  0
   26.9415  -22.7604  -17.6686 C   0  0  0  0  0  0  0  0  0  0  0  0
   26.3131  -22.6979  -16.3004 C   0  0  2  0  0  0  0  0  0  0  0  0
   27.2727  -23.3645  -15.3979 N   0  0  0  0  0  0  0  0  0  0  0  0
   25.0409  -23.4618  -16.3116 C   0  0  0  0  0  0  0  0  0  0  0  0
   24.1047  -23.1721  -17.0874 O   0  0  0  0  0  0  0  0  0  0  0  0
   24.8150  -24.5844  -15.4247 N   0  0  0  0  0  0  0  0  0  0  0  0
   23.5510  -25.2701  -15.4807 C   0  0  0  0  0  0  0  0  0  0  0  0
   22.4563  -24.6485  -14.7571 C   0  0  0  0  0  0  0  0  0  0  0  0
   21.8106  -25.4113  -13.9506 O   0  0  0  0  0  0  0  0  0  0  0  0
   23.0935  -22.0219  -12.3945 N   0  0  0  0  0  0  0  0  0  0  0  0
   22.2883  -20.9789  -12.8964 C   0  0  0  0  0  0  0  0  0  0  0  0
   22.5222  -19.8037  -12.5557 O   0  0  0  0  0  0  0  0  0  0  0  0
   21.1856  -21.2842  -13.8121 C   0  0  0  0  0  0  0  0  0  0  0  0
   21.0255  -22.7681  -14.0614 C   0  0  2  0  0  0  0  0  0  0  0  0
   22.0731  -23.3023  -14.8831 N   0  0  0  0  0  0  0  0  0  0  0  0
   19.6701  -23.0810  -14.6010 C   0  0  0  0  0  0  0  0  0  0  0  0
   18.5525  -23.2915  -13.8113 O   0  0  0  0  0  0  0  0  0  0  0  0
   19.5266  -23.1601  -15.8470 O   0  0  0  0  0  0  0  0  0  0  0  0
  1  2  1  0
  2  3  2  0
  4  5  1  0
  4  2  1  0
  5  6  1  1
  7  5  1  0
  7  8  2  0
  9  7  1  0
 10  9  1  0
 10 11  1  0
 11 18  1  0
 12 11  2  0
 14 16  1  0
 14 13  1  0
 15 14  2  0
 17 16  1  6
 17 19  1  0
 18 17  1  0
 19 21  2  0
 19 20  1  0
M  END
$$$$
