NGN.pdb
     RDKit          3D

 21 20  0  0  1  0  0  0  0  0999 V2000
   29.0494  -19.5165  -21.0476 N   0  0  0  0  0  0  0  0  0  0  0  0
   28.0785  -18.5651  -20.5935 C   0  0  0  0  0  0  0  0  0  0  0  0
   27.6164  -17.7745  -21.4512 O   0  0  0  0  0  0  0  0  0  0  0  0
   27.6806  -18.5626  -19.1774 C   0  0  0  0  0  0  0  0  0  0  0  0
   28.3508  -19.6029  -18.3174 C   0  0  2  0  0  0  0  0  0  0  0  0
   27.5131  -20.8123  -18.4414 N   0  0  0  0  0  0  0  0  0  0  0  0
   28.3450  -19.1469  -16.9052 C   0  0  0  0  0  0  0  0  0  0  0  0
   28.9374  -18.1067  -16.5458 O   0  0  0  0  0  0  0  0  0  0  0  0
   27.6526  -19.8821  -15.8670 N   0  0  0  0  0  0  0  0  0  0  0  0
   27.6534  -19.3580  -14.5267 C   0  0  0  0  0  0  0  0  0  0  0  0
   26.8075  -20.0507  -13.5712 C   0  0  0  0  0  0  0  0  0  0  0  0
   26.0532  -20.9719  -14.0525 O   0  0  0  0  0  0  0  0  0  0  0  0
   24.3175  -21.9016   -9.5352 N   0  0  0  0  0  0  0  0  0  0  0  0
   25.1711  -20.9169   -8.9967 C   0  0  0  0  0  0  0  0  0  0  0  0
   25.2289  -20.7625   -7.7619 O   0  0  0  0  0  0  0  0  0  0  0  0
   25.9811  -20.0850   -9.8908 C   0  0  0  0  0  0  0  0  0  0  0  0
   25.8554  -20.4920  -11.3428 C   0  0  2  0  0  0  0  0  0  0  0  0
   26.7666  -19.7811  -12.1926 N   0  0  0  0  0  0  0  0  0  0  0  0
   24.4435  -20.3828  -11.8129 C   0  0  0  0  0  0  0  0  0  0  0  0
   23.4913  -21.3729  -11.6392 O   0  0  0  0  0  0  0  0  0  0  0  0
   24.0900  -19.3313  -12.4036 O   0  0  0  0  0  0  0  0  0  0  0  0
  1  2  1  0
  2  3  2  0
  4  5  1  0
  4  2  1  0
  5  6  1  1
  7  5  1  0
  7  8  2  0
  9  7  1  0
 10  9  1  0
 10 11  1  0
 11 18  1  0
 12 11  2  0
 14 16  1  0
 14 13  1  0
 15 14  2  0
 17 16  1  1
 17 19  1  0
 18 17  1  0
 19 21  2  0
 19 20  1  0
M  END
$$$$
