LAF.pdb
     RDKit          3D

 25 25  0  0  1  0  0  0  0  0999 V2000
   12.4149  -20.6758   20.0863 C   0  0  0  0  0  0  0  0  0  0  0  0
   11.3569  -20.0617   19.1658 C   0  0  2  0  0  0  0  0  0  0  0  0
   11.8158  -20.0531   17.7327 C   0  0  0  0  0  0  0  0  0  0  0  0
   11.1335  -18.6567   19.6465 C   0  0  0  0  0  0  0  0  0  0  0  0
   10.7097  -18.7762   21.1286 C   0  0  2  0  0  0  0  0  0  0  0  0
    9.4686  -19.4832   21.1087 N   0  0  0  0  0  0  0  0  0  0  0  0
   10.6210  -17.3849   21.6226 C   0  0  0  0  0  0  0  0  0  0  0  0
   11.6351  -16.6811   21.6969 O   0  0  0  0  0  0  0  0  0  0  0  0
    7.8376  -14.9341   22.2241 C   0  0  0  0  0  0  0  0  0  0  0  0
    9.1785  -15.5577   22.4994 C   0  0  2  0  0  0  0  0  0  0  0  0
    9.3598  -16.8882   22.0012 N   0  0  0  0  0  0  0  0  0  0  0  0
    9.6385  -15.3815   23.8960 C   0  0  0  0  0  0  0  0  0  0  0  0
   10.7429  -14.8466   24.0887 O   0  0  0  0  0  0  0  0  0  0  0  0
    8.8653  -15.8025   25.0333 N   0  0  0  0  0  0  0  0  0  0  0  0
    9.3095  -15.5742   26.3719 C   0  0  1  0  0  0  0  0  0  0  0  0
    8.2616  -15.1370   27.3145 C   0  0  0  0  0  0  0  0  0  0  0  0
    7.6047  -13.9040   26.8472 C   0  0  0  0  0  0  0  0  0  0  0  0
    6.3219  -13.9995   26.3478 C   0  0  0  0  0  0  0  0  0  0  0  0
    5.6190  -12.9100   25.9293 C   0  0  0  0  0  0  0  0  0  0  0  0
    6.1883  -11.6488   25.9935 C   0  0  0  0  0  0  0  0  0  0  0  0
    7.4878  -11.5133   26.4917 C   0  0  0  0  0  0  0  0  0  0  0  0
    8.1662  -12.6437   26.9080 C   0  0  0  0  0  0  0  0  0  0  0  0
   10.0588  -16.8099   26.7906 C   0  0  0  0  0  0  0  0  0  0  0  0
   10.6698  -16.8200   27.8749 O   0  0  0  0  0  0  0  0  0  0  0  0
   10.1170  -17.9802   26.0386 O   0  0  0  0  0  0  0  0  0  0  0  0
  2  1  1  1
  2  3  1  0
  4  2  1  0
  4  5  1  0
  5  7  1  0
  5  6  1  6
  7  8  2  0
 10  9  1  1
 11 10  1  0
 11  7  1  0
 12 14  1  0
 12 10  1  0
 13 12  2  0
 15 14  1  0
 15 16  1  1
 17 16  1  0
 18 17  2  0
 19 18  1  0
 20 19  2  0
 20 21  1  0
 21 22  2  0
 22 17  1  0
 23 25  1  0
 23 15  1  0
 24 23  2  0
M  END
$$$$
