LAF.pdb
     RDKit          3D

 25 25  0  0  1  0  0  0  0  0999 V2000
   10.0807  -20.1179   17.0781 C   0  0  0  0  0  0  0  0  0  0  0  0
    9.1535  -19.8338   18.2627 C   0  0  2  0  0  0  0  0  0  0  0  0
    7.7079  -19.8594   17.8456 C   0  0  0  0  0  0  0  0  0  0  0  0
    9.5199  -18.4715   18.7772 C   0  0  0  0  0  0  0  0  0  0  0  0
    8.8706  -18.3558   20.1757 C   0  0  2  0  0  0  0  0  0  0  0  0
    7.4949  -18.6868   19.9797 N   0  0  0  0  0  0  0  0  0  0  0  0
    9.1161  -16.9621   20.6059 C   0  0  0  0  0  0  0  0  0  0  0  0
   10.2597  -16.4920   20.5825 O   0  0  0  0  0  0  0  0  0  0  0  0
    6.9648  -13.9896   21.5076 C   0  0  0  0  0  0  0  0  0  0  0  0
    8.1758  -14.8784   21.5868 C   0  0  2  0  0  0  0  0  0  0  0  0
    8.0201  -16.1921   21.0377 N   0  0  0  0  0  0  0  0  0  0  0  0
    8.8341  -14.8661   22.9133 C   0  0  0  0  0  0  0  0  0  0  0  0
    9.8119  -14.1180   23.0779 O   0  0  0  0  0  0  0  0  0  0  0  0
    8.3925  -15.6807   24.0133 N   0  0  0  0  0  0  0  0  0  0  0  0
    9.0476  -15.6508   25.2827 C   0  0  1  0  0  0  0  0  0  0  0  0
    8.1540  -15.4896   26.4459 C   0  0  0  0  0  0  0  0  0  0  0  0
    7.6296  -14.1155   26.5292 C   0  0  0  0  0  0  0  0  0  0  0  0
    6.2964  -13.9093   26.2389 C   0  0  0  0  0  0  0  0  0  0  0  0
    5.7121  -12.6817   26.3269 C   0  0  0  0  0  0  0  0  0  0  0  0
    6.4593  -11.5824   26.7169 C   0  0  0  0  0  0  0  0  0  0  0  0
    7.8145  -11.7525   27.0169 C   0  0  0  0  0  0  0  0  0  0  0  0
    8.3687  -13.0151   26.9170 C   0  0  0  0  0  0  0  0  0  0  0  0
    9.9369  -16.8632   25.3338 C   0  0  0  0  0  0  0  0  0  0  0  0
   10.6546  -17.0571   26.3320 O   0  0  0  0  0  0  0  0  0  0  0  0
   10.0157  -17.8171   24.3225 O   0  0  0  0  0  0  0  0  0  0  0  0
  2  1  1  6
  2  3  1  0
  4  2  1  0
  4  5  1  0
  5  7  1  0
  5  6  1  6
  7  8  2  0
 10  9  1  1
 11 10  1  0
 11  7  1  0
 12 14  1  0
 12 10  1  0
 13 12  2  0
 15 14  1  0
 15 16  1  1
 17 16  1  0
 18 17  2  0
 19 18  1  0
 20 19  2  0
 20 21  1  0
 21 22  2  0
 22 17  1  0
 23 25  1  0
 23 15  1  0
 24 23  2  0
M  END
$$$$
