LAF.pdb
     RDKit          3D

 25 25  0  0  1  0  0  0  0  0999 V2000
    3.3154  -20.6157   21.3668 C   0  0  0  0  0  0  0  0  0  0  0  0
    2.7258  -19.2031   21.3425 C   0  0  2  0  0  0  0  0  0  0  0  0
    1.5401  -19.1200   20.4197 C   0  0  0  0  0  0  0  0  0  0  0  0
    3.8184  -18.2903   20.8651 C   0  0  0  0  0  0  0  0  0  0  0  0
    4.9647  -18.4239   21.8942 C   0  0  2  0  0  0  0  0  0  0  0  0
    4.3673  -18.1418   23.1608 N   0  0  0  0  0  0  0  0  0  0  0  0
    5.9911  -17.4498   21.4639 C   0  0  0  0  0  0  0  0  0  0  0  0
    6.6897  -17.6751   20.4686 O   0  0  0  0  0  0  0  0  0  0  0  0
    6.9701  -14.0382   21.4798 C   0  0  0  0  0  0  0  0  0  0  0  0
    7.2739  -15.3990   22.0444 C   0  0  2  0  0  0  0  0  0  0  0  0
    6.1479  -16.2682   22.2121 N   0  0  0  0  0  0  0  0  0  0  0  0
    8.1753  -15.3656   23.2189 C   0  0  0  0  0  0  0  0  0  0  0  0
    9.2527  -14.7560   23.1165 O   0  0  0  0  0  0  0  0  0  0  0  0
    7.8584  -16.0068   24.4667 N   0  0  0  0  0  0  0  0  0  0  0  0
    8.7460  -15.9574   25.5852 C   0  0  1  0  0  0  0  0  0  0  0  0
    8.1277  -15.5401   26.8584 C   0  0  0  0  0  0  0  0  0  0  0  0
    7.6231  -14.1584   26.7786 C   0  0  0  0  0  0  0  0  0  0  0  0
    8.5311  -13.1263   26.8987 C   0  0  0  0  0  0  0  0  0  0  0  0
    8.1655  -11.8177   26.7985 C   0  0  0  0  0  0  0  0  0  0  0  0
    6.8412  -11.4814   26.5704 C   0  0  0  0  0  0  0  0  0  0  0  0
    5.8920  -12.5006   26.4456 C   0  0  0  0  0  0  0  0  0  0  0  0
    6.3045  -13.8159   26.5517 C   0  0  0  0  0  0  0  0  0  0  0  0
    9.4500  -17.2862   25.6316 C   0  0  0  0  0  0  0  0  0  0  0  0
   10.3194  -17.4909   26.4984 O   0  0  0  0  0  0  0  0  0  0  0  0
    9.1908  -18.3383   24.7571 O   0  0  0  0  0  0  0  0  0  0  0  0
  2  1  1  6
  2  3  1  0
  4  2  1  0
  4  5  1  0
  5  7  1  0
  5  6  1  1
  7  8  2  0
 10  9  1  1
 11 10  1  0
 11  7  1  0
 12 14  1  0
 12 10  1  0
 13 12  2  0
 15 14  1  0
 15 16  1  1
 17 16  1  0
 18 17  2  0
 19 18  1  0
 20 19  2  0
 20 21  1  0
 21 22  2  0
 22 17  1  0
 23 25  1  0
 23 15  1  0
 24 23  2  0
M  END
$$$$
