LAF.pdb
     RDKit          3D

 25 25  0  0  1  0  0  0  0  0999 V2000
    9.6144  -14.2139   19.1221 C   0  0  0  0  0  0  0  0  0  0  0  0
    8.2331  -13.7362   19.5777 C   0  0  2  0  0  0  0  0  0  0  0  0
    8.1488  -12.2338   19.5881 C   0  0  0  0  0  0  0  0  0  0  0  0
    8.0282  -14.2759   20.9640 C   0  0  0  0  0  0  0  0  0  0  0  0
    8.0351  -15.8159   20.8265 C   0  0  2  0  0  0  0  0  0  0  0  0
    6.7688  -16.1478   20.2544 N   0  0  0  0  0  0  0  0  0  0  0  0
    8.2479  -16.3292   22.1972 C   0  0  0  0  0  0  0  0  0  0  0  0
    7.3524  -16.2395   23.0454 O   0  0  0  0  0  0  0  0  0  0  0  0
   10.4462  -18.7801   23.8490 C   0  0  0  0  0  0  0  0  0  0  0  0
    9.7909  -17.4267   23.8106 C   0  0  2  0  0  0  0  0  0  0  0  0
    9.4877  -16.9192   22.5060 N   0  0  0  0  0  0  0  0  0  0  0  0
   10.4353  -16.4309   24.6973 C   0  0  0  0  0  0  0  0  0  0  0  0
   11.4957  -15.9057   24.3195 O   0  0  0  0  0  0  0  0  0  0  0  0
    9.8891  -16.0488   25.9718 N   0  0  0  0  0  0  0  0  0  0  0  0
   10.6231  -15.2412   26.8938 C   0  0  1  0  0  0  0  0  0  0  0  0
   10.3310  -13.7960   26.8324 C   0  0  0  0  0  0  0  0  0  0  0  0
    8.8796  -13.5464   26.7967 C   0  0  0  0  0  0  0  0  0  0  0  0
    8.1730  -13.9739   25.6912 C   0  0  0  0  0  0  0  0  0  0  0  0
    6.8230  -13.8237   25.5854 C   0  0  0  0  0  0  0  0  0  0  0  0
    6.1083  -13.2216   26.6079 C   0  0  0  0  0  0  0  0  0  0  0  0
    6.7909  -12.7734   27.7431 C   0  0  0  0  0  0  0  0  0  0  0  0
    8.1608  -12.9466   27.8121 C   0  0  0  0  0  0  0  0  0  0  0  0
   10.4379  -15.8650   28.2504 C   0  0  0  0  0  0  0  0  0  0  0  0
   10.9048  -15.2989   29.2557 O   0  0  0  0  0  0  0  0  0  0  0  0
    9.7580  -17.0592   28.4745 O   0  0  0  0  0  0  0  0  0  0  0  0
  2  1  1  1
  2  3  1  0
  4  2  1  0
  4  5  1  0
  5  7  1  0
  5  6  1  1
  7  8  2  0
 10  9  1  6
 11 10  1  0
 11  7  1  0
 12 14  1  0
 12 10  1  0
 13 12  2  0
 15 14  1  0
 15 16  1  1
 17 16  1  0
 18 17  2  0
 19 18  1  0
 20 19  2  0
 20 21  1  0
 21 22  2  0
 22 17  1  0
 23 25  1  0
 23 15  1  0
 24 23  2  0
M  END
$$$$
