LAF.pdb
     RDKit          3D

 25 25  0  0  1  0  0  0  0  0999 V2000
    9.2452  -14.4594   19.0046 C   0  0  0  0  0  0  0  0  0  0  0  0
    7.9441  -13.7975   19.4658 C   0  0  2  0  0  0  0  0  0  0  0  0
    8.0456  -12.2970   19.4176 C   0  0  0  0  0  0  0  0  0  0  0  0
    7.7062  -14.2555   20.8760 C   0  0  0  0  0  0  0  0  0  0  0  0
    7.5555  -15.7926   20.8047 C   0  0  2  0  0  0  0  0  0  0  0  0
    6.1932  -16.0201   20.4398 N   0  0  0  0  0  0  0  0  0  0  0  0
    7.9257  -16.2839   22.1498 C   0  0  0  0  0  0  0  0  0  0  0  0
    7.1838  -16.0779   23.1176 O   0  0  0  0  0  0  0  0  0  0  0  0
   10.2527  -18.8792   23.4623 C   0  0  0  0  0  0  0  0  0  0  0  0
    9.5467  -17.5535   23.5457 C   0  0  2  0  0  0  0  0  0  0  0  0
    9.1353  -16.9882   22.2956 N   0  0  0  0  0  0  0  0  0  0  0  0
   10.2138  -16.5823   24.4429 C   0  0  0  0  0  0  0  0  0  0  0  0
   11.0155  -15.7752   23.9442 O   0  0  0  0  0  0  0  0  0  0  0  0
    9.9750  -16.5349   25.8604 N   0  0  0  0  0  0  0  0  0  0  0  0
   10.6999  -15.6503   26.7168 C   0  0  1  0  0  0  0  0  0  0  0  0
   10.5062  -14.2133   26.4427 C   0  0  0  0  0  0  0  0  0  0  0  0
    9.1147  -13.8041   26.7004 C   0  0  0  0  0  0  0  0  0  0  0  0
    8.8881  -12.8349   27.6562 C   0  0  0  0  0  0  0  0  0  0  0  0
    7.6408  -12.3637   27.9360 C   0  0  0  0  0  0  0  0  0  0  0  0
    6.5415  -12.8588   27.2537 C   0  0  0  0  0  0  0  0  0  0  0  0
    6.7321  -13.8437   26.2796 C   0  0  0  0  0  0  0  0  0  0  0  0
    8.0142  -14.2935   26.0245 C   0  0  0  0  0  0  0  0  0  0  0  0
   10.3894  -16.0708   28.1276 C   0  0  0  0  0  0  0  0  0  0  0  0
    9.5840  -16.9981   28.3291 O   0  0  0  0  0  0  0  0  0  0  0  0
   10.9561  -15.4889   29.2585 O   0  0  0  0  0  0  0  0  0  0  0  0
  2  1  1  1
  2  3  1  0
  4  2  1  0
  4  5  1  0
  5  7  1  0
  5  6  1  1
  7  8  2  0
 10  9  1  6
 11 10  1  0
 11  7  1  0
 12 14  1  0
 12 10  1  0
 13 12  2  0
 15 14  1  0
 15 16  1  1
 17 16  1  0
 18 17  2  0
 19 18  1  0
 20 19  2  0
 20 21  1  0
 21 22  2  0
 22 17  1  0
 23 25  1  0
 23 15  1  0
 24 23  2  0
M  END
$$$$
