LAF.pdb
     RDKit          3D

 25 25  0  0  1  0  0  0  0  0999 V2000
    5.3973  -21.4573   23.5136 C   0  0  0  0  0  0  0  0  0  0  0  0
    5.5410  -21.1863   22.0137 C   0  0  2  0  0  0  0  0  0  0  0  0
    5.9134  -22.4368   21.2642 C   0  0  0  0  0  0  0  0  0  0  0  0
    6.6206  -20.1531   21.8660 C   0  0  0  0  0  0  0  0  0  0  0  0
    6.1305  -18.9108   22.6452 C   0  0  2  0  0  0  0  0  0  0  0  0
    4.8005  -18.6759   22.1796 N   0  0  0  0  0  0  0  0  0  0  0  0
    7.0974  -17.8398   22.3205 C   0  0  0  0  0  0  0  0  0  0  0  0
    8.2857  -18.1115   22.1117 O   0  0  0  0  0  0  0  0  0  0  0  0
    6.8500  -14.1589   21.4856 C   0  0  0  0  0  0  0  0  0  0  0  0
    7.5049  -15.4046   22.0166 C   0  0  2  0  0  0  0  0  0  0  0  0
    6.6306  -16.5138   22.2549 N   0  0  0  0  0  0  0  0  0  0  0  0
    8.4521  -15.1494   23.1260 C   0  0  0  0  0  0  0  0  0  0  0  0
    9.4205  -14.4014   22.9125 O   0  0  0  0  0  0  0  0  0  0  0  0
    8.2998  -15.7288   24.4336 N   0  0  0  0  0  0  0  0  0  0  0  0
    9.1744  -15.3931   25.5123 C   0  0  1  0  0  0  0  0  0  0  0  0
    8.5033  -14.9429   26.7470 C   0  0  0  0  0  0  0  0  0  0  0  0
    7.8089  -13.6604   26.5393 C   0  0  0  0  0  0  0  0  0  0  0  0
    6.4305  -13.6701   26.4742 C   0  0  0  0  0  0  0  0  0  0  0  0
    5.6992  -12.5304   26.3244 C   0  0  0  0  0  0  0  0  0  0  0  0
    6.3356  -11.3037   26.2290 C   0  0  0  0  0  0  0  0  0  0  0  0
    7.7318  -11.2549   26.2885 C   0  0  0  0  0  0  0  0  0  0  0  0
    8.4367  -12.4341   26.4431 C   0  0  0  0  0  0  0  0  0  0  0  0
   10.1031  -16.5634   25.6900 C   0  0  0  0  0  0  0  0  0  0  0  0
    9.9011  -17.6109   25.0489 O   0  0  0  0  0  0  0  0  0  0  0  0
   11.2082  -16.5617   26.5371 O   0  0  0  0  0  0  0  0  0  0  0  0
  2  1  1  1
  2  3  1  0
  4  2  1  0
  4  5  1  0
  5  7  1  0
  5  6  1  6
  7  8  2  0
 10  9  1  1
 11 10  1  0
 11  7  1  0
 12 14  1  0
 12 10  1  0
 13 12  2  0
 15 14  1  0
 15 16  1  1
 17 16  1  0
 18 17  2  0
 19 18  1  0
 20 19  2  0
 20 21  1  0
 21 22  2  0
 22 17  1  0
 23 25  1  0
 23 15  1  0
 24 23  2  0
M  END
$$$$
