LAF.pdb
     RDKit          3D

 25 25  0  0  1  0  0  0  0  0999 V2000
    4.9213  -20.8038   24.3589 C   0  0  0  0  0  0  0  0  0  0  0  0
    5.8422  -20.5890   23.1550 C   0  0  2  0  0  0  0  0  0  0  0  0
    7.0640  -21.4637   23.2367 C   0  0  0  0  0  0  0  0  0  0  0  0
    6.2399  -19.1411   23.1719 C   0  0  0  0  0  0  0  0  0  0  0  0
    6.2899  -18.6960   21.6920 C   0  0  2  0  0  0  0  0  0  0  0  0
    6.6777  -19.8612   20.9621 N   0  0  0  0  0  0  0  0  0  0  0  0
    7.2673  -17.5868   21.6508 C   0  0  0  0  0  0  0  0  0  0  0  0
    8.4779  -17.8223   21.5580 O   0  0  0  0  0  0  0  0  0  0  0  0
    7.0311  -13.8433   21.2156 C   0  0  0  0  0  0  0  0  0  0  0  0
    7.6554  -15.1299   21.6821 C   0  0  2  0  0  0  0  0  0  0  0  0
    6.7847  -16.2666   21.7179 N   0  0  0  0  0  0  0  0  0  0  0  0
    8.4818  -14.9794   22.9018 C   0  0  0  0  0  0  0  0  0  0  0  0
    9.3737  -14.1149   22.9052 O   0  0  0  0  0  0  0  0  0  0  0  0
    8.2974  -15.7887   24.0764 N   0  0  0  0  0  0  0  0  0  0  0  0
    9.0458  -15.5617   25.2721 C   0  0  1  0  0  0  0  0  0  0  0  0
    8.2391  -15.4204   26.4996 C   0  0  0  0  0  0  0  0  0  0  0  0
    7.5092  -14.1409   26.5139 C   0  0  0  0  0  0  0  0  0  0  0  0
    8.2383  -12.9777   26.6536 C   0  0  0  0  0  0  0  0  0  0  0  0
    7.6566  -11.7458   26.6381 C   0  0  0  0  0  0  0  0  0  0  0  0
    6.2856  -11.6265   26.4804 C   0  0  0  0  0  0  0  0  0  0  0  0
    5.5135  -12.7837   26.3383 C   0  0  0  0  0  0  0  0  0  0  0  0
    6.1428  -14.0145   26.3575 C   0  0  0  0  0  0  0  0  0  0  0  0
   10.0977  -16.6359   25.3288 C   0  0  0  0  0  0  0  0  0  0  0  0
   10.9138  -16.6476   26.2684 O   0  0  0  0  0  0  0  0  0  0  0  0
   10.2275  -17.6522   24.3859 O   0  0  0  0  0  0  0  0  0  0  0  0
  2  1  1  1
  2  3  1  0
  4  2  1  0
  4  5  1  0
  5  7  1  0
  5  6  1  6
  7  8  2  0
 10  9  1  1
 11 10  1  0
 11  7  1  0
 12 14  1  0
 12 10  1  0
 13 12  2  0
 15 14  1  0
 15 16  1  1
 17 16  1  0
 18 17  2  0
 19 18  1  0
 20 19  2  0
 20 21  1  0
 21 22  2  0
 22 17  1  0
 23 25  1  0
 23 15  1  0
 24 23  2  0
M  END
$$$$
