LAF.pdb
     RDKit          3D

 25 25  0  0  1  0  0  0  0  0999 V2000
    6.5689  -13.6203   20.9279 C   0  0  0  0  0  0  0  0  0  0  0  0
    8.0303  -13.8696   20.5458 C   0  0  2  0  0  0  0  0  0  0  0  0
    8.5788  -12.7426   19.7131 C   0  0  0  0  0  0  0  0  0  0  0  0
    8.0567  -15.1515   19.7641 C   0  0  0  0  0  0  0  0  0  0  0  0
    7.8748  -16.2853   20.7995 C   0  0  2  0  0  0  0  0  0  0  0  0
    6.8768  -15.8108   21.7048 N   0  0  0  0  0  0  0  0  0  0  0  0
    9.2115  -16.4828   21.4009 C   0  0  0  0  0  0  0  0  0  0  0  0
   10.0560  -17.1853   20.8328 O   0  0  0  0  0  0  0  0  0  0  0  0
   11.8300  -15.0688   22.9617 C   0  0  0  0  0  0  0  0  0  0  0  0
   10.7356  -16.0380   23.3161 C   0  0  2  0  0  0  0  0  0  0  0  0
    9.4935  -15.8526   22.6272 N   0  0  0  0  0  0  0  0  0  0  0  0
   10.5779  -16.2467   24.7737 C   0  0  0  0  0  0  0  0  0  0  0  0
   11.5892  -16.1744   25.4912 O   0  0  0  0  0  0  0  0  0  0  0  0
    9.3099  -16.5296   25.3908 N   0  0  0  0  0  0  0  0  0  0  0  0
    9.1608  -16.5916   26.8104 C   0  0  1  0  0  0  0  0  0  0  0  0
    7.8914  -16.0490   27.3319 C   0  0  0  0  0  0  0  0  0  0  0  0
    7.6159  -14.7117   26.7789 C   0  0  0  0  0  0  0  0  0  0  0  0
    8.3718  -13.6510   27.2347 C   0  0  0  0  0  0  0  0  0  0  0  0
    8.2175  -12.3855   26.7541 C   0  0  0  0  0  0  0  0  0  0  0  0
    7.2739  -12.1243   25.7742 C   0  0  0  0  0  0  0  0  0  0  0  0
    6.4875  -13.1741   25.2896 C   0  0  0  0  0  0  0  0  0  0  0  0
    6.6768  -14.4440   25.8023 C   0  0  0  0  0  0  0  0  0  0  0  0
    9.4501  -18.0132   27.2092 C   0  0  0  0  0  0  0  0  0  0  0  0
    9.4371  -18.9085   26.3447 O   0  0  0  0  0  0  0  0  0  0  0  0
    9.7469  -18.4146   28.5090 O   0  0  0  0  0  0  0  0  0  0  0  0
  2  1  1  6
  2  3  1  0
  4  2  1  0
  4  5  1  0
  5  7  1  0
  5  6  1  1
  7  8  2  0
 10  9  1  1
 11 10  1  0
 11  7  1  0
 12 14  1  0
 12 10  1  0
 13 12  2  0
 15 14  1  0
 15 16  1  6
 17 16  1  0
 18 17  2  0
 19 18  1  0
 20 19  2  0
 20 21  1  0
 21 22  2  0
 22 17  1  0
 23 25  1  0
 23 15  1  0
 24 23  2  0
M  END
$$$$
