LAF.pdb
     RDKit          3D

 25 25  0  0  1  0  0  0  0  0999 V2000
    9.4720  -14.0146   19.3076 C   0  0  0  0  0  0  0  0  0  0  0  0
    8.0733  -13.5672   19.7403 C   0  0  2  0  0  0  0  0  0  0  0  0
    8.0004  -12.0724   19.8976 C   0  0  0  0  0  0  0  0  0  0  0  0
    7.7946  -14.2402   21.0534 C   0  0  0  0  0  0  0  0  0  0  0  0
    7.8119  -15.7592   20.7653 C   0  0  2  0  0  0  0  0  0  0  0  0
    6.5504  -16.0406   20.1569 N   0  0  0  0  0  0  0  0  0  0  0  0
    8.0217  -16.4036   22.0800 C   0  0  0  0  0  0  0  0  0  0  0  0
    7.1211  -16.4044   22.9275 O   0  0  0  0  0  0  0  0  0  0  0  0
   10.1670  -18.9959   23.5343 C   0  0  0  0  0  0  0  0  0  0  0  0
    9.5771  -17.6136   23.5981 C   0  0  2  0  0  0  0  0  0  0  0  0
    9.2645  -17.0120   22.3364 N   0  0  0  0  0  0  0  0  0  0  0  0
   10.2921  -16.7064   24.5248 C   0  0  0  0  0  0  0  0  0  0  0  0
   11.3573  -16.1947   24.1422 O   0  0  0  0  0  0  0  0  0  0  0  0
    9.8086  -16.3949   25.8431 N   0  0  0  0  0  0  0  0  0  0  0  0
   10.5423  -15.5535   26.7347 C   0  0  1  0  0  0  0  0  0  0  0  0
   10.3824  -14.1047   26.5038 C   0  0  0  0  0  0  0  0  0  0  0  0
    8.9754  -13.6935   26.6497 C   0  0  0  0  0  0  0  0  0  0  0  0
    8.0510  -14.2129   25.7664 C   0  0  0  0  0  0  0  0  0  0  0  0
    6.7223  -13.9228   25.8468 C   0  0  0  0  0  0  0  0  0  0  0  0
    6.2541  -13.0772   26.8391 C   0  0  0  0  0  0  0  0  0  0  0  0
    7.1620  -12.5298   27.7510 C   0  0  0  0  0  0  0  0  0  0  0  0
    8.5017  -12.8509   27.6361 C   0  0  0  0  0  0  0  0  0  0  0  0
   10.2066  -16.0109   28.1281 C   0  0  0  0  0  0  0  0  0  0  0  0
   10.6482  -15.3791   29.1052 O   0  0  0  0  0  0  0  0  0  0  0  0
    9.4103  -17.1161   28.4166 O   0  0  0  0  0  0  0  0  0  0  0  0
  2  1  1  1
  2  3  1  0
  4  2  1  0
  4  5  1  0
  5  7  1  0
  5  6  1  1
  7  8  2  0
 10  9  1  6
 11 10  1  0
 11  7  1  0
 12 14  1  0
 12 10  1  0
 13 12  2  0
 15 14  1  0
 15 16  1  1
 17 16  1  0
 18 17  2  0
 19 18  1  0
 20 19  2  0
 20 21  1  0
 21 22  2  0
 22 17  1  0
 23 25  1  0
 23 15  1  0
 24 23  2  0
M  END
$$$$
