LAF.pdb
     RDKit          3D

 25 25  0  0  1  0  0  0  0  0999 V2000
    9.3297  -13.6076   19.7070 C   0  0  0  0  0  0  0  0  0  0  0  0
    7.8230  -13.4125   19.8956 C   0  0  2  0  0  0  0  0  0  0  0  0
    7.4658  -11.9532   19.9805 C   0  0  0  0  0  0  0  0  0  0  0  0
    7.4567  -14.1106   21.1736 C   0  0  0  0  0  0  0  0  0  0  0  0
    7.8705  -15.5884   20.9852 C   0  0  2  0  0  0  0  0  0  0  0  0
    6.8053  -16.1853   20.2436 N   0  0  0  0  0  0  0  0  0  0  0  0
    8.0462  -16.1221   22.3534 C   0  0  0  0  0  0  0  0  0  0  0  0
    7.0680  -16.2834   23.0928 O   0  0  0  0  0  0  0  0  0  0  0  0
   10.4439  -18.3226   23.9853 C   0  0  0  0  0  0  0  0  0  0  0  0
    9.6021  -17.0773   24.0431 C   0  0  2  0  0  0  0  0  0  0  0  0
    9.3471  -16.4400   22.7859 N   0  0  0  0  0  0  0  0  0  0  0  0
   10.0091  -16.1359   25.1113 C   0  0  0  0  0  0  0  0  0  0  0  0
   10.9219  -15.3293   24.8683 O   0  0  0  0  0  0  0  0  0  0  0  0
    9.3963  -16.1167   26.4124 N   0  0  0  0  0  0  0  0  0  0  0  0
    9.8704  -15.2629   27.4553 C   0  0  1  0  0  0  0  0  0  0  0  0
    8.8219  -14.5308   28.1917 C   0  0  0  0  0  0  0  0  0  0  0  0
    8.0603  -13.6445   27.2949 C   0  0  0  0  0  0  0  0  0  0  0  0
    8.5775  -12.3944   27.0226 C   0  0  0  0  0  0  0  0  0  0  0  0
    7.9659  -11.5208   26.1747 C   0  0  0  0  0  0  0  0  0  0  0  0
    6.7799  -11.8722   25.5511 C   0  0  0  0  0  0  0  0  0  0  0  0
    6.2244  -13.1302   25.8047 C   0  0  0  0  0  0  0  0  0  0  0  0
    6.8774  -13.9880   26.6701 C   0  0  0  0  0  0  0  0  0  0  0  0
   10.7769  -16.1010   28.3152 C   0  0  0  0  0  0  0  0  0  0  0  0
   11.4148  -15.5651   29.2399 O   0  0  0  0  0  0  0  0  0  0  0  0
   10.9570  -17.4724   28.1551 O   0  0  0  0  0  0  0  0  0  0  0  0
  2  1  1  1
  2  3  1  0
  4  2  1  0
  4  5  1  0
  5  7  1  0
  5  6  1  1
  7  8  2  0
 10  9  1  6
 11 10  1  0
 11  7  1  0
 12 14  1  0
 12 10  1  0
 13 12  2  0
 15 14  1  0
 15 16  1  1
 17 16  1  0
 18 17  2  0
 19 18  1  0
 20 19  2  0
 20 21  1  0
 21 22  2  0
 22 17  1  0
 23 25  1  0
 23 15  1  0
 24 23  2  0
M  END
$$$$
