LAF.pdb
     RDKit          3D

 25 25  0  0  1  0  0  0  0  0999 V2000
    7.4941  -20.5235   13.0014 C   0  0  0  0  0  0  0  0  0  0  0  0
    6.1306  -20.8759   13.6018 C   0  0  2  0  0  0  0  0  0  0  0  0
    5.3808  -21.8446   12.7278 C   0  0  0  0  0  0  0  0  0  0  0  0
    5.3679  -19.5877   13.7198 C   0  0  0  0  0  0  0  0  0  0  0  0
    3.9473  -19.9758   14.1910 C   0  0  2  0  0  0  0  0  0  0  0  0
    3.1803  -18.7739   14.1011 N   0  0  0  0  0  0  0  0  0  0  0  0
    4.1203  -20.4977   15.5640 C   0  0  0  0  0  0  0  0  0  0  0  0
    4.5710  -19.7712   16.4576 O   0  0  0  0  0  0  0  0  0  0  0  0
    2.7282  -23.2684   17.5729 C   0  0  0  0  0  0  0  0  0  0  0  0
    3.8879  -22.4233   17.1216 C   0  0  2  0  0  0  0  0  0  0  0  0
    3.7590  -21.8329   15.8230 N   0  0  0  0  0  0  0  0  0  0  0  0
    5.2073  -23.0536   17.3563 C   0  0  0  0  0  0  0  0  0  0  0  0
    5.7648  -23.6235   16.4038 O   0  0  0  0  0  0  0  0  0  0  0  0
    5.8668  -23.0353   18.6343 N   0  0  0  0  0  0  0  0  0  0  0  0
    7.1243  -23.6810   18.8419 C   0  0  1  0  0  0  0  0  0  0  0  0
    8.1446  -22.8622   19.5246 C   0  0  0  0  0  0  0  0  0  0  0  0
    8.5228  -21.6940   18.7108 C   0  0  0  0  0  0  0  0  0  0  0  0
    8.1480  -20.4425   19.1555 C   0  0  0  0  0  0  0  0  0  0  0  0
    8.4859  -19.3013   18.4925 C   0  0  0  0  0  0  0  0  0  0  0  0
    9.2299  -19.3694   17.3260 C   0  0  0  0  0  0  0  0  0  0  0  0
    9.6259  -20.6207   16.8434 C   0  0  0  0  0  0  0  0  0  0  0  0
    9.2641  -21.7544   17.5470 C   0  0  0  0  0  0  0  0  0  0  0  0
    6.8247  -24.9976   19.5055 C   0  0  0  0  0  0  0  0  0  0  0  0
    7.7327  -25.8381   19.6406 O   0  0  0  0  0  0  0  0  0  0  0  0
    5.5736  -25.3557   20.0008 O   0  0  0  0  0  0  0  0  0  0  0  0
  2  1  1  6
  2  3  1  0
  4  2  1  0
  4  5  1  0
  5  7  1  0
  5  6  1  1
  7  8  2  0
 10  9  1  6
 11 10  1  0
 11  7  1  0
 12 14  1  0
 12 10  1  0
 13 12  2  0
 15 14  1  0
 15 16  1  1
 17 16  1  0
 18 17  2  0
 19 18  1  0
 20 19  2  0
 20 21  1  0
 21 22  2  0
 22 17  1  0
 23 25  1  0
 23 15  1  0
 24 23  2  0
M  END
$$$$
