LAF.pdb
     RDKit          3D

 25 25  0  0  1  0  0  0  0  0999 V2000
    9.6368  -13.1094   19.7633 C   0  0  0  0  0  0  0  0  0  0  0  0
    8.1479  -13.1763   19.4137 C   0  0  2  0  0  0  0  0  0  0  0  0
    7.4797  -11.8415   19.6044 C   0  0  0  0  0  0  0  0  0  0  0  0
    7.5373  -14.1967   20.3307 C   0  0  0  0  0  0  0  0  0  0  0  0
    8.2778  -15.5235   20.0444 C   0  0  2  0  0  0  0  0  0  0  0  0
    7.6127  -16.0885   18.9134 N   0  0  0  0  0  0  0  0  0  0  0  0
    8.1596  -16.3131   21.2894 C   0  0  0  0  0  0  0  0  0  0  0  0
    7.0635  -16.7635   21.6433 O   0  0  0  0  0  0  0  0  0  0  0  0
   10.0168  -18.7030   23.0568 C   0  0  0  0  0  0  0  0  0  0  0  0
    9.3242  -17.3769   23.2130 C   0  0  2  0  0  0  0  0  0  0  0  0
    9.3204  -16.5368   22.0529 N   0  0  0  0  0  0  0  0  0  0  0  0
    9.6855  -16.6627   24.4590 C   0  0  0  0  0  0  0  0  0  0  0  0
   10.7183  -15.9727   24.4633 O   0  0  0  0  0  0  0  0  0  0  0  0
    8.8959  -16.7348   25.6590 N   0  0  0  0  0  0  0  0  0  0  0  0
    9.2866  -16.0643   26.8586 C   0  0  1  0  0  0  0  0  0  0  0  0
    8.1950  -15.3810   27.5791 C   0  0  0  0  0  0  0  0  0  0  0  0
    7.7948  -14.1420   26.8901 C   0  0  0  0  0  0  0  0  0  0  0  0
    6.5404  -14.0924   26.3171 C   0  0  0  0  0  0  0  0  0  0  0  0
    6.0668  -12.9774   25.6936 C   0  0  0  0  0  0  0  0  0  0  0  0
    6.8516  -11.8387   25.6149 C   0  0  0  0  0  0  0  0  0  0  0  0
    8.1297  -11.8524   26.1821 C   0  0  0  0  0  0  0  0  0  0  0  0
    8.5720  -13.0033   26.8075 C   0  0  0  0  0  0  0  0  0  0  0  0
   10.0531  -17.0662   27.6785 C   0  0  0  0  0  0  0  0  0  0  0  0
    9.9105  -18.2820   27.4534 O   0  0  0  0  0  0  0  0  0  0  0  0
   10.9415  -16.7270   28.6955 O   0  0  0  0  0  0  0  0  0  0  0  0
  2  1  1  1
  2  3  1  0
  4  2  1  0
  4  5  1  0
  5  7  1  0
  5  6  1  6
  7  8  2  0
 10  9  1  6
 11 10  1  0
 11  7  1  0
 12 14  1  0
 12 10  1  0
 13 12  2  0
 15 14  1  0
 15 16  1  1
 17 16  1  0
 18 17  2  0
 19 18  1  0
 20 19  2  0
 20 21  1  0
 21 22  2  0
 22 17  1  0
 23 25  1  0
 23 15  1  0
 24 23  2  0
M  END
$$$$
