LAF.pdb
     RDKit          3D

 25 25  0  0  1  0  0  0  0  0999 V2000
    7.0587  -20.4920   27.9519 C   0  0  0  0  0  0  0  0  0  0  0  0
    7.2112  -21.7060   27.0318 C   0  0  2  0  0  0  0  0  0  0  0  0
    8.1722  -22.7116   27.6060 C   0  0  0  0  0  0  0  0  0  0  0  0
    7.7264  -21.1880   25.7199 C   0  0  0  0  0  0  0  0  0  0  0  0
    6.9694  -19.8655   25.4576 C   0  0  2  0  0  0  0  0  0  0  0  0
    5.6199  -20.2514   25.1916 N   0  0  0  0  0  0  0  0  0  0  0  0
    7.6686  -19.2352   24.3168 C   0  0  0  0  0  0  0  0  0  0  0  0
    8.9015  -19.2845   24.2336 O   0  0  0  0  0  0  0  0  0  0  0  0
    6.5420  -17.5530   21.1009 C   0  0  0  0  0  0  0  0  0  0  0  0
    7.4880  -17.9256   22.2095 C   0  0  2  0  0  0  0  0  0  0  0  0
    6.8974  -18.5843   23.3360 N   0  0  0  0  0  0  0  0  0  0  0  0
    8.4211  -16.8380   22.5829 C   0  0  0  0  0  0  0  0  0  0  0  0
    9.1890  -16.3968   21.7120 O   0  0  0  0  0  0  0  0  0  0  0  0
    8.4768  -16.2745   23.9050 N   0  0  0  0  0  0  0  0  0  0  0  0
    9.4167  -15.2552   24.2499 C   0  0  1  0  0  0  0  0  0  0  0  0
    8.9095  -13.8733   24.1459 C   0  0  0  0  0  0  0  0  0  0  0  0
    7.8706  -13.6091   25.1562 C   0  0  0  0  0  0  0  0  0  0  0  0
    8.1952  -12.8019   26.2274 C   0  0  0  0  0  0  0  0  0  0  0  0
    7.2907  -12.4688   27.1902 C   0  0  0  0  0  0  0  0  0  0  0  0
    5.9918  -12.9448   27.1184 C   0  0  0  0  0  0  0  0  0  0  0  0
    5.6268  -13.7676   26.0483 C   0  0  0  0  0  0  0  0  0  0  0  0
    6.5740  -14.0805   25.0912 C   0  0  0  0  0  0  0  0  0  0  0  0
    9.9713  -15.6236   25.5991 C   0  0  0  0  0  0  0  0  0  0  0  0
   10.9081  -14.9601   26.0802 O   0  0  0  0  0  0  0  0  0  0  0  0
    9.4982  -16.6771   26.3768 O   0  0  0  0  0  0  0  0  0  0  0  0
  2  1  1  1
  2  3  1  0
  4  2  1  0
  4  5  1  0
  5  7  1  0
  5  6  1  6
  7  8  2  0
 10  9  1  6
 11 10  1  0
 11  7  1  0
 12 14  1  0
 12 10  1  0
 13 12  2  0
 15 14  1  0
 15 16  1  1
 17 16  1  0
 18 17  2  0
 19 18  1  0
 20 19  2  0
 20 21  1  0
 21 22  2  0
 22 17  1  0
 23 25  1  0
 23 15  1  0
 24 23  2  0
M  END
$$$$
