LAF.pdb
     RDKit          3D

 25 25  0  0  1  0  0  0  0  0999 V2000
    9.4178  -13.6035   19.2804 C   0  0  0  0  0  0  0  0  0  0  0  0
    7.9483  -13.3933   19.6545 C   0  0  2  0  0  0  0  0  0  0  0  0
    7.6353  -11.9341   19.8475 C   0  0  0  0  0  0  0  0  0  0  0  0
    7.7194  -14.1456   20.9338 C   0  0  0  0  0  0  0  0  0  0  0  0
    8.0943  -15.6158   20.6360 C   0  0  2  0  0  0  0  0  0  0  0  0
    6.9420  -16.1769   20.0050 N   0  0  0  0  0  0  0  0  0  0  0  0
    8.4294  -16.2069   21.9497 C   0  0  0  0  0  0  0  0  0  0  0  0
    7.5454  -16.4009   22.7926 O   0  0  0  0  0  0  0  0  0  0  0  0
   11.3985  -18.1270   23.2219 C   0  0  0  0  0  0  0  0  0  0  0  0
   10.1646  -17.2800   23.3730 C   0  0  2  0  0  0  0  0  0  0  0  0
    9.7712  -16.5413   22.2106 N   0  0  0  0  0  0  0  0  0  0  0  0
   10.1450  -16.4781   24.6178 C   0  0  0  0  0  0  0  0  0  0  0  0
   10.7310  -15.3829   24.6215 O   0  0  0  0  0  0  0  0  0  0  0  0
    9.4806  -16.9119   25.8174 N   0  0  0  0  0  0  0  0  0  0  0  0
    9.6412  -16.2223   27.0584 C   0  0  1  0  0  0  0  0  0  0  0  0
    8.3862  -15.7865   27.7007 C   0  0  0  0  0  0  0  0  0  0  0  0
    7.8642  -14.5599   27.0738 C   0  0  0  0  0  0  0  0  0  0  0  0
    6.7621  -14.6685   26.2504 C   0  0  0  0  0  0  0  0  0  0  0  0
    6.1844  -13.5859   25.6584 C   0  0  0  0  0  0  0  0  0  0  0  0
    6.7020  -12.3187   25.8708 C   0  0  0  0  0  0  0  0  0  0  0  0
    7.8200  -12.1699   26.6975 C   0  0  0  0  0  0  0  0  0  0  0  0
    8.3752  -13.2936   27.2808 C   0  0  0  0  0  0  0  0  0  0  0  0
   10.5221  -17.0878   27.9177 C   0  0  0  0  0  0  0  0  0  0  0  0
   10.7956  -16.7264   29.0769 O   0  0  0  0  0  0  0  0  0  0  0  0
   11.0655  -18.3017   27.5054 O   0  0  0  0  0  0  0  0  0  0  0  0
  2  1  1  1
  2  3  1  0
  4  2  1  0
  4  5  1  0
  5  7  1  0
  5  6  1  1
  7  8  2  0
 10  9  1  6
 11 10  1  0
 11  7  1  0
 12 14  1  0
 12 10  1  0
 13 12  2  0
 15 14  1  0
 15 16  1  1
 17 16  1  0
 18 17  2  0
 19 18  1  0
 20 19  2  0
 20 21  1  0
 21 22  2  0
 22 17  1  0
 23 25  1  0
 23 15  1  0
 24 23  2  0
M  END
$$$$
