LAF.pdb
     RDKit          3D

 25 25  0  0  1  0  0  0  0  0999 V2000
    8.8776  -14.2103   18.7775 C   0  0  0  0  0  0  0  0  0  0  0  0
    7.8218  -13.4610   19.5946 C   0  0  2  0  0  0  0  0  0  0  0  0
    8.1109  -11.9850   19.6414 C   0  0  0  0  0  0  0  0  0  0  0  0
    7.8603  -14.0404   20.9794 C   0  0  0  0  0  0  0  0  0  0  0  0
    7.3401  -15.4905   20.8488 C   0  0  2  0  0  0  0  0  0  0  0  0
    5.9249  -15.3697   20.6959 N   0  0  0  0  0  0  0  0  0  0  0  0
    7.7721  -16.1733   22.0876 C   0  0  0  0  0  0  0  0  0  0  0  0
    7.3057  -15.8376   23.1827 O   0  0  0  0  0  0  0  0  0  0  0  0
    9.5170  -19.3745   22.9122 C   0  0  0  0  0  0  0  0  0  0  0  0
    9.2042  -17.9195   23.1309 C   0  0  2  0  0  0  0  0  0  0  0  0
    8.7200  -17.2085   21.9856 N   0  0  0  0  0  0  0  0  0  0  0  0
   10.2570  -17.1925   23.8766 C   0  0  0  0  0  0  0  0  0  0  0  0
   11.2200  -16.7349   23.2393 O   0  0  0  0  0  0  0  0  0  0  0  0
   10.2128  -16.9957   25.3007 N   0  0  0  0  0  0  0  0  0  0  0  0
   11.2922  -16.3850   26.0101 C   0  0  1  0  0  0  0  0  0  0  0  0
   11.2586  -14.9104   26.0546 C   0  0  0  0  0  0  0  0  0  0  0  0
   10.0312  -14.4244   26.7082 C   0  0  0  0  0  0  0  0  0  0  0  0
   10.0952  -14.0892   28.0453 C   0  0  0  0  0  0  0  0  0  0  0  0
    9.0236  -13.5936   28.7252 C   0  0  0  0  0  0  0  0  0  0  0  0
    7.8129  -13.4113   28.0772 C   0  0  0  0  0  0  0  0  0  0  0  0
    7.7095  -13.7423   26.7225 C   0  0  0  0  0  0  0  0  0  0  0  0
    8.8210  -14.2405   26.0686 C   0  0  0  0  0  0  0  0  0  0  0  0
   11.3534  -17.0554   27.3556 C   0  0  0  0  0  0  0  0  0  0  0  0
   12.3110  -16.8216   28.1155 O   0  0  0  0  0  0  0  0  0  0  0  0
   10.3883  -17.9385   27.8327 O   0  0  0  0  0  0  0  0  0  0  0  0
  2  1  1  6
  2  3  1  0
  4  2  1  0
  4  5  1  0
  5  7  1  0
  5  6  1  1
  7  8  2  0
 10  9  1  6
 11 10  1  0
 11  7  1  0
 12 14  1  0
 12 10  1  0
 13 12  2  0
 15 14  1  0
 15 16  1  1
 17 16  1  0
 18 17  2  0
 19 18  1  0
 20 19  2  0
 20 21  1  0
 21 22  2  0
 22 17  1  0
 23 25  1  0
 23 15  1  0
 24 23  2  0
M  END
$$$$
