FGI.pdb
     RDKit          3D

 24 24  0  0  1  0  0  0  0  0999 V2000
    6.2459  -16.6801   20.7139 N   0  0  0  0  0  0  0  0  0  0  0  0
    7.5937  -17.1357   20.8806 C   0  0  1  0  0  0  0  0  0  0  0  0
    8.5191  -16.1776   20.1714 C   0  0  0  0  0  0  0  0  0  0  0  0
    8.0812  -14.7980   20.5077 C   0  0  0  0  0  0  0  0  0  0  0  0
    8.1526  -14.3037   21.7819 C   0  0  0  0  0  0  0  0  0  0  0  0
    7.7294  -13.0043   22.0442 C   0  0  0  0  0  0  0  0  0  0  0  0
    7.2343  -12.1830   21.0596 C   0  0  0  0  0  0  0  0  0  0  0  0
    7.1633  -12.6821   19.7785 C   0  0  0  0  0  0  0  0  0  0  0  0
    7.5863  -13.9843   19.5099 C   0  0  0  0  0  0  0  0  0  0  0  0
    7.9449  -17.2373   22.3328 C   0  0  0  0  0  0  0  0  0  0  0  0
    9.0010  -17.8471   22.6523 O   0  0  0  0  0  0  0  0  0  0  0  0
    7.1274  -16.6707   23.3416 N   0  0  0  0  0  0  0  0  0  0  0  0
    6.8778  -17.3710   24.5713 C   0  0  0  0  0  0  0  0  0  0  0  0
    7.5851  -16.7532   25.7217 C   0  0  0  0  0  0  0  0  0  0  0  0
    7.0409  -16.6965   26.8534 O   0  0  0  0  0  0  0  0  0  0  0  0
    6.4073  -12.7303   26.0250 C   0  0  0  0  0  0  0  0  0  0  0  0
    7.6067  -13.5777   25.5975 C   0  0  0  0  0  0  0  0  0  0  0  0
    8.2061  -14.2536   26.7897 C   0  0  2  0  0  0  0  0  0  0  0  0
    8.6020  -13.2122   27.8280 C   0  0  0  0  0  0  0  0  0  0  0  0
    9.3798  -15.1370   26.4501 C   0  0  2  0  0  0  0  0  0  0  0  0
    8.8893  -16.2117   25.5777 N   0  0  0  0  0  0  0  0  0  0  0  0
   10.0630  -15.7165   27.6193 C   0  0  0  0  0  0  0  0  0  0  0  0
    9.5043  -16.6437   28.4609 O   0  0  0  0  0  0  0  0  0  0  0  0
   11.2564  -15.3505   27.8949 O   0  0  0  0  0  0  0  0  0  0  0  0
  2 10  1  0
  2  1  1  1
  3  2  1  0
  4  3  1  0
  5  4  2  0
  6  5  1  0
  7  6  2  0
  7  8  1  0
  8  9  2  0
  9  4  1  0
 10 12  1  0
 11 10  2  0
 12 13  1  0
 14 21  1  0
 14 13  1  0
 15 14  2  0
 17 16  1  0
 18 19  1  1
 18 17  1  0
 20 21  1  6
 20 18  1  0
 22 23  1  0
 22 20  1  0
 24 22  2  0
M  END
$$$$
