FGI.pdb
     RDKit          3D

 24 24  0  0  1  0  0  0  0  0999 V2000
    7.0606  -17.6445   23.2632 N   0  0  0  0  0  0  0  0  0  0  0  0
    7.3715  -16.7142   22.2192 C   0  0  1  0  0  0  0  0  0  0  0  0
    6.4176  -15.5484   22.3108 C   0  0  0  0  0  0  0  0  0  0  0  0
    6.7404  -14.8002   23.5534 C   0  0  0  0  0  0  0  0  0  0  0  0
    6.4329  -15.2870   24.7950 C   0  0  0  0  0  0  0  0  0  0  0  0
    6.7568  -14.5467   25.9278 C   0  0  0  0  0  0  0  0  0  0  0  0
    7.3837  -13.3260   25.8497 C   0  0  0  0  0  0  0  0  0  0  0  0
    7.6922  -12.8380   24.6000 C   0  0  0  0  0  0  0  0  0  0  0  0
    7.3696  -13.5762   23.4608 C   0  0  0  0  0  0  0  0  0  0  0  0
    8.7909  -16.2494   22.3265 C   0  0  0  0  0  0  0  0  0  0  0  0
    9.1652  -15.2941   21.5939 O   0  0  0  0  0  0  0  0  0  0  0  0
    9.7097  -16.8514   23.2211 N   0  0  0  0  0  0  0  0  0  0  0  0
   11.0521  -16.3546   23.3480 C   0  0  0  0  0  0  0  0  0  0  0  0
   11.4218  -16.0933   24.7624 C   0  0  0  0  0  0  0  0  0  0  0  0
   12.6135  -15.8483   25.0787 O   0  0  0  0  0  0  0  0  0  0  0  0
    8.1882  -13.1786   27.8145 C   0  0  0  0  0  0  0  0  0  0  0  0
    9.3738  -13.8695   27.1389 C   0  0  0  0  0  0  0  0  0  0  0  0
    9.7048  -15.1379   27.8594 C   0  0  2  0  0  0  0  0  0  0  0  0
   10.0542  -14.8309   29.3096 C   0  0  0  0  0  0  0  0  0  0  0  0
   10.8086  -15.9285   27.2038 C   0  0  2  0  0  0  0  0  0  0  0  0
   10.4456  -16.1125   25.7927 N   0  0  0  0  0  0  0  0  0  0  0  0
   11.0710  -17.2376   27.8259 C   0  0  0  0  0  0  0  0  0  0  0  0
   12.0462  -17.4679   28.7619 O   0  0  0  0  0  0  0  0  0  0  0  0
   10.3601  -18.2461   27.4913 O   0  0  0  0  0  0  0  0  0  0  0  0
  2 10  1  0
  2  1  1  1
  3  2  1  0
  4  3  1  0
  5  4  2  0
  6  5  1  0
  7  6  2  0
  7  8  1  0
  8  9  2  0
  9  4  1  0
 10 12  1  0
 11 10  2  0
 12 13  1  0
 14 21  1  0
 14 13  1  0
 15 14  2  0
 17 16  1  0
 18 19  1  1
 18 17  1  0
 20 21  1  6
 20 18  1  0
 22 23  1  0
 22 20  1  0
 24 22  2  0
M  END
$$$$
