FGI.pdb
     RDKit          3D

 24 24  0  0  1  0  0  0  0  0999 V2000
    6.7304  -18.1040   22.2388 N   0  0  0  0  0  0  0  0  0  0  0  0
    7.1734  -16.9708   22.9948 C   0  0  1  0  0  0  0  0  0  0  0  0
    6.2493  -16.7846   24.1732 C   0  0  0  0  0  0  0  0  0  0  0  0
    6.4701  -15.4150   24.7055 C   0  0  0  0  0  0  0  0  0  0  0  0
    6.8930  -14.3856   23.9089 C   0  0  0  0  0  0  0  0  0  0  0  0
    7.0847  -13.1210   24.4567 C   0  0  0  0  0  0  0  0  0  0  0  0
    6.8632  -12.8587   25.7876 C   0  0  0  0  0  0  0  0  0  0  0  0
    6.4379  -13.8955   26.5874 C   0  0  0  0  0  0  0  0  0  0  0  0
    6.2440  -15.1654   26.0431 C   0  0  0  0  0  0  0  0  0  0  0  0
    8.5872  -17.1563   23.4521 C   0  0  0  0  0  0  0  0  0  0  0  0
    8.8852  -18.2195   24.0606 O   0  0  0  0  0  0  0  0  0  0  0  0
    9.5837  -16.1767   23.2189 N   0  0  0  0  0  0  0  0  0  0  0  0
   10.9720  -16.4632   23.4541 C   0  0  0  0  0  0  0  0  0  0  0  0
   11.3676  -16.2027   24.8616 C   0  0  0  0  0  0  0  0  0  0  0  0
   12.5669  -16.3130   25.2213 O   0  0  0  0  0  0  0  0  0  0  0  0
    9.6557  -12.0071   27.5254 C   0  0  0  0  0  0  0  0  0  0  0  0
   10.5331  -13.1826   27.0916 C   0  0  0  0  0  0  0  0  0  0  0  0
   10.0798  -14.4364   27.7699 C   0  0  2  0  0  0  0  0  0  0  0  0
   10.2708  -14.3062   29.2752 C   0  0  0  0  0  0  0  0  0  0  0  0
   10.7636  -15.6771   27.2538 C   0  0  2  0  0  0  0  0  0  0  0  0
   10.4080  -15.8234   25.8364 N   0  0  0  0  0  0  0  0  0  0  0  0
   10.4196  -16.9093   27.9840 C   0  0  0  0  0  0  0  0  0  0  0  0
    9.5015  -17.8326   27.5543 O   0  0  0  0  0  0  0  0  0  0  0  0
   10.9976  -17.1629   29.0957 O   0  0  0  0  0  0  0  0  0  0  0  0
  2 10  1  0
  2  1  1  1
  3  2  1  0
  4  3  1  0
  5  4  2  0
  6  5  1  0
  7  6  2  0
  7  8  1  0
  8  9  2  0
  9  4  1  0
 10 12  1  0
 11 10  2  0
 12 13  1  0
 14 21  1  0
 14 13  1  0
 15 14  2  0
 17 16  1  0
 18 19  1  1
 18 17  1  0
 20 21  1  6
 20 18  1  0
 22 23  1  0
 22 20  1  0
 24 22  2  0
M  END
$$$$
