FGI.pdb
     RDKit          3D

 24 24  0  0  1  0  0  0  0  0999 V2000
    5.9012  -17.6893   23.5977 N   0  0  0  0  0  0  0  0  0  0  0  0
    6.7337  -16.5903   23.9869 C   0  0  1  0  0  0  0  0  0  0  0  0
    6.4464  -16.2536   25.4296 C   0  0  0  0  0  0  0  0  0  0  0  0
    6.5864  -14.7824   25.5841 C   0  0  0  0  0  0  0  0  0  0  0  0
    5.6489  -14.0281   26.2364 C   0  0  0  0  0  0  0  0  0  0  0  0
    5.8273  -12.6531   26.3538 C   0  0  0  0  0  0  0  0  0  0  0  0
    6.9248  -12.0103   25.8328 C   0  0  0  0  0  0  0  0  0  0  0  0
    7.8666  -12.7707   25.1770 C   0  0  0  0  0  0  0  0  0  0  0  0
    7.6928  -14.1498   25.0564 C   0  0  0  0  0  0  0  0  0  0  0  0
    8.1807  -16.9262   23.7974 C   0  0  0  0  0  0  0  0  0  0  0  0
    8.5740  -18.0811   24.1153 O   0  0  0  0  0  0  0  0  0  0  0  0
    9.1046  -15.9874   23.2760 N   0  0  0  0  0  0  0  0  0  0  0  0
   10.4992  -16.3114   23.1540 C   0  0  0  0  0  0  0  0  0  0  0  0
   11.2049  -16.2517   24.4593 C   0  0  0  0  0  0  0  0  0  0  0  0
   12.4342  -16.5027   24.5355 O   0  0  0  0  0  0  0  0  0  0  0  0
    9.6322  -12.5277   27.9911 C   0  0  0  0  0  0  0  0  0  0  0  0
   10.4878  -13.4836   27.1583 C   0  0  0  0  0  0  0  0  0  0  0  0
   10.5166  -14.8346   27.7998 C   0  0  2  0  0  0  0  0  0  0  0  0
   11.1769  -14.7413   29.1690 C   0  0  0  0  0  0  0  0  0  0  0  0
   11.1933  -15.8843   26.9551 C   0  0  2  0  0  0  0  0  0  0  0  0
   10.5154  -15.9113   25.6525 N   0  0  0  0  0  0  0  0  0  0  0  0
   11.1924  -17.2336   27.5457 C   0  0  0  0  0  0  0  0  0  0  0  0
   10.2148  -18.1710   27.3324 O   0  0  0  0  0  0  0  0  0  0  0  0
   12.1527  -17.5840   28.3135 O   0  0  0  0  0  0  0  0  0  0  0  0
  2 10  1  0
  2  1  1  1
  3  2  1  0
  4  3  1  0
  5  4  2  0
  6  5  1  0
  7  6  2  0
  7  8  1  0
  8  9  2  0
  9  4  1  0
 10 12  1  0
 11 10  2  0
 12 13  1  0
 14 21  1  0
 14 13  1  0
 15 14  2  0
 17 16  1  0
 18 19  1  1
 18 17  1  0
 20 21  1  6
 20 18  1  0
 22 23  1  0
 22 20  1  0
 24 22  2  0
M  END
$$$$
