FGI.pdb
     RDKit          3D

 24 24  0  0  1  0  0  0  0  0999 V2000
    6.6953  -17.7452   23.7554 N   0  0  0  0  0  0  0  0  0  0  0  0
    6.9319  -16.3441   23.9371 C   0  0  1  0  0  0  0  0  0  0  0  0
    6.4829  -15.9539   25.3239 C   0  0  0  0  0  0  0  0  0  0  0  0
    6.4582  -14.4695   25.3872 C   0  0  0  0  0  0  0  0  0  0  0  0
    7.5946  -13.7180   25.2569 C   0  0  0  0  0  0  0  0  0  0  0  0
    7.5173  -12.3302   25.3238 C   0  0  0  0  0  0  0  0  0  0  0  0
    6.3265  -11.6721   25.5186 C   0  0  0  0  0  0  0  0  0  0  0  0
    5.1845  -12.4298   25.6495 C   0  0  0  0  0  0  0  0  0  0  0  0
    5.2564  -13.8216   25.5832 C   0  0  0  0  0  0  0  0  0  0  0  0
    8.3798  -16.0189   23.7359 C   0  0  0  0  0  0  0  0  0  0  0  0
    8.7014  -14.8164   23.5361 O   0  0  0  0  0  0  0  0  0  0  0  0
    9.3823  -17.0194   23.7649 N   0  0  0  0  0  0  0  0  0  0  0  0
   10.7685  -16.6828   23.5921 C   0  0  0  0  0  0  0  0  0  0  0  0
   11.4593  -16.4683   24.8891 C   0  0  0  0  0  0  0  0  0  0  0  0
   12.6982  -16.2594   24.9287 O   0  0  0  0  0  0  0  0  0  0  0  0
    9.5520  -13.2529   28.5802 C   0  0  0  0  0  0  0  0  0  0  0  0
   10.5194  -14.0796   27.7316 C   0  0  0  0  0  0  0  0  0  0  0  0
   10.6273  -15.4657   28.2835 C   0  0  2  0  0  0  0  0  0  0  0  0
   11.2080  -15.4166   29.6905 C   0  0  0  0  0  0  0  0  0  0  0  0
   11.4298  -16.3969   27.4106 C   0  0  2  0  0  0  0  0  0  0  0  0
   10.7445  -16.4928   26.1152 N   0  0  0  0  0  0  0  0  0  0  0  0
   11.6218  -17.7443   27.9741 C   0  0  0  0  0  0  0  0  0  0  0  0
   10.7820  -18.8043   27.7480 O   0  0  0  0  0  0  0  0  0  0  0  0
   12.6282  -17.9721   28.7287 O   0  0  0  0  0  0  0  0  0  0  0  0
  2 10  1  0
  2  1  1  1
  3  2  1  0
  4  3  1  0
  5  4  2  0
  6  5  1  0
  7  6  2  0
  7  8  1  0
  8  9  2  0
  9  4  1  0
 10 12  1  0
 11 10  2  0
 12 13  1  0
 14 21  1  0
 14 13  1  0
 15 14  2  0
 17 16  1  0
 18 19  1  1
 18 17  1  0
 20 21  1  6
 20 18  1  0
 22 23  1  0
 22 20  1  0
 24 22  2  0
M  END
$$$$
