FGI.pdb
     RDKit          3D

 24 24  0  0  1  0  0  0  0  0999 V2000
    6.8900  -16.6386   26.6820 N   0  0  0  0  0  0  0  0  0  0  0  0
    6.5322  -16.0796   25.4126 C   0  0  1  0  0  0  0  0  0  0  0  0
    7.5760  -15.0627   25.0207 C   0  0  0  0  0  0  0  0  0  0  0  0
    7.4313  -13.8967   25.9304 C   0  0  0  0  0  0  0  0  0  0  0  0
    8.5078  -13.3182   26.5465 C   0  0  0  0  0  0  0  0  0  0  0  0
    8.3184  -12.2276   27.3896 C   0  0  0  0  0  0  0  0  0  0  0  0
    7.0735  -11.6985   27.6333 C   0  0  0  0  0  0  0  0  0  0  0  0
    5.9918  -12.2818   27.0127 C   0  0  0  0  0  0  0  0  0  0  0  0
    6.1762  -13.3755   26.1663 C   0  0  0  0  0  0  0  0  0  0  0  0
    6.4175  -17.1512   24.3729 C   0  0  0  0  0  0  0  0  0  0  0  0
    5.2707  -17.5941   24.0933 O   0  0  0  0  0  0  0  0  0  0  0  0
    7.5540  -17.6712   23.7059 N   0  0  0  0  0  0  0  0  0  0  0  0
    7.4123  -18.5182   22.5538 C   0  0  0  0  0  0  0  0  0  0  0  0
    7.8286  -17.8363   21.3020 C   0  0  0  0  0  0  0  0  0  0  0  0
    7.7326  -18.4188   20.1923 O   0  0  0  0  0  0  0  0  0  0  0  0
    7.9167  -12.2003   20.6130 C   0  0  0  0  0  0  0  0  0  0  0  0
    8.6031  -13.5296   20.9316 C   0  0  0  0  0  0  0  0  0  0  0  0
    8.2060  -14.5638   19.9264 C   0  0  2  0  0  0  0  0  0  0  0  0
    6.6946  -14.7492   19.9469 C   0  0  0  0  0  0  0  0  0  0  0  0
    8.9053  -15.8856   20.1191 C   0  0  2  0  0  0  0  0  0  0  0  0
    8.3442  -16.5139   21.3221 N   0  0  0  0  0  0  0  0  0  0  0  0
   10.3695  -15.7862   20.2452 C   0  0  0  0  0  0  0  0  0  0  0  0
   11.2230  -15.5621   19.1957 O   0  0  0  0  0  0  0  0  0  0  0  0
   10.9111  -15.9138   21.3961 O   0  0  0  0  0  0  0  0  0  0  0  0
  2 10  1  0
  2  1  1  1
  3  2  1  0
  4  3  1  0
  5  4  2  0
  6  5  1  0
  7  6  2  0
  7  8  1  0
  8  9  2  0
  9  4  1  0
 10 12  1  0
 11 10  2  0
 12 13  1  0
 14 21  1  0
 14 13  1  0
 15 14  2  0
 17 16  1  0
 18 19  1  1
 18 17  1  0
 20 21  1  1
 20 18  1  0
 22 23  1  0
 22 20  1  0
 24 22  2  0
M  END
$$$$
