FGI.pdb
     RDKit          3D

 24 24  0  0  1  0  0  0  0  0999 V2000
    6.1241  -17.2148   19.7656 N   0  0  0  0  0  0  0  0  0  0  0  0
    7.4058  -17.7167   20.1624 C   0  0  1  0  0  0  0  0  0  0  0  0
    8.4722  -16.7842   19.6424 C   0  0  0  0  0  0  0  0  0  0  0  0
    8.1524  -15.4182   20.1319 C   0  0  0  0  0  0  0  0  0  0  0  0
    7.3131  -14.5800   19.4492 C   0  0  0  0  0  0  0  0  0  0  0  0
    7.0460  -13.3098   19.9508 C   0  0  0  0  0  0  0  0  0  0  0  0
    7.5999  -12.8546   21.1234 C   0  0  0  0  0  0  0  0  0  0  0  0
    8.4439  -13.6992   21.8087 C   0  0  0  0  0  0  0  0  0  0  0  0
    8.7151  -14.9739   21.3103 C   0  0  0  0  0  0  0  0  0  0  0  0
    7.4898  -17.8421   21.6523 C   0  0  0  0  0  0  0  0  0  0  0  0
    8.5337  -18.3408   22.1534 O   0  0  0  0  0  0  0  0  0  0  0  0
    6.4363  -17.4184   22.4993 N   0  0  0  0  0  0  0  0  0  0  0  0
    6.5868  -17.4278   23.9283 C   0  0  0  0  0  0  0  0  0  0  0  0
    7.6310  -16.4773   24.3883 C   0  0  0  0  0  0  0  0  0  0  0  0
    8.8270  -16.6146   24.0268 O   0  0  0  0  0  0  0  0  0  0  0  0
    6.0608  -11.7685   27.2721 C   0  0  0  0  0  0  0  0  0  0  0  0
    6.5658  -13.1785   26.9617 C   0  0  0  0  0  0  0  0  0  0  0  0
    7.6548  -13.1177   25.9379 C   0  0  2  0  0  0  0  0  0  0  0  0
    7.1037  -12.5621   24.6314 C   0  0  0  0  0  0  0  0  0  0  0  0
    8.3333  -14.4440   25.7060 C   0  0  2  0  0  0  0  0  0  0  0  0
    7.3105  -15.3918   25.2451 N   0  0  0  0  0  0  0  0  0  0  0  0
    9.0221  -14.9895   26.8881 C   0  0  0  0  0  0  0  0  0  0  0  0
   10.1693  -14.4651   27.4258 O   0  0  0  0  0  0  0  0  0  0  0  0
    8.5441  -16.0205   27.4737 O   0  0  0  0  0  0  0  0  0  0  0  0
  2 10  1  0
  2  1  1  1
  3  2  1  0
  4  3  1  0
  5  4  2  0
  6  5  1  0
  7  6  2  0
  7  8  1  0
  8  9  2  0
  9  4  1  0
 10 12  1  0
 11 10  2  0
 12 13  1  0
 14 21  1  0
 14 13  1  0
 15 14  2  0
 17 16  1  0
 18 19  1  6
 18 17  1  0
 20 21  1  1
 20 18  1  0
 22 23  1  0
 22 20  1  0
 24 22  2  0
M  END
$$$$
