FGI.pdb
     RDKit          3D

 24 24  0  0  1  0  0  0  0  0999 V2000
    7.0915  -16.9908   25.1433 N   0  0  0  0  0  0  0  0  0  0  0  0
    6.9440  -16.7776   23.7345 C   0  0  1  0  0  0  0  0  0  0  0  0
    5.8656  -15.7457   23.5121 C   0  0  0  0  0  0  0  0  0  0  0  0
    6.2079  -14.5542   24.3313 C   0  0  0  0  0  0  0  0  0  0  0  0
    5.7045  -14.3696   25.5905 C   0  0  0  0  0  0  0  0  0  0  0  0
    6.0564  -13.2359   26.3166 C   0  0  0  0  0  0  0  0  0  0  0  0
    6.9031  -12.2777   25.8127 C   0  0  0  0  0  0  0  0  0  0  0  0
    7.4085  -12.4652   24.5459 C   0  0  0  0  0  0  0  0  0  0  0  0
    7.0589  -13.6001   23.8135 C   0  0  0  0  0  0  0  0  0  0  0  0
    8.2381  -16.3338   23.1255 C   0  0  0  0  0  0  0  0  0  0  0  0
    8.4091  -16.5088   21.8887 O   0  0  0  0  0  0  0  0  0  0  0  0
    9.2604  -15.7298   23.8982 N   0  0  0  0  0  0  0  0  0  0  0  0
   10.6365  -16.1066   23.7281 C   0  0  0  0  0  0  0  0  0  0  0  0
   11.3110  -16.3670   25.0253 C   0  0  0  0  0  0  0  0  0  0  0  0
   12.5538  -16.5477   25.0767 O   0  0  0  0  0  0  0  0  0  0  0  0
    9.8375  -13.0549   28.6346 C   0  0  0  0  0  0  0  0  0  0  0  0
   10.5370  -14.0641   27.7225 C   0  0  0  0  0  0  0  0  0  0  0  0
   10.6358  -15.3900   28.4080 C   0  0  2  0  0  0  0  0  0  0  0  0
   11.4148  -15.2414   29.7082 C   0  0  0  0  0  0  0  0  0  0  0  0
   11.2443  -16.4663   27.5451 C   0  0  2  0  0  0  0  0  0  0  0  0
   10.5756  -16.4191   26.2384 N   0  0  0  0  0  0  0  0  0  0  0  0
   11.1455  -17.8243   28.1070 C   0  0  0  0  0  0  0  0  0  0  0  0
   12.1410  -18.4406   28.8206 O   0  0  0  0  0  0  0  0  0  0  0  0
   10.0738  -18.4994   27.9342 O   0  0  0  0  0  0  0  0  0  0  0  0
  2 10  1  0
  2  1  1  1
  3  2  1  0
  4  3  1  0
  5  4  2  0
  6  5  1  0
  7  6  2  0
  7  8  1  0
  8  9  2  0
  9  4  1  0
 10 12  1  0
 11 10  2  0
 12 13  1  0
 14 21  1  0
 14 13  1  0
 15 14  2  0
 17 16  1  0
 18 19  1  1
 18 17  1  0
 20 21  1  6
 20 18  1  0
 22 23  1  0
 22 20  1  0
 24 22  2  0
M  END
$$$$
