FGI.pdb
     RDKit          3D

 24 24  0  0  1  0  0  0  0  0999 V2000
    7.0757  -15.9531   20.2323 N   0  0  0  0  0  0  0  0  0  0  0  0
    7.3847  -15.2543   21.4440 C   0  0  1  0  0  0  0  0  0  0  0  0
    6.3469  -14.1805   21.6609 C   0  0  0  0  0  0  0  0  0  0  0  0
    6.6221  -13.5488   22.9774 C   0  0  0  0  0  0  0  0  0  0  0  0
    6.1777  -14.0937   24.1515 C   0  0  0  0  0  0  0  0  0  0  0  0
    6.4625  -13.4624   25.3584 C   0  0  0  0  0  0  0  0  0  0  0  0
    7.1841  -12.2942   25.4208 C   0  0  0  0  0  0  0  0  0  0  0  0
    7.6303  -11.7476   24.2387 C   0  0  0  0  0  0  0  0  0  0  0  0
    7.3475  -12.3765   23.0258 C   0  0  0  0  0  0  0  0  0  0  0  0
    7.4246  -16.1975   22.6064 C   0  0  0  0  0  0  0  0  0  0  0  0
    6.6367  -17.1817   22.6063 O   0  0  0  0  0  0  0  0  0  0  0  0
    8.3161  -16.0106   23.6914 N   0  0  0  0  0  0  0  0  0  0  0  0
    8.4444  -17.0029   24.7227 C   0  0  0  0  0  0  0  0  0  0  0  0
    9.7509  -16.9173   25.4236 C   0  0  0  0  0  0  0  0  0  0  0  0
   10.8210  -16.8063   24.7736 O   0  0  0  0  0  0  0  0  0  0  0  0
   10.1371  -13.9907   30.0155 C   0  0  0  0  0  0  0  0  0  0  0  0
   10.0311  -15.3410   29.3050 C   0  0  0  0  0  0  0  0  0  0  0  0
   11.0633  -15.4335   28.2263 C   0  0  2  0  0  0  0  0  0  0  0  0
   10.8419  -14.3261   27.2046 C   0  0  0  0  0  0  0  0  0  0  0  0
   11.1027  -16.7800   27.5491 C   0  0  2  0  0  0  0  0  0  0  0  0
    9.8288  -16.9583   26.8404 N   0  0  0  0  0  0  0  0  0  0  0  0
   11.3282  -17.9135   28.4622 C   0  0  0  0  0  0  0  0  0  0  0  0
   12.5372  -18.2193   29.0322 O   0  0  0  0  0  0  0  0  0  0  0  0
   10.3521  -18.6826   28.7621 O   0  0  0  0  0  0  0  0  0  0  0  0
  2 10  1  0
  2  1  1  6
  3  2  1  0
  4  3  1  0
  5  4  2  0
  6  5  1  0
  7  6  2  0
  7  8  1  0
  8  9  2  0
  9  4  1  0
 10 12  1  0
 11 10  2  0
 12 13  1  0
 14 21  1  0
 14 13  1  0
 15 14  2  0
 17 16  1  0
 18 19  1  6
 18 17  1  0
 20 21  1  1
 20 18  1  0
 22 23  1  0
 22 20  1  0
 24 22  2  0
M  END
$$$$
