FGI.pdb
     RDKit          3D

 24 24  0  0  1  0  0  0  0  0999 V2000
    7.5141  -18.4585   19.6295 N   0  0  0  0  0  0  0  0  0  0  0  0
    7.6197  -17.2436   20.3812 C   0  0  1  0  0  0  0  0  0  0  0  0
    6.4963  -16.3228   19.9719 C   0  0  0  0  0  0  0  0  0  0  0  0
    6.9837  -14.9268   20.1179 C   0  0  0  0  0  0  0  0  0  0  0  0
    6.9474  -14.2664   21.3162 C   0  0  0  0  0  0  0  0  0  0  0  0
    7.4164  -12.9590   21.3997 C   0  0  0  0  0  0  0  0  0  0  0  0
    7.9232  -12.2922   20.3099 C   0  0  0  0  0  0  0  0  0  0  0  0
    7.9588  -12.9581   19.1055 C   0  0  0  0  0  0  0  0  0  0  0  0
    7.4899  -14.2691   19.0161 C   0  0  0  0  0  0  0  0  0  0  0  0
    7.5697  -17.5221   21.8517 C   0  0  0  0  0  0  0  0  0  0  0  0
    8.6580  -17.6100   22.4819 O   0  0  0  0  0  0  0  0  0  0  0  0
    6.3428  -17.6868   22.5407 N   0  0  0  0  0  0  0  0  0  0  0  0
    6.0949  -17.0077   23.7825 C   0  0  0  0  0  0  0  0  0  0  0  0
    7.3194  -16.3655   24.3245 C   0  0  0  0  0  0  0  0  0  0  0  0
    8.4088  -16.4342   23.7012 O   0  0  0  0  0  0  0  0  0  0  0  0
    6.4893  -11.8865   27.5778 C   0  0  0  0  0  0  0  0  0  0  0  0
    6.8321  -13.3460   27.2746 C   0  0  0  0  0  0  0  0  0  0  0  0
    7.8647  -13.4147   26.1944 C   0  0  2  0  0  0  0  0  0  0  0  0
    7.2934  -12.8543   24.8987 C   0  0  0  0  0  0  0  0  0  0  0  0
    8.4116  -14.8027   25.9763 C   0  0  2  0  0  0  0  0  0  0  0  0
    7.2952  -15.6592   25.5556 N   0  0  0  0  0  0  0  0  0  0  0  0
    9.0722  -15.3882   27.1555 C   0  0  0  0  0  0  0  0  0  0  0  0
   10.3028  -15.0046   27.6230 O   0  0  0  0  0  0  0  0  0  0  0  0
    8.4854  -16.3183   27.8073 O   0  0  0  0  0  0  0  0  0  0  0  0
  2 10  1  0
  2  1  1  6
  3  2  1  0
  4  3  1  0
  5  4  2  0
  6  5  1  0
  7  6  2  0
  7  8  1  0
  8  9  2  0
  9  4  1  0
 10 12  1  0
 11 10  2  0
 12 13  1  0
 14 21  1  0
 14 13  1  0
 15 14  2  0
 17 16  1  0
 18 19  1  6
 18 17  1  0
 20 21  1  1
 20 18  1  0
 22 23  1  0
 22 20  1  0
 24 22  2  0
M  END
$$$$
