FGI.pdb
     RDKit          3D

 24 24  0  0  1  0  0  0  0  0999 V2000
    8.1136  -15.3919   25.2232 N   0  0  0  0  0  0  0  0  0  0  0  0
    7.6007  -15.7573   23.9365 C   0  0  1  0  0  0  0  0  0  0  0  0
    6.9776  -14.5387   23.3007 C   0  0  0  0  0  0  0  0  0  0  0  0
    6.7781  -13.5263   24.3699 C   0  0  0  0  0  0  0  0  0  0  0  0
    7.5070  -12.3689   24.4193 C   0  0  0  0  0  0  0  0  0  0  0  0
    7.2814  -11.4528   25.4421 C   0  0  0  0  0  0  0  0  0  0  0  0
    6.3407  -11.6660   26.4213 C   0  0  0  0  0  0  0  0  0  0  0  0
    5.6086  -12.8308   26.3699 C   0  0  0  0  0  0  0  0  0  0  0  0
    5.8308  -13.7527   25.3465 C   0  0  0  0  0  0  0  0  0  0  0  0
    8.6876  -16.3125   23.0689 C   0  0  0  0  0  0  0  0  0  0  0  0
    8.3806  -17.1761   22.2033 O   0  0  0  0  0  0  0  0  0  0  0  0
   10.0350  -15.8942   23.1979 N   0  0  0  0  0  0  0  0  0  0  0  0
   11.0819  -16.8425   23.4615 C   0  0  0  0  0  0  0  0  0  0  0  0
   11.6130  -16.7215   24.8430 C   0  0  0  0  0  0  0  0  0  0  0  0
   12.8492  -16.6222   25.0481 O   0  0  0  0  0  0  0  0  0  0  0  0
    9.5486  -13.1101   27.7878 C   0  0  0  0  0  0  0  0  0  0  0  0
   10.4877  -14.1424   27.1617 C   0  0  0  0  0  0  0  0  0  0  0  0
   10.4634  -15.4066   27.9610 C   0  0  2  0  0  0  0  0  0  0  0  0
   10.9578  -15.1321   29.3751 C   0  0  0  0  0  0  0  0  0  0  0  0
   11.2510  -16.5279   27.3320 C   0  0  2  0  0  0  0  0  0  0  0  0
   10.7449  -16.7146   25.9661 N   0  0  0  0  0  0  0  0  0  0  0  0
   11.1862  -17.8030   28.0665 C   0  0  0  0  0  0  0  0  0  0  0  0
   12.1611  -18.2562   28.9175 O   0  0  0  0  0  0  0  0  0  0  0  0
   10.1666  -18.5605   27.9214 O   0  0  0  0  0  0  0  0  0  0  0  0
  2 10  1  0
  2  1  1  1
  3  2  1  0
  4  3  1  0
  5  4  2  0
  6  5  1  0
  7  6  2  0
  7  8  1  0
  8  9  2  0
  9  4  1  0
 10 12  1  0
 11 10  2  0
 12 13  1  0
 14 21  1  0
 14 13  1  0
 15 14  2  0
 17 16  1  0
 18 19  1  1
 18 17  1  0
 20 21  1  6
 20 18  1  0
 22 23  1  0
 22 20  1  0
 24 22  2  0
M  END
$$$$
