FGI.pdb
     RDKit          3D

 24 24  0  0  1  0  0  0  0  0999 V2000
  -39.9872  -36.3780  -44.4151 N   0  0  0  0  0  0  0  0  0  0  0  0
  -41.3303  -36.2901  -43.9249 C   0  0  1  0  0  0  0  0  0  0  0  0
  -42.1049  -35.3399  -44.8051 C   0  0  0  0  0  0  0  0  0  0  0  0
  -41.2001  -34.2153  -45.1579 C   0  0  0  0  0  0  0  0  0  0  0  0
  -40.6798  -33.3768  -44.2095 C   0  0  0  0  0  0  0  0  0  0  0  0
  -39.8369  -32.3381  -44.5924 C   0  0  0  0  0  0  0  0  0  0  0  0
  -39.4994  -32.1158  -45.9062 C   0  0  0  0  0  0  0  0  0  0  0  0
  -40.0237  -32.9603  -46.8587 C   0  0  0  0  0  0  0  0  0  0  0  0
  -40.8695  -34.0034  -46.4802 C   0  0  0  0  0  0  0  0  0  0  0  0
  -41.9774  -37.6403  -43.9018 C   0  0  0  0  0  0  0  0  0  0  0  0
  -42.4647  -38.0523  -42.8145 O   0  0  0  0  0  0  0  0  0  0  0  0
  -42.0528  -38.4537  -45.0592 N   0  0  0  0  0  0  0  0  0  0  0  0
  -41.1239  -39.5298  -45.2690 C   0  0  0  0  0  0  0  0  0  0  0  0
  -39.7505  -39.1790  -44.8262 C   0  0  0  0  0  0  0  0  0  0  0  0
  -38.9925  -38.5008  -45.5648 O   0  0  0  0  0  0  0  0  0  0  0  0
  -38.9015  -39.8518  -40.0433 C   0  0  0  0  0  0  0  0  0  0  0  0
  -38.7670  -40.7545  -41.2707 C   0  0  0  0  0  0  0  0  0  0  0  0
  -37.5531  -40.3714  -42.0564 C   0  0  2  0  0  0  0  0  0  0  0  0
  -36.4991  -39.7877  -41.1250 C   0  0  0  0  0  0  0  0  0  0  0  0
  -37.8478  -39.4188  -43.1872 C   0  0  2  0  0  0  0  0  0  0  0  0
  -39.2563  -39.5972  -43.5629 N   0  0  0  0  0  0  0  0  0  0  0  0
  -36.9897  -39.5963  -44.3711 C   0  0  0  0  0  0  0  0  0  0  0  0
  -36.3682  -38.5713  -45.0370 O   0  0  0  0  0  0  0  0  0  0  0  0
  -36.7923  -40.7717  -44.8335 O   0  0  0  0  0  0  0  0  0  0  0  0
  2 10  1  0
  2  1  1  6
  3  2  1  0
  4  3  1  0
  5  4  2  0
  6  5  1  0
  7  6  2  0
  7  8  1  0
  8  9  2  0
  9  4  1  0
 10 12  1  0
 11 10  2  0
 12 13  1  0
 14 21  1  0
 14 13  1  0
 15 14  2  0
 17 16  1  0
 18 19  1  1
 18 17  1  0
 20 21  1  6
 20 18  1  0
 22 23  1  0
 22 20  1  0
 24 22  2  0
M  END
$$$$
