FGI.pdb
     RDKit          3D

 24 24  0  0  1  0  0  0  0  0999 V2000
    8.4178  -18.3910   19.4200 N   0  0  0  0  0  0  0  0  0  0  0  0
    7.9086  -17.2732   20.1571 C   0  0  1  0  0  0  0  0  0  0  0  0
    6.9797  -16.4879   19.2639 C   0  0  0  0  0  0  0  0  0  0  0  0
    7.0881  -15.0571   19.6500 C   0  0  0  0  0  0  0  0  0  0  0  0
    6.3502  -14.5225   20.6712 C   0  0  0  0  0  0  0  0  0  0  0  0
    6.4888  -13.1759   20.9932 C   0  0  0  0  0  0  0  0  0  0  0  0
    7.3509  -12.3465   20.3165 C   0  0  0  0  0  0  0  0  0  0  0  0
    8.0923  -12.8861   19.2895 C   0  0  0  0  0  0  0  0  0  0  0  0
    7.9572  -14.2357   18.9625 C   0  0  0  0  0  0  0  0  0  0  0  0
    7.1970  -17.7308   21.3928 C   0  0  0  0  0  0  0  0  0  0  0  0
    7.1405  -18.9681   21.6279 O   0  0  0  0  0  0  0  0  0  0  0  0
    6.5942  -16.8161   22.2910 N   0  0  0  0  0  0  0  0  0  0  0  0
    6.5070  -17.1072   23.6955 C   0  0  0  0  0  0  0  0  0  0  0  0
    7.6217  -16.4979   24.4646 C   0  0  0  0  0  0  0  0  0  0  0  0
    8.8098  -16.6113   24.0702 O   0  0  0  0  0  0  0  0  0  0  0  0
    6.2909  -12.0228   27.0973 C   0  0  0  0  0  0  0  0  0  0  0  0
    6.9883  -13.0902   26.2524 C   0  0  0  0  0  0  0  0  0  0  0  0
    7.8743  -13.9290   27.1179 C   0  0  2  0  0  0  0  0  0  0  0  0
    8.9745  -13.0650   27.7200 C   0  0  0  0  0  0  0  0  0  0  0  0
    8.4651  -15.1150   26.3985 C   0  0  2  0  0  0  0  0  0  0  0  0
    7.3792  -15.7736   25.6611 N   0  0  0  0  0  0  0  0  0  0  0  0
    9.1327  -16.0893   27.2787 C   0  0  0  0  0  0  0  0  0  0  0  0
   10.4708  -16.0726   27.5773 O   0  0  0  0  0  0  0  0  0  0  0  0
    8.4463  -17.0254   27.8144 O   0  0  0  0  0  0  0  0  0  0  0  0
  2 10  1  0
  2  1  1  6
  3  2  1  0
  4  3  1  0
  5  4  2  0
  6  5  1  0
  7  6  2  0
  7  8  1  0
  8  9  2  0
  9  4  1  0
 10 12  1  0
 11 10  2  0
 12 13  1  0
 14 21  1  0
 14 13  1  0
 15 14  2  0
 17 16  1  0
 18 19  1  6
 18 17  1  0
 20 21  1  1
 20 18  1  0
 22 23  1  0
 22 20  1  0
 24 22  2  0
M  END
$$$$
