HIS.pdb
     RDKit          3D

 25 25  0  0  1  0  0  0  0  0999 V2000
   10.6458  -17.6901   16.3934 N   0  0  0  0  0  0  0  0  0  0  0  0
    9.6156  -17.7951   17.3796 C   0  0  1  0  0  0  0  0  0  0  0  0
    9.3489  -19.2286   17.7031 C   0  0  0  0  0  0  0  0  0  0  0  0
    8.4533  -19.7946   16.6652 C   0  0  0  0  0  0  0  0  0  0  0  0
    7.4146  -19.2208   15.9642 C   0  0  0  0  0  0  0  0  0  0  0  0
    6.8639  -20.0988   15.1030 N   0  0  0  0  0  0  0  0  0  0  0  0
    7.5575  -21.2355   15.2589 C   0  0  0  0  0  0  0  0  0  0  0  0
    8.5109  -21.0727   16.1878 N   0  0  0  0  0  0  0  0  0  0  0  0
    9.8484  -16.9566   18.5645 C   0  0  0  0  0  0  0  0  0  0  0  0
   11.0058  -16.8418   19.0429 O   0  0  0  0  0  0  0  0  0  0  0  0
    6.8255  -12.3055   19.8226 C   0  0  0  0  0  0  0  0  0  0  0  0
    7.9126  -13.2964   19.6175 C   0  0  0  0  0  0  0  0  0  0  0  0
    8.1123  -14.3131   20.6737 C   0  0  2  0  0  0  0  0  0  0  0  0
    8.5303  -13.6790   22.0050 C   0  0  0  0  0  0  0  0  0  0  0  0
    9.0733  -15.4133   20.4067 C   0  0  2  0  0  0  0  0  0  0  0  0
    8.8112  -16.2235   19.2520 N   0  0  0  0  0  0  0  0  0  0  0  0
    9.3494  -16.2442   21.6183 C   0  0  0  0  0  0  0  0  0  0  0  0
    8.5891  -17.1996   21.9528 O   0  0  0  0  0  0  0  0  0  0  0  0
   12.8756  -17.5976   22.6901 O   0  0  0  0  0  0  0  0  0  0  0  0
   12.2596  -16.9745   23.7609 C   0  0  0  0  0  0  0  0  0  0  0  0
   10.7617  -16.8716   23.6044 C   0  0  2  0  0  0  0  0  0  0  0  0
   10.4730  -16.0061   22.4522 N   0  0  0  0  0  0  0  0  0  0  0  0
   10.2423  -16.1590   24.8009 C   0  0  0  0  0  0  0  0  0  0  0  0
   10.2081  -16.6935   26.0678 O   0  0  0  0  0  0  0  0  0  0  0  0
    9.8075  -14.9906   24.6333 O   0  0  0  0  0  0  0  0  0  0  0  0
  2  9  1  0
  2  1  1  6
  3  2  1  0
  4  3  1  0
  5  4  2  0
  6  5  1  0
  7  6  1  0
  7  8  2  0
  8  4  1  0
  9 10  2  0
 11 12  1  0
 12 13  1  0
 13 15  1  0
 13 14  1  1
 15 16  1  6
 16  9  1  0
 17 22  1  0
 17 15  1  0
 18 17  2  0
 20 19  1  0
 21 22  1  0
 21 20  1  1
 23 21  1  0
 24 23  1  0
 25 23  2  0
M  END
$$$$
