HIS.pdb
     RDKit          3D

 25 25  0  0  1  0  0  0  0  0999 V2000
    9.0976  -16.1773   20.2214 N   0  0  0  0  0  0  0  0  0  0  0  0
    8.0993  -16.2509   21.2427 C   0  0  1  0  0  0  0  0  0  0  0  0
    7.5068  -17.6210   21.2934 C   0  0  0  0  0  0  0  0  0  0  0  0
    6.8645  -17.9130   19.9888 C   0  0  0  0  0  0  0  0  0  0  0  0
    7.2296  -17.5588   18.7079 C   0  0  0  0  0  0  0  0  0  0  0  0
    6.3572  -18.0413   17.8012 N   0  0  0  0  0  0  0  0  0  0  0  0
    5.4340  -18.7050   18.5115 C   0  0  0  0  0  0  0  0  0  0  0  0
    5.7204  -18.6392   19.8199 N   0  0  0  0  0  0  0  0  0  0  0  0
    8.5577  -15.7579   22.5495 C   0  0  0  0  0  0  0  0  0  0  0  0
    9.7339  -15.9812   22.9348 O   0  0  0  0  0  0  0  0  0  0  0  0
    7.4419  -11.7083   27.2229 C   0  0  0  0  0  0  0  0  0  0  0  0
    8.0732  -12.9266   26.6543 C   0  0  0  0  0  0  0  0  0  0  0  0
    7.5199  -13.4483   25.3851 C   0  0  2  0  0  0  0  0  0  0  0  0
    6.0286  -13.7808   25.5062 C   0  0  0  0  0  0  0  0  0  0  0  0
    8.1724  -14.6366   24.7790 C   0  0  2  0  0  0  0  0  0  0  0  0
    7.7312  -15.0061   23.4647 N   0  0  0  0  0  0  0  0  0  0  0  0
    8.2072  -15.8099   25.7045 C   0  0  0  0  0  0  0  0  0  0  0  0
    7.1839  -16.5292   25.8999 O   0  0  0  0  0  0  0  0  0  0  0  0
   11.3837  -17.9516   25.8706 O   0  0  0  0  0  0  0  0  0  0  0  0
   10.2130  -18.4470   26.4170 C   0  0  0  0  0  0  0  0  0  0  0  0
    9.4416  -17.4130   27.2010 C   0  0  2  0  0  0  0  0  0  0  0  0
    9.3838  -16.1766   26.4087 N   0  0  0  0  0  0  0  0  0  0  0  0
   10.2405  -17.0938   28.4131 C   0  0  0  0  0  0  0  0  0  0  0  0
   10.5548  -18.0029   29.3964 O   0  0  0  0  0  0  0  0  0  0  0  0
   10.6515  -15.9117   28.5387 O   0  0  0  0  0  0  0  0  0  0  0  0
  2  9  1  0
  2  1  1  6
  3  2  1  0
  4  3  1  0
  5  4  2  0
  6  5  1  0
  7  6  1  0
  7  8  2  0
  8  4  1  0
  9 10  2  0
 11 12  1  0
 12 13  1  0
 13 15  1  0
 13 14  1  1
 15 16  1  6
 16  9  1  0
 17 22  1  0
 17 15  1  0
 18 17  2  0
 20 19  1  0
 21 22  1  0
 21 20  1  6
 23 21  1  0
 24 23  1  0
 25 23  2  0
M  END
$$$$
