HIS.pdb
     RDKit          3D

 25 25  0  0  1  0  0  0  0  0999 V2000
    9.9933  -13.9461   20.8259 N   0  0  0  0  0  0  0  0  0  0  0  0
    8.7444  -14.2146   21.4687 C   0  0  1  0  0  0  0  0  0  0  0  0
    8.0153  -15.3050   20.7545 C   0  0  0  0  0  0  0  0  0  0  0  0
    7.7743  -14.8816   19.3537 C   0  0  0  0  0  0  0  0  0  0  0  0
    8.1996  -13.7653   18.6662 C   0  0  0  0  0  0  0  0  0  0  0  0
    7.7510  -13.7749   17.3956 N   0  0  0  0  0  0  0  0  0  0  0  0
    7.0373  -14.9035   17.2770 C   0  0  0  0  0  0  0  0  0  0  0  0
    7.0400  -15.5774   18.4364 N   0  0  0  0  0  0  0  0  0  0  0  0
    8.8642  -14.4356   22.9171 C   0  0  0  0  0  0  0  0  0  0  0  0
    9.9232  -14.9113   23.4007 O   0  0  0  0  0  0  0  0  0  0  0  0
    5.7346  -11.3698   26.4194 C   0  0  0  0  0  0  0  0  0  0  0  0
    6.8815  -12.0656   25.7817 C   0  0  0  0  0  0  0  0  0  0  0  0
    7.1099  -13.4792   26.1542 C   0  0  2  0  0  0  0  0  0  0  0  0
    7.6522  -13.6132   27.5815 C   0  0  0  0  0  0  0  0  0  0  0  0
    7.9971  -14.2924   25.2843 C   0  0  2  0  0  0  0  0  0  0  0  0
    7.8197  -14.1376   23.8691 N   0  0  0  0  0  0  0  0  0  0  0  0
    8.0362  -15.7318   25.6860 C   0  0  0  0  0  0  0  0  0  0  0  0
    6.9922  -16.4479   25.6840 O   0  0  0  0  0  0  0  0  0  0  0  0
   11.5020  -17.7957   25.5094 O   0  0  0  0  0  0  0  0  0  0  0  0
   10.2971  -18.4743   25.5553 C   0  0  0  0  0  0  0  0  0  0  0  0
    9.2687  -17.7965   26.4281 C   0  0  2  0  0  0  0  0  0  0  0  0
    9.2400  -16.3669   26.0883 N   0  0  0  0  0  0  0  0  0  0  0  0
    9.7564  -17.8816   27.8296 C   0  0  0  0  0  0  0  0  0  0  0  0
   10.1086  -16.7948   28.5956 O   0  0  0  0  0  0  0  0  0  0  0  0
    9.8495  -19.0276   28.3397 O   0  0  0  0  0  0  0  0  0  0  0  0
  2  9  1  0
  2  1  1  6
  3  2  1  0
  4  3  1  0
  5  4  2  0
  6  5  1  0
  7  6  1  0
  7  8  2  0
  8  4  1  0
  9 10  2  0
 11 12  1  0
 12 13  1  0
 13 15  1  0
 13 14  1  1
 15 16  1  6
 16  9  1  0
 17 22  1  0
 17 15  1  0
 18 17  2  0
 20 19  1  0
 21 22  1  0
 21 20  1  6
 23 21  1  0
 24 23  1  0
 25 23  2  0
M  END
$$$$
