HIS.pdb
     RDKit          3D

 25 25  0  0  1  0  0  0  0  0999 V2000
    8.6727  -16.0966   20.8803 N   0  0  0  0  0  0  0  0  0  0  0  0
    7.9898  -16.5046   22.0687 C   0  0  1  0  0  0  0  0  0  0  0  0
    7.8421  -17.9905   22.1001 C   0  0  0  0  0  0  0  0  0  0  0  0
    7.0512  -18.4175   20.9203 C   0  0  0  0  0  0  0  0  0  0  0  0
    5.6962  -18.6222   20.7728 C   0  0  0  0  0  0  0  0  0  0  0  0
    5.3952  -19.0070   19.5169 N   0  0  0  0  0  0  0  0  0  0  0  0
    6.5658  -19.0464   18.8648 C   0  0  0  0  0  0  0  0  0  0  0  0
    7.5662  -18.6974   19.6869 N   0  0  0  0  0  0  0  0  0  0  0  0
    8.5652  -15.9430   23.2995 C   0  0  0  0  0  0  0  0  0  0  0  0
    9.8111  -15.9325   23.4699 O   0  0  0  0  0  0  0  0  0  0  0  0
    6.1174  -11.8523   26.0269 C   0  0  0  0  0  0  0  0  0  0  0  0
    7.2439  -12.6655   25.5017 C   0  0  0  0  0  0  0  0  0  0  0  0
    7.6754  -13.8283   26.3084 C   0  0  2  0  0  0  0  0  0  0  0  0
    8.5826  -13.4115   27.4713 C   0  0  0  0  0  0  0  0  0  0  0  0
    8.3654  -14.9418   25.6090 C   0  0  2  0  0  0  0  0  0  0  0  0
    7.7815  -15.3788   24.3735 N   0  0  0  0  0  0  0  0  0  0  0  0
    8.6726  -16.0897   26.5159 C   0  0  0  0  0  0  0  0  0  0  0  0
    7.7533  -16.7428   27.0913 O   0  0  0  0  0  0  0  0  0  0  0  0
   12.4549  -17.6390   26.5311 O   0  0  0  0  0  0  0  0  0  0  0  0
   11.4183  -18.4585   26.9416 C   0  0  0  0  0  0  0  0  0  0  0  0
   10.2835  -17.6999   27.5862 C   0  0  2  0  0  0  0  0  0  0  0  0
   10.0045  -16.5049   26.7774 N   0  0  0  0  0  0  0  0  0  0  0  0
   10.7737  -17.2079   28.9004 C   0  0  0  0  0  0  0  0  0  0  0  0
   10.9654  -15.8814   29.2094 O   0  0  0  0  0  0  0  0  0  0  0  0
   11.0269  -18.0694   29.7812 O   0  0  0  0  0  0  0  0  0  0  0  0
  2  9  1  0
  2  1  1  6
  3  2  1  0
  4  3  1  0
  5  4  2  0
  6  5  1  0
  7  6  1  0
  7  8  2  0
  8  4  1  0
  9 10  2  0
 11 12  1  0
 12 13  1  0
 13 15  1  0
 13 14  1  1
 15 16  1  6
 16  9  1  0
 17 22  1  0
 17 15  1  0
 18 17  2  0
 20 19  1  0
 21 22  1  0
 21 20  1  6
 23 21  1  0
 24 23  1  0
 25 23  2  0
M  END
$$$$
