HIS.pdb
     RDKit          3D

 25 25  0  0  1  0  0  0  0  0999 V2000
   10.3372  -15.1529   20.9694 N   0  0  0  0  0  0  0  0  0  0  0  0
    9.1271  -14.7074   21.5875 C   0  0  1  0  0  0  0  0  0  0  0  0
    7.9425  -15.3136   20.9094 C   0  0  0  0  0  0  0  0  0  0  0  0
    7.6564  -14.5483   19.6715 C   0  0  0  0  0  0  0  0  0  0  0  0
    8.3042  -13.4676   19.1130 C   0  0  0  0  0  0  0  0  0  0  0  0
    7.7084  -13.0805   17.9679 N   0  0  0  0  0  0  0  0  0  0  0  0
    6.6773  -13.9206   17.7997 C   0  0  0  0  0  0  0  0  0  0  0  0
    6.6304  -14.8042   18.8075 N   0  0  0  0  0  0  0  0  0  0  0  0
    9.1182  -14.8713   23.0484 C   0  0  0  0  0  0  0  0  0  0  0  0
   10.0342  -15.5163   23.6199 O   0  0  0  0  0  0  0  0  0  0  0  0
    5.8524  -11.4386   26.2363 C   0  0  0  0  0  0  0  0  0  0  0  0
    6.9752  -12.1881   25.6167 C   0  0  0  0  0  0  0  0  0  0  0  0
    7.2296  -13.5596   26.1098 C   0  0  2  0  0  0  0  0  0  0  0  0
    7.7098  -13.5633   27.5653 C   0  0  0  0  0  0  0  0  0  0  0  0
    8.1802  -14.4075   25.3465 C   0  0  2  0  0  0  0  0  0  0  0  0
    8.0994  -14.3284   23.9163 N   0  0  0  0  0  0  0  0  0  0  0  0
    8.2019  -15.8235   25.8251 C   0  0  0  0  0  0  0  0  0  0  0  0
    7.1952  -16.5806   25.6975 O   0  0  0  0  0  0  0  0  0  0  0  0
   10.6497  -19.8158   26.5364 O   0  0  0  0  0  0  0  0  0  0  0  0
   10.5031  -18.4930   26.1582 C   0  0  0  0  0  0  0  0  0  0  0  0
    9.3652  -17.7975   26.8657 C   0  0  2  0  0  0  0  0  0  0  0  0
    9.3467  -16.3897   26.4442 N   0  0  0  0  0  0  0  0  0  0  0  0
    9.6863  -17.7935   28.3169 C   0  0  0  0  0  0  0  0  0  0  0  0
   10.1466  -16.6958   29.0063 O   0  0  0  0  0  0  0  0  0  0  0  0
    9.5231  -18.8697   28.9472 O   0  0  0  0  0  0  0  0  0  0  0  0
  2  9  1  0
  2  1  1  6
  3  2  1  0
  4  3  1  0
  5  4  2  0
  6  5  1  0
  7  6  1  0
  7  8  2  0
  8  4  1  0
  9 10  2  0
 11 12  1  0
 12 13  1  0
 13 15  1  0
 13 14  1  1
 15 16  1  6
 16  9  1  0
 17 22  1  0
 17 15  1  0
 18 17  2  0
 20 19  1  0
 21 22  1  0
 21 20  1  6
 23 21  1  0
 24 23  1  0
 25 23  2  0
M  END
$$$$
