HIS.pdb
     RDKit          3D

 25 25  0  0  1  0  0  0  0  0999 V2000
    7.2492  -16.5949   21.6144 N   0  0  0  0  0  0  0  0  0  0  0  0
    8.5483  -15.9973   21.6186 C   0  0  1  0  0  0  0  0  0  0  0  0
    8.6868  -15.0446   20.4768 C   0  0  0  0  0  0  0  0  0  0  0  0
    8.5320  -15.7946   19.2066 C   0  0  0  0  0  0  0  0  0  0  0  0
    9.4069  -16.6264   18.5415 C   0  0  0  0  0  0  0  0  0  0  0  0
    8.8558  -17.1099   17.4109 N   0  0  0  0  0  0  0  0  0  0  0  0
    7.6247  -16.5817   17.3590 C   0  0  0  0  0  0  0  0  0  0  0  0
    7.4135  -15.7934   18.4232 N   0  0  0  0  0  0  0  0  0  0  0  0
    8.9259  -15.4204   22.9170 C   0  0  0  0  0  0  0  0  0  0  0  0
   10.0997  -15.0143   23.1135 O   0  0  0  0  0  0  0  0  0  0  0  0
    5.9507  -12.0320   25.8377 C   0  0  0  0  0  0  0  0  0  0  0  0
    7.1676  -12.7200   25.3360 C   0  0  0  0  0  0  0  0  0  0  0  0
    7.6204  -13.9210   26.0720 C   0  0  2  0  0  0  0  0  0  0  0  0
    8.3811  -13.5540   27.3510 C   0  0  0  0  0  0  0  0  0  0  0  0
    8.4613  -14.9057   25.3451 C   0  0  2  0  0  0  0  0  0  0  0  0
    8.0187  -15.2766   24.0317 N   0  0  0  0  0  0  0  0  0  0  0  0
    8.7982  -16.1012   26.1769 C   0  0  0  0  0  0  0  0  0  0  0  0
    7.9084  -16.9228   26.5457 O   0  0  0  0  0  0  0  0  0  0  0  0
   12.2438  -19.2843   27.2990 O   0  0  0  0  0  0  0  0  0  0  0  0
   11.7794  -18.1375   26.6797 C   0  0  0  0  0  0  0  0  0  0  0  0
   10.4710  -17.6453   27.2495 C   0  0  2  0  0  0  0  0  0  0  0  0
   10.1268  -16.3757   26.5941 N   0  0  0  0  0  0  0  0  0  0  0  0
   10.7078  -17.3240   28.6813 C   0  0  0  0  0  0  0  0  0  0  0  0
   10.7164  -18.2549   29.6938 O   0  0  0  0  0  0  0  0  0  0  0  0
   10.9127  -16.1185   28.9760 O   0  0  0  0  0  0  0  0  0  0  0  0
  2  9  1  0
  2  1  1  1
  3  2  1  0
  4  3  1  0
  5  4  2  0
  6  5  1  0
  7  6  1  0
  7  8  2  0
  8  4  1  0
  9 10  2  0
 11 12  1  0
 12 13  1  0
 13 15  1  0
 13 14  1  1
 15 16  1  6
 16  9  1  0
 17 22  1  0
 17 15  1  0
 18 17  2  0
 20 19  1  0
 21 22  1  0
 21 20  1  6
 23 21  1  0
 24 23  1  0
 25 23  2  0
M  END
$$$$
