HIS.pdb
     RDKit          3D

 25 25  0  0  1  0  0  0  0  0999 V2000
    7.0029  -15.2834   21.1263 N   0  0  0  0  0  0  0  0  0  0  0  0
    8.3513  -14.8820   21.3824 C   0  0  1  0  0  0  0  0  0  0  0  0
    8.7160  -13.7100   20.5314 C   0  0  0  0  0  0  0  0  0  0  0  0
    8.5280  -14.0765   19.1066 C   0  0  0  0  0  0  0  0  0  0  0  0
    9.2197  -14.9610   18.3072 C   0  0  0  0  0  0  0  0  0  0  0  0
    8.7092  -14.9931   17.0605 N   0  0  0  0  0  0  0  0  0  0  0  0
    7.6883  -14.1243   17.0697 C   0  0  0  0  0  0  0  0  0  0  0  0
    7.5650  -13.5672   18.2834 N   0  0  0  0  0  0  0  0  0  0  0  0
    8.6462  -14.6890   22.8096 C   0  0  0  0  0  0  0  0  0  0  0  0
    9.8137  -14.4091   23.1839 O   0  0  0  0  0  0  0  0  0  0  0  0
    5.7091  -11.6270   25.9990 C   0  0  0  0  0  0  0  0  0  0  0  0
    6.8018  -12.4162   25.3752 C   0  0  0  0  0  0  0  0  0  0  0  0
    7.1758  -13.6908   26.0269 C   0  0  2  0  0  0  0  0  0  0  0  0
    7.9116  -13.4605   27.3515 C   0  0  0  0  0  0  0  0  0  0  0  0
    7.9934  -14.6556   25.2486 C   0  0  2  0  0  0  0  0  0  0  0  0
    7.6614  -14.7994   23.8603 N   0  0  0  0  0  0  0  0  0  0  0  0
    8.1253  -15.9800   25.9293 C   0  0  0  0  0  0  0  0  0  0  0  0
    7.1114  -16.6868   26.2036 O   0  0  0  0  0  0  0  0  0  0  0  0
   11.6469  -17.8681   25.7930 O   0  0  0  0  0  0  0  0  0  0  0  0
   10.5436  -18.6277   26.1399 C   0  0  0  0  0  0  0  0  0  0  0  0
    9.5034  -17.8459   26.9051 C   0  0  2  0  0  0  0  0  0  0  0  0
    9.3879  -16.5109   26.3014 N   0  0  0  0  0  0  0  0  0  0  0  0
   10.0321  -17.6373   28.2786 C   0  0  0  0  0  0  0  0  0  0  0  0
   10.2219  -18.6431   29.1975 O   0  0  0  0  0  0  0  0  0  0  0  0
   10.3220  -16.4599   28.6128 O   0  0  0  0  0  0  0  0  0  0  0  0
  2  9  1  0
  2  1  1  1
  3  2  1  0
  4  3  1  0
  5  4  2  0
  6  5  1  0
  7  6  1  0
  7  8  2  0
  8  4  1  0
  9 10  2  0
 11 12  1  0
 12 13  1  0
 13 15  1  0
 13 14  1  1
 15 16  1  6
 16  9  1  0
 17 22  1  0
 17 15  1  0
 18 17  2  0
 20 19  1  0
 21 22  1  0
 21 20  1  6
 23 21  1  0
 24 23  1  0
 25 23  2  0
M  END
$$$$
