HIS.pdb
     RDKit          3D

 25 25  0  0  1  0  0  0  0  0999 V2000
   10.1221  -14.3878   20.8007 N   0  0  0  0  0  0  0  0  0  0  0  0
    8.8473  -14.2961   21.4420 C   0  0  1  0  0  0  0  0  0  0  0  0
    7.8417  -15.1347   20.7234 C   0  0  0  0  0  0  0  0  0  0  0  0
    7.6624  -14.5971   19.3528 C   0  0  0  0  0  0  0  0  0  0  0  0
    8.2644  -13.5312   18.7194 C   0  0  0  0  0  0  0  0  0  0  0  0
    7.8082  -13.3921   17.4591 N   0  0  0  0  0  0  0  0  0  0  0  0
    6.9122  -14.3753   17.2927 C   0  0  0  0  0  0  0  0  0  0  0  0
    6.8118  -15.1053   18.4132 N   0  0  0  0  0  0  0  0  0  0  0  0
    8.8980  -14.5471   22.8896 C   0  0  0  0  0  0  0  0  0  0  0  0
    9.9076  -15.0930   23.4038 O   0  0  0  0  0  0  0  0  0  0  0  0
    5.6771  -11.3836   26.2310 C   0  0  0  0  0  0  0  0  0  0  0  0
    6.8434  -12.0906   25.6430 C   0  0  0  0  0  0  0  0  0  0  0  0
    7.0658  -13.4936   26.0569 C   0  0  2  0  0  0  0  0  0  0  0  0
    7.5738  -13.5897   27.4998 C   0  0  0  0  0  0  0  0  0  0  0  0
    7.9754  -14.3265   25.2297 C   0  0  2  0  0  0  0  0  0  0  0  0
    7.8372  -14.2024   23.8071 N   0  0  0  0  0  0  0  0  0  0  0  0
    8.0013  -15.7567   25.6636 C   0  0  0  0  0  0  0  0  0  0  0  0
    6.9785  -16.4964   25.5664 O   0  0  0  0  0  0  0  0  0  0  0  0
   11.2556  -17.7970   25.3759 O   0  0  0  0  0  0  0  0  0  0  0  0
   10.1207  -18.5198   25.6981 C   0  0  0  0  0  0  0  0  0  0  0  0
    9.1796  -17.7694   26.6091 C   0  0  2  0  0  0  0  0  0  0  0  0
    9.1685  -16.3566   26.2043 N   0  0  0  0  0  0  0  0  0  0  0  0
    9.7658  -17.8067   27.9745 C   0  0  0  0  0  0  0  0  0  0  0  0
    9.9542  -18.9560   28.7064 O   0  0  0  0  0  0  0  0  0  0  0  0
   10.1089  -16.7098   28.4854 O   0  0  0  0  0  0  0  0  0  0  0  0
  2  9  1  0
  2  1  1  6
  3  2  1  0
  4  3  1  0
  5  4  2  0
  6  5  1  0
  7  6  1  0
  7  8  2  0
  8  4  1  0
  9 10  2  0
 11 12  1  0
 12 13  1  0
 13 15  1  0
 13 14  1  1
 15 16  1  6
 16  9  1  0
 17 22  1  0
 17 15  1  0
 18 17  2  0
 20 19  1  0
 21 22  1  0
 21 20  1  6
 23 21  1  0
 24 23  1  0
 25 23  2  0
M  END
$$$$
