HIS.pdb
     RDKit          3D

 25 25  0  0  1  0  0  0  0  0999 V2000
    8.7054  -15.4068   20.5227 N   0  0  0  0  0  0  0  0  0  0  0  0
    7.9703  -15.8624   21.6616 C   0  0  1  0  0  0  0  0  0  0  0  0
    7.7478  -17.3371   21.5815 C   0  0  0  0  0  0  0  0  0  0  0  0
    6.8664  -17.6257   20.4241 C   0  0  0  0  0  0  0  0  0  0  0  0
    7.0366  -17.3735   19.0798 C   0  0  0  0  0  0  0  0  0  0  0  0
    5.9805  -17.8085   18.3647 N   0  0  0  0  0  0  0  0  0  0  0  0
    5.1363  -18.3394   19.2606 C   0  0  0  0  0  0  0  0  0  0  0  0
    5.6486  -18.2392   20.4960 N   0  0  0  0  0  0  0  0  0  0  0  0
    8.5386  -15.4204   22.9433 C   0  0  0  0  0  0  0  0  0  0  0  0
    9.7821  -15.4478   23.1290 O   0  0  0  0  0  0  0  0  0  0  0  0
    5.9173  -11.7670   26.3099 C   0  0  0  0  0  0  0  0  0  0  0  0
    7.0376  -12.4474   25.6114 C   0  0  0  0  0  0  0  0  0  0  0  0
    7.5374  -13.7097   26.1994 C   0  0  2  0  0  0  0  0  0  0  0  0
    8.3840  -13.4602   27.4524 C   0  0  0  0  0  0  0  0  0  0  0  0
    8.3252  -14.6183   25.3281 C   0  0  2  0  0  0  0  0  0  0  0  0
    7.7504  -14.9370   24.0529 N   0  0  0  0  0  0  0  0  0  0  0  0
    8.7967  -15.8411   26.0472 C   0  0  0  0  0  0  0  0  0  0  0  0
    7.9828  -16.7065   26.4847 O   0  0  0  0  0  0  0  0  0  0  0  0
   12.5949  -18.7529   26.9860 O   0  0  0  0  0  0  0  0  0  0  0  0
   12.0278  -17.6416   26.3879 C   0  0  0  0  0  0  0  0  0  0  0  0
   10.6268  -17.3580   26.8733 C   0  0  2  0  0  0  0  0  0  0  0  0
   10.1746  -16.0939   26.2754 N   0  0  0  0  0  0  0  0  0  0  0  0
   10.7085  -17.1199   28.3382 C   0  0  0  0  0  0  0  0  0  0  0  0
   10.8968  -18.1090   29.2753 O   0  0  0  0  0  0  0  0  0  0  0  0
   10.5970  -15.9322   28.7371 O   0  0  0  0  0  0  0  0  0  0  0  0
  2  9  1  0
  2  1  1  6
  3  2  1  0
  4  3  1  0
  5  4  2  0
  6  5  1  0
  7  6  1  0
  7  8  2  0
  8  4  1  0
  9 10  2  0
 11 12  1  0
 12 13  1  0
 13 15  1  0
 13 14  1  1
 15 16  1  6
 16  9  1  0
 17 22  1  0
 17 15  1  0
 18 17  2  0
 20 19  1  0
 21 22  1  0
 21 20  1  6
 23 21  1  0
 24 23  1  0
 25 23  2  0
M  END
$$$$
