HIS.pdb
     RDKit          3D

 25 25  0  0  1  0  0  0  0  0999 V2000
    9.6723  -15.5626   20.5766 N   0  0  0  0  0  0  0  0  0  0  0  0
    8.5813  -15.7606   21.4795 C   0  0  1  0  0  0  0  0  0  0  0  0
    8.0641  -17.1577   21.3724 C   0  0  0  0  0  0  0  0  0  0  0  0
    7.5374  -17.3690   20.0020 C   0  0  0  0  0  0  0  0  0  0  0  0
    7.6069  -16.5722   18.8796 C   0  0  0  0  0  0  0  0  0  0  0  0
    6.9924  -17.1533   17.8304 N   0  0  0  0  0  0  0  0  0  0  0  0
    6.5310  -18.3249   18.2904 C   0  0  0  0  0  0  0  0  0  0  0  0
    6.8470  -18.4711   19.5855 N   0  0  0  0  0  0  0  0  0  0  0  0
    8.8765  -15.3452   22.8584 C   0  0  0  0  0  0  0  0  0  0  0  0
   10.0596  -15.3561   23.2847 O   0  0  0  0  0  0  0  0  0  0  0  0
    5.8474  -11.5902   25.6590 C   0  0  0  0  0  0  0  0  0  0  0  0
    6.9532  -12.4184   25.1137 C   0  0  0  0  0  0  0  0  0  0  0  0
    7.3187  -13.6408   25.8629 C   0  0  2  0  0  0  0  0  0  0  0  0
    8.0045  -13.3115   27.1934 C   0  0  0  0  0  0  0  0  0  0  0  0
    8.1744  -14.6444   25.1805 C   0  0  2  0  0  0  0  0  0  0  0  0
    7.8748  -14.9072   23.8023 N   0  0  0  0  0  0  0  0  0  0  0  0
    8.3227  -15.9063   25.9681 C   0  0  0  0  0  0  0  0  0  0  0  0
    7.3464  -16.6918   26.1492 O   0  0  0  0  0  0  0  0  0  0  0  0
   11.8998  -17.5918   26.1106 O   0  0  0  0  0  0  0  0  0  0  0  0
   10.7901  -18.3629   26.4078 C   0  0  0  0  0  0  0  0  0  0  0  0
    9.7319  -17.6068   27.1744 C   0  0  2  0  0  0  0  0  0  0  0  0
    9.5596  -16.2873   26.5506 N   0  0  0  0  0  0  0  0  0  0  0  0
   10.2704  -17.3562   28.5369 C   0  0  0  0  0  0  0  0  0  0  0  0
   10.6205  -18.3451   29.4265 O   0  0  0  0  0  0  0  0  0  0  0  0
   10.4115  -16.1572   28.8902 O   0  0  0  0  0  0  0  0  0  0  0  0
  2  9  1  0
  2  1  1  6
  3  2  1  0
  4  3  1  0
  5  4  2  0
  6  5  1  0
  7  6  1  0
  7  8  2  0
  8  4  1  0
  9 10  2  0
 11 12  1  0
 12 13  1  0
 13 15  1  0
 13 14  1  1
 15 16  1  6
 16  9  1  0
 17 22  1  0
 17 15  1  0
 18 17  2  0
 20 19  1  0
 21 22  1  0
 21 20  1  6
 23 21  1  0
 24 23  1  0
 25 23  2  0
M  END
$$$$
