HIS.pdb
     RDKit          3D

 25 25  0  0  1  0  0  0  0  0999 V2000
   10.7096  -16.2722   15.0763 N   0  0  0  0  0  0  0  0  0  0  0  0
    9.7604  -16.6754   16.0669 C   0  0  1  0  0  0  0  0  0  0  0  0
    9.6388  -18.1638   16.0959 C   0  0  0  0  0  0  0  0  0  0  0  0
    9.1139  -18.6264   14.7881 C   0  0  0  0  0  0  0  0  0  0  0  0
    9.6392  -19.5107   13.8707 C   0  0  0  0  0  0  0  0  0  0  0  0
    8.8245  -19.6503   12.8064 N   0  0  0  0  0  0  0  0  0  0  0  0
    7.7770  -18.8501   13.0507 C   0  0  0  0  0  0  0  0  0  0  0  0
    7.9323  -18.2304   14.2297 N   0  0  0  0  0  0  0  0  0  0  0  0
    9.9997  -16.0774   17.3884 C   0  0  0  0  0  0  0  0  0  0  0  0
   11.1736  -15.8533   17.7800 O   0  0  0  0  0  0  0  0  0  0  0  0
    6.8815  -12.0748   19.6446 C   0  0  0  0  0  0  0  0  0  0  0  0
    8.0188  -12.9528   19.2682 C   0  0  0  0  0  0  0  0  0  0  0  0
    8.2630  -14.1451   20.1096 C   0  0  2  0  0  0  0  0  0  0  0  0
    8.7245  -13.7637   21.5204 C   0  0  0  0  0  0  0  0  0  0  0  0
    9.2210  -15.1639   19.6099 C   0  0  2  0  0  0  0  0  0  0  0  0
    8.9510  -15.7113   18.3115 N   0  0  0  0  0  0  0  0  0  0  0  0
    9.5032  -16.2324   20.6165 C   0  0  0  0  0  0  0  0  0  0  0  0
    8.6974  -17.1897   20.8089 O   0  0  0  0  0  0  0  0  0  0  0  0
   13.0607  -17.8186   21.4026 O   0  0  0  0  0  0  0  0  0  0  0  0
   12.4245  -17.4348   22.5698 C   0  0  0  0  0  0  0  0  0  0  0  0
   10.9323  -17.2757   22.4060 C   0  0  2  0  0  0  0  0  0  0  0  0
   10.6835  -16.2289   21.4048 N   0  0  0  0  0  0  0  0  0  0  0  0
   10.4014  -16.7554   23.6931 C   0  0  0  0  0  0  0  0  0  0  0  0
    9.8689  -15.4983   23.8609 O   0  0  0  0  0  0  0  0  0  0  0  0
   10.4466  -17.5230   24.6886 O   0  0  0  0  0  0  0  0  0  0  0  0
  2  9  1  0
  2  1  1  6
  3  2  1  0
  4  3  1  0
  5  4  2  0
  6  5  1  0
  7  6  1  0
  7  8  2  0
  8  4  1  0
  9 10  2  0
 11 12  1  0
 12 13  1  0
 13 15  1  0
 13 14  1  1
 15 16  1  6
 16  9  1  0
 17 22  1  0
 17 15  1  0
 18 17  2  0
 20 19  1  0
 21 22  1  0
 21 20  1  1
 23 21  1  0
 24 23  1  0
 25 23  2  0
M  END
$$$$
