HIS.pdb
     RDKit          3D

 25 25  0  0  1  0  0  0  0  0999 V2000
    9.9794  -13.8868   20.7942 N   0  0  0  0  0  0  0  0  0  0  0  0
    8.7754  -14.1479   21.5201 C   0  0  1  0  0  0  0  0  0  0  0  0
    7.9905  -15.2302   20.8543 C   0  0  0  0  0  0  0  0  0  0  0  0
    7.6937  -14.8178   19.4609 C   0  0  0  0  0  0  0  0  0  0  0  0
    8.1793  -13.7681   18.7113 C   0  0  0  0  0  0  0  0  0  0  0  0
    7.6420  -13.7618   17.4755 N   0  0  0  0  0  0  0  0  0  0  0  0
    6.8112  -14.8135   17.4416 C   0  0  0  0  0  0  0  0  0  0  0  0
    6.8289  -15.4561   18.6185 N   0  0  0  0  0  0  0  0  0  0  0  0
    8.9923  -14.3748   22.9563 C   0  0  0  0  0  0  0  0  0  0  0  0
   10.1255  -14.7179   23.3802 O   0  0  0  0  0  0  0  0  0  0  0  0
    5.8935  -11.5710   26.5871 C   0  0  0  0  0  0  0  0  0  0  0  0
    7.0801  -12.1983   25.9511 C   0  0  0  0  0  0  0  0  0  0  0  0
    7.3637  -13.6107   26.2884 C   0  0  2  0  0  0  0  0  0  0  0  0
    7.9784  -13.7519   27.6853 C   0  0  0  0  0  0  0  0  0  0  0  0
    8.2285  -14.3860   25.3631 C   0  0  2  0  0  0  0  0  0  0  0  0
    7.9654  -14.2292   23.9615 N   0  0  0  0  0  0  0  0  0  0  0  0
    8.3420  -15.8254   25.7503 C   0  0  0  0  0  0  0  0  0  0  0  0
    7.3307  -16.5868   25.7706 O   0  0  0  0  0  0  0  0  0  0  0  0
   11.1276  -18.1224   24.5781 O   0  0  0  0  0  0  0  0  0  0  0  0
   10.9623  -18.3863   25.9263 C   0  0  0  0  0  0  0  0  0  0  0  0
    9.6757  -17.8288   26.4854 C   0  0  2  0  0  0  0  0  0  0  0  0
    9.5833  -16.4100   26.1133 N   0  0  0  0  0  0  0  0  0  0  0  0
    9.7880  -17.8642   27.9671 C   0  0  0  0  0  0  0  0  0  0  0  0
    9.8655  -19.0182   28.7116 O   0  0  0  0  0  0  0  0  0  0  0  0
    9.8132  -16.7609   28.5705 O   0  0  0  0  0  0  0  0  0  0  0  0
  2  9  1  0
  2  1  1  6
  3  2  1  0
  4  3  1  0
  5  4  2  0
  6  5  1  0
  7  6  1  0
  7  8  2  0
  8  4  1  0
  9 10  2  0
 11 12  1  0
 12 13  1  0
 13 15  1  0
 13 14  1  1
 15 16  1  6
 16  9  1  0
 17 22  1  0
 17 15  1  0
 18 17  2  0
 20 19  1  0
 21 22  1  0
 21 20  1  6
 23 21  1  0
 24 23  1  0
 25 23  2  0
M  END
$$$$
