HIS.pdb
     RDKit          3D

 25 25  0  0  1  0  0  0  0  0999 V2000
   11.7849  -16.1095   15.1719 N   0  0  0  0  0  0  0  0  0  0  0  0
   10.7197  -16.5917   15.9951 C   0  0  1  0  0  0  0  0  0  0  0  0
   10.6402  -18.0814   15.9238 C   0  0  0  0  0  0  0  0  0  0  0  0
   10.3067  -18.4767   14.5337 C   0  0  0  0  0  0  0  0  0  0  0  0
    9.1311  -18.3606   13.8237 C   0  0  0  0  0  0  0  0  0  0  0  0
    9.2658  -18.8481   12.5746 N   0  0  0  0  0  0  0  0  0  0  0  0
   10.5338  -19.2755   12.4925 C   0  0  0  0  0  0  0  0  0  0  0  0
   11.1708  -19.0619   13.6531 N   0  0  0  0  0  0  0  0  0  0  0  0
   10.7547  -16.0680   17.3683 C   0  0  0  0  0  0  0  0  0  0  0  0
   11.8439  -15.9980   17.9929 O   0  0  0  0  0  0  0  0  0  0  0  0
    7.0975  -12.1544   19.2524 C   0  0  0  0  0  0  0  0  0  0  0  0
    8.3187  -12.9495   18.9652 C   0  0  0  0  0  0  0  0  0  0  0  0
    8.5670  -14.1403   19.8076 C   0  0  2  0  0  0  0  0  0  0  0  0
    8.8197  -13.7617   21.2712 C   0  0  0  0  0  0  0  0  0  0  0  0
    9.6660  -15.0563   19.4097 C   0  0  2  0  0  0  0  0  0  0  0  0
    9.5897  -15.6082   18.0876 N   0  0  0  0  0  0  0  0  0  0  0  0
    9.9404  -16.1075   20.4365 C   0  0  0  0  0  0  0  0  0  0  0  0
    9.2808  -17.1875   20.4703 O   0  0  0  0  0  0  0  0  0  0  0  0
   13.1355  -17.8676   23.6488 O   0  0  0  0  0  0  0  0  0  0  0  0
   12.7534  -16.9999   22.6411 C   0  0  0  0  0  0  0  0  0  0  0  0
   11.2702  -17.0328   22.3622 C   0  0  2  0  0  0  0  0  0  0  0  0
   10.9498  -15.9498   21.4217 N   0  0  0  0  0  0  0  0  0  0  0  0
   10.5760  -16.6992   23.6335 C   0  0  0  0  0  0  0  0  0  0  0  0
   10.3405  -17.5982   24.6475 O   0  0  0  0  0  0  0  0  0  0  0  0
   10.1819  -15.5139   23.7820 O   0  0  0  0  0  0  0  0  0  0  0  0
  2  9  1  0
  2  1  1  6
  3  2  1  0
  4  3  1  0
  5  4  2  0
  6  5  1  0
  7  6  1  0
  7  8  2  0
  8  4  1  0
  9 10  2  0
 11 12  1  0
 12 13  1  0
 13 15  1  0
 13 14  1  1
 15 16  1  6
 16  9  1  0
 17 22  1  0
 17 15  1  0
 18 17  2  0
 20 19  1  0
 21 22  1  0
 21 20  1  1
 23 21  1  0
 24 23  1  0
 25 23  2  0
M  END
$$$$
