HIS.pdb
     RDKit          3D

 25 25  0  0  1  0  0  0  0  0999 V2000
    9.2010  -15.7908   20.6514 N   0  0  0  0  0  0  0  0  0  0  0  0
    8.3154  -16.0606   21.7413 C   0  0  1  0  0  0  0  0  0  0  0  0
    7.9771  -17.5145   21.7893 C   0  0  0  0  0  0  0  0  0  0  0  0
    7.2395  -17.8751   20.5541 C   0  0  0  0  0  0  0  0  0  0  0  0
    6.9892  -17.1461   19.4115 C   0  0  0  0  0  0  0  0  0  0  0  0
    6.2767  -17.8642   18.5213 N   0  0  0  0  0  0  0  0  0  0  0  0
    6.0743  -19.0551   19.1028 C   0  0  0  0  0  0  0  0  0  0  0  0
    6.6422  -19.0800   20.3175 N   0  0  0  0  0  0  0  0  0  0  0  0
    8.7833  -15.5212   23.0263 C   0  0  0  0  0  0  0  0  0  0  0  0
   10.0145  -15.4123   23.2580 O   0  0  0  0  0  0  0  0  0  0  0  0
    5.9353  -11.8475   26.0112 C   0  0  0  0  0  0  0  0  0  0  0  0
    7.1123  -12.5564   25.4471 C   0  0  0  0  0  0  0  0  0  0  0  0
    7.5847  -13.7627   26.1619 C   0  0  2  0  0  0  0  0  0  0  0  0
    8.4024  -13.4046   27.4078 C   0  0  0  0  0  0  0  0  0  0  0  0
    8.3848  -14.7540   25.3988 C   0  0  2  0  0  0  0  0  0  0  0  0
    7.9055  -15.0882   24.0885 N   0  0  0  0  0  0  0  0  0  0  0  0
    8.7084  -15.9734   26.2006 C   0  0  0  0  0  0  0  0  0  0  0  0
    7.8075  -16.7864   26.5614 O   0  0  0  0  0  0  0  0  0  0  0  0
   11.6125  -18.3051   25.4964 O   0  0  0  0  0  0  0  0  0  0  0  0
   11.6246  -18.0837   26.8621 C   0  0  0  0  0  0  0  0  0  0  0  0
   10.3357  -17.4902   27.3772 C   0  0  2  0  0  0  0  0  0  0  0  0
   10.0361  -16.2813   26.5970 N   0  0  0  0  0  0  0  0  0  0  0  0
   10.5864  -17.0354   28.7699 C   0  0  0  0  0  0  0  0  0  0  0  0
   10.8774  -17.8754   29.8195 O   0  0  0  0  0  0  0  0  0  0  0  0
   10.5261  -15.7989   28.9929 O   0  0  0  0  0  0  0  0  0  0  0  0
  2  9  1  0
  2  1  1  6
  3  2  1  0
  4  3  1  0
  5  4  2  0
  6  5  1  0
  7  6  1  0
  7  8  2  0
  8  4  1  0
  9 10  2  0
 11 12  1  0
 12 13  1  0
 13 15  1  0
 13 14  1  1
 15 16  1  6
 16  9  1  0
 17 22  1  0
 17 15  1  0
 18 17  2  0
 20 19  1  0
 21 22  1  0
 21 20  1  6
 23 21  1  0
 24 23  1  0
 25 23  2  0
M  END
$$$$
