FKV.pdb
     RDKit          3D

 28 28  0  0  1  0  0  0  0  0999 V2000
    6.0550  -18.1902   20.3935 N   0  0  0  0  0  0  0  0  0  0  0  0
    6.8953  -17.1007   20.8637 C   0  0  1  0  0  0  0  0  0  0  0  0
    6.1678  -15.8286   20.6230 C   0  0  0  0  0  0  0  0  0  0  0  0
    6.8555  -14.6032   20.9900 C   0  0  0  0  0  0  0  0  0  0  0  0
    6.6330  -14.0997   22.2665 C   0  0  0  0  0  0  0  0  0  0  0  0
    7.2432  -12.9464   22.6976 C   0  0  0  0  0  0  0  0  0  0  0  0
    8.0920  -12.2544   21.8819 C   0  0  0  0  0  0  0  0  0  0  0  0
    8.3243  -12.7374   20.6153 C   0  0  0  0  0  0  0  0  0  0  0  0
    7.7114  -13.8908   20.1902 C   0  0  0  0  0  0  0  0  0  0  0  0
    7.2779  -17.3061   22.2979 C   0  0  0  0  0  0  0  0  0  0  0  0
    6.3940  -17.3198   23.1834 O   0  0  0  0  0  0  0  0  0  0  0  0
    8.5992  -17.4885   22.7184 N   0  0  0  0  0  0  0  0  0  0  0  0
    9.1859  -17.6686   23.9778 C   0  0  1  0  0  0  0  0  0  0  0  0
   10.1955  -18.7425   24.2103 C   0  0  0  0  0  0  0  0  0  0  0  0
   10.5518  -18.9245   25.6592 C   0  0  0  0  0  0  0  0  0  0  0  0
   11.6643  -19.9401   25.8439 C   0  0  0  0  0  0  0  0  0  0  0  0
   11.8653  -20.1021   27.3532 C   0  0  0  0  0  0  0  0  0  0  0  0
   12.9835  -20.9718   27.6146 N   0  0  0  0  0  0  0  0  0  0  0  0
    9.5813  -16.3871   24.5597 C   0  0  0  0  0  0  0  0  0  0  0  0
   10.5497  -15.7540   24.0226 O   0  0  0  0  0  0  0  0  0  0  0  0
    9.1933  -12.2956   27.1800 C   0  0  0  0  0  0  0  0  0  0  0  0
    8.6624  -13.4508   26.4016 C   0  0  1  0  0  0  0  0  0  0  0  0
    8.3003  -12.9774   25.0156 C   0  0  0  0  0  0  0  0  0  0  0  0
    9.6098  -14.6261   26.3650 C   0  0  2  0  0  0  0  0  0  0  0  0
    9.0001  -15.7490   25.6789 N   0  0  0  0  0  0  0  0  0  0  0  0
   10.1210  -14.9978   27.6824 C   0  0  0  0  0  0  0  0  0  0  0  0
    9.6911  -15.9516   28.3755 O   0  0  0  0  0  0  0  0  0  0  0  0
   11.1734  -14.2592   28.2560 O   0  0  0  0  0  0  0  0  0  0  0  0
  2  1  1  1
  3  4  1  0
  3  2  1  0
  4  5  2  0
  5  6  1  0
  7  6  2  0
  8  7  1  0
  9  4  1  0
  9  8  2  0
 10  2  1  0
 10 11  2  0
 12 10  1  0
 13 12  1  0
 13 14  1  6
 14 15  1  0
 15 16  1  0
 17 16  1  0
 18 17  1  0
 19 13  1  0
 20 19  2  0
 22 21  1  1
 23 22  1  0
 24 22  1  0
 24 25  1  1
 25 19  1  0
 26 28  1  0
 26 24  1  0
 27 26  2  0
M  END
$$$$
