FKV.pdb
     RDKit          3D

 28 28  0  0  1  0  0  0  0  0999 V2000
    5.4031  -17.8193   24.7661 N   0  0  0  0  0  0  0  0  0  0  0  0
    6.2140  -16.6139   24.8246 C   0  0  1  0  0  0  0  0  0  0  0  0
    5.8511  -15.8814   26.0646 C   0  0  0  0  0  0  0  0  0  0  0  0
    6.2931  -14.5013   26.1611 C   0  0  0  0  0  0  0  0  0  0  0  0
    5.6788  -13.5707   25.3311 C   0  0  0  0  0  0  0  0  0  0  0  0
    6.0342  -12.2436   25.3571 C   0  0  0  0  0  0  0  0  0  0  0  0
    7.0071  -11.7940   26.2033 C   0  0  0  0  0  0  0  0  0  0  0  0
    7.6261  -12.7003   27.0320 C   0  0  0  0  0  0  0  0  0  0  0  0
    7.2665  -14.0256   27.0014 C   0  0  0  0  0  0  0  0  0  0  0  0
    7.6716  -16.9496   24.7359 C   0  0  0  0  0  0  0  0  0  0  0  0
    8.1521  -17.8413   25.4704 O   0  0  0  0  0  0  0  0  0  0  0  0
    8.5519  -16.3092   23.8579 N   0  0  0  0  0  0  0  0  0  0  0  0
    9.9349  -16.4015   23.6535 C   0  0  1  0  0  0  0  0  0  0  0  0
   10.5440  -16.0476   22.3381 C   0  0  0  0  0  0  0  0  0  0  0  0
   11.9955  -16.4231   22.2311 C   0  0  0  0  0  0  0  0  0  0  0  0
   12.5475  -16.1541   20.8432 C   0  0  0  0  0  0  0  0  0  0  0  0
   13.9449  -16.7785   20.7975 C   0  0  0  0  0  0  0  0  0  0  0  0
   14.5835  -16.4750   19.5424 N   0  0  0  0  0  0  0  0  0  0  0  0
   10.6705  -15.8398   24.7851 C   0  0  0  0  0  0  0  0  0  0  0  0
   11.3451  -14.7738   24.5965 O   0  0  0  0  0  0  0  0  0  0  0  0
   10.5844  -13.6910   27.3967 C   0  0  0  0  0  0  0  0  0  0  0  0
   11.0546  -14.9430   28.0551 C   0  0  1  0  0  0  0  0  0  0  0  0
    9.8995  -15.5626   28.8020 C   0  0  0  0  0  0  0  0  0  0  0  0
   11.6888  -15.9172   27.0912 C   0  0  2  0  0  0  0  0  0  0  0  0
   10.7231  -16.3533   26.1008 N   0  0  0  0  0  0  0  0  0  0  0  0
   12.3439  -17.0426   27.7539 C   0  0  0  0  0  0  0  0  0  0  0  0
   12.0048  -18.2444   27.6294 O   0  0  0  0  0  0  0  0  0  0  0  0
   13.4412  -16.8085   28.6044 O   0  0  0  0  0  0  0  0  0  0  0  0
  2  1  1  1
  3  4  1  0
  3  2  1  0
  4  5  2  0
  5  6  1  0
  7  6  2  0
  8  7  1  0
  9  4  1  0
  9  8  2  0
 10  2  1  0
 10 11  2  0
 12 10  1  0
 13 12  1  0
 13 14  1  6
 14 15  1  0
 15 16  1  0
 17 16  1  0
 18 17  1  0
 19 13  1  0
 20 19  2  0
 22 21  1  6
 23 22  1  0
 24 22  1  0
 24 25  1  6
 25 19  1  0
 26 28  1  0
 26 24  1  0
 27 26  2  0
M  END
$$$$
