FKV.pdb
     RDKit          3D

 28 28  0  0  1  0  0  0  0  0999 V2000
    5.8092  -18.8376   25.2361 N   0  0  0  0  0  0  0  0  0  0  0  0
    5.9187  -17.3890   25.1743 C   0  0  1  0  0  0  0  0  0  0  0  0
    5.8023  -16.8646   26.5588 C   0  0  0  0  0  0  0  0  0  0  0  0
    5.7888  -15.4203   26.7113 C   0  0  0  0  0  0  0  0  0  0  0  0
    4.7176  -14.7264   26.1606 C   0  0  0  0  0  0  0  0  0  0  0  0
    4.6239  -13.3590   26.2588 C   0  0  0  0  0  0  0  0  0  0  0  0
    5.5848  -12.6342   26.9037 C   0  0  0  0  0  0  0  0  0  0  0  0
    6.6523  -13.3036   27.4549 C   0  0  0  0  0  0  0  0  0  0  0  0
    6.7404  -14.6706   27.3534 C   0  0  0  0  0  0  0  0  0  0  0  0
    7.1863  -16.9812   24.4872 C   0  0  0  0  0  0  0  0  0  0  0  0
    8.1815  -17.7392   24.5130 O   0  0  0  0  0  0  0  0  0  0  0  0
    7.3287  -15.7715   23.8000 N   0  0  0  0  0  0  0  0  0  0  0  0
    8.3530  -15.2359   23.0083 C   0  0  1  0  0  0  0  0  0  0  0  0
    8.0856  -14.1193   22.0552 C   0  0  0  0  0  0  0  0  0  0  0  0
    9.2125  -13.8732   21.0914 C   0  0  0  0  0  0  0  0  0  0  0  0
    8.8682  -12.7910   20.0846 C   0  0  0  0  0  0  0  0  0  0  0  0
    8.9892  -13.4273   18.6971 C   0  0  0  0  0  0  0  0  0  0  0  0
    8.6211  -12.4753   17.6806 N   0  0  0  0  0  0  0  0  0  0  0  0
    9.5682  -15.0280   23.7940 C   0  0  0  0  0  0  0  0  0  0  0  0
   10.1292  -13.8835   23.7456 O   0  0  0  0  0  0  0  0  0  0  0  0
   11.4325  -14.4012   27.8250 C   0  0  0  0  0  0  0  0  0  0  0  0
   10.5469  -14.6815   26.6591 C   0  0  1  0  0  0  0  0  0  0  0  0
   10.1350  -13.3708   26.0357 C   0  0  0  0  0  0  0  0  0  0  0  0
   11.1739  -15.6124   25.6490 C   0  0  2  0  0  0  0  0  0  0  0  0
   10.2124  -15.9727   24.6247 N   0  0  0  0  0  0  0  0  0  0  0  0
   11.7988  -16.7862   26.2545 C   0  0  0  0  0  0  0  0  0  0  0  0
   12.7738  -16.7526   27.0440 O   0  0  0  0  0  0  0  0  0  0  0  0
   11.3037  -18.0705   25.9590 O   0  0  0  0  0  0  0  0  0  0  0  0
  2  1  1  1
  3  4  1  0
  3  2  1  0
  4  5  2  0
  5  6  1  0
  7  6  2  0
  8  7  1  0
  9  4  1  0
  9  8  2  0
 10  2  1  0
 10 11  2  0
 12 10  1  0
 13 12  1  0
 13 14  1  1
 14 15  1  0
 15 16  1  0
 17 16  1  0
 18 17  1  0
 19 13  1  0
 20 19  2  0
 22 21  1  1
 23 22  1  0
 24 22  1  0
 24 25  1  6
 25 19  1  0
 26 28  1  0
 26 24  1  0
 27 26  2  0
M  END
$$$$
