FKV.pdb
     RDKit          3D

 28 28  0  0  1  0  0  0  0  0999 V2000
    5.1523  -17.4277   24.3777 N   0  0  0  0  0  0  0  0  0  0  0  0
    6.1152  -16.3538   24.5614 C   0  0  1  0  0  0  0  0  0  0  0  0
    5.7868  -15.6611   25.8334 C   0  0  0  0  0  0  0  0  0  0  0  0
    6.3696  -14.3455   26.0301 C   0  0  0  0  0  0  0  0  0  0  0  0
    5.5052  -13.2570   26.0511 C   0  0  0  0  0  0  0  0  0  0  0  0
    5.9705  -11.9768   26.2329 C   0  0  0  0  0  0  0  0  0  0  0  0
    7.3034  -11.7316   26.3996 C   0  0  0  0  0  0  0  0  0  0  0  0
    8.1738  -12.7963   26.3816 C   0  0  0  0  0  0  0  0  0  0  0  0
    7.7027  -14.0736   26.1995 C   0  0  0  0  0  0  0  0  0  0  0  0
    7.5162  -16.8832   24.5156 C   0  0  0  0  0  0  0  0  0  0  0  0
    7.8476  -17.8357   25.2564 O   0  0  0  0  0  0  0  0  0  0  0  0
    8.5032  -16.3633   23.6721 N   0  0  0  0  0  0  0  0  0  0  0  0
    9.8903  -16.5450   23.5973 C   0  0  1  0  0  0  0  0  0  0  0  0
   10.6432  -16.2192   22.3508 C   0  0  0  0  0  0  0  0  0  0  0  0
   12.0611  -16.7183   22.3612 C   0  0  0  0  0  0  0  0  0  0  0  0
   12.7443  -16.5059   21.0227 C   0  0  0  0  0  0  0  0  0  0  0  0
   14.1465  -17.1088   21.1446 C   0  0  0  0  0  0  0  0  0  0  0  0
   14.8940  -16.8753   19.9355 N   0  0  0  0  0  0  0  0  0  0  0  0
   10.5502  -16.0443   24.8019 C   0  0  0  0  0  0  0  0  0  0  0  0
   11.3503  -15.0579   24.6856 O   0  0  0  0  0  0  0  0  0  0  0  0
   10.6395  -14.3317   29.1625 C   0  0  0  0  0  0  0  0  0  0  0  0
   10.1248  -14.8798   27.8754 C   0  0  1  0  0  0  0  0  0  0  0  0
    9.8835  -13.7358   26.9219 C   0  0  0  0  0  0  0  0  0  0  0  0
   11.0279  -15.9310   27.2757 C   0  0  2  0  0  0  0  0  0  0  0  0
   10.4012  -16.5387   26.1176 N   0  0  0  0  0  0  0  0  0  0  0  0
   11.4775  -16.9280   28.2447 C   0  0  0  0  0  0  0  0  0  0  0  0
   11.0430  -18.1030   28.3188 O   0  0  0  0  0  0  0  0  0  0  0  0
   12.4700  -16.5896   29.1841 O   0  0  0  0  0  0  0  0  0  0  0  0
  2  1  1  1
  3  4  1  0
  3  2  1  0
  4  5  2  0
  5  6  1  0
  7  6  2  0
  8  7  1  0
  9  4  1  0
  9  8  2  0
 10  2  1  0
 10 11  2  0
 12 10  1  0
 13 12  1  0
 13 14  1  6
 14 15  1  0
 15 16  1  0
 17 16  1  0
 18 17  1  0
 19 13  1  0
 20 19  2  0
 22 21  1  1
 23 22  1  0
 24 22  1  0
 24 25  1  6
 25 19  1  0
 26 28  1  0
 26 24  1  0
 27 26  2  0
M  END
$$$$
