FKV.pdb
     RDKit          3D

 28 28  0  0  1  0  0  0  0  0999 V2000
    5.7577  -17.9293   25.3405 N   0  0  0  0  0  0  0  0  0  0  0  0
    6.1448  -16.5407   25.1505 C   0  0  1  0  0  0  0  0  0  0  0  0
    6.6522  -16.0283   26.4487 C   0  0  0  0  0  0  0  0  0  0  0  0
    6.7957  -14.5883   26.5716 C   0  0  0  0  0  0  0  0  0  0  0  0
    5.6581  -13.8114   26.3853 C   0  0  0  0  0  0  0  0  0  0  0  0
    5.7026  -12.4416   26.4841 C   0  0  0  0  0  0  0  0  0  0  0  0
    6.8716  -11.7961   26.7699 C   0  0  0  0  0  0  0  0  0  0  0  0
    8.0076  -12.5483   26.9574 C   0  0  0  0  0  0  0  0  0  0  0  0
    7.9567  -13.9173   26.8573 C   0  0  0  0  0  0  0  0  0  0  0  0
    7.1339  -16.4135   24.0321 C   0  0  0  0  0  0  0  0  0  0  0  0
    8.1028  -17.2022   23.9635 O   0  0  0  0  0  0  0  0  0  0  0  0
    7.0372  -15.4400   23.0326 N   0  0  0  0  0  0  0  0  0  0  0  0
    7.9253  -14.9892   22.0473 C   0  0  1  0  0  0  0  0  0  0  0  0
    7.7022  -13.6915   21.3453 C   0  0  0  0  0  0  0  0  0  0  0  0
    8.6215  -13.4790   20.1752 C   0  0  0  0  0  0  0  0  0  0  0  0
    8.0478  -14.0562   18.8942 C   0  0  0  0  0  0  0  0  0  0  0  0
    9.1257  -13.8957   17.8186 C   0  0  0  0  0  0  0  0  0  0  0  0
    8.6590  -14.4293   16.5645 N   0  0  0  0  0  0  0  0  0  0  0  0
    9.3130  -15.1705   22.4700 C   0  0  0  0  0  0  0  0  0  0  0  0
    9.6156  -14.8985   23.6789 O   0  0  0  0  0  0  0  0  0  0  0  0
   12.7193  -17.9189   23.5470 C   0  0  0  0  0  0  0  0  0  0  0  0
   11.4425  -17.3029   23.0860 C   0  0  1  0  0  0  0  0  0  0  0  0
   10.5866  -16.9995   24.2908 C   0  0  0  0  0  0  0  0  0  0  0  0
   11.6516  -16.0819   22.2224 C   0  0  2  0  0  0  0  0  0  0  0  0
   10.3890  -15.6251   21.6742 N   0  0  0  0  0  0  0  0  0  0  0  0
   12.6643  -16.2728   21.1867 C   0  0  0  0  0  0  0  0  0  0  0  0
   12.4522  -16.7892   20.0628 O   0  0  0  0  0  0  0  0  0  0  0  0
   13.9900  -15.8622   21.4234 O   0  0  0  0  0  0  0  0  0  0  0  0
  2  1  1  1
  3  4  1  0
  3  2  1  0
  4  5  2  0
  5  6  1  0
  7  6  2  0
  8  7  1  0
  9  4  1  0
  9  8  2  0
 10  2  1  0
 10 11  2  0
 12 10  1  0
 13 12  1  0
 13 14  1  1
 14 15  1  0
 15 16  1  0
 17 16  1  0
 18 17  1  0
 19 13  1  0
 20 19  2  0
 22 21  1  1
 23 22  1  0
 24 22  1  0
 24 25  1  6
 25 19  1  0
 26 28  1  0
 26 24  1  0
 27 26  2  0
M  END
$$$$
