FKV.pdb
     RDKit          3D

 28 28  0  0  1  0  0  0  0  0999 V2000
    5.7692  -16.0620   25.0841 N   0  0  0  0  0  0  0  0  0  0  0  0
    7.1116  -15.6593   24.6969 C   0  0  1  0  0  0  0  0  0  0  0  0
    7.5609  -14.6057   25.6423 C   0  0  0  0  0  0  0  0  0  0  0  0
    6.9440  -13.2981   25.5045 C   0  0  0  0  0  0  0  0  0  0  0  0
    5.7913  -13.0510   26.2411 C   0  0  0  0  0  0  0  0  0  0  0  0
    5.1432  -11.8413   26.1721 C   0  0  0  0  0  0  0  0  0  0  0  0
    5.6128  -10.8380   25.3737 C   0  0  0  0  0  0  0  0  0  0  0  0
    6.7522  -11.0642   24.6374 C   0  0  0  0  0  0  0  0  0  0  0  0
    7.3956  -12.2755   24.7106 C   0  0  0  0  0  0  0  0  0  0  0  0
    8.0275  -16.8441   24.6460 C   0  0  0  0  0  0  0  0  0  0  0  0
    7.8995  -17.7677   25.4803 O   0  0  0  0  0  0  0  0  0  0  0  0
    9.0448  -16.9842   23.6965 N   0  0  0  0  0  0  0  0  0  0  0  0
   10.4073  -17.2955   23.7933 C   0  0  1  0  0  0  0  0  0  0  0  0
   11.3151  -17.1526   22.6176 C   0  0  0  0  0  0  0  0  0  0  0  0
   12.6433  -17.8318   22.8019 C   0  0  0  0  0  0  0  0  0  0  0  0
   13.0815  -18.5649   21.5473 C   0  0  0  0  0  0  0  0  0  0  0  0
   13.7331  -17.5225   20.6344 C   0  0  0  0  0  0  0  0  0  0  0  0
   14.1788  -18.1420   19.4126 N   0  0  0  0  0  0  0  0  0  0  0  0
   10.9838  -16.7492   25.0207 C   0  0  0  0  0  0  0  0  0  0  0  0
   11.8198  -15.7912   24.9199 O   0  0  0  0  0  0  0  0  0  0  0  0
   10.8746  -14.9801   29.3968 C   0  0  0  0  0  0  0  0  0  0  0  0
   10.4597  -15.4489   28.0439 C   0  0  1  0  0  0  0  0  0  0  0  0
   10.4312  -14.2664   27.1075 C   0  0  0  0  0  0  0  0  0  0  0  0
   11.3255  -16.5664   27.5128 C   0  0  2  0  0  0  0  0  0  0  0  0
   10.7157  -17.1694   26.3432 N   0  0  0  0  0  0  0  0  0  0  0  0
   11.6732  -17.5599   28.5262 C   0  0  0  0  0  0  0  0  0  0  0  0
   12.3397  -17.3237   29.5630 O   0  0  0  0  0  0  0  0  0  0  0  0
   11.2504  -18.8936   28.3695 O   0  0  0  0  0  0  0  0  0  0  0  0
  2  1  1  1
  3  4  1  0
  3  2  1  0
  4  5  2  0
  5  6  1  0
  7  6  2  0
  8  7  1  0
  9  4  1  0
  9  8  2  0
 10  2  1  0
 10 11  2  0
 12 10  1  0
 13 12  1  0
 13 14  1  6
 14 15  1  0
 15 16  1  0
 17 16  1  0
 18 17  1  0
 19 13  1  0
 20 19  2  0
 22 21  1  1
 23 22  1  0
 24 22  1  0
 24 25  1  6
 25 19  1  0
 26 28  1  0
 26 24  1  0
 27 26  2  0
M  END
$$$$
