FKV.pdb
     RDKit          3D

 28 28  0  0  1  0  0  0  0  0999 V2000
    5.7001  -17.6365   25.8425 N   0  0  0  0  0  0  0  0  0  0  0  0
    6.3047  -16.3640   25.4826 C   0  0  1  0  0  0  0  0  0  0  0  0
    7.1045  -15.8960   26.6433 C   0  0  0  0  0  0  0  0  0  0  0  0
    7.2400  -14.4592   26.8065 C   0  0  0  0  0  0  0  0  0  0  0  0
    8.5257  -13.9307   26.8004 C   0  0  0  0  0  0  0  0  0  0  0  0
    8.7461  -12.5824   26.9475 C   0  0  0  0  0  0  0  0  0  0  0  0
    7.7041  -11.7140   27.1052 C   0  0  0  0  0  0  0  0  0  0  0  0
    6.4248  -12.2187   27.1137 C   0  0  0  0  0  0  0  0  0  0  0  0
    6.2109  -13.5675   26.9662 C   0  0  0  0  0  0  0  0  0  0  0  0
    7.1039  -16.4936   24.2217 C   0  0  0  0  0  0  0  0  0  0  0  0
    7.7497  -17.5416   23.9974 O   0  0  0  0  0  0  0  0  0  0  0  0
    7.1738  -15.4866   23.2537 N   0  0  0  0  0  0  0  0  0  0  0  0
    7.9798  -15.3012   22.1228 C   0  0  1  0  0  0  0  0  0  0  0  0
    7.7673  -14.1419   21.2077 C   0  0  0  0  0  0  0  0  0  0  0  0
    8.7299  -14.1069   20.0538 C   0  0  0  0  0  0  0  0  0  0  0  0
    8.0436  -13.7170   18.7575 C   0  0  0  0  0  0  0  0  0  0  0  0
    9.1193  -13.7355   17.6680 C   0  0  0  0  0  0  0  0  0  0  0  0
    8.5613  -13.3038   16.4120 N   0  0  0  0  0  0  0  0  0  0  0  0
    9.3898  -15.5156   22.4435 C   0  0  0  0  0  0  0  0  0  0  0  0
    9.9698  -14.6735   23.2059 O   0  0  0  0  0  0  0  0  0  0  0  0
   13.3790  -18.3062   23.0759 C   0  0  0  0  0  0  0  0  0  0  0  0
   11.9237  -18.0764   22.8496 C   0  0  1  0  0  0  0  0  0  0  0  0
   11.1806  -18.3699   24.1294 C   0  0  0  0  0  0  0  0  0  0  0  0
   11.6166  -16.6940   22.3251 C   0  0  2  0  0  0  0  0  0  0  0  0
   10.2091  -16.5767   21.9956 N   0  0  0  0  0  0  0  0  0  0  0  0
   12.4772  -16.2927   21.2147 C   0  0  0  0  0  0  0  0  0  0  0  0
   12.3082  -16.6308   20.0179 O   0  0  0  0  0  0  0  0  0  0  0  0
   13.5902  -15.4657   21.4584 O   0  0  0  0  0  0  0  0  0  0  0  0
  2  1  1  1
  3  4  1  0
  3  2  1  0
  4  5  2  0
  5  6  1  0
  7  6  2  0
  8  7  1  0
  9  4  1  0
  9  8  2  0
 10  2  1  0
 10 11  2  0
 12 10  1  0
 13 12  1  0
 13 14  1  1
 14 15  1  0
 15 16  1  0
 17 16  1  0
 18 17  1  0
 19 13  1  0
 20 19  2  0
 22 21  1  1
 23 22  1  0
 24 22  1  0
 24 25  1  6
 25 19  1  0
 26 28  1  0
 26 24  1  0
 27 26  2  0
M  END
$$$$
