FKV.pdb
     RDKit          3D

 28 28  0  0  1  0  0  0  0  0999 V2000
    5.8406  -18.0380   25.7326 N   0  0  0  0  0  0  0  0  0  0  0  0
    6.1129  -16.6426   25.4279 C   0  0  1  0  0  0  0  0  0  0  0  0
    6.4502  -15.9564   26.7011 C   0  0  0  0  0  0  0  0  0  0  0  0
    6.5558  -14.5086   26.6549 C   0  0  0  0  0  0  0  0  0  0  0  0
    5.3950  -13.7881   26.3985 C   0  0  0  0  0  0  0  0  0  0  0  0
    5.4032  -12.4153   26.3382 C   0  0  0  0  0  0  0  0  0  0  0  0
    6.5575  -11.7113   26.5290 C   0  0  0  0  0  0  0  0  0  0  0  0
    7.7161  -12.4073   26.7839 C   0  0  0  0  0  0  0  0  0  0  0  0
    7.7015  -13.7795   26.8430 C   0  0  0  0  0  0  0  0  0  0  0  0
    7.1835  -16.5256   24.3862 C   0  0  0  0  0  0  0  0  0  0  0  0
    8.1701  -17.2947   24.4166 O   0  0  0  0  0  0  0  0  0  0  0  0
    7.1462  -15.5833   23.3534 N   0  0  0  0  0  0  0  0  0  0  0  0
    7.9699  -15.3453   22.2454 C   0  0  1  0  0  0  0  0  0  0  0  0
    7.7459  -14.1663   21.3587 C   0  0  0  0  0  0  0  0  0  0  0  0
    8.6319  -14.1545   20.1445 C   0  0  0  0  0  0  0  0  0  0  0  0
    8.0617  -13.2865   19.0378 C   0  0  0  0  0  0  0  0  0  0  0  0
    8.9885  -13.4496   17.8299 C   0  0  0  0  0  0  0  0  0  0  0  0
    8.5142  -12.6510   16.7288 N   0  0  0  0  0  0  0  0  0  0  0  0
    9.3783  -15.5328   22.5895 C   0  0  0  0  0  0  0  0  0  0  0  0
    9.8920  -14.7639   23.4681 O   0  0  0  0  0  0  0  0  0  0  0  0
   13.3575  -18.2512   23.2861 C   0  0  0  0  0  0  0  0  0  0  0  0
   11.9162  -18.0046   22.9965 C   0  0  1  0  0  0  0  0  0  0  0  0
   11.1154  -18.2822   24.2447 C   0  0  0  0  0  0  0  0  0  0  0  0
   11.6493  -16.6212   22.4529 C   0  0  2  0  0  0  0  0  0  0  0  0
   10.2625  -16.4933   22.0481 N   0  0  0  0  0  0  0  0  0  0  0  0
   12.5715  -16.2303   21.3892 C   0  0  0  0  0  0  0  0  0  0  0  0
   12.4825  -16.5968   20.1922 O   0  0  0  0  0  0  0  0  0  0  0  0
   13.6550  -15.3806   21.6828 O   0  0  0  0  0  0  0  0  0  0  0  0
  2  1  1  1
  3  4  1  0
  3  2  1  0
  4  5  2  0
  5  6  1  0
  7  6  2  0
  8  7  1  0
  9  4  1  0
  9  8  2  0
 10  2  1  0
 10 11  2  0
 12 10  1  0
 13 12  1  0
 13 14  1  1
 14 15  1  0
 15 16  1  0
 17 16  1  0
 18 17  1  0
 19 13  1  0
 20 19  2  0
 22 21  1  1
 23 22  1  0
 24 22  1  0
 24 25  1  6
 25 19  1  0
 26 28  1  0
 26 24  1  0
 27 26  2  0
M  END
$$$$
