FKV.pdb
     RDKit          3D

 28 28  0  0  1  0  0  0  0  0999 V2000
    5.4336  -16.1401   25.1851 N   0  0  0  0  0  0  0  0  0  0  0  0
    6.7259  -15.5709   24.8386 C   0  0  1  0  0  0  0  0  0  0  0  0
    7.1223  -14.6448   25.9299 C   0  0  0  0  0  0  0  0  0  0  0  0
    6.5484  -13.3111   25.8955 C   0  0  0  0  0  0  0  0  0  0  0  0
    7.3061  -12.3008   25.3145 C   0  0  0  0  0  0  0  0  0  0  0  0
    6.8403  -11.0103   25.2383 C   0  0  0  0  0  0  0  0  0  0  0  0
    5.6121  -10.6770   25.7334 C   0  0  0  0  0  0  0  0  0  0  0  0
    4.8481  -11.6635   26.3120 C   0  0  0  0  0  0  0  0  0  0  0  0
    5.3192  -12.9517   26.3851 C   0  0  0  0  0  0  0  0  0  0  0  0
    7.7305  -16.6524   24.5806 C   0  0  0  0  0  0  0  0  0  0  0  0
    7.7499  -17.6717   25.3061 O   0  0  0  0  0  0  0  0  0  0  0  0
    8.6736  -16.5901   23.5499 N   0  0  0  0  0  0  0  0  0  0  0  0
   10.0323  -16.9237   23.4750 C   0  0  1  0  0  0  0  0  0  0  0  0
   10.8093  -16.7106   22.2191 C   0  0  0  0  0  0  0  0  0  0  0  0
   12.1648  -17.3600   22.2372 C   0  0  0  0  0  0  0  0  0  0  0  0
   12.3493  -18.3145   21.0718 C   0  0  0  0  0  0  0  0  0  0  0  0
   13.7456  -18.9249   21.2205 C   0  0  0  0  0  0  0  0  0  0  0  0
   14.0295  -19.7923   20.1060 N   0  0  0  0  0  0  0  0  0  0  0  0
   10.7494  -16.4709   24.6658 C   0  0  0  0  0  0  0  0  0  0  0  0
   11.4266  -15.3928   24.5883 O   0  0  0  0  0  0  0  0  0  0  0  0
   11.1786  -14.9477   28.9839 C   0  0  0  0  0  0  0  0  0  0  0  0
   10.6895  -15.3836   27.6450 C   0  0  1  0  0  0  0  0  0  0  0  0
   10.7067  -14.1982   26.7118 C   0  0  0  0  0  0  0  0  0  0  0  0
   11.4627  -16.5529   27.0835 C   0  0  2  0  0  0  0  0  0  0  0  0
   10.7811  -17.1050   25.9285 N   0  0  0  0  0  0  0  0  0  0  0  0
   11.7708  -17.5748   28.0813 C   0  0  0  0  0  0  0  0  0  0  0  0
   12.6064  -17.4431   29.0083 O   0  0  0  0  0  0  0  0  0  0  0  0
   11.1052  -18.8147   28.0383 O   0  0  0  0  0  0  0  0  0  0  0  0
  2  1  1  1
  3  4  1  0
  3  2  1  0
  4  5  2  0
  5  6  1  0
  7  6  2  0
  8  7  1  0
  9  4  1  0
  9  8  2  0
 10  2  1  0
 10 11  2  0
 12 10  1  0
 13 12  1  0
 13 14  1  6
 14 15  1  0
 15 16  1  0
 17 16  1  0
 18 17  1  0
 19 13  1  0
 20 19  2  0
 22 21  1  1
 23 22  1  0
 24 22  1  0
 24 25  1  6
 25 19  1  0
 26 28  1  0
 26 24  1  0
 27 26  2  0
M  END
$$$$
