FKV.pdb
     RDKit          3D

 28 28  0  0  1  0  0  0  0  0999 V2000
    5.6588  -16.0566   25.5839 N   0  0  0  0  0  0  0  0  0  0  0  0
    6.9152  -15.5983   25.0134 C   0  0  1  0  0  0  0  0  0  0  0  0
    7.4193  -14.4856   25.8582 C   0  0  0  0  0  0  0  0  0  0  0  0
    6.7083  -13.2225   25.7672 C   0  0  0  0  0  0  0  0  0  0  0  0
    7.2615  -12.2305   24.9657 C   0  0  0  0  0  0  0  0  0  0  0  0
    6.6554  -11.0058   24.8214 C   0  0  0  0  0  0  0  0  0  0  0  0
    5.4843  -10.7223   25.4639 C   0  0  0  0  0  0  0  0  0  0  0  0
    4.9220  -11.6915   26.2613 C   0  0  0  0  0  0  0  0  0  0  0  0
    5.5327  -12.9138   26.4016 C   0  0  0  0  0  0  0  0  0  0  0  0
    7.8845  -16.7335   24.8827 C   0  0  0  0  0  0  0  0  0  0  0  0
    7.8723  -17.6637   25.7195 O   0  0  0  0  0  0  0  0  0  0  0  0
    8.8280  -16.8189   23.8539 N   0  0  0  0  0  0  0  0  0  0  0  0
   10.1531  -17.2714   23.8064 C   0  0  1  0  0  0  0  0  0  0  0  0
   10.9626  -17.1534   22.5584 C   0  0  0  0  0  0  0  0  0  0  0  0
   12.2731  -17.8866   22.6244 C   0  0  0  0  0  0  0  0  0  0  0  0
   13.0551  -17.7631   21.3295 C   0  0  0  0  0  0  0  0  0  0  0  0
   14.3274  -18.5972   21.5034 C   0  0  0  0  0  0  0  0  0  0  0  0
   15.1960  -18.4202   20.3679 N   0  0  0  0  0  0  0  0  0  0  0  0
   10.8911  -16.8577   24.9986 C   0  0  0  0  0  0  0  0  0  0  0  0
   11.7456  -15.9178   24.8831 O   0  0  0  0  0  0  0  0  0  0  0  0
   10.8151  -15.3723   29.4719 C   0  0  0  0  0  0  0  0  0  0  0  0
   10.3974  -15.8046   28.1078 C   0  0  1  0  0  0  0  0  0  0  0  0
   10.1967  -14.5798   27.2501 C   0  0  0  0  0  0  0  0  0  0  0  0
   11.3589  -16.7826   27.4758 C   0  0  2  0  0  0  0  0  0  0  0  0
   10.7652  -17.3918   26.3012 N   0  0  0  0  0  0  0  0  0  0  0  0
   11.8697  -17.7794   28.4141 C   0  0  0  0  0  0  0  0  0  0  0  0
   12.5542  -17.5202   29.4335 O   0  0  0  0  0  0  0  0  0  0  0  0
   11.5984  -19.1439   28.1984 O   0  0  0  0  0  0  0  0  0  0  0  0
  2  1  1  1
  3  4  1  0
  3  2  1  0
  4  5  2  0
  5  6  1  0
  7  6  2  0
  8  7  1  0
  9  4  1  0
  9  8  2  0
 10  2  1  0
 10 11  2  0
 12 10  1  0
 13 12  1  0
 13 14  1  6
 14 15  1  0
 15 16  1  0
 17 16  1  0
 18 17  1  0
 19 13  1  0
 20 19  2  0
 22 21  1  1
 23 22  1  0
 24 22  1  0
 24 25  1  6
 25 19  1  0
 26 28  1  0
 26 24  1  0
 27 26  2  0
M  END
$$$$
