FKV.pdb
     RDKit          3D

 28 28  0  0  1  0  0  0  0  0999 V2000
    5.5888  -17.5681   24.6492 N   0  0  0  0  0  0  0  0  0  0  0  0
    6.4730  -16.4145   24.6885 C   0  0  1  0  0  0  0  0  0  0  0  0
    6.1218  -15.6130   25.8884 C   0  0  0  0  0  0  0  0  0  0  0  0
    6.1925  -14.1687   25.7528 C   0  0  0  0  0  0  0  0  0  0  0  0
    5.1207  -13.5279   25.1420 C   0  0  0  0  0  0  0  0  0  0  0  0
    5.1036  -12.1642   24.9734 C   0  0  0  0  0  0  0  0  0  0  0  0
    6.1440  -11.3909   25.4025 C   0  0  0  0  0  0  0  0  0  0  0  0
    7.2133  -12.0074   26.0091 C   0  0  0  0  0  0  0  0  0  0  0  0
    7.2246  -13.3709   26.1748 C   0  0  0  0  0  0  0  0  0  0  0  0
    7.9082  -16.8442   24.6581 C   0  0  0  0  0  0  0  0  0  0  0  0
    8.3011  -17.7607   25.4141 O   0  0  0  0  0  0  0  0  0  0  0  0
    8.8615  -16.2675   23.8129 N   0  0  0  0  0  0  0  0  0  0  0  0
   10.2570  -16.3663   23.7366 C   0  0  1  0  0  0  0  0  0  0  0  0
   11.0070  -15.7965   22.5794 C   0  0  0  0  0  0  0  0  0  0  0  0
   12.4309  -16.2712   22.4976 C   0  0  0  0  0  0  0  0  0  0  0  0
   12.8674  -16.5027   21.0626 C   0  0  0  0  0  0  0  0  0  0  0  0
   14.2898  -17.0666   21.1216 C   0  0  0  0  0  0  0  0  0  0  0  0
   14.7672  -17.3493   19.7922 N   0  0  0  0  0  0  0  0  0  0  0  0
   10.8759  -16.0474   25.0221 C   0  0  0  0  0  0  0  0  0  0  0  0
   11.7237  -15.0954   25.0636 O   0  0  0  0  0  0  0  0  0  0  0  0
   11.2937  -15.2253   29.6672 C   0  0  0  0  0  0  0  0  0  0  0  0
   10.6738  -15.3998   28.3228 C   0  0  1  0  0  0  0  0  0  0  0  0
   10.5821  -14.0520   27.6513 C   0  0  0  0  0  0  0  0  0  0  0  0
   11.3975  -16.4086   27.4631 C   0  0  2  0  0  0  0  0  0  0  0  0
   10.6382  -16.6880   26.2594 N   0  0  0  0  0  0  0  0  0  0  0  0
   11.7575  -17.6285   28.1822 C   0  0  0  0  0  0  0  0  0  0  0  0
   11.0870  -18.6893   28.1755 O   0  0  0  0  0  0  0  0  0  0  0  0
   12.9355  -17.6621   28.9526 O   0  0  0  0  0  0  0  0  0  0  0  0
  2  1  1  1
  3  4  1  0
  3  2  1  0
  4  5  2  0
  5  6  1  0
  7  6  2  0
  8  7  1  0
  9  4  1  0
  9  8  2  0
 10  2  1  0
 10 11  2  0
 12 10  1  0
 13 12  1  0
 13 14  1  6
 14 15  1  0
 15 16  1  0
 17 16  1  0
 18 17  1  0
 19 13  1  0
 20 19  2  0
 22 21  1  1
 23 22  1  0
 24 22  1  0
 24 25  1  6
 25 19  1  0
 26 28  1  0
 26 24  1  0
 27 26  2  0
M  END
$$$$
