FKV.pdb
     RDKit          3D

 28 28  0  0  1  0  0  0  0  0999 V2000
    5.4580  -17.6846   25.3113 N   0  0  0  0  0  0  0  0  0  0  0  0
    6.0366  -16.3566   25.1860 C   0  0  1  0  0  0  0  0  0  0  0  0
    6.4569  -15.9141   26.5399 C   0  0  0  0  0  0  0  0  0  0  0  0
    6.8357  -14.5193   26.6830 C   0  0  0  0  0  0  0  0  0  0  0  0
    8.1876  -14.2332   26.8337 C   0  0  0  0  0  0  0  0  0  0  0  0
    8.6347  -12.9415   26.9742 C   0  0  0  0  0  0  0  0  0  0  0  0
    7.7610  -11.8921   26.9704 C   0  0  0  0  0  0  0  0  0  0  0  0
    6.4194  -12.1558   26.8225 C   0  0  0  0  0  0  0  0  0  0  0  0
    5.9786  -13.4491   26.6824 C   0  0  0  0  0  0  0  0  0  0  0  0
    7.1524  -16.3558   24.1858 C   0  0  0  0  0  0  0  0  0  0  0  0
    7.9757  -17.2979   24.1689 O   0  0  0  0  0  0  0  0  0  0  0  0
    7.3345  -15.3381   23.2440 N   0  0  0  0  0  0  0  0  0  0  0  0
    8.2892  -15.1220   22.2416 C   0  0  1  0  0  0  0  0  0  0  0  0
    8.1931  -13.9467   21.3273 C   0  0  0  0  0  0  0  0  0  0  0  0
    7.5436  -14.2657   20.0099 C   0  0  0  0  0  0  0  0  0  0  0  0
    7.6615  -13.1140   19.0286 C   0  0  0  0  0  0  0  0  0  0  0  0
    8.6178  -13.5735   17.9246 C   0  0  0  0  0  0  0  0  0  0  0  0
    7.9531  -14.5025   17.0469 N   0  0  0  0  0  0  0  0  0  0  0  0
    9.6427  -15.3290   22.7537 C   0  0  0  0  0  0  0  0  0  0  0  0
   10.0096  -14.6601   23.7759 O   0  0  0  0  0  0  0  0  0  0  0  0
   11.6535  -18.8901   22.6742 C   0  0  0  0  0  0  0  0  0  0  0  0
   11.9734  -17.7348   23.5602 C   0  0  1  0  0  0  0  0  0  0  0  0
   13.3167  -17.9738   24.2042 C   0  0  0  0  0  0  0  0  0  0  0  0
   11.9213  -16.4065   22.8439 C   0  0  2  0  0  0  0  0  0  0  0  0
   10.6200  -16.2084   22.2349 N   0  0  0  0  0  0  0  0  0  0  0  0
   13.0104  -16.2224   21.8873 C   0  0  0  0  0  0  0  0  0  0  0  0
   12.9047  -16.3623   20.6446 O   0  0  0  0  0  0  0  0  0  0  0  0
   14.2904  -15.8612   22.3488 O   0  0  0  0  0  0  0  0  0  0  0  0
  2  1  1  1
  3  4  1  0
  3  2  1  0
  4  5  2  0
  5  6  1  0
  7  6  2  0
  8  7  1  0
  9  4  1  0
  9  8  2  0
 10  2  1  0
 10 11  2  0
 12 10  1  0
 13 12  1  0
 13 14  1  1
 14 15  1  0
 15 16  1  0
 17 16  1  0
 18 17  1  0
 19 13  1  0
 20 19  2  0
 22 21  1  6
 23 22  1  0
 24 22  1  0
 24 25  1  6
 25 19  1  0
 26 28  1  0
 26 24  1  0
 27 26  2  0
M  END
$$$$
