FKV.pdb
     RDKit          3D

 28 28  0  0  1  0  0  0  0  0999 V2000
    5.4296  -17.6289   24.2837 N   0  0  0  0  0  0  0  0  0  0  0  0
    6.3946  -16.5558   24.4610 C   0  0  1  0  0  0  0  0  0  0  0  0
    5.9747  -15.7568   25.6404 C   0  0  0  0  0  0  0  0  0  0  0  0
    6.2129  -14.3255   25.5781 C   0  0  0  0  0  0  0  0  0  0  0  0
    7.1348  -13.8680   24.6437 C   0  0  0  0  0  0  0  0  0  0  0  0
    7.4205  -12.5300   24.5156 C   0  0  0  0  0  0  0  0  0  0  0  0
    6.8050  -11.6022   25.3061 C   0  0  0  0  0  0  0  0  0  0  0  0
    5.8898  -12.0362   26.2364 C   0  0  0  0  0  0  0  0  0  0  0  0
    5.6084  -13.3749   26.3597 C   0  0  0  0  0  0  0  0  0  0  0  0
    7.7839  -17.1049   24.5772 C   0  0  0  0  0  0  0  0  0  0  0  0
    8.0410  -17.9741   25.4398 O   0  0  0  0  0  0  0  0  0  0  0  0
    8.8399  -16.6936   23.7576 N   0  0  0  0  0  0  0  0  0  0  0  0
   10.2263  -16.8874   23.8143 C   0  0  1  0  0  0  0  0  0  0  0  0
   11.0899  -16.6223   22.6267 C   0  0  0  0  0  0  0  0  0  0  0  0
   12.5092  -17.0842   22.8046 C   0  0  0  0  0  0  0  0  0  0  0  0
   13.3462  -16.8274   21.5648 C   0  0  0  0  0  0  0  0  0  0  0  0
   14.6906  -17.5249   21.7901 C   0  0  0  0  0  0  0  0  0  0  0  0
   15.5553  -17.3137   20.6575 N   0  0  0  0  0  0  0  0  0  0  0  0
   10.7820  -16.3379   25.0498 C   0  0  0  0  0  0  0  0  0  0  0  0
   11.5746  -15.3422   24.9641 O   0  0  0  0  0  0  0  0  0  0  0  0
   10.5183  -14.6716   29.4791 C   0  0  0  0  0  0  0  0  0  0  0  0
   10.0768  -15.2245   28.1670 C   0  0  1  0  0  0  0  0  0  0  0  0
    9.7318  -14.0787   27.2483 C   0  0  0  0  0  0  0  0  0  0  0  0
   11.0889  -16.1579   27.5467 C   0  0  2  0  0  0  0  0  0  0  0  0
   10.5371  -16.7929   26.3653 N   0  0  0  0  0  0  0  0  0  0  0  0
   11.6331  -17.1308   28.4912 C   0  0  0  0  0  0  0  0  0  0  0  0
   11.2068  -18.3018   28.6400 O   0  0  0  0  0  0  0  0  0  0  0  0
   12.7163  -16.7719   29.3158 O   0  0  0  0  0  0  0  0  0  0  0  0
  2  1  1  1
  3  4  1  0
  3  2  1  0
  4  5  2  0
  5  6  1  0
  7  6  2  0
  8  7  1  0
  9  4  1  0
  9  8  2  0
 10  2  1  0
 10 11  2  0
 12 10  1  0
 13 12  1  0
 13 14  1  6
 14 15  1  0
 15 16  1  0
 17 16  1  0
 18 17  1  0
 19 13  1  0
 20 19  2  0
 22 21  1  1
 23 22  1  0
 24 22  1  0
 24 25  1  6
 25 19  1  0
 26 28  1  0
 26 24  1  0
 27 26  2  0
M  END
$$$$
