FKV.pdb
     RDKit          3D

 28 28  0  0  1  0  0  0  0  0999 V2000
    5.7277  -17.8411   24.3817 N   0  0  0  0  0  0  0  0  0  0  0  0
    6.4929  -16.6092   24.4863 C   0  0  1  0  0  0  0  0  0  0  0  0
    6.1359  -15.9600   25.7735 C   0  0  0  0  0  0  0  0  0  0  0  0
    6.3947  -14.5348   25.8802 C   0  0  0  0  0  0  0  0  0  0  0  0
    5.2960  -13.6860   25.9475 C   0  0  0  0  0  0  0  0  0  0  0  0
    5.4486  -12.3243   26.0509 C   0  0  0  0  0  0  0  0  0  0  0  0
    6.6907  -11.7583   26.0909 C   0  0  0  0  0  0  0  0  0  0  0  0
    7.7897  -12.5825   26.0253 C   0  0  0  0  0  0  0  0  0  0  0  0
    7.6307  -13.9429   25.9221 C   0  0  0  0  0  0  0  0  0  0  0  0
    7.9595  -16.8812   24.3428 C   0  0  0  0  0  0  0  0  0  0  0  0
    8.4646  -17.8848   24.8935 O   0  0  0  0  0  0  0  0  0  0  0  0
    8.8218  -16.0589   23.6105 N   0  0  0  0  0  0  0  0  0  0  0  0
   10.2086  -16.0633   23.4118 C   0  0  1  0  0  0  0  0  0  0  0  0
   10.8266  -15.3121   22.2803 C   0  0  0  0  0  0  0  0  0  0  0  0
   10.2736  -15.6945   20.9360 C   0  0  0  0  0  0  0  0  0  0  0  0
   10.4122  -17.1824   20.6708 C   0  0  0  0  0  0  0  0  0  0  0  0
    9.9726  -17.4134   19.2224 C   0  0  0  0  0  0  0  0  0  0  0  0
   10.0835  -18.8099   18.8867 N   0  0  0  0  0  0  0  0  0  0  0  0
   10.9195  -15.8672   24.6741 C   0  0  0  0  0  0  0  0  0  0  0  0
   11.8666  -15.0135   24.7066 O   0  0  0  0  0  0  0  0  0  0  0  0
    9.3458  -14.4346   27.4355 C   0  0  0  0  0  0  0  0  0  0  0  0
   10.8206  -14.6512   27.4346 C   0  0  1  0  0  0  0  0  0  0  0  0
   11.3865  -14.1474   28.7393 C   0  0  0  0  0  0  0  0  0  0  0  0
   11.2086  -16.0864   27.1700 C   0  0  2  0  0  0  0  0  0  0  0  0
   10.6734  -16.5310   25.8975 N   0  0  0  0  0  0  0  0  0  0  0  0
   10.8559  -16.9913   28.2617 C   0  0  0  0  0  0  0  0  0  0  0  0
    9.8416  -17.7301   28.2815 O   0  0  0  0  0  0  0  0  0  0  0  0
   11.6864  -17.0733   29.3955 O   0  0  0  0  0  0  0  0  0  0  0  0
  2  1  1  1
  3  4  1  0
  3  2  1  0
  4  5  2  0
  5  6  1  0
  7  6  2  0
  8  7  1  0
  9  4  1  0
  9  8  2  0
 10  2  1  0
 10 11  2  0
 12 10  1  0
 13 12  1  0
 13 14  1  6
 14 15  1  0
 15 16  1  0
 17 16  1  0
 18 17  1  0
 19 13  1  0
 20 19  2  0
 22 21  1  1
 23 22  1  0
 24 22  1  0
 24 25  1  6
 25 19  1  0
 26 28  1  0
 26 24  1  0
 27 26  2  0
M  END
$$$$
