FKV.pdb
     RDKit          3D

 28 28  0  0  1  0  0  0  0  0999 V2000
    5.3676  -17.6264   22.1332 N   0  0  0  0  0  0  0  0  0  0  0  0
    6.5457  -16.7763   22.0732 C   0  0  1  0  0  0  0  0  0  0  0  0
    6.0932  -15.3648   22.1660 C   0  0  0  0  0  0  0  0  0  0  0  0
    6.9407  -14.3647   21.5407 C   0  0  0  0  0  0  0  0  0  0  0  0
    6.6467  -14.0017   20.2314 C   0  0  0  0  0  0  0  0  0  0  0  0
    7.3955  -13.0628   19.5635 C   0  0  0  0  0  0  0  0  0  0  0  0
    8.4577  -12.4532   20.1674 C   0  0  0  0  0  0  0  0  0  0  0  0
    8.7637  -12.7997   21.4627 C   0  0  0  0  0  0  0  0  0  0  0  0
    8.0115  -13.7388   22.1251 C   0  0  0  0  0  0  0  0  0  0  0  0
    7.5302  -17.1575   23.1365 C   0  0  0  0  0  0  0  0  0  0  0  0
    7.1769  -17.1741   24.3367 O   0  0  0  0  0  0  0  0  0  0  0  0
    8.8566  -17.5054   22.8615 N   0  0  0  0  0  0  0  0  0  0  0  0
    9.9781  -17.7173   23.6740 C   0  0  1  0  0  0  0  0  0  0  0  0
   11.2320  -18.3044   23.1175 C   0  0  0  0  0  0  0  0  0  0  0  0
   12.2052  -18.7469   24.1742 C   0  0  0  0  0  0  0  0  0  0  0  0
   13.4718  -19.3240   23.5693 C   0  0  0  0  0  0  0  0  0  0  0  0
   13.8156  -20.5759   24.3813 C   0  0  0  0  0  0  0  0  0  0  0  0
   14.1251  -20.2159   25.7414 N   0  0  0  0  0  0  0  0  0  0  0  0
   10.2293  -16.5609   24.5324 C   0  0  0  0  0  0  0  0  0  0  0  0
   10.7568  -15.5244   24.0088 O   0  0  0  0  0  0  0  0  0  0  0  0
    8.1174  -14.3625   26.7032 C   0  0  0  0  0  0  0  0  0  0  0  0
    9.5759  -14.1240   26.5079 C   0  0  1  0  0  0  0  0  0  0  0  0
   10.0035  -12.9784   27.3917 C   0  0  0  0  0  0  0  0  0  0  0  0
   10.4146  -15.3579   26.7413 C   0  0  2  0  0  0  0  0  0  0  0  0
    9.9479  -16.4534   25.9133 N   0  0  0  0  0  0  0  0  0  0  0  0
   10.5096  -15.7344   28.1499 C   0  0  0  0  0  0  0  0  0  0  0  0
   10.9627  -14.9985   29.0599 O   0  0  0  0  0  0  0  0  0  0  0  0
   10.0722  -17.0074   28.5626 O   0  0  0  0  0  0  0  0  0  0  0  0
  2  1  1  1
  3  4  1  0
  3  2  1  0
  4  5  2  0
  5  6  1  0
  7  6  2  0
  8  7  1  0
  9  4  1  0
  9  8  2  0
 10  2  1  0
 10 11  2  0
 12 10  1  0
 13 12  1  0
 13 14  1  6
 14 15  1  0
 15 16  1  0
 17 16  1  0
 18 17  1  0
 19 13  1  0
 20 19  2  0
 22 21  1  1
 23 22  1  0
 24 22  1  0
 24 25  1  6
 25 19  1  0
 26 28  1  0
 26 24  1  0
 27 26  2  0
M  END
$$$$
