AHR.pdb
     RDKit          3D

 27 27  0  0  1  0  0  0  0  0999 V2000
    7.5823  -14.9695   16.4774 C   0  0  0  0  0  0  0  0  0  0  0  0
    7.8826  -13.7009   17.2469 C   0  0  2  0  0  0  0  0  0  0  0  0
    8.4213  -12.6682   16.3857 N   0  0  0  0  0  0  0  0  0  0  0  0
    8.8416  -13.9461   18.3450 C   0  0  0  0  0  0  0  0  0  0  0  0
   10.0883  -13.8648   18.1955 O   0  0  0  0  0  0  0  0  0  0  0  0
    8.3515  -14.2883   19.6270 N   0  0  0  0  0  0  0  0  0  0  0  0
    9.2149  -14.6403   20.7357 C   0  0  1  0  0  0  0  0  0  0  0  0
    8.3704  -14.6174   21.9839 C   0  0  0  0  0  0  0  0  0  0  0  0
    9.0589  -14.9849   23.2098 C   0  0  0  0  0  0  0  0  0  0  0  0
   10.3571  -15.4008   23.3288 C   0  0  0  0  0  0  0  0  0  0  0  0
   10.5963  -15.6352   24.6245 N   0  0  0  0  0  0  0  0  0  0  0  0
    9.4761  -15.3728   25.3024 C   0  0  0  0  0  0  0  0  0  0  0  0
    8.5383  -14.9766   24.4437 N   0  0  0  0  0  0  0  0  0  0  0  0
    9.9025  -15.8921   20.4564 C   0  0  0  0  0  0  0  0  0  0  0  0
    9.4324  -16.6617   19.5629 O   0  0  0  0  0  0  0  0  0  0  0  0
   16.1343  -15.5809   16.1560 N   0  0  0  0  0  0  0  0  0  0  0  0
   15.4314  -14.6303   16.9422 C   0  0  0  0  0  0  0  0  0  0  0  0
   15.5099  -13.3814   16.6712 N   0  0  0  0  0  0  0  0  0  0  0  0
   14.6216  -15.0166   18.0482 N   0  0  0  0  0  0  0  0  0  0  0  0
   14.6785  -16.3908   18.5039 C   0  0  0  0  0  0  0  0  0  0  0  0
   13.8750  -16.5831   19.7674 C   0  0  0  0  0  0  0  0  0  0  0  0
   12.6736  -17.4519   19.5958 C   0  0  0  0  0  0  0  0  0  0  0  0
   11.7941  -17.5584   20.8241 C   0  0  2  0  0  0  0  0  0  0  0  0
   11.0790  -16.3481   21.1003 N   0  0  0  0  0  0  0  0  0  0  0  0
   12.6866  -17.9547   21.9421 C   0  0  0  0  0  0  0  0  0  0  0  0
   12.8377  -17.1543   22.8900 O   0  0  0  0  0  0  0  0  0  0  0  0
   13.3506  -19.1655   21.9728 O   0  0  0  0  0  0  0  0  0  0  0  0
  2  3  1  0
  2  1  1  6
  4  2  1  0
  5  4  2  0
  6  4  1  0
  7  6  1  0
  7  8  1  1
  8  9  1  0
  9 13  1  0
 10  9  2  0
 10 11  1  0
 11 12  1  0
 13 12  2  0
 14  7  1  0
 14 15  2  0
 16 17  1  0
 17 18  2  0
 19 17  1  0
 19 20  1  0
 20 21  1  0
 22 21  1  0
 23 22  1  6
 23 24  1  0
 24 14  1  0
 25 27  1  0
 25 23  1  0
 26 25  2  0
M  END
$$$$
