AHR.pdb
     RDKit          3D

 27 27  0  0  1  0  0  0  0  0999 V2000
    4.4086  -19.3771   21.5740 C   0  0  0  0  0  0  0  0  0  0  0  0
    5.0115  -18.3776   20.6101 C   0  0  2  0  0  0  0  0  0  0  0  0
    5.3193  -18.9861   19.3321 N   0  0  0  0  0  0  0  0  0  0  0  0
    6.2469  -17.7752   21.1546 C   0  0  0  0  0  0  0  0  0  0  0  0
    7.3660  -18.3484   21.1072 O   0  0  0  0  0  0  0  0  0  0  0  0
    6.1847  -16.4980   21.7592 N   0  0  0  0  0  0  0  0  0  0  0  0
    7.3227  -15.8689   22.3976 C   0  0  1  0  0  0  0  0  0  0  0  0
    7.1137  -14.3785   22.3145 C   0  0  0  0  0  0  0  0  0  0  0  0
    7.5736  -13.7514   21.0868 C   0  0  0  0  0  0  0  0  0  0  0  0
    8.2391  -14.3566   20.0557 C   0  0  0  0  0  0  0  0  0  0  0  0
    8.4757  -13.4302   19.1194 N   0  0  0  0  0  0  0  0  0  0  0  0
    7.9712  -12.2718   19.5518 C   0  0  0  0  0  0  0  0  0  0  0  0
    7.4212  -12.4643   20.7495 N   0  0  0  0  0  0  0  0  0  0  0  0
    7.5088  -16.4109   23.7353 C   0  0  0  0  0  0  0  0  0  0  0  0
    6.5297  -16.3945   24.5432 O   0  0  0  0  0  0  0  0  0  0  0  0
    5.9853  -22.4957   23.7245 N   0  0  0  0  0  0  0  0  0  0  0  0
    5.9684  -22.6951   25.1301 C   0  0  0  0  0  0  0  0  0  0  0  0
    5.0111  -23.3435   25.6804 N   0  0  0  0  0  0  0  0  0  0  0  0
    6.9974  -22.1916   25.9762 N   0  0  0  0  0  0  0  0  0  0  0  0
    8.0636  -21.4101   25.3832 C   0  0  0  0  0  0  0  0  0  0  0  0
    8.0879  -20.0061   25.9376 C   0  0  0  0  0  0  0  0  0  0  0  0
    9.1316  -19.1311   25.3273 C   0  0  0  0  0  0  0  0  0  0  0  0
    8.8811  -17.6463   25.4903 C   0  0  2  0  0  0  0  0  0  0  0  0
    8.7082  -16.9728   24.2377 N   0  0  0  0  0  0  0  0  0  0  0  0
   10.0299  -17.1129   26.2645 C   0  0  0  0  0  0  0  0  0  0  0  0
   10.8072  -16.3165   25.6956 O   0  0  0  0  0  0  0  0  0  0  0  0
   10.2692  -17.4617   27.5794 O   0  0  0  0  0  0  0  0  0  0  0  0
  2  3  1  0
  2  1  1  1
  4  2  1  0
  5  4  2  0
  6  4  1  0
  7  6  1  0
  7  8  1  1
  8  9  1  0
  9 13  1  0
 10  9  2  0
 10 11  1  0
 11 12  1  0
 13 12  2  0
 14  7  1  0
 14 15  2  0
 16 17  1  0
 17 18  2  0
 19 17  1  0
 19 20  1  0
 20 21  1  0
 22 21  1  0
 23 22  1  6
 23 24  1  0
 24 14  1  0
 25 27  1  0
 25 23  1  0
 26 25  2  0
M  END
$$$$
