AHR.pdb
     RDKit          3D

 27 27  0  0  1  0  0  0  0  0999 V2000
    7.4762  -12.4182   19.4144 C   0  0  0  0  0  0  0  0  0  0  0  0
    8.0403  -13.6917   18.8216 C   0  0  2  0  0  0  0  0  0  0  0  0
    7.1092  -14.3111   17.9008 N   0  0  0  0  0  0  0  0  0  0  0  0
    8.3866  -14.6727   19.8722 C   0  0  0  0  0  0  0  0  0  0  0  0
    7.5862  -15.5569   20.2732 O   0  0  0  0  0  0  0  0  0  0  0  0
    9.6711  -14.6283   20.4628 N   0  0  0  0  0  0  0  0  0  0  0  0
   10.1563  -15.6414   21.3776 C   0  0  1  0  0  0  0  0  0  0  0  0
   11.6575  -15.6779   21.2478 C   0  0  0  0  0  0  0  0  0  0  0  0
   12.3361  -16.6241   22.1174 C   0  0  0  0  0  0  0  0  0  0  0  0
   12.6132  -16.4631   23.4477 C   0  0  0  0  0  0  0  0  0  0  0  0
   13.2436  -17.5645   23.8723 N   0  0  0  0  0  0  0  0  0  0  0  0
   13.3593  -18.3968   22.8344 C   0  0  0  0  0  0  0  0  0  0  0  0
   12.8076  -17.8268   21.7644 N   0  0  0  0  0  0  0  0  0  0  0  0
    9.6398  -15.3958   22.7158 C   0  0  0  0  0  0  0  0  0  0  0  0
    9.1723  -14.2477   22.9894 O   0  0  0  0  0  0  0  0  0  0  0  0
    5.2442  -20.4535   23.4421 N   0  0  0  0  0  0  0  0  0  0  0  0
    5.8023  -20.9153   24.6632 C   0  0  0  0  0  0  0  0  0  0  0  0
    5.2579  -21.8849   25.2979 N   0  0  0  0  0  0  0  0  0  0  0  0
    6.9723  -20.3309   25.2270 N   0  0  0  0  0  0  0  0  0  0  0  0
    7.4670  -19.0894   24.6672 C   0  0  0  0  0  0  0  0  0  0  0  0
    7.1853  -17.9238   25.5843 C   0  0  0  0  0  0  0  0  0  0  0  0
    7.4835  -16.5916   24.9810 C   0  0  0  0  0  0  0  0  0  0  0  0
    8.9427  -16.1899   25.0338 C   0  0  2  0  0  0  0  0  0  0  0  0
    9.6046  -16.3391   23.7720 N   0  0  0  0  0  0  0  0  0  0  0  0
    9.5639  -17.0169   26.0986 C   0  0  0  0  0  0  0  0  0  0  0  0
   10.4414  -17.8435   25.7688 O   0  0  0  0  0  0  0  0  0  0  0  0
    9.2106  -16.9071   27.4294 O   0  0  0  0  0  0  0  0  0  0  0  0
  2  3  1  0
  2  1  1  1
  4  2  1  0
  5  4  2  0
  6  4  1  0
  7  6  1  0
  7  8  1  1
  8  9  1  0
  9 13  1  0
 10  9  2  0
 10 11  1  0
 11 12  1  0
 13 12  2  0
 14  7  1  0
 14 15  2  0
 16 17  1  0
 17 18  2  0
 19 17  1  0
 19 20  1  0
 20 21  1  0
 22 21  1  0
 23 22  1  6
 23 24  1  0
 24 14  1  0
 25 27  1  0
 25 23  1  0
 26 25  2  0
M  END
$$$$
