AHR.pdb
     RDKit          3D

 27 27  0  0  1  0  0  0  0  0999 V2000
    9.3053  -20.7332   18.5710 C   0  0  0  0  0  0  0  0  0  0  0  0
    9.4443  -19.5531   17.6331 C   0  0  2  0  0  0  0  0  0  0  0  0
   10.5058  -19.7586   16.6690 N   0  0  0  0  0  0  0  0  0  0  0  0
    9.7148  -18.3014   18.3717 C   0  0  0  0  0  0  0  0  0  0  0  0
   10.8713  -17.9488   18.7202 O   0  0  0  0  0  0  0  0  0  0  0  0
    8.6359  -17.4512   18.7093 N   0  0  0  0  0  0  0  0  0  0  0  0
    8.7974  -16.2386   19.4852 C   0  0  1  0  0  0  0  0  0  0  0  0
    7.7391  -15.2693   19.0241 C   0  0  0  0  0  0  0  0  0  0  0  0
    7.7506  -13.9736   19.6820 C   0  0  0  0  0  0  0  0  0  0  0  0
    8.2785  -12.8097   19.1931 C   0  0  0  0  0  0  0  0  0  0  0  0
    8.0787  -11.8523   20.1065 N   0  0  0  0  0  0  0  0  0  0  0  0
    7.4411  -12.4014   21.1435 C   0  0  0  0  0  0  0  0  0  0  0  0
    7.2400  -13.6930   20.8878 N   0  0  0  0  0  0  0  0  0  0  0  0
    8.7976  -16.5505   20.9067 C   0  0  0  0  0  0  0  0  0  0  0  0
    8.2969  -17.6519   21.2909 O   0  0  0  0  0  0  0  0  0  0  0  0
    6.2768  -21.0106   26.6052 N   0  0  0  0  0  0  0  0  0  0  0  0
    7.1331  -20.2293   27.4251 C   0  0  0  0  0  0  0  0  0  0  0  0
    7.2147  -20.4612   28.6817 N   0  0  0  0  0  0  0  0  0  0  0  0
    7.9256  -19.1710   26.8958 N   0  0  0  0  0  0  0  0  0  0  0  0
    7.7517  -18.8017   25.5056 C   0  0  0  0  0  0  0  0  0  0  0  0
    8.5821  -17.5916   25.1518 C   0  0  0  0  0  0  0  0  0  0  0  0
    8.4937  -17.1942   23.7159 C   0  0  0  0  0  0  0  0  0  0  0  0
    9.3777  -16.0262   23.3312 C   0  0  2  0  0  0  0  0  0  0  0  0
    9.3180  -15.7234   21.9322 N   0  0  0  0  0  0  0  0  0  0  0  0
   10.7497  -16.3788   23.7747 C   0  0  0  0  0  0  0  0  0  0  0  0
   11.2538  -17.4405   23.3495 O   0  0  0  0  0  0  0  0  0  0  0  0
   11.4834  -15.5833   24.6330 O   0  0  0  0  0  0  0  0  0  0  0  0
  2  3  1  0
  2  1  1  1
  4  2  1  0
  5  4  2  0
  6  4  1  0
  7  6  1  0
  7  8  1  1
  8  9  1  0
  9 13  1  0
 10  9  2  0
 10 11  1  0
 11 12  1  0
 13 12  2  0
 14  7  1  0
 14 15  2  0
 16 17  1  0
 17 18  2  0
 19 17  1  0
 19 20  1  0
 20 21  1  0
 22 21  1  0
 23 22  1  6
 23 24  1  0
 24 14  1  0
 25 27  1  0
 25 23  1  0
 26 25  2  0
M  END
$$$$
