AHR.pdb
     RDKit          3D

 27 27  0  0  1  0  0  0  0  0999 V2000
    8.6179  -20.2578   16.7963 C   0  0  0  0  0  0  0  0  0  0  0  0
    8.6518  -18.7461   16.7257 C   0  0  2  0  0  0  0  0  0  0  0  0
    9.3436  -18.2816   15.5407 N   0  0  0  0  0  0  0  0  0  0  0  0
    9.3089  -18.1616   17.9141 C   0  0  0  0  0  0  0  0  0  0  0  0
   10.5560  -18.1717   18.0806 O   0  0  0  0  0  0  0  0  0  0  0  0
    8.5139  -17.5606   18.9178 N   0  0  0  0  0  0  0  0  0  0  0  0
    9.0733  -16.8756   20.0651 C   0  0  1  0  0  0  0  0  0  0  0  0
    7.9959  -15.9783   20.6183 C   0  0  0  0  0  0  0  0  0  0  0  0
    7.7712  -14.7459   19.8817 C   0  0  0  0  0  0  0  0  0  0  0  0
    8.4273  -14.3325   18.7543 C   0  0  0  0  0  0  0  0  0  0  0  0
    7.9185  -13.1484   18.3937 N   0  0  0  0  0  0  0  0  0  0  0  0
    6.9664  -12.8262   19.2729 C   0  0  0  0  0  0  0  0  0  0  0  0
    6.8744  -13.7970   20.1801 N   0  0  0  0  0  0  0  0  0  0  0  0
    9.6378  -17.8400   20.9973 C   0  0  0  0  0  0  0  0  0  0  0  0
    9.0007  -18.9138   21.2266 O   0  0  0  0  0  0  0  0  0  0  0  0
   17.7617  -21.0150   22.4273 N   0  0  0  0  0  0  0  0  0  0  0  0
   16.7797  -21.9060   22.9349 C   0  0  0  0  0  0  0  0  0  0  0  0
   17.0929  -23.1099   23.2381 N   0  0  0  0  0  0  0  0  0  0  0  0
   15.4259  -21.5075   23.1263 N   0  0  0  0  0  0  0  0  0  0  0  0
   15.0453  -20.1530   22.7802 C   0  0  0  0  0  0  0  0  0  0  0  0
   13.6072  -19.8769   23.1470 C   0  0  0  0  0  0  0  0  0  0  0  0
   12.9384  -18.8745   22.2664 C   0  0  0  0  0  0  0  0  0  0  0  0
   11.4713  -18.6513   22.5689 C   0  0  2  0  0  0  0  0  0  0  0  0
   10.8639  -17.6951   21.6919 N   0  0  0  0  0  0  0  0  0  0  0  0
   11.3981  -18.2381   23.9928 C   0  0  0  0  0  0  0  0  0  0  0  0
   11.7739  -19.0513   24.8643 O   0  0  0  0  0  0  0  0  0  0  0  0
   10.9337  -16.9983   24.3864 O   0  0  0  0  0  0  0  0  0  0  0  0
  2  3  1  0
  2  1  1  1
  4  2  1  0
  5  4  2  0
  6  4  1  0
  7  6  1  0
  7  8  1  1
  8  9  1  0
  9 13  1  0
 10  9  2  0
 10 11  1  0
 11 12  1  0
 13 12  2  0
 14  7  1  0
 14 15  2  0
 16 17  1  0
 17 18  2  0
 19 17  1  0
 19 20  1  0
 20 21  1  0
 22 21  1  0
 23 22  1  6
 23 24  1  0
 24 14  1  0
 25 27  1  0
 25 23  1  0
 26 25  2  0
M  END
$$$$
