AHR.pdb
     RDKit          3D

 27 27  0  0  1  0  0  0  0  0999 V2000
    6.1893  -19.0871   18.5656 C   0  0  0  0  0  0  0  0  0  0  0  0
    6.5873  -18.7051   19.9752 C   0  0  2  0  0  0  0  0  0  0  0  0
    5.4992  -18.0612   20.6822 N   0  0  0  0  0  0  0  0  0  0  0  0
    7.7553  -17.7987   19.9828 C   0  0  0  0  0  0  0  0  0  0  0  0
    8.7788  -17.9957   19.2778 O   0  0  0  0  0  0  0  0  0  0  0  0
    7.7370  -16.6546   20.8144 N   0  0  0  0  0  0  0  0  0  0  0  0
    8.8781  -15.7774   20.9778 C   0  0  1  0  0  0  0  0  0  0  0  0
    8.3977  -14.3698   20.7331 C   0  0  0  0  0  0  0  0  0  0  0  0
    8.1376  -14.0321   19.3438 C   0  0  0  0  0  0  0  0  0  0  0  0
    7.1042  -13.2750   18.8630 C   0  0  0  0  0  0  0  0  0  0  0  0
    7.2315  -13.2033   17.5328 N   0  0  0  0  0  0  0  0  0  0  0  0
    8.3182  -13.8982   17.1867 C   0  0  0  0  0  0  0  0  0  0  0  0
    8.8720  -14.4040   18.2874 N   0  0  0  0  0  0  0  0  0  0  0  0
    9.5133  -16.0174   22.2650 C   0  0  0  0  0  0  0  0  0  0  0  0
    9.2037  -15.2752   23.2473 O   0  0  0  0  0  0  0  0  0  0  0  0
   11.2899  -19.7073   29.8474 N   0  0  0  0  0  0  0  0  0  0  0  0
   12.1014  -19.7944   28.6857 C   0  0  0  0  0  0  0  0  0  0  0  0
   12.9502  -20.7446   28.5588 N   0  0  0  0  0  0  0  0  0  0  0  0
   12.0093  -18.8453   27.6279 N   0  0  0  0  0  0  0  0  0  0  0  0
   11.3718  -19.2452   26.3898 C   0  0  0  0  0  0  0  0  0  0  0  0
   12.2833  -19.0227   25.2071 C   0  0  0  0  0  0  0  0  0  0  0  0
   11.5633  -18.7228   23.9346 C   0  0  0  0  0  0  0  0  0  0  0  0
   11.1108  -17.2846   23.7920 C   0  0  2  0  0  0  0  0  0  0  0  0
   10.4682  -17.0275   22.5377 N   0  0  0  0  0  0  0  0  0  0  0  0
   12.3200  -16.4463   23.9894 C   0  0  0  0  0  0  0  0  0  0  0  0
   12.9361  -16.0500   22.9768 O   0  0  0  0  0  0  0  0  0  0  0  0
   12.7850  -16.0913   25.2406 O   0  0  0  0  0  0  0  0  0  0  0  0
  2  3  1  0
  2  1  1  6
  4  2  1  0
  5  4  2  0
  6  4  1  0
  7  6  1  0
  7  8  1  1
  8  9  1  0
  9 13  1  0
 10  9  2  0
 10 11  1  0
 11 12  1  0
 13 12  2  0
 14  7  1  0
 14 15  2  0
 16 17  1  0
 17 18  2  0
 19 17  1  0
 19 20  1  0
 20 21  1  0
 22 21  1  0
 23 22  1  6
 23 24  1  0
 24 14  1  0
 25 27  1  0
 25 23  1  0
 26 25  2  0
M  END
$$$$
