AHR.pdb
     RDKit          3D

 27 27  0  0  1  0  0  0  0  0999 V2000
   10.8312  -17.2014   18.1868 C   0  0  0  0  0  0  0  0  0  0  0  0
   10.2294  -17.7986   19.4408 C   0  0  2  0  0  0  0  0  0  0  0  0
    8.9854  -18.4864   19.1617 N   0  0  0  0  0  0  0  0  0  0  0  0
    9.9759  -16.7648   20.4669 C   0  0  0  0  0  0  0  0  0  0  0  0
   10.8921  -16.0736   20.9826 O   0  0  0  0  0  0  0  0  0  0  0  0
    8.6495  -16.5303   20.8988 N   0  0  0  0  0  0  0  0  0  0  0  0
    8.2887  -15.4505   21.7945 C   0  0  1  0  0  0  0  0  0  0  0  0
    7.1191  -14.7289   21.1755 C   0  0  0  0  0  0  0  0  0  0  0  0
    7.3893  -14.0785   19.9043 C   0  0  0  0  0  0  0  0  0  0  0  0
    7.9001  -12.8230   19.7171 C   0  0  0  0  0  0  0  0  0  0  0  0
    7.9958  -12.6105   18.3993 N   0  0  0  0  0  0  0  0  0  0  0  0
    7.5561  -13.7057   17.7743 C   0  0  0  0  0  0  0  0  0  0  0  0
    7.1861  -14.6012   18.6881 N   0  0  0  0  0  0  0  0  0  0  0  0
    8.0782  -15.9653   23.1394 C   0  0  0  0  0  0  0  0  0  0  0  0
    7.0176  -16.6181   23.3850 O   0  0  0  0  0  0  0  0  0  0  0  0
   14.0465  -20.5742   24.3906 N   0  0  0  0  0  0  0  0  0  0  0  0
   13.1325  -21.5151   24.9339 C   0  0  0  0  0  0  0  0  0  0  0  0
   13.5157  -22.7057   25.2080 N   0  0  0  0  0  0  0  0  0  0  0  0
   11.7723  -21.1826   25.1936 N   0  0  0  0  0  0  0  0  0  0  0  0
   11.1280  -20.1908   24.3567 C   0  0  0  0  0  0  0  0  0  0  0  0
   11.1056  -18.8385   25.0275 C   0  0  0  0  0  0  0  0  0  0  0  0
   10.4342  -17.7744   24.2247 C   0  0  0  0  0  0  0  0  0  0  0  0
    9.5425  -16.8498   25.0271 C   0  0  2  0  0  0  0  0  0  0  0  0
    8.9667  -15.8069   24.2313 N   0  0  0  0  0  0  0  0  0  0  0  0
   10.3797  -16.3199   26.1325 C   0  0  0  0  0  0  0  0  0  0  0  0
   10.9268  -15.2068   25.9783 O   0  0  0  0  0  0  0  0  0  0  0  0
   10.5744  -17.0062   27.3152 O   0  0  0  0  0  0  0  0  0  0  0  0
  2  3  1  0
  2  1  1  6
  4  2  1  0
  5  4  2  0
  6  4  1  0
  7  6  1  0
  7  8  1  6
  8  9  1  0
  9 13  1  0
 10  9  2  0
 10 11  1  0
 11 12  1  0
 13 12  2  0
 14  7  1  0
 14 15  2  0
 16 17  1  0
 17 18  2  0
 19 17  1  0
 19 20  1  0
 20 21  1  0
 22 21  1  0
 23 22  1  6
 23 24  1  0
 24 14  1  0
 25 27  1  0
 25 23  1  0
 26 25  2  0
M  END
$$$$
