AHR.pdb
     RDKit          3D

 27 27  0  0  1  0  0  0  0  0999 V2000
    8.3612  -20.2527   17.1489 C   0  0  0  0  0  0  0  0  0  0  0  0
    8.3638  -18.7680   16.8539 C   0  0  2  0  0  0  0  0  0  0  0  0
    8.9513  -18.4807   15.5613 N   0  0  0  0  0  0  0  0  0  0  0  0
    9.1034  -18.0107   17.8860 C   0  0  0  0  0  0  0  0  0  0  0  0
   10.3056  -17.6647   17.7508 O   0  0  0  0  0  0  0  0  0  0  0  0
    8.4442  -17.6516   19.0849 N   0  0  0  0  0  0  0  0  0  0  0  0
    9.1072  -16.9721   20.1790 C   0  0  1  0  0  0  0  0  0  0  0  0
    8.1130  -16.0079   20.7738 C   0  0  0  0  0  0  0  0  0  0  0  0
    8.0310  -14.7131   20.1189 C   0  0  0  0  0  0  0  0  0  0  0  0
    8.7613  -14.2908   19.0415 C   0  0  0  0  0  0  0  0  0  0  0  0
    8.3793  -13.0417   18.7504 N   0  0  0  0  0  0  0  0  0  0  0  0
    7.4326  -12.6883   19.6234 C   0  0  0  0  0  0  0  0  0  0  0  0
    7.2184  -13.7041   20.4579 N   0  0  0  0  0  0  0  0  0  0  0  0
    9.6782  -17.9443   21.0992 C   0  0  0  0  0  0  0  0  0  0  0  0
    8.9433  -18.8876   21.5254 O   0  0  0  0  0  0  0  0  0  0  0  0
   17.6215  -19.9176   23.5641 N   0  0  0  0  0  0  0  0  0  0  0  0
   17.0041  -21.1570   23.8777 C   0  0  0  0  0  0  0  0  0  0  0  0
   17.6844  -22.1033   24.4078 N   0  0  0  0  0  0  0  0  0  0  0  0
   15.6243  -21.3991   23.6209 N   0  0  0  0  0  0  0  0  0  0  0  0
   14.9282  -20.5315   22.6924 C   0  0  0  0  0  0  0  0  0  0  0  0
   13.7914  -19.8042   23.3689 C   0  0  0  0  0  0  0  0  0  0  0  0
   13.1208  -18.7892   22.5042 C   0  0  0  0  0  0  0  0  0  0  0  0
   11.6123  -18.9100   22.4469 C   0  0  2  0  0  0  0  0  0  0  0  0
   11.0115  -17.9426   21.5777 N   0  0  0  0  0  0  0  0  0  0  0  0
   11.1315  -18.7879   23.8460 C   0  0  0  0  0  0  0  0  0  0  0  0
   11.4131  -19.7027   24.6497 O   0  0  0  0  0  0  0  0  0  0  0  0
   10.3906  -17.7093   24.2884 O   0  0  0  0  0  0  0  0  0  0  0  0
  2  3  1  0
  2  1  1  1
  4  2  1  0
  5  4  2  0
  6  4  1  0
  7  6  1  0
  7  8  1  1
  8  9  1  0
  9 13  1  0
 10  9  2  0
 10 11  1  0
 11 12  1  0
 13 12  2  0
 14  7  1  0
 14 15  2  0
 16 17  1  0
 17 18  2  0
 19 17  1  0
 19 20  1  0
 20 21  1  0
 22 21  1  0
 23 22  1  1
 23 24  1  0
 24 14  1  0
 25 27  1  0
 25 23  1  0
 26 25  2  0
M  END
$$$$
