AHR.pdb
     RDKit          3D

 27 27  0  0  1  0  0  0  0  0999 V2000
   10.6896  -18.7300   18.0237 C   0  0  0  0  0  0  0  0  0  0  0  0
    9.5180  -17.8157   18.3114 C   0  0  2  0  0  0  0  0  0  0  0  0
    9.3202  -16.8499   17.2499 N   0  0  0  0  0  0  0  0  0  0  0  0
    9.6987  -17.0858   19.5843 C   0  0  0  0  0  0  0  0  0  0  0  0
   10.8239  -16.7108   20.0042 O   0  0  0  0  0  0  0  0  0  0  0  0
    8.5657  -16.7882   20.3772 N   0  0  0  0  0  0  0  0  0  0  0  0
    8.6332  -15.9925   21.5858 C   0  0  1  0  0  0  0  0  0  0  0  0
    7.5531  -14.9454   21.4917 C   0  0  0  0  0  0  0  0  0  0  0  0
    7.7009  -13.9925   20.4045 C   0  0  0  0  0  0  0  0  0  0  0  0
    6.9533  -13.9307   19.2601 C   0  0  0  0  0  0  0  0  0  0  0  0
    7.4102  -12.9098   18.5254 N   0  0  0  0  0  0  0  0  0  0  0  0
    8.4198  -12.3444   19.1919 C   0  0  0  0  0  0  0  0  0  0  0  0
    8.5991  -13.0015   20.3365 N   0  0  0  0  0  0  0  0  0  0  0  0
    8.5814  -16.8555   22.7565 C   0  0  0  0  0  0  0  0  0  0  0  0
    7.9704  -17.9650   22.6715 O   0  0  0  0  0  0  0  0  0  0  0  0
   13.6002  -21.5398   24.6864 N   0  0  0  0  0  0  0  0  0  0  0  0
   14.6059  -20.6803   25.2016 C   0  0  0  0  0  0  0  0  0  0  0  0
   15.5133  -21.1392   25.9798 N   0  0  0  0  0  0  0  0  0  0  0  0
   14.6499  -19.2932   24.8816 N   0  0  0  0  0  0  0  0  0  0  0  0
   13.6332  -18.7508   24.0032 C   0  0  0  0  0  0  0  0  0  0  0  0
   12.3337  -18.5303   24.7391 C   0  0  0  0  0  0  0  0  0  0  0  0
   11.3641  -17.6605   24.0105 C   0  0  0  0  0  0  0  0  0  0  0  0
   10.0675  -17.4067   24.7508 C   0  0  2  0  0  0  0  0  0  0  0  0
    9.1641  -16.5720   24.0161 N   0  0  0  0  0  0  0  0  0  0  0  0
   10.4442  -16.8163   26.0597 C   0  0  0  0  0  0  0  0  0  0  0  0
   10.3636  -15.5763   26.1939 O   0  0  0  0  0  0  0  0  0  0  0  0
   10.8768  -17.5808   27.1256 O   0  0  0  0  0  0  0  0  0  0  0  0
  2  3  1  0
  2  1  1  6
  4  2  1  0
  5  4  2  0
  6  4  1  0
  7  6  1  0
  7  8  1  1
  8  9  1  0
  9 13  1  0
 10  9  2  0
 10 11  1  0
 11 12  1  0
 13 12  2  0
 14  7  1  0
 14 15  2  0
 16 17  1  0
 17 18  2  0
 19 17  1  0
 19 20  1  0
 20 21  1  0
 22 21  1  0
 23 22  1  6
 23 24  1  0
 24 14  1  0
 25 27  1  0
 25 23  1  0
 26 25  2  0
M  END
$$$$
