AHR.pdb
     RDKit          3D

 27 27  0  0  1  0  0  0  0  0999 V2000
    3.3117  -19.1753   22.8567 C   0  0  0  0  0  0  0  0  0  0  0  0
    3.4506  -18.7592   21.4079 C   0  0  2  0  0  0  0  0  0  0  0  0
    3.2392  -19.8749   20.5085 N   0  0  0  0  0  0  0  0  0  0  0  0
    4.7832  -18.1802   21.1348 C   0  0  0  0  0  0  0  0  0  0  0  0
    5.8181  -18.8817   20.9930 O   0  0  0  0  0  0  0  0  0  0  0  0
    4.9176  -16.7763   21.0251 N   0  0  0  0  0  0  0  0  0  0  0  0
    6.1915  -16.1172   20.8223 C   0  0  1  0  0  0  0  0  0  0  0  0
    5.8988  -14.7101   20.3680 C   0  0  0  0  0  0  0  0  0  0  0  0
    7.0554  -13.9366   19.9486 C   0  0  0  0  0  0  0  0  0  0  0  0
    7.2543  -13.3551   18.7261 C   0  0  0  0  0  0  0  0  0  0  0  0
    8.4406  -12.7364   18.7535 N   0  0  0  0  0  0  0  0  0  0  0  0
    8.9736  -12.9247   19.9634 C   0  0  0  0  0  0  0  0  0  0  0  0
    8.1324  -13.6551   20.6933 N   0  0  0  0  0  0  0  0  0  0  0  0
    7.0145  -16.2413   22.0161 C   0  0  0  0  0  0  0  0  0  0  0  0
    6.4601  -16.1426   23.1538 O   0  0  0  0  0  0  0  0  0  0  0  0
   11.7749  -22.4298   25.5287 N   0  0  0  0  0  0  0  0  0  0  0  0
   12.0371  -21.3056   26.3552 C   0  0  0  0  0  0  0  0  0  0  0  0
   12.6049  -21.4570   27.4929 N   0  0  0  0  0  0  0  0  0  0  0  0
   11.6864  -19.9822   25.9629 N   0  0  0  0  0  0  0  0  0  0  0  0
   10.9026  -19.7999   24.7580 C   0  0  0  0  0  0  0  0  0  0  0  0
   10.5253  -18.3512   24.5634 C   0  0  0  0  0  0  0  0  0  0  0  0
    9.6806  -18.1010   23.3586 C   0  0  0  0  0  0  0  0  0  0  0  0
    9.2356  -16.6632   23.1902 C   0  0  2  0  0  0  0  0  0  0  0  0
    8.4124  -16.4698   22.0337 N   0  0  0  0  0  0  0  0  0  0  0  0
   10.4745  -15.8467   23.1446 C   0  0  0  0  0  0  0  0  0  0  0  0
   10.8902  -15.4652   22.0294 O   0  0  0  0  0  0  0  0  0  0  0  0
   11.1785  -15.4960   24.2800 O   0  0  0  0  0  0  0  0  0  0  0  0
  2  3  1  0
  2  1  1  1
  4  2  1  0
  5  4  2  0
  6  4  1  0
  7  6  1  0
  7  8  1  1
  8  9  1  0
  9 13  1  0
 10  9  2  0
 10 11  1  0
 11 12  1  0
 13 12  2  0
 14  7  1  0
 14 15  2  0
 16 17  1  0
 17 18  2  0
 19 17  1  0
 19 20  1  0
 20 21  1  0
 22 21  1  0
 23 22  1  6
 23 24  1  0
 24 14  1  0
 25 27  1  0
 25 23  1  0
 26 25  2  0
M  END
$$$$
