AHR.pdb
     RDKit          3D

 27 27  0  0  1  0  0  0  0  0999 V2000
   14.7957  -19.3365   12.9084 C   0  0  0  0  0  0  0  0  0  0  0  0
   15.2067  -18.5406   14.1287 C   0  0  2  0  0  0  0  0  0  0  0  0
   16.6021  -18.7485   14.4575 N   0  0  0  0  0  0  0  0  0  0  0  0
   14.3875  -18.8929   15.3079 C   0  0  0  0  0  0  0  0  0  0  0  0
   13.1474  -18.6881   15.3653 O   0  0  0  0  0  0  0  0  0  0  0  0
   15.0109  -19.4875   16.4298 N   0  0  0  0  0  0  0  0  0  0  0  0
   14.2718  -20.0067   17.5624 C   0  0  1  0  0  0  0  0  0  0  0  0
   14.7882  -21.3966   17.8332 C   0  0  0  0  0  0  0  0  0  0  0  0
   14.0981  -22.1247   18.8846 C   0  0  0  0  0  0  0  0  0  0  0  0
   12.7471  -22.3030   19.0086 C   0  0  0  0  0  0  0  0  0  0  0  0
   12.5282  -23.0321   20.1092 N   0  0  0  0  0  0  0  0  0  0  0  0
   13.7124  -23.3050   20.6627 C   0  0  0  0  0  0  0  0  0  0  0  0
   14.6702  -22.7538   19.9193 N   0  0  0  0  0  0  0  0  0  0  0  0
   14.3437  -19.0736   18.6769 C   0  0  0  0  0  0  0  0  0  0  0  0
   15.4343  -18.4602   18.8912 O   0  0  0  0  0  0  0  0  0  0  0  0
   12.5410  -16.7599   25.6786 N   0  0  0  0  0  0  0  0  0  0  0  0
   11.2326  -16.2226   25.5556 C   0  0  0  0  0  0  0  0  0  0  0  0
   10.4465  -16.1951   26.5659 N   0  0  0  0  0  0  0  0  0  0  0  0
   10.7443  -15.6993   24.3243 N   0  0  0  0  0  0  0  0  0  0  0  0
   10.6598  -16.5831   23.1792 C   0  0  0  0  0  0  0  0  0  0  0  0
   12.0166  -16.8027   22.5549 C   0  0  0  0  0  0  0  0  0  0  0  0
   11.9978  -17.7024   21.3642 C   0  0  0  0  0  0  0  0  0  0  0  0
   13.3517  -17.9255   20.7232 C   0  0  2  0  0  0  0  0  0  0  0  0
   13.2860  -18.7727   19.5698 N   0  0  0  0  0  0  0  0  0  0  0  0
   14.2278  -18.4828   21.7841 C   0  0  0  0  0  0  0  0  0  0  0  0
   14.2335  -19.7208   21.9560 O   0  0  0  0  0  0  0  0  0  0  0  0
   15.0300  -17.6900   22.5814 O   0  0  0  0  0  0  0  0  0  0  0  0
  2  3  1  0
  2  1  1  6
  4  2  1  0
  5  4  2  0
  6  4  1  0
  7  6  1  0
  7  8  1  1
  8  9  1  0
  9 13  1  0
 10  9  2  0
 10 11  1  0
 11 12  1  0
 13 12  2  0
 14  7  1  0
 14 15  2  0
 16 17  1  0
 17 18  2  0
 19 17  1  0
 19 20  1  0
 20 21  1  0
 22 21  1  0
 23 22  1  1
 23 24  1  0
 24 14  1  0
 25 27  1  0
 25 23  1  0
 26 25  2  0
M  END
$$$$
