AHR.pdb
     RDKit          3D

 27 27  0  0  1  0  0  0  0  0999 V2000
    7.4060  -13.6536   16.7198 C   0  0  0  0  0  0  0  0  0  0  0  0
    7.6105  -13.7175   18.2183 C   0  0  2  0  0  0  0  0  0  0  0  0
    7.8514  -12.4047   18.7814 N   0  0  0  0  0  0  0  0  0  0  0  0
    8.7436  -14.5978   18.5746 C   0  0  0  0  0  0  0  0  0  0  0  0
    8.8678  -15.7676   18.1281 O   0  0  0  0  0  0  0  0  0  0  0  0
    9.7408  -14.1184   19.4558 N   0  0  0  0  0  0  0  0  0  0  0  0
   10.8466  -14.9326   19.9168 C   0  0  1  0  0  0  0  0  0  0  0  0
   12.1167  -14.2543   19.4710 C   0  0  0  0  0  0  0  0  0  0  0  0
   13.3489  -14.9171   19.8637 C   0  0  0  0  0  0  0  0  0  0  0  0
   14.2129  -14.5258   20.8499 C   0  0  0  0  0  0  0  0  0  0  0  0
   15.2177  -15.4088   20.8903 N   0  0  0  0  0  0  0  0  0  0  0  0
   14.9902  -16.3320   19.9526 C   0  0  0  0  0  0  0  0  0  0  0  0
   13.8531  -16.0353   19.3259 N   0  0  0  0  0  0  0  0  0  0  0  0
   10.7253  -15.1782   21.3461 C   0  0  0  0  0  0  0  0  0  0  0  0
   10.9302  -14.2180   22.1509 O   0  0  0  0  0  0  0  0  0  0  0  0
    5.7046  -21.5396   23.0344 N   0  0  0  0  0  0  0  0  0  0  0  0
    5.2532  -20.3027   22.5036 C   0  0  0  0  0  0  0  0  0  0  0  0
    4.0806  -20.2043   21.9987 N   0  0  0  0  0  0  0  0  0  0  0  0
    6.0701  -19.1361   22.5087 N   0  0  0  0  0  0  0  0  0  0  0  0
    7.4329  -19.2450   22.9885 C   0  0  0  0  0  0  0  0  0  0  0  0
    8.1021  -17.8932   23.0500 C   0  0  0  0  0  0  0  0  0  0  0  0
    9.4672  -17.9191   23.6528 C   0  0  0  0  0  0  0  0  0  0  0  0
   10.3131  -16.7008   23.3465 C   0  0  2  0  0  0  0  0  0  0  0  0
   10.3895  -16.4176   21.9441 N   0  0  0  0  0  0  0  0  0  0  0  0
   11.6472  -16.9593   23.9439 C   0  0  0  0  0  0  0  0  0  0  0  0
   11.7270  -17.0699   25.1863 O   0  0  0  0  0  0  0  0  0  0  0  0
   12.7938  -17.0812   23.1834 O   0  0  0  0  0  0  0  0  0  0  0  0
  2  3  1  0
  2  1  1  6
  4  2  1  0
  5  4  2  0
  6  4  1  0
  7  6  1  0
  7  8  1  1
  8  9  1  0
  9 13  1  0
 10  9  2  0
 10 11  1  0
 11 12  1  0
 13 12  2  0
 14  7  1  0
 14 15  2  0
 16 17  1  0
 17 18  2  0
 19 17  1  0
 19 20  1  0
 20 21  1  0
 22 21  1  0
 23 22  1  6
 23 24  1  0
 24 14  1  0
 25 27  1  0
 25 23  1  0
 26 25  2  0
M  END
$$$$
