AHR.pdb
     RDKit          3D

 27 27  0  0  1  0  0  0  0  0999 V2000
    0.4406  -23.8052   16.6225 C   0  0  0  0  0  0  0  0  0  0  0  0
   -0.0109  -22.4999   16.0028 C   0  0  2  0  0  0  0  0  0  0  0  0
    1.0530  -21.8704   15.2476 N   0  0  0  0  0  0  0  0  0  0  0  0
   -0.4872  -21.5479   17.0287 C   0  0  0  0  0  0  0  0  0  0  0  0
    0.2797  -20.7570   17.6367 O   0  0  0  0  0  0  0  0  0  0  0  0
   -1.8636  -21.5123   17.3526 N   0  0  0  0  0  0  0  0  0  0  0  0
   -2.4130  -20.6470   18.3763 C   0  0  1  0  0  0  0  0  0  0  0  0
   -3.8881  -20.5081   18.0988 C   0  0  0  0  0  0  0  0  0  0  0  0
   -4.6350  -19.7280   19.0712 C   0  0  0  0  0  0  0  0  0  0  0  0
   -4.2148  -18.5934   19.7102 C   0  0  0  0  0  0  0  0  0  0  0  0
   -5.2009  -18.1881   20.5190 N   0  0  0  0  0  0  0  0  0  0  0  0
   -6.2155  -19.0470   20.3910 C   0  0  0  0  0  0  0  0  0  0  0  0
   -5.8738  -19.9857   19.5101 N   0  0  0  0  0  0  0  0  0  0  0  0
   -2.0590  -21.1464   19.6965 C   0  0  0  0  0  0  0  0  0  0  0  0
   -2.1857  -22.3868   19.9351 O   0  0  0  0  0  0  0  0  0  0  0  0
    4.6988  -18.2359   23.7200 N   0  0  0  0  0  0  0  0  0  0  0  0
    4.7635  -19.2594   22.7382 C   0  0  0  0  0  0  0  0  0  0  0  0
    5.8922  -19.6224   22.2549 N   0  0  0  0  0  0  0  0  0  0  0  0
    3.5960  -19.9169   22.2553 N   0  0  0  0  0  0  0  0  0  0  0  0
    2.3175  -19.5899   22.8535 C   0  0  0  0  0  0  0  0  0  0  0  0
    1.1999  -20.3913   22.2307 C   0  0  0  0  0  0  0  0  0  0  0  0
   -0.1559  -20.0477   22.7515 C   0  0  0  0  0  0  0  0  0  0  0  0
   -1.2911  -20.8117   22.1023 C   0  0  2  0  0  0  0  0  0  0  0  0
   -1.5712  -20.3627   20.7710 N   0  0  0  0  0  0  0  0  0  0  0  0
   -2.4604  -20.6666   23.0052 C   0  0  0  0  0  0  0  0  0  0  0  0
   -3.4263  -19.9759   22.6149 O   0  0  0  0  0  0  0  0  0  0  0  0
   -2.5196  -21.2618   24.2502 O   0  0  0  0  0  0  0  0  0  0  0  0
  2  3  1  0
  2  1  1  1
  4  2  1  0
  5  4  2  0
  6  4  1  0
  7  6  1  0
  7  8  1  1
  8  9  1  0
  9 13  1  0
 10  9  2  0
 10 11  1  0
 11 12  1  0
 13 12  2  0
 14  7  1  0
 14 15  2  0
 16 17  1  0
 17 18  2  0
 19 17  1  0
 19 20  1  0
 20 21  1  0
 22 21  1  0
 23 22  1  1
 23 24  1  0
 24 14  1  0
 25 27  1  0
 25 23  1  0
 26 25  2  0
M  END
$$$$
