MFW.pdb
     RDKit          3D

 34 36  0  0  1  0  0  0  0  0999 V2000
   13.3835  -20.7190   18.1351 C   0  0  0  0  0  0  0  0  0  0  0  0
   11.9701  -20.1459   17.1558 S   0  0  0  0  0  0  0  0  0  0  0  0
   10.5161  -19.9256   18.2193 C   0  0  0  0  0  0  0  0  0  0  0  0
   10.8123  -18.8780   19.2925 C   0  0  0  0  0  0  0  0  0  0  0  0
    9.8137  -17.7714   19.0958 C   0  0  2  0  0  0  0  0  0  0  0  0
   10.1684  -17.0694   17.8814 N   0  0  0  0  0  0  0  0  0  0  0  0
    9.7026  -16.8755   20.2570 C   0  0  0  0  0  0  0  0  0  0  0  0
   10.7470  -16.3748   20.7494 O   0  0  0  0  0  0  0  0  0  0  0  0
    8.4938  -16.5135   20.8918 N   0  0  0  0  0  0  0  0  0  0  0  0
    8.4141  -15.9077   22.1820 C   0  0  1  0  0  0  0  0  0  0  0  0
    7.1100  -15.3805   22.5974 C   0  0  0  0  0  0  0  0  0  0  0  0
    7.0815  -14.8047   23.9681 C   0  0  0  0  0  0  0  0  0  0  0  0
    7.5765  -13.5227   24.2207 C   0  0  0  0  0  0  0  0  0  0  0  0
    7.5560  -12.9806   25.4873 C   0  0  0  0  0  0  0  0  0  0  0  0
    7.0418  -13.6839   26.5721 C   0  0  0  0  0  0  0  0  0  0  0  0
    6.5549  -14.9390   26.3365 C   0  0  0  0  0  0  0  0  0  0  0  0
    6.5803  -15.4732   25.0625 C   0  0  0  0  0  0  0  0  0  0  0  0
    8.9491  -16.8319   23.1999 C   0  0  0  0  0  0  0  0  0  0  0  0
    8.6886  -18.0815   23.1351 O   0  0  0  0  0  0  0  0  0  0  0  0
    9.7731  -16.4380   24.2994 N   0  0  0  0  0  0  0  0  0  0  0  0
   10.8457  -17.3380   24.7846 C   0  0  1  0  0  0  0  0  0  0  0  0
   11.6779  -16.5118   25.7066 C   0  0  0  0  0  0  0  0  0  0  0  0
   11.1623  -16.2889   27.0563 C   0  0  0  0  0  0  0  0  0  0  0  0
   10.8981  -17.2259   28.0564 C   0  0  0  0  0  0  0  0  0  0  0  0
   10.4011  -16.6169   29.1470 N   0  0  0  0  0  0  0  0  0  0  0  0
   10.3261  -15.3030   28.9062 C   0  0  0  0  0  0  0  0  0  0  0  0
    9.8957  -14.2819   29.7257 C   0  0  0  0  0  0  0  0  0  0  0  0
    9.9177  -12.9790   29.2811 C   0  0  0  0  0  0  0  0  0  0  0  0
   10.3777  -12.7363   28.0086 C   0  0  0  0  0  0  0  0  0  0  0  0
   10.7971  -13.7600   27.2166 C   0  0  0  0  0  0  0  0  0  0  0  0
   10.7960  -15.0847   27.6109 C   0  0  0  0  0  0  0  0  0  0  0  0
   10.2248  -18.4688   25.4581 C   0  0  0  0  0  0  0  0  0  0  0  0
    9.0066  -18.4487   25.7553 O   0  0  0  0  0  0  0  0  0  0  0  0
   10.9181  -19.6283   25.8076 O   0  0  0  0  0  0  0  0  0  0  0  0
  1  2  1  0
  3  2  1  0
  4  3  1  0
  5  6  1  6
  5  4  1  0
  7  5  1  0
  8  7  2  0
  9  7  1  0
 10  9  1  0
 10 11  1  1
 11 12  1  0
 12 13  2  0
 13 14  1  0
 15 14  2  0
 16 15  1  0
 17 12  1  0
 17 16  2  0
 18 10  1  0
 19 18  2  0
 20 18  1  0
 21 20  1  0
 21 22  1  1
 22 23  1  0
 23 31  1  0
 24 23  2  0
 24 25  1  0
 25 26  1  0
 26 27  1  0
 27 28  2  0
 29 28  1  0
 30 29  2  0
 31 26  2  0
 31 30  1  0
 32 21  1  0
 32 34  1  0
 33 32  2  0
M  END
$$$$
