MFW.pdb
     RDKit          3D

 34 36  0  0  1  0  0  0  0  0999 V2000
    6.7718  -20.4271   25.7267 C   0  0  0  0  0  0  0  0  0  0  0  0
    6.4558  -21.5318   24.3249 S   0  0  0  0  0  0  0  0  0  0  0  0
    6.4449  -20.5911   22.7729 C   0  0  0  0  0  0  0  0  0  0  0  0
    7.8282  -19.9914   22.5201 C   0  0  0  0  0  0  0  0  0  0  0  0
    7.6563  -18.9643   21.4356 C   0  0  2  0  0  0  0  0  0  0  0  0
    7.8585  -19.6274   20.1656 N   0  0  0  0  0  0  0  0  0  0  0  0
    8.5233  -17.7885   21.6060 C   0  0  0  0  0  0  0  0  0  0  0  0
    9.6556  -17.7748   21.0568 O   0  0  0  0  0  0  0  0  0  0  0  0
    8.1929  -16.6361   22.3532 N   0  0  0  0  0  0  0  0  0  0  0  0
    9.0538  -15.5087   22.5136 C   0  0  1  0  0  0  0  0  0  0  0  0
    8.4425  -14.1785   22.4241 C   0  0  0  0  0  0  0  0  0  0  0  0
    7.8388  -13.8607   21.1028 C   0  0  0  0  0  0  0  0  0  0  0  0
    6.5540  -14.3006   20.7739 C   0  0  0  0  0  0  0  0  0  0  0  0
    5.9862  -14.0127   19.5520 C   0  0  0  0  0  0  0  0  0  0  0  0
    6.6651  -13.2713   18.5901 C   0  0  0  0  0  0  0  0  0  0  0  0
    7.9227  -12.8359   18.9012 C   0  0  0  0  0  0  0  0  0  0  0  0
    8.4828  -13.1302   20.1294 C   0  0  0  0  0  0  0  0  0  0  0  0
    9.8232  -15.6438   23.7651 C   0  0  0  0  0  0  0  0  0  0  0  0
   10.8576  -14.9206   23.9659 O   0  0  0  0  0  0  0  0  0  0  0  0
    9.4984  -16.5488   24.8227 N   0  0  0  0  0  0  0  0  0  0  0  0
   10.2962  -16.5502   26.0714 C   0  0  1  0  0  0  0  0  0  0  0  0
    9.3191  -16.3142   27.1736 C   0  0  0  0  0  0  0  0  0  0  0  0
    8.1138  -15.5533   26.8490 C   0  0  0  0  0  0  0  0  0  0  0  0
    6.8659  -16.0261   26.4402 C   0  0  0  0  0  0  0  0  0  0  0  0
    6.0299  -14.9986   26.2103 N   0  0  0  0  0  0  0  0  0  0  0  0
    6.6808  -13.8553   26.4533 C   0  0  0  0  0  0  0  0  0  0  0  0
    6.2341  -12.5542   26.3698 C   0  0  0  0  0  0  0  0  0  0  0  0
    7.0742  -11.5102   26.6861 C   0  0  0  0  0  0  0  0  0  0  0  0
    8.3564  -11.8077   27.0827 C   0  0  0  0  0  0  0  0  0  0  0  0
    8.7762  -13.0996   27.1575 C   0  0  0  0  0  0  0  0  0  0  0  0
    7.9767  -14.1847   26.8514 C   0  0  0  0  0  0  0  0  0  0  0  0
   10.9644  -17.8379   26.1864 C   0  0  0  0  0  0  0  0  0  0  0  0
   11.7315  -18.0791   27.1488 O   0  0  0  0  0  0  0  0  0  0  0  0
   10.8010  -18.8719   25.2636 O   0  0  0  0  0  0  0  0  0  0  0  0
  1  2  1  0
  3  2  1  0
  4  3  1  0
  5  6  1  6
  5  4  1  0
  7  5  1  0
  8  7  2  0
  9  7  1  0
 10  9  1  0
 10 11  1  1
 11 12  1  0
 12 13  2  0
 13 14  1  0
 15 14  2  0
 16 15  1  0
 17 12  1  0
 17 16  2  0
 18 10  1  0
 19 18  2  0
 20 18  1  0
 21 20  1  0
 21 22  1  1
 22 23  1  0
 23 31  1  0
 24 23  2  0
 24 25  1  0
 25 26  1  0
 26 27  1  0
 27 28  2  0
 29 28  1  0
 30 29  2  0
 31 26  2  0
 31 30  1  0
 32 21  1  0
 32 34  1  0
 33 32  2  0
M  END
$$$$
