MFW.pdb
     RDKit          3D

 34 36  0  0  1  0  0  0  0  0999 V2000
    8.2909  -12.6901   15.9322 C   0  0  0  0  0  0  0  0  0  0  0  0
    8.8080  -14.1855   15.0482 S   0  0  0  0  0  0  0  0  0  0  0  0
    8.8931  -15.5934   16.1903 C   0  0  0  0  0  0  0  0  0  0  0  0
    9.2810  -15.1061   17.5864 C   0  0  0  0  0  0  0  0  0  0  0  0
    9.3177  -16.3232   18.4683 C   0  0  2  0  0  0  0  0  0  0  0  0
    8.2559  -17.2084   18.0408 N   0  0  0  0  0  0  0  0  0  0  0  0
    9.2474  -16.0043   19.9024 C   0  0  0  0  0  0  0  0  0  0  0  0
   10.2679  -15.5496   20.4818 O   0  0  0  0  0  0  0  0  0  0  0  0
    8.1043  -16.1665   20.7162 N   0  0  0  0  0  0  0  0  0  0  0  0
    7.9915  -15.6716   22.0505 C   0  0  1  0  0  0  0  0  0  0  0  0
    6.6512  -15.3048   22.5200 C   0  0  0  0  0  0  0  0  0  0  0  0
    6.6195  -14.6447   23.8521 C   0  0  0  0  0  0  0  0  0  0  0  0
    6.1284  -15.3145   24.9758 C   0  0  0  0  0  0  0  0  0  0  0  0
    6.0935  -14.7114   26.2141 C   0  0  0  0  0  0  0  0  0  0  0  0
    6.5452  -13.4090   26.4028 C   0  0  0  0  0  0  0  0  0  0  0  0
    7.0277  -12.7444   25.3104 C   0  0  0  0  0  0  0  0  0  0  0  0
    7.0582  -13.3584   24.0731 C   0  0  0  0  0  0  0  0  0  0  0  0
    8.6299  -16.6155   22.9874 C   0  0  0  0  0  0  0  0  0  0  0  0
    8.2868  -17.8466   22.9943 O   0  0  0  0  0  0  0  0  0  0  0  0
    9.6467  -16.2616   23.9277 N   0  0  0  0  0  0  0  0  0  0  0  0
   10.2266  -17.2934   24.8192 C   0  0  1  0  0  0  0  0  0  0  0  0
   11.3860  -16.6386   25.4918 C   0  0  0  0  0  0  0  0  0  0  0  0
   11.3091  -16.4648   26.9413 C   0  0  0  0  0  0  0  0  0  0  0  0
   11.2697  -17.4416   27.9374 C   0  0  0  0  0  0  0  0  0  0  0  0
   11.1680  -16.8685   29.1492 N   0  0  0  0  0  0  0  0  0  0  0  0
   11.1390  -15.5401   28.9929 C   0  0  0  0  0  0  0  0  0  0  0  0
   11.0568  -14.5445   29.9423 C   0  0  0  0  0  0  0  0  0  0  0  0
   11.0596  -13.2211   29.5624 C   0  0  0  0  0  0  0  0  0  0  0  0
   11.1461  -12.9323   28.2211 C   0  0  0  0  0  0  0  0  0  0  0  0
   11.2257  -13.9314   27.3011 C   0  0  0  0  0  0  0  0  0  0  0  0
   11.2262  -15.2748   27.6260 C   0  0  0  0  0  0  0  0  0  0  0  0
    9.2005  -17.7128   25.7623 C   0  0  0  0  0  0  0  0  0  0  0  0
    8.2376  -16.9588   26.0401 O   0  0  0  0  0  0  0  0  0  0  0  0
    9.2091  -18.9518   26.4042 O   0  0  0  0  0  0  0  0  0  0  0  0
  1  2  1  0
  3  2  1  0
  4  3  1  0
  5  6  1  6
  5  4  1  0
  7  5  1  0
  8  7  2  0
  9  7  1  0
 10  9  1  0
 10 11  1  1
 11 12  1  0
 12 13  2  0
 13 14  1  0
 15 14  2  0
 16 15  1  0
 17 12  1  0
 17 16  2  0
 18 10  1  0
 19 18  2  0
 20 18  1  0
 21 20  1  0
 21 22  1  1
 22 23  1  0
 23 31  1  0
 24 23  2  0
 24 25  1  0
 25 26  1  0
 26 27  1  0
 27 28  2  0
 29 28  1  0
 30 29  2  0
 31 26  2  0
 31 30  1  0
 32 21  1  0
 32 34  1  0
 33 32  2  0
M  END
$$$$
