MFW.pdb
     RDKit          3D

 34 36  0  0  1  0  0  0  0  0999 V2000
    8.3289  -16.9656   15.5564 C   0  0  0  0  0  0  0  0  0  0  0  0
    9.5393  -18.3122   15.6372 S   0  0  0  0  0  0  0  0  0  0  0  0
    9.8943  -18.7358   17.3659 C   0  0  0  0  0  0  0  0  0  0  0  0
    9.5863  -17.5398   18.2668 C   0  0  0  0  0  0  0  0  0  0  0  0
    9.9418  -17.9573   19.6668 C   0  0  2  0  0  0  0  0  0  0  0  0
    8.8785  -18.8083   20.1554 N   0  0  0  0  0  0  0  0  0  0  0  0
   10.2153  -16.8216   20.5603 C   0  0  0  0  0  0  0  0  0  0  0  0
   11.1559  -16.0329   20.2819 O   0  0  0  0  0  0  0  0  0  0  0  0
    9.4980  -16.5243   21.7403 N   0  0  0  0  0  0  0  0  0  0  0  0
    9.7251  -15.3700   22.5490 C   0  0  1  0  0  0  0  0  0  0  0  0
    8.6116  -14.4277   22.7028 C   0  0  0  0  0  0  0  0  0  0  0  0
    8.0537  -13.9126   21.4242 C   0  0  0  0  0  0  0  0  0  0  0  0
    8.5150  -12.7170   20.8675 C   0  0  0  0  0  0  0  0  0  0  0  0
    8.0038  -12.2305   19.6841 C   0  0  0  0  0  0  0  0  0  0  0  0
    7.0057  -12.9066   18.9894 C   0  0  0  0  0  0  0  0  0  0  0  0
    6.5470  -14.0773   19.5249 C   0  0  0  0  0  0  0  0  0  0  0  0
    7.0665  -14.5564   20.7122 C   0  0  0  0  0  0  0  0  0  0  0  0
   10.2444  -15.7801   23.8675 C   0  0  0  0  0  0  0  0  0  0  0  0
   11.2053  -15.1351   24.4098 O   0  0  0  0  0  0  0  0  0  0  0  0
    9.7439  -16.8812   24.6292 N   0  0  0  0  0  0  0  0  0  0  0  0
   10.2550  -17.1324   25.9972 C   0  0  1  0  0  0  0  0  0  0  0  0
    9.7855  -15.9802   26.8202 C   0  0  0  0  0  0  0  0  0  0  0  0
    8.4358  -15.4801   26.5646 C   0  0  0  0  0  0  0  0  0  0  0  0
    7.3062  -16.1871   26.1494 C   0  0  0  0  0  0  0  0  0  0  0  0
    6.2630  -15.3528   25.9982 N   0  0  0  0  0  0  0  0  0  0  0  0
    6.6608  -14.1116   26.3001 C   0  0  0  0  0  0  0  0  0  0  0  0
    5.9433  -12.9349   26.3051 C   0  0  0  0  0  0  0  0  0  0  0  0
    6.5494  -11.7540   26.6707 C   0  0  0  0  0  0  0  0  0  0  0  0
    7.8770  -11.7898   27.0255 C   0  0  0  0  0  0  0  0  0  0  0  0
    8.5661  -12.9628   27.0127 C   0  0  0  0  0  0  0  0  0  0  0  0
    8.0087  -14.1757   26.6541 C   0  0  0  0  0  0  0  0  0  0  0  0
    9.7174  -18.4029   26.4608 C   0  0  0  0  0  0  0  0  0  0  0  0
    8.8233  -18.9963   25.8118 O   0  0  0  0  0  0  0  0  0  0  0  0
   10.1491  -19.0392   27.6253 O   0  0  0  0  0  0  0  0  0  0  0  0
  1  2  1  0
  3  2  1  0
  4  3  1  0
  5  6  1  1
  5  4  1  0
  7  5  1  0
  8  7  2  0
  9  7  1  0
 10  9  1  0
 10 11  1  1
 11 12  1  0
 12 13  2  0
 13 14  1  0
 15 14  2  0
 16 15  1  0
 17 12  1  0
 17 16  2  0
 18 10  1  0
 19 18  2  0
 20 18  1  0
 21 20  1  0
 21 22  1  1
 22 23  1  0
 23 31  1  0
 24 23  2  0
 24 25  1  0
 25 26  1  0
 26 27  1  0
 27 28  2  0
 29 28  1  0
 30 29  2  0
 31 26  2  0
 31 30  1  0
 32 21  1  0
 32 34  1  0
 33 32  2  0
M  END
$$$$
