MFW.pdb
     RDKit          3D

 34 36  0  0  1  0  0  0  0  0999 V2000
   10.7524  -22.2376   22.8448 C   0  0  0  0  0  0  0  0  0  0  0  0
    9.3402  -23.3307   23.1539 S   0  0  0  0  0  0  0  0  0  0  0  0
    7.7860  -22.4029   23.0218 C   0  0  0  0  0  0  0  0  0  0  0  0
    8.0843  -20.9202   22.7988 C   0  0  0  0  0  0  0  0  0  0  0  0
    6.7572  -20.2136   22.7966 C   0  0  2  0  0  0  0  0  0  0  0  0
    6.0485  -20.6121   21.5998 N   0  0  0  0  0  0  0  0  0  0  0  0
    6.8761  -18.7533   22.9258 C   0  0  0  0  0  0  0  0  0  0  0  0
    7.2298  -18.0745   21.9267 O   0  0  0  0  0  0  0  0  0  0  0  0
    6.6225  -18.0180   24.1049 N   0  0  0  0  0  0  0  0  0  0  0  0
    6.9994  -16.6547   24.2981 C   0  0  1  0  0  0  0  0  0  0  0  0
    6.0725  -15.8014   25.0491 C   0  0  0  0  0  0  0  0  0  0  0  0
    6.4837  -14.3758   25.1485 C   0  0  0  0  0  0  0  0  0  0  0  0
    7.0078  -13.6992   24.0441 C   0  0  0  0  0  0  0  0  0  0  0  0
    7.3930  -12.3788   24.1261 C   0  0  0  0  0  0  0  0  0  0  0  0
    7.2779  -11.6589   25.3111 C   0  0  0  0  0  0  0  0  0  0  0  0
    6.7664  -12.3109   26.3979 C   0  0  0  0  0  0  0  0  0  0  0  0
    6.3832  -13.6352   26.3049 C   0  0  0  0  0  0  0  0  0  0  0  0
    8.3531  -16.5901   24.8807 C   0  0  0  0  0  0  0  0  0  0  0  0
    8.5214  -16.1565   26.0712 O   0  0  0  0  0  0  0  0  0  0  0  0
    9.5468  -16.9909   24.2043 N   0  0  0  0  0  0  0  0  0  0  0  0
   10.7670  -16.1546   24.2908 C   0  0  1  0  0  0  0  0  0  0  0  0
   11.5802  -16.7422   25.3947 C   0  0  0  0  0  0  0  0  0  0  0  0
   11.0499  -16.6269   26.7522 C   0  0  0  0  0  0  0  0  0  0  0  0
   10.6546  -17.6419   27.6248 C   0  0  0  0  0  0  0  0  0  0  0  0
   10.1929  -17.1167   28.7730 N   0  0  0  0  0  0  0  0  0  0  0  0
   10.2682  -15.7832   28.6939 C   0  0  0  0  0  0  0  0  0  0  0  0
    9.9258  -14.8264   29.6248 C   0  0  0  0  0  0  0  0  0  0  0  0
   10.1028  -13.4902   29.3440 C   0  0  0  0  0  0  0  0  0  0  0  0
   10.6259  -13.1492   28.1193 C   0  0  0  0  0  0  0  0  0  0  0  0
   10.9563  -14.1107   27.2152 C   0  0  0  0  0  0  0  0  0  0  0  0
   10.7993  -15.4647   27.4438 C   0  0  0  0  0  0  0  0  0  0  0  0
   11.4505  -16.2078   23.0071 C   0  0  0  0  0  0  0  0  0  0  0  0
   10.9643  -16.8523   22.0474 O   0  0  0  0  0  0  0  0  0  0  0  0
   12.6600  -15.5590   22.7548 O   0  0  0  0  0  0  0  0  0  0  0  0
  1  2  1  0
  3  2  1  0
  4  3  1  0
  5  6  1  6
  5  4  1  0
  7  5  1  0
  8  7  2  0
  9  7  1  0
 10  9  1  0
 10 11  1  1
 11 12  1  0
 12 13  2  0
 13 14  1  0
 15 14  2  0
 16 15  1  0
 17 12  1  0
 17 16  2  0
 18 10  1  0
 19 18  2  0
 20 18  1  0
 21 20  1  0
 21 22  1  1
 22 23  1  0
 23 31  1  0
 24 23  2  0
 24 25  1  0
 25 26  1  0
 26 27  1  0
 27 28  2  0
 29 28  1  0
 30 29  2  0
 31 26  2  0
 31 30  1  0
 32 21  1  0
 32 34  1  0
 33 32  2  0
M  END
$$$$
