MFW.pdb
     RDKit          3D

 34 36  0  0  1  0  0  0  0  0999 V2000
   10.9489  -21.6388   23.0378 C   0  0  0  0  0  0  0  0  0  0  0  0
    9.5038  -22.2355   22.1211 S   0  0  0  0  0  0  0  0  0  0  0  0
    9.0938  -21.0875   20.7766 C   0  0  0  0  0  0  0  0  0  0  0  0
    9.9454  -19.8235   20.8960 C   0  0  0  0  0  0  0  0  0  0  0  0
    9.0285  -18.6638   20.6220 C   0  0  2  0  0  0  0  0  0  0  0  0
    8.8910  -18.5412   19.1869 N   0  0  0  0  0  0  0  0  0  0  0  0
    9.4675  -17.4127   21.2587 C   0  0  0  0  0  0  0  0  0  0  0  0
   10.5647  -16.9003   20.9157 O   0  0  0  0  0  0  0  0  0  0  0  0
    8.7494  -16.7103   22.2518 N   0  0  0  0  0  0  0  0  0  0  0  0
    9.1372  -15.4407   22.7767 C   0  0  1  0  0  0  0  0  0  0  0  0
    8.1297  -14.3747   22.7698 C   0  0  0  0  0  0  0  0  0  0  0  0
    7.6290  -14.0031   21.4198 C   0  0  0  0  0  0  0  0  0  0  0  0
    8.1402  -12.8928   20.7430 C   0  0  0  0  0  0  0  0  0  0  0  0
    7.6821  -12.5392   19.4926 C   0  0  0  0  0  0  0  0  0  0  0  0
    6.6904  -13.2707   18.8467 C   0  0  0  0  0  0  0  0  0  0  0  0
    6.1830  -14.3589   19.4997 C   0  0  0  0  0  0  0  0  0  0  0  0
    6.6494  -14.7047   20.7534 C   0  0  0  0  0  0  0  0  0  0  0  0
    9.7027  -15.6124   24.1284 C   0  0  0  0  0  0  0  0  0  0  0  0
   10.3623  -14.6641   24.6754 O   0  0  0  0  0  0  0  0  0  0  0  0
    9.5694  -16.7960   24.9187 N   0  0  0  0  0  0  0  0  0  0  0  0
   10.3171  -16.9285   26.1911 C   0  0  1  0  0  0  0  0  0  0  0  0
    9.5431  -16.1438   27.1963 C   0  0  0  0  0  0  0  0  0  0  0  0
    8.2468  -15.6128   26.7781 C   0  0  0  0  0  0  0  0  0  0  0  0
    7.1136  -16.3083   26.3537 C   0  0  0  0  0  0  0  0  0  0  0  0
    6.1335  -15.4483   26.0266 N   0  0  0  0  0  0  0  0  0  0  0  0
    6.5770  -14.2009   26.2201 C   0  0  0  0  0  0  0  0  0  0  0  0
    5.9287  -12.9987   26.0362 C   0  0  0  0  0  0  0  0  0  0  0  0
    6.5713  -11.8137   26.3163 C   0  0  0  0  0  0  0  0  0  0  0  0
    7.8644  -11.8716   26.7794 C   0  0  0  0  0  0  0  0  0  0  0  0
    8.4850  -13.0698   26.9530 C   0  0  0  0  0  0  0  0  0  0  0  0
    7.8886  -14.2879   26.6872 C   0  0  0  0  0  0  0  0  0  0  0  0
   10.3971  -18.3416   26.5301 C   0  0  0  0  0  0  0  0  0  0  0  0
   11.0294  -18.7235   27.5436 O   0  0  0  0  0  0  0  0  0  0  0  0
    9.7885  -19.3466   25.7772 O   0  0  0  0  0  0  0  0  0  0  0  0
  1  2  1  0
  3  2  1  0
  4  3  1  0
  5  6  1  6
  5  4  1  0
  7  5  1  0
  8  7  2  0
  9  7  1  0
 10  9  1  0
 10 11  1  1
 11 12  1  0
 12 13  2  0
 13 14  1  0
 15 14  2  0
 16 15  1  0
 17 12  1  0
 17 16  2  0
 18 10  1  0
 19 18  2  0
 20 18  1  0
 21 20  1  0
 21 22  1  1
 22 23  1  0
 23 31  1  0
 24 23  2  0
 24 25  1  0
 25 26  1  0
 26 27  1  0
 27 28  2  0
 29 28  1  0
 30 29  2  0
 31 26  2  0
 31 30  1  0
 32 21  1  0
 32 34  1  0
 33 32  2  0
M  END
$$$$
