MFW.pdb
     RDKit          3D

 34 36  0  0  1  0  0  0  0  0999 V2000
    7.6881  -11.9246   17.8105 C   0  0  0  0  0  0  0  0  0  0  0  0
    7.9396  -13.0755   16.4331 S   0  0  0  0  0  0  0  0  0  0  0  0
    8.5910  -14.6553   17.0445 C   0  0  0  0  0  0  0  0  0  0  0  0
    9.4827  -14.4123   18.2622 C   0  0  0  0  0  0  0  0  0  0  0  0
    9.7234  -15.7570   18.8901 C   0  0  2  0  0  0  0  0  0  0  0  0
    8.7143  -16.6641   18.3876 N   0  0  0  0  0  0  0  0  0  0  0  0
    9.7656  -15.7132   20.3596 C   0  0  0  0  0  0  0  0  0  0  0  0
   10.6970  -15.0875   20.9296 O   0  0  0  0  0  0  0  0  0  0  0  0
    8.8280  -16.3284   21.2186 N   0  0  0  0  0  0  0  0  0  0  0  0
    8.6357  -15.9693   22.5868 C   0  0  1  0  0  0  0  0  0  0  0  0
    7.2761  -15.6082   23.0020 C   0  0  0  0  0  0  0  0  0  0  0  0
    7.1666  -15.1038   24.3966 C   0  0  0  0  0  0  0  0  0  0  0  0
    7.2797  -13.7403   24.6798 C   0  0  0  0  0  0  0  0  0  0  0  0
    7.1810  -13.2630   25.9686 C   0  0  0  0  0  0  0  0  0  0  0  0
    6.9644  -14.1158   27.0464 C   0  0  0  0  0  0  0  0  0  0  0  0
    6.8522  -15.4517   26.7808 C   0  0  0  0  0  0  0  0  0  0  0  0
    6.9527  -15.9199   25.4848 C   0  0  0  0  0  0  0  0  0  0  0  0
    9.1825  -17.0249   23.4603 C   0  0  0  0  0  0  0  0  0  0  0  0
    8.8921  -18.2512   23.2471 O   0  0  0  0  0  0  0  0  0  0  0  0
   10.0506  -16.7890   24.5711 N   0  0  0  0  0  0  0  0  0  0  0  0
   10.8995  -17.8838   25.0969 C   0  0  1  0  0  0  0  0  0  0  0  0
   11.9031  -17.2251   25.9824 C   0  0  0  0  0  0  0  0  0  0  0  0
   11.4326  -16.7265   27.2736 C   0  0  0  0  0  0  0  0  0  0  0  0
   11.2897  -17.4178   28.4776 C   0  0  0  0  0  0  0  0  0  0  0  0
   10.7952  -16.6045   29.4269 N   0  0  0  0  0  0  0  0  0  0  0  0
   10.6041  -15.3922   28.8942 C   0  0  0  0  0  0  0  0  0  0  0  0
   10.1306  -14.2385   29.4809 C   0  0  0  0  0  0  0  0  0  0  0  0
   10.0279  -13.0782   28.7469 C   0  0  0  0  0  0  0  0  0  0  0  0
   10.4091  -13.1109   27.4265 C   0  0  0  0  0  0  0  0  0  0  0  0
   10.8732  -14.2613   26.8678 C   0  0  0  0  0  0  0  0  0  0  0  0
   10.9962  -15.4532   27.5567 C   0  0  0  0  0  0  0  0  0  0  0  0
   10.0479  -18.8172   25.8191 C   0  0  0  0  0  0  0  0  0  0  0  0
   10.4775  -19.9444   26.1620 O   0  0  0  0  0  0  0  0  0  0  0  0
    8.7299  -18.5324   26.1784 O   0  0  0  0  0  0  0  0  0  0  0  0
  1  2  1  0
  3  2  1  0
  4  3  1  0
  5  6  1  1
  5  4  1  0
  7  5  1  0
  8  7  2  0
  9  7  1  0
 10  9  1  0
 10 11  1  6
 11 12  1  0
 12 13  2  0
 13 14  1  0
 15 14  2  0
 16 15  1  0
 17 12  1  0
 17 16  2  0
 18 10  1  0
 19 18  2  0
 20 18  1  0
 21 20  1  0
 21 22  1  1
 22 23  1  0
 23 31  1  0
 24 23  2  0
 24 25  1  0
 25 26  1  0
 26 27  1  0
 27 28  2  0
 29 28  1  0
 30 29  2  0
 31 26  2  0
 31 30  1  0
 32 21  1  0
 32 34  1  0
 33 32  2  0
M  END
$$$$
