MFW.pdb
     RDKit          3D

 34 36  0  0  1  0  0  0  0  0999 V2000
   11.0564  -16.2190   15.4056 C   0  0  0  0  0  0  0  0  0  0  0  0
   10.2120  -17.8192   15.5124 S   0  0  0  0  0  0  0  0  0  0  0  0
   10.1291  -18.3724   17.2389 C   0  0  0  0  0  0  0  0  0  0  0  0
   10.7268  -17.3046   18.1552 C   0  0  0  0  0  0  0  0  0  0  0  0
   10.7447  -17.8914   19.5393 C   0  0  2  0  0  0  0  0  0  0  0  0
    9.7503  -18.9414   19.5850 N   0  0  0  0  0  0  0  0  0  0  0  0
   10.5591  -16.8879   20.5985 C   0  0  0  0  0  0  0  0  0  0  0  0
   11.3645  -15.9242   20.6804 O   0  0  0  0  0  0  0  0  0  0  0  0
    9.5280  -16.9058   21.5638 N   0  0  0  0  0  0  0  0  0  0  0  0
    9.3615  -15.9168   22.5797 C   0  0  1  0  0  0  0  0  0  0  0  0
    8.0808  -15.2030   22.6190 C   0  0  0  0  0  0  0  0  0  0  0  0
    7.8511  -14.2774   21.4780 C   0  0  0  0  0  0  0  0  0  0  0  0
    7.0833  -14.6678   20.3778 C   0  0  0  0  0  0  0  0  0  0  0  0
    6.8657  -13.8184   19.3151 C   0  0  0  0  0  0  0  0  0  0  0  0
    7.3996  -12.5338   19.2885 C   0  0  0  0  0  0  0  0  0  0  0  0
    8.1523  -12.1414   20.3596 C   0  0  0  0  0  0  0  0  0  0  0  0
    8.3645  -13.0012   21.4201 C   0  0  0  0  0  0  0  0  0  0  0  0
    9.6717  -16.5006   23.8986 C   0  0  0  0  0  0  0  0  0  0  0  0
    9.2203  -17.6539   24.2142 O   0  0  0  0  0  0  0  0  0  0  0  0
   10.4713  -15.8652   24.8986 N   0  0  0  0  0  0  0  0  0  0  0  0
   10.3224  -16.2466   26.3227 C   0  0  1  0  0  0  0  0  0  0  0  0
    8.8933  -16.6420   26.4861 C   0  0  0  0  0  0  0  0  0  0  0  0
    7.8829  -15.6079   26.2696 C   0  0  0  0  0  0  0  0  0  0  0  0
    6.5598  -15.7534   25.8499 C   0  0  0  0  0  0  0  0  0  0  0  0
    5.9688  -14.5506   25.7438 N   0  0  0  0  0  0  0  0  0  0  0  0
    6.8560  -13.6072   26.0800 C   0  0  0  0  0  0  0  0  0  0  0  0
    6.7054  -12.2384   26.1359 C   0  0  0  0  0  0  0  0  0  0  0  0
    7.7556  -11.4402   26.5303 C   0  0  0  0  0  0  0  0  0  0  0  0
    8.9430  -12.0485   26.8617 C   0  0  0  0  0  0  0  0  0  0  0  0
    9.0693  -13.4017   26.7987 C   0  0  0  0  0  0  0  0  0  0  0  0
    8.0497  -14.2497   26.4093 C   0  0  0  0  0  0  0  0  0  0  0  0
   11.2384  -17.3426   26.6015 C   0  0  0  0  0  0  0  0  0  0  0  0
   11.8441  -17.9251   25.6706 O   0  0  0  0  0  0  0  0  0  0  0  0
   11.5070  -17.8090   27.8890 O   0  0  0  0  0  0  0  0  0  0  0  0
  1  2  1  0
  3  2  1  0
  4  3  1  0
  5  6  1  6
  5  4  1  0
  7  5  1  0
  8  7  2  0
  9  7  1  0
 10  9  1  0
 10 11  1  1
 11 12  1  0
 12 13  2  0
 13 14  1  0
 15 14  2  0
 16 15  1  0
 17 12  1  0
 17 16  2  0
 18 10  1  0
 19 18  2  0
 20 18  1  0
 21 20  1  0
 21 22  1  6
 22 23  1  0
 23 31  1  0
 24 23  2  0
 24 25  1  0
 25 26  1  0
 26 27  1  0
 27 28  2  0
 29 28  1  0
 30 29  2  0
 31 26  2  0
 31 30  1  0
 32 21  1  0
 32 34  1  0
 33 32  2  0
M  END
$$$$
