MFW.pdb
     RDKit          3D

 34 36  0  0  1  0  0  0  0  0999 V2000
   11.2715  -19.8871   15.7666 C   0  0  0  0  0  0  0  0  0  0  0  0
   12.3732  -18.8520   16.7666 S   0  0  0  0  0  0  0  0  0  0  0  0
   11.7740  -18.7660   18.4775 C   0  0  0  0  0  0  0  0  0  0  0  0
   10.2925  -18.3891   18.4900 C   0  0  0  0  0  0  0  0  0  0  0  0
    9.8806  -18.3251   19.9346 C   0  0  2  0  0  0  0  0  0  0  0  0
    8.4810  -18.6844   20.0094 N   0  0  0  0  0  0  0  0  0  0  0  0
   10.1674  -17.0270   20.5638 C   0  0  0  0  0  0  0  0  0  0  0  0
   10.9662  -16.2339   20.0007 O   0  0  0  0  0  0  0  0  0  0  0  0
    9.6123  -16.5731   21.7808 N   0  0  0  0  0  0  0  0  0  0  0  0
    9.8309  -15.2727   22.3277 C   0  0  1  0  0  0  0  0  0  0  0  0
    8.6735  -14.3756   22.4110 C   0  0  0  0  0  0  0  0  0  0  0  0
    8.1342  -13.9352   21.0970 C   0  0  0  0  0  0  0  0  0  0  0  0
    7.0957  -14.6329   20.4748 C   0  0  0  0  0  0  0  0  0  0  0  0
    6.5899  -14.2338   19.2569 C   0  0  0  0  0  0  0  0  0  0  0  0
    7.0891  -13.1188   18.5911 C   0  0  0  0  0  0  0  0  0  0  0  0
    8.1051  -12.4287   19.1907 C   0  0  0  0  0  0  0  0  0  0  0  0
    8.6051  -12.8375   20.4121 C   0  0  0  0  0  0  0  0  0  0  0  0
   10.4931  -15.3896   23.6408 C   0  0  0  0  0  0  0  0  0  0  0  0
   10.9956  -14.3574   24.2024 O   0  0  0  0  0  0  0  0  0  0  0  0
   10.6253  -16.6080   24.3765 N   0  0  0  0  0  0  0  0  0  0  0  0
    9.7716  -16.8573   25.5617 C   0  0  1  0  0  0  0  0  0  0  0  0
    8.3667  -16.6955   25.0870 C   0  0  0  0  0  0  0  0  0  0  0  0
    7.5212  -15.7453   25.8076 C   0  0  0  0  0  0  0  0  0  0  0  0
    6.3373  -15.9849   26.5069 C   0  0  0  0  0  0  0  0  0  0  0  0
    5.8479  -14.8356   27.0037 N   0  0  0  0  0  0  0  0  0  0  0  0
    6.6684  -13.8368   26.6584 C   0  0  0  0  0  0  0  0  0  0  0  0
    6.5878  -12.4921   26.9493 C   0  0  0  0  0  0  0  0  0  0  0  0
    7.5619  -11.6263   26.5051 C   0  0  0  0  0  0  0  0  0  0  0  0
    8.6030  -12.1436   25.7715 C   0  0  0  0  0  0  0  0  0  0  0  0
    8.6619  -13.4746   25.4956 C   0  0  0  0  0  0  0  0  0  0  0  0
    7.7127  -14.3874   25.9151 C   0  0  0  0  0  0  0  0  0  0  0  0
   10.0435  -18.2021   26.0471 C   0  0  0  0  0  0  0  0  0  0  0  0
   10.3020  -19.1329   25.2474 O   0  0  0  0  0  0  0  0  0  0  0  0
   10.0424  -18.5439   27.4001 O   0  0  0  0  0  0  0  0  0  0  0  0
  1  2  1  0
  3  2  1  0
  4  3  1  0
  5  6  1  6
  5  4  1  0
  7  5  1  0
  8  7  2  0
  9  7  1  0
 10  9  1  0
 10 11  1  1
 11 12  1  0
 12 13  2  0
 13 14  1  0
 15 14  2  0
 16 15  1  0
 17 12  1  0
 17 16  2  0
 18 10  1  0
 19 18  2  0
 20 18  1  0
 21 20  1  0
 21 22  1  6
 22 23  1  0
 23 31  1  0
 24 23  2  0
 24 25  1  0
 25 26  1  0
 26 27  1  0
 27 28  2  0
 29 28  1  0
 30 29  2  0
 31 26  2  0
 31 30  1  0
 32 21  1  0
 32 34  1  0
 33 32  2  0
M  END
$$$$
