MFW.pdb
     RDKit          3D

 34 36  0  0  1  0  0  0  0  0999 V2000
    7.8531  -22.5071   25.1552 C   0  0  0  0  0  0  0  0  0  0  0  0
    9.5023  -22.1047   24.5201 S   0  0  0  0  0  0  0  0  0  0  0  0
    9.3800  -21.4098   22.8480 C   0  0  0  0  0  0  0  0  0  0  0  0
    7.9175  -21.3818   22.4036 C   0  0  0  0  0  0  0  0  0  0  0  0
    7.9013  -20.7770   21.0272 C   0  0  2  0  0  0  0  0  0  0  0  0
    8.8128  -21.5387   20.2011 N   0  0  0  0  0  0  0  0  0  0  0  0
    8.1995  -19.3367   21.0217 C   0  0  0  0  0  0  0  0  0  0  0  0
    9.3691  -18.9520   20.7603 O   0  0  0  0  0  0  0  0  0  0  0  0
    7.2656  -18.3120   21.2915 N   0  0  0  0  0  0  0  0  0  0  0  0
    7.5899  -16.9227   21.3429 C   0  0  1  0  0  0  0  0  0  0  0  0
    6.4990  -15.9692   21.1141 C   0  0  0  0  0  0  0  0  0  0  0  0
    6.9275  -14.5488   21.0134 C   0  0  0  0  0  0  0  0  0  0  0  0
    7.5760  -14.0718   19.8714 C   0  0  0  0  0  0  0  0  0  0  0  0
    7.9782  -12.7580   19.7687 C   0  0  0  0  0  0  0  0  0  0  0  0
    7.7571  -11.8464   20.7963 C   0  0  0  0  0  0  0  0  0  0  0  0
    7.1235  -12.3022   21.9182 C   0  0  0  0  0  0  0  0  0  0  0  0
    6.7244  -13.6217   22.0109 C   0  0  0  0  0  0  0  0  0  0  0  0
    8.2873  -16.6205   22.6072 C   0  0  0  0  0  0  0  0  0  0  0  0
    7.8062  -17.0247   23.7202 O   0  0  0  0  0  0  0  0  0  0  0  0
    9.5103  -15.8869   22.7032 N   0  0  0  0  0  0  0  0  0  0  0  0
   10.0762  -15.5555   24.0319 C   0  0  1  0  0  0  0  0  0  0  0  0
    9.1110  -16.1035   25.0286 C   0  0  0  0  0  0  0  0  0  0  0  0
    7.9094  -15.3164   25.3005 C   0  0  0  0  0  0  0  0  0  0  0  0
    6.5835  -15.7449   25.3792 C   0  0  0  0  0  0  0  0  0  0  0  0
    5.7693  -14.7022   25.6176 N   0  0  0  0  0  0  0  0  0  0  0  0
    6.5104  -13.5914   25.7010 C   0  0  0  0  0  0  0  0  0  0  0  0
    6.1225  -12.2917   25.9457 C   0  0  0  0  0  0  0  0  0  0  0  0
    7.0620  -11.2872   26.0089 C   0  0  0  0  0  0  0  0  0  0  0  0
    8.3821  -11.6220   25.8218 C   0  0  0  0  0  0  0  0  0  0  0  0
    8.7422  -12.9117   25.5809 C   0  0  0  0  0  0  0  0  0  0  0  0
    7.8423  -13.9580   25.5062 C   0  0  0  0  0  0  0  0  0  0  0  0
   11.3916  -16.1695   24.1355 C   0  0  0  0  0  0  0  0  0  0  0  0
   12.3725  -15.5166   24.5647 O   0  0  0  0  0  0  0  0  0  0  0  0
   11.6497  -17.4942   23.7805 O   0  0  0  0  0  0  0  0  0  0  0  0
  1  2  1  0
  3  2  1  0
  4  3  1  0
  5  6  1  6
  5  4  1  0
  7  5  1  0
  8  7  2  0
  9  7  1  0
 10  9  1  0
 10 11  1  1
 11 12  1  0
 12 13  2  0
 13 14  1  0
 15 14  2  0
 16 15  1  0
 17 12  1  0
 17 16  2  0
 18 10  1  0
 19 18  2  0
 20 18  1  0
 21 20  1  0
 21 22  1  1
 22 23  1  0
 23 31  1  0
 24 23  2  0
 24 25  1  0
 25 26  1  0
 26 27  1  0
 27 28  2  0
 29 28  1  0
 30 29  2  0
 31 26  2  0
 31 30  1  0
 32 21  1  0
 32 34  1  0
 33 32  2  0
M  END
$$$$
