MFW.pdb
     RDKit          3D

 34 36  0  0  1  0  0  0  0  0999 V2000
   12.0516  -20.7966   20.4742 C   0  0  0  0  0  0  0  0  0  0  0  0
   11.2492  -20.5449   18.8686 S   0  0  0  0  0  0  0  0  0  0  0  0
    9.6898  -19.6409   19.0798 C   0  0  0  0  0  0  0  0  0  0  0  0
    9.8228  -18.6377   20.2256 C   0  0  0  0  0  0  0  0  0  0  0  0
    8.6912  -17.6599   20.0703 C   0  0  2  0  0  0  0  0  0  0  0  0
    8.6730  -17.2237   18.6908 N   0  0  0  0  0  0  0  0  0  0  0  0
    8.7579  -16.5381   21.0191 C   0  0  0  0  0  0  0  0  0  0  0  0
    9.7191  -15.7287   20.9476 O   0  0  0  0  0  0  0  0  0  0  0  0
    7.8135  -16.2764   22.0364 N   0  0  0  0  0  0  0  0  0  0  0  0
    7.9488  -15.2424   23.0113 C   0  0  1  0  0  0  0  0  0  0  0  0
    6.7148  -14.6457   23.5334 C   0  0  0  0  0  0  0  0  0  0  0  0
    6.9224  -13.5855   24.5554 C   0  0  0  0  0  0  0  0  0  0  0  0
    7.6595  -12.4358   24.2603 C   0  0  0  0  0  0  0  0  0  0  0  0
    7.8587  -11.4484   25.2004 C   0  0  0  0  0  0  0  0  0  0  0  0
    7.3356  -11.5504   26.4856 C   0  0  0  0  0  0  0  0  0  0  0  0
    6.6129  -12.6710   26.7852 C   0  0  0  0  0  0  0  0  0  0  0  0
    6.4191  -13.6552   25.8351 C   0  0  0  0  0  0  0  0  0  0  0  0
    8.8082  -15.7088   24.1159 C   0  0  0  0  0  0  0  0  0  0  0  0
    8.3355  -15.8145   25.2986 O   0  0  0  0  0  0  0  0  0  0  0  0
   10.1830  -16.0736   23.9749 N   0  0  0  0  0  0  0  0  0  0  0  0
   11.0498  -16.1828   25.1718 C   0  0  1  0  0  0  0  0  0  0  0  0
   10.5633  -17.3825   25.9129 C   0  0  0  0  0  0  0  0  0  0  0  0
    9.6433  -17.1549   27.0260 C   0  0  0  0  0  0  0  0  0  0  0  0
    8.2782  -17.4353   27.1025 C   0  0  0  0  0  0  0  0  0  0  0  0
    7.7874  -17.0449   28.2916 N   0  0  0  0  0  0  0  0  0  0  0  0
    8.7823  -16.5134   29.0111 C   0  0  0  0  0  0  0  0  0  0  0  0
    8.7642  -15.9936   30.2873 C   0  0  0  0  0  0  0  0  0  0  0  0
    9.9204  -15.5071   30.8551 C   0  0  0  0  0  0  0  0  0  0  0  0
   11.0772  -15.5577   30.1141 C   0  0  0  0  0  0  0  0  0  0  0  0
   11.0716  -16.0748   28.8557 C   0  0  0  0  0  0  0  0  0  0  0  0
    9.9415  -16.5754   28.2373 C   0  0  0  0  0  0  0  0  0  0  0  0
   12.4284  -16.3246   24.7274 C   0  0  0  0  0  0  0  0  0  0  0  0
   13.3631  -16.4247   25.5575 O   0  0  0  0  0  0  0  0  0  0  0  0
   12.8006  -16.3644   23.3831 O   0  0  0  0  0  0  0  0  0  0  0  0
  1  2  1  0
  3  2  1  0
  4  3  1  0
  5  6  1  6
  5  4  1  0
  7  5  1  0
  8  7  2  0
  9  7  1  0
 10  9  1  0
 10 11  1  1
 11 12  1  0
 12 13  2  0
 13 14  1  0
 15 14  2  0
 16 15  1  0
 17 12  1  0
 17 16  2  0
 18 10  1  0
 19 18  2  0
 20 18  1  0
 21 20  1  0
 21 22  1  6
 22 23  1  0
 23 31  1  0
 24 23  2  0
 24 25  1  0
 25 26  1  0
 26 27  1  0
 27 28  2  0
 29 28  1  0
 30 29  2  0
 31 26  2  0
 31 30  1  0
 32 21  1  0
 32 34  1  0
 33 32  2  0
M  END
$$$$
