MFW.pdb
     RDKit          3D

 34 36  0  0  1  0  0  0  0  0999 V2000
   14.1315  -18.9631   15.6093 C   0  0  0  0  0  0  0  0  0  0  0  0
   13.3416  -17.6088   16.5186 S   0  0  0  0  0  0  0  0  0  0  0  0
   12.9495  -18.1326   18.2115 C   0  0  0  0  0  0  0  0  0  0  0  0
   12.3769  -16.9544   18.9995 C   0  0  0  0  0  0  0  0  0  0  0  0
   11.0505  -17.4086   19.5426 C   0  0  2  0  0  0  0  0  0  0  0  0
   10.0554  -17.1865   18.5159 N   0  0  0  0  0  0  0  0  0  0  0  0
   10.6977  -16.7734   20.8214 C   0  0  0  0  0  0  0  0  0  0  0  0
   11.5750  -16.6663   21.7174 O   0  0  0  0  0  0  0  0  0  0  0  0
    9.4246  -16.2560   21.1483 N   0  0  0  0  0  0  0  0  0  0  0  0
    9.0841  -15.7047   22.4203 C   0  0  1  0  0  0  0  0  0  0  0  0
    7.8245  -14.9591   22.5139 C   0  0  0  0  0  0  0  0  0  0  0  0
    7.5550  -14.3614   23.8486 C   0  0  0  0  0  0  0  0  0  0  0  0
    6.8218  -15.0565   24.8138 C   0  0  0  0  0  0  0  0  0  0  0  0
    6.5655  -14.5111   26.0528 C   0  0  0  0  0  0  0  0  0  0  0  0
    7.0246  -13.2444   26.4000 C   0  0  0  0  0  0  0  0  0  0  0  0
    7.7430  -12.5554   25.4635 C   0  0  0  0  0  0  0  0  0  0  0  0
    7.9943  -13.1116   24.2239 C   0  0  0  0  0  0  0  0  0  0  0  0
    9.1419  -16.7583   23.4513 C   0  0  0  0  0  0  0  0  0  0  0  0
    8.5670  -17.8829   23.2553 O   0  0  0  0  0  0  0  0  0  0  0  0
    9.8173  -16.6301   24.7045 N   0  0  0  0  0  0  0  0  0  0  0  0
   10.1766  -17.8389   25.4826 C   0  0  1  0  0  0  0  0  0  0  0  0
   11.2371  -17.4028   26.4368 C   0  0  0  0  0  0  0  0  0  0  0  0
   10.8031  -16.9293   27.7501 C   0  0  0  0  0  0  0  0  0  0  0  0
   10.7505  -17.6281   28.9572 C   0  0  0  0  0  0  0  0  0  0  0  0
   10.2613  -16.8411   29.9311 N   0  0  0  0  0  0  0  0  0  0  0  0
    9.9864  -15.6391   29.4119 C   0  0  0  0  0  0  0  0  0  0  0  0
    9.4847  -14.5107   30.0238 C   0  0  0  0  0  0  0  0  0  0  0  0
    9.2912  -13.3561   29.2992 C   0  0  0  0  0  0  0  0  0  0  0  0
    9.6118  -13.3686   27.9625 C   0  0  0  0  0  0  0  0  0  0  0  0
   10.1053  -14.4942   27.3790 C   0  0  0  0  0  0  0  0  0  0  0  0
   10.3185  -15.6793   28.0575 C   0  0  0  0  0  0  0  0  0  0  0  0
    8.9816  -18.3191   26.1603 C   0  0  0  0  0  0  0  0  0  0  0  0
    8.9996  -19.3918   26.8098 O   0  0  0  0  0  0  0  0  0  0  0  0
    7.7639  -17.6378   26.1428 O   0  0  0  0  0  0  0  0  0  0  0  0
  1  2  1  0
  3  2  1  0
  4  3  1  0
  5  6  1  6
  5  4  1  0
  7  5  1  0
  8  7  2  0
  9  7  1  0
 10  9  1  0
 10 11  1  6
 11 12  1  0
 12 13  2  0
 13 14  1  0
 15 14  2  0
 16 15  1  0
 17 12  1  0
 17 16  2  0
 18 10  1  0
 19 18  2  0
 20 18  1  0
 21 20  1  0
 21 22  1  1
 22 23  1  0
 23 31  1  0
 24 23  2  0
 24 25  1  0
 25 26  1  0
 26 27  1  0
 27 28  2  0
 29 28  1  0
 30 29  2  0
 31 26  2  0
 31 30  1  0
 32 21  1  0
 32 34  1  0
 33 32  2  0
M  END
$$$$
