WTL.pdb
     RDKit          3D

 30 31  0  0  1  0  0  0  0  0999 V2000
    9.1571  -16.4522   20.2741 N   0  0  0  0  0  0  0  0  0  0  0  0
    9.0266  -15.9682   21.6269 C   0  0  1  0  0  0  0  0  0  0  0  0
    7.6137  -15.6237   21.9137 C   0  0  0  0  0  0  0  0  0  0  0  0
    7.4145  -14.2019   22.2545 C   0  0  0  0  0  0  0  0  0  0  0  0
    7.5997  -13.1108   21.4041 C   0  0  0  0  0  0  0  0  0  0  0  0
    7.2858  -11.9889   22.0682 N   0  0  0  0  0  0  0  0  0  0  0  0
    6.8930  -12.2686   23.3410 C   0  0  0  0  0  0  0  0  0  0  0  0
    6.4900  -11.4715   24.3861 C   0  0  0  0  0  0  0  0  0  0  0  0
    6.1525  -12.0285   25.5927 C   0  0  0  0  0  0  0  0  0  0  0  0
    6.2258  -13.3941   25.7348 C   0  0  0  0  0  0  0  0  0  0  0  0
    6.6321  -14.1746   24.6742 C   0  0  0  0  0  0  0  0  0  0  0  0
    6.9805  -13.6620   23.4409 C   0  0  0  0  0  0  0  0  0  0  0  0
    9.3824  -17.0990   22.5629 C   0  0  0  0  0  0  0  0  0  0  0  0
    9.1415  -18.2927   22.2531 O   0  0  0  0  0  0  0  0  0  0  0  0
   10.5535  -19.4454   22.6654 C   0  0  0  0  0  0  0  0  0  0  0  0
   11.2860  -18.9395   23.8906 C   0  0  1  0  0  0  0  0  0  0  0  0
   12.3207  -18.1261   23.3468 O   0  0  0  0  0  0  0  0  0  0  0  0
   10.3804  -18.0082   24.6505 C   0  0  2  0  0  0  0  0  0  0  0  0
    9.9957  -16.8763   23.8164 N   0  0  0  0  0  0  0  0  0  0  0  0
   10.9944  -17.4423   25.8795 C   0  0  0  0  0  0  0  0  0  0  0  0
   12.0477  -16.7038   25.7927 O   0  0  0  0  0  0  0  0  0  0  0  0
   11.3389  -14.1783   27.7187 C   0  0  0  0  0  0  0  0  0  0  0  0
   10.1305  -15.0124   28.1789 C   0  0  2  0  0  0  0  0  0  0  0  0
    9.1543  -14.0660   28.8158 C   0  0  0  0  0  0  0  0  0  0  0  0
   10.5743  -16.1020   29.1030 C   0  0  0  0  0  0  0  0  0  0  0  0
   11.3020  -17.1706   28.3537 C   0  0  2  0  0  0  0  0  0  0  0  0
   10.5298  -17.6304   27.1979 N   0  0  0  0  0  0  0  0  0  0  0  0
   11.8001  -18.2873   29.1564 C   0  0  0  0  0  0  0  0  0  0  0  0
   11.5083  -19.6154   29.0185 O   0  0  0  0  0  0  0  0  0  0  0  0
   12.6103  -18.0085   30.1129 O   0  0  0  0  0  0  0  0  0  0  0  0
  2  1  1  6
  2 13  1  0
  3  2  1  0
  3  4  1  0
  4 12  1  0
  4  5  2  0
  5  6  1  0
  7  6  1  0
  7  8  2  0
  9  8  1  0
 10  9  2  0
 11 12  2  0
 11 10  1  0
 12  7  1  0
 13 14  2  0
 16 15  1  6
 17 16  1  0
 18 16  1  0
 19 13  1  0
 18 19  1  6
 20 18  1  0
 20 21  2  0
 23 22  1  1
 23 25  1  0
 24 23  1  0
 26 28  1  0
 26 25  1  1
 26 27  1  0
 27 20  1  0
 28 29  1  0
 30 28  2  0
M  END
$$$$
