WTL.pdb
     RDKit          3D

 30 31  0  0  1  0  0  0  0  0999 V2000
    6.2368  -17.8603   23.8125 N   0  0  0  0  0  0  0  0  0  0  0  0
    7.2339  -16.8262   23.9460 C   0  0  1  0  0  0  0  0  0  0  0  0
    7.3073  -16.3638   25.3524 C   0  0  0  0  0  0  0  0  0  0  0  0
    6.5024  -15.1553   25.6151 C   0  0  0  0  0  0  0  0  0  0  0  0
    5.1998  -15.1183   26.1151 C   0  0  0  0  0  0  0  0  0  0  0  0
    4.8252  -13.8374   26.2467 N   0  0  0  0  0  0  0  0  0  0  0  0
    5.8203  -12.9951   25.8558 C   0  0  0  0  0  0  0  0  0  0  0  0
    5.9098  -11.6244   25.8001 C   0  0  0  0  0  0  0  0  0  0  0  0
    7.0543  -11.0224   25.3443 C   0  0  0  0  0  0  0  0  0  0  0  0
    8.1050  -11.8145   24.9454 C   0  0  0  0  0  0  0  0  0  0  0  0
    7.9942  -13.1866   25.0096 C   0  0  0  0  0  0  0  0  0  0  0  0
    6.8650  -13.8391   25.4618 C   0  0  0  0  0  0  0  0  0  0  0  0
    8.5806  -17.4339   23.6319 C   0  0  0  0  0  0  0  0  0  0  0  0
    8.7811  -18.6661   23.7743 O   0  0  0  0  0  0  0  0  0  0  0  0
   10.8504  -16.6930   20.5967 C   0  0  0  0  0  0  0  0  0  0  0  0
   11.7093  -16.6218   21.8420 C   0  0  1  0  0  0  0  0  0  0  0  0
   11.7415  -15.2306   22.1443 O   0  0  0  0  0  0  0  0  0  0  0  0
   10.9745  -17.2781   22.9797 C   0  0  2  0  0  0  0  0  0  0  0  0
    9.6680  -16.6597   23.1682 N   0  0  0  0  0  0  0  0  0  0  0  0
   11.6810  -17.1874   24.2836 C   0  0  0  0  0  0  0  0  0  0  0  0
   12.8651  -17.6812   24.4110 O   0  0  0  0  0  0  0  0  0  0  0  0
   11.8496  -13.6972   26.7017 C   0  0  0  0  0  0  0  0  0  0  0  0
   10.6967  -14.5637   27.2381 C   0  0  2  0  0  0  0  0  0  0  0  0
    9.9682  -13.7467   28.2658 C   0  0  0  0  0  0  0  0  0  0  0  0
   11.2269  -15.8511   27.7854 C   0  0  0  0  0  0  0  0  0  0  0  0
   11.9182  -16.6371   26.7190 C   0  0  2  0  0  0  0  0  0  0  0  0
   11.1768  -16.5896   25.4574 N   0  0  0  0  0  0  0  0  0  0  0  0
   12.2983  -18.0033   27.0773 C   0  0  0  0  0  0  0  0  0  0  0  0
   13.5471  -18.5587   27.0596 O   0  0  0  0  0  0  0  0  0  0  0  0
   11.3603  -18.7944   27.4561 O   0  0  0  0  0  0  0  0  0  0  0  0
  2  1  1  1
  2 13  1  0
  3  2  1  0
  3  4  1  0
  4 12  1  0
  4  5  2  0
  5  6  1  0
  7  6  1  0
  7  8  2  0
  9  8  1  0
 10  9  2  0
 11 12  2  0
 11 10  1  0
 12  7  1  0
 13 14  2  0
 16 15  1  6
 17 16  1  0
 18 16  1  0
 19 13  1  0
 18 19  1  1
 20 18  1  0
 20 21  2  0
 23 22  1  1
 23 25  1  0
 24 23  1  0
 26 28  1  0
 26 25  1  1
 26 27  1  0
 27 20  1  0
 28 29  1  0
 30 28  2  0
M  END
$$$$
