WTL.pdb
     RDKit          3D

 30 31  0  0  1  0  0  0  0  0999 V2000
    7.2580  -17.7668   20.6677 N   0  0  0  0  0  0  0  0  0  0  0  0
    7.8502  -16.7491   21.5013 C   0  0  1  0  0  0  0  0  0  0  0  0
    6.8083  -16.0920   22.3259 C   0  0  0  0  0  0  0  0  0  0  0  0
    7.0773  -14.6639   22.5818 C   0  0  0  0  0  0  0  0  0  0  0  0
    7.6406  -13.7524   21.6875 C   0  0  0  0  0  0  0  0  0  0  0  0
    7.6915  -12.5479   22.2750 N   0  0  0  0  0  0  0  0  0  0  0  0
    7.1853  -12.5987   23.5374 C   0  0  0  0  0  0  0  0  0  0  0  0
    7.0321  -11.6461   24.5167 C   0  0  0  0  0  0  0  0  0  0  0  0
    6.4889  -11.9806   25.7304 C   0  0  0  0  0  0  0  0  0  0  0  0
    6.1031  -13.2826   25.9464 C   0  0  0  0  0  0  0  0  0  0  0  0
    6.2655  -14.2217   24.9510 C   0  0  0  0  0  0  0  0  0  0  0  0
    6.8052  -13.9342   23.7136 C   0  0  0  0  0  0  0  0  0  0  0  0
    8.7881  -17.4283   22.4710 C   0  0  0  0  0  0  0  0  0  0  0  0
    8.3962  -18.3863   23.1834 O   0  0  0  0  0  0  0  0  0  0  0  0
   13.2531  -18.7517   23.8138 C   0  0  0  0  0  0  0  0  0  0  0  0
   12.3729  -17.9516   22.8764 C   0  0  1  0  0  0  0  0  0  0  0  0
   12.1779  -18.8303   21.7728 O   0  0  0  0  0  0  0  0  0  0  0  0
   11.0198  -17.7734   23.5107 C   0  0  2  0  0  0  0  0  0  0  0  0
   10.1345  -17.0278   22.6245 N   0  0  0  0  0  0  0  0  0  0  0  0
   11.0526  -17.0352   24.7997 C   0  0  0  0  0  0  0  0  0  0  0  0
   11.1211  -15.7477   24.8038 O   0  0  0  0  0  0  0  0  0  0  0  0
    8.7617  -14.1435   28.7337 C   0  0  0  0  0  0  0  0  0  0  0  0
   10.1009  -14.8586   28.4822 C   0  0  2  0  0  0  0  0  0  0  0  0
   11.1536  -13.7961   28.3505 C   0  0  0  0  0  0  0  0  0  0  0  0
   10.0019  -15.7346   27.2736 C   0  0  0  0  0  0  0  0  0  0  0  0
   11.0576  -16.7918   27.2959 C   0  0  2  0  0  0  0  0  0  0  0  0
   11.0133  -17.6141   26.0853 N   0  0  0  0  0  0  0  0  0  0  0  0
   11.1186  -17.6082   28.5080 C   0  0  0  0  0  0  0  0  0  0  0  0
   11.8919  -17.4071   29.6169 O   0  0  0  0  0  0  0  0  0  0  0  0
   10.3631  -18.6455   28.5569 O   0  0  0  0  0  0  0  0  0  0  0  0
  2  1  1  6
  2 13  1  0
  3  2  1  0
  3  4  1  0
  4 12  1  0
  4  5  2  0
  5  6  1  0
  7  6  1  0
  7  8  2  0
  9  8  1  0
 10  9  2  0
 11 12  2  0
 11 10  1  0
 12  7  1  0
 13 14  2  0
 16 15  1  1
 17 16  1  0
 18 16  1  0
 19 13  1  0
 18 19  1  6
 20 18  1  0
 20 21  2  0
 23 22  1  6
 23 25  1  0
 24 23  1  0
 26 28  1  0
 26 25  1  1
 26 27  1  0
 27 20  1  0
 28 29  1  0
 30 28  2  0
M  END
$$$$
