WTL.pdb
     RDKit          3D

 30 31  0  0  1  0  0  0  0  0999 V2000
    6.0461  -17.1869   24.4478 N   0  0  0  0  0  0  0  0  0  0  0  0
    7.2218  -16.3693   24.2730 C   0  0  1  0  0  0  0  0  0  0  0  0
    7.5121  -15.6171   25.5169 C   0  0  0  0  0  0  0  0  0  0  0  0
    6.6191  -14.4610   25.7250 C   0  0  0  0  0  0  0  0  0  0  0  0
    5.4206  -14.4564   26.4401 C   0  0  0  0  0  0  0  0  0  0  0  0
    4.9187  -13.2128   26.4316 N   0  0  0  0  0  0  0  0  0  0  0  0
    5.7266  -12.3651   25.7379 C   0  0  0  0  0  0  0  0  0  0  0  0
    5.6377  -11.0239   25.4493 C   0  0  0  0  0  0  0  0  0  0  0  0
    6.6106  -10.4093   24.7038 C   0  0  0  0  0  0  0  0  0  0  0  0
    7.6713  -11.1590   24.2527 C   0  0  0  0  0  0  0  0  0  0  0  0
    7.7408  -12.5020   24.5537 C   0  0  0  0  0  0  0  0  0  0  0  0
    6.7885  -13.1653   25.3009 C   0  0  0  0  0  0  0  0  0  0  0  0
    8.4000  -17.2882   24.0521 C   0  0  0  0  0  0  0  0  0  0  0  0
    8.4563  -18.4110   24.6134 O   0  0  0  0  0  0  0  0  0  0  0  0
   10.7621  -17.7843   20.8751 C   0  0  0  0  0  0  0  0  0  0  0  0
   11.5876  -17.4348   22.0958 C   0  0  1  0  0  0  0  0  0  0  0  0
   11.7685  -16.0268   21.9824 O   0  0  0  0  0  0  0  0  0  0  0  0
   10.7509  -17.6490   23.3282 C   0  0  2  0  0  0  0  0  0  0  0  0
    9.4833  -16.9381   23.2150 N   0  0  0  0  0  0  0  0  0  0  0  0
   11.3940  -17.1760   24.5813 C   0  0  0  0  0  0  0  0  0  0  0  0
   12.1465  -16.1293   24.5644 O   0  0  0  0  0  0  0  0  0  0  0  0
   11.5341  -14.4781   27.3736 C   0  0  0  0  0  0  0  0  0  0  0  0
   10.5549  -15.6180   27.7046 C   0  0  2  0  0  0  0  0  0  0  0  0
    9.6323  -15.1136   28.7764 C   0  0  0  0  0  0  0  0  0  0  0  0
   11.3067  -16.8453   28.1123 C   0  0  0  0  0  0  0  0  0  0  0  0
   12.1183  -17.3738   26.9743 C   0  0  2  0  0  0  0  0  0  0  0  0
   11.2660  -17.7729   25.8528 N   0  0  0  0  0  0  0  0  0  0  0  0
   13.0950  -18.4087   27.3127 C   0  0  0  0  0  0  0  0  0  0  0  0
   14.1703  -18.3058   28.1500 O   0  0  0  0  0  0  0  0  0  0  0  0
   12.9434  -19.5612   26.7669 O   0  0  0  0  0  0  0  0  0  0  0  0
  2  1  1  1
  2 13  1  0
  3  2  1  0
  3  4  1  0
  4 12  1  0
  4  5  2  0
  5  6  1  0
  7  6  1  0
  7  8  2  0
  9  8  1  0
 10  9  2  0
 11 12  2  0
 11 10  1  0
 12  7  1  0
 13 14  2  0
 16 15  1  6
 17 16  1  0
 18 16  1  0
 19 13  1  0
 18 19  1  6
 20 18  1  0
 20 21  2  0
 23 22  1  1
 23 25  1  0
 24 23  1  0
 26 28  1  0
 26 25  1  1
 26 27  1  0
 27 20  1  0
 28 29  1  0
 30 28  2  0
M  END
$$$$
