WTL.pdb
     RDKit          3D

 30 31  0  0  1  0  0  0  0  0999 V2000
    8.0146  -16.7993   20.1729 N   0  0  0  0  0  0  0  0  0  0  0  0
    8.3933  -16.1077   21.3810 C   0  0  1  0  0  0  0  0  0  0  0  0
    7.1883  -15.6034   22.0818 C   0  0  0  0  0  0  0  0  0  0  0  0
    7.2642  -14.1692   22.4205 C   0  0  0  0  0  0  0  0  0  0  0  0
    7.6883  -13.1393   21.5795 C   0  0  0  0  0  0  0  0  0  0  0  0
    7.5823  -11.9752   22.2369 N   0  0  0  0  0  0  0  0  0  0  0  0
    7.1025  -12.1675   23.4960 C   0  0  0  0  0  0  0  0  0  0  0  0
    6.8331  -11.3030   24.5304 C   0  0  0  0  0  0  0  0  0  0  0  0
    6.3546  -11.7781   25.7242 C   0  0  0  0  0  0  0  0  0  0  0  0
    6.1515  -13.1308   25.8645 C   0  0  0  0  0  0  0  0  0  0  0  0
    6.4278  -13.9797   24.8148 C   0  0  0  0  0  0  0  0  0  0  0  0
    6.9091  -13.5502   23.5944 C   0  0  0  0  0  0  0  0  0  0  0  0
    9.0325  -17.1110   22.3117 C   0  0  0  0  0  0  0  0  0  0  0  0
    8.4813  -18.2156   22.5460 O   0  0  0  0  0  0  0  0  0  0  0  0
   11.7397  -18.9972   21.8768 C   0  0  0  0  0  0  0  0  0  0  0  0
   12.0697  -18.4693   23.2574 C   0  0  1  0  0  0  0  0  0  0  0  0
   12.9537  -17.3840   22.9956 O   0  0  0  0  0  0  0  0  0  0  0  0
   10.8301  -17.8613   23.8565 C   0  0  2  0  0  0  0  0  0  0  0  0
   10.2650  -16.8630   22.9570 N   0  0  0  0  0  0  0  0  0  0  0  0
   11.0623  -17.1805   25.1565 C   0  0  0  0  0  0  0  0  0  0  0  0
   10.7037  -15.9522   25.3141 O   0  0  0  0  0  0  0  0  0  0  0  0
    9.9258  -13.7139   27.3579 C   0  0  0  0  0  0  0  0  0  0  0  0
   10.3375  -15.0861   27.9195 C   0  0  2  0  0  0  0  0  0  0  0  0
   10.4171  -14.9490   29.4125 C   0  0  0  0  0  0  0  0  0  0  0  0
   11.6265  -15.5322   27.3051 C   0  0  0  0  0  0  0  0  0  0  0  0
   11.8455  -16.9929   27.5317 C   0  0  2  0  0  0  0  0  0  0  0  0
   11.6599  -17.7570   26.2967 N   0  0  0  0  0  0  0  0  0  0  0  0
   11.1140  -17.5821   28.6530 C   0  0  0  0  0  0  0  0  0  0  0  0
   10.2930  -18.6748   28.6376 O   0  0  0  0  0  0  0  0  0  0  0  0
   11.2434  -17.0195   29.8001 O   0  0  0  0  0  0  0  0  0  0  0  0
  2  1  1  6
  2 13  1  0
  3  2  1  0
  3  4  1  0
  4 12  1  0
  4  5  2  0
  5  6  1  0
  7  6  1  0
  7  8  2  0
  9  8  1  0
 10  9  2  0
 11 12  2  0
 11 10  1  0
 12  7  1  0
 13 14  2  0
 16 15  1  6
 17 16  1  0
 18 16  1  0
 19 13  1  0
 18 19  1  6
 20 18  1  0
 20 21  2  0
 23 22  1  6
 23 25  1  0
 24 23  1  0
 26 28  1  0
 26 25  1  6
 26 27  1  0
 27 20  1  0
 28 29  1  0
 30 28  2  0
M  END
$$$$
