WTL.pdb
     RDKit          3D

 30 31  0  0  1  0  0  0  0  0999 V2000
    5.8389  -17.5817   24.3639 N   0  0  0  0  0  0  0  0  0  0  0  0
    7.0280  -16.7863   24.1783 C   0  0  1  0  0  0  0  0  0  0  0  0
    7.0560  -15.6713   25.1547 C   0  0  0  0  0  0  0  0  0  0  0  0
    6.7396  -14.3600   24.5565 C   0  0  0  0  0  0  0  0  0  0  0  0
    5.8770  -13.3956   25.0798 C   0  0  0  0  0  0  0  0  0  0  0  0
    5.8792  -12.3292   24.2667 N   0  0  0  0  0  0  0  0  0  0  0  0
    6.7094  -12.5255   23.2062 C   0  0  0  0  0  0  0  0  0  0  0  0
    7.0352  -11.7437   22.1233 C   0  0  0  0  0  0  0  0  0  0  0  0
    7.9130  -12.2033   21.1756 C   0  0  0  0  0  0  0  0  0  0  0  0
    8.4573  -13.4564   21.3300 C   0  0  0  0  0  0  0  0  0  0  0  0
    8.1172  -14.2235   22.4231 C   0  0  0  0  0  0  0  0  0  0  0  0
    7.2404  -13.8053   23.4037 C   0  0  0  0  0  0  0  0  0  0  0  0
    8.2232  -17.6536   24.4956 C   0  0  0  0  0  0  0  0  0  0  0  0
    8.1799  -18.4957   25.4272 O   0  0  0  0  0  0  0  0  0  0  0  0
   12.1615  -17.0685   22.7427 C   0  0  0  0  0  0  0  0  0  0  0  0
   11.6251  -18.4245   23.1514 C   0  0  1  0  0  0  0  0  0  0  0  0
   12.7539  -19.0656   23.7369 O   0  0  0  0  0  0  0  0  0  0  0  0
   10.6281  -18.2399   24.2636 C   0  0  2  0  0  0  0  0  0  0  0  0
    9.4336  -17.5643   23.7717 N   0  0  0  0  0  0  0  0  0  0  0  0
   11.1380  -17.4299   25.3999 C   0  0  0  0  0  0  0  0  0  0  0  0
   11.9756  -16.4734   25.1853 O   0  0  0  0  0  0  0  0  0  0  0  0
   11.1134  -13.9893   26.9468 C   0  0  0  0  0  0  0  0  0  0  0  0
   10.0034  -14.9163   27.4724 C   0  0  2  0  0  0  0  0  0  0  0  0
    8.9240  -14.0395   28.0386 C   0  0  0  0  0  0  0  0  0  0  0  0
   10.5610  -15.8762   28.4752 C   0  0  0  0  0  0  0  0  0  0  0  0
   11.4756  -16.8587   27.8186 C   0  0  2  0  0  0  0  0  0  0  0  0
   10.7898  -17.5970   26.7565 N   0  0  0  0  0  0  0  0  0  0  0  0
   12.2071  -17.7504   28.7183 C   0  0  0  0  0  0  0  0  0  0  0  0
   13.1545  -17.4149   29.6445 O   0  0  0  0  0  0  0  0  0  0  0  0
   11.9436  -19.0051   28.6448 O   0  0  0  0  0  0  0  0  0  0  0  0
  2  1  1  1
  2 13  1  0
  3  2  1  0
  3  4  1  0
  4 12  1  0
  4  5  2  0
  5  6  1  0
  7  6  1  0
  7  8  2  0
  9  8  1  0
 10  9  2  0
 11 12  2  0
 11 10  1  0
 12  7  1  0
 13 14  2  0
 16 15  1  1
 17 16  1  0
 18 16  1  0
 19 13  1  0
 18 19  1  6
 20 18  1  0
 20 21  2  0
 23 22  1  1
 23 25  1  0
 24 23  1  0
 26 28  1  0
 26 25  1  1
 26 27  1  0
 27 20  1  0
 28 29  1  0
 30 28  2  0
M  END
$$$$
