WTL.pdb
     RDKit          3D

 30 31  0  0  1  0  0  0  0  0999 V2000
    6.6771  -16.7024   23.0773 N   0  0  0  0  0  0  0  0  0  0  0  0
    7.8418  -15.9182   23.4086 C   0  0  1  0  0  0  0  0  0  0  0  0
    7.8436  -15.5891   24.8540 C   0  0  0  0  0  0  0  0  0  0  0  0
    6.7302  -14.7080   25.2561 C   0  0  0  0  0  0  0  0  0  0  0  0
    5.5800  -15.0881   25.9493 C   0  0  0  0  0  0  0  0  0  0  0  0
    4.8235  -14.0005   26.1575 N   0  0  0  0  0  0  0  0  0  0  0  0
    5.4104  -12.8900   25.6334 C   0  0  0  0  0  0  0  0  0  0  0  0
    5.0280  -11.5702   25.5872 C   0  0  0  0  0  0  0  0  0  0  0  0
    5.8244  -10.6388   24.9721 C   0  0  0  0  0  0  0  0  0  0  0  0
    7.0073  -11.0507   24.4049 C   0  0  0  0  0  0  0  0  0  0  0  0
    7.3716  -12.3784   24.4627 C   0  0  0  0  0  0  0  0  0  0  0  0
    6.6057  -13.3525   25.0709 C   0  0  0  0  0  0  0  0  0  0  0  0
    9.0633  -16.7741   23.1705 C   0  0  0  0  0  0  0  0  0  0  0  0
    9.1151  -17.5675   22.1975 O   0  0  0  0  0  0  0  0  0  0  0  0
   10.8832  -17.3634   21.3597 C   0  0  0  0  0  0  0  0  0  0  0  0
   11.9524  -17.2901   22.4297 C   0  0  1  0  0  0  0  0  0  0  0  0
   12.2893  -15.9070   22.4685 O   0  0  0  0  0  0  0  0  0  0  0  0
   11.3304  -17.6046   23.7635 C   0  0  2  0  0  0  0  0  0  0  0  0
   10.1941  -16.7272   24.0167 N   0  0  0  0  0  0  0  0  0  0  0  0
   12.2580  -17.4427   24.9127 C   0  0  0  0  0  0  0  0  0  0  0  0
   13.1905  -16.5534   24.8683 O   0  0  0  0  0  0  0  0  0  0  0  0
   12.2202  -14.8396   27.4814 C   0  0  0  0  0  0  0  0  0  0  0  0
   11.3834  -16.0984   27.7692 C   0  0  2  0  0  0  0  0  0  0  0  0
   10.2755  -15.6923   28.6977 C   0  0  0  0  0  0  0  0  0  0  0  0
   12.2502  -17.1795   28.3331 C   0  0  0  0  0  0  0  0  0  0  0  0
   13.0623  -17.8246   27.2574 C   0  0  2  0  0  0  0  0  0  0  0  0
   12.2308  -18.1896   26.1090 N   0  0  0  0  0  0  0  0  0  0  0  0
   13.9219  -18.9294   27.6817 C   0  0  0  0  0  0  0  0  0  0  0  0
   14.8764  -18.9218   28.6599 O   0  0  0  0  0  0  0  0  0  0  0  0
   13.7802  -20.0516   27.0736 O   0  0  0  0  0  0  0  0  0  0  0  0
  2  1  1  1
  2 13  1  0
  3  2  1  0
  3  4  1  0
  4 12  1  0
  4  5  2  0
  5  6  1  0
  7  6  1  0
  7  8  2  0
  9  8  1  0
 10  9  2  0
 11 12  2  0
 11 10  1  0
 12  7  1  0
 13 14  2  0
 16 15  1  6
 17 16  1  0
 18 16  1  0
 19 13  1  0
 18 19  1  1
 20 18  1  0
 20 21  2  0
 23 22  1  1
 23 25  1  0
 24 23  1  0
 26 28  1  0
 26 25  1  1
 26 27  1  0
 27 20  1  0
 28 29  1  0
 30 28  2  0
M  END
$$$$
