WTL.pdb
     RDKit          3D

 30 31  0  0  1  0  0  0  0  0999 V2000
    7.2779  -17.2114   19.9969 N   0  0  0  0  0  0  0  0  0  0  0  0
    7.8420  -16.2915   20.9545 C   0  0  1  0  0  0  0  0  0  0  0  0
    6.7686  -15.4879   21.5865 C   0  0  0  0  0  0  0  0  0  0  0  0
    7.2768  -14.3569   22.3866 C   0  0  0  0  0  0  0  0  0  0  0  0
    8.0975  -13.3228   21.9338 C   0  0  0  0  0  0  0  0  0  0  0  0
    8.3142  -12.4703   22.9461 N   0  0  0  0  0  0  0  0  0  0  0  0
    7.6743  -12.8803   24.0752 C   0  0  0  0  0  0  0  0  0  0  0  0
    7.6014  -12.3574   25.3445 C   0  0  0  0  0  0  0  0  0  0  0  0
    6.8763  -12.9966   26.3170 C   0  0  0  0  0  0  0  0  0  0  0  0
    6.2274  -14.1660   25.9976 C   0  0  0  0  0  0  0  0  0  0  0  0
    6.3135  -14.6726   24.7190 C   0  0  0  0  0  0  0  0  0  0  0  0
    7.0288  -14.0662   23.7062 C   0  0  0  0  0  0  0  0  0  0  0  0
    8.4705  -17.1010   22.0641 C   0  0  0  0  0  0  0  0  0  0  0  0
    7.8191  -17.9966   22.6576 O   0  0  0  0  0  0  0  0  0  0  0  0
   11.3776  -19.1540   21.6757 C   0  0  0  0  0  0  0  0  0  0  0  0
   11.6813  -18.3778   22.9401 C   0  0  1  0  0  0  0  0  0  0  0  0
   12.4584  -17.2783   22.4764 O   0  0  0  0  0  0  0  0  0  0  0  0
   10.4018  -17.7889   23.4703 C   0  0  2  0  0  0  0  0  0  0  0  0
    9.8038  -16.8961   22.4853 N   0  0  0  0  0  0  0  0  0  0  0  0
   10.5753  -16.9954   24.7144 C   0  0  0  0  0  0  0  0  0  0  0  0
   10.7409  -15.7185   24.6469 O   0  0  0  0  0  0  0  0  0  0  0  0
    8.6009  -13.6830   28.4174 C   0  0  0  0  0  0  0  0  0  0  0  0
    9.7938  -14.6529   28.3541 C   0  0  2  0  0  0  0  0  0  0  0  0
   11.0438  -13.8214   28.3774 C   0  0  0  0  0  0  0  0  0  0  0  0
    9.6929  -15.5203   27.1393 C   0  0  0  0  0  0  0  0  0  0  0  0
   10.6949  -16.6275   27.1925 C   0  0  2  0  0  0  0  0  0  0  0  0
   10.5777  -17.5079   26.0285 N   0  0  0  0  0  0  0  0  0  0  0  0
   10.7471  -17.3823   28.4444 C   0  0  0  0  0  0  0  0  0  0  0  0
   10.0829  -18.5351   28.7572 O   0  0  0  0  0  0  0  0  0  0  0  0
   11.5012  -16.9230   29.3768 O   0  0  0  0  0  0  0  0  0  0  0  0
  2  1  1  6
  2 13  1  0
  3  2  1  0
  3  4  1  0
  4 12  1  0
  4  5  2  0
  5  6  1  0
  7  6  1  0
  7  8  2  0
  9  8  1  0
 10  9  2  0
 11 12  2  0
 11 10  1  0
 12  7  1  0
 13 14  2  0
 16 15  1  6
 17 16  1  0
 18 16  1  0
 19 13  1  0
 18 19  1  6
 20 18  1  0
 20 21  2  0
 23 22  1  6
 23 25  1  0
 24 23  1  0
 26 28  1  0
 26 25  1  1
 26 27  1  0
 27 20  1  0
 28 29  1  0
 30 28  2  0
M  END
$$$$
