WTL.pdb
     RDKit          3D

 30 31  0  0  1  0  0  0  0  0999 V2000
    6.3474  -17.1552   24.3940 N   0  0  0  0  0  0  0  0  0  0  0  0
    7.5053  -16.3030   24.2737 C   0  0  1  0  0  0  0  0  0  0  0  0
    7.7732  -15.6182   25.5608 C   0  0  0  0  0  0  0  0  0  0  0  0
    6.8287  -14.5217   25.8493 C   0  0  0  0  0  0  0  0  0  0  0  0
    5.6544  -14.6135   26.5980 C   0  0  0  0  0  0  0  0  0  0  0  0
    5.0892  -13.3991   26.6632 N   0  0  0  0  0  0  0  0  0  0  0  0
    5.8303  -12.4788   25.9878 C   0  0  0  0  0  0  0  0  0  0  0  0
    5.6635  -11.1323   25.7661 C   0  0  0  0  0  0  0  0  0  0  0  0
    6.5798  -10.4334   25.0231 C   0  0  0  0  0  0  0  0  0  0  0  0
    7.6631  -11.1044   24.5065 C   0  0  0  0  0  0  0  0  0  0  0  0
    7.8110  -12.4542   24.7410 C   0  0  0  0  0  0  0  0  0  0  0  0
    6.9179  -13.2007   25.4828 C   0  0  0  0  0  0  0  0  0  0  0  0
    8.7048  -17.1812   24.0066 C   0  0  0  0  0  0  0  0  0  0  0  0
    8.7485  -18.3613   24.4360 O   0  0  0  0  0  0  0  0  0  0  0  0
   11.2705  -17.1230   20.9573 C   0  0  0  0  0  0  0  0  0  0  0  0
   12.0221  -17.0196   22.2681 C   0  0  1  0  0  0  0  0  0  0  0  0
   12.2421  -15.6204   22.4154 O   0  0  0  0  0  0  0  0  0  0  0  0
   11.1019  -17.4167   23.3907 C   0  0  2  0  0  0  0  0  0  0  0  0
    9.8227  -16.7280   23.2705 N   0  0  0  0  0  0  0  0  0  0  0  0
   11.6309  -17.0998   24.7425 C   0  0  0  0  0  0  0  0  0  0  0  0
   12.6526  -16.3236   24.8693 O   0  0  0  0  0  0  0  0  0  0  0  0
   10.5513  -14.5159   27.4301 C   0  0  0  0  0  0  0  0  0  0  0  0
    9.9088  -15.8901   27.6882 C   0  0  2  0  0  0  0  0  0  0  0  0
    8.7200  -15.6645   28.5771 C   0  0  0  0  0  0  0  0  0  0  0  0
   10.9116  -16.8279   28.2822 C   0  0  0  0  0  0  0  0  0  0  0  0
   11.8237  -17.3675   27.2287 C   0  0  2  0  0  0  0  0  0  0  0  0
   11.1136  -17.5755   25.9654 N   0  0  0  0  0  0  0  0  0  0  0  0
   12.6165  -18.5367   27.6079 C   0  0  0  0  0  0  0  0  0  0  0  0
   12.6521  -19.7597   26.9986 O   0  0  0  0  0  0  0  0  0  0  0  0
   13.3775  -18.4228   28.6360 O   0  0  0  0  0  0  0  0  0  0  0  0
  2  1  1  1
  2 13  1  0
  3  2  1  0
  3  4  1  0
  4 12  1  0
  4  5  2  0
  5  6  1  0
  7  6  1  0
  7  8  2  0
  9  8  1  0
 10  9  2  0
 11 12  2  0
 11 10  1  0
 12  7  1  0
 13 14  2  0
 16 15  1  6
 17 16  1  0
 18 16  1  0
 19 13  1  0
 18 19  1  6
 20 18  1  0
 20 21  2  0
 23 22  1  1
 23 25  1  0
 24 23  1  0
 26 28  1  0
 26 25  1  1
 26 27  1  0
 27 20  1  0
 28 29  1  0
 30 28  2  0
M  END
$$$$
