WTL.pdb
     RDKit          3D

 30 31  0  0  1  0  0  0  0  0999 V2000
   10.2427  -16.0895   20.9867 N   0  0  0  0  0  0  0  0  0  0  0  0
    9.1246  -15.8959   21.8776 C   0  0  1  0  0  0  0  0  0  0  0  0
    7.8512  -16.1615   21.1668 C   0  0  0  0  0  0  0  0  0  0  0  0
    7.6949  -15.3729   19.9294 C   0  0  0  0  0  0  0  0  0  0  0  0
    7.3224  -15.8608   18.6759 C   0  0  0  0  0  0  0  0  0  0  0  0
    7.2571  -14.8337   17.8161 N   0  0  0  0  0  0  0  0  0  0  0  0
    7.5709  -13.6610   18.4315 C   0  0  0  0  0  0  0  0  0  0  0  0
    7.6498  -12.3654   17.9786 C   0  0  0  0  0  0  0  0  0  0  0  0
    8.0084  -11.3535   18.8315 C   0  0  0  0  0  0  0  0  0  0  0  0
    8.2865  -11.6604   20.1426 C   0  0  0  0  0  0  0  0  0  0  0  0
    8.2011  -12.9658   20.5758 C   0  0  0  0  0  0  0  0  0  0  0  0
    7.8436  -14.0180   19.7571 C   0  0  0  0  0  0  0  0  0  0  0  0
    9.2180  -16.9302   22.9744 C   0  0  0  0  0  0  0  0  0  0  0  0
    8.1829  -17.3783   23.5282 O   0  0  0  0  0  0  0  0  0  0  0  0
   11.2928  -20.0898   23.1010 C   0  0  0  0  0  0  0  0  0  0  0  0
   11.5414  -19.3817   24.4165 C   0  0  1  0  0  0  0  0  0  0  0  0
   12.7745  -18.7030   24.2006 O   0  0  0  0  0  0  0  0  0  0  0  0
   10.5017  -18.3086   24.5970 C   0  0  2  0  0  0  0  0  0  0  0  0
   10.4557  -17.4401   23.4272 N   0  0  0  0  0  0  0  0  0  0  0  0
   10.7420  -17.4300   25.7707 C   0  0  0  0  0  0  0  0  0  0  0  0
   10.8544  -16.1557   25.6099 O   0  0  0  0  0  0  0  0  0  0  0  0
   10.4029  -13.9557   28.2147 C   0  0  0  0  0  0  0  0  0  0  0  0
    9.4587  -14.9488   27.5149 C   0  0  2  0  0  0  0  0  0  0  0  0
    8.1108  -14.2932   27.4269 C   0  0  0  0  0  0  0  0  0  0  0  0
    9.4284  -16.2469   28.2578 C   0  0  0  0  0  0  0  0  0  0  0  0
   10.7672  -16.9097   28.2241 C   0  0  2  0  0  0  0  0  0  0  0  0
   10.8656  -17.8546   27.1101 N   0  0  0  0  0  0  0  0  0  0  0  0
   11.2188  -17.5016   29.4831 C   0  0  0  0  0  0  0  0  0  0  0  0
   11.8689  -16.8842   30.5149 O   0  0  0  0  0  0  0  0  0  0  0  0
   10.9880  -18.7523   29.6610 O   0  0  0  0  0  0  0  0  0  0  0  0
  2  1  1  6
  2 13  1  0
  3  2  1  0
  3  4  1  0
  4 12  1  0
  4  5  2  0
  5  6  1  0
  7  6  1  0
  7  8  2  0
  9  8  1  0
 10  9  2  0
 11 12  2  0
 11 10  1  0
 12  7  1  0
 13 14  2  0
 16 15  1  6
 17 16  1  0
 18 16  1  0
 19 13  1  0
 18 19  1  6
 20 18  1  0
 20 21  2  0
 23 22  1  1
 23 25  1  0
 24 23  1  0
 26 28  1  0
 26 25  1  1
 26 27  1  0
 27 20  1  0
 28 29  1  0
 30 28  2  0
M  END
$$$$
