WTL.pdb
     RDKit          3D

 30 31  0  0  1  0  0  0  0  0999 V2000
    6.0795  -17.4182   24.7647 N   0  0  0  0  0  0  0  0  0  0  0  0
    7.2516  -16.7024   24.3230 C   0  0  1  0  0  0  0  0  0  0  0  0
    7.4553  -15.4912   25.1530 C   0  0  0  0  0  0  0  0  0  0  0  0
    6.9091  -14.2637   24.5429 C   0  0  0  0  0  0  0  0  0  0  0  0
    6.0187  -13.3675   25.1363 C   0  0  0  0  0  0  0  0  0  0  0  0
    5.7852  -12.3620   24.2802 N   0  0  0  0  0  0  0  0  0  0  0  0
    6.4807  -12.5344   23.1231 C   0  0  0  0  0  0  0  0  0  0  0  0
    6.5624  -11.7932   21.9681 C   0  0  0  0  0  0  0  0  0  0  0  0
    7.3509  -12.2143   20.9285 C   0  0  0  0  0  0  0  0  0  0  0  0
    8.0543  -13.3879   21.0645 C   0  0  0  0  0  0  0  0  0  0  0  0
    7.9582  -14.1154   22.2309 C   0  0  0  0  0  0  0  0  0  0  0  0
    7.1800  -13.7332   23.3050 C   0  0  0  0  0  0  0  0  0  0  0  0
    8.4543  -17.5842   24.5629 C   0  0  0  0  0  0  0  0  0  0  0  0
    8.4566  -18.4339   25.4885 O   0  0  0  0  0  0  0  0  0  0  0  0
   11.1599  -18.9197   21.8497 C   0  0  0  0  0  0  0  0  0  0  0  0
   11.8176  -18.2580   23.0427 C   0  0  1  0  0  0  0  0  0  0  0  0
   12.0001  -16.9114   22.6170 O   0  0  0  0  0  0  0  0  0  0  0  0
   10.8304  -18.2057   24.1774 C   0  0  2  0  0  0  0  0  0  0  0  0
    9.6213  -17.5005   23.7703 N   0  0  0  0  0  0  0  0  0  0  0  0
   11.3414  -17.5113   25.3875 C   0  0  0  0  0  0  0  0  0  0  0  0
   11.6917  -16.2723   25.3203 O   0  0  0  0  0  0  0  0  0  0  0  0
    9.7075  -13.9919   28.6117 C   0  0  0  0  0  0  0  0  0  0  0  0
   10.8613  -14.8928   28.1373 C   0  0  2  0  0  0  0  0  0  0  0  0
   11.4775  -14.2307   26.9388 C   0  0  0  0  0  0  0  0  0  0  0  0
   10.3573  -16.2712   27.8475 C   0  0  0  0  0  0  0  0  0  0  0  0
   11.4745  -17.2630   27.8796 C   0  0  2  0  0  0  0  0  0  0  0  0
   11.4926  -18.0840   26.6676 N   0  0  0  0  0  0  0  0  0  0  0  0
   11.5716  -18.0766   29.0913 C   0  0  0  0  0  0  0  0  0  0  0  0
   12.3841  -17.8780   30.1723 O   0  0  0  0  0  0  0  0  0  0  0  0
   10.8111  -19.1084   29.1692 O   0  0  0  0  0  0  0  0  0  0  0  0
  2  1  1  1
  2 13  1  0
  3  2  1  0
  3  4  1  0
  4 12  1  0
  4  5  2  0
  5  6  1  0
  7  6  1  0
  7  8  2  0
  9  8  1  0
 10  9  2  0
 11 12  2  0
 11 10  1  0
 12  7  1  0
 13 14  2  0
 16 15  1  6
 17 16  1  0
 18 16  1  0
 19 13  1  0
 18 19  1  6
 20 18  1  0
 20 21  2  0
 23 22  1  6
 23 25  1  0
 24 23  1  0
 26 28  1  0
 26 25  1  1
 26 27  1  0
 27 20  1  0
 28 29  1  0
 30 28  2  0
M  END
$$$$
