CFE.pdb
     RDKit          3D

 27 27  0  0  1  0  0  0  0  0999 V2000
    8.0730  -17.9950   19.8706 N   0  0  0  0  0  0  0  0  0  0  0  0
    9.1087  -17.0021   19.7226 C   0  0  1  0  0  0  0  0  0  0  0  0
    8.8942  -16.2267   18.4457 C   0  0  0  0  0  0  0  0  0  0  0  0
    7.3239  -15.3289   18.6054 S   0  0  0  0  0  0  0  0  0  0  0  0
    9.1842  -16.1486   20.9126 C   0  0  0  0  0  0  0  0  0  0  0  0
   10.2228  -15.4780   21.1242 O   0  0  0  0  0  0  0  0  0  0  0  0
    8.1407  -16.0186   21.8733 N   0  0  0  0  0  0  0  0  0  0  0  0
    8.2423  -15.2195   23.0588 C   0  0  1  0  0  0  0  0  0  0  0  0
    6.9156  -14.6776   23.5291 C   0  0  0  0  0  0  0  0  0  0  0  0
    7.0169  -13.8778   24.7608 C   0  0  0  0  0  0  0  0  0  0  0  0
    7.4776  -12.5798   24.7394 C   0  0  0  0  0  0  0  0  0  0  0  0
    7.5699  -11.8212   25.9033 C   0  0  0  0  0  0  0  0  0  0  0  0
    7.1981  -12.3602   27.1131 C   0  0  0  0  0  0  0  0  0  0  0  0
    6.7358  -13.6551   27.1511 C   0  0  0  0  0  0  0  0  0  0  0  0
    6.6541  -14.3833   25.9883 C   0  0  0  0  0  0  0  0  0  0  0  0
    8.8809  -15.9230   24.1916 C   0  0  0  0  0  0  0  0  0  0  0  0
    8.3753  -17.0062   24.5661 O   0  0  0  0  0  0  0  0  0  0  0  0
   10.0210  -15.4695   24.8882 N   0  0  0  0  0  0  0  0  0  0  0  0
   10.8646  -16.3270   25.7325 C   0  0  1  0  0  0  0  0  0  0  0  0
   12.2412  -16.2195   25.1854 C   0  0  0  0  0  0  0  0  0  0  0  0
   13.3232  -16.9814   25.8335 C   0  0  0  0  0  0  0  0  0  0  0  0
   14.6461  -16.7962   25.2701 C   0  0  0  0  0  0  0  0  0  0  0  0
   14.9786  -15.8396   24.5795 O   0  0  0  0  0  0  0  0  0  0  0  0
   10.6377  -16.2093   27.1485 C   0  0  0  0  0  0  0  0  0  0  0  0
    9.9920  -15.2443   27.6316 O   0  0  0  0  0  0  0  0  0  0  0  0
   15.6393  -17.7940   25.5336 O   0  0  0  0  0  0  0  0  0  0  0  0
   11.1183  -17.1620   28.0406 O   0  0  0  0  0  0  0  0  0  0  0  0
  2  1  1  1
  2  3  1  0
  3  4  1  0
  5  6  2  0
  5  2  1  0
  7  5  1  0
  8  7  1  0
  8  9  1  1
  9 10  1  0
 10 11  2  0
 10 15  1  0
 11 12  1  0
 12 13  2  0
 14 13  1  0
 15 14  2  0
 16 17  2  0
 16  8  1  0
 18 16  1  0
 19 18  1  0
 19 20  1  1
 21 20  1  0
 22 21  1  0
 23 22  2  0
 24 19  1  0
 25 24  2  0
 26 22  1  0
 27 24  1  0
M  END
$$$$
