CFE.pdb
     RDKit          3D

 27 27  0  0  1  0  0  0  0  0999 V2000
    6.1968  -18.7786   20.5010 N   0  0  0  0  0  0  0  0  0  0  0  0
    6.3890  -19.0643   21.9016 C   0  0  1  0  0  0  0  0  0  0  0  0
    7.1674  -20.3477   22.0591 C   0  0  0  0  0  0  0  0  0  0  0  0
    7.1829  -20.7677   23.8256 S   0  0  0  0  0  0  0  0  0  0  0  0
    7.0083  -17.9239   22.5844 C   0  0  0  0  0  0  0  0  0  0  0  0
    8.0630  -17.4278   22.1210 O   0  0  0  0  0  0  0  0  0  0  0  0
    6.4906  -17.3193   23.7656 N   0  0  0  0  0  0  0  0  0  0  0  0
    7.1334  -16.2415   24.4580 C   0  0  1  0  0  0  0  0  0  0  0  0
    6.2113  -15.4969   25.3909 C   0  0  0  0  0  0  0  0  0  0  0  0
    6.8221  -14.2910   25.9737 C   0  0  0  0  0  0  0  0  0  0  0  0
    6.6495  -13.0495   25.4022 C   0  0  0  0  0  0  0  0  0  0  0  0
    7.2235  -11.9079   25.9550 C   0  0  0  0  0  0  0  0  0  0  0  0
    7.9844  -11.9984   27.0974 C   0  0  0  0  0  0  0  0  0  0  0  0
    8.1661  -13.2310   27.6802 C   0  0  0  0  0  0  0  0  0  0  0  0
    7.5890  -14.3431   27.1153 C   0  0  0  0  0  0  0  0  0  0  0  0
    8.3255  -16.6609   25.2254 C   0  0  0  0  0  0  0  0  0  0  0  0
    8.2285  -17.6835   25.9424 O   0  0  0  0  0  0  0  0  0  0  0  0
    9.5709  -15.9979   25.2142 N   0  0  0  0  0  0  0  0  0  0  0  0
   10.8338  -16.6117   25.6480 C   0  0  1  0  0  0  0  0  0  0  0  0
   11.8928  -16.0350   24.7809 C   0  0  0  0  0  0  0  0  0  0  0  0
   13.2929  -16.4317   25.0124 C   0  0  0  0  0  0  0  0  0  0  0  0
   14.2701  -15.8331   24.1244 C   0  0  0  0  0  0  0  0  0  0  0  0
   15.4828  -15.9770   24.2290 O   0  0  0  0  0  0  0  0  0  0  0  0
   11.0248  -16.6838   27.0723 C   0  0  0  0  0  0  0  0  0  0  0  0
   11.5174  -17.7045   27.6175 O   0  0  0  0  0  0  0  0  0  0  0  0
   13.7950  -15.0165   23.0478 O   0  0  0  0  0  0  0  0  0  0  0  0
   10.6777  -15.6245   27.9042 O   0  0  0  0  0  0  0  0  0  0  0  0
  2  1  1  6
  2  3  1  0
  3  4  1  0
  5  6  2  0
  5  2  1  0
  7  5  1  0
  8  7  1  0
  8  9  1  1
  9 10  1  0
 10 11  2  0
 10 15  1  0
 11 12  1  0
 12 13  2  0
 14 13  1  0
 15 14  2  0
 16 17  2  0
 16  8  1  0
 18 16  1  0
 19 18  1  0
 19 20  1  6
 21 20  1  0
 22 21  1  0
 23 22  2  0
 24 19  1  0
 25 24  2  0
 26 22  1  0
 27 24  1  0
M  END
$$$$
