CFE.pdb
     RDKit          3D

 27 27  0  0  1  0  0  0  0  0999 V2000
    9.8250  -16.2490   18.7322 N   0  0  0  0  0  0  0  0  0  0  0  0
    8.8195  -16.6173   19.6986 C   0  0  1  0  0  0  0  0  0  0  0  0
    8.8173  -18.1145   19.8879 C   0  0  0  0  0  0  0  0  0  0  0  0
    7.2490  -18.7493   19.2285 S   0  0  0  0  0  0  0  0  0  0  0  0
    9.0049  -15.8756   20.9498 C   0  0  0  0  0  0  0  0  0  0  0  0
   10.1491  -15.8026   21.4584 O   0  0  0  0  0  0  0  0  0  0  0  0
    7.9572  -15.2133   21.6518 N   0  0  0  0  0  0  0  0  0  0  0  0
    8.1015  -14.6631   22.9674 C   0  0  1  0  0  0  0  0  0  0  0  0
    6.9270  -13.8180   23.3933 C   0  0  0  0  0  0  0  0  0  0  0  0
    7.0509  -13.2976   24.7646 C   0  0  0  0  0  0  0  0  0  0  0  0
    7.9867  -12.3402   25.0887 C   0  0  0  0  0  0  0  0  0  0  0  0
    8.1019  -11.8445   26.3847 C   0  0  0  0  0  0  0  0  0  0  0  0
    7.2726  -12.3074   27.3799 C   0  0  0  0  0  0  0  0  0  0  0  0
    6.3327  -13.2633   27.0723 C   0  0  0  0  0  0  0  0  0  0  0  0
    6.2388  -13.7367   25.7854 C   0  0  0  0  0  0  0  0  0  0  0  0
    8.3381  -15.6834   24.0109 C   0  0  0  0  0  0  0  0  0  0  0  0
    7.4874  -16.5935   24.1413 O   0  0  0  0  0  0  0  0  0  0  0  0
    9.4521  -15.7142   24.8763 N   0  0  0  0  0  0  0  0  0  0  0  0
    9.7361  -16.8103   25.8132 C   0  0  1  0  0  0  0  0  0  0  0  0
   10.8412  -17.5959   25.2071 C   0  0  0  0  0  0  0  0  0  0  0  0
   12.1816  -16.9891   25.1269 C   0  0  0  0  0  0  0  0  0  0  0  0
   12.8890  -17.1920   23.8778 C   0  0  0  0  0  0  0  0  0  0  0  0
   13.9216  -16.6116   23.5628 O   0  0  0  0  0  0  0  0  0  0  0  0
    9.7926  -16.4336   27.2008 C   0  0  0  0  0  0  0  0  0  0  0  0
    9.7193  -17.2918   28.1171 O   0  0  0  0  0  0  0  0  0  0  0  0
   12.3518  -18.1336   22.9417 O   0  0  0  0  0  0  0  0  0  0  0  0
    9.9369  -15.1047   27.5852 O   0  0  0  0  0  0  0  0  0  0  0  0
  2  1  1  6
  2  3  1  0
  3  4  1  0
  5  6  2  0
  5  2  1  0
  7  5  1  0
  8  7  1  0
  8  9  1  1
  9 10  1  0
 10 11  2  0
 10 15  1  0
 11 12  1  0
 12 13  2  0
 14 13  1  0
 15 14  2  0
 16 17  2  0
 16  8  1  0
 18 16  1  0
 19 18  1  0
 19 20  1  6
 21 20  1  0
 22 21  1  0
 23 22  2  0
 24 19  1  0
 25 24  2  0
 26 22  1  0
 27 24  1  0
M  END
$$$$
