CFE.pdb
     RDKit          3D

 27 27  0  0  1  0  0  0  0  0999 V2000
    5.3245  -16.9480   20.8920 N   0  0  0  0  0  0  0  0  0  0  0  0
    5.4356  -17.4040   22.2559 C   0  0  1  0  0  0  0  0  0  0  0  0
    5.5041  -18.9113   22.2865 C   0  0  0  0  0  0  0  0  0  0  0  0
    4.2616  -19.5415   21.1218 S   0  0  0  0  0  0  0  0  0  0  0  0
    6.5676  -16.7591   22.9289 C   0  0  0  0  0  0  0  0  0  0  0  0
    7.5443  -16.3639   22.2485 O   0  0  0  0  0  0  0  0  0  0  0  0
    6.6459  -16.5407   24.3343 N   0  0  0  0  0  0  0  0  0  0  0  0
    7.7646  -15.9248   24.9850 C   0  0  1  0  0  0  0  0  0  0  0  0
    7.4379  -15.3927   26.3580 C   0  0  0  0  0  0  0  0  0  0  0  0
    7.0770  -13.9656   26.3588 C   0  0  0  0  0  0  0  0  0  0  0  0
    8.0026  -12.9896   26.0619 C   0  0  0  0  0  0  0  0  0  0  0  0
    7.6611  -11.6398   26.0585 C   0  0  0  0  0  0  0  0  0  0  0  0
    6.3759  -11.2493   26.3557 C   0  0  0  0  0  0  0  0  0  0  0  0
    5.4399  -12.2120   26.6542 C   0  0  0  0  0  0  0  0  0  0  0  0
    5.8019  -13.5379   26.6509 C   0  0  0  0  0  0  0  0  0  0  0  0
    8.9409  -16.8126   25.1024 C   0  0  0  0  0  0  0  0  0  0  0  0
    8.7630  -17.9584   25.5764 O   0  0  0  0  0  0  0  0  0  0  0  0
   10.2555  -16.4707   24.7205 N   0  0  0  0  0  0  0  0  0  0  0  0
   11.4085  -17.3740   24.8403 C   0  0  1  0  0  0  0  0  0  0  0  0
   12.4872  -16.7795   24.0103 C   0  0  0  0  0  0  0  0  0  0  0  0
   13.7980  -17.4510   23.9639 C   0  0  0  0  0  0  0  0  0  0  0  0
   14.7965  -16.8215   23.1223 C   0  0  0  0  0  0  0  0  0  0  0  0
   15.2313  -17.3033   22.0825 O   0  0  0  0  0  0  0  0  0  0  0  0
   11.6924  -17.8348   26.1735 C   0  0  0  0  0  0  0  0  0  0  0  0
   12.3056  -18.9135   26.3783 O   0  0  0  0  0  0  0  0  0  0  0  0
   15.3159  -15.5490   23.5253 O   0  0  0  0  0  0  0  0  0  0  0  0
   11.3051  -17.1025   27.2908 O   0  0  0  0  0  0  0  0  0  0  0  0
  2  1  1  6
  2  3  1  0
  3  4  1  0
  5  6  2  0
  5  2  1  0
  7  5  1  0
  8  7  1  0
  8  9  1  1
  9 10  1  0
 10 11  2  0
 10 15  1  0
 11 12  1  0
 12 13  2  0
 14 13  1  0
 15 14  2  0
 16 17  2  0
 16  8  1  0
 18 16  1  0
 19 18  1  0
 19 20  1  1
 21 20  1  0
 22 21  1  0
 23 22  2  0
 24 19  1  0
 25 24  2  0
 26 22  1  0
 27 24  1  0
M  END
$$$$
