CFE.pdb
     RDKit          3D

 27 27  0  0  1  0  0  0  0  0999 V2000
    7.0220  -17.6506   19.3178 N   0  0  0  0  0  0  0  0  0  0  0  0
    6.9613  -18.1961   20.6517 C   0  0  1  0  0  0  0  0  0  0  0  0
    7.6629  -19.5318   20.6897 C   0  0  0  0  0  0  0  0  0  0  0  0
    7.5516  -20.1626   22.3888 S   0  0  0  0  0  0  0  0  0  0  0  0
    7.4869  -17.2379   21.6294 C   0  0  0  0  0  0  0  0  0  0  0  0
    8.6455  -16.7809   21.4819 O   0  0  0  0  0  0  0  0  0  0  0  0
    6.7633  -16.7731   22.7649 N   0  0  0  0  0  0  0  0  0  0  0  0
    7.2919  -15.8488   23.7244 C   0  0  1  0  0  0  0  0  0  0  0  0
    6.2361  -15.2461   24.6172 C   0  0  0  0  0  0  0  0  0  0  0  0
    6.7634  -14.2205   25.5322 C   0  0  0  0  0  0  0  0  0  0  0  0
    7.0065  -14.4975   26.8595 C   0  0  0  0  0  0  0  0  0  0  0  0
    7.5089  -13.5292   27.7247 C   0  0  0  0  0  0  0  0  0  0  0  0
    7.7756  -12.2604   27.2650 C   0  0  0  0  0  0  0  0  0  0  0  0
    7.5384  -11.9681   25.9420 C   0  0  0  0  0  0  0  0  0  0  0  0
    7.0421  -12.9413   25.1080 C   0  0  0  0  0  0  0  0  0  0  0  0
    8.3463  -16.4285   24.5834 C   0  0  0  0  0  0  0  0  0  0  0  0
    8.0761  -17.4776   25.2121 O   0  0  0  0  0  0  0  0  0  0  0  0
    9.6402  -15.8916   24.7521 N   0  0  0  0  0  0  0  0  0  0  0  0
   10.7617  -16.6224   25.3588 C   0  0  1  0  0  0  0  0  0  0  0  0
   11.9667  -16.2586   24.5705 C   0  0  0  0  0  0  0  0  0  0  0  0
   13.2679  -16.8300   24.9598 C   0  0  0  0  0  0  0  0  0  0  0  0
   14.3900  -16.4690   24.1158 C   0  0  0  0  0  0  0  0  0  0  0  0
   15.1625  -17.2730   23.6069 O   0  0  0  0  0  0  0  0  0  0  0  0
   10.8040  -16.5997   26.7969 C   0  0  0  0  0  0  0  0  0  0  0  0
   11.4829  -17.4354   27.4466 O   0  0  0  0  0  0  0  0  0  0  0  0
   14.6189  -15.0798   23.8527 O   0  0  0  0  0  0  0  0  0  0  0  0
   10.1002  -15.6479   27.5272 O   0  0  0  0  0  0  0  0  0  0  0  0
  2  1  1  6
  2  3  1  0
  3  4  1  0
  5  6  2  0
  5  2  1  0
  7  5  1  0
  8  7  1  0
  8  9  1  1
  9 10  1  0
 10 11  2  0
 10 15  1  0
 11 12  1  0
 12 13  2  0
 14 13  1  0
 15 14  2  0
 16 17  2  0
 16  8  1  0
 18 16  1  0
 19 18  1  0
 19 20  1  6
 21 20  1  0
 22 21  1  0
 23 22  2  0
 24 19  1  0
 25 24  2  0
 26 22  1  0
 27 24  1  0
M  END
$$$$
