CFE.pdb
     RDKit          3D

 27 27  0  0  1  0  0  0  0  0999 V2000
    8.5799  -16.1565   18.3936 N   0  0  0  0  0  0  0  0  0  0  0  0
    8.1517  -16.8483   19.5846 C   0  0  1  0  0  0  0  0  0  0  0  0
    8.7638  -18.2273   19.6222 C   0  0  0  0  0  0  0  0  0  0  0  0
    7.4052  -19.4320   19.6074 S   0  0  0  0  0  0  0  0  0  0  0  0
    8.4434  -16.0525   20.7811 C   0  0  0  0  0  0  0  0  0  0  0  0
    9.6249  -15.7018   21.0142 O   0  0  0  0  0  0  0  0  0  0  0  0
    7.4618  -15.6352   21.7252 N   0  0  0  0  0  0  0  0  0  0  0  0
    7.7692  -14.9511   22.9466 C   0  0  1  0  0  0  0  0  0  0  0  0
    6.5468  -14.4490   23.6737 C   0  0  0  0  0  0  0  0  0  0  0  0
    6.8636  -13.7358   24.9218 C   0  0  0  0  0  0  0  0  0  0  0  0
    7.4228  -12.4770   24.9087 C   0  0  0  0  0  0  0  0  0  0  0  0
    7.7191  -11.8001   26.0888 C   0  0  0  0  0  0  0  0  0  0  0  0
    7.4558  -12.3828   27.3067 C   0  0  0  0  0  0  0  0  0  0  0  0
    6.8973  -13.6394   27.3367 C   0  0  0  0  0  0  0  0  0  0  0  0
    6.6141  -14.2870   26.1579 C   0  0  0  0  0  0  0  0  0  0  0  0
    8.5676  -15.7608   23.8914 C   0  0  0  0  0  0  0  0  0  0  0  0
    8.1808  -16.9276   24.1323 O   0  0  0  0  0  0  0  0  0  0  0  0
    9.7376  -15.3219   24.5468 N   0  0  0  0  0  0  0  0  0  0  0  0
   10.7072  -16.2203   25.1892 C   0  0  1  0  0  0  0  0  0  0  0  0
   12.0382  -15.8486   24.6451 C   0  0  0  0  0  0  0  0  0  0  0  0
   13.2212  -16.6103   25.0831 C   0  0  0  0  0  0  0  0  0  0  0  0
   14.4826  -16.2039   24.4954 C   0  0  0  0  0  0  0  0  0  0  0  0
   14.7560  -16.2994   23.3044 O   0  0  0  0  0  0  0  0  0  0  0  0
   10.5301  -16.4044   26.6052 C   0  0  0  0  0  0  0  0  0  0  0  0
   10.1355  -15.4667   27.3444 O   0  0  0  0  0  0  0  0  0  0  0  0
   15.4837  -15.6513   25.3579 O   0  0  0  0  0  0  0  0  0  0  0  0
   10.7826  -17.6294   27.2135 O   0  0  0  0  0  0  0  0  0  0  0  0
  2  1  1  6
  2  3  1  0
  3  4  1  0
  5  6  2  0
  5  2  1  0
  7  5  1  0
  8  7  1  0
  8  9  1  1
  9 10  1  0
 10 11  2  0
 10 15  1  0
 11 12  1  0
 12 13  2  0
 14 13  1  0
 15 14  2  0
 16 17  2  0
 16  8  1  0
 18 16  1  0
 19 18  1  0
 19 20  1  1
 21 20  1  0
 22 21  1  0
 23 22  2  0
 24 19  1  0
 25 24  2  0
 26 22  1  0
 27 24  1  0
M  END
$$$$
