CFE.pdb
     RDKit          3D

 27 27  0  0  1  0  0  0  0  0999 V2000
   10.2415  -16.0606   19.1348 N   0  0  0  0  0  0  0  0  0  0  0  0
    9.2231  -16.5685   20.0211 C   0  0  1  0  0  0  0  0  0  0  0  0
    9.3026  -18.0745   20.0805 C   0  0  0  0  0  0  0  0  0  0  0  0
    8.5163  -18.7258   18.5789 S   0  0  0  0  0  0  0  0  0  0  0  0
    9.3157  -15.9313   21.3385 C   0  0  0  0  0  0  0  0  0  0  0  0
   10.4281  -15.8668   21.9142 O   0  0  0  0  0  0  0  0  0  0  0  0
    8.2095  -15.3642   22.0340 N   0  0  0  0  0  0  0  0  0  0  0  0
    8.2694  -14.9078   23.3914 C   0  0  1  0  0  0  0  0  0  0  0  0
    6.9660  -14.3319   23.8857 C   0  0  0  0  0  0  0  0  0  0  0  0
    7.0919  -13.6241   25.1702 C   0  0  0  0  0  0  0  0  0  0  0  0
    6.0108  -13.0075   25.7606 C   0  0  0  0  0  0  0  0  0  0  0  0
    6.1282  -12.3413   26.9775 C   0  0  0  0  0  0  0  0  0  0  0  0
    7.3419  -12.2848   27.6224 C   0  0  0  0  0  0  0  0  0  0  0  0
    8.4311  -12.8958   27.0459 C   0  0  0  0  0  0  0  0  0  0  0  0
    8.2895  -13.5472   25.8440 C   0  0  0  0  0  0  0  0  0  0  0  0
    8.7044  -15.9500   24.3455 C   0  0  0  0  0  0  0  0  0  0  0  0
    8.1157  -17.0551   24.3118 O   0  0  0  0  0  0  0  0  0  0  0  0
    9.7360  -15.7986   25.2962 N   0  0  0  0  0  0  0  0  0  0  0  0
   10.3397  -16.9132   26.0399 C   0  0  1  0  0  0  0  0  0  0  0  0
   11.5400  -17.3234   25.2673 C   0  0  0  0  0  0  0  0  0  0  0  0
   11.9526  -18.7377   25.2962 C   0  0  0  0  0  0  0  0  0  0  0  0
   13.1366  -19.0622   24.5252 C   0  0  0  0  0  0  0  0  0  0  0  0
   13.9903  -19.8706   24.8716 O   0  0  0  0  0  0  0  0  0  0  0  0
   10.4250  -16.7270   27.4642 C   0  0  0  0  0  0  0  0  0  0  0  0
   10.6537  -17.6905   28.2393 O   0  0  0  0  0  0  0  0  0  0  0  0
   13.3302  -18.3978   23.2712 O   0  0  0  0  0  0  0  0  0  0  0  0
   10.2638  -15.4719   28.0415 O   0  0  0  0  0  0  0  0  0  0  0  0
  2  1  1  6
  2  3  1  0
  3  4  1  0
  5  6  2  0
  5  2  1  0
  7  5  1  0
  8  7  1  0
  8  9  1  1
  9 10  1  0
 10 11  2  0
 10 15  1  0
 11 12  1  0
 12 13  2  0
 14 13  1  0
 15 14  2  0
 16 17  2  0
 16  8  1  0
 18 16  1  0
 19 18  1  0
 19 20  1  6
 21 20  1  0
 22 21  1  0
 23 22  2  0
 24 19  1  0
 25 24  2  0
 26 22  1  0
 27 24  1  0
M  END
$$$$
