CFE.pdb
     RDKit          3D

 27 27  0  0  1  0  0  0  0  0999 V2000
    8.6577  -17.1324   18.9482 N   0  0  0  0  0  0  0  0  0  0  0  0
    8.4168  -17.6079   20.2885 C   0  0  1  0  0  0  0  0  0  0  0  0
    9.3118  -18.7875   20.5805 C   0  0  0  0  0  0  0  0  0  0  0  0
    8.3829  -20.2949   20.1782 S   0  0  0  0  0  0  0  0  0  0  0  0
    8.5588  -16.5187   21.2598 C   0  0  0  0  0  0  0  0  0  0  0  0
    9.4949  -15.6944   21.1277 O   0  0  0  0  0  0  0  0  0  0  0  0
    7.6921  -16.3188   22.3724 N   0  0  0  0  0  0  0  0  0  0  0  0
    7.8876  -15.3023   23.3637 C   0  0  1  0  0  0  0  0  0  0  0  0
    6.7052  -15.1307   24.2842 C   0  0  0  0  0  0  0  0  0  0  0  0
    6.8695  -14.0266   25.2439 C   0  0  0  0  0  0  0  0  0  0  0  0
    7.3719  -14.2417   26.5083 C   0  0  0  0  0  0  0  0  0  0  0  0
    7.5315  -13.1974   27.4153 C   0  0  0  0  0  0  0  0  0  0  0  0
    7.1858  -11.9137   27.0618 C   0  0  0  0  0  0  0  0  0  0  0  0
    6.6829  -11.6825   25.8026 C   0  0  0  0  0  0  0  0  0  0  0  0
    6.5349  -12.7302   24.9255 C   0  0  0  0  0  0  0  0  0  0  0  0
    9.0923  -15.5125   24.1947 C   0  0  0  0  0  0  0  0  0  0  0  0
    9.2744  -14.7413   25.1648 O   0  0  0  0  0  0  0  0  0  0  0  0
   10.0583  -16.5185   23.9814 N   0  0  0  0  0  0  0  0  0  0  0  0
   11.1661  -16.8045   24.9039 C   0  0  1  0  0  0  0  0  0  0  0  0
   10.5401  -17.2319   26.1812 C   0  0  0  0  0  0  0  0  0  0  0  0
   11.4083  -17.7141   27.2698 C   0  0  0  0  0  0  0  0  0  0  0  0
   10.7286  -18.1005   28.4906 C   0  0  0  0  0  0  0  0  0  0  0  0
   10.4454  -17.3300   29.4009 O   0  0  0  0  0  0  0  0  0  0  0  0
   12.2537  -17.5610   24.3426 C   0  0  0  0  0  0  0  0  0  0  0  0
   12.1209  -18.2040   23.2700 O   0  0  0  0  0  0  0  0  0  0  0  0
   10.3583  -19.4746   28.6527 O   0  0  0  0  0  0  0  0  0  0  0  0
   13.4988  -17.6070   24.9607 O   0  0  0  0  0  0  0  0  0  0  0  0
  2  1  1  6
  2  3  1  0
  3  4  1  0
  5  6  2  0
  5  2  1  0
  7  5  1  0
  8  7  1  0
  8  9  1  1
  9 10  1  0
 10 11  2  0
 10 15  1  0
 11 12  1  0
 12 13  2  0
 14 13  1  0
 15 14  2  0
 16 17  2  0
 16  8  1  0
 18 16  1  0
 19 18  1  0
 19 20  1  1
 21 20  1  0
 22 21  1  0
 23 22  2  0
 24 19  1  0
 25 24  2  0
 26 22  1  0
 27 24  1  0
M  END
$$$$
