CFE.pdb
     RDKit          3D

 27 27  0  0  1  0  0  0  0  0999 V2000
    9.7615  -16.2340   18.7729 N   0  0  0  0  0  0  0  0  0  0  0  0
    8.8008  -16.6699   19.7564 C   0  0  1  0  0  0  0  0  0  0  0  0
    8.8681  -18.1701   19.9063 C   0  0  0  0  0  0  0  0  0  0  0  0
    7.5054  -18.6752   20.9950 S   0  0  0  0  0  0  0  0  0  0  0  0
    8.9900  -15.9525   21.0213 C   0  0  0  0  0  0  0  0  0  0  0  0
   10.1288  -15.9195   21.5458 O   0  0  0  0  0  0  0  0  0  0  0  0
    7.9519  -15.2714   21.7195 N   0  0  0  0  0  0  0  0  0  0  0  0
    8.1105  -14.6973   23.0231 C   0  0  1  0  0  0  0  0  0  0  0  0
    6.9284  -13.8674   23.4579 C   0  0  0  0  0  0  0  0  0  0  0  0
    7.0824  -13.2954   24.8054 C   0  0  0  0  0  0  0  0  0  0  0  0
    8.0486  -12.3528   25.0803 C   0  0  0  0  0  0  0  0  0  0  0  0
    8.1924  -11.8083   26.3537 C   0  0  0  0  0  0  0  0  0  0  0  0
    7.3618  -12.2062   27.3754 C   0  0  0  0  0  0  0  0  0  0  0  0
    6.3918  -13.1466   27.1169 C   0  0  0  0  0  0  0  0  0  0  0  0
    6.2700  -13.6691   25.8515 C   0  0  0  0  0  0  0  0  0  0  0  0
    8.3858  -15.6959   24.0781 C   0  0  0  0  0  0  0  0  0  0  0  0
    7.5861  -16.6523   24.1999 O   0  0  0  0  0  0  0  0  0  0  0  0
    9.4839  -15.6577   24.9633 N   0  0  0  0  0  0  0  0  0  0  0  0
    9.8748  -16.7720   25.8381 C   0  0  1  0  0  0  0  0  0  0  0  0
   11.0634  -17.3975   25.2042 C   0  0  0  0  0  0  0  0  0  0  0  0
   11.7534  -18.4891   25.9139 C   0  0  0  0  0  0  0  0  0  0  0  0
   12.8839  -19.0735   25.2195 C   0  0  0  0  0  0  0  0  0  0  0  0
   13.6018  -19.9537   25.6802 O   0  0  0  0  0  0  0  0  0  0  0  0
    9.8774  -16.4763   27.2462 C   0  0  0  0  0  0  0  0  0  0  0  0
    9.6539  -17.3680   28.1044 O   0  0  0  0  0  0  0  0  0  0  0  0
   13.1900  -18.5962   23.9042 O   0  0  0  0  0  0  0  0  0  0  0  0
   10.1334  -15.1925   27.7162 O   0  0  0  0  0  0  0  0  0  0  0  0
  2  1  1  6
  2  3  1  0
  3  4  1  0
  5  6  2  0
  5  2  1  0
  7  5  1  0
  8  7  1  0
  8  9  1  1
  9 10  1  0
 10 11  2  0
 10 15  1  0
 11 12  1  0
 12 13  2  0
 14 13  1  0
 15 14  2  0
 16 17  2  0
 16  8  1  0
 18 16  1  0
 19 18  1  0
 19 20  1  6
 21 20  1  0
 22 21  1  0
 23 22  2  0
 24 19  1  0
 25 24  2  0
 26 22  1  0
 27 24  1  0
M  END
$$$$
