CFE.pdb
     RDKit          3D

 27 27  0  0  1  0  0  0  0  0999 V2000
   10.3620  -16.4824   19.4292 N   0  0  0  0  0  0  0  0  0  0  0  0
    9.3645  -16.9150   20.3769 C   0  0  1  0  0  0  0  0  0  0  0  0
    9.5381  -18.3861   20.6656 C   0  0  0  0  0  0  0  0  0  0  0  0
   11.2097  -18.6211   21.3348 S   0  0  0  0  0  0  0  0  0  0  0  0
    9.3965  -16.0806   21.5824 C   0  0  0  0  0  0  0  0  0  0  0  0
   10.4549  -15.4810   21.8880 O   0  0  0  0  0  0  0  0  0  0  0  0
    8.2880  -15.8931   22.4570 N   0  0  0  0  0  0  0  0  0  0  0  0
    8.3425  -15.1133   23.6584 C   0  0  1  0  0  0  0  0  0  0  0  0
    6.9851  -14.6708   24.1450 C   0  0  0  0  0  0  0  0  0  0  0  0
    7.0460  -13.8118   25.3389 C   0  0  0  0  0  0  0  0  0  0  0  0
    6.7252  -14.2939   26.5888 C   0  0  0  0  0  0  0  0  0  0  0  0
    6.7863  -13.4831   27.7190 C   0  0  0  0  0  0  0  0  0  0  0  0
    7.1731  -12.1677   27.6082 C   0  0  0  0  0  0  0  0  0  0  0  0
    7.4968  -11.6713   26.3670 C   0  0  0  0  0  0  0  0  0  0  0  0
    7.4285  -12.4918   25.2664 C   0  0  0  0  0  0  0  0  0  0  0  0
    9.0324  -15.7955   24.7739 C   0  0  0  0  0  0  0  0  0  0  0  0
    8.6454  -16.9459   25.0837 O   0  0  0  0  0  0  0  0  0  0  0  0
   10.0984  -15.2515   25.5212 N   0  0  0  0  0  0  0  0  0  0  0  0
   10.8294  -15.9836   26.5651 C   0  0  1  0  0  0  0  0  0  0  0  0
   12.2560  -15.9777   26.1519 C   0  0  0  0  0  0  0  0  0  0  0  0
   12.7880  -17.1429   25.4234 C   0  0  0  0  0  0  0  0  0  0  0  0
   13.9160  -16.8772   24.5523 C   0  0  0  0  0  0  0  0  0  0  0  0
   14.8753  -17.6269   24.4110 O   0  0  0  0  0  0  0  0  0  0  0  0
   10.4665  -15.6517   27.9173 C   0  0  0  0  0  0  0  0  0  0  0  0
    9.8564  -14.5865   28.1903 O   0  0  0  0  0  0  0  0  0  0  0  0
   13.9179  -15.6577   23.8011 O   0  0  0  0  0  0  0  0  0  0  0  0
   10.7705  -16.4991   28.9775 O   0  0  0  0  0  0  0  0  0  0  0  0
  2  1  1  6
  2  3  1  0
  3  4  1  0
  5  6  2  0
  5  2  1  0
  7  5  1  0
  8  7  1  0
  8  9  1  1
  9 10  1  0
 10 11  2  0
 10 15  1  0
 11 12  1  0
 12 13  2  0
 14 13  1  0
 15 14  2  0
 16 17  2  0
 16  8  1  0
 18 16  1  0
 19 18  1  0
 19 20  1  1
 21 20  1  0
 22 21  1  0
 23 22  2  0
 24 19  1  0
 25 24  2  0
 26 22  1  0
 27 24  1  0
M  END
$$$$
