CFE.pdb
     RDKit          3D

 27 27  0  0  1  0  0  0  0  0999 V2000
    8.7256  -15.9539   18.3604 N   0  0  0  0  0  0  0  0  0  0  0  0
    8.3321  -16.7115   19.5231 C   0  0  1  0  0  0  0  0  0  0  0  0
    9.0000  -18.0646   19.5011 C   0  0  0  0  0  0  0  0  0  0  0  0
    8.4259  -18.9843   20.9578 S   0  0  0  0  0  0  0  0  0  0  0  0
    8.5973  -15.9546   20.7507 C   0  0  0  0  0  0  0  0  0  0  0  0
    9.7534  -15.5196   20.9679 O   0  0  0  0  0  0  0  0  0  0  0  0
    7.6165  -15.6673   21.7428 N   0  0  0  0  0  0  0  0  0  0  0  0
    7.8909  -14.9469   22.9512 C   0  0  1  0  0  0  0  0  0  0  0  0
    6.6510  -14.4076   23.6195 C   0  0  0  0  0  0  0  0  0  0  0  0
    6.9320  -13.6792   24.8674 C   0  0  0  0  0  0  0  0  0  0  0  0
    7.5873  -12.4676   24.8608 C   0  0  0  0  0  0  0  0  0  0  0  0
    7.8500  -11.7760   26.0403 C   0  0  0  0  0  0  0  0  0  0  0  0
    7.4552  -12.2960   27.2512 C   0  0  0  0  0  0  0  0  0  0  0  0
    6.7995  -13.5049   27.2745 C   0  0  0  0  0  0  0  0  0  0  0  0
    6.5520  -14.1682   26.0965 C   0  0  0  0  0  0  0  0  0  0  0  0
    8.6471  -15.7340   23.9484 C   0  0  0  0  0  0  0  0  0  0  0  0
    8.1552  -16.8213   24.3291 O   0  0  0  0  0  0  0  0  0  0  0  0
    9.8859  -15.3564   24.5085 N   0  0  0  0  0  0  0  0  0  0  0  0
   10.7794  -16.2766   25.2258 C   0  0  1  0  0  0  0  0  0  0  0  0
   12.1582  -15.9370   24.7904 C   0  0  0  0  0  0  0  0  0  0  0  0
   13.2925  -16.6394   25.4160 C   0  0  0  0  0  0  0  0  0  0  0  0
   14.6094  -16.2173   24.9808 C   0  0  0  0  0  0  0  0  0  0  0  0
   15.6621  -16.6778   25.4078 O   0  0  0  0  0  0  0  0  0  0  0  0
   10.4852  -16.4549   26.6229 C   0  0  0  0  0  0  0  0  0  0  0  0
   11.0214  -17.3731   27.2944 O   0  0  0  0  0  0  0  0  0  0  0  0
   14.6961  -15.1928   23.9837 O   0  0  0  0  0  0  0  0  0  0  0  0
    9.6000  -15.6144   27.2896 O   0  0  0  0  0  0  0  0  0  0  0  0
  2  1  1  6
  2  3  1  0
  3  4  1  0
  5  6  2  0
  5  2  1  0
  7  5  1  0
  8  7  1  0
  8  9  1  1
  9 10  1  0
 10 11  2  0
 10 15  1  0
 11 12  1  0
 12 13  2  0
 14 13  1  0
 15 14  2  0
 16 17  2  0
 16  8  1  0
 18 16  1  0
 19 18  1  0
 19 20  1  1
 21 20  1  0
 22 21  1  0
 23 22  2  0
 24 19  1  0
 25 24  2  0
 26 22  1  0
 27 24  1  0
M  END
$$$$
