CFE.pdb
     RDKit          3D

 27 27  0  0  1  0  0  0  0  0999 V2000
   10.3975  -16.5935   18.9378 N   0  0  0  0  0  0  0  0  0  0  0  0
    9.1567  -16.6868   19.6672 C   0  0  1  0  0  0  0  0  0  0  0  0
    8.7329  -18.1315   19.7715 C   0  0  0  0  0  0  0  0  0  0  0  0
    9.9464  -18.9859   20.8178 S   0  0  0  0  0  0  0  0  0  0  0  0
    9.2676  -16.0205   20.9688 C   0  0  0  0  0  0  0  0  0  0  0  0
   10.3877  -15.9450   21.5281 O   0  0  0  0  0  0  0  0  0  0  0  0
    8.1716  -15.4363   21.6661 N   0  0  0  0  0  0  0  0  0  0  0  0
    8.2757  -14.8530   22.9712 C   0  0  1  0  0  0  0  0  0  0  0  0
    7.0481  -14.0769   23.3780 C   0  0  0  0  0  0  0  0  0  0  0  0
    7.1905  -13.4011   24.6780 C   0  0  0  0  0  0  0  0  0  0  0  0
    8.1195  -12.4025   24.8713 C   0  0  0  0  0  0  0  0  0  0  0  0
    8.2522  -11.7601   26.0994 C   0  0  0  0  0  0  0  0  0  0  0  0
    7.4479  -12.1147   27.1576 C   0  0  0  0  0  0  0  0  0  0  0  0
    6.5152  -13.1101   26.9804 C   0  0  0  0  0  0  0  0  0  0  0  0
    6.4036  -13.7291   25.7584 C   0  0  0  0  0  0  0  0  0  0  0  0
    8.5734  -15.8359   24.0346 C   0  0  0  0  0  0  0  0  0  0  0  0
    7.8536  -16.8588   24.1026 O   0  0  0  0  0  0  0  0  0  0  0  0
    9.6098  -15.7134   24.9843 N   0  0  0  0  0  0  0  0  0  0  0  0
   10.0342  -16.7957   25.8834 C   0  0  1  0  0  0  0  0  0  0  0  0
   11.3271  -17.2940   25.3486 C   0  0  0  0  0  0  0  0  0  0  0  0
   11.9943  -18.4138   26.0357 C   0  0  0  0  0  0  0  0  0  0  0  0
   13.2944  -18.7860   25.5133 C   0  0  0  0  0  0  0  0  0  0  0  0
   14.3615  -18.3575   25.9377 O   0  0  0  0  0  0  0  0  0  0  0  0
    9.8907  -16.5195   27.2882 C   0  0  0  0  0  0  0  0  0  0  0  0
    9.7694  -17.4459   28.1300 O   0  0  0  0  0  0  0  0  0  0  0  0
   13.3452  -19.7181   24.4269 O   0  0  0  0  0  0  0  0  0  0  0  0
    9.8865  -15.2160   27.7733 O   0  0  0  0  0  0  0  0  0  0  0  0
  2  1  1  1
  2  3  1  0
  3  4  1  0
  5  6  2  0
  5  2  1  0
  7  5  1  0
  8  7  1  0
  8  9  1  1
  9 10  1  0
 10 11  2  0
 10 15  1  0
 11 12  1  0
 12 13  2  0
 14 13  1  0
 15 14  2  0
 16 17  2  0
 16  8  1  0
 18 16  1  0
 19 18  1  0
 19 20  1  1
 21 20  1  0
 22 21  1  0
 23 22  2  0
 24 19  1  0
 25 24  2  0
 26 22  1  0
 27 24  1  0
M  END
$$$$
