CFE.pdb
     RDKit          3D

 27 27  0  0  1  0  0  0  0  0999 V2000
    6.8594  -17.7265   19.7501 N   0  0  0  0  0  0  0  0  0  0  0  0
    6.8388  -18.1909   21.1155 C   0  0  1  0  0  0  0  0  0  0  0  0
    7.4692  -19.5596   21.1990 C   0  0  0  0  0  0  0  0  0  0  0  0
    6.1433  -20.7870   21.0179 S   0  0  0  0  0  0  0  0  0  0  0  0
    7.4646  -17.2097   22.0076 C   0  0  0  0  0  0  0  0  0  0  0  0
    8.5275  -16.6457   21.6535 O   0  0  0  0  0  0  0  0  0  0  0  0
    6.9444  -16.8372   23.2802 N   0  0  0  0  0  0  0  0  0  0  0  0
    7.6009  -15.9318   24.1767 C   0  0  1  0  0  0  0  0  0  0  0  0
    6.7007  -15.4199   25.2734 C   0  0  0  0  0  0  0  0  0  0  0  0
    7.3301  -14.3825   26.1068 C   0  0  0  0  0  0  0  0  0  0  0  0
    7.2325  -13.0462   25.7872 C   0  0  0  0  0  0  0  0  0  0  0  0
    7.8242  -12.0640   26.5771 C   0  0  0  0  0  0  0  0  0  0  0  0
    8.5271  -12.4136   27.7067 C   0  0  0  0  0  0  0  0  0  0  0  0
    8.6336  -13.7439   28.0395 C   0  0  0  0  0  0  0  0  0  0  0  0
    8.0406  -14.6946   27.2435 C   0  0  0  0  0  0  0  0  0  0  0  0
    8.8146  -16.4979   24.8029 C   0  0  0  0  0  0  0  0  0  0  0  0
    8.7200  -17.6206   25.3503 O   0  0  0  0  0  0  0  0  0  0  0  0
   10.0784  -15.8712   24.8329 N   0  0  0  0  0  0  0  0  0  0  0  0
   11.3188  -16.5397   25.2507 C   0  0  1  0  0  0  0  0  0  0  0  0
   12.3935  -15.9977   24.3805 C   0  0  0  0  0  0  0  0  0  0  0  0
   13.7675  -16.5013   24.5536 C   0  0  0  0  0  0  0  0  0  0  0  0
   14.7501  -15.9763   23.6259 C   0  0  0  0  0  0  0  0  0  0  0  0
   14.5260  -15.7219   22.4481 O   0  0  0  0  0  0  0  0  0  0  0  0
   11.5176  -16.6334   26.6727 C   0  0  0  0  0  0  0  0  0  0  0  0
   10.9882  -15.8125   27.4647 O   0  0  0  0  0  0  0  0  0  0  0  0
   16.0762  -15.7349   24.1103 O   0  0  0  0  0  0  0  0  0  0  0  0
   12.2990  -17.6402   27.2299 O   0  0  0  0  0  0  0  0  0  0  0  0
  2  1  1  6
  2  3  1  0
  3  4  1  0
  5  6  2  0
  5  2  1  0
  7  5  1  0
  8  7  1  0
  8  9  1  1
  9 10  1  0
 10 11  2  0
 10 15  1  0
 11 12  1  0
 12 13  2  0
 14 13  1  0
 15 14  2  0
 16 17  2  0
 16  8  1  0
 18 16  1  0
 19 18  1  0
 19 20  1  6
 21 20  1  0
 22 21  1  0
 23 22  2  0
 24 19  1  0
 25 24  2  0
 26 22  1  0
 27 24  1  0
M  END
$$$$
