PDT.pdb
     RDKit          3D

 23 23  0  0  1  0  0  0  0  0999 V2000
    8.3249  -14.9005   18.6856 N   0  0  0  0  0  0  0  0  0  0  0  0
    7.2301  -14.1353   18.1403 C   0  0  0  0  0  0  0  0  0  0  0  0
    6.9380  -13.0760   19.1944 C   0  0  0  0  0  0  0  0  0  0  0  0
    8.3835  -12.7373   19.5894 C   0  0  0  0  0  0  0  0  0  0  0  0
    8.9215  -14.1384   19.7542 C   0  0  1  0  0  0  0  0  0  0  0  0
    8.5604  -14.7482   21.0393 C   0  0  0  0  0  0  0  0  0  0  0  0
    7.4059  -14.5833   21.5001 O   0  0  0  0  0  0  0  0  0  0  0  0
    9.4730  -15.5316   21.8033 N   0  0  0  0  0  0  0  0  0  0  0  0
    9.2621  -16.0652   23.1027 C   0  0  1  0  0  0  0  0  0  0  0  0
   10.1943  -17.1949   23.4583 C   0  0  0  0  0  0  0  0  0  0  0  0
    9.7461  -17.7008   24.8004 C   0  0  0  0  0  0  0  0  0  0  0  0
    8.6044  -18.1814   24.9244 O   0  0  0  0  0  0  0  0  0  0  0  0
    9.2266  -15.0435   24.1970 C   0  0  0  0  0  0  0  0  0  0  0  0
   10.1283  -14.1852   24.2959 O   0  0  0  0  0  0  0  0  0  0  0  0
   10.5662  -17.6496   25.9112 O   0  0  0  0  0  0  0  0  0  0  0  0
    6.4818  -12.2581   27.0526 C   0  0  0  0  0  0  0  0  0  0  0  0
    6.6222  -13.4302   26.1171 C   0  0  1  0  0  0  0  0  0  0  0  0
    6.3242  -13.0637   24.7940 O   0  0  0  0  0  0  0  0  0  0  0  0
    8.0659  -13.9407   26.1060 C   0  0  2  0  0  0  0  0  0  0  0  0
    8.1721  -15.0199   25.1500 N   0  0  0  0  0  0  0  0  0  0  0  0
    8.4573  -14.3802   27.4707 C   0  0  0  0  0  0  0  0  0  0  0  0
    8.5737  -13.5418   28.5427 O   0  0  0  0  0  0  0  0  0  0  0  0
    8.6944  -15.6036   27.6402 O   0  0  0  0  0  0  0  0  0  0  0  0
  1  5  1  0
  2  1  1  0
  2  3  1  0
  3  4  1  0
  5  4  1  0
  6  8  1  0
  5  6  1  1
  7  6  2  0
  9 13  1  0
  9  8  1  0
  9 10  1  1
 10 11  1  0
 11 15  1  0
 11 12  2  0
 13 20  1  0
 14 13  2  0
 17 16  1  1
 17 18  1  0
 19 17  1  0
 19 20  1  6
 21 22  1  0
 21 19  1  0
 23 21  2  0
M  END
$$$$
