PDT.pdb
     RDKit          3D

 23 23  0  0  1  0  0  0  0  0999 V2000
    7.7904  -13.2802   20.4808 N   0  0  0  0  0  0  0  0  0  0  0  0
    8.3371  -13.1095   19.1567 C   0  0  0  0  0  0  0  0  0  0  0  0
    8.3963  -14.5176   18.5801 C   0  0  0  0  0  0  0  0  0  0  0  0
    7.0596  -15.0463   19.1222 C   0  0  0  0  0  0  0  0  0  0  0  0
    7.1826  -14.5855   20.5546 C   0  0  1  0  0  0  0  0  0  0  0  0
    8.0271  -15.4634   21.3732 C   0  0  0  0  0  0  0  0  0  0  0  0
    7.7500  -16.6832   21.4606 O   0  0  0  0  0  0  0  0  0  0  0  0
    9.1659  -14.9899   22.0866 N   0  0  0  0  0  0  0  0  0  0  0  0
   10.0414  -15.7538   22.9037 C   0  0  1  0  0  0  0  0  0  0  0  0
   11.4312  -15.1807   23.0131 C   0  0  0  0  0  0  0  0  0  0  0  0
   12.3458  -16.3460   23.2656 C   0  0  0  0  0  0  0  0  0  0  0  0
   11.9517  -17.2930   23.9709 O   0  0  0  0  0  0  0  0  0  0  0  0
    9.4972  -16.0858   24.2588 C   0  0  0  0  0  0  0  0  0  0  0  0
    9.2752  -15.1841   25.0938 O   0  0  0  0  0  0  0  0  0  0  0  0
   13.6208  -16.4015   22.7362 O   0  0  0  0  0  0  0  0  0  0  0  0
    7.3016  -19.3584   27.2233 C   0  0  0  0  0  0  0  0  0  0  0  0
    7.8400  -18.9925   25.8650 C   0  0  1  0  0  0  0  0  0  0  0  0
    6.8001  -18.6886   24.9705 O   0  0  0  0  0  0  0  0  0  0  0  0
    8.7121  -17.7369   25.9515 C   0  0  2  0  0  0  0  0  0  0  0  0
    9.2185  -17.4285   24.6330 N   0  0  0  0  0  0  0  0  0  0  0  0
    9.8157  -17.9537   26.9230 C   0  0  0  0  0  0  0  0  0  0  0  0
    9.7577  -17.6009   28.2412 O   0  0  0  0  0  0  0  0  0  0  0  0
   10.8661  -18.4975   26.4955 O   0  0  0  0  0  0  0  0  0  0  0  0
  1  5  1  0
  2  1  1  0
  2  3  1  0
  3  4  1  0
  5  4  1  0
  6  8  1  0
  5  6  1  1
  7  6  2  0
  9 13  1  0
  9  8  1  0
  9 10  1  1
 10 11  1  0
 11 15  1  0
 11 12  2  0
 13 20  1  0
 14 13  2  0
 17 16  1  1
 17 18  1  0
 19 17  1  0
 19 20  1  6
 21 22  1  0
 21 19  1  0
 23 21  2  0
M  END
$$$$
