PDT.pdb
     RDKit          3D

 23 23  0  0  1  0  0  0  0  0999 V2000
    8.8561  -14.8956   18.9288 N   0  0  0  0  0  0  0  0  0  0  0  0
    7.7533  -14.5708   18.0571 C   0  0  0  0  0  0  0  0  0  0  0  0
    6.8899  -13.6142   18.8685 C   0  0  0  0  0  0  0  0  0  0  0  0
    8.0093  -12.7914   19.5244 C   0  0  0  0  0  0  0  0  0  0  0  0
    8.8956  -13.9212   19.9906 C   0  0  1  0  0  0  0  0  0  0  0  0
    8.4290  -14.5458   21.2340 C   0  0  0  0  0  0  0  0  0  0  0  0
    7.3430  -14.1783   21.7418 O   0  0  0  0  0  0  0  0  0  0  0  0
    9.1621  -15.5670   21.9049 N   0  0  0  0  0  0  0  0  0  0  0  0
    8.9269  -16.0698   23.2123 C   0  0  1  0  0  0  0  0  0  0  0  0
    9.7841  -17.2555   23.5747 C   0  0  0  0  0  0  0  0  0  0  0  0
    9.6601  -18.2257   22.4340 C   0  0  0  0  0  0  0  0  0  0  0  0
    8.5597  -18.7581   22.1988 O   0  0  0  0  0  0  0  0  0  0  0  0
    8.9694  -15.0352   24.2942 C   0  0  0  0  0  0  0  0  0  0  0  0
    9.9223  -14.2317   24.3693 O   0  0  0  0  0  0  0  0  0  0  0  0
   10.7365  -18.5495   21.6305 O   0  0  0  0  0  0  0  0  0  0  0  0
    6.5177  -12.0439   27.1928 C   0  0  0  0  0  0  0  0  0  0  0  0
    6.5407  -13.2227   26.2554 C   0  0  1  0  0  0  0  0  0  0  0  0
    6.2692  -12.8280   24.9347 O   0  0  0  0  0  0  0  0  0  0  0  0
    7.9297  -13.8668   26.2337 C   0  0  2  0  0  0  0  0  0  0  0  0
    7.9328  -14.9372   25.2620 N   0  0  0  0  0  0  0  0  0  0  0  0
    8.2792  -14.3610   27.5911 C   0  0  0  0  0  0  0  0  0  0  0  0
    8.5347  -13.5504   28.6603 O   0  0  0  0  0  0  0  0  0  0  0  0
    8.3411  -15.6062   27.7567 O   0  0  0  0  0  0  0  0  0  0  0  0
  1  5  1  0
  2  1  1  0
  2  3  1  0
  3  4  1  0
  5  4  1  0
  6  8  1  0
  5  6  1  1
  7  6  2  0
  9 13  1  0
  9  8  1  0
  9 10  1  1
 10 11  1  0
 11 15  1  0
 11 12  2  0
 13 20  1  0
 14 13  2  0
 17 16  1  1
 17 18  1  0
 19 17  1  0
 19 20  1  6
 21 22  1  0
 21 19  1  0
 23 21  2  0
M  END
$$$$
