PDT.pdb
     RDKit          3D

 23 23  0  0  1  0  0  0  0  0999 V2000
    9.4310  -14.3117   18.0067 N   0  0  0  0  0  0  0  0  0  0  0  0
    8.2299  -14.1815   17.2179 C   0  0  0  0  0  0  0  0  0  0  0  0
    7.1231  -13.9485   18.2374 C   0  0  0  0  0  0  0  0  0  0  0  0
    7.8798  -13.0113   19.1909 C   0  0  0  0  0  0  0  0  0  0  0  0
    9.1649  -13.7924   19.3250 C   0  0  1  0  0  0  0  0  0  0  0  0
    9.0653  -14.9100   20.2710 C   0  0  0  0  0  0  0  0  0  0  0  0
    8.0852  -14.9759   21.0504 O   0  0  0  0  0  0  0  0  0  0  0  0
   10.0448  -15.9419   20.3495 N   0  0  0  0  0  0  0  0  0  0  0  0
   10.1975  -16.8985   21.3883 C   0  0  1  0  0  0  0  0  0  0  0  0
   11.3483  -17.8492   21.1795 C   0  0  0  0  0  0  0  0  0  0  0  0
   11.1399  -18.4679   19.8261 C   0  0  0  0  0  0  0  0  0  0  0  0
   10.0979  -19.1105   19.5997 O   0  0  0  0  0  0  0  0  0  0  0  0
   10.2334  -16.3185   22.7685 C   0  0  0  0  0  0  0  0  0  0  0  0
   11.0519  -15.4217   23.0608 O   0  0  0  0  0  0  0  0  0  0  0  0
   12.0745  -18.3464   18.8158 O   0  0  0  0  0  0  0  0  0  0  0  0
    7.8675  -14.8198   26.6329 C   0  0  0  0  0  0  0  0  0  0  0  0
    7.9577  -15.4518   25.2686 C   0  0  1  0  0  0  0  0  0  0  0  0
    7.8532  -14.4868   24.2529 O   0  0  0  0  0  0  0  0  0  0  0  0
    9.3173  -16.1299   25.0778 C   0  0  2  0  0  0  0  0  0  0  0  0
    9.3427  -16.7682   23.7809 N   0  0  0  0  0  0  0  0  0  0  0  0
    9.5527  -17.1077   26.1720 C   0  0  0  0  0  0  0  0  0  0  0  0
    9.9928  -16.7709   27.4203 O   0  0  0  0  0  0  0  0  0  0  0  0
    9.3295  -18.3204   25.9239 O   0  0  0  0  0  0  0  0  0  0  0  0
  1  5  1  0
  2  1  1  0
  2  3  1  0
  3  4  1  0
  5  4  1  0
  6  8  1  0
  5  6  1  1
  7  6  2  0
  9 13  1  0
  9  8  1  0
  9 10  1  6
 10 11  1  0
 11 15  1  0
 11 12  2  0
 13 20  1  0
 14 13  2  0
 17 16  1  1
 17 18  1  0
 19 17  1  0
 19 20  1  6
 21 22  1  0
 21 19  1  0
 23 21  2  0
M  END
$$$$
