PDT.pdb
     RDKit          3D

 23 23  0  0  1  0  0  0  0  0999 V2000
    9.2181  -14.1617   18.8210 N   0  0  0  0  0  0  0  0  0  0  0  0
    8.2046  -14.2823   17.8013 C   0  0  0  0  0  0  0  0  0  0  0  0
    6.9046  -13.9184   18.5057 C   0  0  0  0  0  0  0  0  0  0  0  0
    7.4231  -12.7527   19.3615 C   0  0  0  0  0  0  0  0  0  0  0  0
    8.6710  -13.3980   19.9146 C   0  0  1  0  0  0  0  0  0  0  0  0
    8.4044  -14.2975   21.0432 C   0  0  0  0  0  0  0  0  0  0  0  0
    7.3750  -14.1290   21.7393 O   0  0  0  0  0  0  0  0  0  0  0  0
    9.2727  -15.3713   21.3937 N   0  0  0  0  0  0  0  0  0  0  0  0
    9.2129  -16.1716   22.5657 C   0  0  1  0  0  0  0  0  0  0  0  0
   10.1433  -17.3573   22.5446 C   0  0  0  0  0  0  0  0  0  0  0  0
    9.7889  -18.1889   23.7449 C   0  0  0  0  0  0  0  0  0  0  0  0
    8.5935  -18.3263   24.0642 O   0  0  0  0  0  0  0  0  0  0  0  0
    9.3543  -15.4102   23.8474 C   0  0  0  0  0  0  0  0  0  0  0  0
   10.4167  -14.8124   24.1186 O   0  0  0  0  0  0  0  0  0  0  0  0
   10.7542  -18.8115   24.5127 O   0  0  0  0  0  0  0  0  0  0  0  0
    7.2437  -12.5507   25.3251 C   0  0  0  0  0  0  0  0  0  0  0  0
    7.2141  -13.7408   26.2479 C   0  0  1  0  0  0  0  0  0  0  0  0
    6.0981  -14.5551   25.9926 O   0  0  0  0  0  0  0  0  0  0  0  0
    8.4471  -14.6222   26.0301 C   0  0  2  0  0  0  0  0  0  0  0  0
    8.2905  -15.3453   24.7880 N   0  0  0  0  0  0  0  0  0  0  0  0
    8.6180  -15.5462   27.1816 C   0  0  0  0  0  0  0  0  0  0  0  0
    8.8350  -15.1382   28.4668 O   0  0  0  0  0  0  0  0  0  0  0  0
    8.5573  -16.7806   26.9485 O   0  0  0  0  0  0  0  0  0  0  0  0
  1  5  1  0
  2  1  1  0
  2  3  1  0
  3  4  1  0
  5  4  1  0
  6  8  1  0
  5  6  1  1
  7  6  2  0
  9 13  1  0
  9  8  1  0
  9 10  1  6
 10 11  1  0
 11 15  1  0
 11 12  2  0
 13 20  1  0
 14 13  2  0
 17 16  1  6
 17 18  1  0
 19 17  1  0
 19 20  1  6
 21 22  1  0
 21 19  1  0
 23 21  2  0
M  END
$$$$
