PDT.pdb
     RDKit          3D

 23 23  0  0  1  0  0  0  0  0999 V2000
    9.3510  -14.0882   18.8075 N   0  0  0  0  0  0  0  0  0  0  0  0
    8.3742  -14.2479   17.7578 C   0  0  0  0  0  0  0  0  0  0  0  0
    7.0587  -13.8078   18.3859 C   0  0  0  0  0  0  0  0  0  0  0  0
    7.5760  -12.6035   19.1873 C   0  0  0  0  0  0  0  0  0  0  0  0
    8.7838  -13.2434   19.8288 C   0  0  1  0  0  0  0  0  0  0  0  0
    8.4498  -14.0626   20.9997 C   0  0  0  0  0  0  0  0  0  0  0  0
    7.6008  -13.6474   21.8239 O   0  0  0  0  0  0  0  0  0  0  0  0
    9.0534  -15.3285   21.2513 N   0  0  0  0  0  0  0  0  0  0  0  0
    8.8600  -16.1571   22.3886 C   0  0  1  0  0  0  0  0  0  0  0  0
    9.5991  -17.4690   22.3220 C   0  0  0  0  0  0  0  0  0  0  0  0
    8.5901  -18.5348   22.6443 C   0  0  0  0  0  0  0  0  0  0  0  0
    7.9157  -18.4453   23.6869 O   0  0  0  0  0  0  0  0  0  0  0  0
    9.1022  -15.4789   23.7015 C   0  0  0  0  0  0  0  0  0  0  0  0
   10.2389  -15.0562   23.9994 O   0  0  0  0  0  0  0  0  0  0  0  0
    8.3843  -19.6204   21.8147 O   0  0  0  0  0  0  0  0  0  0  0  0
    6.9960  -12.6036   25.4006 C   0  0  0  0  0  0  0  0  0  0  0  0
    7.0937  -13.8104   26.2966 C   0  0  1  0  0  0  0  0  0  0  0  0
    5.9682  -14.6397   26.1576 O   0  0  0  0  0  0  0  0  0  0  0  0
    8.3061  -14.6657   25.9180 C   0  0  2  0  0  0  0  0  0  0  0  0
    8.0522  -15.2967   24.6423 N   0  0  0  0  0  0  0  0  0  0  0  0
    8.5678  -15.6705   26.9813 C   0  0  0  0  0  0  0  0  0  0  0  0
    8.9475  -15.3578   28.2555 O   0  0  0  0  0  0  0  0  0  0  0  0
    8.4283  -16.8835   26.6799 O   0  0  0  0  0  0  0  0  0  0  0  0
  1  5  1  0
  2  1  1  0
  2  3  1  0
  3  4  1  0
  5  4  1  0
  6  8  1  0
  5  6  1  1
  7  6  2  0
  9 13  1  0
  9  8  1  0
  9 10  1  6
 10 11  1  0
 11 15  1  0
 11 12  2  0
 13 20  1  0
 14 13  2  0
 17 16  1  6
 17 18  1  0
 19 17  1  0
 19 20  1  6
 21 22  1  0
 21 19  1  0
 23 21  2  0
M  END
$$$$
