PDT.pdb
     RDKit          3D

 23 23  0  0  1  0  0  0  0  0999 V2000
    8.2676  -14.8278   18.6980 N   0  0  0  0  0  0  0  0  0  0  0  0
    7.2758  -13.9684   18.0984 C   0  0  0  0  0  0  0  0  0  0  0  0
    7.0041  -12.9016   19.1504 C   0  0  0  0  0  0  0  0  0  0  0  0
    8.4442  -12.6880   19.6411 C   0  0  0  0  0  0  0  0  0  0  0  0
    8.8546  -14.1305   19.8150 C   0  0  1  0  0  0  0  0  0  0  0  0
    8.3636  -14.7240   21.0642 C   0  0  0  0  0  0  0  0  0  0  0  0
    7.1372  -14.6939   21.3237 O   0  0  0  0  0  0  0  0  0  0  0  0
    9.2267  -15.3432   22.0138 N   0  0  0  0  0  0  0  0  0  0  0  0
    8.8657  -15.8649   23.2847 C   0  0  1  0  0  0  0  0  0  0  0  0
    9.5104  -17.1884   23.6078 C   0  0  0  0  0  0  0  0  0  0  0  0
   10.9929  -16.9707   23.4943 C   0  0  0  0  0  0  0  0  0  0  0  0
   11.4785  -16.6146   22.4047 O   0  0  0  0  0  0  0  0  0  0  0  0
    9.0301  -14.9041   24.4216 C   0  0  0  0  0  0  0  0  0  0  0  0
   10.0112  -14.1328   24.4662 O   0  0  0  0  0  0  0  0  0  0  0  0
   11.8424  -17.1544   24.5684 O   0  0  0  0  0  0  0  0  0  0  0  0
    6.7815  -12.1029   25.4269 C   0  0  0  0  0  0  0  0  0  0  0  0
    6.8927  -13.0499   26.5929 C   0  0  1  0  0  0  0  0  0  0  0  0
    5.8546  -13.9964   26.5805 O   0  0  0  0  0  0  0  0  0  0  0  0
    8.1991  -13.8452   26.5182 C   0  0  2  0  0  0  0  0  0  0  0  0
    8.0804  -14.8415   25.4774 N   0  0  0  0  0  0  0  0  0  0  0  0
    8.4894  -14.4658   27.8371 C   0  0  0  0  0  0  0  0  0  0  0  0
    8.7434  -13.7593   28.9781 O   0  0  0  0  0  0  0  0  0  0  0  0
    8.4994  -15.7220   27.8972 O   0  0  0  0  0  0  0  0  0  0  0  0
  1  5  1  0
  2  1  1  0
  2  3  1  0
  3  4  1  0
  5  4  1  0
  6  8  1  0
  5  6  1  1
  7  6  2  0
  9 13  1  0
  9  8  1  0
  9 10  1  1
 10 11  1  0
 11 15  1  0
 11 12  2  0
 13 20  1  0
 14 13  2  0
 17 16  1  6
 17 18  1  0
 19 17  1  0
 19 20  1  6
 21 22  1  0
 21 19  1  0
 23 21  2  0
M  END
$$$$
