PDT.pdb
     RDKit          3D

 23 23  0  0  1  0  0  0  0  0999 V2000
    8.1392  -14.5830   18.2877 N   0  0  0  0  0  0  0  0  0  0  0  0
    7.0033  -13.7216   18.5096 C   0  0  0  0  0  0  0  0  0  0  0  0
    7.2450  -13.1120   19.8839 C   0  0  0  0  0  0  0  0  0  0  0  0
    8.7583  -12.8733   19.7686 C   0  0  0  0  0  0  0  0  0  0  0  0
    9.1726  -14.2195   19.2250 C   0  0  1  0  0  0  0  0  0  0  0  0
    9.2689  -15.2555   20.2600 C   0  0  0  0  0  0  0  0  0  0  0  0
    8.2376  -15.6101   20.8788 O   0  0  0  0  0  0  0  0  0  0  0  0
   10.4982  -15.8891   20.6031 N   0  0  0  0  0  0  0  0  0  0  0  0
   10.7077  -16.8507   21.6273 C   0  0  1  0  0  0  0  0  0  0  0  0
   11.9534  -17.6789   21.4427 C   0  0  0  0  0  0  0  0  0  0  0  0
   11.9755  -18.6609   22.5798 C   0  0  0  0  0  0  0  0  0  0  0  0
   12.4211  -18.3069   23.6870 O   0  0  0  0  0  0  0  0  0  0  0  0
   10.6374  -16.3030   23.0194 C   0  0  0  0  0  0  0  0  0  0  0  0
   11.1815  -15.2155   23.3036 O   0  0  0  0  0  0  0  0  0  0  0  0
   11.5138  -19.9552   22.4361 O   0  0  0  0  0  0  0  0  0  0  0  0
    7.3003  -16.1669   24.6620 C   0  0  0  0  0  0  0  0  0  0  0  0
    8.5028  -15.4219   25.1793 C   0  0  1  0  0  0  0  0  0  0  0  0
    8.2611  -14.8905   26.4572 O   0  0  0  0  0  0  0  0  0  0  0  0
    9.6992  -16.3661   25.3267 C   0  0  2  0  0  0  0  0  0  0  0  0
    9.9535  -16.9999   24.0524 N   0  0  0  0  0  0  0  0  0  0  0  0
    9.4247  -17.3682   26.3894 C   0  0  0  0  0  0  0  0  0  0  0  0
    9.3623  -17.0755   27.7220 O   0  0  0  0  0  0  0  0  0  0  0  0
    9.2389  -18.5589   26.0296 O   0  0  0  0  0  0  0  0  0  0  0  0
  1  5  1  0
  2  1  1  0
  2  3  1  0
  3  4  1  0
  5  4  1  0
  6  8  1  0
  5  6  1  1
  7  6  2  0
  9 13  1  0
  9  8  1  0
  9 10  1  6
 10 11  1  0
 11 15  1  0
 11 12  2  0
 13 20  1  0
 14 13  2  0
 17 16  1  1
 17 18  1  0
 19 17  1  0
 19 20  1  6
 21 22  1  0
 21 19  1  0
 23 21  2  0
M  END
$$$$
