PDT.pdb
     RDKit          3D

 23 23  0  0  1  0  0  0  0  0999 V2000
    8.3735  -14.8013   18.9869 N   0  0  0  0  0  0  0  0  0  0  0  0
    7.1507  -14.2276   18.4798 C   0  0  0  0  0  0  0  0  0  0  0  0
    6.7154  -13.2387   19.5528 C   0  0  0  0  0  0  0  0  0  0  0  0
    8.0944  -12.6645   19.9119 C   0  0  0  0  0  0  0  0  0  0  0  0
    8.8641  -13.9563   20.0470 C   0  0  1  0  0  0  0  0  0  0  0  0
    8.6474  -14.6257   21.3349 C   0  0  0  0  0  0  0  0  0  0  0  0
    7.5371  -14.5205   21.9081 O   0  0  0  0  0  0  0  0  0  0  0  0
    9.6539  -15.4027   21.9778 N   0  0  0  0  0  0  0  0  0  0  0  0
    9.6029  -15.9546   23.2856 C   0  0  1  0  0  0  0  0  0  0  0  0
   10.6937  -16.9551   23.5699 C   0  0  0  0  0  0  0  0  0  0  0  0
   10.5548  -18.0322   22.5314 C   0  0  0  0  0  0  0  0  0  0  0  0
   11.3003  -18.0222   21.5344 O   0  0  0  0  0  0  0  0  0  0  0  0
    9.5130  -14.9423   24.3855 C   0  0  0  0  0  0  0  0  0  0  0  0
   10.3269  -13.9973   24.4488 O   0  0  0  0  0  0  0  0  0  0  0  0
    9.6190  -19.0421   22.6472 O   0  0  0  0  0  0  0  0  0  0  0  0
    7.0447  -12.4036   25.2420 C   0  0  0  0  0  0  0  0  0  0  0  0
    7.1044  -13.3424   26.4183 C   0  0  1  0  0  0  0  0  0  0  0  0
    6.1246  -14.3445   26.3198 O   0  0  0  0  0  0  0  0  0  0  0  0
    8.4538  -14.0648   26.4630 C   0  0  2  0  0  0  0  0  0  0  0  0
    8.5049  -15.0259   25.3842 N   0  0  0  0  0  0  0  0  0  0  0  0
    8.6336  -14.7189   27.7854 C   0  0  0  0  0  0  0  0  0  0  0  0
    8.7671  -14.0420   28.9642 O   0  0  0  0  0  0  0  0  0  0  0  0
    8.6632  -15.9760   27.8113 O   0  0  0  0  0  0  0  0  0  0  0  0
  1  5  1  0
  2  1  1  0
  2  3  1  0
  3  4  1  0
  5  4  1  0
  6  8  1  0
  5  6  1  1
  7  6  2  0
  9 13  1  0
  9  8  1  0
  9 10  1  1
 10 11  1  0
 11 15  1  0
 11 12  2  0
 13 20  1  0
 14 13  2  0
 17 16  1  6
 17 18  1  0
 19 17  1  0
 19 20  1  6
 21 22  1  0
 21 19  1  0
 23 21  2  0
M  END
$$$$
