PDT.pdb
     RDKit          3D

 23 23  0  0  1  0  0  0  0  0999 V2000
    9.3446  -14.2628   18.4268 N   0  0  0  0  0  0  0  0  0  0  0  0
    8.3388  -14.4829   17.4161 C   0  0  0  0  0  0  0  0  0  0  0  0
    7.0227  -14.1430   18.1022 C   0  0  0  0  0  0  0  0  0  0  0  0
    7.4860  -12.9117   18.8955 C   0  0  0  0  0  0  0  0  0  0  0  0
    8.7617  -13.4692   19.4799 C   0  0  1  0  0  0  0  0  0  0  0  0
    8.5355  -14.3200   20.6541 C   0  0  0  0  0  0  0  0  0  0  0  0
    7.6241  -14.0275   21.4642 O   0  0  0  0  0  0  0  0  0  0  0  0
    9.3143  -15.4821   20.9245 N   0  0  0  0  0  0  0  0  0  0  0  0
    9.2299  -16.3211   22.0675 C   0  0  1  0  0  0  0  0  0  0  0  0
   10.1158  -17.5386   21.9990 C   0  0  0  0  0  0  0  0  0  0  0  0
    9.7736  -18.3734   23.2007 C   0  0  0  0  0  0  0  0  0  0  0  0
   10.0923  -17.9736   24.3357 O   0  0  0  0  0  0  0  0  0  0  0  0
    9.4047  -15.6118   23.3747 C   0  0  0  0  0  0  0  0  0  0  0  0
   10.4531  -14.9793   23.6204 O   0  0  0  0  0  0  0  0  0  0  0  0
    9.1114  -19.5806   23.0865 O   0  0  0  0  0  0  0  0  0  0  0  0
    7.2870  -13.1336   26.9426 C   0  0  0  0  0  0  0  0  0  0  0  0
    7.1887  -14.0545   25.7548 C   0  0  1  0  0  0  0  0  0  0  0  0
    6.9715  -13.3337   24.5686 O   0  0  0  0  0  0  0  0  0  0  0  0
    8.4997  -14.8206   25.5572 C   0  0  2  0  0  0  0  0  0  0  0  0
    8.3890  -15.6367   24.3690 N   0  0  0  0  0  0  0  0  0  0  0  0
    8.7903  -15.6442   26.7597 C   0  0  0  0  0  0  0  0  0  0  0  0
    9.1488  -15.1302   27.9732 O   0  0  0  0  0  0  0  0  0  0  0  0
    8.6975  -16.8931   26.6434 O   0  0  0  0  0  0  0  0  0  0  0  0
  1  5  1  0
  2  1  1  0
  2  3  1  0
  3  4  1  0
  5  4  1  0
  6  8  1  0
  5  6  1  1
  7  6  2  0
  9 13  1  0
  9  8  1  0
  9 10  1  6
 10 11  1  0
 11 15  1  0
 11 12  2  0
 13 20  1  0
 14 13  2  0
 17 16  1  1
 17 18  1  0
 19 17  1  0
 19 20  1  6
 21 22  1  0
 21 19  1  0
 23 21  2  0
M  END
$$$$
