PDT.pdb
     RDKit          3D

 23 23  0  0  1  0  0  0  0  0999 V2000
    9.2463  -14.5970   18.9374 N   0  0  0  0  0  0  0  0  0  0  0  0
    8.2027  -14.6321   17.9419 C   0  0  0  0  0  0  0  0  0  0  0  0
    6.9920  -14.0178   18.6315 C   0  0  0  0  0  0  0  0  0  0  0  0
    7.7055  -12.8880   19.3895 C   0  0  0  0  0  0  0  0  0  0  0  0
    8.8505  -13.6784   19.9757 C   0  0  1  0  0  0  0  0  0  0  0  0
    8.4739  -14.4392   21.1729 C   0  0  0  0  0  0  0  0  0  0  0  0
    7.4020  -14.1703   21.7654 O   0  0  0  0  0  0  0  0  0  0  0  0
    9.2805  -15.4863   21.7050 N   0  0  0  0  0  0  0  0  0  0  0  0
    9.1854  -16.0657   22.9984 C   0  0  1  0  0  0  0  0  0  0  0  0
   10.1853  -17.1648   23.2509 C   0  0  0  0  0  0  0  0  0  0  0  0
    9.9799  -18.1766   22.1590 C   0  0  0  0  0  0  0  0  0  0  0  0
    8.9256  -18.8377   22.1264 O   0  0  0  0  0  0  0  0  0  0  0  0
    9.1879  -15.0785   24.1245 C   0  0  0  0  0  0  0  0  0  0  0  0
   10.0606  -14.1876   24.1879 O   0  0  0  0  0  0  0  0  0  0  0  0
   10.9307  -18.3993   21.1816 O   0  0  0  0  0  0  0  0  0  0  0  0
    6.6472  -12.3328   27.1195 C   0  0  0  0  0  0  0  0  0  0  0  0
    6.7388  -13.4657   26.1312 C   0  0  1  0  0  0  0  0  0  0  0  0
    6.5334  -13.0126   24.8173 O   0  0  0  0  0  0  0  0  0  0  0  0
    8.1365  -14.0906   26.1559 C   0  0  2  0  0  0  0  0  0  0  0  0
    8.2031  -15.1254   25.1486 N   0  0  0  0  0  0  0  0  0  0  0  0
    8.4261  -14.6284   27.5108 C   0  0  0  0  0  0  0  0  0  0  0  0
    8.6192  -13.8533   28.6187 O   0  0  0  0  0  0  0  0  0  0  0  0
    8.4959  -15.8779   27.6359 O   0  0  0  0  0  0  0  0  0  0  0  0
  1  5  1  0
  2  1  1  0
  2  3  1  0
  3  4  1  0
  5  4  1  0
  6  8  1  0
  5  6  1  1
  7  6  2  0
  9 13  1  0
  9  8  1  0
  9 10  1  1
 10 11  1  0
 11 15  1  0
 11 12  2  0
 13 20  1  0
 14 13  2  0
 17 16  1  1
 17 18  1  0
 19 17  1  0
 19 20  1  6
 21 22  1  0
 21 19  1  0
 23 21  2  0
M  END
$$$$
