PDT.pdb
     RDKit          3D

 23 23  0  0  1  0  0  0  0  0999 V2000
    9.1743  -14.1761   19.2586 N   0  0  0  0  0  0  0  0  0  0  0  0
    8.2682  -14.6217   18.2281 C   0  0  0  0  0  0  0  0  0  0  0  0
    6.8829  -14.2770   18.7579 C   0  0  0  0  0  0  0  0  0  0  0  0
    7.2053  -12.9078   19.3758 C   0  0  0  0  0  0  0  0  0  0  0  0
    8.4615  -13.2744   20.1289 C   0  0  1  0  0  0  0  0  0  0  0  0
    8.1940  -13.9486   21.4047 C   0  0  0  0  0  0  0  0  0  0  0  0
    7.2858  -13.5174   22.1543 O   0  0  0  0  0  0  0  0  0  0  0  0
    8.9283  -15.0886   21.8420 N   0  0  0  0  0  0  0  0  0  0  0  0
    8.7813  -15.7792   23.0745 C   0  0  1  0  0  0  0  0  0  0  0  0
    9.5915  -17.0469   23.1654 C   0  0  0  0  0  0  0  0  0  0  0  0
    9.1350  -17.7468   24.4143 C   0  0  0  0  0  0  0  0  0  0  0  0
    8.8748  -17.0781   25.4316 O   0  0  0  0  0  0  0  0  0  0  0  0
    8.9866  -14.9312   24.2917 C   0  0  0  0  0  0  0  0  0  0  0  0
   10.1077  -14.4432   24.5457 O   0  0  0  0  0  0  0  0  0  0  0  0
    8.9933  -19.1200   24.4716 O   0  0  0  0  0  0  0  0  0  0  0  0
    6.8618  -11.8352   25.4924 C   0  0  0  0  0  0  0  0  0  0  0  0
    6.8919  -12.9242   26.5325 C   0  0  1  0  0  0  0  0  0  0  0  0
    5.7748  -13.7685   26.4177 O   0  0  0  0  0  0  0  0  0  0  0  0
    8.1235  -13.8145   26.3450 C   0  0  2  0  0  0  0  0  0  0  0  0
    7.9183  -14.6577   25.1887 N   0  0  0  0  0  0  0  0  0  0  0  0
    8.3575  -14.6191   27.5724 C   0  0  0  0  0  0  0  0  0  0  0  0
    8.6329  -14.0848   28.7989 O   0  0  0  0  0  0  0  0  0  0  0  0
    8.2959  -15.8707   27.4659 O   0  0  0  0  0  0  0  0  0  0  0  0
  1  5  1  0
  2  1  1  0
  2  3  1  0
  3  4  1  0
  5  4  1  0
  6  8  1  0
  5  6  1  1
  7  6  2  0
  9 13  1  0
  9  8  1  0
  9 10  1  6
 10 11  1  0
 11 15  1  0
 11 12  2  0
 13 20  1  0
 14 13  2  0
 17 16  1  6
 17 18  1  0
 19 17  1  0
 19 20  1  6
 21 22  1  0
 21 19  1  0
 23 21  2  0
M  END
$$$$
