MQL.pdb
     RDKit          3D

 26 25  0  0  1  0  0  0  0  0999 V2000
    8.4826  -11.2442   20.4052 C   0  0  0  0  0  0  0  0  0  0  0  0
    7.3791  -11.9770   19.1642 S   0  0  0  0  0  0  0  0  0  0  0  0
    7.6951  -13.7474   18.9965 C   0  0  0  0  0  0  0  0  0  0  0  0
    7.8974  -14.3773   20.3667 C   0  0  0  0  0  0  0  0  0  0  0  0
    8.2303  -15.8493   20.1838 C   0  0  2  0  0  0  0  0  0  0  0  0
    7.0963  -16.4732   19.5386 N   0  0  0  0  0  0  0  0  0  0  0  0
    8.4761  -16.4367   21.5245 C   0  0  0  0  0  0  0  0  0  0  0  0
    7.4553  -16.8013   22.1887 O   0  0  0  0  0  0  0  0  0  0  0  0
   13.6788  -19.1037   23.1161 N   0  0  0  0  0  0  0  0  0  0  0  0
   12.9446  -18.9700   21.9236 C   0  0  0  0  0  0  0  0  0  0  0  0
   13.3467  -19.4331   20.8159 O   0  0  0  0  0  0  0  0  0  0  0  0
   11.6455  -18.2557   21.9710 C   0  0  0  0  0  0  0  0  0  0  0  0
   11.3611  -17.8214   23.3714 C   0  0  0  0  0  0  0  0  0  0  0  0
   10.0195  -17.1234   23.3924 C   0  0  2  0  0  0  0  0  0  0  0  0
    9.7724  -16.6013   22.0768 N   0  0  0  0  0  0  0  0  0  0  0  0
   10.0568  -16.0857   24.4334 C   0  0  0  0  0  0  0  0  0  0  0  0
   11.0355  -15.3131   24.4967 O   0  0  0  0  0  0  0  0  0  0  0  0
    8.3666  -12.4586   25.8734 C   0  0  0  0  0  0  0  0  0  0  0  0
    7.3396  -13.5862   25.7879 C   0  0  2  0  0  0  0  0  0  0  0  0
    5.9748  -13.0274   25.9390 C   0  0  0  0  0  0  0  0  0  0  0  0
    7.7262  -14.6038   26.8141 C   0  0  0  0  0  0  0  0  0  0  0  0
    9.0762  -15.2224   26.5871 C   0  0  2  0  0  0  0  0  0  0  0  0
    9.0005  -15.9680   25.3452 N   0  0  0  0  0  0  0  0  0  0  0  0
    9.5628  -16.0447   27.6895 C   0  0  0  0  0  0  0  0  0  0  0  0
   10.0888  -15.6418   28.7325 O   0  0  0  0  0  0  0  0  0  0  0  0
    9.4280  -17.4435   27.5720 O   0  0  0  0  0  0  0  0  0  0  0  0
  2  1  1  0
  3  2  1  0
  4  3  1  0
  4  5  1  0
  5  6  1  1
  7  5  1  0
  7  8  2  0
  9 10  1  0
 10 12  1  0
 11 10  2  0
 12 13  1  0
 14 13  1  6
 14 15  1  0
 15  7  1  0
 16 14  1  0
 17 16  2  0
 19 18  1  1
 19 21  1  0
 20 19  1  0
 22 23  1  0
 22 21  1  1
 23 16  1  0
 24 22  1  0
 25 24  2  0
 26 24  1  0
M  END
$$$$
