MQL.pdb
     RDKit          3D

 26 25  0  0  1  0  0  0  0  0999 V2000
    8.6751  -12.1656   19.9857 C   0  0  0  0  0  0  0  0  0  0  0  0
    7.9547  -12.9121   18.4962 S   0  0  0  0  0  0  0  0  0  0  0  0
    7.5458  -14.6472   18.7869 C   0  0  0  0  0  0  0  0  0  0  0  0
    8.8118  -15.4484   19.0519 C   0  0  0  0  0  0  0  0  0  0  0  0
    8.4296  -16.8986   19.3004 C   0  0  2  0  0  0  0  0  0  0  0  0
    7.5549  -17.3070   18.2235 N   0  0  0  0  0  0  0  0  0  0  0  0
    7.7392  -16.9755   20.6121 C   0  0  0  0  0  0  0  0  0  0  0  0
    6.5124  -16.6434   20.6367 O   0  0  0  0  0  0  0  0  0  0  0  0
    6.3896  -20.3470   26.6196 N   0  0  0  0  0  0  0  0  0  0  0  0
    7.4489  -19.9315   25.7924 C   0  0  0  0  0  0  0  0  0  0  0  0
    8.4732  -20.6449   25.5806 O   0  0  0  0  0  0  0  0  0  0  0  0
    7.3572  -18.6010   25.1431 C   0  0  0  0  0  0  0  0  0  0  0  0
    7.9967  -18.6542   23.7946 C   0  0  0  0  0  0  0  0  0  0  0  0
    7.7712  -17.3268   23.1057 C   0  0  2  0  0  0  0  0  0  0  0  0
    8.3805  -17.3941   21.8062 N   0  0  0  0  0  0  0  0  0  0  0  0
    8.3297  -16.2658   23.9567 C   0  0  0  0  0  0  0  0  0  0  0  0
    9.5678  -16.1209   24.0258 O   0  0  0  0  0  0  0  0  0  0  0  0
    5.7444  -11.4967   26.8129 C   0  0  0  0  0  0  0  0  0  0  0  0
    7.0551  -12.2624   26.6419 C   0  0  2  0  0  0  0  0  0  0  0  0
    8.1096  -11.3399   26.1576 C   0  0  0  0  0  0  0  0  0  0  0  0
    6.7653  -13.4231   25.7436 C   0  0  0  0  0  0  0  0  0  0  0  0
    7.9304  -14.3498   25.5425 C   0  0  2  0  0  0  0  0  0  0  0  0
    7.4760  -15.4260   24.6827 N   0  0  0  0  0  0  0  0  0  0  0  0
    8.5303  -14.8505   26.7744 C   0  0  0  0  0  0  0  0  0  0  0  0
    9.4354  -14.3153   27.4234 O   0  0  0  0  0  0  0  0  0  0  0  0
    8.0413  -16.0672   27.2933 O   0  0  0  0  0  0  0  0  0  0  0  0
  2  1  1  0
  3  2  1  0
  4  3  1  0
  4  5  1  0
  5  6  1  6
  7  5  1  0
  7  8  2  0
  9 10  1  0
 10 12  1  0
 11 10  2  0
 12 13  1  0
 14 13  1  1
 14 15  1  0
 15  7  1  0
 16 14  1  0
 17 16  2  0
 19 18  1  6
 19 21  1  0
 20 19  1  0
 22 23  1  0
 22 21  1  1
 23 16  1  0
 24 22  1  0
 25 24  2  0
 26 24  1  0
M  END
$$$$
