MQL.pdb
     RDKit          3D

 26 25  0  0  1  0  0  0  0  0999 V2000
    7.5744  -12.1517   25.9238 C   0  0  0  0  0  0  0  0  0  0  0  0
    5.9934  -13.0021   25.6551 S   0  0  0  0  0  0  0  0  0  0  0  0
    6.0958  -14.1010   24.2254 C   0  0  0  0  0  0  0  0  0  0  0  0
    7.2764  -15.0491   24.3745 C   0  0  0  0  0  0  0  0  0  0  0  0
    7.3540  -15.9315   23.1391 C   0  0  2  0  0  0  0  0  0  0  0  0
    6.1865  -16.7850   23.1419 N   0  0  0  0  0  0  0  0  0  0  0  0
    8.6031  -16.7294   23.2197 C   0  0  0  0  0  0  0  0  0  0  0  0
    8.5154  -17.8836   23.7450 O   0  0  0  0  0  0  0  0  0  0  0  0
   10.8299  -18.6161   19.4675 N   0  0  0  0  0  0  0  0  0  0  0  0
   11.8742  -17.8859   20.0635 C   0  0  0  0  0  0  0  0  0  0  0  0
   13.0502  -18.3409   20.1775 O   0  0  0  0  0  0  0  0  0  0  0  0
   11.5802  -16.5263   20.5786 C   0  0  0  0  0  0  0  0  0  0  0  0
   12.1080  -16.3902   21.9690 C   0  0  0  0  0  0  0  0  0  0  0  0
   11.0922  -16.9743   22.9254 C   0  0  2  0  0  0  0  0  0  0  0  0
    9.8564  -16.2638   22.7455 N   0  0  0  0  0  0  0  0  0  0  0  0
   11.6311  -16.8699   24.2894 C   0  0  0  0  0  0  0  0  0  0  0  0
   12.7646  -17.3294   24.5396 O   0  0  0  0  0  0  0  0  0  0  0  0
    9.5738  -14.2586   29.4172 C   0  0  0  0  0  0  0  0  0  0  0  0
   10.8342  -14.8030   28.7472 C   0  0  2  0  0  0  0  0  0  0  0  0
   11.9548  -13.8544   28.9523 C   0  0  0  0  0  0  0  0  0  0  0  0
   10.4838  -15.0725   27.3181 C   0  0  0  0  0  0  0  0  0  0  0  0
   11.2883  -16.1721   26.6854 C   0  0  2  0  0  0  0  0  0  0  0  0
   10.8754  -16.2587   25.2976 N   0  0  0  0  0  0  0  0  0  0  0  0
   11.1985  -17.4605   27.3639 C   0  0  0  0  0  0  0  0  0  0  0  0
   10.2448  -18.2455   27.3306 O   0  0  0  0  0  0  0  0  0  0  0  0
   12.3016  -17.8693   28.1414 O   0  0  0  0  0  0  0  0  0  0  0  0
  2  1  1  0
  3  2  1  0
  4  3  1  0
  4  5  1  0
  5  6  1  1
  7  5  1  0
  7  8  2  0
  9 10  1  0
 10 12  1  0
 11 10  2  0
 12 13  1  0
 14 13  1  6
 14 15  1  0
 15  7  1  0
 16 14  1  0
 17 16  2  0
 19 18  1  1
 19 21  1  0
 20 19  1  0
 22 23  1  0
 22 21  1  1
 23 16  1  0
 24 22  1  0
 25 24  2  0
 26 24  1  0
M  END
$$$$
