MQL.pdb
     RDKit          3D

 26 25  0  0  1  0  0  0  0  0999 V2000
    8.2805  -11.9499   19.5932 C   0  0  0  0  0  0  0  0  0  0  0  0
    8.0356  -12.8856   18.0572 S   0  0  0  0  0  0  0  0  0  0  0  0
    7.9193  -14.6550   18.4004 C   0  0  0  0  0  0  0  0  0  0  0  0
    7.4864  -14.8837   19.8410 C   0  0  0  0  0  0  0  0  0  0  0  0
    8.6016  -15.6081   20.5775 C   0  0  2  0  0  0  0  0  0  0  0  0
    8.8425  -16.8534   19.8827 N   0  0  0  0  0  0  0  0  0  0  0  0
    8.1532  -15.8487   21.9719 C   0  0  0  0  0  0  0  0  0  0  0  0
    7.6011  -14.8752   22.5746 O   0  0  0  0  0  0  0  0  0  0  0  0
    4.9145  -19.9711   23.0745 N   0  0  0  0  0  0  0  0  0  0  0  0
    6.0059  -19.8249   23.9499 C   0  0  0  0  0  0  0  0  0  0  0  0
    5.8877  -19.8888   25.2089 O   0  0  0  0  0  0  0  0  0  0  0  0
    7.3496  -19.5860   23.3688 C   0  0  0  0  0  0  0  0  0  0  0  0
    8.1717  -18.7777   24.3182 C   0  0  0  0  0  0  0  0  0  0  0  0
    7.9543  -17.3128   24.0114 C   0  0  2  0  0  0  0  0  0  0  0  0
    8.3140  -17.0908   22.6382 N   0  0  0  0  0  0  0  0  0  0  0  0
    8.7530  -16.5207   24.9582 C   0  0  0  0  0  0  0  0  0  0  0  0
    9.9993  -16.5707   24.9034 O   0  0  0  0  0  0  0  0  0  0  0  0
    7.7815  -12.4801   25.4478 C   0  0  0  0  0  0  0  0  0  0  0  0
    6.9009  -13.3022   26.3871 C   0  0  2  0  0  0  0  0  0  0  0  0
    5.8168  -12.4471   26.9268 C   0  0  0  0  0  0  0  0  0  0  0  0
    7.8064  -13.9037   27.4149 C   0  0  0  0  0  0  0  0  0  0  0  0
    8.8159  -14.8658   26.8562 C   0  0  2  0  0  0  0  0  0  0  0  0
    8.1170  -15.7175   25.9128 N   0  0  0  0  0  0  0  0  0  0  0  0
    9.5400  -15.6396   27.8588 C   0  0  0  0  0  0  0  0  0  0  0  0
    9.4106  -16.8459   28.0928 O   0  0  0  0  0  0  0  0  0  0  0  0
   10.4881  -14.9600   28.6512 O   0  0  0  0  0  0  0  0  0  0  0  0
  2  1  1  0
  3  2  1  0
  4  3  1  0
  4  5  1  0
  5  6  1  6
  7  5  1  0
  7  8  2  0
  9 10  1  0
 10 12  1  0
 11 10  2  0
 12 13  1  0
 14 13  1  1
 14 15  1  0
 15  7  1  0
 16 14  1  0
 17 16  2  0
 19 18  1  6
 19 21  1  0
 20 19  1  0
 22 23  1  0
 22 21  1  1
 23 16  1  0
 24 22  1  0
 25 24  2  0
 26 24  1  0
M  END
$$$$
