MQL.pdb
     RDKit          3D

 26 25  0  0  1  0  0  0  0  0999 V2000
    8.7485  -11.2275   20.4586 C   0  0  0  0  0  0  0  0  0  0  0  0
    8.0806  -11.9518   18.9341 S   0  0  0  0  0  0  0  0  0  0  0  0
    8.3416  -13.7389   18.9100 C   0  0  0  0  0  0  0  0  0  0  0  0
    7.7723  -14.3703   20.1718 C   0  0  0  0  0  0  0  0  0  0  0  0
    8.0796  -15.8590   20.1550 C   0  0  2  0  0  0  0  0  0  0  0  0
    7.0203  -16.5120   19.4181 N   0  0  0  0  0  0  0  0  0  0  0  0
    8.1297  -16.3356   21.5599 C   0  0  0  0  0  0  0  0  0  0  0  0
    7.0163  -16.5457   22.1361 O   0  0  0  0  0  0  0  0  0  0  0  0
   12.3636  -19.9182   24.0885 N   0  0  0  0  0  0  0  0  0  0  0  0
   11.5953  -19.6160   25.2275 C   0  0  0  0  0  0  0  0  0  0  0  0
   11.7759  -20.1818   26.3457 O   0  0  0  0  0  0  0  0  0  0  0  0
   10.5299  -18.5907   25.1085 C   0  0  0  0  0  0  0  0  0  0  0  0
   10.4950  -18.0614   23.7124 C   0  0  0  0  0  0  0  0  0  0  0  0
    9.4015  -17.0204   23.6229 C   0  0  2  0  0  0  0  0  0  0  0  0
    9.3411  -16.5586   22.2637 N   0  0  0  0  0  0  0  0  0  0  0  0
    9.7023  -15.9527   24.5881 C   0  0  0  0  0  0  0  0  0  0  0  0
   10.8059  -15.3713   24.5376 O   0  0  0  0  0  0  0  0  0  0  0  0
    8.3065  -12.0685   25.6277 C   0  0  0  0  0  0  0  0  0  0  0  0
    7.2186  -13.1074   25.8941 C   0  0  2  0  0  0  0  0  0  0  0  0
    5.9380  -12.4211   26.1887 C   0  0  0  0  0  0  0  0  0  0  0  0
    7.7269  -13.9981   26.9833 C   0  0  0  0  0  0  0  0  0  0  0  0
    9.0203  -14.6893   26.6578 C   0  0  2  0  0  0  0  0  0  0  0  0
    8.7552  -15.5935   25.5550 N   0  0  0  0  0  0  0  0  0  0  0  0
    9.6474  -15.3708   27.7849 C   0  0  0  0  0  0  0  0  0  0  0  0
    9.5825  -16.5770   28.0450 O   0  0  0  0  0  0  0  0  0  0  0  0
   10.4092  -14.5913   28.6798 O   0  0  0  0  0  0  0  0  0  0  0  0
  2  1  1  0
  3  2  1  0
  4  3  1  0
  4  5  1  0
  5  6  1  6
  7  5  1  0
  7  8  2  0
  9 10  1  0
 10 12  1  0
 11 10  2  0
 12 13  1  0
 14 13  1  6
 14 15  1  0
 15  7  1  0
 16 14  1  0
 17 16  2  0
 19 18  1  1
 19 21  1  0
 20 19  1  0
 22 23  1  0
 22 21  1  1
 23 16  1  0
 24 22  1  0
 25 24  2  0
 26 24  1  0
M  END
$$$$
