MQL.pdb
     RDKit          3D

 26 25  0  0  1  0  0  0  0  0999 V2000
    9.2316  -11.8875   18.8220 C   0  0  0  0  0  0  0  0  0  0  0  0
    7.4810  -12.1410   19.2294 S   0  0  0  0  0  0  0  0  0  0  0  0
    7.1709  -13.8669   19.6622 C   0  0  0  0  0  0  0  0  0  0  0  0
    8.4058  -14.4769   20.3086 C   0  0  0  0  0  0  0  0  0  0  0  0
    8.1056  -15.9230   20.6685 C   0  0  2  0  0  0  0  0  0  0  0  0
    6.9794  -15.9191   21.5759 N   0  0  0  0  0  0  0  0  0  0  0  0
    9.3127  -16.4983   21.3127 C   0  0  0  0  0  0  0  0  0  0  0  0
   10.2449  -16.8895   20.5419 O   0  0  0  0  0  0  0  0  0  0  0  0
   14.1665  -15.5547   21.0095 N   0  0  0  0  0  0  0  0  0  0  0  0
   13.9986  -15.0746   22.3211 C   0  0  0  0  0  0  0  0  0  0  0  0
   14.6506  -14.0908   22.7793 O   0  0  0  0  0  0  0  0  0  0  0  0
   13.0152  -15.7529   23.2004 C   0  0  0  0  0  0  0  0  0  0  0  0
   11.6691  -15.7396   22.5537 C   0  0  0  0  0  0  0  0  0  0  0  0
   10.7256  -16.5687   23.3963 C   0  0  2  0  0  0  0  0  0  0  0  0
    9.4602  -16.6242   22.7180 N   0  0  0  0  0  0  0  0  0  0  0  0
   10.6445  -15.9590   24.7317 C   0  0  0  0  0  0  0  0  0  0  0  0
   11.6829  -15.8290   25.4125 O   0  0  0  0  0  0  0  0  0  0  0  0
    8.5427  -12.5479   26.5515 C   0  0  0  0  0  0  0  0  0  0  0  0
    7.5625  -13.5627   25.9658 C   0  0  2  0  0  0  0  0  0  0  0  0
    6.1948  -12.9906   25.9684 C   0  0  0  0  0  0  0  0  0  0  0  0
    7.7241  -14.8253   26.7516 C   0  0  0  0  0  0  0  0  0  0  0  0
    9.0886  -15.4446   26.6448 C   0  0  2  0  0  0  0  0  0  0  0  0
    9.4098  -15.5283   25.2328 N   0  0  0  0  0  0  0  0  0  0  0  0
    9.2269  -16.7334   27.3142 C   0  0  0  0  0  0  0  0  0  0  0  0
    9.5561  -16.9209   28.4903 O   0  0  0  0  0  0  0  0  0  0  0  0
    8.9622  -17.8949   26.5594 O   0  0  0  0  0  0  0  0  0  0  0  0
  2  1  1  0
  3  2  1  0
  4  3  1  0
  4  5  1  0
  5  6  1  1
  7  5  1  0
  7  8  2  0
  9 10  1  0
 10 12  1  0
 11 10  2  0
 12 13  1  0
 14 13  1  6
 14 15  1  0
 15  7  1  0
 16 14  1  0
 17 16  2  0
 19 18  1  1
 19 21  1  0
 20 19  1  0
 22 23  1  0
 22 21  1  6
 23 16  1  0
 24 22  1  0
 25 24  2  0
 26 24  1  0
M  END
$$$$
