MQL.pdb
     RDKit          3D

 26 25  0  0  1  0  0  0  0  0999 V2000
    2.4161  -18.4367   19.3395 C   0  0  0  0  0  0  0  0  0  0  0  0
    1.9779  -19.1675   20.9423 S   0  0  0  0  0  0  0  0  0  0  0  0
    3.2877  -18.8814   22.1526 C   0  0  0  0  0  0  0  0  0  0  0  0
    4.6151  -18.6505   21.4459 C   0  0  0  0  0  0  0  0  0  0  0  0
    5.6830  -18.3697   22.4909 C   0  0  2  0  0  0  0  0  0  0  0  0
    5.0292  -17.7528   23.6239 N   0  0  0  0  0  0  0  0  0  0  0  0
    6.6888  -17.4588   21.8894 C   0  0  0  0  0  0  0  0  0  0  0  0
    7.7232  -17.9976   21.3838 O   0  0  0  0  0  0  0  0  0  0  0  0
    7.8698  -12.9690   17.7511 N   0  0  0  0  0  0  0  0  0  0  0  0
    8.6146  -13.4037   18.8625 C   0  0  0  0  0  0  0  0  0  0  0  0
    9.7131  -14.0233   18.7512 O   0  0  0  0  0  0  0  0  0  0  0  0
    8.0866  -13.1220   20.2198 C   0  0  0  0  0  0  0  0  0  0  0  0
    7.0155  -14.1066   20.5571 C   0  0  0  0  0  0  0  0  0  0  0  0
    7.5966  -15.1435   21.4924 C   0  0  2  0  0  0  0  0  0  0  0  0
    6.5423  -16.0481   21.8591 N   0  0  0  0  0  0  0  0  0  0  0  0
    8.1909  -14.4451   22.6417 C   0  0  0  0  0  0  0  0  0  0  0  0
    8.5563  -13.2577   22.5179 O   0  0  0  0  0  0  0  0  0  0  0  0
    7.6315  -13.8005   27.7857 C   0  0  0  0  0  0  0  0  0  0  0  0
    7.7542  -12.7354   26.6975 C   0  0  2  0  0  0  0  0  0  0  0  0
    6.7671  -11.6573   26.9443 C   0  0  0  0  0  0  0  0  0  0  0  0
    7.6117  -13.4384   25.3846 C   0  0  0  0  0  0  0  0  0  0  0  0
    8.6854  -14.4529   25.1117 C   0  0  2  0  0  0  0  0  0  0  0  0
    8.3442  -15.1102   23.8644 N   0  0  0  0  0  0  0  0  0  0  0  0
    8.9085  -15.4093   26.1904 C   0  0  0  0  0  0  0  0  0  0  0  0
    9.7234  -15.3021   27.1130 O   0  0  0  0  0  0  0  0  0  0  0  0
    8.1243  -16.5814   26.1988 O   0  0  0  0  0  0  0  0  0  0  0  0
  2  1  1  0
  3  2  1  0
  4  3  1  0
  4  5  1  0
  5  6  1  1
  7  5  1  0
  7  8  2  0
  9 10  1  0
 10 12  1  0
 11 10  2  0
 12 13  1  0
 14 13  1  6
 14 15  1  0
 15  7  1  0
 16 14  1  0
 17 16  2  0
 19 18  1  1
 19 21  1  0
 20 19  1  0
 22 23  1  0
 22 21  1  1
 23 16  1  0
 24 22  1  0
 25 24  2  0
 26 24  1  0
M  END
$$$$
