MQL.pdb
     RDKit          3D

 26 25  0  0  1  0  0  0  0  0999 V2000
    8.3473  -11.6250   17.6936 C   0  0  0  0  0  0  0  0  0  0  0  0
    7.6985  -12.3189   19.2403 S   0  0  0  0  0  0  0  0  0  0  0  0
    7.6712  -14.1234   19.1673 C   0  0  0  0  0  0  0  0  0  0  0  0
    7.0951  -14.6930   20.4551 C   0  0  0  0  0  0  0  0  0  0  0  0
    7.0518  -16.2085   20.3431 C   0  0  2  0  0  0  0  0  0  0  0  0
    5.7123  -16.5753   19.9397 N   0  0  0  0  0  0  0  0  0  0  0  0
    7.3881  -16.7790   21.6715 C   0  0  0  0  0  0  0  0  0  0  0  0
    6.4876  -16.7215   22.5669 O   0  0  0  0  0  0  0  0  0  0  0  0
   13.3306  -18.8086   24.7331 N   0  0  0  0  0  0  0  0  0  0  0  0
   12.1279  -19.5065   24.5203 C   0  0  0  0  0  0  0  0  0  0  0  0
   12.0903  -20.7483   24.2759 O   0  0  0  0  0  0  0  0  0  0  0  0
   10.8527  -18.7516   24.5862 C   0  0  0  0  0  0  0  0  0  0  0  0
   10.3929  -18.4195   23.2046 C   0  0  0  0  0  0  0  0  0  0  0  0
    9.0999  -17.6413   23.3051 C   0  0  2  0  0  0  0  0  0  0  0  0
    8.6429  -17.3695   21.9703 N   0  0  0  0  0  0  0  0  0  0  0  0
    9.3541  -16.4260   24.0926 C   0  0  0  0  0  0  0  0  0  0  0  0
   10.1276  -15.5540   23.6453 O   0  0  0  0  0  0  0  0  0  0  0  0
    6.1361  -12.6770   27.1610 C   0  0  0  0  0  0  0  0  0  0  0  0
    7.5868  -13.1508   27.0913 C   0  0  2  0  0  0  0  0  0  0  0  0
    8.4600  -12.0200   26.6960 C   0  0  0  0  0  0  0  0  0  0  0  0
    7.6147  -14.3277   26.1682 C   0  0  0  0  0  0  0  0  0  0  0  0
    8.9115  -15.0859   26.1791 C   0  0  2  0  0  0  0  0  0  0  0  0
    8.7314  -16.2514   25.3346 N   0  0  0  0  0  0  0  0  0  0  0  0
    9.3972  -15.4432   27.5075 C   0  0  0  0  0  0  0  0  0  0  0  0
    9.9780  -14.6984   28.3043 O   0  0  0  0  0  0  0  0  0  0  0  0
    9.1928  -16.7682   27.9449 O   0  0  0  0  0  0  0  0  0  0  0  0
  2  1  1  0
  3  2  1  0
  4  3  1  0
  4  5  1  0
  5  6  1  1
  7  5  1  0
  7  8  2  0
  9 10  1  0
 10 12  1  0
 11 10  2  0
 12 13  1  0
 14 13  1  6
 14 15  1  0
 15  7  1  0
 16 14  1  0
 17 16  2  0
 19 18  1  6
 19 21  1  0
 20 19  1  0
 22 23  1  0
 22 21  1  1
 23 16  1  0
 24 22  1  0
 25 24  2  0
 26 24  1  0
M  END
$$$$
