MQL.pdb
     RDKit          3D

 26 25  0  0  1  0  0  0  0  0999 V2000
    6.0803  -22.4178   24.0590 C   0  0  0  0  0  0  0  0  0  0  0  0
    6.8505  -22.2791   22.4212 S   0  0  0  0  0  0  0  0  0  0  0  0
    7.1629  -20.5487   22.0083 C   0  0  0  0  0  0  0  0  0  0  0  0
    5.8634  -19.7580   22.0397 C   0  0  0  0  0  0  0  0  0  0  0  0
    5.9883  -18.6531   23.0764 C   0  0  2  0  0  0  0  0  0  0  0  0
    4.6833  -18.0474   23.2238 N   0  0  0  0  0  0  0  0  0  0  0  0
    6.9849  -17.6693   22.5843 C   0  0  0  0  0  0  0  0  0  0  0  0
    8.1620  -18.0999   22.3724 O   0  0  0  0  0  0  0  0  0  0  0  0
    7.7388  -12.7658   18.5194 N   0  0  0  0  0  0  0  0  0  0  0  0
    8.4160  -13.3752   19.5913 C   0  0  0  0  0  0  0  0  0  0  0  0
    9.4166  -14.1335   19.4272 O   0  0  0  0  0  0  0  0  0  0  0  0
    7.9338  -13.1154   20.9698 C   0  0  0  0  0  0  0  0  0  0  0  0
    6.9278  -14.1503   21.3541 C   0  0  0  0  0  0  0  0  0  0  0  0
    7.6587  -15.3210   21.9728 C   0  0  2  0  0  0  0  0  0  0  0  0
    6.6804  -16.3039   22.3486 N   0  0  0  0  0  0  0  0  0  0  0  0
    8.4493  -14.8224   23.1077 C   0  0  0  0  0  0  0  0  0  0  0  0
    9.4896  -14.1668   22.8915 O   0  0  0  0  0  0  0  0  0  0  0  0
    7.8848  -11.7890   25.7167 C   0  0  0  0  0  0  0  0  0  0  0  0
    6.9207  -12.9474   25.9666 C   0  0  2  0  0  0  0  0  0  0  0  0
    5.7943  -12.4825   26.8109 C   0  0  0  0  0  0  0  0  0  0  0  0
    7.7278  -14.0665   26.5446 C   0  0  0  0  0  0  0  0  0  0  0  0
    8.7484  -14.6381   25.6020 C   0  0  2  0  0  0  0  0  0  0  0  0
    8.0353  -15.0829   24.4198 N   0  0  0  0  0  0  0  0  0  0  0  0
    9.5779  -15.6951   26.1701 C   0  0  0  0  0  0  0  0  0  0  0  0
   10.3187  -15.6011   27.1546 O   0  0  0  0  0  0  0  0  0  0  0  0
    9.5448  -16.9596   25.5468 O   0  0  0  0  0  0  0  0  0  0  0  0
  2  1  1  0
  3  2  1  0
  4  3  1  0
  4  5  1  0
  5  6  1  6
  7  5  1  0
  7  8  2  0
  9 10  1  0
 10 12  1  0
 11 10  2  0
 12 13  1  0
 14 13  1  1
 14 15  1  0
 15  7  1  0
 16 14  1  0
 17 16  2  0
 19 18  1  1
 19 21  1  0
 20 19  1  0
 22 23  1  0
 22 21  1  1
 23 16  1  0
 24 22  1  0
 25 24  2  0
 26 24  1  0
M  END
$$$$
