MQL.pdb
     RDKit          3D

 26 25  0  0  1  0  0  0  0  0999 V2000
    8.6097  -11.1356   20.0779 C   0  0  0  0  0  0  0  0  0  0  0  0
    7.7127  -12.0599   18.7989 S   0  0  0  0  0  0  0  0  0  0  0  0
    8.2100  -13.7963   18.8006 C   0  0  0  0  0  0  0  0  0  0  0  0
    7.7515  -14.4732   20.0837 C   0  0  0  0  0  0  0  0  0  0  0  0
    8.2731  -15.9011   20.0966 C   0  0  2  0  0  0  0  0  0  0  0  0
    7.3562  -16.7046   19.3186 N   0  0  0  0  0  0  0  0  0  0  0  0
    8.3261  -16.3602   21.5071 C   0  0  0  0  0  0  0  0  0  0  0  0
    7.2237  -16.6936   22.0453 O   0  0  0  0  0  0  0  0  0  0  0  0
   12.5737  -19.7354   23.9329 N   0  0  0  0  0  0  0  0  0  0  0  0
   11.7801  -19.7684   22.7718 C   0  0  0  0  0  0  0  0  0  0  0  0
   11.9592  -20.6102   21.8431 O   0  0  0  0  0  0  0  0  0  0  0  0
   10.6890  -18.7730   22.6343 C   0  0  0  0  0  0  0  0  0  0  0  0
   10.7289  -17.8208   23.7842 C   0  0  0  0  0  0  0  0  0  0  0  0
    9.5863  -16.8414   23.6338 C   0  0  2  0  0  0  0  0  0  0  0  0
    9.5284  -16.4380   22.2560 N   0  0  0  0  0  0  0  0  0  0  0  0
    9.8147  -15.7220   24.5594 C   0  0  0  0  0  0  0  0  0  0  0  0
   10.8843  -15.0811   24.4971 O   0  0  0  0  0  0  0  0  0  0  0  0
    8.1690  -11.9887   25.5541 C   0  0  0  0  0  0  0  0  0  0  0  0
    7.1689  -13.0888   25.9050 C   0  0  2  0  0  0  0  0  0  0  0  0
    5.8516  -12.4826   26.2130 C   0  0  0  0  0  0  0  0  0  0  0  0
    7.7751  -13.8882   27.0148 C   0  0  0  0  0  0  0  0  0  0  0  0
    9.0809  -14.5403   26.6595 C   0  0  2  0  0  0  0  0  0  0  0  0
    8.8374  -15.3804   25.5023 N   0  0  0  0  0  0  0  0  0  0  0  0
    9.7092  -15.2794   27.7491 C   0  0  0  0  0  0  0  0  0  0  0  0
   10.3088  -14.7978   28.7162 O   0  0  0  0  0  0  0  0  0  0  0  0
    9.6354  -16.6872   27.7131 O   0  0  0  0  0  0  0  0  0  0  0  0
  2  1  1  0
  3  2  1  0
  4  3  1  0
  4  5  1  0
  5  6  1  6
  7  5  1  0
  7  8  2  0
  9 10  1  0
 10 12  1  0
 11 10  2  0
 12 13  1  0
 14 13  1  6
 14 15  1  0
 15  7  1  0
 16 14  1  0
 17 16  2  0
 19 18  1  1
 19 21  1  0
 20 19  1  0
 22 23  1  0
 22 21  1  1
 23 16  1  0
 24 22  1  0
 25 24  2  0
 26 24  1  0
M  END
$$$$
