MQL.pdb
     RDKit          3D

 26 25  0  0  1  0  0  0  0  0999 V2000
    9.4502  -10.8783   19.1240 C   0  0  0  0  0  0  0  0  0  0  0  0
    8.0838  -12.0416   19.3969 S   0  0  0  0  0  0  0  0  0  0  0  0
    8.6272  -13.7407   19.1140 C   0  0  0  0  0  0  0  0  0  0  0  0
    7.4733  -14.7062   19.3402 C   0  0  0  0  0  0  0  0  0  0  0  0
    8.0021  -16.1289   19.2538 C   0  0  2  0  0  0  0  0  0  0  0  0
    7.1181  -16.8675   18.3795 N   0  0  0  0  0  0  0  0  0  0  0  0
    8.0073  -16.7030   20.6226 C   0  0  0  0  0  0  0  0  0  0  0  0
    6.8757  -16.9381   21.1520 O   0  0  0  0  0  0  0  0  0  0  0  0
    9.6552  -20.7282   25.4549 N   0  0  0  0  0  0  0  0  0  0  0  0
   10.5400  -20.0811   24.5732 C   0  0  0  0  0  0  0  0  0  0  0  0
   11.4193  -20.7022   23.9067 O   0  0  0  0  0  0  0  0  0  0  0  0
   10.4345  -18.6094   24.4214 C   0  0  0  0  0  0  0  0  0  0  0  0
   10.3938  -18.2549   22.9711 C   0  0  0  0  0  0  0  0  0  0  0  0
    9.2223  -17.3272   22.7383 C   0  0  2  0  0  0  0  0  0  0  0  0
    9.1957  -16.9908   21.3417 N   0  0  0  0  0  0  0  0  0  0  0  0
    9.3794  -16.1582   23.6162 C   0  0  0  0  0  0  0  0  0  0  0  0
   10.3828  -15.4259   23.4912 O   0  0  0  0  0  0  0  0  0  0  0  0
    5.7528  -12.4276   26.5911 C   0  0  0  0  0  0  0  0  0  0  0  0
    7.1953  -12.9293   26.5576 C   0  0  2  0  0  0  0  0  0  0  0  0
    8.1071  -11.7994   26.2582 C   0  0  0  0  0  0  0  0  0  0  0  0
    7.2393  -14.0578   25.5765 C   0  0  0  0  0  0  0  0  0  0  0  0
    8.5333  -14.8209   25.5760 C   0  0  2  0  0  0  0  0  0  0  0  0
    8.4086  -15.8716   24.5838 N   0  0  0  0  0  0  0  0  0  0  0  0
    8.9331  -15.3432   26.8781 C   0  0  0  0  0  0  0  0  0  0  0  0
    8.5888  -16.4198   27.3772 O   0  0  0  0  0  0  0  0  0  0  0  0
    9.8004  -14.5543   27.6618 O   0  0  0  0  0  0  0  0  0  0  0  0
  2  1  1  0
  3  2  1  0
  4  3  1  0
  4  5  1  0
  5  6  1  6
  7  5  1  0
  7  8  2  0
  9 10  1  0
 10 12  1  0
 11 10  2  0
 12 13  1  0
 14 13  1  6
 14 15  1  0
 15  7  1  0
 16 14  1  0
 17 16  2  0
 19 18  1  6
 19 21  1  0
 20 19  1  0
 22 23  1  0
 22 21  1  1
 23 16  1  0
 24 22  1  0
 25 24  2  0
 26 24  1  0
M  END
$$$$
