MQL.pdb
     RDKit          3D

 26 25  0  0  1  0  0  0  0  0999 V2000
    7.9096  -11.8389   18.1301 C   0  0  0  0  0  0  0  0  0  0  0  0
    8.0037  -13.5963   18.5745 S   0  0  0  0  0  0  0  0  0  0  0  0
    6.5074  -14.1151   19.4430 C   0  0  0  0  0  0  0  0  0  0  0  0
    6.8546  -15.1109   20.5396 C   0  0  0  0  0  0  0  0  0  0  0  0
    8.1088  -14.6338   21.2541 C   0  0  2  0  0  0  0  0  0  0  0  0
    9.2146  -14.7810   20.3337 N   0  0  0  0  0  0  0  0  0  0  0  0
    8.2997  -15.4748   22.4622 C   0  0  0  0  0  0  0  0  0  0  0  0
    7.3376  -15.5163   23.2920 O   0  0  0  0  0  0  0  0  0  0  0  0
   13.3862  -19.4911   25.3710 N   0  0  0  0  0  0  0  0  0  0  0  0
   12.1704  -19.6776   24.6884 C   0  0  0  0  0  0  0  0  0  0  0  0
   11.9747  -20.6386   23.8875 O   0  0  0  0  0  0  0  0  0  0  0  0
   11.0746  -18.7050   24.9199 C   0  0  0  0  0  0  0  0  0  0  0  0
   10.9343  -17.8129   23.7304 C   0  0  0  0  0  0  0  0  0  0  0  0
    9.7400  -16.9107   23.9475 C   0  0  2  0  0  0  0  0  0  0  0  0
    9.4837  -16.2132   22.7178 N   0  0  0  0  0  0  0  0  0  0  0  0
   10.0388  -16.0145   25.0742 C   0  0  0  0  0  0  0  0  0  0  0  0
   11.1289  -15.4068   25.1040 O   0  0  0  0  0  0  0  0  0  0  0  0
    8.4875  -12.3806   26.2262 C   0  0  0  0  0  0  0  0  0  0  0  0
    7.4857  -13.5091   26.4637 C   0  0  2  0  0  0  0  0  0  0  0  0
    6.1379  -12.9364   26.6945 C   0  0  0  0  0  0  0  0  0  0  0  0
    8.0242  -14.3378   27.5868 C   0  0  0  0  0  0  0  0  0  0  0  0
    9.3255  -15.0212   27.2764 C   0  0  2  0  0  0  0  0  0  0  0  0
    9.1050  -15.8466   26.1042 N   0  0  0  0  0  0  0  0  0  0  0  0
    9.8923  -15.7840   28.3833 C   0  0  0  0  0  0  0  0  0  0  0  0
    9.8915  -17.0134   28.5072 O   0  0  0  0  0  0  0  0  0  0  0  0
   10.5081  -15.0634   29.4274 O   0  0  0  0  0  0  0  0  0  0  0  0
  2  1  1  0
  3  2  1  0
  4  3  1  0
  4  5  1  0
  5  6  1  6
  7  5  1  0
  7  8  2  0
  9 10  1  0
 10 12  1  0
 11 10  2  0
 12 13  1  0
 14 13  1  6
 14 15  1  0
 15  7  1  0
 16 14  1  0
 17 16  2  0
 19 18  1  1
 19 21  1  0
 20 19  1  0
 22 23  1  0
 22 21  1  1
 23 16  1  0
 24 22  1  0
 25 24  2  0
 26 24  1  0
M  END
$$$$
