MAW.pdb
     RDKit          3D

 28 29  0  0  1  0  0  0  0  0999 V2000
   28.3204  -17.3489  -18.9779 C   0  0  0  0  0  0  0  0  0  0  0  0
   29.2507  -18.4811  -17.9249 S   0  0  0  0  0  0  0  0  0  0  0  0
   29.6657  -17.7119  -16.3821 C   0  0  0  0  0  0  0  0  0  0  0  0
   28.6666  -17.7811  -15.2948 C   0  0  0  0  0  0  0  0  0  0  0  0
   27.2395  -17.5726  -15.6465 C   0  0  2  0  0  0  0  0  0  0  0  0
   26.9140  -16.2379  -16.0348 N   0  0  0  0  0  0  0  0  0  0  0  0
   26.4469  -17.9026  -14.4141 C   0  0  0  0  0  0  0  0  0  0  0  0
   26.6284  -17.2315  -13.3412 O   0  0  0  0  0  0  0  0  0  0  0  0
   23.4010  -19.9112  -13.5828 C   0  0  0  0  0  0  0  0  0  0  0  0
   24.6989  -19.2338  -13.2494 C   0  0  2  0  0  0  0  0  0  0  0  0
   25.5039  -18.9479  -14.4310 N   0  0  0  0  0  0  0  0  0  0  0  0
   25.5566  -20.0783  -12.3509 C   0  0  0  0  0  0  0  0  0  0  0  0
   26.3045  -20.9918  -12.7995 O   0  0  0  0  0  0  0  0  0  0  0  0
   25.5683  -19.8889  -10.9425 N   0  0  0  0  0  0  0  0  0  0  0  0
   26.2534  -20.8242  -10.0652 C   0  0  1  0  0  0  0  0  0  0  0  0
   27.3435  -20.1566   -9.2752 C   0  0  0  0  0  0  0  0  0  0  0  0
   26.9632  -20.1795   -7.8460 C   0  0  0  0  0  0  0  0  0  0  0  0
   25.7756  -20.6235   -7.3081 C   0  0  0  0  0  0  0  0  0  0  0  0
   25.8180  -20.4731   -5.9516 N   0  0  0  0  0  0  0  0  0  0  0  0
   27.0113  -19.9404   -5.6046 C   0  0  0  0  0  0  0  0  0  0  0  0
   27.5564  -19.5945   -4.4018 C   0  0  0  0  0  0  0  0  0  0  0  0
   28.8230  -19.0590   -4.3449 C   0  0  0  0  0  0  0  0  0  0  0  0
   29.5368  -18.8735   -5.5009 C   0  0  0  0  0  0  0  0  0  0  0  0
   28.9951  -19.2192   -6.7159 C   0  0  0  0  0  0  0  0  0  0  0  0
   27.7277  -19.7560   -6.7819 C   0  0  0  0  0  0  0  0  0  0  0  0
   25.2692  -21.5457   -9.2079 C   0  0  0  0  0  0  0  0  0  0  0  0
   25.5617  -22.6623   -8.6777 O   0  0  0  0  0  0  0  0  0  0  0  0
   24.0087  -21.0385   -8.9531 O   0  0  0  0  0  0  0  0  0  0  0  0
  2  1  1  0
  3  4  1  0
  3  2  1  0
  4  5  1  0
  5  7  1  0
  5  6  1  1
  7  8  2  0
 10  9  1  6
 11 10  1  0
 11  7  1  0
 12 10  1  0
 13 12  2  0
 14 12  1  0
 15 26  1  0
 15 14  1  0
 15 16  1  1
 17 16  1  0
 18 17  2  0
 19 20  1  0
 19 18  1  0
 20 25  2  0
 21 22  2  0
 21 20  1  0
 22 23  1  0
 23 24  2  0
 25 17  1  0
 25 24  1  0
 26 28  1  0
 27 26  2  0
M  END
$$$$
