MAW.pdb
     RDKit          3D

 28 29  0  0  1  0  0  0  0  0999 V2000
   32.4070  -21.7616  -12.3216 C   0  0  0  0  0  0  0  0  0  0  0  0
   32.0094  -23.2297  -13.2925 S   0  0  0  0  0  0  0  0  0  0  0  0
   30.8781  -22.8353  -14.5997 C   0  0  0  0  0  0  0  0  0  0  0  0
   29.6609  -22.0763  -14.2426 C   0  0  0  0  0  0  0  0  0  0  0  0
   28.7858  -21.6051  -15.3453 C   0  0  2  0  0  0  0  0  0  0  0  0
   29.4210  -20.7213  -16.2692 N   0  0  0  0  0  0  0  0  0  0  0  0
   27.6521  -20.8620  -14.6984 C   0  0  0  0  0  0  0  0  0  0  0  0
   27.8255  -19.6615  -14.2942 O   0  0  0  0  0  0  0  0  0  0  0  0
   23.9601  -21.1933  -14.3123 C   0  0  0  0  0  0  0  0  0  0  0  0
   25.3230  -20.7869  -13.8304 C   0  0  2  0  0  0  0  0  0  0  0  0
   26.3973  -21.4786  -14.5328 N   0  0  0  0  0  0  0  0  0  0  0  0
   25.5133  -21.0872  -12.3711 C   0  0  0  0  0  0  0  0  0  0  0  0
   26.1782  -22.0835  -11.9708 O   0  0  0  0  0  0  0  0  0  0  0  0
   24.9508  -20.2586  -11.3627 N   0  0  0  0  0  0  0  0  0  0  0  0
   25.0406  -20.6206   -9.9576 C   0  0  1  0  0  0  0  0  0  0  0  0
   26.4208  -20.3958   -9.4076 C   0  0  0  0  0  0  0  0  0  0  0  0
   26.3501  -20.4622   -7.9316 C   0  0  0  0  0  0  0  0  0  0  0  0
   25.3064  -20.9381   -7.1693 C   0  0  0  0  0  0  0  0  0  0  0  0
   25.6321  -20.8231   -5.8482 N   0  0  0  0  0  0  0  0  0  0  0  0
   26.8668  -20.2818   -5.7444 C   0  0  0  0  0  0  0  0  0  0  0  0
   27.6497  -19.9597   -4.6735 C   0  0  0  0  0  0  0  0  0  0  0  0
   28.8950  -19.4069   -4.8685 C   0  0  0  0  0  0  0  0  0  0  0  0
   29.3477  -19.1801   -6.1428 C   0  0  0  0  0  0  0  0  0  0  0  0
   28.5655  -19.5017   -7.2264 C   0  0  0  0  0  0  0  0  0  0  0  0
   27.3176  -20.0555   -7.0401 C   0  0  0  0  0  0  0  0  0  0  0  0
   23.9796  -19.9237   -9.1746 C   0  0  0  0  0  0  0  0  0  0  0  0
   23.7204  -20.2662   -7.9791 O   0  0  0  0  0  0  0  0  0  0  0  0
   23.2386  -18.8852   -9.7069 O   0  0  0  0  0  0  0  0  0  0  0  0
  2  1  1  0
  3  4  1  0
  3  2  1  0
  4  5  1  0
  5  7  1  0
  5  6  1  6
  7  8  2  0
 10  9  1  6
 11 10  1  0
 11  7  1  0
 12 10  1  0
 13 12  2  0
 14 12  1  0
 15 26  1  0
 15 14  1  0
 15 16  1  1
 17 16  1  0
 18 17  2  0
 19 20  1  0
 19 18  1  0
 20 25  2  0
 21 22  2  0
 21 20  1  0
 22 23  1  0
 23 24  2  0
 25 17  1  0
 25 24  1  0
 26 28  1  0
 27 26  2  0
M  END
$$$$
