MAW.pdb
     RDKit          3D

 28 29  0  0  1  0  0  0  0  0999 V2000
   31.5655  -23.4095   -9.7911 C   0  0  0  0  0  0  0  0  0  0  0  0
   32.6578  -22.5051  -10.9069 S   0  0  0  0  0  0  0  0  0  0  0  0
   31.7310  -21.7182  -12.1977 C   0  0  0  0  0  0  0  0  0  0  0  0
   30.3945  -21.1891  -11.8528 C   0  0  0  0  0  0  0  0  0  0  0  0
   29.5074  -20.7611  -12.9634 C   0  0  2  0  0  0  0  0  0  0  0  0
   30.0527  -19.7381  -13.7966 N   0  0  0  0  0  0  0  0  0  0  0  0
   28.2593  -20.2220  -12.3249 C   0  0  0  0  0  0  0  0  0  0  0  0
   28.2425  -19.0285  -11.8667 O   0  0  0  0  0  0  0  0  0  0  0  0
   24.6606  -20.8013  -12.4371 C   0  0  0  0  0  0  0  0  0  0  0  0
   25.8870  -20.4892  -11.6288 C   0  0  2  0  0  0  0  0  0  0  0  0
   27.1053  -21.0225  -12.2265 N   0  0  0  0  0  0  0  0  0  0  0  0
   25.8085  -21.0696  -10.2457 C   0  0  0  0  0  0  0  0  0  0  0  0
   26.1878  -22.2463   -9.9878 O   0  0  0  0  0  0  0  0  0  0  0  0
   25.3004  -20.3173   -9.1523 N   0  0  0  0  0  0  0  0  0  0  0  0
   25.0864  -20.9330   -7.8528 C   0  0  1  0  0  0  0  0  0  0  0  0
   25.1985  -19.9358   -6.7343 C   0  0  0  0  0  0  0  0  0  0  0  0
   26.6251  -19.5823   -6.5672 C   0  0  0  0  0  0  0  0  0  0  0  0
   27.4168  -18.8799   -7.4485 C   0  0  0  0  0  0  0  0  0  0  0  0
   28.6732  -18.7682   -6.9256 N   0  0  0  0  0  0  0  0  0  0  0  0
   28.7064  -19.3855   -5.7230 C   0  0  0  0  0  0  0  0  0  0  0  0
   29.6968  -19.5641   -4.8007 C   0  0  0  0  0  0  0  0  0  0  0  0
   29.4413  -20.2508   -3.6356 C   0  0  0  0  0  0  0  0  0  0  0  0
   28.1878  -20.7558   -3.4035 C   0  0  0  0  0  0  0  0  0  0  0  0
   27.1851  -20.5803   -4.3271 C   0  0  0  0  0  0  0  0  0  0  0  0
   27.4323  -19.8940   -5.4961 C   0  0  0  0  0  0  0  0  0  0  0  0
   23.7963  -21.6813   -7.8406 C   0  0  0  0  0  0  0  0  0  0  0  0
   22.9204  -21.4853   -8.7395 O   0  0  0  0  0  0  0  0  0  0  0  0
   23.4980  -22.6120   -6.8630 O   0  0  0  0  0  0  0  0  0  0  0  0
  2  1  1  0
  3  4  1  0
  3  2  1  0
  4  5  1  0
  5  7  1  0
  5  6  1  1
  7  8  2  0
 10  9  1  6
 11 10  1  0
 11  7  1  0
 12 10  1  0
 13 12  2  0
 14 12  1  0
 15 26  1  0
 15 14  1  0
 15 16  1  1
 17 16  1  0
 18 17  2  0
 19 20  1  0
 19 18  1  0
 20 25  2  0
 21 22  2  0
 21 20  1  0
 22 23  1  0
 23 24  2  0
 25 17  1  0
 25 24  1  0
 26 28  1  0
 27 26  2  0
M  END
$$$$
