MAW.pdb
     RDKit          3D

 28 29  0  0  1  0  0  0  0  0999 V2000
   29.7451  -16.2730  -16.3977 C   0  0  0  0  0  0  0  0  0  0  0  0
   28.4291  -17.3387  -15.7743 S   0  0  0  0  0  0  0  0  0  0  0  0
   27.5253  -16.5341  -14.4782 C   0  0  0  0  0  0  0  0  0  0  0  0
   26.4416  -17.2989  -13.8258 C   0  0  0  0  0  0  0  0  0  0  0  0
   25.8744  -18.4616  -14.5540 C   0  0  2  0  0  0  0  0  0  0  0  0
   24.8648  -18.1288  -15.5068 N   0  0  0  0  0  0  0  0  0  0  0  0
   25.2547  -19.3511  -13.5144 C   0  0  0  0  0  0  0  0  0  0  0  0
   24.1921  -18.9788  -12.9087 O   0  0  0  0  0  0  0  0  0  0  0  0
   25.4805  -22.9406  -12.5385 C   0  0  0  0  0  0  0  0  0  0  0  0
   25.1857  -21.4954  -12.2568 C   0  0  2  0  0  0  0  0  0  0  0  0
   25.8363  -20.5944  -13.2006 N   0  0  0  0  0  0  0  0  0  0  0  0
   25.6559  -21.0841  -10.8909 C   0  0  0  0  0  0  0  0  0  0  0  0
   26.6645  -20.3431  -10.7218 O   0  0  0  0  0  0  0  0  0  0  0  0
   24.9836  -21.5116   -9.7140 N   0  0  0  0  0  0  0  0  0  0  0  0
   25.4600  -21.1262   -8.3957 C   0  0  1  0  0  0  0  0  0  0  0  0
   25.6720  -19.6425   -8.2874 C   0  0  0  0  0  0  0  0  0  0  0  0
   27.0644  -19.4020   -7.8500 C   0  0  0  0  0  0  0  0  0  0  0  0
   28.1003  -18.9034   -8.6084 C   0  0  0  0  0  0  0  0  0  0  0  0
   29.2245  -18.8367   -7.8363 N   0  0  0  0  0  0  0  0  0  0  0  0
   28.9328  -19.2831   -6.5938 C   0  0  0  0  0  0  0  0  0  0  0  0
   29.6811  -19.4232   -5.4607 C   0  0  0  0  0  0  0  0  0  0  0  0
   29.1086  -19.9166   -4.3104 C   0  0  0  0  0  0  0  0  0  0  0  0
   27.7831  -20.2675   -4.3056 C   0  0  0  0  0  0  0  0  0  0  0  0
   27.0228  -20.1293   -5.4423 C   0  0  0  0  0  0  0  0  0  0  0  0
   27.5880  -19.6362   -6.5981 C   0  0  0  0  0  0  0  0  0  0  0  0
   24.5546  -21.6651   -7.3401 C   0  0  0  0  0  0  0  0  0  0  0  0
   25.0112  -22.3707   -6.3876 O   0  0  0  0  0  0  0  0  0  0  0  0
   23.1935  -21.4241   -7.3488 O   0  0  0  0  0  0  0  0  0  0  0  0
  2  1  1  0
  3  4  1  0
  3  2  1  0
  4  5  1  0
  5  7  1  0
  5  6  1  6
  7  8  2  0
 10  9  1  6
 11 10  1  0
 11  7  1  0
 12 10  1  0
 13 12  2  0
 14 12  1  0
 15 26  1  0
 15 14  1  0
 15 16  1  6
 17 16  1  0
 18 17  2  0
 19 20  1  0
 19 18  1  0
 20 25  2  0
 21 22  2  0
 21 20  1  0
 22 23  1  0
 23 24  2  0
 25 17  1  0
 25 24  1  0
 26 28  1  0
 27 26  2  0
M  END
$$$$
