MAW.pdb
     RDKit          3D

 28 29  0  0  1  0  0  0  0  0999 V2000
   22.8016  -19.7855  -17.2837 C   0  0  0  0  0  0  0  0  0  0  0  0
   22.6922  -17.9980  -17.0627 S   0  0  0  0  0  0  0  0  0  0  0  0
   24.2288  -17.3394  -16.4714 C   0  0  0  0  0  0  0  0  0  0  0  0
   25.2545  -18.3026  -16.0184 C   0  0  0  0  0  0  0  0  0  0  0  0
   25.3535  -18.5812  -14.5636 C   0  0  2  0  0  0  0  0  0  0  0  0
   25.7008  -17.4493  -13.7660 N   0  0  0  0  0  0  0  0  0  0  0  0
   26.4352  -19.6108  -14.4022 C   0  0  0  0  0  0  0  0  0  0  0  0
   26.4987  -20.6002  -15.2093 O   0  0  0  0  0  0  0  0  0  0  0  0
   29.5425  -20.4526  -12.6714 C   0  0  0  0  0  0  0  0  0  0  0  0
   28.0698  -20.6765  -12.8606 C   0  0  2  0  0  0  0  0  0  0  0  0
   27.3817  -19.4946  -13.3663 N   0  0  0  0  0  0  0  0  0  0  0  0
   27.3888  -21.0402  -11.5723 C   0  0  0  0  0  0  0  0  0  0  0  0
   27.5752  -22.1526  -11.0039 O   0  0  0  0  0  0  0  0  0  0  0  0
   26.4954  -20.1439  -10.9256 N   0  0  0  0  0  0  0  0  0  0  0  0
   25.7388  -20.5537   -9.7538 C   0  0  1  0  0  0  0  0  0  0  0  0
   26.0900  -19.7339   -8.5444 C   0  0  0  0  0  0  0  0  0  0  0  0
   27.3140  -20.3008   -7.9373 C   0  0  0  0  0  0  0  0  0  0  0  0
   28.2223  -21.1479   -8.5326 C   0  0  0  0  0  0  0  0  0  0  0  0
   29.2087  -21.4433   -7.6359 N   0  0  0  0  0  0  0  0  0  0  0  0
   28.9535  -20.8022   -6.4731 C   0  0  0  0  0  0  0  0  0  0  0  0
   29.6100  -20.7568   -5.2771 C   0  0  0  0  0  0  0  0  0  0  0  0
   29.1082  -20.0029   -4.2408 C   0  0  0  0  0  0  0  0  0  0  0  0
   27.9455  -19.2967   -4.4129 C   0  0  0  0  0  0  0  0  0  0  0  0
   27.2784  -19.3371   -5.6140 C   0  0  0  0  0  0  0  0  0  0  0  0
   27.7739  -20.0893   -6.6568 C   0  0  0  0  0  0  0  0  0  0  0  0
   24.2780  -20.5538  -10.0547 C   0  0  0  0  0  0  0  0  0  0  0  0
   23.8475  -20.1993  -11.1960 O   0  0  0  0  0  0  0  0  0  0  0  0
   23.3366  -20.9358   -9.1174 O   0  0  0  0  0  0  0  0  0  0  0  0
  2  1  1  0
  3  4  1  0
  3  2  1  0
  4  5  1  0
  5  7  1  0
  5  6  1  1
  7  8  2  0
 10  9  1  1
 11 10  1  0
 11  7  1  0
 12 10  1  0
 13 12  2  0
 14 12  1  0
 15 26  1  0
 15 14  1  0
 15 16  1  1
 17 16  1  0
 18 17  2  0
 19 20  1  0
 19 18  1  0
 20 25  2  0
 21 22  2  0
 21 20  1  0
 22 23  1  0
 23 24  2  0
 25 17  1  0
 25 24  1  0
 26 28  1  0
 27 26  2  0
M  END
$$$$
