MAW.pdb
     RDKit          3D

 28 29  0  0  1  0  0  0  0  0999 V2000
   21.4867  -16.4337  -15.2546 C   0  0  0  0  0  0  0  0  0  0  0  0
   22.7841  -15.1916  -15.0815 S   0  0  0  0  0  0  0  0  0  0  0  0
   24.0006  -15.3665  -16.3597 C   0  0  0  0  0  0  0  0  0  0  0  0
   24.9385  -16.5045  -16.2577 C   0  0  0  0  0  0  0  0  0  0  0  0
   25.6590  -16.6999  -14.9745 C   0  0  2  0  0  0  0  0  0  0  0  0
   26.4965  -15.6086  -14.5932 N   0  0  0  0  0  0  0  0  0  0  0  0
   26.5299  -17.9099  -15.1578 C   0  0  0  0  0  0  0  0  0  0  0  0
   26.4590  -18.5881  -16.2392 O   0  0  0  0  0  0  0  0  0  0  0  0
   29.5451  -19.4069  -13.5448 C   0  0  0  0  0  0  0  0  0  0  0  0
   28.2616  -19.4859  -14.3201 C   0  0  2  0  0  0  0  0  0  0  0  0
   27.4254  -18.3042  -14.1454 N   0  0  0  0  0  0  0  0  0  0  0  0
   27.4242  -20.6594  -13.8985 C   0  0  0  0  0  0  0  0  0  0  0  0
   27.6257  -21.8238  -14.3442 O   0  0  0  0  0  0  0  0  0  0  0  0
   26.3572  -20.5154  -12.9709 N   0  0  0  0  0  0  0  0  0  0  0  0
   25.5210  -21.6477  -12.6074 C   0  0  1  0  0  0  0  0  0  0  0  0
   26.0405  -22.3611  -11.3912 C   0  0  0  0  0  0  0  0  0  0  0  0
   26.0892  -21.3963  -10.2711 C   0  0  0  0  0  0  0  0  0  0  0  0
   25.0706  -20.5804   -9.8310 C   0  0  0  0  0  0  0  0  0  0  0  0
   25.5198  -19.8375   -8.7771 N   0  0  0  0  0  0  0  0  0  0  0  0
   26.8095  -20.1593   -8.5292 C   0  0  0  0  0  0  0  0  0  0  0  0
   27.7122  -19.7199   -7.6043 C   0  0  0  0  0  0  0  0  0  0  0  0
   28.9880  -20.2360   -7.5836 C   0  0  0  0  0  0  0  0  0  0  0  0
   29.3503  -21.1937   -8.4956 C   0  0  0  0  0  0  0  0  0  0  0  0
   28.4472  -21.6414   -9.4300 C   0  0  0  0  0  0  0  0  0  0  0  0
   27.1679  -21.1301   -9.4578 C   0  0  0  0  0  0  0  0  0  0  0  0
   24.0994  -21.2182  -12.4695 C   0  0  0  0  0  0  0  0  0  0  0  0
   23.8001  -19.9928  -12.3201 O   0  0  0  0  0  0  0  0  0  0  0  0
   23.0544  -22.1227  -12.4983 O   0  0  0  0  0  0  0  0  0  0  0  0
  2  1  1  0
  3  4  1  0
  3  2  1  0
  4  5  1  0
  5  7  1  0
  5  6  1  6
  7  8  2  0
 10  9  1  1
 11 10  1  0
 11  7  1  0
 12 10  1  0
 13 12  2  0
 14 12  1  0
 15 26  1  0
 15 14  1  0
 15 16  1  1
 17 16  1  0
 18 17  2  0
 19 20  1  0
 19 18  1  0
 20 25  2  0
 21 22  2  0
 21 20  1  0
 22 23  1  0
 23 24  2  0
 25 17  1  0
 25 24  1  0
 26 28  1  0
 27 26  2  0
M  END
$$$$
