MAW.pdb
     RDKit          3D

 28 29  0  0  1  0  0  0  0  0999 V2000
   22.9615  -22.3539   -6.6094 C   0  0  0  0  0  0  0  0  0  0  0  0
   21.1676  -22.4057   -6.4220 S   0  0  0  0  0  0  0  0  0  0  0  0
   20.3622  -21.8017   -7.8818 C   0  0  0  0  0  0  0  0  0  0  0  0
   21.1889  -21.6289   -9.0950 C   0  0  0  0  0  0  0  0  0  0  0  0
   20.5357  -21.0803  -10.3100 C   0  0  2  0  0  0  0  0  0  0  0  0
   19.4325  -21.8498  -10.7882 N   0  0  0  0  0  0  0  0  0  0  0  0
   21.5863  -21.0605  -11.3833 C   0  0  0  0  0  0  0  0  0  0  0  0
   21.8138  -22.1135  -12.0717 O   0  0  0  0  0  0  0  0  0  0  0  0
   22.7523  -18.4589  -13.5977 C   0  0  0  0  0  0  0  0  0  0  0  0
   23.0676  -19.7415  -12.8833 C   0  0  2  0  0  0  0  0  0  0  0  0
   22.3244  -19.8888  -11.6376 N   0  0  0  0  0  0  0  0  0  0  0  0
   24.5216  -19.8365  -12.5190 C   0  0  0  0  0  0  0  0  0  0  0  0
   25.4377  -19.7714  -13.3860 O   0  0  0  0  0  0  0  0  0  0  0  0
   24.9401  -20.0052  -11.1713 N   0  0  0  0  0  0  0  0  0  0  0  0
   26.3510  -20.0638  -10.8255 C   0  0  1  0  0  0  0  0  0  0  0  0
   26.6903  -19.1343   -9.6945 C   0  0  0  0  0  0  0  0  0  0  0  0
   26.5095  -19.8652   -8.4213 C   0  0  0  0  0  0  0  0  0  0  0  0
   25.7279  -20.9784   -8.2048 C   0  0  0  0  0  0  0  0  0  0  0  0
   25.8300  -21.3451   -6.8935 N   0  0  0  0  0  0  0  0  0  0  0  0
   26.6632  -20.4891   -6.2602 C   0  0  0  0  0  0  0  0  0  0  0  0
   27.1000  -20.4063   -4.9695 C   0  0  0  0  0  0  0  0  0  0  0  0
   27.9674  -19.4052   -4.5957 C   0  0  0  0  0  0  0  0  0  0  0  0
   28.3921  -18.4900   -5.5242 C   0  0  0  0  0  0  0  0  0  0  0  0
   27.9571  -18.5665   -6.8258 C   0  0  0  0  0  0  0  0  0  0  0  0
   27.0887  -19.5656   -7.2085 C   0  0  0  0  0  0  0  0  0  0  0  0
   26.7623  -21.4737  -10.5658 C   0  0  0  0  0  0  0  0  0  0  0  0
   25.9037  -22.4096  -10.5431 O   0  0  0  0  0  0  0  0  0  0  0  0
   28.0807  -21.8230  -10.3413 O   0  0  0  0  0  0  0  0  0  0  0  0
  2  1  1  0
  3  4  1  0
  3  2  1  0
  4  5  1  0
  5  7  1  0
  5  6  1  6
  7  8  2  0
 10  9  1  1
 11 10  1  0
 11  7  1  0
 12 10  1  0
 13 12  2  0
 14 12  1  0
 15 26  1  0
 15 14  1  0
 15 16  1  1
 17 16  1  0
 18 17  2  0
 19 20  1  0
 19 18  1  0
 20 25  2  0
 21 22  2  0
 21 20  1  0
 22 23  1  0
 23 24  2  0
 25 17  1  0
 25 24  1  0
 26 28  1  0
 27 26  2  0
M  END
$$$$
