MAW.pdb
     RDKit          3D

 28 29  0  0  1  0  0  0  0  0999 V2000
   32.0336  -16.6422  -19.7351 C   0  0  0  0  0  0  0  0  0  0  0  0
   30.5355  -17.2214  -18.9127 S   0  0  0  0  0  0  0  0  0  0  0  0
   30.1661  -16.2216  -17.4956 C   0  0  0  0  0  0  0  0  0  0  0  0
   29.1029  -16.6959  -16.5846 C   0  0  0  0  0  0  0  0  0  0  0  0
   29.3708  -17.9109  -15.7749 C   0  0  2  0  0  0  0  0  0  0  0  0
   29.5324  -19.1071  -16.5373 N   0  0  0  0  0  0  0  0  0  0  0  0
   28.1810  -18.0919  -14.8762 C   0  0  0  0  0  0  0  0  0  0  0  0
   27.6889  -17.0855  -14.2602 O   0  0  0  0  0  0  0  0  0  0  0  0
   25.2723  -20.1643  -14.6994 C   0  0  0  0  0  0  0  0  0  0  0  0
   26.3836  -19.5207  -13.9212 C   0  0  2  0  0  0  0  0  0  0  0  0
   27.6024  -19.3641  -14.7061 N   0  0  0  0  0  0  0  0  0  0  0  0
   26.7625  -20.3291  -12.7134 C   0  0  0  0  0  0  0  0  0  0  0  0
   27.8639  -20.9418  -12.6328 O   0  0  0  0  0  0  0  0  0  0  0  0
   25.8939  -20.4444  -11.5945 N   0  0  0  0  0  0  0  0  0  0  0  0
   26.2641  -21.2409  -10.4360 C   0  0  1  0  0  0  0  0  0  0  0  0
   27.4328  -20.6499   -9.6992 C   0  0  0  0  0  0  0  0  0  0  0  0
   27.0452  -20.4650   -8.2837 C   0  0  0  0  0  0  0  0  0  0  0  0
   25.7824  -20.5771   -7.7455 C   0  0  0  0  0  0  0  0  0  0  0  0
   25.8468  -20.3275   -6.4046 N   0  0  0  0  0  0  0  0  0  0  0  0
   27.1280  -20.0565   -6.0680 C   0  0  0  0  0  0  0  0  0  0  0  0
   27.7280  -19.7459   -4.8818 C   0  0  0  0  0  0  0  0  0  0  0  0
   29.0836  -19.5133   -4.8325 C   0  0  0  0  0  0  0  0  0  0  0  0
   29.8309  -19.5945   -5.9793 C   0  0  0  0  0  0  0  0  0  0  0  0
   29.2343  -19.9068   -7.1776 C   0  0  0  0  0  0  0  0  0  0  0  0
   27.8778  -20.1411   -7.2359 C   0  0  0  0  0  0  0  0  0  0  0  0
   25.0767  -21.4667   -9.5622 C   0  0  0  0  0  0  0  0  0  0  0  0
   24.9763  -22.5191   -8.8579 O   0  0  0  0  0  0  0  0  0  0  0  0
   24.0435  -20.5522   -9.4787 O   0  0  0  0  0  0  0  0  0  0  0  0
  2  1  1  0
  3  4  1  0
  3  2  1  0
  4  5  1  0
  5  7  1  0
  5  6  1  6
  7  8  2  0
 10  9  1  6
 11 10  1  0
 11  7  1  0
 12 10  1  0
 13 12  2  0
 14 12  1  0
 15 26  1  0
 15 14  1  0
 15 16  1  1
 17 16  1  0
 18 17  2  0
 19 20  1  0
 19 18  1  0
 20 25  2  0
 21 22  2  0
 21 20  1  0
 22 23  1  0
 23 24  2  0
 25 17  1  0
 25 24  1  0
 26 28  1  0
 27 26  2  0
M  END
$$$$
