MAW.pdb
     RDKit          3D

 28 29  0  0  1  0  0  0  0  0999 V2000
   26.9210  -16.2484  -13.6516 C   0  0  0  0  0  0  0  0  0  0  0  0
   26.5236  -15.4067  -15.1974 S   0  0  0  0  0  0  0  0  0  0  0  0
   27.1035  -16.3378  -16.5907 C   0  0  0  0  0  0  0  0  0  0  0  0
   27.1412  -17.8097  -16.4597 C   0  0  0  0  0  0  0  0  0  0  0  0
   27.6178  -18.6000  -17.6224 C   0  0  2  0  0  0  0  0  0  0  0  0
   26.9183  -18.3432  -18.8401 N   0  0  0  0  0  0  0  0  0  0  0  0
   27.4117  -20.0445  -17.2658 C   0  0  0  0  0  0  0  0  0  0  0  0
   26.2831  -20.6014  -17.4904 O   0  0  0  0  0  0  0  0  0  0  0  0
   29.5511  -22.9613  -16.2872 C   0  0  0  0  0  0  0  0  0  0  0  0
   28.2592  -22.1994  -16.3590 C   0  0  2  0  0  0  0  0  0  0  0  0
   28.4540  -20.7915  -16.6845 N   0  0  0  0  0  0  0  0  0  0  0  0
   27.5178  -22.2301  -15.0531 C   0  0  0  0  0  0  0  0  0  0  0  0
   26.9231  -23.2656  -14.6418 O   0  0  0  0  0  0  0  0  0  0  0  0
   27.4492  -21.0875  -14.2108 N   0  0  0  0  0  0  0  0  0  0  0  0
   26.7791  -21.1444  -12.9220 C   0  0  1  0  0  0  0  0  0  0  0  0
   27.6599  -20.6498  -11.8095 C   0  0  0  0  0  0  0  0  0  0  0  0
   26.8735  -20.6537  -10.5566 C   0  0  0  0  0  0  0  0  0  0  0  0
   25.5158  -20.8455  -10.4271 C   0  0  0  0  0  0  0  0  0  0  0  0
   25.1804  -20.7718   -9.1056 N   0  0  0  0  0  0  0  0  0  0  0  0
   26.2969  -20.5362   -8.3801 C   0  0  0  0  0  0  0  0  0  0  0  0
   26.5155  -20.3774   -7.0421 C   0  0  0  0  0  0  0  0  0  0  0  0
   27.7875  -20.1419   -6.5723 C   0  0  0  0  0  0  0  0  0  0  0  0
   28.8359  -20.0670   -7.4529 C   0  0  0  0  0  0  0  0  0  0  0  0
   28.6241  -20.2258   -8.8016 C   0  0  0  0  0  0  0  0  0  0  0  0
   27.3539  -20.4619   -9.2804 C   0  0  0  0  0  0  0  0  0  0  0  0
   25.4686  -20.4355  -12.9881 C   0  0  0  0  0  0  0  0  0  0  0  0
   25.3618  -19.3165  -13.5797 O   0  0  0  0  0  0  0  0  0  0  0  0
   24.3233  -20.9573  -12.4163 O   0  0  0  0  0  0  0  0  0  0  0  0
  2  1  1  0
  3  4  1  0
  3  2  1  0
  4  5  1  0
  5  7  1  0
  5  6  1  6
  7  8  2  0
 10  9  1  1
 11 10  1  0
 11  7  1  0
 12 10  1  0
 13 12  2  0
 14 12  1  0
 15 26  1  0
 15 14  1  0
 15 16  1  1
 17 16  1  0
 18 17  2  0
 19 20  1  0
 19 18  1  0
 20 25  2  0
 21 22  2  0
 21 20  1  0
 22 23  1  0
 23 24  2  0
 25 17  1  0
 25 24  1  0
 26 28  1  0
 27 26  2  0
M  END
$$$$
