MAW.pdb
     RDKit          3D

 28 29  0  0  1  0  0  0  0  0999 V2000
   28.0157  -19.2403   -5.4846 C   0  0  0  0  0  0  0  0  0  0  0  0
   27.9041  -19.5215   -7.2635 S   0  0  0  0  0  0  0  0  0  0  0  0
   26.2183  -19.7548   -7.7616 C   0  0  0  0  0  0  0  0  0  0  0  0
   25.9400  -19.8342   -9.2112 C   0  0  0  0  0  0  0  0  0  0  0  0
   26.6719  -20.8524  -10.0057 C   0  0  2  0  0  0  0  0  0  0  0  0
   28.0940  -20.7519   -9.9313 N   0  0  0  0  0  0  0  0  0  0  0  0
   26.2674  -20.6438  -11.4371 C   0  0  0  0  0  0  0  0  0  0  0  0
   26.6085  -19.5726  -12.0460 O   0  0  0  0  0  0  0  0  0  0  0  0
   25.2775  -22.8418  -14.2417 C   0  0  0  0  0  0  0  0  0  0  0  0
   25.2823  -21.5089  -13.5503 C   0  0  2  0  0  0  0  0  0  0  0  0
   25.5133  -21.6207  -12.1150 N   0  0  0  0  0  0  0  0  0  0  0  0
   23.9730  -20.7904  -13.7105 C   0  0  0  0  0  0  0  0  0  0  0  0
   22.9718  -21.0477  -12.9850 O   0  0  0  0  0  0  0  0  0  0  0  0
   23.7963  -19.7788  -14.6929 N   0  0  0  0  0  0  0  0  0  0  0  0
   22.4791  -19.2358  -14.9822 C   0  0  1  0  0  0  0  0  0  0  0  0
   22.5525  -17.8169  -15.4716 C   0  0  0  0  0  0  0  0  0  0  0  0
   21.1909  -17.3867  -15.8575 C   0  0  0  0  0  0  0  0  0  0  0  0
   20.1190  -17.1681  -15.0207 C   0  0  0  0  0  0  0  0  0  0  0  0
   19.0423  -16.7852  -15.7681 N   0  0  0  0  0  0  0  0  0  0  0  0
   19.4000  -16.7528  -17.0717 C   0  0  0  0  0  0  0  0  0  0  0  0
   18.7170  -16.4417  -18.2119 C   0  0  0  0  0  0  0  0  0  0  0  0
   19.3490  -16.4962  -19.4334 C   0  0  0  0  0  0  0  0  0  0  0  0
   20.6682  -16.8641  -19.5020 C   0  0  0  0  0  0  0  0  0  0  0  0
   21.3629  -17.1787  -18.3585 C   0  0  0  0  0  0  0  0  0  0  0  0
   20.7379  -17.1268  -17.1316 C   0  0  0  0  0  0  0  0  0  0  0  0
   21.7407  -20.1369  -15.9134 C   0  0  0  0  0  0  0  0  0  0  0  0
   20.5321  -20.4572  -15.6892 O   0  0  0  0  0  0  0  0  0  0  0  0
   22.3299  -20.6585  -17.0499 O   0  0  0  0  0  0  0  0  0  0  0  0
  2  1  1  0
  3  4  1  0
  3  2  1  0
  4  5  1  0
  5  7  1  0
  5  6  1  6
  7  8  2  0
 10  9  1  1
 11 10  1  0
 11  7  1  0
 12 10  1  0
 13 12  2  0
 14 12  1  0
 15 26  1  0
 15 14  1  0
 15 16  1  6
 17 16  1  0
 18 17  2  0
 19 20  1  0
 19 18  1  0
 20 25  2  0
 21 22  2  0
 21 20  1  0
 22 23  1  0
 23 24  2  0
 25 17  1  0
 25 24  1  0
 26 28  1  0
 27 26  2  0
M  END
$$$$
