MAW.pdb
     RDKit          3D

 28 29  0  0  1  0  0  0  0  0999 V2000
   20.9363  -21.2667  -11.9557 C   0  0  0  0  0  0  0  0  0  0  0  0
   20.4872  -19.7404  -12.8070 S   0  0  0  0  0  0  0  0  0  0  0  0
   21.4776  -19.5126  -14.2601 C   0  0  0  0  0  0  0  0  0  0  0  0
   22.9320  -19.7468  -14.1379 C   0  0  0  0  0  0  0  0  0  0  0  0
   23.7915  -19.4090  -15.3002 C   0  0  2  0  0  0  0  0  0  0  0  0
   23.3069  -19.8883  -16.5545 N   0  0  0  0  0  0  0  0  0  0  0  0
   25.1243  -20.0519  -15.0425 C   0  0  0  0  0  0  0  0  0  0  0  0
   25.2834  -21.3005  -15.2663 O   0  0  0  0  0  0  0  0  0  0  0  0
   28.5962  -18.9820  -14.0600 C   0  0  0  0  0  0  0  0  0  0  0  0
   27.4426  -19.9391  -14.1497 C   0  0  2  0  0  0  0  0  0  0  0  0
   26.2022  -19.2885  -14.5548 N   0  0  0  0  0  0  0  0  0  0  0  0
   27.1594  -20.5997  -12.8309 C   0  0  0  0  0  0  0  0  0  0  0  0
   27.1933  -21.8539  -12.6860 O   0  0  0  0  0  0  0  0  0  0  0  0
   26.8375  -19.8401  -11.6737 N   0  0  0  0  0  0  0  0  0  0  0  0
   26.5518  -20.4900  -10.4050 C   0  0  1  0  0  0  0  0  0  0  0  0
   27.6381  -20.2503   -9.3948 C   0  0  0  0  0  0  0  0  0  0  0  0
   27.0621  -20.4200   -8.0429 C   0  0  0  0  0  0  0  0  0  0  0  0
   25.8791  -21.0444   -7.7150 C   0  0  0  0  0  0  0  0  0  0  0  0
   25.7052  -20.9850   -6.3620 N   0  0  0  0  0  0  0  0  0  0  0  0
   26.7543  -20.3338   -5.8111 C   0  0  0  0  0  0  0  0  0  0  0  0
   27.0693  -20.0078   -4.5235 C   0  0  0  0  0  0  0  0  0  0  0  0
   28.2317  -19.3244   -4.2476 C   0  0  0  0  0  0  0  0  0  0  0  0
   29.0736  -18.9715   -5.2708 C   0  0  0  0  0  0  0  0  0  0  0  0
   28.7636  -19.2961   -6.5700 C   0  0  0  0  0  0  0  0  0  0  0  0
   27.6019  -19.9801   -6.8550 C   0  0  0  0  0  0  0  0  0  0  0  0
   25.2002  -20.0948   -9.9137 C   0  0  0  0  0  0  0  0  0  0  0  0
   24.6847  -18.9827  -10.2472 O   0  0  0  0  0  0  0  0  0  0  0  0
   24.4546  -20.9107   -9.0834 O   0  0  0  0  0  0  0  0  0  0  0  0
  2  1  1  0
  3  4  1  0
  3  2  1  0
  4  5  1  0
  5  7  1  0
  5  6  1  6
  7  8  2  0
 10  9  1  1
 11 10  1  0
 11  7  1  0
 12 10  1  0
 13 12  2  0
 14 12  1  0
 15 26  1  0
 15 14  1  0
 15 16  1  1
 17 16  1  0
 18 17  2  0
 19 20  1  0
 19 18  1  0
 20 25  2  0
 21 22  2  0
 21 20  1  0
 22 23  1  0
 23 24  2  0
 25 17  1  0
 25 24  1  0
 26 28  1  0
 27 26  2  0
M  END
$$$$
