MAW.pdb
     RDKit          3D

 28 29  0  0  1  0  0  0  0  0999 V2000
   18.4392  -20.3826   -0.7852 C   0  0  0  0  0  0  0  0  0  0  0  0
   17.8895  -20.0544    0.9018 S   0  0  0  0  0  0  0  0  0  0  0  0
   17.7645  -18.3105    1.1975 C   0  0  0  0  0  0  0  0  0  0  0  0
   17.2915  -17.8765    2.5291 C   0  0  0  0  0  0  0  0  0  0  0  0
   16.0742  -18.5231    3.0801 C   0  0  2  0  0  0  0  0  0  0  0  0
   14.8623  -18.1699    2.4132 N   0  0  0  0  0  0  0  0  0  0  0  0
   15.9648  -18.0722    4.5087 C   0  0  0  0  0  0  0  0  0  0  0  0
   15.6284  -16.8674    4.7726 O   0  0  0  0  0  0  0  0  0  0  0  0
   15.8764  -19.6784    7.8941 C   0  0  0  0  0  0  0  0  0  0  0  0
   16.1037  -18.5346    6.9482 C   0  0  2  0  0  0  0  0  0  0  0  0
   16.2310  -18.9680    5.5618 N   0  0  0  0  0  0  0  0  0  0  0  0
   17.3635  -17.7831    7.2710 C   0  0  0  0  0  0  0  0  0  0  0  0
   18.4787  -18.0913    6.7646 O   0  0  0  0  0  0  0  0  0  0  0  0
   17.3617  -16.6807    8.1679 N   0  0  0  0  0  0  0  0  0  0  0  0
   18.5855  -15.9560    8.4686 C   0  0  1  0  0  0  0  0  0  0  0  0
   18.3136  -14.5251    8.8385 C   0  0  0  0  0  0  0  0  0  0  0  0
   18.3388  -13.7123    7.6029 C   0  0  0  0  0  0  0  0  0  0  0  0
   17.3121  -13.5359    6.7021 C   0  0  0  0  0  0  0  0  0  0  0  0
   17.7388  -12.7169    5.6962 N   0  0  0  0  0  0  0  0  0  0  0  0
   19.0220  -12.3617    5.9318 C   0  0  0  0  0  0  0  0  0  0  0  0
   19.9046  -11.5733    5.2513 C   0  0  0  0  0  0  0  0  0  0  0  0
   21.1786  -11.3835    5.7362 C   0  0  0  0  0  0  0  0  0  0  0  0
   21.5596  -11.9891    6.9059 C   0  0  0  0  0  0  0  0  0  0  0  0
   20.6769  -12.7843    7.5970 C   0  0  0  0  0  0  0  0  0  0  0  0
   19.3995  -12.9797    7.1188 C   0  0  0  0  0  0  0  0  0  0  0  0
   19.3788  -16.6849    9.5001 C   0  0  0  0  0  0  0  0  0  0  0  0
   18.8229  -17.5179   10.2815 O   0  0  0  0  0  0  0  0  0  0  0  0
   20.7390  -16.4907    9.6511 O   0  0  0  0  0  0  0  0  0  0  0  0
  2  1  1  0
  3  4  1  0
  3  2  1  0
  4  5  1  0
  5  7  1  0
  5  6  1  6
  7  8  2  0
 10  9  1  1
 11 10  1  0
 11  7  1  0
 12 10  1  0
 13 12  2  0
 14 12  1  0
 15 26  1  0
 15 14  1  0
 15 16  1  1
 17 16  1  0
 18 17  2  0
 19 20  1  0
 19 18  1  0
 20 25  2  0
 21 22  2  0
 21 20  1  0
 22 23  1  0
 23 24  2  0
 25 17  1  0
 25 24  1  0
 26 28  1  0
 27 26  2  0
M  END
$$$$
