PVW.pdb
     RDKit          3D

 29 31  0  0  1  0  0  0  0  0999 V2000
    9.0118  -13.9850   19.5717 N   0  0  0  0  0  0  0  0  0  0  0  0
    8.4467  -13.0205   18.6229 C   0  0  0  0  0  0  0  0  0  0  0  0
    6.9953  -12.8483   19.0059 C   0  0  0  0  0  0  0  0  0  0  0  0
    6.8183  -13.7773   20.2148 C   0  0  0  0  0  0  0  0  0  0  0  0
    8.2101  -13.8502   20.7527 C   0  0  1  0  0  0  0  0  0  0  0  0
    8.4231  -15.0130   21.6791 C   0  0  0  0  0  0  0  0  0  0  0  0
    7.6031  -15.2749   22.5906 O   0  0  0  0  0  0  0  0  0  0  0  0
   10.8724  -19.0903   22.9449 C   0  0  0  0  0  0  0  0  0  0  0  0
   10.8077  -17.9637   21.9004 C   0  0  1  0  0  0  0  0  0  0  0  0
   10.4670  -18.5885   20.6053 C   0  0  0  0  0  0  0  0  0  0  0  0
    9.8918  -16.9328   22.4502 C   0  0  2  0  0  0  0  0  0  0  0  0
    9.5620  -15.8543   21.5528 N   0  0  0  0  0  0  0  0  0  0  0  0
   10.1927  -16.5054   23.8381 C   0  0  0  0  0  0  0  0  0  0  0  0
   11.0825  -15.6309   23.9846 O   0  0  0  0  0  0  0  0  0  0  0  0
    9.5729  -16.9961   25.0099 N   0  0  0  0  0  0  0  0  0  0  0  0
    9.9662  -16.5027   26.3432 C   0  0  1  0  0  0  0  0  0  0  0  0
    8.8151  -16.1331   27.1954 C   0  0  0  0  0  0  0  0  0  0  0  0
    7.7683  -15.3023   26.5997 C   0  0  0  0  0  0  0  0  0  0  0  0
    6.6216  -15.8663   26.0149 C   0  0  0  0  0  0  0  0  0  0  0  0
    5.8134  -14.8879   25.5649 N   0  0  0  0  0  0  0  0  0  0  0  0
    6.3737  -13.6958   25.8244 C   0  0  0  0  0  0  0  0  0  0  0  0
    5.9585  -12.4106   25.5622 C   0  0  0  0  0  0  0  0  0  0  0  0
    6.7378  -11.3434   25.9289 C   0  0  0  0  0  0  0  0  0  0  0  0
    7.9278  -11.6082   26.5564 C   0  0  0  0  0  0  0  0  0  0  0  0
    8.3629  -12.8880   26.8288 C   0  0  0  0  0  0  0  0  0  0  0  0
    7.5776  -13.9526   26.4606 C   0  0  0  0  0  0  0  0  0  0  0  0
   10.9238  -17.4691   26.9023 C   0  0  0  0  0  0  0  0  0  0  0  0
   11.1248  -18.7068   26.2922 O   0  0  0  0  0  0  0  0  0  0  0  0
   11.6159  -17.2697   27.9383 O   0  0  0  0  0  0  0  0  0  0  0  0
  2  1  1  0
  3  2  1  0
  4  3  1  0
  4  5  1  0
  5  6  1  1
  5  1  1  0
  6  7  2  0
  9  8  1  1
 10  9  1  0
 11  9  1  0
 11 12  1  6
 12  6  1  0
 13 11  1  0
 14 13  2  0
 15 13  1  0
 16 15  1  0
 16 17  1  1
 18 17  1  0
 19 18  2  0
 20 19  1  0
 21 20  1  0
 21 26  2  0
 22 21  1  0
 23 22  2  0
 23 24  1  0
 24 25  2  0
 25 26  1  0
 26 18  1  0
 27 16  1  0
 27 28  1  0
 29 27  2  0
M  END
$$$$
