PVW.pdb
     RDKit          3D

 29 31  0  0  1  0  0  0  0  0999 V2000
    7.8126  -18.4665   19.0315 N   0  0  0  0  0  0  0  0  0  0  0  0
    7.1866  -19.3479   18.0411 C   0  0  0  0  0  0  0  0  0  0  0  0
    7.2466  -18.6145   16.7216 C   0  0  0  0  0  0  0  0  0  0  0  0
    7.9413  -17.2897   17.0652 C   0  0  0  0  0  0  0  0  0  0  0  0
    8.7295  -17.6617   18.2784 C   0  0  1  0  0  0  0  0  0  0  0  0
    9.1772  -16.4715   19.0775 C   0  0  0  0  0  0  0  0  0  0  0  0
   10.3466  -16.0292   18.9830 O   0  0  0  0  0  0  0  0  0  0  0  0
    7.3677  -13.0156   19.2975 C   0  0  0  0  0  0  0  0  0  0  0  0
    7.4946  -13.5883   20.7189 C   0  0  1  0  0  0  0  0  0  0  0  0
    6.1487  -14.0396   21.1293 C   0  0  0  0  0  0  0  0  0  0  0  0
    8.5914  -14.5877   20.6730 C   0  0  2  0  0  0  0  0  0  0  0  0
    8.2896  -15.8077   19.9677 N   0  0  0  0  0  0  0  0  0  0  0  0
    9.3138  -14.7824   21.9536 C   0  0  0  0  0  0  0  0  0  0  0  0
    9.7501  -13.7518   22.5240 O   0  0  0  0  0  0  0  0  0  0  0  0
    9.5597  -16.0220   22.5870 N   0  0  0  0  0  0  0  0  0  0  0  0
    9.5766  -16.1357   24.0575 C   0  0  1  0  0  0  0  0  0  0  0  0
    8.2379  -16.0016   24.6721 C   0  0  0  0  0  0  0  0  0  0  0  0
    8.1054  -15.1079   25.8230 C   0  0  0  0  0  0  0  0  0  0  0  0
    8.4966  -15.5034   27.1136 C   0  0  0  0  0  0  0  0  0  0  0  0
    8.2909  -14.4933   27.9799 N   0  0  0  0  0  0  0  0  0  0  0  0
    7.7783  -13.4418   27.3211 C   0  0  0  0  0  0  0  0  0  0  0  0
    7.3917  -12.1921   27.7473 C   0  0  0  0  0  0  0  0  0  0  0  0
    6.8775  -11.2856   26.8560 C   0  0  0  0  0  0  0  0  0  0  0  0
    6.7669  -11.6720   25.5451 C   0  0  0  0  0  0  0  0  0  0  0  0
    7.1483  -12.9190   25.0967 C   0  0  0  0  0  0  0  0  0  0  0  0
    7.6638  -13.8221   25.9935 C   0  0  0  0  0  0  0  0  0  0  0  0
   10.3443  -17.3444   24.3942 C   0  0  0  0  0  0  0  0  0  0  0  0
   10.8648  -18.1599   23.3900 O   0  0  0  0  0  0  0  0  0  0  0  0
   10.5871  -17.7306   25.5705 O   0  0  0  0  0  0  0  0  0  0  0  0
  2  1  1  0
  3  2  1  0
  4  3  1  0
  4  5  1  0
  5  6  1  1
  5  1  1  0
  6  7  2  0
  9  8  1  6
 10  9  1  0
 11  9  1  0
 11 12  1  1
 12  6  1  0
 13 11  1  0
 14 13  2  0
 15 13  1  0
 16 15  1  0
 16 17  1  6
 18 17  1  0
 19 18  2  0
 20 19  1  0
 21 20  1  0
 21 26  2  0
 22 21  1  0
 23 22  2  0
 23 24  1  0
 24 25  2  0
 25 26  1  0
 26 18  1  0
 27 16  1  0
 27 28  1  0
 29 27  2  0
M  END
$$$$
