PVW.pdb
     RDKit          3D

 29 31  0  0  1  0  0  0  0  0999 V2000
    9.1633  -14.7583   18.4164 N   0  0  0  0  0  0  0  0  0  0  0  0
    8.8299  -13.8255   17.3355 C   0  0  0  0  0  0  0  0  0  0  0  0
    7.6949  -12.9699   17.8478 C   0  0  0  0  0  0  0  0  0  0  0  0
    7.4415  -13.5004   19.2656 C   0  0  0  0  0  0  0  0  0  0  0  0
    8.7716  -14.0818   19.6183 C   0  0  1  0  0  0  0  0  0  0  0  0
    8.7080  -15.0389   20.7740 C   0  0  0  0  0  0  0  0  0  0  0  0
    8.2750  -14.6764   21.8934 O   0  0  0  0  0  0  0  0  0  0  0  0
    9.1364  -19.6526   22.4977 C   0  0  0  0  0  0  0  0  0  0  0  0
    9.3918  -18.7660   21.2676 C   0  0  1  0  0  0  0  0  0  0  0  0
    8.6092  -19.3340   20.1502 C   0  0  0  0  0  0  0  0  0  0  0  0
    9.1108  -17.3707   21.6895 C   0  0  2  0  0  0  0  0  0  0  0  0
    9.1374  -16.3871   20.6364 N   0  0  0  0  0  0  0  0  0  0  0  0
    9.7857  -16.9478   22.9406 C   0  0  0  0  0  0  0  0  0  0  0  0
   10.9607  -16.5159   22.8361 O   0  0  0  0  0  0  0  0  0  0  0  0
    9.2289  -16.9915   24.2391 N   0  0  0  0  0  0  0  0  0  0  0  0
   10.0110  -16.5730   25.4176 C   0  0  1  0  0  0  0  0  0  0  0  0
    9.7367  -15.1824   25.8405 C   0  0  0  0  0  0  0  0  0  0  0  0
    8.3391  -14.7941   26.0323 C   0  0  0  0  0  0  0  0  0  0  0  0
    7.2959  -15.7332   25.9633 C   0  0  0  0  0  0  0  0  0  0  0  0
    6.1188  -15.1223   26.1966 N   0  0  0  0  0  0  0  0  0  0  0  0
    6.3337  -13.8155   26.4170 C   0  0  0  0  0  0  0  0  0  0  0  0
    5.4728  -12.7775   26.6890 C   0  0  0  0  0  0  0  0  0  0  0  0
    5.9558  -11.5062   26.8658 C   0  0  0  0  0  0  0  0  0  0  0  0
    7.3099  -11.3179   26.7609 C   0  0  0  0  0  0  0  0  0  0  0  0
    8.1904  -12.3437   26.4891 C   0  0  0  0  0  0  0  0  0  0  0  0
    7.7010  -13.6149   26.3145 C   0  0  0  0  0  0  0  0  0  0  0  0
    9.8580  -17.6206   26.4388 C   0  0  0  0  0  0  0  0  0  0  0  0
    8.9373  -18.6535   26.2668 O   0  0  0  0  0  0  0  0  0  0  0  0
   10.5186  -17.6719   27.5125 O   0  0  0  0  0  0  0  0  0  0  0  0
  2  1  1  0
  3  2  1  0
  4  3  1  0
  4  5  1  0
  5  6  1  1
  5  1  1  0
  6  7  2  0
  9  8  1  1
 10  9  1  0
 11  9  1  0
 11 12  1  6
 12  6  1  0
 13 11  1  0
 14 13  2  0
 15 13  1  0
 16 15  1  0
 16 17  1  1
 18 17  1  0
 19 18  2  0
 20 19  1  0
 21 20  1  0
 21 26  2  0
 22 21  1  0
 23 22  2  0
 23 24  1  0
 24 25  2  0
 25 26  1  0
 26 18  1  0
 27 16  1  0
 27 28  1  0
 29 27  2  0
M  END
$$$$
