PVW.pdb
     RDKit          3D

 29 31  0  0  1  0  0  0  0  0999 V2000
    8.9353  -14.3714   18.5917 N   0  0  0  0  0  0  0  0  0  0  0  0
    8.5185  -13.3872   17.5880 C   0  0  0  0  0  0  0  0  0  0  0  0
    7.3621  -12.6265   18.1936 C   0  0  0  0  0  0  0  0  0  0  0  0
    7.1857  -13.2620   19.5796 C   0  0  0  0  0  0  0  0  0  0  0  0
    8.5542  -13.7969   19.8488 C   0  0  1  0  0  0  0  0  0  0  0  0
    8.5786  -14.8304   20.9383 C   0  0  0  0  0  0  0  0  0  0  0  0
    8.1128  -14.5847   22.0761 O   0  0  0  0  0  0  0  0  0  0  0  0
    9.5299  -19.4674   22.3864 C   0  0  0  0  0  0  0  0  0  0  0  0
    9.6002  -18.5035   21.1905 C   0  0  1  0  0  0  0  0  0  0  0  0
    8.8064  -19.1044   20.0985 C   0  0  0  0  0  0  0  0  0  0  0  0
    9.2007  -17.1685   21.7024 C   0  0  2  0  0  0  0  0  0  0  0  0
    9.1312  -16.1210   20.7149 N   0  0  0  0  0  0  0  0  0  0  0  0
    9.8464  -16.7685   22.9762 C   0  0  0  0  0  0  0  0  0  0  0  0
   11.0154  -16.3145   22.9043 O   0  0  0  0  0  0  0  0  0  0  0  0
    9.2677  -16.8564   24.2629 N   0  0  0  0  0  0  0  0  0  0  0  0
   10.0373  -16.5009   25.4700 C   0  0  1  0  0  0  0  0  0  0  0  0
    9.7570  -15.1351   25.9637 C   0  0  0  0  0  0  0  0  0  0  0  0
    8.3567  -14.7216   26.0591 C   0  0  0  0  0  0  0  0  0  0  0  0
    7.3038  -15.6396   25.9051 C   0  0  0  0  0  0  0  0  0  0  0  0
    6.1246  -15.0082   26.0602 N   0  0  0  0  0  0  0  0  0  0  0  0
    6.3475  -13.7081   26.3100 C   0  0  0  0  0  0  0  0  0  0  0  0
    5.4887  -12.6562   26.5311 C   0  0  0  0  0  0  0  0  0  0  0  0
    5.9814  -11.3963   26.7561 C   0  0  0  0  0  0  0  0  0  0  0  0
    7.3429  -11.2333   26.7507 C   0  0  0  0  0  0  0  0  0  0  0  0
    8.2213  -12.2734   26.5313 C   0  0  0  0  0  0  0  0  0  0  0  0
    7.7221  -13.5330   26.3080 C   0  0  0  0  0  0  0  0  0  0  0  0
    9.8754  -17.6016   26.4321 C   0  0  0  0  0  0  0  0  0  0  0  0
   10.7137  -17.7068   27.5414 O   0  0  0  0  0  0  0  0  0  0  0  0
    9.0013  -18.5069   26.3399 O   0  0  0  0  0  0  0  0  0  0  0  0
  2  1  1  0
  3  2  1  0
  4  3  1  0
  4  5  1  0
  5  6  1  1
  5  1  1  0
  6  7  2  0
  9  8  1  1
 10  9  1  0
 11  9  1  0
 11 12  1  6
 12  6  1  0
 13 11  1  0
 14 13  2  0
 15 13  1  0
 16 15  1  0
 16 17  1  1
 18 17  1  0
 19 18  2  0
 20 19  1  0
 21 20  1  0
 21 26  2  0
 22 21  1  0
 23 22  2  0
 23 24  1  0
 24 25  2  0
 25 26  1  0
 26 18  1  0
 27 16  1  0
 27 28  1  0
 29 27  2  0
M  END
$$$$
