PVW.pdb
     RDKit          3D

 29 31  0  0  1  0  0  0  0  0999 V2000
    7.8566  -18.9375   18.2939 N   0  0  0  0  0  0  0  0  0  0  0  0
    7.1418  -20.2024   18.0967 C   0  0  0  0  0  0  0  0  0  0  0  0
    6.4230  -20.4909   19.3939 C   0  0  0  0  0  0  0  0  0  0  0  0
    6.7957  -19.3061   20.2956 C   0  0  0  0  0  0  0  0  0  0  0  0
    7.1003  -18.2411   19.2933 C   0  0  1  0  0  0  0  0  0  0  0  0
    7.8937  -17.1022   19.8670 C   0  0  0  0  0  0  0  0  0  0  0  0
    9.1356  -17.1870   20.0164 O   0  0  0  0  0  0  0  0  0  0  0  0
    8.3601  -12.3946   21.0839 C   0  0  0  0  0  0  0  0  0  0  0  0
    7.3650  -13.4350   20.5438 C   0  0  1  0  0  0  0  0  0  0  0  0
    7.1069  -13.0983   19.1283 C   0  0  0  0  0  0  0  0  0  0  0  0
    7.9371  -14.7678   20.8601 C   0  0  2  0  0  0  0  0  0  0  0  0
    7.2620  -15.8908   20.2598 N   0  0  0  0  0  0  0  0  0  0  0  0
    8.3121  -14.9660   22.2812 C   0  0  0  0  0  0  0  0  0  0  0  0
    7.4446  -14.6822   23.1442 O   0  0  0  0  0  0  0  0  0  0  0  0
    9.5577  -15.4401   22.7521 N   0  0  0  0  0  0  0  0  0  0  0  0
    9.8868  -15.4184   24.1898 C   0  0  1  0  0  0  0  0  0  0  0  0
    8.8473  -16.0391   25.0394 C   0  0  0  0  0  0  0  0  0  0  0  0
    7.7363  -15.1947   25.4793 C   0  0  0  0  0  0  0  0  0  0  0  0
    6.4037  -15.6367   25.4178 C   0  0  0  0  0  0  0  0  0  0  0  0
    5.5859  -14.6822   25.9006 N   0  0  0  0  0  0  0  0  0  0  0  0
    6.3174  -13.6224   26.2803 C   0  0  0  0  0  0  0  0  0  0  0  0
    5.9613  -12.4082   26.8205 C   0  0  0  0  0  0  0  0  0  0  0  0
    6.9209  -11.4737   27.1148 C   0  0  0  0  0  0  0  0  0  0  0  0
    8.2274  -11.7962   26.8515 C   0  0  0  0  0  0  0  0  0  0  0  0
    8.6062  -13.0067   26.3106 C   0  0  0  0  0  0  0  0  0  0  0  0
    7.6409  -13.9390   26.0194 C   0  0  0  0  0  0  0  0  0  0  0  0
   11.2571  -15.9337   24.3328 C   0  0  0  0  0  0  0  0  0  0  0  0
   11.8866  -15.9469   25.5770 O   0  0  0  0  0  0  0  0  0  0  0  0
   11.9511  -16.3884   23.3822 O   0  0  0  0  0  0  0  0  0  0  0  0
  2  1  1  0
  3  2  1  0
  4  3  1  0
  4  5  1  0
  5  6  1  1
  5  1  1  0
  6  7  2  0
  9  8  1  6
 10  9  1  0
 11  9  1  0
 11 12  1  1
 12  6  1  0
 13 11  1  0
 14 13  2  0
 15 13  1  0
 16 15  1  0
 16 17  1  1
 18 17  1  0
 19 18  2  0
 20 19  1  0
 21 20  1  0
 21 26  2  0
 22 21  1  0
 23 22  2  0
 23 24  1  0
 24 25  2  0
 25 26  1  0
 26 18  1  0
 27 16  1  0
 27 28  1  0
 29 27  2  0
M  END
$$$$
