PVW.pdb
     RDKit          3D

 29 31  0  0  1  0  0  0  0  0999 V2000
    9.1032  -14.5524   18.3040 N   0  0  0  0  0  0  0  0  0  0  0  0
    8.7294  -13.6159   17.2396 C   0  0  0  0  0  0  0  0  0  0  0  0
    7.5403  -12.8394   17.7552 C   0  0  0  0  0  0  0  0  0  0  0  0
    7.3008  -13.4160   19.1573 C   0  0  0  0  0  0  0  0  0  0  0  0
    8.6580  -13.9274   19.5152 C   0  0  1  0  0  0  0  0  0  0  0  0
    8.6360  -14.9127   20.6484 C   0  0  0  0  0  0  0  0  0  0  0  0
    8.1519  -14.6077   21.7640 O   0  0  0  0  0  0  0  0  0  0  0  0
    9.3675  -19.5145   22.3036 C   0  0  0  0  0  0  0  0  0  0  0  0
    9.4859  -18.6089   21.0665 C   0  0  1  0  0  0  0  0  0  0  0  0
    8.6367  -19.1989   20.0109 C   0  0  0  0  0  0  0  0  0  0  0  0
    9.1863  -17.2292   21.5253 C   0  0  2  0  0  0  0  0  0  0  0  0
    9.1638  -16.2236   20.4931 N   0  0  0  0  0  0  0  0  0  0  0  0
    9.8851  -16.8177   22.7671 C   0  0  0  0  0  0  0  0  0  0  0  0
   11.0887  -16.4756   22.6568 O   0  0  0  0  0  0  0  0  0  0  0  0
    9.3212  -16.7804   24.0627 N   0  0  0  0  0  0  0  0  0  0  0  0
   10.1231  -16.3705   25.2309 C   0  0  1  0  0  0  0  0  0  0  0  0
    9.8132  -15.0043   25.7055 C   0  0  0  0  0  0  0  0  0  0  0  0
    8.4054  -14.6110   25.7702 C   0  0  0  0  0  0  0  0  0  0  0  0
    7.3700  -15.5333   25.5416 C   0  0  0  0  0  0  0  0  0  0  0  0
    6.1783  -14.9224   25.6827 N   0  0  0  0  0  0  0  0  0  0  0  0
    6.3762  -13.6317   25.9946 C   0  0  0  0  0  0  0  0  0  0  0  0
    5.4972  -12.5998   26.2304 C   0  0  0  0  0  0  0  0  0  0  0  0
    5.9661  -11.3453   26.5252 C   0  0  0  0  0  0  0  0  0  0  0  0
    7.3248  -11.1670   26.5733 C   0  0  0  0  0  0  0  0  0  0  0  0
    8.2232  -12.1868   26.3404 C   0  0  0  0  0  0  0  0  0  0  0  0
    7.7477  -13.4413   26.0471 C   0  0  0  0  0  0  0  0  0  0  0  0
   10.0375  -17.4538   26.2223 C   0  0  0  0  0  0  0  0  0  0  0  0
    9.1474  -18.5125   26.0451 O   0  0  0  0  0  0  0  0  0  0  0  0
   10.7325  -17.5152   27.2736 O   0  0  0  0  0  0  0  0  0  0  0  0
  2  1  1  0
  3  2  1  0
  4  3  1  0
  4  5  1  0
  5  6  1  1
  5  1  1  0
  6  7  2  0
  9  8  1  1
 10  9  1  0
 11  9  1  0
 11 12  1  6
 12  6  1  0
 13 11  1  0
 14 13  2  0
 15 13  1  0
 16 15  1  0
 16 17  1  1
 18 17  1  0
 19 18  2  0
 20 19  1  0
 21 20  1  0
 21 26  2  0
 22 21  1  0
 23 22  2  0
 23 24  1  0
 24 25  2  0
 25 26  1  0
 26 18  1  0
 27 16  1  0
 27 28  1  0
 29 27  2  0
M  END
$$$$
