PVW.pdb
     RDKit          3D

 29 31  0  0  1  0  0  0  0  0999 V2000
    8.3898  -15.0998   18.3843 N   0  0  0  0  0  0  0  0  0  0  0  0
    8.2903  -14.3283   17.1414 C   0  0  0  0  0  0  0  0  0  0  0  0
    7.7825  -12.9596   17.5305 C   0  0  0  0  0  0  0  0  0  0  0  0
    7.6166  -13.0451   19.0540 C   0  0  0  0  0  0  0  0  0  0  0  0
    8.5929  -14.1183   19.4096 C   0  0  1  0  0  0  0  0  0  0  0  0
    8.3504  -14.7078   20.7695 C   0  0  0  0  0  0  0  0  0  0  0  0
    8.5398  -14.0360   21.8110 O   0  0  0  0  0  0  0  0  0  0  0  0
    6.4829  -18.3362   23.5475 C   0  0  0  0  0  0  0  0  0  0  0  0
    6.7639  -17.9032   22.0991 C   0  0  1  0  0  0  0  0  0  0  0  0
    5.4607  -17.8236   21.4069 C   0  0  0  0  0  0  0  0  0  0  0  0
    7.5965  -16.6769   22.1809 C   0  0  2  0  0  0  0  0  0  0  0  0
    7.8987  -16.0473   20.9201 N   0  0  0  0  0  0  0  0  0  0  0  0
    8.7456  -16.7625   23.1145 C   0  0  0  0  0  0  0  0  0  0  0  0
    9.7746  -17.3511   22.6990 O   0  0  0  0  0  0  0  0  0  0  0  0
    8.7858  -16.2466   24.4299 N   0  0  0  0  0  0  0  0  0  0  0  0
   10.0256  -16.2913   25.2279 C   0  0  1  0  0  0  0  0  0  0  0  0
   10.3818  -14.9891   25.8324 C   0  0  0  0  0  0  0  0  0  0  0  0
    9.3510  -14.2936   26.6033 C   0  0  0  0  0  0  0  0  0  0  0  0
    9.2555  -14.4291   27.9989 C   0  0  0  0  0  0  0  0  0  0  0  0
    8.2421  -13.6719   28.4603 N   0  0  0  0  0  0  0  0  0  0  0  0
    7.6578  -13.0385   27.4309 C   0  0  0  0  0  0  0  0  0  0  0  0
    6.5921  -12.1702   27.3739 C   0  0  0  0  0  0  0  0  0  0  0  0
    6.1778  -11.6615   26.1696 C   0  0  0  0  0  0  0  0  0  0  0  0
    6.8594  -12.0493   25.0448 C   0  0  0  0  0  0  0  0  0  0  0  0
    7.9297  -12.9180   25.0793 C   0  0  0  0  0  0  0  0  0  0  0  0
    8.3409  -13.4230   26.2883 C   0  0  0  0  0  0  0  0  0  0  0  0
    9.9176  -17.4401   26.1402 C   0  0  0  0  0  0  0  0  0  0  0  0
   11.0523  -17.9749   26.7491 O   0  0  0  0  0  0  0  0  0  0  0  0
    8.8348  -18.0159   26.4371 O   0  0  0  0  0  0  0  0  0  0  0  0
  2  1  1  0
  3  2  1  0
  4  3  1  0
  4  5  1  0
  5  6  1  1
  5  1  1  0
  6  7  2  0
  9  8  1  1
 10  9  1  0
 11  9  1  0
 11 12  1  6
 12  6  1  0
 13 11  1  0
 14 13  2  0
 15 13  1  0
 16 15  1  0
 16 17  1  1
 18 17  1  0
 19 18  2  0
 20 19  1  0
 21 20  1  0
 21 26  2  0
 22 21  1  0
 23 22  2  0
 23 24  1  0
 24 25  2  0
 25 26  1  0
 26 18  1  0
 27 16  1  0
 27 28  1  0
 29 27  2  0
M  END
$$$$
