PVW.pdb
     RDKit          3D

 29 31  0  0  1  0  0  0  0  0999 V2000
    9.0071  -14.6100   18.2843 N   0  0  0  0  0  0  0  0  0  0  0  0
    8.8992  -13.8235   17.0516 C   0  0  0  0  0  0  0  0  0  0  0  0
    7.8664  -12.7537   17.3192 C   0  0  0  0  0  0  0  0  0  0  0  0
    7.4289  -13.0149   18.7671 C   0  0  0  0  0  0  0  0  0  0  0  0
    8.6276  -13.7059   19.3304 C   0  0  1  0  0  0  0  0  0  0  0  0
    8.3346  -14.4510   20.6010 C   0  0  0  0  0  0  0  0  0  0  0  0
    7.9408  -13.8510   21.6290 O   0  0  0  0  0  0  0  0  0  0  0  0
    7.2250  -18.5689   22.9541 C   0  0  0  0  0  0  0  0  0  0  0  0
    7.6295  -17.9948   21.5861 C   0  0  1  0  0  0  0  0  0  0  0  0
    6.4438  -18.0819   20.7085 C   0  0  0  0  0  0  0  0  0  0  0  0
    8.2173  -16.6571   21.8488 C   0  0  2  0  0  0  0  0  0  0  0  0
    8.4950  -15.8614   20.6796 N   0  0  0  0  0  0  0  0  0  0  0  0
    9.2889  -16.6355   22.8738 C   0  0  0  0  0  0  0  0  0  0  0  0
   10.0430  -17.6385   22.9310 O   0  0  0  0  0  0  0  0  0  0  0  0
    9.5350  -15.5916   23.7946 N   0  0  0  0  0  0  0  0  0  0  0  0
   10.0695  -15.8732   25.1402 C   0  0  1  0  0  0  0  0  0  0  0  0
    9.0180  -16.1397   26.1457 C   0  0  0  0  0  0  0  0  0  0  0  0
    7.8505  -15.2577   26.1574 C   0  0  0  0  0  0  0  0  0  0  0  0
    6.5452  -15.7591   26.0168 C   0  0  0  0  0  0  0  0  0  0  0  0
    5.6602  -14.7465   26.0838 N   0  0  0  0  0  0  0  0  0  0  0  0
    6.3209  -13.5915   26.2620 C   0  0  0  0  0  0  0  0  0  0  0  0
    5.8824  -12.2930   26.3822 C   0  0  0  0  0  0  0  0  0  0  0  0
    6.7820  -11.2716   26.5494 C   0  0  0  0  0  0  0  0  0  0  0  0
    8.1139  -11.5948   26.5902 C   0  0  0  0  0  0  0  0  0  0  0  0
    8.5750  -12.8890   26.4719 C   0  0  0  0  0  0  0  0  0  0  0  0
    7.6693  -13.9078   26.3061 C   0  0  0  0  0  0  0  0  0  0  0  0
   11.1187  -16.8931   24.9896 C   0  0  0  0  0  0  0  0  0  0  0  0
   12.4483  -16.5963   25.2872 O   0  0  0  0  0  0  0  0  0  0  0  0
   10.9143  -18.0738   24.5945 O   0  0  0  0  0  0  0  0  0  0  0  0
  2  1  1  0
  3  2  1  0
  4  3  1  0
  4  5  1  0
  5  6  1  1
  5  1  1  0
  6  7  2  0
  9  8  1  1
 10  9  1  0
 11  9  1  0
 11 12  1  6
 12  6  1  0
 13 11  1  0
 14 13  2  0
 15 13  1  0
 16 15  1  0
 16 17  1  1
 18 17  1  0
 19 18  2  0
 20 19  1  0
 21 20  1  0
 21 26  2  0
 22 21  1  0
 23 22  2  0
 23 24  1  0
 24 25  2  0
 25 26  1  0
 26 18  1  0
 27 16  1  0
 27 28  1  0
 29 27  2  0
M  END
$$$$
