PVW.pdb
     RDKit          3D

 29 31  0  0  1  0  0  0  0  0999 V2000
    9.0256  -14.4145   18.8057 N   0  0  0  0  0  0  0  0  0  0  0  0
    8.7732  -13.4403   17.7394 C   0  0  0  0  0  0  0  0  0  0  0  0
    7.5018  -12.7168   18.1172 C   0  0  0  0  0  0  0  0  0  0  0  0
    7.0899  -13.3615   19.4478 C   0  0  0  0  0  0  0  0  0  0  0  0
    8.4000  -13.8555   19.9684 C   0  0  1  0  0  0  0  0  0  0  0  0
    8.2526  -14.8911   21.0461 C   0  0  0  0  0  0  0  0  0  0  0  0
    7.5892  -14.6574   22.0841 O   0  0  0  0  0  0  0  0  0  0  0  0
    8.1306  -18.9375   20.4120 C   0  0  0  0  0  0  0  0  0  0  0  0
    9.1769  -18.5619   21.4743 C   0  0  1  0  0  0  0  0  0  0  0  0
   10.5084  -18.7865   20.8740 C   0  0  0  0  0  0  0  0  0  0  0  0
    8.8327  -17.1944   21.9383 C   0  0  2  0  0  0  0  0  0  0  0  0
    8.8610  -16.1702   20.9247 N   0  0  0  0  0  0  0  0  0  0  0  0
    9.4490  -16.7980   23.2277 C   0  0  0  0  0  0  0  0  0  0  0  0
   10.5084  -16.1254   23.1700 O   0  0  0  0  0  0  0  0  0  0  0  0
    8.9554  -17.1127   24.5144 N   0  0  0  0  0  0  0  0  0  0  0  0
    9.6862  -16.7085   25.7303 C   0  0  1  0  0  0  0  0  0  0  0  0
    8.8114  -16.1425   26.7800 C   0  0  0  0  0  0  0  0  0  0  0  0
    7.7402  -15.2398   26.3574 C   0  0  0  0  0  0  0  0  0  0  0  0
    6.5020  -15.7253   25.9032 C   0  0  0  0  0  0  0  0  0  0  0  0
    5.6929  -14.6925   25.6001 N   0  0  0  0  0  0  0  0  0  0  0  0
    6.3402  -13.5395   25.8322 C   0  0  0  0  0  0  0  0  0  0  0  0
    5.9595  -12.2265   25.6767 C   0  0  0  0  0  0  0  0  0  0  0  0
    6.8311  -11.2127   25.9819 C   0  0  0  0  0  0  0  0  0  0  0  0
    8.0764  -11.5582   26.4401 C   0  0  0  0  0  0  0  0  0  0  0  0
    8.4783  -12.8672   26.6033 C   0  0  0  0  0  0  0  0  0  0  0  0
    7.6007  -13.8781   26.2975 C   0  0  0  0  0  0  0  0  0  0  0  0
   10.5465  -17.8365   26.1190 C   0  0  0  0  0  0  0  0  0  0  0  0
   11.5968  -17.6542   27.0178 O   0  0  0  0  0  0  0  0  0  0  0  0
   10.4135  -19.0158   25.6904 O   0  0  0  0  0  0  0  0  0  0  0  0
  2  1  1  0
  3  2  1  0
  4  3  1  0
  4  5  1  0
  5  6  1  1
  5  1  1  0
  6  7  2  0
  9  8  1  6
 10  9  1  0
 11  9  1  0
 11 12  1  6
 12  6  1  0
 13 11  1  0
 14 13  2  0
 15 13  1  0
 16 15  1  0
 16 17  1  1
 18 17  1  0
 19 18  2  0
 20 19  1  0
 21 20  1  0
 21 26  2  0
 22 21  1  0
 23 22  2  0
 23 24  1  0
 24 25  2  0
 25 26  1  0
 26 18  1  0
 27 16  1  0
 27 28  1  0
 29 27  2  0
M  END
$$$$
