PVW.pdb
     RDKit          3D

 29 31  0  0  1  0  0  0  0  0999 V2000
    9.1946  -14.5021   18.6853 N   0  0  0  0  0  0  0  0  0  0  0  0
    9.0077  -13.4989   17.6325 C   0  0  0  0  0  0  0  0  0  0  0  0
    7.8441  -12.6387   18.0671 C   0  0  0  0  0  0  0  0  0  0  0  0
    7.4204  -13.2413   19.4137 C   0  0  0  0  0  0  0  0  0  0  0  0
    8.6876  -13.8836   19.8753 C   0  0  1  0  0  0  0  0  0  0  0  0
    8.4712  -14.9027   20.9570 C   0  0  0  0  0  0  0  0  0  0  0  0
    7.9323  -14.5897   22.0449 O   0  0  0  0  0  0  0  0  0  0  0  0
    8.6020  -19.5852   22.5126 C   0  0  0  0  0  0  0  0  0  0  0  0
    8.8132  -18.6768   21.2900 C   0  0  1  0  0  0  0  0  0  0  0  0
    7.8300  -19.0878   20.2661 C   0  0  0  0  0  0  0  0  0  0  0  0
    8.7692  -17.2802   21.7914 C   0  0  2  0  0  0  0  0  0  0  0  0
    8.8709  -16.2558   20.7827 N   0  0  0  0  0  0  0  0  0  0  0  0
    9.5802  -17.0265   23.0069 C   0  0  0  0  0  0  0  0  0  0  0  0
   10.8187  -16.8899   22.8472 O   0  0  0  0  0  0  0  0  0  0  0  0
    9.0868  -16.9295   24.3279 N   0  0  0  0  0  0  0  0  0  0  0  0
    9.9903  -16.6500   25.4598 C   0  0  1  0  0  0  0  0  0  0  0  0
    9.6116  -15.4450   26.2295 C   0  0  0  0  0  0  0  0  0  0  0  0
    8.2440  -14.9465   26.0811 C   0  0  0  0  0  0  0  0  0  0  0  0
    7.1644  -15.8134   25.8398 C   0  0  0  0  0  0  0  0  0  0  0  0
    6.0212  -15.1056   25.7672 N   0  0  0  0  0  0  0  0  0  0  0  0
    6.2937  -13.8036   25.9490 C   0  0  0  0  0  0  0  0  0  0  0  0
    5.4859  -12.6900   25.9581 C   0  0  0  0  0  0  0  0  0  0  0  0
    6.0255  -11.4455   26.1593 C   0  0  0  0  0  0  0  0  0  0  0  0
    7.3812  -11.3606   26.3469 C   0  0  0  0  0  0  0  0  0  0  0  0
    8.2090  -12.4634   26.3415 C   0  0  0  0  0  0  0  0  0  0  0  0
    7.6626  -13.7072   26.1411 C   0  0  0  0  0  0  0  0  0  0  0  0
   10.1430  -17.9016   26.2173 C   0  0  0  0  0  0  0  0  0  0  0  0
   11.2190  -18.0816   27.0857 O   0  0  0  0  0  0  0  0  0  0  0  0
    9.3472  -18.8784   26.1489 O   0  0  0  0  0  0  0  0  0  0  0  0
  2  1  1  0
  3  2  1  0
  4  3  1  0
  4  5  1  0
  5  6  1  1
  5  1  1  0
  6  7  2  0
  9  8  1  1
 10  9  1  0
 11  9  1  0
 11 12  1  6
 12  6  1  0
 13 11  1  0
 14 13  2  0
 15 13  1  0
 16 15  1  0
 16 17  1  1
 18 17  1  0
 19 18  2  0
 20 19  1  0
 21 20  1  0
 21 26  2  0
 22 21  1  0
 23 22  2  0
 23 24  1  0
 24 25  2  0
 25 26  1  0
 26 18  1  0
 27 16  1  0
 27 28  1  0
 29 27  2  0
M  END
$$$$
