PVW.pdb
     RDKit          3D

 29 31  0  0  1  0  0  0  0  0999 V2000
    9.1991  -14.3892   18.8382 N   0  0  0  0  0  0  0  0  0  0  0  0
    8.8436  -13.4651   17.7568 C   0  0  0  0  0  0  0  0  0  0  0  0
    7.4957  -12.8862   18.1187 C   0  0  0  0  0  0  0  0  0  0  0  0
    7.1522  -13.5552   19.4567 C   0  0  0  0  0  0  0  0  0  0  0  0
    8.5070  -13.8893   19.9900 C   0  0  1  0  0  0  0  0  0  0  0  0
    8.4723  -14.9198   21.0819 C   0  0  0  0  0  0  0  0  0  0  0  0
    7.7781  -14.7504   22.1121 O   0  0  0  0  0  0  0  0  0  0  0  0
    9.4845  -19.4697   22.6729 C   0  0  0  0  0  0  0  0  0  0  0  0
    9.6842  -18.4974   21.4985 C   0  0  1  0  0  0  0  0  0  0  0  0
    8.9972  -19.0806   20.3274 C   0  0  0  0  0  0  0  0  0  0  0  0
    9.2497  -17.1619   21.9798 C   0  0  2  0  0  0  0  0  0  0  0  0
    9.2261  -16.1211   20.9832 N   0  0  0  0  0  0  0  0  0  0  0  0
    9.8246  -16.7497   23.2833 C   0  0  0  0  0  0  0  0  0  0  0  0
   10.9279  -16.1497   23.2552 O   0  0  0  0  0  0  0  0  0  0  0  0
    9.2463  -16.9750   24.5533 N   0  0  0  0  0  0  0  0  0  0  0  0
    9.9489  -16.5847   25.7901 C   0  0  1  0  0  0  0  0  0  0  0  0
    9.6217  -15.2155   26.2440 C   0  0  0  0  0  0  0  0  0  0  0  0
    8.2635  -14.7271   26.0044 C   0  0  0  0  0  0  0  0  0  0  0  0
    7.2270  -15.5909   25.6110 C   0  0  0  0  0  0  0  0  0  0  0  0
    6.0813  -14.8955   25.4804 N   0  0  0  0  0  0  0  0  0  0  0  0
    6.3110  -13.6047   25.7692 C   0  0  0  0  0  0  0  0  0  0  0  0
    5.4840  -12.5052   25.7764 C   0  0  0  0  0  0  0  0  0  0  0  0
    5.9790  -11.2693   26.1050 C   0  0  0  0  0  0  0  0  0  0  0  0
    7.3105  -11.1784   26.4199 C   0  0  0  0  0  0  0  0  0  0  0  0
    8.1568  -12.2671   26.4191 C   0  0  0  0  0  0  0  0  0  0  0  0
    7.6550  -13.5024   26.0906 C   0  0  0  0  0  0  0  0  0  0  0  0
    9.7577  -17.6709   26.7634 C   0  0  0  0  0  0  0  0  0  0  0  0
   10.5482  -17.7474   27.9095 O   0  0  0  0  0  0  0  0  0  0  0  0
    8.8985  -18.5878   26.6493 O   0  0  0  0  0  0  0  0  0  0  0  0
  2  1  1  0
  3  2  1  0
  4  3  1  0
  4  5  1  0
  5  6  1  1
  5  1  1  0
  6  7  2  0
  9  8  1  1
 10  9  1  0
 11  9  1  0
 11 12  1  6
 12  6  1  0
 13 11  1  0
 14 13  2  0
 15 13  1  0
 16 15  1  0
 16 17  1  1
 18 17  1  0
 19 18  2  0
 20 19  1  0
 21 20  1  0
 21 26  2  0
 22 21  1  0
 23 22  2  0
 23 24  1  0
 24 25  2  0
 25 26  1  0
 26 18  1  0
 27 16  1  0
 27 28  1  0
 29 27  2  0
M  END
$$$$
