PVW.pdb
     RDKit          3D

 29 31  0  0  1  0  0  0  0  0999 V2000
    8.9929  -13.9118   19.3023 N   0  0  0  0  0  0  0  0  0  0  0  0
    8.4441  -12.9431   18.3483 C   0  0  0  0  0  0  0  0  0  0  0  0
    7.0520  -12.6113   18.8330 C   0  0  0  0  0  0  0  0  0  0  0  0
    6.8894  -13.4595   20.1018 C   0  0  0  0  0  0  0  0  0  0  0  0
    8.3080  -13.6427   20.5329 C   0  0  1  0  0  0  0  0  0  0  0  0
    8.4870  -14.7750   21.5031 C   0  0  0  0  0  0  0  0  0  0  0  0
    7.8251  -14.8290   22.5665 O   0  0  0  0  0  0  0  0  0  0  0  0
   10.2777  -19.2683   22.4766 C   0  0  0  0  0  0  0  0  0  0  0  0
   10.3352  -18.1080   21.4693 C   0  0  1  0  0  0  0  0  0  0  0  0
    9.8494  -18.6294   20.1748 C   0  0  0  0  0  0  0  0  0  0  0  0
    9.6072  -16.9740   22.0922 C   0  0  2  0  0  0  0  0  0  0  0  0
    9.4135  -15.8225   21.2474 N   0  0  0  0  0  0  0  0  0  0  0  0
   10.0192  -16.6536   23.4804 C   0  0  0  0  0  0  0  0  0  0  0  0
   11.0406  -15.9359   23.6203 O   0  0  0  0  0  0  0  0  0  0  0  0
    9.3701  -17.0866   24.6592 N   0  0  0  0  0  0  0  0  0  0  0  0
    9.8892  -16.7243   25.9914 C   0  0  1  0  0  0  0  0  0  0  0  0
    8.8338  -16.3025   26.9379 C   0  0  0  0  0  0  0  0  0  0  0  0
    7.8342  -15.3474   26.4588 C   0  0  0  0  0  0  0  0  0  0  0  0
    6.6502  -15.7705   25.8311 C   0  0  0  0  0  0  0  0  0  0  0  0
    5.8990  -14.7001   25.5099 N   0  0  0  0  0  0  0  0  0  0  0  0
    6.5332  -13.5817   25.8962 C   0  0  0  0  0  0  0  0  0  0  0  0
    6.1947  -12.2523   25.7907 C   0  0  0  0  0  0  0  0  0  0  0  0
    7.0408  -11.2831   26.2655 C   0  0  0  0  0  0  0  0  0  0  0  0
    8.2180  -11.6893   26.8393 C   0  0  0  0  0  0  0  0  0  0  0  0
    8.5768  -13.0157   26.9553 C   0  0  0  0  0  0  0  0  0  0  0  0
    7.7248  -13.9817   26.4793 C   0  0  0  0  0  0  0  0  0  0  0  0
   10.7754  -17.8146   26.4270 C   0  0  0  0  0  0  0  0  0  0  0  0
   11.7200  -17.6062   27.4313 O   0  0  0  0  0  0  0  0  0  0  0  0
   10.7578  -18.9822   25.9492 O   0  0  0  0  0  0  0  0  0  0  0  0
  2  1  1  0
  3  2  1  0
  4  3  1  0
  4  5  1  0
  5  6  1  1
  5  1  1  0
  6  7  2  0
  9  8  1  1
 10  9  1  0
 11  9  1  0
 11 12  1  6
 12  6  1  0
 13 11  1  0
 14 13  2  0
 15 13  1  0
 16 15  1  0
 16 17  1  1
 18 17  1  0
 19 18  2  0
 20 19  1  0
 21 20  1  0
 21 26  2  0
 22 21  1  0
 23 22  2  0
 23 24  1  0
 24 25  2  0
 25 26  1  0
 26 18  1  0
 27 16  1  0
 27 28  1  0
 29 27  2  0
M  END
$$$$
