PVW.pdb
     RDKit          3D

 29 31  0  0  1  0  0  0  0  0999 V2000
    8.4957  -18.3987   18.1985 N   0  0  0  0  0  0  0  0  0  0  0  0
    8.3982  -19.3651   17.1002 C   0  0  0  0  0  0  0  0  0  0  0  0
    9.1248  -18.7496   15.9271 C   0  0  0  0  0  0  0  0  0  0  0  0
    9.6162  -17.3980   16.4632 C   0  0  0  0  0  0  0  0  0  0  0  0
    9.6954  -17.6604   17.9317 C   0  0  1  0  0  0  0  0  0  0  0  0
    9.7435  -16.4036   18.7526 C   0  0  0  0  0  0  0  0  0  0  0  0
   10.8039  -15.7448   18.8689 O   0  0  0  0  0  0  0  0  0  0  0  0
    7.7999  -12.4753   20.7141 C   0  0  0  0  0  0  0  0  0  0  0  0
    7.6186  -13.6688   19.7616 C   0  0  1  0  0  0  0  0  0  0  0  0
    7.7794  -13.1566   18.3848 C   0  0  0  0  0  0  0  0  0  0  0  0
    8.5452  -14.7281   20.2339 C   0  0  2  0  0  0  0  0  0  0  0  0
    8.5881  -15.9203   19.4251 N   0  0  0  0  0  0  0  0  0  0  0  0
    8.5145  -14.9795   21.6952 C   0  0  0  0  0  0  0  0  0  0  0  0
    7.3940  -15.2232   22.2080 O   0  0  0  0  0  0  0  0  0  0  0  0
    9.6302  -14.9647   22.5630 N   0  0  0  0  0  0  0  0  0  0  0  0
    9.5122  -15.4140   23.9630 C   0  0  1  0  0  0  0  0  0  0  0  0
    8.1682  -15.9298   24.3026 C   0  0  0  0  0  0  0  0  0  0  0  0
    7.3887  -15.1915   25.2966 C   0  0  0  0  0  0  0  0  0  0  0  0
    6.4456  -15.8314   26.1189 C   0  0  0  0  0  0  0  0  0  0  0  0
    5.8883  -14.9341   26.9540 N   0  0  0  0  0  0  0  0  0  0  0  0
    6.4196  -13.7232   26.7221 C   0  0  0  0  0  0  0  0  0  0  0  0
    6.1854  -12.4940   27.2940 C   0  0  0  0  0  0  0  0  0  0  0  0
    6.8683  -11.3872   26.8590 C   0  0  0  0  0  0  0  0  0  0  0  0
    7.7781  -11.5557   25.8471 C   0  0  0  0  0  0  0  0  0  0  0  0
    8.0283  -12.7781   25.2601 C   0  0  0  0  0  0  0  0  0  0  0  0
    7.3424  -13.8831   25.7009 C   0  0  0  0  0  0  0  0  0  0  0  0
   10.6531  -16.3016   24.2353 C   0  0  0  0  0  0  0  0  0  0  0  0
   11.0975  -16.5100   25.5404 O   0  0  0  0  0  0  0  0  0  0  0  0
   11.3002  -16.9240   23.3487 O   0  0  0  0  0  0  0  0  0  0  0  0
  2  1  1  0
  3  2  1  0
  4  3  1  0
  4  5  1  0
  5  6  1  1
  5  1  1  0
  6  7  2  0
  9  8  1  1
 10  9  1  0
 11  9  1  0
 11 12  1  6
 12  6  1  0
 13 11  1  0
 14 13  2  0
 15 13  1  0
 16 15  1  0
 16 17  1  6
 18 17  1  0
 19 18  2  0
 20 19  1  0
 21 20  1  0
 21 26  2  0
 22 21  1  0
 23 22  2  0
 23 24  1  0
 24 25  2  0
 25 26  1  0
 26 18  1  0
 27 16  1  0
 27 28  1  0
 29 27  2  0
M  END
$$$$
