MWP.pdb
     RDKit          3D

 30 32  0  0  1  0  0  0  0  0999 V2000
    7.8280  -12.2832   19.6971 C   0  0  0  0  0  0  0  0  0  0  0  0
    7.8676  -13.6953   18.5587 S   0  0  0  0  0  0  0  0  0  0  0  0
    8.6162  -15.1502   19.3863 C   0  0  0  0  0  0  0  0  0  0  0  0
    9.0796  -14.6940   20.7463 C   0  0  0  0  0  0  0  0  0  0  0  0
    9.6839  -15.8319   21.5316 C   0  0  2  0  0  0  0  0  0  0  0  0
    8.9230  -17.0531   21.3875 N   0  0  0  0  0  0  0  0  0  0  0  0
    9.8527  -15.4794   22.9776 C   0  0  0  0  0  0  0  0  0  0  0  0
   10.5111  -14.4444   23.2409 O   0  0  0  0  0  0  0  0  0  0  0  0
    9.3102  -16.2523   24.0153 N   0  0  0  0  0  0  0  0  0  0  0  0
    9.4228  -15.9279   25.4544 C   0  0  1  0  0  0  0  0  0  0  0  0
    8.0657  -16.1531   25.9869 C   0  0  0  0  0  0  0  0  0  0  0  0
    6.9737  -15.2792   25.6472 C   0  0  0  0  0  0  0  0  0  0  0  0
    5.7781  -15.5992   25.0452 C   0  0  0  0  0  0  0  0  0  0  0  0
    5.0541  -14.4624   24.9047 N   0  0  0  0  0  0  0  0  0  0  0  0
    5.7351  -13.4271   25.3916 C   0  0  0  0  0  0  0  0  0  0  0  0
    5.3926  -12.0932   25.4739 C   0  0  0  0  0  0  0  0  0  0  0  0
    6.2792  -11.1867   26.0492 C   0  0  0  0  0  0  0  0  0  0  0  0
    7.4773  -11.6501   26.5211 C   0  0  0  0  0  0  0  0  0  0  0  0
    7.7949  -12.9818   26.4268 C   0  0  0  0  0  0  0  0  0  0  0  0
    6.9428  -13.9153   25.8629 C   0  0  0  0  0  0  0  0  0  0  0  0
   10.5551  -16.5963   26.0913 C   0  0  0  0  0  0  0  0  0  0  0  0
   11.3772  -17.2213   25.3694 O   0  0  0  0  0  0  0  0  0  0  0  0
   10.8363  -16.6014   27.4771 N   0  0  0  0  0  0  0  0  0  0  0  0
   10.0294  -15.9378   28.4854 C   0  0  0  0  0  0  0  0  0  0  0  0
   11.0435  -15.3980   29.4836 C   0  0  0  0  0  0  0  0  0  0  0  0
   12.3548  -15.9402   29.0294 C   0  0  0  0  0  0  0  0  0  0  0  0
   11.9599  -17.1775   28.1908 C   0  0  1  0  0  0  0  0  0  0  0  0
   11.5992  -18.2017   29.1850 C   0  0  0  0  0  0  0  0  0  0  0  0
   12.6406  -18.7861   29.9036 O   0  0  0  0  0  0  0  0  0  0  0  0
   10.4439  -18.5943   29.4423 O   0  0  0  0  0  0  0  0  0  0  0  0
  1  2  1  0
  3  2  1  0
  4  3  1  0
  5  6  1  1
  5  4  1  0
  7  5  1  0
  8  7  2  0
  9  7  1  0
 10 21  1  0
 10  9  1  0
 11 12  1  0
 10 11  1  1
 12 13  2  0
 14 13  1  0
 15 14  1  0
 16 15  2  0
 17 16  1  0
 18 19  1  0
 18 17  2  0
 19 20  2  0
 20 15  1  0
 20 12  1  0
 21 22  2  0
 23 24  1  0
 23 21  1  0
 25 24  1  0
 26 27  1  0
 26 25  1  0
 27 23  1  0
 27 28  1  1
 28 29  1  0
 30 28  2  0
M  END
$$$$
