MWP.pdb
     RDKit          3D

 30 32  0  0  1  0  0  0  0  0999 V2000
    8.6088  -12.3736   17.7658 C   0  0  0  0  0  0  0  0  0  0  0  0
    8.6206  -13.9561   16.8786 S   0  0  0  0  0  0  0  0  0  0  0  0
    9.6227  -15.1859   17.7983 C   0  0  0  0  0  0  0  0  0  0  0  0
    9.7983  -14.6537   19.1978 C   0  0  0  0  0  0  0  0  0  0  0  0
   10.5295  -15.6410   20.0737 C   0  0  2  0  0  0  0  0  0  0  0  0
   10.0351  -16.9888   19.8996 N   0  0  0  0  0  0  0  0  0  0  0  0
   10.4843  -15.2416   21.5166 C   0  0  0  0  0  0  0  0  0  0  0  0
   11.0416  -14.1617   21.8288 O   0  0  0  0  0  0  0  0  0  0  0  0
    9.8540  -16.0191   22.4998 N   0  0  0  0  0  0  0  0  0  0  0  0
    9.5315  -15.5503   23.8655 C   0  0  1  0  0  0  0  0  0  0  0  0
    8.0922  -15.2316   23.8119 C   0  0  0  0  0  0  0  0  0  0  0  0
    7.3584  -14.8810   24.9994 C   0  0  0  0  0  0  0  0  0  0  0  0
    6.7110  -15.7153   25.8820 C   0  0  0  0  0  0  0  0  0  0  0  0
    6.1414  -14.9545   26.8479 N   0  0  0  0  0  0  0  0  0  0  0  0
    6.3968  -13.6675   26.6219 C   0  0  0  0  0  0  0  0  0  0  0  0
    6.0350  -12.5467   27.3405 C   0  0  0  0  0  0  0  0  0  0  0  0
    6.4411  -11.2874   26.9067 C   0  0  0  0  0  0  0  0  0  0  0  0
    7.1950  -11.1972   25.7681 C   0  0  0  0  0  0  0  0  0  0  0  0
    7.5412  -12.3272   25.0707 C   0  0  0  0  0  0  0  0  0  0  0  0
    7.1587  -13.5968   25.4672 C   0  0  0  0  0  0  0  0  0  0  0  0
   10.0189  -16.4607   24.8989 C   0  0  0  0  0  0  0  0  0  0  0  0
   10.4087  -17.6106   24.5620 O   0  0  0  0  0  0  0  0  0  0  0  0
   10.1117  -16.1675   26.2790 N   0  0  0  0  0  0  0  0  0  0  0  0
    9.3758  -15.1105   26.9495 C   0  0  0  0  0  0  0  0  0  0  0  0
   10.3578  -14.5592   27.9731 C   0  0  0  0  0  0  0  0  0  0  0  0
   11.5380  -15.4656   27.8996 C   0  0  0  0  0  0  0  0  0  0  0  0
   10.9550  -16.7645   27.2969 C   0  0  1  0  0  0  0  0  0  0  0  0
   10.2259  -17.3967   28.4088 C   0  0  0  0  0  0  0  0  0  0  0  0
    8.9942  -17.9783   28.1135 O   0  0  0  0  0  0  0  0  0  0  0  0
   10.6116  -17.4586   29.5930 O   0  0  0  0  0  0  0  0  0  0  0  0
  1  2  1  0
  3  2  1  0
  4  3  1  0
  5  6  1  1
  5  4  1  0
  7  5  1  0
  8  7  2  0
  9  7  1  0
 10 21  1  0
 10  9  1  0
 11 12  1  0
 10 11  1  6
 12 13  2  0
 14 13  1  0
 15 14  1  0
 16 15  2  0
 17 16  1  0
 18 19  1  0
 18 17  2  0
 19 20  2  0
 20 15  1  0
 20 12  1  0
 21 22  2  0
 23 24  1  0
 23 21  1  0
 25 24  1  0
 26 27  1  0
 26 25  1  0
 27 23  1  0
 27 28  1  1
 28 29  1  0
 30 28  2  0
M  END
$$$$
