MWP.pdb
     RDKit          3D

 30 32  0  0  1  0  0  0  0  0999 V2000
    6.3722  -17.5662   19.5770 C   0  0  0  0  0  0  0  0  0  0  0  0
    6.5173  -19.3143   19.1135 S   0  0  0  0  0  0  0  0  0  0  0  0
    5.4782  -20.3464   20.2168 C   0  0  0  0  0  0  0  0  0  0  0  0
    4.3223  -19.4881   20.6641 C   0  0  0  0  0  0  0  0  0  0  0  0
    4.2055  -19.4635   22.1682 C   0  0  2  0  0  0  0  0  0  0  0  0
    2.8859  -19.8508   22.6150 N   0  0  0  0  0  0  0  0  0  0  0  0
    4.5861  -18.1290   22.7320 C   0  0  0  0  0  0  0  0  0  0  0  0
    3.9114  -17.1382   22.3617 O   0  0  0  0  0  0  0  0  0  0  0  0
    5.6453  -17.9617   23.6367 N   0  0  0  0  0  0  0  0  0  0  0  0
    6.4211  -16.7130   23.8035 C   0  0  1  0  0  0  0  0  0  0  0  0
    6.5660  -16.5652   25.2640 C   0  0  0  0  0  0  0  0  0  0  0  0
    7.3569  -15.5068   25.8347 C   0  0  0  0  0  0  0  0  0  0  0  0
    8.6829  -15.5335   26.2026 C   0  0  0  0  0  0  0  0  0  0  0  0
    9.0095  -14.3192   26.7077 N   0  0  0  0  0  0  0  0  0  0  0  0
    7.9487  -13.5151   26.6787 C   0  0  0  0  0  0  0  0  0  0  0  0
    7.8154  -12.1997   27.0730 C   0  0  0  0  0  0  0  0  0  0  0  0
    6.5894  -11.5559   26.9271 C   0  0  0  0  0  0  0  0  0  0  0  0
    5.5412  -12.2540   26.3915 C   0  0  0  0  0  0  0  0  0  0  0  0
    5.6992  -13.5620   26.0077 C   0  0  0  0  0  0  0  0  0  0  0  0
    6.8998  -14.2385   26.1352 C   0  0  0  0  0  0  0  0  0  0  0  0
    7.6169  -16.6813   22.9648 C   0  0  0  0  0  0  0  0  0  0  0  0
    8.1406  -17.7713   22.6107 O   0  0  0  0  0  0  0  0  0  0  0  0
    8.2574  -15.5152   22.4858 N   0  0  0  0  0  0  0  0  0  0  0  0
    7.9453  -14.1650   22.9192 C   0  0  0  0  0  0  0  0  0  0  0  0
    8.0727  -13.3255   21.6563 C   0  0  0  0  0  0  0  0  0  0  0  0
    8.6031  -14.2613   20.6254 C   0  0  0  0  0  0  0  0  0  0  0  0
    9.2758  -15.3730   21.4630 C   0  0  1  0  0  0  0  0  0  0  0  0
   10.5385  -14.7761   21.9289 C   0  0  0  0  0  0  0  0  0  0  0  0
   10.6425  -14.4869   23.2883 O   0  0  0  0  0  0  0  0  0  0  0  0
   11.5248  -14.5053   21.2156 O   0  0  0  0  0  0  0  0  0  0  0  0
  1  2  1  0
  3  2  1  0
  4  3  1  0
  5  6  1  6
  5  4  1  0
  7  5  1  0
  8  7  2  0
  9  7  1  0
 10 21  1  0
 10  9  1  0
 11 12  1  0
 10 11  1  1
 12 13  2  0
 14 13  1  0
 15 14  1  0
 16 15  2  0
 17 16  1  0
 18 19  1  0
 18 17  2  0
 19 20  2  0
 20 15  1  0
 20 12  1  0
 21 22  2  0
 23 24  1  0
 23 21  1  0
 25 24  1  0
 26 27  1  0
 26 25  1  0
 27 23  1  0
 27 28  1  1
 28 29  1  0
 30 28  2  0
M  END
$$$$
