MWP.pdb
     RDKit          3D

 30 32  0  0  1  0  0  0  0  0999 V2000
    9.2968  -13.2597   19.3243 C   0  0  0  0  0  0  0  0  0  0  0  0
    7.7675  -13.5791   18.4017 S   0  0  0  0  0  0  0  0  0  0  0  0
    6.3281  -13.5419   19.5371 C   0  0  0  0  0  0  0  0  0  0  0  0
    5.8502  -14.9635   19.6899 C   0  0  0  0  0  0  0  0  0  0  0  0
    6.8084  -15.7791   20.5225 C   0  0  2  0  0  0  0  0  0  0  0  0
    6.5182  -17.1940   20.4514 N   0  0  0  0  0  0  0  0  0  0  0  0
    6.8394  -15.3149   21.9463 C   0  0  0  0  0  0  0  0  0  0  0  0
    6.3041  -14.2086   22.1989 O   0  0  0  0  0  0  0  0  0  0  0  0
    7.4328  -16.0616   22.9752 N   0  0  0  0  0  0  0  0  0  0  0  0
    8.6838  -15.6895   23.6721 C   0  0  1  0  0  0  0  0  0  0  0  0
    8.2321  -14.9276   24.8516 C   0  0  0  0  0  0  0  0  0  0  0  0
    8.3197  -15.4796   26.1780 C   0  0  0  0  0  0  0  0  0  0  0  0
    7.7162  -16.6127   26.6740 C   0  0  0  0  0  0  0  0  0  0  0  0
    8.0652  -16.7459   27.9766 N   0  0  0  0  0  0  0  0  0  0  0  0
    8.8673  -15.7460   28.3364 C   0  0  0  0  0  0  0  0  0  0  0  0
    9.4735  -15.4799   29.5469 C   0  0  0  0  0  0  0  0  0  0  0  0
   10.2953  -14.3635   29.6771 C   0  0  0  0  0  0  0  0  0  0  0  0
   10.4797  -13.5539   28.5892 C   0  0  0  0  0  0  0  0  0  0  0  0
    9.8649  -13.8398   27.3961 C   0  0  0  0  0  0  0  0  0  0  0  0
    9.0411  -14.9386   27.2243 C   0  0  0  0  0  0  0  0  0  0  0  0
    9.5777  -16.8292   23.8629 C   0  0  0  0  0  0  0  0  0  0  0  0
    9.1770  -17.9781   23.5359 O   0  0  0  0  0  0  0  0  0  0  0  0
   10.8918  -16.7684   24.3816 N   0  0  0  0  0  0  0  0  0  0  0  0
   11.5413  -15.5549   24.8438 C   0  0  0  0  0  0  0  0  0  0  0  0
   12.9897  -15.7123   24.4040 C   0  0  0  0  0  0  0  0  0  0  0  0
   13.0752  -17.0936   23.8522 C   0  0  0  0  0  0  0  0  0  0  0  0
   11.8825  -17.8191   24.5165 C   0  0  1  0  0  0  0  0  0  0  0  0
   12.3247  -18.0759   25.8971 C   0  0  0  0  0  0  0  0  0  0  0  0
   11.9416  -19.2856   26.4738 O   0  0  0  0  0  0  0  0  0  0  0  0
   13.0122  -17.3074   26.5983 O   0  0  0  0  0  0  0  0  0  0  0  0
  1  2  1  0
  3  2  1  0
  4  3  1  0
  5  6  1  1
  5  4  1  0
  7  5  1  0
  8  7  2  0
  9  7  1  0
 10 21  1  0
 10  9  1  0
 11 12  1  0
 10 11  1  1
 12 13  2  0
 14 13  1  0
 15 14  1  0
 16 15  2  0
 17 16  1  0
 18 19  1  0
 18 17  2  0
 19 20  2  0
 20 15  1  0
 20 12  1  0
 21 22  2  0
 23 24  1  0
 23 21  1  0
 25 24  1  0
 26 27  1  0
 26 25  1  0
 27 23  1  0
 27 28  1  1
 28 29  1  0
 30 28  2  0
M  END
$$$$
