MWP.pdb
     RDKit          3D

 30 32  0  0  1  0  0  0  0  0999 V2000
    8.3474  -11.9386   19.5436 C   0  0  0  0  0  0  0  0  0  0  0  0
    7.5889  -13.5120   19.0529 S   0  0  0  0  0  0  0  0  0  0  0  0
    8.7863  -14.8833   19.2719 C   0  0  0  0  0  0  0  0  0  0  0  0
    9.5755  -14.5844   20.5211 C   0  0  0  0  0  0  0  0  0  0  0  0
    9.8147  -15.8339   21.3324 C   0  0  2  0  0  0  0  0  0  0  0  0
    8.7822  -16.8237   21.1191 N   0  0  0  0  0  0  0  0  0  0  0  0
    9.9628  -15.5278   22.7912 C   0  0  0  0  0  0  0  0  0  0  0  0
   10.8279  -14.6777   23.1121 O   0  0  0  0  0  0  0  0  0  0  0  0
    9.1832  -16.1473   23.7795 N   0  0  0  0  0  0  0  0  0  0  0  0
    9.2657  -15.8500   25.2265 C   0  0  1  0  0  0  0  0  0  0  0  0
    7.9308  -16.1993   25.7479 C   0  0  0  0  0  0  0  0  0  0  0  0
    6.8338  -15.2700   25.6798 C   0  0  0  0  0  0  0  0  0  0  0  0
    5.5048  -15.5325   25.4368 C   0  0  0  0  0  0  0  0  0  0  0  0
    4.8291  -14.3580   25.4501 N   0  0  0  0  0  0  0  0  0  0  0  0
    5.6690  -13.3535   25.6917 C   0  0  0  0  0  0  0  0  0  0  0  0
    5.4306  -11.9996   25.8081 C   0  0  0  0  0  0  0  0  0  0  0  0
    6.4855  -11.1339   26.0845 C   0  0  0  0  0  0  0  0  0  0  0  0
    7.7414  -11.6566   26.2341 C   0  0  0  0  0  0  0  0  0  0  0  0
    7.9527  -13.0071   26.1128 C   0  0  0  0  0  0  0  0  0  0  0  0
    6.9327  -13.9015   25.8391 C   0  0  0  0  0  0  0  0  0  0  0  0
   10.4480  -16.4379   25.8517 C   0  0  0  0  0  0  0  0  0  0  0  0
   11.3040  -17.0050   25.1213 O   0  0  0  0  0  0  0  0  0  0  0  0
   10.7431  -16.4228   27.2345 N   0  0  0  0  0  0  0  0  0  0  0  0
    9.9211  -15.7843   28.2468 C   0  0  0  0  0  0  0  0  0  0  0  0
   10.9233  -15.1987   29.2310 C   0  0  0  0  0  0  0  0  0  0  0  0
   12.2502  -15.6924   28.7669 C   0  0  0  0  0  0  0  0  0  0  0  0
   11.8955  -16.9497   27.9402 C   0  0  1  0  0  0  0  0  0  0  0  0
   11.5851  -17.9805   28.9446 C   0  0  0  0  0  0  0  0  0  0  0  0
   10.2545  -18.3799   29.0567 O   0  0  0  0  0  0  0  0  0  0  0  0
   12.4067  -18.5292   29.7053 O   0  0  0  0  0  0  0  0  0  0  0  0
  1  2  1  0
  3  2  1  0
  4  3  1  0
  5  6  1  1
  5  4  1  0
  7  5  1  0
  8  7  2  0
  9  7  1  0
 10 21  1  0
 10  9  1  0
 11 12  1  0
 10 11  1  1
 12 13  2  0
 14 13  1  0
 15 14  1  0
 16 15  2  0
 17 16  1  0
 18 19  1  0
 18 17  2  0
 19 20  2  0
 20 15  1  0
 20 12  1  0
 21 22  2  0
 23 24  1  0
 23 21  1  0
 25 24  1  0
 26 27  1  0
 26 25  1  0
 27 23  1  0
 27 28  1  1
 28 29  1  0
 30 28  2  0
M  END
$$$$
