MWP.pdb
     RDKit          3D

 30 32  0  0  1  0  0  0  0  0999 V2000
    8.0448  -12.5819   18.1034 C   0  0  0  0  0  0  0  0  0  0  0  0
    8.5668  -13.9406   17.0203 S   0  0  0  0  0  0  0  0  0  0  0  0
    9.6554  -15.0953   17.9390 C   0  0  0  0  0  0  0  0  0  0  0  0
    9.7128  -14.6075   19.3643 C   0  0  0  0  0  0  0  0  0  0  0  0
   10.5212  -15.5400   20.2324 C   0  0  2  0  0  0  0  0  0  0  0  0
   10.1501  -16.9233   20.0329 N   0  0  0  0  0  0  0  0  0  0  0  0
   10.4284  -15.1693   21.6807 C   0  0  0  0  0  0  0  0  0  0  0  0
   10.9671  -14.0916   22.0308 O   0  0  0  0  0  0  0  0  0  0  0  0
    9.7743  -15.9705   22.6285 N   0  0  0  0  0  0  0  0  0  0  0  0
    9.4532  -15.5489   24.0099 C   0  0  1  0  0  0  0  0  0  0  0  0
    7.9806  -15.4652   24.0333 C   0  0  0  0  0  0  0  0  0  0  0  0
    7.2766  -14.9819   25.1919 C   0  0  0  0  0  0  0  0  0  0  0  0
    6.6293  -15.7098   26.1643 C   0  0  0  0  0  0  0  0  0  0  0  0
    6.0935  -14.8441   27.0586 N   0  0  0  0  0  0  0  0  0  0  0  0
    6.3703  -13.5920   26.7007 C   0  0  0  0  0  0  0  0  0  0  0  0
    6.0448  -12.3974   27.3094 C   0  0  0  0  0  0  0  0  0  0  0  0
    6.4679  -11.1969   26.7450 C   0  0  0  0  0  0  0  0  0  0  0  0
    7.2018  -11.2372   25.5906 C   0  0  0  0  0  0  0  0  0  0  0  0
    7.5120  -12.4384   25.0041 C   0  0  0  0  0  0  0  0  0  0  0  0
    7.1116  -13.6534   25.5321 C   0  0  0  0  0  0  0  0  0  0  0  0
   10.1340  -16.3615   25.0151 C   0  0  0  0  0  0  0  0  0  0  0  0
   10.7661  -17.3860   24.6430 O   0  0  0  0  0  0  0  0  0  0  0  0
   10.1663  -16.0985   26.4041 N   0  0  0  0  0  0  0  0  0  0  0  0
    9.3278  -15.1242   27.0793 C   0  0  0  0  0  0  0  0  0  0  0  0
   10.2335  -14.5210   28.1431 C   0  0  0  0  0  0  0  0  0  0  0  0
   11.4866  -15.3245   28.0806 C   0  0  0  0  0  0  0  0  0  0  0  0
   11.0298  -16.6506   27.4303 C   0  0  1  0  0  0  0  0  0  0  0  0
   10.3275  -17.3703   28.5056 C   0  0  0  0  0  0  0  0  0  0  0  0
    8.9690  -17.6220   28.3215 O   0  0  0  0  0  0  0  0  0  0  0  0
   10.8392  -17.7755   29.5681 O   0  0  0  0  0  0  0  0  0  0  0  0
  1  2  1  0
  3  2  1  0
  4  3  1  0
  5  6  1  1
  5  4  1  0
  7  5  1  0
  8  7  2  0
  9  7  1  0
 10 21  1  0
 10  9  1  0
 11 12  1  0
 10 11  1  1
 12 13  2  0
 14 13  1  0
 15 14  1  0
 16 15  2  0
 17 16  1  0
 18 19  1  0
 18 17  2  0
 19 20  2  0
 20 15  1  0
 20 12  1  0
 21 22  2  0
 23 24  1  0
 23 21  1  0
 25 24  1  0
 26 27  1  0
 26 25  1  0
 27 23  1  0
 27 28  1  1
 28 29  1  0
 30 28  2  0
M  END
$$$$
