MWP.pdb
     RDKit          3D

 30 32  0  0  1  0  0  0  0  0999 V2000
    7.7394  -12.3345   19.3045 C   0  0  0  0  0  0  0  0  0  0  0  0
    8.0875  -13.7436   18.2160 S   0  0  0  0  0  0  0  0  0  0  0  0
    8.7333  -15.1520   19.1966 C   0  0  0  0  0  0  0  0  0  0  0  0
    9.3486  -14.5743   20.4458 C   0  0  0  0  0  0  0  0  0  0  0  0
    9.9539  -15.6529   21.3099 C   0  0  2  0  0  0  0  0  0  0  0  0
    9.3109  -16.9324   21.1084 N   0  0  0  0  0  0  0  0  0  0  0  0
    9.9406  -15.2748   22.7592 C   0  0  0  0  0  0  0  0  0  0  0  0
   10.5577  -14.2317   23.0838 O   0  0  0  0  0  0  0  0  0  0  0  0
    9.2761  -16.0328   23.7350 N   0  0  0  0  0  0  0  0  0  0  0  0
    9.3311  -15.7673   25.1895 C   0  0  1  0  0  0  0  0  0  0  0  0
    7.9954  -16.1532   25.6821 C   0  0  0  0  0  0  0  0  0  0  0  0
    6.9028  -15.2164   25.6951 C   0  0  0  0  0  0  0  0  0  0  0  0
    5.5661  -15.4588   25.4740 C   0  0  0  0  0  0  0  0  0  0  0  0
    4.8984  -14.2835   25.5703 N   0  0  0  0  0  0  0  0  0  0  0  0
    5.7507  -13.2980   25.8443 C   0  0  0  0  0  0  0  0  0  0  0  0
    5.5239  -11.9515   26.0416 C   0  0  0  0  0  0  0  0  0  0  0  0
    6.5913  -11.1075   26.3369 C   0  0  0  0  0  0  0  0  0  0  0  0
    7.8474  -11.6436   26.4233 C   0  0  0  0  0  0  0  0  0  0  0  0
    8.0470  -12.9863   26.2220 C   0  0  0  0  0  0  0  0  0  0  0  0
    7.0144  -13.8594   25.9270 C   0  0  0  0  0  0  0  0  0  0  0  0
   10.5148  -16.3475   25.8194 C   0  0  0  0  0  0  0  0  0  0  0  0
   11.4188  -16.8306   25.0866 O   0  0  0  0  0  0  0  0  0  0  0  0
   10.7607  -16.4116   27.2104 N   0  0  0  0  0  0  0  0  0  0  0  0
    9.9086  -15.8217   28.2272 C   0  0  0  0  0  0  0  0  0  0  0  0
   10.8800  -15.3015   29.2769 C   0  0  0  0  0  0  0  0  0  0  0  0
   12.2184  -15.7823   28.8327 C   0  0  0  0  0  0  0  0  0  0  0  0
   11.8829  -16.9884   27.9257 C   0  0  1  0  0  0  0  0  0  0  0  0
   11.5286  -18.0698   28.8598 C   0  0  0  0  0  0  0  0  0  0  0  0
   12.5738  -18.6889   29.5431 O   0  0  0  0  0  0  0  0  0  0  0  0
   10.3757  -18.4827   29.0950 O   0  0  0  0  0  0  0  0  0  0  0  0
  1  2  1  0
  3  2  1  0
  4  3  1  0
  5  6  1  1
  5  4  1  0
  7  5  1  0
  8  7  2  0
  9  7  1  0
 10 21  1  0
 10  9  1  0
 11 12  1  0
 10 11  1  1
 12 13  2  0
 14 13  1  0
 15 14  1  0
 16 15  2  0
 17 16  1  0
 18 19  1  0
 18 17  2  0
 19 20  2  0
 20 15  1  0
 20 12  1  0
 21 22  2  0
 23 24  1  0
 23 21  1  0
 25 24  1  0
 26 27  1  0
 26 25  1  0
 27 23  1  0
 27 28  1  1
 28 29  1  0
 30 28  2  0
M  END
$$$$
