MWP.pdb
     RDKit          3D

 30 32  0  0  1  0  0  0  0  0999 V2000
    7.3926  -12.2293   19.6708 C   0  0  0  0  0  0  0  0  0  0  0  0
    8.9762  -12.9156   19.1114 S   0  0  0  0  0  0  0  0  0  0  0  0
    9.5522  -14.2044   20.2817 C   0  0  0  0  0  0  0  0  0  0  0  0
    8.4543  -15.2328   20.3805 C   0  0  0  0  0  0  0  0  0  0  0  0
    8.7789  -16.2861   21.4109 C   0  0  2  0  0  0  0  0  0  0  0  0
    7.8556  -17.3978   21.3580 N   0  0  0  0  0  0  0  0  0  0  0  0
    8.8376  -15.7105   22.7926 C   0  0  0  0  0  0  0  0  0  0  0  0
    8.5025  -14.5089   22.9262 O   0  0  0  0  0  0  0  0  0  0  0  0
    9.2447  -16.4567   23.9087 N   0  0  0  0  0  0  0  0  0  0  0  0
    9.4265  -15.9054   25.2696 C   0  0  1  0  0  0  0  0  0  0  0  0
    8.1413  -16.1670   25.9445 C   0  0  0  0  0  0  0  0  0  0  0  0
    7.0088  -15.2978   25.7610 C   0  0  0  0  0  0  0  0  0  0  0  0
    5.7536  -15.6160   25.2948 C   0  0  0  0  0  0  0  0  0  0  0  0
    5.0076  -14.4849   25.2734 N   0  0  0  0  0  0  0  0  0  0  0  0
    5.7318  -13.4550   25.7066 C   0  0  0  0  0  0  0  0  0  0  0  0
    5.3891  -12.1283   25.8672 C   0  0  0  0  0  0  0  0  0  0  0  0
    6.3290  -11.2271   26.3603 C   0  0  0  0  0  0  0  0  0  0  0  0
    7.5786  -11.6883   26.6743 C   0  0  0  0  0  0  0  0  0  0  0  0
    7.8951  -13.0128   26.5048 C   0  0  0  0  0  0  0  0  0  0  0  0
    6.9911  -13.9409   26.0182 C   0  0  0  0  0  0  0  0  0  0  0  0
   10.6639  -16.3627   25.8974 C   0  0  0  0  0  0  0  0  0  0  0  0
   11.5852  -16.8159   25.1672 O   0  0  0  0  0  0  0  0  0  0  0  0
   10.9445  -16.3349   27.2831 N   0  0  0  0  0  0  0  0  0  0  0  0
   10.0834  -15.7369   28.2877 C   0  0  0  0  0  0  0  0  0  0  0  0
   11.0473  -15.1056   29.2819 C   0  0  0  0  0  0  0  0  0  0  0  0
   12.4004  -15.5357   28.8304 C   0  0  0  0  0  0  0  0  0  0  0  0
   12.1135  -16.8076   27.9998 C   0  0  1  0  0  0  0  0  0  0  0  0
   11.8423  -17.8528   29.0005 C   0  0  0  0  0  0  0  0  0  0  0  0
   10.5294  -18.3086   29.1054 O   0  0  0  0  0  0  0  0  0  0  0  0
   12.6828  -18.3678   29.7642 O   0  0  0  0  0  0  0  0  0  0  0  0
  1  2  1  0
  3  2  1  0
  4  3  1  0
  5  6  1  1
  5  4  1  0
  7  5  1  0
  8  7  2  0
  9  7  1  0
 10 21  1  0
 10  9  1  0
 11 12  1  0
 10 11  1  1
 12 13  2  0
 14 13  1  0
 15 14  1  0
 16 15  2  0
 17 16  1  0
 18 19  1  0
 18 17  2  0
 19 20  2  0
 20 15  1  0
 20 12  1  0
 21 22  2  0
 23 24  1  0
 23 21  1  0
 25 24  1  0
 26 27  1  0
 26 25  1  0
 27 23  1  0
 27 28  1  1
 28 29  1  0
 30 28  2  0
M  END
$$$$
