MWP.pdb
     RDKit          3D

 30 32  0  0  1  0  0  0  0  0999 V2000
    8.0259  -21.7175   19.7436 C   0  0  0  0  0  0  0  0  0  0  0  0
    6.4835  -22.6446   19.9747 S   0  0  0  0  0  0  0  0  0  0  0  0
    5.6168  -22.0591   21.4807 C   0  0  0  0  0  0  0  0  0  0  0  0
    5.8217  -20.5674   21.5557 C   0  0  0  0  0  0  0  0  0  0  0  0
    5.2838  -20.0029   22.8475 C   0  0  2  0  0  0  0  0  0  0  0  0
    3.8640  -20.2369   22.9908 N   0  0  0  0  0  0  0  0  0  0  0  0
    5.5981  -18.5452   22.9888 C   0  0  0  0  0  0  0  0  0  0  0  0
    4.7236  -17.7317   22.6046 O   0  0  0  0  0  0  0  0  0  0  0  0
    6.8082  -18.0783   23.5238 N   0  0  0  0  0  0  0  0  0  0  0  0
    7.2979  -16.6869   23.4104 C   0  0  1  0  0  0  0  0  0  0  0  0
    7.7382  -16.3421   24.7754 C   0  0  0  0  0  0  0  0  0  0  0  0
    7.0257  -15.3768   25.5705 C   0  0  0  0  0  0  0  0  0  0  0  0
    5.7736  -15.4879   26.1309 C   0  0  0  0  0  0  0  0  0  0  0  0
    5.4953  -14.3337   26.7842 N   0  0  0  0  0  0  0  0  0  0  0  0
    6.5165  -13.4876   26.6664 C   0  0  0  0  0  0  0  0  0  0  0  0
    6.6833  -12.2147   27.1719 C   0  0  0  0  0  0  0  0  0  0  0  0
    7.8656  -11.5225   26.9236 C   0  0  0  0  0  0  0  0  0  0  0  0
    8.8380  -12.1311   26.1773 C   0  0  0  0  0  0  0  0  0  0  0  0
    8.6476  -13.3978   25.6851 C   0  0  0  0  0  0  0  0  0  0  0  0
    7.4885  -14.1201   25.9087 C   0  0  0  0  0  0  0  0  0  0  0  0
    8.2291  -16.5107   22.2985 C   0  0  0  0  0  0  0  0  0  0  0  0
    8.7487  -17.5310   21.7727 O   0  0  0  0  0  0  0  0  0  0  0  0
    8.6072  -15.2734   21.7279 N   0  0  0  0  0  0  0  0  0  0  0  0
    8.2795  -13.9732   22.2849 C   0  0  0  0  0  0  0  0  0  0  0  0
    7.9995  -13.1024   21.0686 C   0  0  0  0  0  0  0  0  0  0  0  0
    8.3451  -13.9563   19.8977 C   0  0  0  0  0  0  0  0  0  0  0  0
    9.3157  -15.0029   20.4916 C   0  0  1  0  0  0  0  0  0  0  0  0
   10.5880  -14.2804   20.6554 C   0  0  0  0  0  0  0  0  0  0  0  0
   11.0238  -14.0459   21.9584 O   0  0  0  0  0  0  0  0  0  0  0  0
   11.3120  -13.8584   19.7320 O   0  0  0  0  0  0  0  0  0  0  0  0
  1  2  1  0
  3  2  1  0
  4  3  1  0
  5  6  1  6
  5  4  1  0
  7  5  1  0
  8  7  2  0
  9  7  1  0
 10 21  1  0
 10  9  1  0
 11 12  1  0
 10 11  1  1
 12 13  2  0
 14 13  1  0
 15 14  1  0
 16 15  2  0
 17 16  1  0
 18 19  1  0
 18 17  2  0
 19 20  2  0
 20 15  1  0
 20 12  1  0
 21 22  2  0
 23 24  1  0
 23 21  1  0
 25 24  1  0
 26 27  1  0
 26 25  1  0
 27 23  1  0
 27 28  1  1
 28 29  1  0
 30 28  2  0
M  END
$$$$
