MWP.pdb
     RDKit          3D

 30 32  0  0  1  0  0  0  0  0999 V2000
    5.0374  -23.5351   26.3988 C   0  0  0  0  0  0  0  0  0  0  0  0
    5.4775  -22.0972   25.3837 S   0  0  0  0  0  0  0  0  0  0  0  0
    5.5177  -22.5664   23.6115 C   0  0  0  0  0  0  0  0  0  0  0  0
    5.9454  -21.3432   22.8410 C   0  0  0  0  0  0  0  0  0  0  0  0
    4.9944  -20.1930   23.0635 C   0  0  2  0  0  0  0  0  0  0  0  0
    3.8932  -20.2121   22.1263 N   0  0  0  0  0  0  0  0  0  0  0  0
    5.7018  -18.8733   23.0241 C   0  0  0  0  0  0  0  0  0  0  0  0
    6.0062  -18.4211   21.8940 O   0  0  0  0  0  0  0  0  0  0  0  0
    6.0234  -18.1499   24.1824 N   0  0  0  0  0  0  0  0  0  0  0  0
    6.8564  -16.9275   24.2077 C   0  0  1  0  0  0  0  0  0  0  0  0
    6.6485  -16.3716   25.5581 C   0  0  0  0  0  0  0  0  0  0  0  0
    7.4542  -15.2867   26.0534 C   0  0  0  0  0  0  0  0  0  0  0  0
    8.7659  -15.3164   26.4692 C   0  0  0  0  0  0  0  0  0  0  0  0
    9.1148  -14.0692   26.8679 N   0  0  0  0  0  0  0  0  0  0  0  0
    8.0821  -13.2410   26.7248 C   0  0  0  0  0  0  0  0  0  0  0  0
    7.9786  -11.8905   26.9872 C   0  0  0  0  0  0  0  0  0  0  0  0
    6.7795  -11.2284   26.7372 C   0  0  0  0  0  0  0  0  0  0  0  0
    5.7273  -11.9441   26.2334 C   0  0  0  0  0  0  0  0  0  0  0  0
    5.8554  -13.2869   25.9815 C   0  0  0  0  0  0  0  0  0  0  0  0
    7.0288  -13.9826   26.2155 C   0  0  0  0  0  0  0  0  0  0  0  0
    8.2198  -17.1701   23.7422 C   0  0  0  0  0  0  0  0  0  0  0  0
    8.7148  -18.3203   23.8822 O   0  0  0  0  0  0  0  0  0  0  0  0
    9.0603  -16.2182   23.1201 N   0  0  0  0  0  0  0  0  0  0  0  0
    8.7416  -14.8098   22.9688 C   0  0  0  0  0  0  0  0  0  0  0  0
    9.2950  -14.4437   21.5992 C   0  0  0  0  0  0  0  0  0  0  0  0
   10.0276  -15.6587   21.1442 C   0  0  0  0  0  0  0  0  0  0  0  0
   10.3397  -16.4035   22.4625 C   0  0  1  0  0  0  0  0  0  0  0  0
   11.4550  -15.6511   23.0604 C   0  0  0  0  0  0  0  0  0  0  0  0
   12.7227  -15.8532   22.5177 O   0  0  0  0  0  0  0  0  0  0  0  0
   11.3675  -14.8482   24.0105 O   0  0  0  0  0  0  0  0  0  0  0  0
  1  2  1  0
  3  2  1  0
  4  3  1  0
  5  6  1  6
  5  4  1  0
  7  5  1  0
  8  7  2  0
  9  7  1  0
 10 21  1  0
 10  9  1  0
 11 12  1  0
 10 11  1  1
 12 13  2  0
 14 13  1  0
 15 14  1  0
 16 15  2  0
 17 16  1  0
 18 19  1  0
 18 17  2  0
 19 20  2  0
 20 15  1  0
 20 12  1  0
 21 22  2  0
 23 24  1  0
 23 21  1  0
 25 24  1  0
 26 27  1  0
 26 25  1  0
 27 23  1  0
 27 28  1  1
 28 29  1  0
 30 28  2  0
M  END
$$$$
