YPR.pdb
     RDKit          3D

 31 32  0  0  1  0  0  0  0  0999 V2000
   19.5109  -14.9613  -15.3280 O   0  0  0  0  0  0  0  0  0  0  0  0
   19.6600  -16.2662  -14.8761 C   0  0  0  0  0  0  0  0  0  0  0  0
   19.5388  -16.5602  -13.5565 C   0  0  0  0  0  0  0  0  0  0  0  0
   19.6916  -17.8585  -13.1433 C   0  0  0  0  0  0  0  0  0  0  0  0
   19.9636  -18.8676  -14.0291 C   0  0  0  0  0  0  0  0  0  0  0  0
   20.1185  -20.2552  -13.5211 C   0  0  0  0  0  0  0  0  0  0  0  0
   21.4912  -20.4656  -12.9073 C   0  0  2  0  0  0  0  0  0  0  0  0
   22.4067  -20.8127  -13.9318 N   0  0  0  0  0  0  0  0  0  0  0  0
   21.4646  -21.3151  -11.7178 C   0  0  0  0  0  0  0  0  0  0  0  0
   21.8851  -22.5202  -11.8518 O   0  0  0  0  0  0  0  0  0  0  0  0
   20.0869  -18.5777  -15.3633 C   0  0  0  0  0  0  0  0  0  0  0  0
   19.9339  -17.2714  -15.7811 C   0  0  0  0  0  0  0  0  0  0  0  0
   21.0206  -20.9524  -10.4229 N   0  0  0  0  0  0  0  0  0  0  0  0
   20.4305  -19.7416   -9.9234 C   0  0  0  0  0  0  0  0  0  0  0  0
   21.1074  -19.5906   -8.5738 C   0  0  0  0  0  0  0  0  0  0  0  0
   21.5526  -20.9570   -8.1684 C   0  0  0  0  0  0  0  0  0  0  0  0
   21.0907  -21.8386   -9.2723 C   0  0  1  0  0  0  0  0  0  0  0  0
   19.7751  -22.4173   -8.9388 C   0  0  0  0  0  0  0  0  0  0  0  0
   18.6993  -21.8924   -9.3743 O   0  0  0  0  0  0  0  0  0  0  0  0
   16.5940  -27.9080   -3.0154 N   0  0  0  0  0  0  0  0  0  0  0  0
   17.8245  -28.2877   -3.6176 C   0  0  0  0  0  0  0  0  0  0  0  0
   18.2394  -29.4963   -3.3646 N   0  0  0  0  0  0  0  0  0  0  0  0
   18.5800  -27.4079   -4.4588 N   0  0  0  0  0  0  0  0  0  0  0  0
   18.0196  -26.1021   -4.7495 C   0  0  0  0  0  0  0  0  0  0  0  0
   18.8328  -25.3197   -5.7158 C   0  0  0  0  0  0  0  0  0  0  0  0
   18.5341  -25.5125   -7.1553 C   0  0  0  0  0  0  0  0  0  0  0  0
   18.3933  -24.2789   -7.9775 C   0  0  2  0  0  0  0  0  0  0  0  0
   19.6599  -23.5691   -8.1298 N   0  0  0  0  0  0  0  0  0  0  0  0
   17.4587  -23.3038   -7.2976 C   0  0  0  0  0  0  0  0  0  0  0  0
   17.9350  -22.4446   -6.5146 O   0  0  0  0  0  0  0  0  0  0  0  0
   16.0903  -23.3124   -7.4975 O   0  0  0  0  0  0  0  0  0  0  0  0
  2  1  1  0
  3  2  2  0
  4  3  1  0
  5  4  2  0
  5 11  1  0
  6  5  1  0
  7  8  1  6
  7  6  1  0
  9  7  1  0
 10  9  2  0
 11 12  2  0
 12  2  1  0
 13  9  1  0
 13 14  1  0
 14 15  1  0
 16 17  1  0
 16 15  1  0
 17 13  1  0
 17 18  1  1
 19 18  2  0
 20 21  1  0
 21 22  2  0
 23 24  1  0
 23 21  1  0
 24 25  1  0
 26 25  1  0
 27 26  1  1
 27 28  1  0
 28 18  1  0
 29 27  1  0
 29 31  1  0
 30 29  2  0
M  END
$$$$
