YPR.pdb
     RDKit          3D

 31 32  0  0  1  0  0  0  0  0999 V2000
   26.2010  -15.1831  -24.7495 O   0  0  0  0  0  0  0  0  0  0  0  0
   25.9952  -15.8762  -23.5635 C   0  0  0  0  0  0  0  0  0  0  0  0
   24.8220  -15.7637  -22.8902 C   0  0  0  0  0  0  0  0  0  0  0  0
   24.6509  -16.4614  -21.7225 C   0  0  0  0  0  0  0  0  0  0  0  0
   25.6347  -17.2701  -21.2175 C   0  0  0  0  0  0  0  0  0  0  0  0
   25.3904  -18.0012  -19.9473 C   0  0  0  0  0  0  0  0  0  0  0  0
   25.6773  -17.1219  -18.7433 C   0  0  2  0  0  0  0  0  0  0  0  0
   27.0456  -16.7533  -18.7563 N   0  0  0  0  0  0  0  0  0  0  0  0
   25.1422  -17.6639  -17.4954 C   0  0  0  0  0  0  0  0  0  0  0  0
   25.9675  -18.2682  -16.7203 O   0  0  0  0  0  0  0  0  0  0  0  0
   26.8219  -17.3887  -21.8927 C   0  0  0  0  0  0  0  0  0  0  0  0
   26.9962  -16.6868  -23.0680 C   0  0  0  0  0  0  0  0  0  0  0  0
   23.8016  -17.5966  -17.0441 N   0  0  0  0  0  0  0  0  0  0  0  0
   22.6214  -17.0413  -17.6461 C   0  0  0  0  0  0  0  0  0  0  0  0
   21.9333  -16.3932  -16.4591 C   0  0  0  0  0  0  0  0  0  0  0  0
   22.4329  -17.1003  -15.2425 C   0  0  0  0  0  0  0  0  0  0  0  0
   23.3543  -18.1395  -15.7716 C   0  0  1  0  0  0  0  0  0  0  0  0
   22.6332  -19.4159  -15.9375 C   0  0  0  0  0  0  0  0  0  0  0  0
   21.3919  -19.4346  -16.2228 O   0  0  0  0  0  0  0  0  0  0  0  0
   25.0742  -19.7681   -9.3355 N   0  0  0  0  0  0  0  0  0  0  0  0
   24.8981  -21.1670   -9.1534 C   0  0  0  0  0  0  0  0  0  0  0  0
   24.4521  -21.5433   -7.9888 N   0  0  0  0  0  0  0  0  0  0  0  0
   25.1869  -22.1248  -10.1789 N   0  0  0  0  0  0  0  0  0  0  0  0
   25.3859  -21.6324  -11.5286 C   0  0  0  0  0  0  0  0  0  0  0  0
   24.1633  -21.0250  -12.1147 C   0  0  0  0  0  0  0  0  0  0  0  0
   24.2393  -20.5988  -13.5329 C   0  0  0  0  0  0  0  0  0  0  0  0
   23.3732  -21.3329  -14.4965 C   0  0  2  0  0  0  0  0  0  0  0  0
   23.2885  -20.6579  -15.7883 N   0  0  0  0  0  0  0  0  0  0  0  0
   21.9547  -21.3978  -13.9767 C   0  0  0  0  0  0  0  0  0  0  0  0
   21.2849  -20.3384  -13.8927 O   0  0  0  0  0  0  0  0  0  0  0  0
   21.3527  -22.5794  -13.5846 O   0  0  0  0  0  0  0  0  0  0  0  0
  2  1  1  0
  3  2  2  0
  4  3  1  0
  5  4  2  0
  5 11  1  0
  6  5  1  0
  7  8  1  1
  7  6  1  0
  9  7  1  0
 10  9  2  0
 11 12  2  0
 12  2  1  0
 13  9  1  0
 13 14  1  0
 14 15  1  0
 16 17  1  0
 16 15  1  0
 17 13  1  0
 17 18  1  6
 19 18  2  0
 20 21  1  0
 21 22  2  0
 23 24  1  0
 23 21  1  0
 24 25  1  0
 26 25  1  0
 27 26  1  1
 27 28  1  0
 28 18  1  0
 29 27  1  0
 29 31  1  0
 30 29  2  0
M  END
$$$$
