YPR.pdb
     RDKit          3D

 31 32  0  0  1  0  0  0  0  0999 V2000
   29.2991  -14.6709  -18.6828 O   0  0  0  0  0  0  0  0  0  0  0  0
   28.5767  -15.8000  -18.3187 C   0  0  0  0  0  0  0  0  0  0  0  0
   28.2125  -16.7189  -19.2490 C   0  0  0  0  0  0  0  0  0  0  0  0
   27.4999  -17.8225  -18.8565 C   0  0  0  0  0  0  0  0  0  0  0  0
   27.1458  -18.0217  -17.5482 C   0  0  0  0  0  0  0  0  0  0  0  0
   26.3732  -19.2373  -17.1839 C   0  0  0  0  0  0  0  0  0  0  0  0
   27.2958  -20.3786  -16.7945 C   0  0  2  0  0  0  0  0  0  0  0  0
   27.5157  -21.2013  -17.9272 N   0  0  0  0  0  0  0  0  0  0  0  0
   26.8981  -21.0410  -15.5534 C   0  0  0  0  0  0  0  0  0  0  0  0
   26.1714  -22.0934  -15.6606 O   0  0  0  0  0  0  0  0  0  0  0  0
   27.5108  -17.0977  -16.6034 C   0  0  0  0  0  0  0  0  0  0  0  0
   28.2277  -15.9861  -16.9965 C   0  0  0  0  0  0  0  0  0  0  0  0
   27.2276  -20.6454  -14.2342 N   0  0  0  0  0  0  0  0  0  0  0  0
   27.9730  -19.5232  -13.7353 C   0  0  0  0  0  0  0  0  0  0  0  0
   28.7753  -20.1490  -12.6096 C   0  0  0  0  0  0  0  0  0  0  0  0
   28.0271  -21.3692  -12.1842 C   0  0  0  0  0  0  0  0  0  0  0  0
   26.8184  -21.3814  -13.0490 C   0  0  1  0  0  0  0  0  0  0  0  0
   25.6935  -20.7280  -12.3530 C   0  0  0  0  0  0  0  0  0  0  0  0
   25.5266  -19.4668  -12.4183 O   0  0  0  0  0  0  0  0  0  0  0  0
   18.6883  -23.9641   -8.8760 N   0  0  0  0  0  0  0  0  0  0  0  0
   18.2910  -23.7370  -10.2219 C   0  0  0  0  0  0  0  0  0  0  0  0
   17.1841  -24.3110  -10.5990 N   0  0  0  0  0  0  0  0  0  0  0  0
   19.0488  -22.9260  -11.1277 N   0  0  0  0  0  0  0  0  0  0  0  0
   20.1856  -22.1986  -10.5962 C   0  0  0  0  0  0  0  0  0  0  0  0
   20.9585  -21.4788  -11.6411 C   0  0  0  0  0  0  0  0  0  0  0  0
   22.3662  -21.8985  -11.8431 C   0  0  0  0  0  0  0  0  0  0  0  0
   23.4165  -20.9775  -11.3271 C   0  0  2  0  0  0  0  0  0  0  0  0
   24.7641  -21.4720  -11.5934 N   0  0  0  0  0  0  0  0  0  0  0  0
   23.3145  -20.8620   -9.8228 C   0  0  0  0  0  0  0  0  0  0  0  0
   24.0423  -21.5899   -9.1027 O   0  0  0  0  0  0  0  0  0  0  0  0
   22.4493  -19.9850   -9.1947 O   0  0  0  0  0  0  0  0  0  0  0  0
  2  1  1  0
  3  2  2  0
  4  3  1  0
  5  4  2  0
  5 11  1  0
  6  5  1  0
  7  8  1  6
  7  6  1  0
  9  7  1  0
 10  9  2  0
 11 12  2  0
 12  2  1  0
 13  9  1  0
 13 14  1  0
 14 15  1  0
 16 17  1  0
 16 15  1  0
 17 13  1  0
 17 18  1  1
 19 18  2  0
 20 21  1  0
 21 22  2  0
 23 24  1  0
 23 21  1  0
 24 25  1  0
 26 25  1  0
 27 26  1  1
 27 28  1  0
 28 18  1  0
 29 27  1  0
 29 31  1  0
 30 29  2  0
M  END
$$$$
