YPR.pdb
     RDKit          3D

 31 32  0  0  1  0  0  0  0  0999 V2000
   23.5980  -11.4921  -18.5542 O   0  0  0  0  0  0  0  0  0  0  0  0
   23.7450  -12.6976  -17.8801 C   0  0  0  0  0  0  0  0  0  0  0  0
   22.7342  -13.6031  -17.8519 C   0  0  0  0  0  0  0  0  0  0  0  0
   22.9117  -14.7836  -17.1777 C   0  0  0  0  0  0  0  0  0  0  0  0
   24.0843  -15.0729  -16.5311 C   0  0  0  0  0  0  0  0  0  0  0  0
   24.2171  -16.3691  -15.8172 C   0  0  0  0  0  0  0  0  0  0  0  0
   24.8587  -17.4215  -16.7037 C   0  0  2  0  0  0  0  0  0  0  0  0
   24.0279  -17.6456  -17.8297 N   0  0  0  0  0  0  0  0  0  0  0  0
   25.3133  -18.5972  -15.9631 C   0  0  0  0  0  0  0  0  0  0  0  0
   24.5151  -19.6010  -15.9146 O   0  0  0  0  0  0  0  0  0  0  0  0
   25.1094  -14.1630  -16.5558 C   0  0  0  0  0  0  0  0  0  0  0  0
   24.9325  -12.9740  -17.2336 C   0  0  0  0  0  0  0  0  0  0  0  0
   26.5474  -18.7516  -15.2858 N   0  0  0  0  0  0  0  0  0  0  0  0
   27.6909  -17.8882  -15.1825 C   0  0  0  0  0  0  0  0  0  0  0  0
   28.8423  -18.8709  -15.2871 C   0  0  0  0  0  0  0  0  0  0  0  0
   28.3062  -20.1978  -14.8611 C   0  0  0  0  0  0  0  0  0  0  0  0
   26.8906  -19.9253  -14.4994 C   0  0  1  0  0  0  0  0  0  0  0  0
   26.7801  -19.6719  -13.0501 C   0  0  0  0  0  0  0  0  0  0  0  0
   27.0008  -18.5132  -12.5691 O   0  0  0  0  0  0  0  0  0  0  0  0
   19.7740  -22.5291  -11.7114 N   0  0  0  0  0  0  0  0  0  0  0  0
   19.4943  -21.3268  -11.0063 C   0  0  0  0  0  0  0  0  0  0  0  0
   18.4396  -21.3409  -10.2420 N   0  0  0  0  0  0  0  0  0  0  0  0
   20.3130  -20.1561  -11.1147 N   0  0  0  0  0  0  0  0  0  0  0  0
   21.4766  -20.2211  -11.9782 C   0  0  0  0  0  0  0  0  0  0  0  0
   22.7450  -20.4316  -11.2338 C   0  0  0  0  0  0  0  0  0  0  0  0
   23.9998  -20.3983  -12.0231 C   0  0  0  0  0  0  0  0  0  0  0  0
   25.2685  -20.5824  -11.2654 C   0  0  2  0  0  0  0  0  0  0  0  0
   26.4265  -20.6983  -12.1469 N   0  0  0  0  0  0  0  0  0  0  0  0
   25.2232  -21.8738  -10.4800 C   0  0  0  0  0  0  0  0  0  0  0  0
   25.0701  -21.8270   -9.2341 O   0  0  0  0  0  0  0  0  0  0  0  0
   25.3441  -23.1172  -11.0731 O   0  0  0  0  0  0  0  0  0  0  0  0
  2  1  1  0
  3  2  2  0
  4  3  1  0
  5  4  2  0
  5 11  1  0
  6  5  1  0
  7  8  1  6
  7  6  1  0
  9  7  1  0
 10  9  2  0
 11 12  2  0
 12  2  1  0
 13  9  1  0
 13 14  1  0
 14 15  1  0
 16 17  1  0
 16 15  1  0
 17 13  1  0
 17 18  1  1
 19 18  2  0
 20 21  1  0
 21 22  2  0
 23 24  1  0
 23 21  1  0
 24 25  1  0
 26 25  1  0
 27 26  1  6
 27 28  1  0
 28 18  1  0
 29 27  1  0
 29 31  1  0
 30 29  2  0
M  END
$$$$
