YPR.pdb
     RDKit          3D

 31 32  0  0  1  0  0  0  0  0999 V2000
   22.1377  -12.9633  -19.4582 O   0  0  0  0  0  0  0  0  0  0  0  0
   22.3956  -14.1505  -18.7848 C   0  0  0  0  0  0  0  0  0  0  0  0
   23.3474  -14.2061  -17.8186 C   0  0  0  0  0  0  0  0  0  0  0  0
   23.5771  -15.3935  -17.1730 C   0  0  0  0  0  0  0  0  0  0  0  0
   22.8699  -16.5264  -17.4783 C   0  0  0  0  0  0  0  0  0  0  0  0
   23.1642  -17.7840  -16.7439 C   0  0  0  0  0  0  0  0  0  0  0  0
   24.3949  -18.4733  -17.3056 C   0  0  2  0  0  0  0  0  0  0  0  0
   24.0539  -19.1022  -18.5289 N   0  0  0  0  0  0  0  0  0  0  0  0
   25.1049  -19.2794  -16.3140 C   0  0  0  0  0  0  0  0  0  0  0  0
   24.7674  -20.5137  -16.2154 O   0  0  0  0  0  0  0  0  0  0  0  0
   21.9070  -16.4772  -18.4529 C   0  0  0  0  0  0  0  0  0  0  0  0
   21.6746  -15.2831  -19.1042 C   0  0  0  0  0  0  0  0  0  0  0  0
   26.1318  -18.8445  -15.4412 N   0  0  0  0  0  0  0  0  0  0  0  0
   26.7748  -17.5689  -15.2890 C   0  0  0  0  0  0  0  0  0  0  0  0
   28.2236  -17.9661  -15.0750 C   0  0  0  0  0  0  0  0  0  0  0  0
   28.2062  -19.3641  -14.5507 C   0  0  0  0  0  0  0  0  0  0  0  0
   26.7625  -19.7035  -14.4521 C   0  0  1  0  0  0  0  0  0  0  0  0
   26.2719  -19.4293  -13.0879 C   0  0  0  0  0  0  0  0  0  0  0  0
   26.1876  -18.2362  -12.6497 O   0  0  0  0  0  0  0  0  0  0  0  0
   19.0259  -22.6881  -13.0274 N   0  0  0  0  0  0  0  0  0  0  0  0
   20.1202  -23.5352  -13.3526 C   0  0  0  0  0  0  0  0  0  0  0  0
   19.8315  -24.6170  -14.0183 N   0  0  0  0  0  0  0  0  0  0  0  0
   21.4706  -23.2346  -12.9806 N   0  0  0  0  0  0  0  0  0  0  0  0
   21.7436  -21.9234  -12.4237 C   0  0  0  0  0  0  0  0  0  0  0  0
   23.1559  -21.7537  -11.9950 C   0  0  0  0  0  0  0  0  0  0  0  0
   23.5456  -20.4183  -11.4816 C   0  0  0  0  0  0  0  0  0  0  0  0
   24.9741  -20.2423  -11.0995 C   0  0  2  0  0  0  0  0  0  0  0  0
   25.8785  -20.4732  -12.2220 N   0  0  0  0  0  0  0  0  0  0  0  0
   25.3610  -21.2584  -10.0485 C   0  0  0  0  0  0  0  0  0  0  0  0
   26.0808  -22.2341  -10.3768 O   0  0  0  0  0  0  0  0  0  0  0  0
   24.9560  -21.1649   -8.7296 O   0  0  0  0  0  0  0  0  0  0  0  0
  2  1  1  0
  3  2  2  0
  4  3  1  0
  5  4  2  0
  5 11  1  0
  6  5  1  0
  7  8  1  6
  7  6  1  0
  9  7  1  0
 10  9  2  0
 11 12  2  0
 12  2  1  0
 13  9  1  0
 13 14  1  0
 14 15  1  0
 16 17  1  0
 16 15  1  0
 17 13  1  0
 17 18  1  1
 19 18  2  0
 20 21  1  0
 21 22  2  0
 23 24  1  0
 23 21  1  0
 24 25  1  0
 26 25  1  0
 27 26  1  6
 27 28  1  0
 28 18  1  0
 29 27  1  0
 29 31  1  0
 30 29  2  0
M  END
$$$$
