YPR.pdb
     RDKit          3D

 31 32  0  0  1  0  0  0  0  0999 V2000
   30.6257  -15.4857  -19.4168 O   0  0  0  0  0  0  0  0  0  0  0  0
   29.8998  -16.3069  -18.5636 C   0  0  0  0  0  0  0  0  0  0  0  0
   28.6001  -16.5994  -18.8234 C   0  0  0  0  0  0  0  0  0  0  0  0
   27.9120  -17.4134  -17.9611 C   0  0  0  0  0  0  0  0  0  0  0  0
   28.5032  -17.9396  -16.8429 C   0  0  0  0  0  0  0  0  0  0  0  0
   27.7059  -18.8154  -15.9459 C   0  0  0  0  0  0  0  0  0  0  0  0
   28.2871  -20.2168  -15.8873 C   0  0  2  0  0  0  0  0  0  0  0  0
   28.2288  -20.7952  -17.1796 N   0  0  0  0  0  0  0  0  0  0  0  0
   27.7649  -21.0093  -14.7753 C   0  0  0  0  0  0  0  0  0  0  0  0
   26.9981  -21.9952  -15.0708 O   0  0  0  0  0  0  0  0  0  0  0  0
   29.8158  -17.6485  -16.5747 C   0  0  0  0  0  0  0  0  0  0  0  0
   30.5100  -16.8290  -17.4412 C   0  0  0  0  0  0  0  0  0  0  0  0
   28.0124  -20.8067  -13.3958 N   0  0  0  0  0  0  0  0  0  0  0  0
   28.7800  -19.8095  -12.7030 C   0  0  0  0  0  0  0  0  0  0  0  0
   29.4541  -20.6252  -11.6154 C   0  0  0  0  0  0  0  0  0  0  0  0
   28.6055  -21.8360  -11.4072 C   0  0  0  0  0  0  0  0  0  0  0  0
   27.4696  -21.6573  -12.3489 C   0  0  1  0  0  0  0  0  0  0  0  0
   26.3333  -21.0226  -11.6540 C   0  0  0  0  0  0  0  0  0  0  0  0
   26.2929  -19.7612  -11.4816 O   0  0  0  0  0  0  0  0  0  0  0  0
   18.4563  -24.2586  -10.0312 N   0  0  0  0  0  0  0  0  0  0  0  0
   18.1335  -23.1115  -10.8063 C   0  0  0  0  0  0  0  0  0  0  0  0
   16.9109  -22.6740  -10.7036 N   0  0  0  0  0  0  0  0  0  0  0  0
   19.0833  -22.4582  -11.6569 N   0  0  0  0  0  0  0  0  0  0  0  0
   20.4435  -22.9617  -11.6651 C   0  0  0  0  0  0  0  0  0  0  0  0
   21.4562  -21.9127  -11.3800 C   0  0  0  0  0  0  0  0  0  0  0  0
   22.8790  -22.3296  -11.4021 C   0  0  0  0  0  0  0  0  0  0  0  0
   23.8888  -21.2668  -11.1406 C   0  0  2  0  0  0  0  0  0  0  0  0
   25.2534  -21.7853  -11.1577 N   0  0  0  0  0  0  0  0  0  0  0  0
   23.6897  -20.6884   -9.7577 C   0  0  0  0  0  0  0  0  0  0  0  0
   22.7300  -19.9035   -9.5553 O   0  0  0  0  0  0  0  0  0  0  0  0
   24.5221  -20.9842   -8.6938 O   0  0  0  0  0  0  0  0  0  0  0  0
  2  1  1  0
  3  2  2  0
  4  3  1  0
  5  4  2  0
  5 11  1  0
  6  5  1  0
  7  8  1  6
  7  6  1  0
  9  7  1  0
 10  9  2  0
 11 12  2  0
 12  2  1  0
 13  9  1  0
 13 14  1  0
 14 15  1  0
 16 17  1  0
 16 15  1  0
 17 13  1  0
 17 18  1  1
 19 18  2  0
 20 21  1  0
 21 22  2  0
 23 24  1  0
 23 21  1  0
 24 25  1  0
 26 25  1  0
 27 26  1  1
 27 28  1  0
 28 18  1  0
 29 27  1  0
 29 31  1  0
 30 29  2  0
M  END
$$$$
