YPR.pdb
     RDKit          3D

 31 32  0  0  1  0  0  0  0  0999 V2000
   27.1699  -15.6358  -17.6128 O   0  0  0  0  0  0  0  0  0  0  0  0
   26.4374  -16.4565  -16.7647 C   0  0  0  0  0  0  0  0  0  0  0  0
   26.7209  -16.5113  -15.4384 C   0  0  0  0  0  0  0  0  0  0  0  0
   25.9785  -17.3316  -14.6287 C   0  0  0  0  0  0  0  0  0  0  0  0
   24.9571  -18.0982  -15.1245 C   0  0  0  0  0  0  0  0  0  0  0  0
   24.1882  -18.9679  -14.1972 C   0  0  0  0  0  0  0  0  0  0  0  0
   24.9933  -20.1912  -13.7966 C   0  0  2  0  0  0  0  0  0  0  0  0
   25.4597  -20.8404  -14.9668 N   0  0  0  0  0  0  0  0  0  0  0  0
   24.3220  -21.0181  -12.7952 C   0  0  0  0  0  0  0  0  0  0  0  0
   23.8746  -22.1567  -13.1833 O   0  0  0  0  0  0  0  0  0  0  0  0
   24.6652  -18.0474  -16.4631 C   0  0  0  0  0  0  0  0  0  0  0  0
   25.4115  -17.2226  -17.2798 C   0  0  0  0  0  0  0  0  0  0  0  0
   24.1075  -20.6981  -11.4324 N   0  0  0  0  0  0  0  0  0  0  0  0
   24.4827  -19.5507  -10.6538 C   0  0  0  0  0  0  0  0  0  0  0  0
   24.8995  -20.1813   -9.3380 C   0  0  0  0  0  0  0  0  0  0  0  0
   24.2033  -21.5000   -9.2614 C   0  0  0  0  0  0  0  0  0  0  0  0
   23.3946  -21.5635  -10.5068 C   0  0  1  0  0  0  0  0  0  0  0  0
   22.0246  -21.0830  -10.2437 C   0  0  0  0  0  0  0  0  0  0  0  0
   21.6317  -19.9529  -10.6808 O   0  0  0  0  0  0  0  0  0  0  0  0
   17.4976  -26.8465   -5.5607 N   0  0  0  0  0  0  0  0  0  0  0  0
   16.7392  -25.6602   -5.7562 C   0  0  0  0  0  0  0  0  0  0  0  0
   15.5970  -25.5990   -5.1328 N   0  0  0  0  0  0  0  0  0  0  0  0
   17.1871  -24.5814   -6.5857 N   0  0  0  0  0  0  0  0  0  0  0  0
   18.2750  -24.8435   -7.5086 C   0  0  0  0  0  0  0  0  0  0  0  0
   18.6809  -23.6457   -8.2880 C   0  0  0  0  0  0  0  0  0  0  0  0
   19.6913  -23.8493   -9.3539 C   0  0  0  0  0  0  0  0  0  0  0  0
   20.0666  -22.6506  -10.1539 C   0  0  2  0  0  0  0  0  0  0  0  0
   21.1023  -21.8540   -9.5026 N   0  0  0  0  0  0  0  0  0  0  0  0
   18.8764  -21.7295  -10.3014 C   0  0  0  0  0  0  0  0  0  0  0  0
   17.9770  -22.0199  -11.1288 O   0  0  0  0  0  0  0  0  0  0  0  0
   18.7287  -20.5702   -9.5620 O   0  0  0  0  0  0  0  0  0  0  0  0
  2  1  1  0
  3  2  2  0
  4  3  1  0
  5  4  2  0
  5 11  1  0
  6  5  1  0
  7  8  1  6
  7  6  1  0
  9  7  1  0
 10  9  2  0
 11 12  2  0
 12  2  1  0
 13  9  1  0
 13 14  1  0
 14 15  1  0
 16 17  1  0
 16 15  1  0
 17 13  1  0
 17 18  1  1
 19 18  2  0
 20 21  1  0
 21 22  2  0
 23 24  1  0
 23 21  1  0
 24 25  1  0
 26 25  1  0
 27 26  1  1
 27 28  1  0
 28 18  1  0
 29 27  1  0
 29 31  1  0
 30 29  2  0
M  END
$$$$
