YPR.pdb
     RDKit          3D

 31 32  0  0  1  0  0  0  0  0999 V2000
   19.8230  -17.5168  -15.5650 O   0  0  0  0  0  0  0  0  0  0  0  0
   21.0988  -17.7550  -16.0599 C   0  0  0  0  0  0  0  0  0  0  0  0
   21.2945  -18.0025  -17.3801 C   0  0  0  0  0  0  0  0  0  0  0  0
   22.5666  -18.2335  -17.8363 C   0  0  0  0  0  0  0  0  0  0  0  0
   23.6462  -18.2208  -16.9930 C   0  0  0  0  0  0  0  0  0  0  0  0
   25.0007  -18.4783  -17.5465 C   0  0  0  0  0  0  0  0  0  0  0  0
   25.3134  -19.9639  -17.5651 C   0  0  2  0  0  0  0  0  0  0  0  0
   24.3954  -20.6182  -18.4237 N   0  0  0  0  0  0  0  0  0  0  0  0
   25.4997  -20.5287  -16.2296 C   0  0  0  0  0  0  0  0  0  0  0  0
   24.6476  -21.4072  -15.8434 O   0  0  0  0  0  0  0  0  0  0  0  0
   23.4556  -17.9712  -15.6585 C   0  0  0  0  0  0  0  0  0  0  0  0
   22.1760  -17.7389  -15.1973 C   0  0  0  0  0  0  0  0  0  0  0  0
   26.5247  -20.2095  -15.3060 N   0  0  0  0  0  0  0  0  0  0  0  0
   27.5383  -19.1917  -15.3234 C   0  0  0  0  0  0  0  0  0  0  0  0
   28.7445  -19.9342  -14.7793 C   0  0  0  0  0  0  0  0  0  0  0  0
   28.2124  -21.0752  -13.9765 C   0  0  0  0  0  0  0  0  0  0  0  0
   26.7357  -20.9286  -14.0601 C   0  0  1  0  0  0  0  0  0  0  0  0
   26.2369  -20.1741  -12.8945 C   0  0  0  0  0  0  0  0  0  0  0  0
   26.3695  -18.9090  -12.8276 O   0  0  0  0  0  0  0  0  0  0  0  0
   20.8449  -21.6132  -15.0008 N   0  0  0  0  0  0  0  0  0  0  0  0
   20.4357  -22.2506  -13.7978 C   0  0  0  0  0  0  0  0  0  0  0  0
   19.5029  -23.1524  -13.9139 N   0  0  0  0  0  0  0  0  0  0  0  0
   21.0043  -21.9354  -12.5212 N   0  0  0  0  0  0  0  0  0  0  0  0
   21.9919  -20.8747  -12.4631 C   0  0  0  0  0  0  0  0  0  0  0  0
   22.6222  -20.7365  -11.1249 C   0  0  0  0  0  0  0  0  0  0  0  0
   23.6216  -19.6532  -10.9625 C   0  0  0  0  0  0  0  0  0  0  0  0
   25.0251  -20.0756  -10.6989 C   0  0  2  0  0  0  0  0  0  0  0  0
   25.5962  -20.8223  -11.8158 N   0  0  0  0  0  0  0  0  0  0  0  0
   25.0725  -21.0142   -9.5142 C   0  0  0  0  0  0  0  0  0  0  0  0
   25.3714  -22.2200   -9.7008 O   0  0  0  0  0  0  0  0  0  0  0  0
   24.7995  -20.6054   -8.2217 O   0  0  0  0  0  0  0  0  0  0  0  0
  2  1  1  0
  3  2  2  0
  4  3  1  0
  5  4  2  0
  5 11  1  0
  6  5  1  0
  7  8  1  1
  7  6  1  0
  9  7  1  0
 10  9  2  0
 11 12  2  0
 12  2  1  0
 13  9  1  0
 13 14  1  0
 14 15  1  0
 16 17  1  0
 16 15  1  0
 17 13  1  0
 17 18  1  1
 19 18  2  0
 20 21  1  0
 21 22  2  0
 23 24  1  0
 23 21  1  0
 24 25  1  0
 26 25  1  0
 27 26  1  6
 27 28  1  0
 28 18  1  0
 29 27  1  0
 29 31  1  0
 30 29  2  0
M  END
$$$$
