YPR.pdb
     RDKit          3D

 31 32  0  0  1  0  0  0  0  0999 V2000
   32.0514  -31.7678  -18.4607 O   0  0  0  0  0  0  0  0  0  0  0  0
   31.3542  -30.5667  -18.4372 C   0  0  0  0  0  0  0  0  0  0  0  0
   29.9981  -30.5542  -18.3777 C   0  0  0  0  0  0  0  0  0  0  0  0
   29.3404  -29.3515  -18.3558 C   0  0  0  0  0  0  0  0  0  0  0  0
   30.0173  -28.1610  -18.3924 C   0  0  0  0  0  0  0  0  0  0  0  0
   29.2489  -26.8897  -18.3660 C   0  0  0  0  0  0  0  0  0  0  0  0
   29.3814  -26.1952  -17.0224 C   0  0  2  0  0  0  0  0  0  0  0  0
   28.9549  -27.0803  -16.0012 N   0  0  0  0  0  0  0  0  0  0  0  0
   28.8200  -24.8453  -17.0155 C   0  0  0  0  0  0  0  0  0  0  0  0
   27.7971  -24.6426  -16.2673 O   0  0  0  0  0  0  0  0  0  0  0  0
   31.3869  -28.1665  -18.4522 C   0  0  0  0  0  0  0  0  0  0  0  0
   32.0508  -29.3760  -18.4747 C   0  0  0  0  0  0  0  0  0  0  0  0
   29.2832  -23.7272  -17.7508 N   0  0  0  0  0  0  0  0  0  0  0  0
   30.3593  -23.5866  -18.6921 C   0  0  0  0  0  0  0  0  0  0  0  0
   30.9373  -22.2351  -18.3154 C   0  0  0  0  0  0  0  0  0  0  0  0
   29.8436  -21.4828  -17.6316 C   0  0  0  0  0  0  0  0  0  0  0  0
   28.6801  -22.4068  -17.6698 C   0  0  1  0  0  0  0  0  0  0  0  0
   27.8385  -22.1100  -18.8447 C   0  0  0  0  0  0  0  0  0  0  0  0
   27.6884  -22.9661  -19.7759 O   0  0  0  0  0  0  0  0  0  0  0  0
   20.9749  -24.0250  -15.7411 N   0  0  0  0  0  0  0  0  0  0  0  0
   20.4598  -23.2380  -16.8071 C   0  0  0  0  0  0  0  0  0  0  0  0
   19.1674  -23.2635  -16.9678 N   0  0  0  0  0  0  0  0  0  0  0  0
   21.2960  -22.4537  -17.6660 N   0  0  0  0  0  0  0  0  0  0  0  0
   22.7212  -22.4410  -17.3964 C   0  0  0  0  0  0  0  0  0  0  0  0
   23.4879  -21.5958  -18.3476 C   0  0  0  0  0  0  0  0  0  0  0  0
   24.9627  -21.5811  -18.1940 C   0  0  0  0  0  0  0  0  0  0  0  0
   25.7296  -20.7967  -19.2010 C   0  0  2  0  0  0  0  0  0  0  0  0
   27.1706  -20.8730  -18.9799 N   0  0  0  0  0  0  0  0  0  0  0  0
   25.3782  -19.3297  -19.0959 C   0  0  0  0  0  0  0  0  0  0  0  0
   25.8134  -18.6646  -18.1231 O   0  0  0  0  0  0  0  0  0  0  0  0
   24.5921  -18.6778  -20.0284 O   0  0  0  0  0  0  0  0  0  0  0  0
  2  1  1  0
  3  2  2  0
  4  3  1  0
  5  4  2  0
  5 11  1  0
  6  5  1  0
  7  8  1  1
  7  6  1  0
  9  7  1  0
 10  9  2  0
 11 12  2  0
 12  2  1  0
 13  9  1  0
 13 14  1  0
 14 15  1  0
 16 17  1  0
 16 15  1  0
 17 13  1  0
 17 18  1  6
 19 18  2  0
 20 21  1  0
 21 22  2  0
 23 24  1  0
 23 21  1  0
 24 25  1  0
 26 25  1  0
 27 26  1  1
 27 28  1  0
 28 18  1  0
 29 27  1  0
 29 31  1  0
 30 29  2  0
M  END
$$$$
