YPR.pdb
     RDKit          3D

 31 32  0  0  1  0  0  0  0  0999 V2000
   30.6159  -18.6019  -21.4628 O   0  0  0  0  0  0  0  0  0  0  0  0
   29.9299  -19.5057  -20.6617 C   0  0  0  0  0  0  0  0  0  0  0  0
   30.2369  -20.8276  -20.6894 C   0  0  0  0  0  0  0  0  0  0  0  0
   29.5407  -21.6934  -19.8860 C   0  0  0  0  0  0  0  0  0  0  0  0
   28.5422  -21.2579  -19.0552 C   0  0  0  0  0  0  0  0  0  0  0  0
   27.8232  -22.2442  -18.2080 C   0  0  0  0  0  0  0  0  0  0  0  0
   28.4036  -22.2906  -16.8058 C   0  0  2  0  0  0  0  0  0  0  0  0
   29.2200  -23.4423  -16.6821 N   0  0  0  0  0  0  0  0  0  0  0  0
   27.4048  -22.0631  -15.7627 C   0  0  0  0  0  0  0  0  0  0  0  0
   27.0504  -23.0788  -15.0627 O   0  0  0  0  0  0  0  0  0  0  0  0
   28.2272  -19.9241  -19.0221 C   0  0  0  0  0  0  0  0  0  0  0  0
   28.9265  -19.0512  -19.8303 C   0  0  0  0  0  0  0  0  0  0  0  0
   26.7785  -20.8354  -15.4375 N   0  0  0  0  0  0  0  0  0  0  0  0
   26.8674  -19.5333  -16.0377 C   0  0  0  0  0  0  0  0  0  0  0  0
   26.8836  -18.6234  -14.8235 C   0  0  0  0  0  0  0  0  0  0  0  0
   26.2347  -19.3851  -13.7152 C   0  0  0  0  0  0  0  0  0  0  0  0
   25.8435  -20.6779  -14.3352 C   0  0  1  0  0  0  0  0  0  0  0  0
   24.4452  -20.6114  -14.8011 C   0  0  0  0  0  0  0  0  0  0  0  0
   24.1475  -20.0398  -15.8999 O   0  0  0  0  0  0  0  0  0  0  0  0
   17.5583  -23.7918   -9.9883 N   0  0  0  0  0  0  0  0  0  0  0  0
   18.8591  -23.3763   -9.5930 C   0  0  0  0  0  0  0  0  0  0  0  0
   19.2850  -23.8315   -8.4492 N   0  0  0  0  0  0  0  0  0  0  0  0
   19.6721  -22.5086  -10.3921 N   0  0  0  0  0  0  0  0  0  0  0  0
   20.0659  -22.9723  -11.7088 C   0  0  0  0  0  0  0  0  0  0  0  0
   20.8842  -21.9825  -12.4557 C   0  0  0  0  0  0  0  0  0  0  0  0
   21.2355  -22.3220  -13.8558 C   0  0  0  0  0  0  0  0  0  0  0  0
   22.0456  -21.3193  -14.6013 C   0  0  2  0  0  0  0  0  0  0  0  0
   23.3904  -21.1766  -14.0513 N   0  0  0  0  0  0  0  0  0  0  0  0
   21.4121  -19.9508  -14.4892 C   0  0  0  0  0  0  0  0  0  0  0  0
   20.3779  -19.6990  -15.1563 O   0  0  0  0  0  0  0  0  0  0  0  0
   21.9217  -18.9522  -13.6797 O   0  0  0  0  0  0  0  0  0  0  0  0
  2  1  1  0
  3  2  2  0
  4  3  1  0
  5  4  2  0
  5 11  1  0
  6  5  1  0
  7  8  1  1
  7  6  1  0
  9  7  1  0
 10  9  2  0
 11 12  2  0
 12  2  1  0
 13  9  1  0
 13 14  1  0
 14 15  1  0
 16 17  1  0
 16 15  1  0
 17 13  1  0
 17 18  1  6
 19 18  2  0
 20 21  1  0
 21 22  2  0
 23 24  1  0
 23 21  1  0
 24 25  1  0
 26 25  1  0
 27 26  1  1
 27 28  1  0
 28 18  1  0
 29 27  1  0
 29 31  1  0
 30 29  2  0
M  END
$$$$
