YPR.pdb
     RDKit          3D

 31 32  0  0  1  0  0  0  0  0999 V2000
   24.3783  -16.3664  -17.5436 O   0  0  0  0  0  0  0  0  0  0  0  0
   25.3536  -16.9774  -16.7659 C   0  0  0  0  0  0  0  0  0  0  0  0
   25.1420  -17.2086  -15.4452 C   0  0  0  0  0  0  0  0  0  0  0  0
   26.1252  -17.8139  -14.7058 C   0  0  0  0  0  0  0  0  0  0  0  0
   27.3168  -18.1916  -15.2664 C   0  0  0  0  0  0  0  0  0  0  0  0
   28.3441  -18.8435  -14.4138 C   0  0  0  0  0  0  0  0  0  0  0  0
   28.3199  -20.3524  -14.5807 C   0  0  2  0  0  0  0  0  0  0  0  0
   28.7628  -20.6796  -15.8865 N   0  0  0  0  0  0  0  0  0  0  0  0
   27.0708  -20.9609  -14.1257 C   0  0  0  0  0  0  0  0  0  0  0  0
   26.4457  -21.7059  -14.9631 O   0  0  0  0  0  0  0  0  0  0  0  0
   27.5369  -17.9613  -16.5998 C   0  0  0  0  0  0  0  0  0  0  0  0
   26.5487  -17.3519  -17.3457 C   0  0  0  0  0  0  0  0  0  0  0  0
   26.4683  -20.8164  -12.8524 N   0  0  0  0  0  0  0  0  0  0  0  0
   26.8037  -19.9856  -11.7294 C   0  0  0  0  0  0  0  0  0  0  0  0
   26.5617  -20.9199  -10.5585 C   0  0  0  0  0  0  0  0  0  0  0  0
   25.5910  -21.9505  -11.0330 C   0  0  0  0  0  0  0  0  0  0  0  0
   25.2884  -21.5557  -12.4336 C   0  0  1  0  0  0  0  0  0  0  0  0
   24.0714  -20.7224  -12.4710 C   0  0  0  0  0  0  0  0  0  0  0  0
   24.1443  -19.4529  -12.3962 O   0  0  0  0  0  0  0  0  0  0  0  0
   17.0002  -23.7453  -12.0070 N   0  0  0  0  0  0  0  0  0  0  0  0
   16.6497  -23.1587  -13.2536 C   0  0  0  0  0  0  0  0  0  0  0  0
   15.4197  -22.7455  -13.3687 N   0  0  0  0  0  0  0  0  0  0  0  0
   17.5805  -23.0189  -14.3336 N   0  0  0  0  0  0  0  0  0  0  0  0
   18.9932  -22.9724  -14.0082 C   0  0  0  0  0  0  0  0  0  0  0  0
   19.4351  -21.6427  -13.5144 C   0  0  0  0  0  0  0  0  0  0  0  0
   20.7652  -21.1673  -13.9657 C   0  0  0  0  0  0  0  0  0  0  0  0
   21.6163  -20.4994  -12.9423 C   0  0  2  0  0  0  0  0  0  0  0  0
   22.7873  -21.2977  -12.5916 N   0  0  0  0  0  0  0  0  0  0  0  0
   20.8422  -20.3239  -11.6552 C   0  0  0  0  0  0  0  0  0  0  0  0
   20.9387  -21.1991  -10.7592 O   0  0  0  0  0  0  0  0  0  0  0  0
   20.0239  -19.2354  -11.4144 O   0  0  0  0  0  0  0  0  0  0  0  0
  2  1  1  0
  3  2  2  0
  4  3  1  0
  5  4  2  0
  5 11  1  0
  6  5  1  0
  7  8  1  6
  7  6  1  0
  9  7  1  0
 10  9  2  0
 11 12  2  0
 12  2  1  0
 13  9  1  0
 13 14  1  0
 14 15  1  0
 16 17  1  0
 16 15  1  0
 17 13  1  0
 17 18  1  1
 19 18  2  0
 20 21  1  0
 21 22  2  0
 23 24  1  0
 23 21  1  0
 24 25  1  0
 26 25  1  0
 27 26  1  6
 27 28  1  0
 28 18  1  0
 29 27  1  0
 29 31  1  0
 30 29  2  0
M  END
$$$$
