YPR.pdb
     RDKit          3D

 31 32  0  0  1  0  0  0  0  0999 V2000
   21.2901  -22.7770  -14.1399 O   0  0  0  0  0  0  0  0  0  0  0  0
   21.6063  -21.4286  -14.2451 C   0  0  0  0  0  0  0  0  0  0  0  0
   20.6358  -20.5044  -14.4605 C   0  0  0  0  0  0  0  0  0  0  0  0
   20.9816  -19.1813  -14.5593 C   0  0  0  0  0  0  0  0  0  0  0  0
   22.2828  -18.7679  -14.4458 C   0  0  0  0  0  0  0  0  0  0  0  0
   22.5956  -17.3201  -14.5619 C   0  0  0  0  0  0  0  0  0  0  0  0
   22.9061  -16.9384  -15.9982 C   0  0  2  0  0  0  0  0  0  0  0  0
   21.8263  -17.3358  -16.8253 N   0  0  0  0  0  0  0  0  0  0  0  0
   24.2505  -17.3298  -16.4189 C   0  0  0  0  0  0  0  0  0  0  0  0
   24.3388  -18.1462  -17.4052 O   0  0  0  0  0  0  0  0  0  0  0  0
   23.2679  -19.6961  -14.2278 C   0  0  0  0  0  0  0  0  0  0  0  0
   22.9220  -21.0283  -14.1286 C   0  0  0  0  0  0  0  0  0  0  0  0
   25.4768  -16.9051  -15.8523 N   0  0  0  0  0  0  0  0  0  0  0  0
   25.7646  -16.1278  -14.6790 C   0  0  0  0  0  0  0  0  0  0  0  0
   26.9025  -15.2435  -15.1541 C   0  0  0  0  0  0  0  0  0  0  0  0
   27.5416  -15.9556  -16.3004 C   0  0  0  0  0  0  0  0  0  0  0  0
   26.7770  -17.2245  -16.4195 C   0  0  1  0  0  0  0  0  0  0  0  0
   27.4592  -18.2967  -15.6700 C   0  0  0  0  0  0  0  0  0  0  0  0
   28.5273  -18.0618  -15.0169 O   0  0  0  0  0  0  0  0  0  0  0  0
   25.1094  -20.7983   -8.8715 N   0  0  0  0  0  0  0  0  0  0  0  0
   24.4674  -20.7156  -10.1371 C   0  0  0  0  0  0  0  0  0  0  0  0
   23.1690  -20.8199  -10.1308 N   0  0  0  0  0  0  0  0  0  0  0  0
   25.1878  -20.5274  -11.3610 N   0  0  0  0  0  0  0  0  0  0  0  0
   26.6074  -20.2428  -11.2743 C   0  0  0  0  0  0  0  0  0  0  0  0
   27.2288  -19.9640  -12.5946 C   0  0  0  0  0  0  0  0  0  0  0  0
   27.0850  -21.0079  -13.6378 C   0  0  0  0  0  0  0  0  0  0  0  0
   27.6659  -20.6992  -14.9738 C   0  0  2  0  0  0  0  0  0  0  0  0
   26.9560  -19.6161  -15.6479 N   0  0  0  0  0  0  0  0  0  0  0  0
   27.5403  -21.8986  -15.8860 C   0  0  0  0  0  0  0  0  0  0  0  0
   28.1082  -22.9725  -15.5661 O   0  0  0  0  0  0  0  0  0  0  0  0
   26.8236  -21.8703  -17.0683 O   0  0  0  0  0  0  0  0  0  0  0  0
  2  1  1  0
  3  2  2  0
  4  3  1  0
  5  4  2  0
  5 11  1  0
  6  5  1  0
  7  8  1  6
  7  6  1  0
  9  7  1  0
 10  9  2  0
 11 12  2  0
 12  2  1  0
 13  9  1  0
 13 14  1  0
 14 15  1  0
 16 17  1  0
 16 15  1  0
 17 13  1  0
 17 18  1  1
 19 18  2  0
 20 21  1  0
 21 22  2  0
 23 24  1  0
 23 21  1  0
 24 25  1  0
 26 25  1  0
 27 26  1  1
 27 28  1  0
 28 18  1  0
 29 27  1  0
 29 31  1  0
 30 29  2  0
M  END
$$$$
