YPR.pdb
     RDKit          3D

 31 32  0  0  1  0  0  0  0  0999 V2000
   18.8354  -14.8995  -14.6031 O   0  0  0  0  0  0  0  0  0  0  0  0
   18.8663  -16.1310  -13.9614 C   0  0  0  0  0  0  0  0  0  0  0  0
   18.0485  -17.1393  -14.3578 C   0  0  0  0  0  0  0  0  0  0  0  0
   18.1041  -18.3427  -13.7032 C   0  0  0  0  0  0  0  0  0  0  0  0
   18.9646  -18.5537  -12.6583 C   0  0  0  0  0  0  0  0  0  0  0  0
   18.9789  -19.8796  -11.9882 C   0  0  0  0  0  0  0  0  0  0  0  0
   20.2923  -20.6026  -12.2284 C   0  0  2  0  0  0  0  0  0  0  0  0
   20.3514  -21.0147  -13.5830 N   0  0  0  0  0  0  0  0  0  0  0  0
   20.5894  -21.6080  -11.2095 C   0  0  0  0  0  0  0  0  0  0  0  0
   20.6585  -22.8294  -11.5977 O   0  0  0  0  0  0  0  0  0  0  0  0
   19.7934  -17.5397  -12.2530 C   0  0  0  0  0  0  0  0  0  0  0  0
   19.7388  -16.3276  -12.9103 C   0  0  0  0  0  0  0  0  0  0  0  0
   20.8096  -21.3815   -9.8292 N   0  0  0  0  0  0  0  0  0  0  0  0
   20.7154  -20.1892   -9.0334 C   0  0  0  0  0  0  0  0  0  0  0  0
   21.9157  -20.3236   -8.1149 C   0  0  0  0  0  0  0  0  0  0  0  0
   22.2370  -21.7803   -8.0490 C   0  0  0  0  0  0  0  0  0  0  0  0
   21.2004  -22.4259   -8.8961 C   0  0  1  0  0  0  0  0  0  0  0  0
   20.0700  -22.8709   -8.0588 C   0  0  0  0  0  0  0  0  0  0  0  0
   19.0559  -22.1222   -7.8759 O   0  0  0  0  0  0  0  0  0  0  0  0
   13.4111  -21.0997   -5.1753 N   0  0  0  0  0  0  0  0  0  0  0  0
   13.3759  -22.4346   -4.6879 C   0  0  0  0  0  0  0  0  0  0  0  0
   12.3118  -22.7738   -4.0176 N   0  0  0  0  0  0  0  0  0  0  0  0
   14.4381  -23.3697   -4.9111 N   0  0  0  0  0  0  0  0  0  0  0  0
   15.6446  -22.8834   -5.5528 C   0  0  0  0  0  0  0  0  0  0  0  0
   16.6245  -23.9607   -5.8467 C   0  0  0  0  0  0  0  0  0  0  0  0
   17.9482  -23.5406   -6.3663 C   0  0  0  0  0  0  0  0  0  0  0  0
   18.9121  -24.6281   -6.6911 C   0  0  2  0  0  0  0  0  0  0  0  0
   20.0695  -24.1370   -7.4331 N   0  0  0  0  0  0  0  0  0  0  0  0
   18.2572  -25.6534   -7.5893 C   0  0  0  0  0  0  0  0  0  0  0  0
   17.3536  -26.3893   -7.1202 O   0  0  0  0  0  0  0  0  0  0  0  0
   18.6089  -25.8223   -8.9160 O   0  0  0  0  0  0  0  0  0  0  0  0
  2  1  1  0
  3  2  2  0
  4  3  1  0
  5  4  2  0
  5 11  1  0
  6  5  1  0
  7  8  1  6
  7  6  1  0
  9  7  1  0
 10  9  2  0
 11 12  2  0
 12  2  1  0
 13  9  1  0
 13 14  1  0
 14 15  1  0
 16 17  1  0
 16 15  1  0
 17 13  1  0
 17 18  1  1
 19 18  2  0
 20 21  1  0
 21 22  2  0
 23 24  1  0
 23 21  1  0
 24 25  1  0
 26 25  1  0
 27 26  1  6
 27 28  1  0
 28 18  1  0
 29 27  1  0
 29 31  1  0
 30 29  2  0
M  END
$$$$
