YPR.pdb
     RDKit          3D

 31 32  0  0  1  0  0  0  0  0999 V2000
   16.1251  -24.7639  -12.1708 O   0  0  0  0  0  0  0  0  0  0  0  0
   17.1939  -24.1304  -12.7919 C   0  0  0  0  0  0  0  0  0  0  0  0
   17.1338  -22.8091  -13.0967 C   0  0  0  0  0  0  0  0  0  0  0  0
   18.2062  -22.2142  -13.7096 C   0  0  0  0  0  0  0  0  0  0  0  0
   19.3380  -22.9199  -14.0224 C   0  0  0  0  0  0  0  0  0  0  0  0
   20.4678  -22.2198  -14.6864 C   0  0  0  0  0  0  0  0  0  0  0  0
   21.4799  -21.7227  -13.6697 C   0  0  2  0  0  0  0  0  0  0  0  0
   20.8480  -20.7947  -12.8049 N   0  0  0  0  0  0  0  0  0  0  0  0
   22.7489  -21.3184  -14.2727 C   0  0  0  0  0  0  0  0  0  0  0  0
   23.0425  -20.0697  -14.2326 O   0  0  0  0  0  0  0  0  0  0  0  0
   19.4056  -24.2546  -13.7169 C   0  0  0  0  0  0  0  0  0  0  0  0
   18.3270  -24.8554  -13.1005 C   0  0  0  0  0  0  0  0  0  0  0  0
   23.6977  -22.1596  -14.9032 N   0  0  0  0  0  0  0  0  0  0  0  0
   23.7019  -23.5756  -15.1454 C   0  0  0  0  0  0  0  0  0  0  0  0
   25.1469  -23.9426  -14.8632 C   0  0  0  0  0  0  0  0  0  0  0  0
   25.9458  -22.6961  -15.0574 C   0  0  0  0  0  0  0  0  0  0  0  0
   24.9460  -21.6776  -15.4719 C   0  0  1  0  0  0  0  0  0  0  0  0
   24.8886  -21.5971  -16.9440 C   0  0  0  0  0  0  0  0  0  0  0  0
   24.1327  -22.3737  -17.6135 O   0  0  0  0  0  0  0  0  0  0  0  0
   27.0774  -14.6046  -21.6537 N   0  0  0  0  0  0  0  0  0  0  0  0
   27.7840  -15.6799  -21.0493 C   0  0  0  0  0  0  0  0  0  0  0  0
   29.0668  -15.5118  -20.8982 N   0  0  0  0  0  0  0  0  0  0  0  0
   27.1414  -16.8871  -20.6225 N   0  0  0  0  0  0  0  0  0  0  0  0
   25.6950  -16.9514  -20.7092 C   0  0  0  0  0  0  0  0  0  0  0  0
   25.1402  -18.2527  -20.2552 C   0  0  0  0  0  0  0  0  0  0  0  0
   26.0731  -19.1761  -19.5656 C   0  0  0  0  0  0  0  0  0  0  0  0
   25.5057  -20.4722  -19.1011 C   0  0  2  0  0  0  0  0  0  0  0  0
   25.6642  -20.6605  -17.6621 N   0  0  0  0  0  0  0  0  0  0  0  0
   26.2425  -21.6243  -19.7466 C   0  0  0  0  0  0  0  0  0  0  0  0
   27.1262  -22.2296  -19.0904 O   0  0  0  0  0  0  0  0  0  0  0  0
   25.9882  -22.0480  -21.0382 O   0  0  0  0  0  0  0  0  0  0  0  0
  2  1  1  0
  3  2  2  0
  4  3  1  0
  5  4  2  0
  5 11  1  0
  6  5  1  0
  7  8  1  6
  7  6  1  0
  9  7  1  0
 10  9  2  0
 11 12  2  0
 12  2  1  0
 13  9  1  0
 13 14  1  0
 14 15  1  0
 16 17  1  0
 16 15  1  0
 17 13  1  0
 17 18  1  6
 19 18  2  0
 20 21  1  0
 21 22  2  0
 23 24  1  0
 23 21  1  0
 24 25  1  0
 26 25  1  0
 27 26  1  6
 27 28  1  0
 28 18  1  0
 29 27  1  0
 29 31  1  0
 30 29  2  0
M  END
$$$$
