HIH.pdb
     RDKit          3D

 29 30  0  0  1  0  0  0  0  0999 V2000
   27.4325  -19.4103  -16.9502 N   0  0  0  0  0  0  0  0  0  0  0  0
   26.6054  -18.7546  -15.9602 C   0  0  1  0  0  0  0  0  0  0  0  0
   25.5105  -18.0074  -16.7025 C   0  0  0  0  0  0  0  0  0  0  0  0
   26.0443  -16.8435  -17.4556 C   0  0  0  0  0  0  0  0  0  0  0  0
   26.2350  -15.5962  -16.9179 C   0  0  0  0  0  0  0  0  0  0  0  0
   26.7277  -14.8120  -17.8927 N   0  0  0  0  0  0  0  0  0  0  0  0
   26.8373  -15.5555  -18.9991 C   0  0  0  0  0  0  0  0  0  0  0  0
   26.4121  -16.8248  -18.7322 N   0  0  0  0  0  0  0  0  0  0  0  0
   25.9288  -19.7408  -15.0732 C   0  0  0  0  0  0  0  0  0  0  0  0
   25.5870  -20.8610  -15.5420 O   0  0  0  0  0  0  0  0  0  0  0  0
   27.5088  -21.8412  -12.0464 C   0  0  0  0  0  0  0  0  0  0  0  0
   27.0531  -20.5115  -11.5464 C   0  0  0  0  0  0  0  0  0  0  0  0
   25.5473  -20.3696  -11.5207 C   0  0  2  0  0  0  0  0  0  0  0  0
   24.9708  -21.3402  -10.5195 C   0  0  0  0  0  0  0  0  0  0  0  0
   24.9426  -20.4950  -12.8790 C   0  0  2  0  0  0  0  0  0  0  0  0
   25.6381  -19.5024  -13.7165 N   0  0  0  0  0  0  0  0  0  0  0  0
   23.4735  -20.2533  -12.9190 C   0  0  0  0  0  0  0  0  0  0  0  0
   23.0110  -19.2034  -12.4086 O   0  0  0  0  0  0  0  0  0  0  0  0
   22.5707  -21.1615  -13.5113 N   0  0  0  0  0  0  0  0  0  0  0  0
   21.1488  -20.9277  -13.5810 C   0  0  1  0  0  0  0  0  0  0  0  0
   20.6160  -21.6110  -14.8154 C   0  0  0  0  0  0  0  0  0  0  0  0
   21.0481  -20.9748  -16.0795 C   0  0  0  0  0  0  0  0  0  0  0  0
   22.1862  -21.3549  -16.7751 C   0  0  0  0  0  0  0  0  0  0  0  0
   22.2529  -20.5624  -17.8584 N   0  0  0  0  0  0  0  0  0  0  0  0
   21.2086  -19.7224  -17.8489 C   0  0  0  0  0  0  0  0  0  0  0  0
   20.4766  -19.9836  -16.7544 N   0  0  0  0  0  0  0  0  0  0  0  0
   20.4433  -21.4666  -12.3899 C   0  0  0  0  0  0  0  0  0  0  0  0
   19.3161  -20.9026  -11.8338 O   0  0  0  0  0  0  0  0  0  0  0  0
   20.8933  -22.5017  -11.8455 O   0  0  0  0  0  0  0  0  0  0  0  0
  2  9  1  0
  2  1  1  6
  3  2  1  0
  4  3  1  0
  4  5  2  0
  6  5  1  0
  7  8  2  0
  7  6  1  0
  8  4  1  0
  9 10  2  0
 12 11  1  0
 13 14  1  1
 13 12  1  0
 13 15  1  0
 15 16  1  6
 16  9  1  0
 17 18  2  0
 17 15  1  0
 19 17  1  0
 20 27  1  0
 20 19  1  0
 20 21  1  6
 22 21  1  0
 23 22  2  0
 24 25  1  0
 24 23  1  0
 25 26  2  0
 26 22  1  0
 27 28  1  0
 29 27  2  0
M  END
$$$$
