HIH.pdb
     RDKit          3D

 29 30  0  0  1  0  0  0  0  0999 V2000
   21.2886  -15.0868  -17.1705 N   0  0  0  0  0  0  0  0  0  0  0  0
   21.5529  -13.7830  -17.7400 C   0  0  1  0  0  0  0  0  0  0  0  0
   20.2398  -13.2485  -18.2861 C   0  0  0  0  0  0  0  0  0  0  0  0
   19.7539  -14.0446  -19.4423 C   0  0  0  0  0  0  0  0  0  0  0  0
   20.4561  -14.2248  -20.6067 C   0  0  0  0  0  0  0  0  0  0  0  0
   19.7037  -14.9955  -21.4117 N   0  0  0  0  0  0  0  0  0  0  0  0
   18.5705  -15.2815  -20.7614 C   0  0  0  0  0  0  0  0  0  0  0  0
   18.5962  -14.6904  -19.5313 N   0  0  0  0  0  0  0  0  0  0  0  0
   22.0138  -12.8173  -16.7045 C   0  0  0  0  0  0  0  0  0  0  0  0
   21.3847  -12.7335  -15.6141 O   0  0  0  0  0  0  0  0  0  0  0  0
   26.9046  -12.6171  -15.1285 C   0  0  0  0  0  0  0  0  0  0  0  0
   25.4255  -12.4804  -15.2674 C   0  0  0  0  0  0  0  0  0  0  0  0
   24.9942  -11.0986  -15.7069 C   0  0  2  0  0  0  0  0  0  0  0  0
   25.5904  -10.0699  -14.7778 C   0  0  0  0  0  0  0  0  0  0  0  0
   23.5128  -10.9831  -15.8417 C   0  0  2  0  0  0  0  0  0  0  0  0
   23.1286  -11.9725  -16.8633 N   0  0  0  0  0  0  0  0  0  0  0  0
   23.0390   -9.6291  -16.2424 C   0  0  0  0  0  0  0  0  0  0  0  0
   23.4076   -9.1519  -17.3437 O   0  0  0  0  0  0  0  0  0  0  0  0
   22.1859   -8.8524  -15.4302 N   0  0  0  0  0  0  0  0  0  0  0  0
   21.6552   -7.5748  -15.8395 C   0  0  1  0  0  0  0  0  0  0  0  0
   20.1552   -7.6947  -15.9397 C   0  0  0  0  0  0  0  0  0  0  0  0
   19.6996   -8.4960  -17.0971 C   0  0  0  0  0  0  0  0  0  0  0  0
   20.5660   -9.0881  -18.0040 C   0  0  0  0  0  0  0  0  0  0  0  0
   19.7981   -9.7234  -18.9055 N   0  0  0  0  0  0  0  0  0  0  0  0
   18.5094   -9.5425  -18.5849 C   0  0  0  0  0  0  0  0  0  0  0  0
   18.4602   -8.7889  -17.4752 N   0  0  0  0  0  0  0  0  0  0  0  0
   21.9886   -6.5030  -14.8664 C   0  0  0  0  0  0  0  0  0  0  0  0
   21.9112   -5.1549  -15.1392 O   0  0  0  0  0  0  0  0  0  0  0  0
   22.3669   -6.8337  -13.7184 O   0  0  0  0  0  0  0  0  0  0  0  0
  2  9  1  0
  2  1  1  1
  3  2  1  0
  4  3  1  0
  4  5  2  0
  6  5  1  0
  7  8  2  0
  7  6  1  0
  8  4  1  0
  9 10  2  0
 12 11  1  0
 13 14  1  1
 13 12  1  0
 13 15  1  0
 15 16  1  6
 16  9  1  0
 17 18  2  0
 17 15  1  0
 19 17  1  0
 20 27  1  0
 20 19  1  0
 20 21  1  1
 22 21  1  0
 23 22  2  0
 24 25  1  0
 24 23  1  0
 25 26  2  0
 26 22  1  0
 27 28  1  0
 29 27  2  0
M  END
$$$$
