HIH.pdb
     RDKit          3D

 29 30  0  0  1  0  0  0  0  0999 V2000
   24.1641  -35.1670  -12.5105 N   0  0  0  0  0  0  0  0  0  0  0  0
   23.4171  -34.3051  -11.6198 C   0  0  1  0  0  0  0  0  0  0  0  0
   21.9406  -34.5312  -11.8975 C   0  0  0  0  0  0  0  0  0  0  0  0
   21.5574  -34.0860  -13.2619 C   0  0  0  0  0  0  0  0  0  0  0  0
   21.3158  -34.9341  -14.3126 C   0  0  0  0  0  0  0  0  0  0  0  0
   20.9983  -34.1734  -15.3750 N   0  0  0  0  0  0  0  0  0  0  0  0
   21.0431  -32.8936  -14.9893 C   0  0  0  0  0  0  0  0  0  0  0  0
   21.3916  -32.8328  -13.6709 N   0  0  0  0  0  0  0  0  0  0  0  0
   23.6467  -34.6629  -10.1927 C   0  0  0  0  0  0  0  0  0  0  0  0
   23.9831  -35.8425   -9.8978 O   0  0  0  0  0  0  0  0  0  0  0  0
   27.5765  -32.8579   -8.6188 C   0  0  0  0  0  0  0  0  0  0  0  0
   26.3462  -33.7012   -8.6506 C   0  0  0  0  0  0  0  0  0  0  0  0
   25.2941  -33.2565   -7.6588 C   0  0  2  0  0  0  0  0  0  0  0  0
   25.8785  -33.2764   -6.2678 C   0  0  0  0  0  0  0  0  0  0  0  0
   24.0323  -34.0436   -7.7795 C   0  0  2  0  0  0  0  0  0  0  0  0
   23.5108  -33.7538   -9.1266 N   0  0  0  0  0  0  0  0  0  0  0  0
   23.0040  -33.7116   -6.7545 C   0  0  0  0  0  0  0  0  0  0  0  0
   22.6230  -32.5215   -6.6318 O   0  0  0  0  0  0  0  0  0  0  0  0
   22.4343  -34.6857   -5.9076 N   0  0  0  0  0  0  0  0  0  0  0  0
   21.4729  -34.3713   -4.8790 C   0  0  1  0  0  0  0  0  0  0  0  0
   20.8769  -35.6623   -4.3766 C   0  0  0  0  0  0  0  0  0  0  0  0
   19.9575  -36.3066   -5.3406 C   0  0  0  0  0  0  0  0  0  0  0  0
   20.3323  -36.6728   -6.6248 C   0  0  0  0  0  0  0  0  0  0  0  0
   19.2466  -37.2206   -7.1968 N   0  0  0  0  0  0  0  0  0  0  0  0
   18.2348  -37.2020   -6.3180 C   0  0  0  0  0  0  0  0  0  0  0  0
   18.6812  -36.6398   -5.1838 N   0  0  0  0  0  0  0  0  0  0  0  0
   22.1008  -33.6551   -3.7390 C   0  0  0  0  0  0  0  0  0  0  0  0
   23.4597  -33.5690   -3.5296 O   0  0  0  0  0  0  0  0  0  0  0  0
   21.3563  -33.0881   -2.9055 O   0  0  0  0  0  0  0  0  0  0  0  0
  2  9  1  0
  2  1  1  6
  3  2  1  0
  4  3  1  0
  4  5  2  0
  6  5  1  0
  7  8  2  0
  7  6  1  0
  8  4  1  0
  9 10  2  0
 12 11  1  0
 13 14  1  1
 13 12  1  0
 13 15  1  0
 15 16  1  6
 16  9  1  0
 17 18  2  0
 17 15  1  0
 19 17  1  0
 20 27  1  0
 20 19  1  0
 20 21  1  1
 22 21  1  0
 23 22  2  0
 24 25  1  0
 24 23  1  0
 25 26  2  0
 26 22  1  0
 27 28  1  0
 29 27  2  0
M  END
$$$$
