HIH.pdb
     RDKit          3D

 29 30  0  0  1  0  0  0  0  0999 V2000
   43.6858  -12.9168   -9.0951 N   0  0  0  0  0  0  0  0  0  0  0  0
   43.0412  -12.2683   -7.9735 C   0  0  1  0  0  0  0  0  0  0  0  0
   44.0659  -11.3535   -7.3244 C   0  0  0  0  0  0  0  0  0  0  0  0
   45.1718  -12.1179   -6.6924 C   0  0  0  0  0  0  0  0  0  0  0  0
   45.2915  -13.4836   -6.7364 C   0  0  0  0  0  0  0  0  0  0  0  0
   46.4072  -13.8088   -6.0601 N   0  0  0  0  0  0  0  0  0  0  0  0
   46.9587  -12.6755   -5.6125 C   0  0  0  0  0  0  0  0  0  0  0  0
   46.1917  -11.6165   -6.0042 N   0  0  0  0  0  0  0  0  0  0  0  0
   41.9121  -11.4045   -8.4165 C   0  0  0  0  0  0  0  0  0  0  0  0
   41.9355  -10.9019   -9.5734 O   0  0  0  0  0  0  0  0  0  0  0  0
   35.9735  -11.1553   -8.2569 C   0  0  0  0  0  0  0  0  0  0  0  0
   37.2215  -10.3557   -8.4263 C   0  0  0  0  0  0  0  0  0  0  0  0
   38.4460  -11.0355   -7.8544 C   0  0  2  0  0  0  0  0  0  0  0  0
   38.2089  -11.3491   -6.3976 C   0  0  0  0  0  0  0  0  0  0  0  0
   39.6932  -10.2522   -8.0935 C   0  0  2  0  0  0  0  0  0  0  0  0
   40.7953  -11.1040   -7.6139 N   0  0  0  0  0  0  0  0  0  0  0  0
   39.7304   -8.9348   -7.3997 C   0  0  0  0  0  0  0  0  0  0  0  0
   39.7567   -8.9037   -6.1447 O   0  0  0  0  0  0  0  0  0  0  0  0
   39.7373   -7.7090   -8.0982 N   0  0  0  0  0  0  0  0  0  0  0  0
   39.7558   -6.4258   -7.4390 C   0  0  1  0  0  0  0  0  0  0  0  0
   41.1261   -5.8214   -7.6165 C   0  0  0  0  0  0  0  0  0  0  0  0
   41.3031   -4.5337   -6.9095 C   0  0  0  0  0  0  0  0  0  0  0  0
   42.4995   -4.1400   -6.3287 C   0  0  0  0  0  0  0  0  0  0  0  0
   42.2798   -2.9300   -5.7868 N   0  0  0  0  0  0  0  0  0  0  0  0
   41.0073   -2.5754   -6.0134 C   0  0  0  0  0  0  0  0  0  0  0  0
   40.4177   -3.5653   -6.7022 N   0  0  0  0  0  0  0  0  0  0  0  0
   38.7436   -5.4997   -8.0088 C   0  0  0  0  0  0  0  0  0  0  0  0
   38.3271   -4.3355   -7.4014 O   0  0  0  0  0  0  0  0  0  0  0  0
   38.2266   -5.7851   -9.1140 O   0  0  0  0  0  0  0  0  0  0  0  0
  2  9  1  0
  2  1  1  6
  3  2  1  0
  4  3  1  0
  4  5  2  0
  6  5  1  0
  7  8  2  0
  7  6  1  0
  8  4  1  0
  9 10  2  0
 12 11  1  0
 13 14  1  1
 13 12  1  0
 13 15  1  0
 15 16  1  1
 16  9  1  0
 17 18  2  0
 17 15  1  0
 19 17  1  0
 20 27  1  0
 20 19  1  0
 20 21  1  6
 22 21  1  0
 23 22  2  0
 24 25  1  0
 24 23  1  0
 25 26  2  0
 26 22  1  0
 27 28  1  0
 29 27  2  0
M  END
$$$$
