HIH.pdb
     RDKit          3D

 29 30  0  0  1  0  0  0  0  0999 V2000
   28.2772  -21.1400  -16.1571 N   0  0  0  0  0  0  0  0  0  0  0  0
   27.3692  -20.1567  -15.6068 C   0  0  1  0  0  0  0  0  0  0  0  0
   26.6794  -19.4691  -16.7728 C   0  0  0  0  0  0  0  0  0  0  0  0
   27.6121  -18.6009  -17.5364 C   0  0  0  0  0  0  0  0  0  0  0  0
   27.5479  -17.2310  -17.5614 C   0  0  0  0  0  0  0  0  0  0  0  0
   28.5464  -16.7987  -18.3515 N   0  0  0  0  0  0  0  0  0  0  0  0
   29.2065  -17.8719  -18.8001 C   0  0  0  0  0  0  0  0  0  0  0  0
   28.6276  -19.0000  -18.2945 N   0  0  0  0  0  0  0  0  0  0  0  0
   26.3005  -20.7959  -14.7903 C   0  0  0  0  0  0  0  0  0  0  0  0
   25.8065  -21.8932  -15.1689 O   0  0  0  0  0  0  0  0  0  0  0  0
   27.0115  -20.6254   -9.6295 C   0  0  0  0  0  0  0  0  0  0  0  0
   26.5598  -21.1179  -10.9634 C   0  0  0  0  0  0  0  0  0  0  0  0
   25.1832  -20.6212  -11.3463 C   0  0  2  0  0  0  0  0  0  0  0  0
   24.1757  -21.1130  -10.3363 C   0  0  0  0  0  0  0  0  0  0  0  0
   24.8259  -20.9684  -12.7527 C   0  0  2  0  0  0  0  0  0  0  0  0
   25.7927  -20.2463  -13.5979 N   0  0  0  0  0  0  0  0  0  0  0  0
   23.4364  -20.5977  -13.1400 C   0  0  0  0  0  0  0  0  0  0  0  0
   23.0828  -19.3946  -13.0765 O   0  0  0  0  0  0  0  0  0  0  0  0
   22.4915  -21.5490  -13.5793 N   0  0  0  0  0  0  0  0  0  0  0  0
   21.1411  -21.2049  -13.9524 C   0  0  1  0  0  0  0  0  0  0  0  0
   20.5945  -22.3077  -14.8240 C   0  0  0  0  0  0  0  0  0  0  0  0
   19.2216  -22.0524  -15.3134 C   0  0  0  0  0  0  0  0  0  0  0  0
   18.4941  -20.9173  -14.9880 C   0  0  0  0  0  0  0  0  0  0  0  0
   17.3075  -21.0347  -15.6078 N   0  0  0  0  0  0  0  0  0  0  0  0
   17.2852  -22.1872  -16.2917 C   0  0  0  0  0  0  0  0  0  0  0  0
   18.4631  -22.8031  -16.1045 N   0  0  0  0  0  0  0  0  0  0  0  0
   20.2637  -21.0513  -12.7635 C   0  0  0  0  0  0  0  0  0  0  0  0
   19.2448  -20.1295  -12.6641 O   0  0  0  0  0  0  0  0  0  0  0  0
   20.4529  -21.8035  -11.7792 O   0  0  0  0  0  0  0  0  0  0  0  0
  2  9  1  0
  2  1  1  6
  3  2  1  0
  4  3  1  0
  4  5  2  0
  6  5  1  0
  7  8  2  0
  7  6  1  0
  8  4  1  0
  9 10  2  0
 12 11  1  0
 13 14  1  1
 13 12  1  0
 13 15  1  0
 15 16  1  6
 16  9  1  0
 17 18  2  0
 17 15  1  0
 19 17  1  0
 20 27  1  0
 20 19  1  0
 20 21  1  6
 22 21  1  0
 23 22  2  0
 24 25  1  0
 24 23  1  0
 25 26  2  0
 26 22  1  0
 27 28  1  0
 29 27  2  0
M  END
$$$$
