HIH.pdb
     RDKit          3D

 29 30  0  0  1  0  0  0  0  0999 V2000
   22.5230  -19.9452  -14.8085 N   0  0  0  0  0  0  0  0  0  0  0  0
   21.8434  -19.5509  -13.5933 C   0  0  1  0  0  0  0  0  0  0  0  0
   20.3591  -19.4685  -13.9063 C   0  0  0  0  0  0  0  0  0  0  0  0
   20.0387  -18.3098  -14.7790 C   0  0  0  0  0  0  0  0  0  0  0  0
   20.5335  -17.0437  -14.5955 C   0  0  0  0  0  0  0  0  0  0  0  0
   20.0267  -16.2714  -15.5726 N   0  0  0  0  0  0  0  0  0  0  0  0
   19.2422  -17.0401  -16.3358 C   0  0  0  0  0  0  0  0  0  0  0  0
   19.2459  -18.3139  -15.8451 N   0  0  0  0  0  0  0  0  0  0  0  0
   22.0016  -20.5731  -12.5221 C   0  0  0  0  0  0  0  0  0  0  0  0
   21.9584  -21.7971  -12.8247 O   0  0  0  0  0  0  0  0  0  0  0  0
   25.7701  -20.1537   -8.8765 C   0  0  0  0  0  0  0  0  0  0  0  0
   24.7479  -20.7540   -9.7823 C   0  0  0  0  0  0  0  0  0  0  0  0
   23.3623  -20.7881   -9.1762 C   0  0  2  0  0  0  0  0  0  0  0  0
   23.4036  -21.5555   -7.8777 C   0  0  0  0  0  0  0  0  0  0  0  0
   22.3378  -21.3012  -10.1320 C   0  0  2  0  0  0  0  0  0  0  0  0
   22.2006  -20.2592  -11.1643 N   0  0  0  0  0  0  0  0  0  0  0  0
   21.0119  -21.5822   -9.5145 C   0  0  0  0  0  0  0  0  0  0  0  0
   20.3285  -20.6276   -9.0693 O   0  0  0  0  0  0  0  0  0  0  0  0
   20.4858  -22.8870   -9.4072 N   0  0  0  0  0  0  0  0  0  0  0  0
   19.2340  -23.1812   -8.7533 C   0  0  1  0  0  0  0  0  0  0  0  0
   18.6105  -24.3722   -9.4368 C   0  0  0  0  0  0  0  0  0  0  0  0
   17.2753  -24.7286   -8.9081 C   0  0  0  0  0  0  0  0  0  0  0  0
   16.6533  -24.0388   -7.8780 C   0  0  0  0  0  0  0  0  0  0  0  0
   15.4709  -24.6439   -7.6739 N   0  0  0  0  0  0  0  0  0  0  0  0
   15.3505  -25.6662   -8.5322 C   0  0  0  0  0  0  0  0  0  0  0  0
   16.4618  -25.7092   -9.2840 N   0  0  0  0  0  0  0  0  0  0  0  0
   19.4255  -23.4976   -7.3145 C   0  0  0  0  0  0  0  0  0  0  0  0
   20.5908  -24.0001   -6.7783 O   0  0  0  0  0  0  0  0  0  0  0  0
   18.4719  -23.2992   -6.5262 O   0  0  0  0  0  0  0  0  0  0  0  0
  2  9  1  0
  2  1  1  6
  3  2  1  0
  4  3  1  0
  4  5  2  0
  6  5  1  0
  7  8  2  0
  7  6  1  0
  8  4  1  0
  9 10  2  0
 12 11  1  0
 13 14  1  1
 13 12  1  0
 13 15  1  0
 15 16  1  6
 16  9  1  0
 17 18  2  0
 17 15  1  0
 19 17  1  0
 20 27  1  0
 20 19  1  0
 20 21  1  6
 22 21  1  0
 23 22  2  0
 24 25  1  0
 24 23  1  0
 25 26  2  0
 26 22  1  0
 27 28  1  0
 29 27  2  0
M  END
$$$$
