HIH.pdb
     RDKit          3D

 29 30  0  0  1  0  0  0  0  0999 V2000
   27.5905  -15.7554  -20.6486 N   0  0  0  0  0  0  0  0  0  0  0  0
   27.0139  -14.4425  -20.8436 C   0  0  1  0  0  0  0  0  0  0  0  0
   25.5874  -14.6377  -21.3286 C   0  0  0  0  0  0  0  0  0  0  0  0
   25.5398  -15.1890  -22.7072 C   0  0  0  0  0  0  0  0  0  0  0  0
   24.9429  -14.5613  -23.7708 C   0  0  0  0  0  0  0  0  0  0  0  0
   25.1010  -15.3562  -24.8437 N   0  0  0  0  0  0  0  0  0  0  0  0
   25.7761  -16.4422  -24.4519 C   0  0  0  0  0  0  0  0  0  0  0  0
   26.0528  -16.3434  -23.1189 N   0  0  0  0  0  0  0  0  0  0  0  0
   26.9340  -13.6849  -19.5642 C   0  0  0  0  0  0  0  0  0  0  0  0
   26.6757  -14.3029  -18.4952 O   0  0  0  0  0  0  0  0  0  0  0  0
   30.1256   -9.7635  -16.5768 C   0  0  0  0  0  0  0  0  0  0  0  0
   28.7593  -10.3468  -16.7141 C   0  0  0  0  0  0  0  0  0  0  0  0
   28.5425  -11.0499  -18.0359 C   0  0  2  0  0  0  0  0  0  0  0  0
   28.9241  -10.1227  -19.1635 C   0  0  0  0  0  0  0  0  0  0  0  0
   27.1615  -11.5994  -18.1660 C   0  0  2  0  0  0  0  0  0  0  0  0
   27.1314  -12.2946  -19.4646 N   0  0  0  0  0  0  0  0  0  0  0  0
   26.0864  -10.5699  -18.1161 C   0  0  0  0  0  0  0  0  0  0  0  0
   25.9716   -9.7572  -19.0663 O   0  0  0  0  0  0  0  0  0  0  0  0
   25.1832  -10.4673  -17.0370 N   0  0  0  0  0  0  0  0  0  0  0  0
   24.1397   -9.4732  -16.9739 C   0  0  1  0  0  0  0  0  0  0  0  0
   23.3760   -9.6685  -15.6882 C   0  0  0  0  0  0  0  0  0  0  0  0
   22.2133   -8.7646  -15.5449 C   0  0  0  0  0  0  0  0  0  0  0  0
   21.7918   -7.8992  -16.5435 C   0  0  0  0  0  0  0  0  0  0  0  0
   20.7218   -7.2481  -16.0566 N   0  0  0  0  0  0  0  0  0  0  0  0
   20.4781   -7.6801  -14.8115 C   0  0  0  0  0  0  0  0  0  0  0  0
   21.3980   -8.6093  -14.5077 N   0  0  0  0  0  0  0  0  0  0  0  0
   24.6910   -8.0940  -17.0015 C   0  0  0  0  0  0  0  0  0  0  0  0
   25.6967   -7.6430  -16.1751 O   0  0  0  0  0  0  0  0  0  0  0  0
   24.2185   -7.2772  -17.8260 O   0  0  0  0  0  0  0  0  0  0  0  0
  2  9  1  0
  2  1  1  1
  3  2  1  0
  4  3  1  0
  4  5  2  0
  6  5  1  0
  7  8  2  0
  7  6  1  0
  8  4  1  0
  9 10  2  0
 12 11  1  0
 13 14  1  6
 13 12  1  0
 13 15  1  0
 15 16  1  6
 16  9  1  0
 17 18  2  0
 17 15  1  0
 19 17  1  0
 20 27  1  0
 20 19  1  0
 20 21  1  1
 22 21  1  0
 23 22  2  0
 24 25  1  0
 24 23  1  0
 25 26  2  0
 26 22  1  0
 27 28  1  0
 29 27  2  0
M  END
$$$$
