HIH.pdb
     RDKit          3D

 29 30  0  0  1  0  0  0  0  0999 V2000
   24.0090  -12.4763  -17.5915 N   0  0  0  0  0  0  0  0  0  0  0  0
   23.9868  -11.3834  -16.6433 C   0  0  1  0  0  0  0  0  0  0  0  0
   25.2779  -10.6017  -16.8172 C   0  0  0  0  0  0  0  0  0  0  0  0
   26.4717  -11.4182  -16.4779 C   0  0  0  0  0  0  0  0  0  0  0  0
   26.9438  -11.6051  -15.2037 C   0  0  0  0  0  0  0  0  0  0  0  0
   28.0286  -12.3948  -15.2916 N   0  0  0  0  0  0  0  0  0  0  0  0
   28.2188  -12.6857  -16.5831 C   0  0  0  0  0  0  0  0  0  0  0  0
   27.2497  -12.0787  -17.3286 N   0  0  0  0  0  0  0  0  0  0  0  0
   22.8703  -10.4389  -16.9237 C   0  0  0  0  0  0  0  0  0  0  0  0
   22.5277  -10.2245  -18.1188 O   0  0  0  0  0  0  0  0  0  0  0  0
   18.5870  -12.0409  -15.9720 C   0  0  0  0  0  0  0  0  0  0  0  0
   19.5075  -11.0438  -16.5920 C   0  0  0  0  0  0  0  0  0  0  0  0
   19.8072   -9.8682  -15.6884 C   0  0  2  0  0  0  0  0  0  0  0  0
   18.5346   -9.0999  -15.4293 C   0  0  0  0  0  0  0  0  0  0  0  0
   20.9135   -9.0163  -16.2144 C   0  0  2  0  0  0  0  0  0  0  0  0
   22.1553   -9.7536  -15.9232 N   0  0  0  0  0  0  0  0  0  0  0  0
   20.9773   -7.6559  -15.6116 C   0  0  0  0  0  0  0  0  0  0  0  0
   21.1411   -7.5420  -14.3719 O   0  0  0  0  0  0  0  0  0  0  0  0
   20.8605   -6.4787  -16.3805 N   0  0  0  0  0  0  0  0  0  0  0  0
   20.8321   -5.1578  -15.8011 C   0  0  1  0  0  0  0  0  0  0  0  0
   21.5693   -4.2196  -16.7233 C   0  0  0  0  0  0  0  0  0  0  0  0
   23.0022   -4.5512  -16.8862 C   0  0  0  0  0  0  0  0  0  0  0  0
   23.5162   -5.1845  -18.0079 C   0  0  0  0  0  0  0  0  0  0  0  0
   24.8371   -5.3171  -17.7987 N   0  0  0  0  0  0  0  0  0  0  0  0
   25.1437   -4.7936  -16.6036 C   0  0  0  0  0  0  0  0  0  0  0  0
   24.0120   -4.3270  -16.0528 N   0  0  0  0  0  0  0  0  0  0  0  0
   19.4421   -4.6647  -15.6232 C   0  0  0  0  0  0  0  0  0  0  0  0
   19.0764   -3.6760  -14.7362 O   0  0  0  0  0  0  0  0  0  0  0  0
   18.5330   -5.1736  -16.3195 O   0  0  0  0  0  0  0  0  0  0  0  0
  2  9  1  0
  2  1  1  6
  3  2  1  0
  4  3  1  0
  4  5  2  0
  6  5  1  0
  7  8  2  0
  7  6  1  0
  8  4  1  0
  9 10  2  0
 12 11  1  0
 13 14  1  6
 13 12  1  0
 13 15  1  0
 15 16  1  1
 16  9  1  0
 17 18  2  0
 17 15  1  0
 19 17  1  0
 20 27  1  0
 20 19  1  0
 20 21  1  6
 22 21  1  0
 23 22  2  0
 24 25  1  0
 24 23  1  0
 25 26  2  0
 26 22  1  0
 27 28  1  0
 29 27  2  0
M  END
$$$$
