HIH.pdb
     RDKit          3D

 29 30  0  0  1  0  0  0  0  0999 V2000
   26.0648  -12.6571  -19.3281 N   0  0  0  0  0  0  0  0  0  0  0  0
   25.8936  -11.8539  -18.1365 C   0  0  1  0  0  0  0  0  0  0  0  0
   26.8490  -10.6771  -18.2379 C   0  0  0  0  0  0  0  0  0  0  0  0
   28.2695  -11.1115  -18.2206 C   0  0  0  0  0  0  0  0  0  0  0  0
   28.6781  -12.4139  -18.0858 C   0  0  0  0  0  0  0  0  0  0  0  0
   30.0224  -12.4158  -18.1150 N   0  0  0  0  0  0  0  0  0  0  0  0
   30.4298  -11.1506  -18.2636 C   0  0  0  0  0  0  0  0  0  0  0  0
   29.3397  -10.3318  -18.3301 N   0  0  0  0  0  0  0  0  0  0  0  0
   24.5192  -11.2870  -18.0521 C   0  0  0  0  0  0  0  0  0  0  0  0
   23.9485  -10.8907  -19.1051 O   0  0  0  0  0  0  0  0  0  0  0  0
   20.6031  -13.9331  -16.9364 C   0  0  0  0  0  0  0  0  0  0  0  0
   21.3620  -12.7431  -17.4200 C   0  0  0  0  0  0  0  0  0  0  0  0
   21.5468  -11.6828  -16.3570 C   0  0  2  0  0  0  0  0  0  0  0  0
   20.1948  -11.1998  -15.8926 C   0  0  0  0  0  0  0  0  0  0  0  0
   22.4446  -10.5792  -16.8069 C   0  0  2  0  0  0  0  0  0  0  0  0
   23.7976  -11.1605  -16.8501 N   0  0  0  0  0  0  0  0  0  0  0  0
   22.4339   -9.3824  -15.9205 C   0  0  0  0  0  0  0  0  0  0  0  0
   22.7509   -9.5118  -14.7125 O   0  0  0  0  0  0  0  0  0  0  0  0
   22.0798   -8.0977  -16.3839 N   0  0  0  0  0  0  0  0  0  0  0  0
   21.9473   -6.9544  -15.5142 C   0  0  1  0  0  0  0  0  0  0  0  0
   22.2070   -5.7094  -16.3248 C   0  0  0  0  0  0  0  0  0  0  0  0
   22.0476   -4.4558  -15.5551 C   0  0  0  0  0  0  0  0  0  0  0  0
   22.0461   -4.4061  -14.1690 C   0  0  0  0  0  0  0  0  0  0  0  0
   21.8796   -3.1153  -13.8343 N   0  0  0  0  0  0  0  0  0  0  0  0
   21.7808   -2.3842  -14.9532 C   0  0  0  0  0  0  0  0  0  0  0  0
   21.8850   -3.2154  -16.0020 N   0  0  0  0  0  0  0  0  0  0  0  0
   20.5878   -6.8682  -14.9216 C   0  0  0  0  0  0  0  0  0  0  0  0
   20.3335   -6.5614  -13.6029 O   0  0  0  0  0  0  0  0  0  0  0  0
   19.5987   -7.0872  -15.6592 O   0  0  0  0  0  0  0  0  0  0  0  0
  2  9  1  0
  2  1  1  6
  3  2  1  0
  4  3  1  0
  4  5  2  0
  6  5  1  0
  7  8  2  0
  7  6  1  0
  8  4  1  0
  9 10  2  0
 12 11  1  0
 13 14  1  6
 13 12  1  0
 13 15  1  0
 15 16  1  1
 16  9  1  0
 17 18  2  0
 17 15  1  0
 19 17  1  0
 20 27  1  0
 20 19  1  0
 20 21  1  6
 22 21  1  0
 23 22  2  0
 24 25  1  0
 24 23  1  0
 25 26  2  0
 26 22  1  0
 27 28  1  0
 29 27  2  0
M  END
$$$$
