HIH.pdb
     RDKit          3D

 29 30  0  0  1  0  0  0  0  0999 V2000
   18.8874  -14.9073  -16.4121 N   0  0  0  0  0  0  0  0  0  0  0  0
   19.0259  -13.6078  -17.0336 C   0  0  1  0  0  0  0  0  0  0  0  0
   17.6295  -13.1089  -17.3647 C   0  0  0  0  0  0  0  0  0  0  0  0
   17.0190  -13.8693  -18.4853 C   0  0  0  0  0  0  0  0  0  0  0  0
   17.4004  -15.1321  -18.8612 C   0  0  0  0  0  0  0  0  0  0  0  0
   16.6287  -15.4889  -19.9029 N   0  0  0  0  0  0  0  0  0  0  0  0
   15.7960  -14.4747  -20.1610 C   0  0  0  0  0  0  0  0  0  0  0  0
   16.0351  -13.4606  -19.2791 N   0  0  0  0  0  0  0  0  0  0  0  0
   19.6273  -12.6163  -16.0996 C   0  0  0  0  0  0  0  0  0  0  0  0
   19.1760  -12.5206  -14.9254 O   0  0  0  0  0  0  0  0  0  0  0  0
   24.3558  -12.6750  -14.6750 C   0  0  0  0  0  0  0  0  0  0  0  0
   22.9034  -12.3451  -14.7609 C   0  0  0  0  0  0  0  0  0  0  0  0
   22.6373  -10.9813  -15.3590 C   0  0  2  0  0  0  0  0  0  0  0  0
   23.3440   -9.9297  -14.5395 C   0  0  0  0  0  0  0  0  0  0  0  0
   21.1799  -10.7127  -15.5324 C   0  0  2  0  0  0  0  0  0  0  0  0
   20.6891  -11.7593  -16.4458 N   0  0  0  0  0  0  0  0  0  0  0  0
   20.8680   -9.3665  -16.0881 C   0  0  0  0  0  0  0  0  0  0  0  0
   21.4619   -8.9786  -17.1242 O   0  0  0  0  0  0  0  0  0  0  0  0
   19.9254   -8.5003  -15.4951 N   0  0  0  0  0  0  0  0  0  0  0  0
   19.6330   -7.1835  -16.0069 C   0  0  1  0  0  0  0  0  0  0  0  0
   18.3455   -6.7074  -15.3825 C   0  0  0  0  0  0  0  0  0  0  0  0
   17.8953   -5.3893  -15.8820 C   0  0  0  0  0  0  0  0  0  0  0  0
   18.1134   -4.9496  -17.1792 C   0  0  0  0  0  0  0  0  0  0  0  0
   17.5708   -3.7229  -17.2619 N   0  0  0  0  0  0  0  0  0  0  0  0
   17.0358   -3.4021  -16.0757 C   0  0  0  0  0  0  0  0  0  0  0  0
   17.2402   -4.4303  -15.2372 N   0  0  0  0  0  0  0  0  0  0  0  0
   20.7121   -6.2151  -15.6832 C   0  0  0  0  0  0  0  0  0  0  0  0
   21.2370   -5.3094  -16.5787 O   0  0  0  0  0  0  0  0  0  0  0  0
   21.1848   -6.2120  -14.5226 O   0  0  0  0  0  0  0  0  0  0  0  0
  2  9  1  0
  2  1  1  1
  3  2  1  0
  4  3  1  0
  4  5  2  0
  6  5  1  0
  7  8  2  0
  7  6  1  0
  8  4  1  0
  9 10  2  0
 12 11  1  0
 13 14  1  1
 13 12  1  0
 13 15  1  0
 15 16  1  6
 16  9  1  0
 17 18  2  0
 17 15  1  0
 19 17  1  0
 20 27  1  0
 20 19  1  0
 20 21  1  1
 22 21  1  0
 23 22  2  0
 24 25  1  0
 24 23  1  0
 25 26  2  0
 26 22  1  0
 27 28  1  0
 29 27  2  0
M  END
$$$$
