HIH.pdb
     RDKit          3D

 29 30  0  0  1  0  0  0  0  0999 V2000
   14.4809  -11.5341  -12.5486 N   0  0  0  0  0  0  0  0  0  0  0  0
   15.5265  -10.5454  -12.3949 C   0  0  1  0  0  0  0  0  0  0  0  0
   16.0897  -10.2579  -13.7764 C   0  0  0  0  0  0  0  0  0  0  0  0
   16.7674  -11.4450  -14.3581 C   0  0  0  0  0  0  0  0  0  0  0  0
   16.2550  -12.2050  -15.3786 C   0  0  0  0  0  0  0  0  0  0  0  0
   17.1425  -13.1826  -15.6329 N   0  0  0  0  0  0  0  0  0  0  0  0
   18.1718  -13.0289  -14.7929 C   0  0  0  0  0  0  0  0  0  0  0  0
   17.9432  -11.9456  -13.9946 N   0  0  0  0  0  0  0  0  0  0  0  0
   14.9896   -9.2586  -11.8723 C   0  0  0  0  0  0  0  0  0  0  0  0
   13.8668   -8.8482  -12.2756 O   0  0  0  0  0  0  0  0  0  0  0  0
   13.4495   -8.6326   -7.2555 C   0  0  0  0  0  0  0  0  0  0  0  0
   13.7474   -8.4422   -8.7049 C   0  0  0  0  0  0  0  0  0  0  0  0
   14.8569   -7.4457   -8.9585 C   0  0  2  0  0  0  0  0  0  0  0  0
   14.5819   -6.1828   -8.1799 C   0  0  0  0  0  0  0  0  0  0  0  0
   15.0806   -7.2043  -10.4138 C   0  0  2  0  0  0  0  0  0  0  0  0
   15.6650   -8.4509  -10.9379 N   0  0  0  0  0  0  0  0  0  0  0  0
   15.9814   -6.0563  -10.7119 C   0  0  0  0  0  0  0  0  0  0  0  0
   17.1539   -6.0646  -10.2625 O   0  0  0  0  0  0  0  0  0  0  0  0
   15.5704   -4.9496  -11.4845 N   0  0  0  0  0  0  0  0  0  0  0  0
   16.4440   -3.8499  -11.8142 C   0  0  1  0  0  0  0  0  0  0  0  0
   16.1021   -3.3729  -13.2034 C   0  0  0  0  0  0  0  0  0  0  0  0
   16.4842   -4.3257  -14.2692 C   0  0  0  0  0  0  0  0  0  0  0  0
   17.6425   -5.0877  -14.2323 C   0  0  0  0  0  0  0  0  0  0  0  0
   17.6502   -5.8236  -15.3567 N   0  0  0  0  0  0  0  0  0  0  0  0
   16.5511   -5.5413  -16.0699 C   0  0  0  0  0  0  0  0  0  0  0  0
   15.8435   -4.6222  -15.3944 N   0  0  0  0  0  0  0  0  0  0  0  0
   16.2872   -2.7185  -10.8644 C   0  0  0  0  0  0  0  0  0  0  0  0
   17.2013   -1.6989  -10.7133 O   0  0  0  0  0  0  0  0  0  0  0  0
   15.2603   -2.6772  -10.1473 O   0  0  0  0  0  0  0  0  0  0  0  0
  2  9  1  0
  2  1  1  6
  3  2  1  0
  4  3  1  0
  4  5  2  0
  6  5  1  0
  7  8  2  0
  7  6  1  0
  8  4  1  0
  9 10  2  0
 12 11  1  0
 13 14  1  1
 13 12  1  0
 13 15  1  0
 15 16  1  1
 16  9  1  0
 17 18  2  0
 17 15  1  0
 19 17  1  0
 20 27  1  0
 20 19  1  0
 20 21  1  6
 22 21  1  0
 23 22  2  0
 24 25  1  0
 24 23  1  0
 25 26  2  0
 26 22  1  0
 27 28  1  0
 29 27  2  0
M  END
$$$$
