HIH.pdb
     RDKit          3D

 29 30  0  0  1  0  0  0  0  0999 V2000
   29.4874  -28.8451  -15.5795 N   0  0  0  0  0  0  0  0  0  0  0  0
   28.6598  -28.6009  -16.7413 C   0  0  1  0  0  0  0  0  0  0  0  0
   27.7296  -29.7918  -16.8978 C   0  0  0  0  0  0  0  0  0  0  0  0
   28.4691  -31.0326  -17.2446 C   0  0  0  0  0  0  0  0  0  0  0  0
   29.1085  -31.2431  -18.4398 C   0  0  0  0  0  0  0  0  0  0  0  0
   29.6605  -32.4681  -18.3871 N   0  0  0  0  0  0  0  0  0  0  0  0
   29.3691  -32.9967  -17.1936 C   0  0  0  0  0  0  0  0  0  0  0  0
   28.6255  -32.1050  -16.4759 N   0  0  0  0  0  0  0  0  0  0  0  0
   27.7968  -27.4017  -16.5555 C   0  0  0  0  0  0  0  0  0  0  0  0
   27.2563  -27.1971  -15.4341 O   0  0  0  0  0  0  0  0  0  0  0  0
   30.0936  -23.1541  -17.1511 C   0  0  0  0  0  0  0  0  0  0  0  0
   29.0706  -24.1737  -16.7775 C   0  0  0  0  0  0  0  0  0  0  0  0
   27.8303  -24.1167  -17.6417 C   0  0  2  0  0  0  0  0  0  0  0  0
   27.2437  -22.7277  -17.5828 C   0  0  0  0  0  0  0  0  0  0  0  0
   26.8489  -25.1863  -17.2965 C   0  0  2  0  0  0  0  0  0  0  0  0
   27.5374  -26.4599  -17.5691 N   0  0  0  0  0  0  0  0  0  0  0  0
   25.5768  -25.1212  -18.0682 C   0  0  0  0  0  0  0  0  0  0  0  0
   25.5991  -25.3330  -19.3056 O   0  0  0  0  0  0  0  0  0  0  0  0
   24.3361  -24.8291  -17.4632 N   0  0  0  0  0  0  0  0  0  0  0  0
   23.1003  -24.7385  -18.2021 C   0  0  1  0  0  0  0  0  0  0  0  0
   22.0665  -25.5847  -17.5024 C   0  0  0  0  0  0  0  0  0  0  0  0
   22.3342  -27.0376  -17.5842 C   0  0  0  0  0  0  0  0  0  0  0  0
   22.6314  -27.6934  -18.7697 C   0  0  0  0  0  0  0  0  0  0  0  0
   22.8096  -28.9876  -18.4549 N   0  0  0  0  0  0  0  0  0  0  0  0
   22.6339  -29.1433  -17.1353 C   0  0  0  0  0  0  0  0  0  0  0  0
   22.3429  -27.9421  -16.6114 N   0  0  0  0  0  0  0  0  0  0  0  0
   22.6060  -23.3397  -18.2785 C   0  0  0  0  0  0  0  0  0  0  0  0
   21.6485  -22.9018  -19.1670 O   0  0  0  0  0  0  0  0  0  0  0  0
   23.0837  -22.4923  -17.4885 O   0  0  0  0  0  0  0  0  0  0  0  0
  2  9  1  0
  2  1  1  1
  3  2  1  0
  4  3  1  0
  4  5  2  0
  6  5  1  0
  7  8  2  0
  7  6  1  0
  8  4  1  0
  9 10  2  0
 12 11  1  0
 13 14  1  1
 13 12  1  0
 13 15  1  0
 15 16  1  6
 16  9  1  0
 17 18  2  0
 17 15  1  0
 19 17  1  0
 20 27  1  0
 20 19  1  0
 20 21  1  1
 22 21  1  0
 23 22  2  0
 24 25  1  0
 24 23  1  0
 25 26  2  0
 26 22  1  0
 27 28  1  0
 29 27  2  0
M  END
$$$$
