HIH.pdb
     RDKit          3D

 29 30  0  0  1  0  0  0  0  0999 V2000
   23.4152  -33.0475  -10.5847 N   0  0  0  0  0  0  0  0  0  0  0  0
   23.9545  -32.4277   -9.3933 C   0  0  1  0  0  0  0  0  0  0  0  0
   22.7834  -31.8933   -8.5865 C   0  0  0  0  0  0  0  0  0  0  0  0
   22.1724  -30.6965   -9.2198 C   0  0  0  0  0  0  0  0  0  0  0  0
   22.7470  -29.4511   -9.2342 C   0  0  0  0  0  0  0  0  0  0  0  0
   21.9081  -28.6318   -9.8923 N   0  0  0  0  0  0  0  0  0  0  0  0
   20.8474  -29.3523  -10.2723 C   0  0  0  0  0  0  0  0  0  0  0  0
   21.0068  -30.6422   -9.8552 N   0  0  0  0  0  0  0  0  0  0  0  0
   24.6552  -33.4190   -8.5309 C   0  0  0  0  0  0  0  0  0  0  0  0
   24.4079  -34.6476   -8.6751 O   0  0  0  0  0  0  0  0  0  0  0  0
   29.5530  -32.4024   -8.5582 C   0  0  0  0  0  0  0  0  0  0  0  0
   28.3126  -33.2249   -8.4542 C   0  0  0  0  0  0  0  0  0  0  0  0
   27.8689  -33.4549   -7.0264 C   0  0  2  0  0  0  0  0  0  0  0  0
   28.9216  -34.2543   -6.2986 C   0  0  0  0  0  0  0  0  0  0  0  0
   26.5079  -34.0611   -6.9462 C   0  0  2  0  0  0  0  0  0  0  0  0
   25.5959  -33.0701   -7.5434 N   0  0  0  0  0  0  0  0  0  0  0  0
   26.0654  -34.3897   -5.5626 C   0  0  0  0  0  0  0  0  0  0  0  0
   25.9121  -33.4610   -4.7315 O   0  0  0  0  0  0  0  0  0  0  0  0
   25.8087  -35.7116   -5.1416 N   0  0  0  0  0  0  0  0  0  0  0  0
   25.4474  -36.0517   -3.7869 C   0  0  1  0  0  0  0  0  0  0  0  0
   25.1459  -37.5284   -3.7332 C   0  0  0  0  0  0  0  0  0  0  0  0
   24.7421  -38.0035   -2.3913 C   0  0  0  0  0  0  0  0  0  0  0  0
   24.3272  -37.1563   -1.3746 C   0  0  0  0  0  0  0  0  0  0  0  0
   24.0468  -37.9380   -0.3181 N   0  0  0  0  0  0  0  0  0  0  0  0
   24.2731  -39.2167   -0.6497 C   0  0  0  0  0  0  0  0  0  0  0  0
   24.6989  -39.2457   -1.9224 N   0  0  0  0  0  0  0  0  0  0  0  0
   26.5447  -35.7494   -2.8323 C   0  0  0  0  0  0  0  0  0  0  0  0
   26.3904  -35.0088   -1.6809 O   0  0  0  0  0  0  0  0  0  0  0  0
   27.6912  -36.1909   -3.0792 O   0  0  0  0  0  0  0  0  0  0  0  0
  2  9  1  0
  2  1  1  6
  3  2  1  0
  4  3  1  0
  4  5  2  0
  6  5  1  0
  7  8  2  0
  7  6  1  0
  8  4  1  0
  9 10  2  0
 12 11  1  0
 13 14  1  6
 13 12  1  0
 13 15  1  0
 15 16  1  1
 16  9  1  0
 17 18  2  0
 17 15  1  0
 19 17  1  0
 20 27  1  0
 20 19  1  0
 20 21  1  6
 22 21  1  0
 23 22  2  0
 24 25  1  0
 24 23  1  0
 25 26  2  0
 26 22  1  0
 27 28  1  0
 29 27  2  0
M  END
$$$$
