HIH.pdb
     RDKit          3D

 29 30  0  0  1  0  0  0  0  0999 V2000
   27.9461  -24.2076  -17.1925 N   0  0  0  0  0  0  0  0  0  0  0  0
   26.6256  -23.7551  -17.5744 C   0  0  1  0  0  0  0  0  0  0  0  0
   25.8195  -24.9808  -17.9697 C   0  0  0  0  0  0  0  0  0  0  0  0
   26.2743  -25.5512  -19.2638 C   0  0  0  0  0  0  0  0  0  0  0  0
   25.6582  -25.3239  -20.4680 C   0  0  0  0  0  0  0  0  0  0  0  0
   26.3485  -25.9995  -21.4036 N   0  0  0  0  0  0  0  0  0  0  0  0
   27.3607  -26.6248  -20.7927 C   0  0  0  0  0  0  0  0  0  0  0  0
   27.3194  -26.3486  -19.4565 N   0  0  0  0  0  0  0  0  0  0  0  0
   25.9129  -23.1213  -16.4309 C   0  0  0  0  0  0  0  0  0  0  0  0
   26.1032  -23.5610  -15.2639 O   0  0  0  0  0  0  0  0  0  0  0  0
   26.7035  -18.3278  -15.4890 C   0  0  0  0  0  0  0  0  0  0  0  0
   26.2876  -19.7560  -15.3760 C   0  0  0  0  0  0  0  0  0  0  0  0
   24.7916  -19.9510  -15.4885 C   0  0  2  0  0  0  0  0  0  0  0  0
   24.0963  -19.0805  -14.4708 C   0  0  0  0  0  0  0  0  0  0  0  0
   24.3989  -21.3878  -15.4020 C   0  0  2  0  0  0  0  0  0  0  0  0
   25.0213  -22.0404  -16.5670 N   0  0  0  0  0  0  0  0  0  0  0  0
   22.9281  -21.6215  -15.4145 C   0  0  0  0  0  0  0  0  0  0  0  0
   22.2479  -21.1950  -16.3800 O   0  0  0  0  0  0  0  0  0  0  0  0
   22.2597  -22.3079  -14.3787 N   0  0  0  0  0  0  0  0  0  0  0  0
   20.8275  -22.4772  -14.3408 C   0  0  1  0  0  0  0  0  0  0  0  0
   20.4908  -23.4151  -13.2088 C   0  0  0  0  0  0  0  0  0  0  0  0
   19.0417  -23.6781  -13.0666 C   0  0  0  0  0  0  0  0  0  0  0  0
   18.3516  -24.5924  -13.8485 C   0  0  0  0  0  0  0  0  0  0  0  0
   17.0729  -24.5574  -13.4367 N   0  0  0  0  0  0  0  0  0  0  0  0
   16.9593  -23.6649  -12.4432 C   0  0  0  0  0  0  0  0  0  0  0  0
   18.1716  -23.1318  -12.2244 N   0  0  0  0  0  0  0  0  0  0  0  0
   20.1263  -21.1861  -14.1210 C   0  0  0  0  0  0  0  0  0  0  0  0
   20.5433  -20.2168  -13.2353 O   0  0  0  0  0  0  0  0  0  0  0  0
   19.0854  -20.9512  -14.7781 O   0  0  0  0  0  0  0  0  0  0  0  0
  2  9  1  0
  2  1  1  1
  3  2  1  0
  4  3  1  0
  4  5  2  0
  6  5  1  0
  7  8  2  0
  7  6  1  0
  8  4  1  0
  9 10  2  0
 12 11  1  0
 13 14  1  1
 13 12  1  0
 13 15  1  0
 15 16  1  6
 16  9  1  0
 17 18  2  0
 17 15  1  0
 19 17  1  0
 20 27  1  0
 20 19  1  0
 20 21  1  1
 22 21  1  0
 23 22  2  0
 24 25  1  0
 24 23  1  0
 25 26  2  0
 26 22  1  0
 27 28  1  0
 29 27  2  0
M  END
$$$$
