HIH.pdb
     RDKit          3D

 29 30  0  0  1  0  0  0  0  0999 V2000
   13.1363  -12.0981  -11.9192 N   0  0  0  0  0  0  0  0  0  0  0  0
   14.4394  -11.6931  -11.4376 C   0  0  1  0  0  0  0  0  0  0  0  0
   15.4610  -12.1045  -12.4841 C   0  0  0  0  0  0  0  0  0  0  0  0
   15.6165  -13.5799  -12.5589 C   0  0  0  0  0  0  0  0  0  0  0  0
   16.6684  -14.2750  -12.0187 C   0  0  0  0  0  0  0  0  0  0  0  0
   16.4652  -15.5773  -12.2844 N   0  0  0  0  0  0  0  0  0  0  0  0
   15.3207  -15.6811  -12.9687 C   0  0  0  0  0  0  0  0  0  0  0  0
   14.7863  -14.4372  -13.1431 N   0  0  0  0  0  0  0  0  0  0  0  0
   14.5358  -10.2135  -11.2998 C   0  0  0  0  0  0  0  0  0  0  0  0
   14.0015   -9.4756  -12.1724 O   0  0  0  0  0  0  0  0  0  0  0  0
   12.7530   -7.9785   -7.1613 C   0  0  0  0  0  0  0  0  0  0  0  0
   13.2486   -8.1706   -8.5553 C   0  0  0  0  0  0  0  0  0  0  0  0
   14.7121   -7.8245   -8.7196 C   0  0  2  0  0  0  0  0  0  0  0  0
   14.9413   -6.3999   -8.2781 C   0  0  0  0  0  0  0  0  0  0  0  0
   15.2089   -8.1015  -10.0989 C   0  0  2  0  0  0  0  0  0  0  0  0
   15.1975   -9.5681  -10.2381 N   0  0  0  0  0  0  0  0  0  0  0  0
   16.5749   -7.5758  -10.3740 C   0  0  0  0  0  0  0  0  0  0  0  0
   17.5612   -8.1047   -9.8048 O   0  0  0  0  0  0  0  0  0  0  0  0
   16.8108   -6.4990  -11.2547 N   0  0  0  0  0  0  0  0  0  0  0  0
   18.1330   -6.0782  -11.6495 C   0  0  1  0  0  0  0  0  0  0  0  0
   18.7514   -7.1750  -12.4796 C   0  0  0  0  0  0  0  0  0  0  0  0
   20.0433   -6.7977  -13.0945 C   0  0  0  0  0  0  0  0  0  0  0  0
   21.2742   -7.1469  -12.5593 C   0  0  0  0  0  0  0  0  0  0  0  0
   22.2060   -6.6348  -13.3811 N   0  0  0  0  0  0  0  0  0  0  0  0
   21.5950   -5.9931  -14.3867 C   0  0  0  0  0  0  0  0  0  0  0  0
   20.2698   -6.0991  -14.2015 N   0  0  0  0  0  0  0  0  0  0  0  0
   18.0962   -4.8291  -12.4527 C   0  0  0  0  0  0  0  0  0  0  0  0
   19.1331   -3.9255  -12.5314 O   0  0  0  0  0  0  0  0  0  0  0  0
   17.0591   -4.5683  -13.1061 O   0  0  0  0  0  0  0  0  0  0  0  0
  2  9  1  0
  2  1  1  6
  3  2  1  0
  4  3  1  0
  4  5  2  0
  6  5  1  0
  7  8  2  0
  7  6  1  0
  8  4  1  0
  9 10  2  0
 12 11  1  0
 13 14  1  6
 13 12  1  0
 13 15  1  0
 15 16  1  1
 16  9  1  0
 17 18  2  0
 17 15  1  0
 19 17  1  0
 20 27  1  0
 20 19  1  0
 20 21  1  6
 22 21  1  0
 23 22  2  0
 24 25  1  0
 24 23  1  0
 25 26  2  0
 26 22  1  0
 27 28  1  0
 29 27  2  0
M  END
$$$$
