YVG.pdb
     RDKit          3D

 24 24  0  0  1  0  0  0  0  0999 V2000
    6.6102  -10.5504   26.9684 O   0  0  0  0  0  0  0  0  0  0  0  0
    6.8396  -11.9254   26.8190 C   0  0  0  0  0  0  0  0  0  0  0  0
    8.1309  -12.3597   26.7825 C   0  0  0  0  0  0  0  0  0  0  0  0
    8.3672  -13.7303   26.6337 C   0  0  0  0  0  0  0  0  0  0  0  0
    7.3222  -14.6140   26.5273 C   0  0  0  0  0  0  0  0  0  0  0  0
    7.5972  -16.0473   26.3720 C   0  0  0  0  0  0  0  0  0  0  0  0
    6.7038  -16.6966   25.3243 C   0  0  2  0  0  0  0  0  0  0  0  0
    6.2361  -17.9999   25.7868 N   0  0  0  0  0  0  0  0  0  0  0  0
    7.5429  -16.8513   24.0997 C   0  0  0  0  0  0  0  0  0  0  0  0
    8.2616  -17.8717   24.0124 O   0  0  0  0  0  0  0  0  0  0  0  0
    6.0355  -14.1381   26.5685 C   0  0  0  0  0  0  0  0  0  0  0  0
    5.7760  -12.7900   26.7146 C   0  0  0  0  0  0  0  0  0  0  0  0
    8.4700  -13.6082   21.1590 C   0  0  0  0  0  0  0  0  0  0  0  0
    7.9378  -14.9772   20.8272 C   0  0  2  0  0  0  0  0  0  0  0  0
    6.4565  -14.9791   20.5842 C   0  0  0  0  0  0  0  0  0  0  0  0
    8.3020  -16.0021   21.8722 C   0  0  2  0  0  0  0  0  0  0  0  0
    7.5166  -15.8645   23.0747 N   0  0  0  0  0  0  0  0  0  0  0  0
    9.7553  -15.9744   22.1768 C   0  0  0  0  0  0  0  0  0  0  0  0
   10.1772  -15.0320   22.8957 O   0  0  0  0  0  0  0  0  0  0  0  0
   10.6604  -16.9488   21.6975 N   0  0  0  0  0  0  0  0  0  0  0  0
   12.0619  -16.8278   22.0407 C   0  0  0  0  0  0  0  0  0  0  0  0
   12.8336  -16.4846   20.8374 C   0  0  0  0  0  0  0  0  0  0  0  0
   12.2668  -16.4357   19.7305 O   0  0  0  0  0  0  0  0  0  0  0  0
   14.1767  -16.2184   20.9327 O   0  0  0  0  0  0  0  0  0  0  0  0
  2  1  1  0
  3  2  2  0
  4  3  1  0
  5  4  2  0
  5 11  1  0
  6  5  1  0
  7  8  1  1
  7  6  1  0
  9  7  1  0
 10  9  2  0
 11 12  2  0
 12  2  1  0
 14 13  1  1
 14 15  1  0
 16 17  1  1
 16 14  1  0
 17  9  1  0
 18 16  1  0
 19 18  2  0
 20 18  1  0
 21 20  1  0
 22 24  1  0
 22 21  1  0
 23 22  2  0
M  END
$$$$
