YVG.pdb
     RDKit          3D

 24 24  0  0  1  0  0  0  0  0999 V2000
    5.9242  -10.4773   28.1027 O   0  0  0  0  0  0  0  0  0  0  0  0
    6.3991  -11.6543   27.5072 C   0  0  0  0  0  0  0  0  0  0  0  0
    7.6658  -12.0584   27.8067 C   0  0  0  0  0  0  0  0  0  0  0  0
    8.1462  -13.2319   27.2162 C   0  0  0  0  0  0  0  0  0  0  0  0
    7.3590  -13.9567   26.3564 C   0  0  0  0  0  0  0  0  0  0  0  0
    7.8869  -15.1846   25.7501 C   0  0  0  0  0  0  0  0  0  0  0  0
    6.8232  -15.9496   24.9751 C   0  0  2  0  0  0  0  0  0  0  0  0
    6.3574  -17.0998   25.7441 N   0  0  0  0  0  0  0  0  0  0  0  0
    7.4737  -16.4007   23.7097 C   0  0  0  0  0  0  0  0  0  0  0  0
    7.5627  -17.6325   23.5088 O   0  0  0  0  0  0  0  0  0  0  0  0
    6.0885  -13.5173   26.0795 C   0  0  0  0  0  0  0  0  0  0  0  0
    5.5912  -12.3624   26.6496 C   0  0  0  0  0  0  0  0  0  0  0  0
    9.0208  -13.4999   20.8414 C   0  0  0  0  0  0  0  0  0  0  0  0
    8.1473  -14.6646   20.4568 C   0  0  2  0  0  0  0  0  0  0  0  0
    6.7050  -14.2794   20.2996 C   0  0  0  0  0  0  0  0  0  0  0  0
    8.2825  -15.8225   21.4140 C   0  0  2  0  0  0  0  0  0  0  0  0
    7.9708  -15.4518   22.7731 N   0  0  0  0  0  0  0  0  0  0  0  0
    9.6271  -16.4467   21.3250 C   0  0  0  0  0  0  0  0  0  0  0  0
    9.9791  -16.9038   20.2070 O   0  0  0  0  0  0  0  0  0  0  0  0
   10.5051  -16.5426   22.4288 N   0  0  0  0  0  0  0  0  0  0  0  0
   11.7463  -17.2716   22.2714 C   0  0  0  0  0  0  0  0  0  0  0  0
   12.8460  -16.3235   22.0410 C   0  0  0  0  0  0  0  0  0  0  0  0
   12.5979  -15.1727   21.6371 O   0  0  0  0  0  0  0  0  0  0  0  0
   14.1443  -16.7050   22.2701 O   0  0  0  0  0  0  0  0  0  0  0  0
  2  1  1  0
  3  2  2  0
  4  3  1  0
  5  4  2  0
  5 11  1  0
  6  5  1  0
  7  8  1  1
  7  6  1  0
  9  7  1  0
 10  9  2  0
 11 12  2  0
 12  2  1  0
 14 13  1  1
 14 15  1  0
 16 17  1  1
 16 14  1  0
 17  9  1  0
 18 16  1  0
 19 18  2  0
 20 18  1  0
 21 20  1  0
 22 24  1  0
 22 21  1  0
 23 22  2  0
M  END
$$$$
