YVG.pdb
     RDKit          3D

 24 24  0  0  1  0  0  0  0  0999 V2000
   10.6032  -14.5644   30.8857 O   0  0  0  0  0  0  0  0  0  0  0  0
   10.2653  -14.8049   29.5465 C   0  0  0  0  0  0  0  0  0  0  0  0
   10.4014  -16.0741   29.0690 C   0  0  0  0  0  0  0  0  0  0  0  0
   10.0661  -16.3213   27.7336 C   0  0  0  0  0  0  0  0  0  0  0  0
    9.6113  -15.3086   26.9264 C   0  0  0  0  0  0  0  0  0  0  0  0
    9.2663  -15.5945   25.5288 C   0  0  0  0  0  0  0  0  0  0  0  0
    7.7712  -15.4768   25.2673 C   0  0  2  0  0  0  0  0  0  0  0  0
    7.0373  -16.4820   26.0303 N   0  0  0  0  0  0  0  0  0  0  0  0
    7.5858  -15.6995   23.8032 C   0  0  0  0  0  0  0  0  0  0  0  0
    6.9576  -16.7207   23.4453 O   0  0  0  0  0  0  0  0  0  0  0  0
    9.4877  -14.0434   27.4439 C   0  0  0  0  0  0  0  0  0  0  0  0
    9.8121  -13.7738   28.7585 C   0  0  0  0  0  0  0  0  0  0  0  0
    7.0169  -12.5815   21.2501 C   0  0  0  0  0  0  0  0  0  0  0  0
    7.9666  -13.6137   20.7021 C   0  0  2  0  0  0  0  0  0  0  0  0
    7.7964  -13.8312   19.2266 C   0  0  0  0  0  0  0  0  0  0  0  0
    7.8769  -14.9248   21.4422 C   0  0  2  0  0  0  0  0  0  0  0  0
    8.1108  -14.7743   22.8580 N   0  0  0  0  0  0  0  0  0  0  0  0
    8.7852  -15.9429   20.8556 C   0  0  0  0  0  0  0  0  0  0  0  0
    8.4564  -16.4411   19.7481 O   0  0  0  0  0  0  0  0  0  0  0  0
    9.9797  -16.3619   21.4850 N   0  0  0  0  0  0  0  0  0  0  0  0
   10.8048  -17.3527   20.8262 C   0  0  0  0  0  0  0  0  0  0  0  0
   11.9146  -16.6836   20.1321 C   0  0  0  0  0  0  0  0  0  0  0  0
   11.6818  -15.9512   19.1531 O   0  0  0  0  0  0  0  0  0  0  0  0
   13.2055  -16.8652   20.5614 O   0  0  0  0  0  0  0  0  0  0  0  0
  2  1  1  0
  3  2  2  0
  4  3  1  0
  5  4  2  0
  5 11  1  0
  6  5  1  0
  7  8  1  1
  7  6  1  0
  9  7  1  0
 10  9  2  0
 11 12  2  0
 12  2  1  0
 14 13  1  1
 14 15  1  0
 16 17  1  1
 16 14  1  0
 17  9  1  0
 18 16  1  0
 19 18  2  0
 20 18  1  0
 21 20  1  0
 22 24  1  0
 22 21  1  0
 23 22  2  0
M  END
$$$$
