YVG.pdb
     RDKit          3D

 24 24  0  0  1  0  0  0  0  0999 V2000
    5.1805  -10.6208   27.6101 O   0  0  0  0  0  0  0  0  0  0  0  0
    5.8738  -11.7611   27.1803 C   0  0  0  0  0  0  0  0  0  0  0  0
    5.4554  -12.3725   26.0363 C   0  0  0  0  0  0  0  0  0  0  0  0
    6.1425  -13.5107   25.6015 C   0  0  0  0  0  0  0  0  0  0  0  0
    7.2115  -13.9977   26.3116 C   0  0  0  0  0  0  0  0  0  0  0  0
    7.9154  -15.1937   25.8338 C   0  0  0  0  0  0  0  0  0  0  0  0
    7.0094  -16.1132   25.0268 C   0  0  2  0  0  0  0  0  0  0  0  0
    6.7760  -17.3620   25.7460 N   0  0  0  0  0  0  0  0  0  0  0  0
    7.7233  -16.3793   23.7433 C   0  0  0  0  0  0  0  0  0  0  0  0
    8.3838  -17.4382   23.6542 O   0  0  0  0  0  0  0  0  0  0  0  0
    7.6029  -13.3542   27.4589 C   0  0  0  0  0  0  0  0  0  0  0  0
    6.9413  -12.2291   27.9090 C   0  0  0  0  0  0  0  0  0  0  0  0
    8.5073  -13.3868   20.5350 C   0  0  0  0  0  0  0  0  0  0  0  0
    7.8511  -14.7270   20.3324 C   0  0  2  0  0  0  0  0  0  0  0  0
    6.3557  -14.6317   20.2435 C   0  0  0  0  0  0  0  0  0  0  0  0
    8.2540  -15.7272   21.3870 C   0  0  2  0  0  0  0  0  0  0  0  0
    7.6466  -15.4522   22.6666 N   0  0  0  0  0  0  0  0  0  0  0  0
    9.7310  -15.8254   21.5066 C   0  0  0  0  0  0  0  0  0  0  0  0
   10.3135  -14.9550   22.2037 O   0  0  0  0  0  0  0  0  0  0  0  0
   10.4879  -16.8406   20.8779 N   0  0  0  0  0  0  0  0  0  0  0  0
   11.9318  -16.7963   20.9761 C   0  0  0  0  0  0  0  0  0  0  0  0
   12.5117  -17.8800   20.1696 C   0  0  0  0  0  0  0  0  0  0  0  0
   12.9460  -17.6392   19.0284 O   0  0  0  0  0  0  0  0  0  0  0  0
   12.5748  -19.1555   20.6726 O   0  0  0  0  0  0  0  0  0  0  0  0
  2  1  1  0
  3  2  2  0
  4  3  1  0
  5  4  2  0
  5 11  1  0
  6  5  1  0
  7  8  1  1
  7  6  1  0
  9  7  1  0
 10  9  2  0
 11 12  2  0
 12  2  1  0
 14 13  1  1
 14 15  1  0
 16 17  1  1
 16 14  1  0
 17  9  1  0
 18 16  1  0
 19 18  2  0
 20 18  1  0
 21 20  1  0
 22 24  1  0
 22 21  1  0
 23 22  2  0
M  END
$$$$
