YVG.pdb
     RDKit          3D

 24 24  0  0  1  0  0  0  0  0999 V2000
    5.1262  -10.6231   28.1572 O   0  0  0  0  0  0  0  0  0  0  0  0
    5.8283  -11.6000   27.4374 C   0  0  0  0  0  0  0  0  0  0  0  0
    6.9145  -12.1741   28.0274 C   0  0  0  0  0  0  0  0  0  0  0  0
    7.6198  -13.1496   27.3150 C   0  0  0  0  0  0  0  0  0  0  0  0
    7.2253  -13.5177   26.0528 C   0  0  0  0  0  0  0  0  0  0  0  0
    7.9827  -14.5440   25.3266 C   0  0  0  0  0  0  0  0  0  0  0  0
    7.0744  -15.5526   24.6374 C   0  0  2  0  0  0  0  0  0  0  0  0
    6.8418  -16.7062   25.5013 N   0  0  0  0  0  0  0  0  0  0  0  0
    7.7852  -15.9710   23.3934 C   0  0  0  0  0  0  0  0  0  0  0  0
    8.3142  -17.1048   23.3794 O   0  0  0  0  0  0  0  0  0  0  0  0
    6.1261  -12.9167   25.4924 C   0  0  0  0  0  0  0  0  0  0  0  0
    5.4132  -11.9513   26.1749 C   0  0  0  0  0  0  0  0  0  0  0  0
    8.7400  -13.2862   19.9722 C   0  0  0  0  0  0  0  0  0  0  0  0
    8.0245  -14.6075   19.8733 C   0  0  2  0  0  0  0  0  0  0  0  0
    6.5346  -14.4530   19.7749 C   0  0  0  0  0  0  0  0  0  0  0  0
    8.3845  -15.5398   21.0030 C   0  0  2  0  0  0  0  0  0  0  0  0
    7.8513  -15.1005   22.2697 N   0  0  0  0  0  0  0  0  0  0  0  0
    9.8520  -15.7520   21.0854 C   0  0  0  0  0  0  0  0  0  0  0  0
   10.5347  -14.8572   21.6476 O   0  0  0  0  0  0  0  0  0  0  0  0
   10.4937  -16.8994   20.5654 N   0  0  0  0  0  0  0  0  0  0  0  0
   11.9350  -16.9970   20.6630 C   0  0  0  0  0  0  0  0  0  0  0  0
   12.3852  -18.2492   20.0382 C   0  0  0  0  0  0  0  0  0  0  0  0
   13.6017  -18.4631   19.8848 O   0  0  0  0  0  0  0  0  0  0  0  0
   11.4672  -19.1819   19.6244 O   0  0  0  0  0  0  0  0  0  0  0  0
  2  1  1  0
  3  2  2  0
  4  3  1  0
  5  4  2  0
  5 11  1  0
  6  5  1  0
  7  8  1  1
  7  6  1  0
  9  7  1  0
 10  9  2  0
 11 12  2  0
 12  2  1  0
 14 13  1  1
 14 15  1  0
 16 17  1  1
 16 14  1  0
 17  9  1  0
 18 16  1  0
 19 18  2  0
 20 18  1  0
 21 20  1  0
 22 24  1  0
 22 21  1  0
 23 22  2  0
M  END
$$$$
