YVG.pdb
     RDKit          3D

 24 24  0  0  1  0  0  0  0  0999 V2000
    7.1539  -23.1743   29.6428 O   0  0  0  0  0  0  0  0  0  0  0  0
    7.2752  -22.0145   28.8645 C   0  0  0  0  0  0  0  0  0  0  0  0
    8.1884  -22.0140   27.8528 C   0  0  0  0  0  0  0  0  0  0  0  0
    8.3149  -20.8602   27.0721 C   0  0  0  0  0  0  0  0  0  0  0  0
    7.5369  -19.7571   27.3211 C   0  0  0  0  0  0  0  0  0  0  0  0
    7.6892  -18.5589   26.4872 C   0  0  0  0  0  0  0  0  0  0  0  0
    6.4282  -18.2423   25.6953 C   0  0  2  0  0  0  0  0  0  0  0  0
    6.0695  -19.3647   24.8335 N   0  0  0  0  0  0  0  0  0  0  0  0
    6.7444  -17.0374   24.8732 C   0  0  0  0  0  0  0  0  0  0  0  0
    7.0260  -17.2142   23.6669 O   0  0  0  0  0  0  0  0  0  0  0  0
    6.6283  -19.7961   28.3490 C   0  0  0  0  0  0  0  0  0  0  0  0
    6.4845  -20.9229   29.1339 C   0  0  0  0  0  0  0  0  0  0  0  0
    7.6312  -12.9489   26.6933 C   0  0  0  0  0  0  0  0  0  0  0  0
    6.9571  -13.2978   25.3927 C   0  0  2  0  0  0  0  0  0  0  0  0
    5.4595  -13.2585   25.4883 C   0  0  0  0  0  0  0  0  0  0  0  0
    7.4160  -14.6275   24.8484 C   0  0  2  0  0  0  0  0  0  0  0  0
    6.7227  -15.7386   25.4540 N   0  0  0  0  0  0  0  0  0  0  0  0
    8.8876  -14.7855   24.9698 C   0  0  0  0  0  0  0  0  0  0  0  0
    9.3911  -14.6484   26.1146 O   0  0  0  0  0  0  0  0  0  0  0  0
    9.7234  -15.0780   23.8677 N   0  0  0  0  0  0  0  0  0  0  0  0
   11.1534  -15.1608   24.0793 C   0  0  0  0  0  0  0  0  0  0  0  0
   11.8267  -15.3943   22.7935 C   0  0  0  0  0  0  0  0  0  0  0  0
   11.1529  -15.5177   21.7544 O   0  0  0  0  0  0  0  0  0  0  0  0
   13.1956  -15.4765   22.7373 O   0  0  0  0  0  0  0  0  0  0  0  0
  2  1  1  0
  3  2  2  0
  4  3  1  0
  5  4  2  0
  5 11  1  0
  6  5  1  0
  7  8  1  6
  7  6  1  0
  9  7  1  0
 10  9  2  0
 11 12  2  0
 12  2  1  0
 14 13  1  1
 14 15  1  0
 16 17  1  1
 16 14  1  0
 17  9  1  0
 18 16  1  0
 19 18  2  0
 20 18  1  0
 21 20  1  0
 22 24  1  0
 22 21  1  0
 23 22  2  0
M  END
$$$$
