YVG.pdb
     RDKit          3D

 24 24  0  0  1  0  0  0  0  0999 V2000
    6.0669  -10.4962   27.5491 O   0  0  0  0  0  0  0  0  0  0  0  0
    6.4994  -11.7546   27.1075 C   0  0  0  0  0  0  0  0  0  0  0  0
    5.5701  -12.6066   26.5900 C   0  0  0  0  0  0  0  0  0  0  0  0
    5.9945  -13.8638   26.1474 C   0  0  0  0  0  0  0  0  0  0  0  0
    7.3152  -14.2278   26.2335 C   0  0  0  0  0  0  0  0  0  0  0  0
    7.7346  -15.5530   25.7621 C   0  0  0  0  0  0  0  0  0  0  0  0
    6.7364  -16.1618   24.7873 C   0  0  2  0  0  0  0  0  0  0  0  0
    6.2372  -17.4363   25.2949 N   0  0  0  0  0  0  0  0  0  0  0  0
    7.4764  -16.3672   23.5075 C   0  0  0  0  0  0  0  0  0  0  0  0
    8.0242  -17.4771   23.3243 O   0  0  0  0  0  0  0  0  0  0  0  0
    8.2213  -13.3421   26.7609 C   0  0  0  0  0  0  0  0  0  0  0  0
    7.8275  -12.0954   27.2046 C   0  0  0  0  0  0  0  0  0  0  0  0
    8.6735  -13.1517   20.6614 C   0  0  0  0  0  0  0  0  0  0  0  0
    7.9108  -14.3981   20.2975 C   0  0  2  0  0  0  0  0  0  0  0  0
    6.4350  -14.1563   20.1672 C   0  0  0  0  0  0  0  0  0  0  0  0
    8.1767  -15.5325   21.2554 C   0  0  2  0  0  0  0  0  0  0  0  0
    7.5484  -15.3280   22.5381 N   0  0  0  0  0  0  0  0  0  0  0  0
    9.6322  -15.7852   21.4074 C   0  0  0  0  0  0  0  0  0  0  0  0
   10.2902  -14.9715   22.1058 O   0  0  0  0  0  0  0  0  0  0  0  0
   10.2889  -16.8842   20.8076 N   0  0  0  0  0  0  0  0  0  0  0  0
   11.7179  -17.0280   20.9915 C   0  0  0  0  0  0  0  0  0  0  0  0
   12.3700  -17.1620   19.6808 C   0  0  0  0  0  0  0  0  0  0  0  0
   11.6780  -17.2915   18.6545 O   0  0  0  0  0  0  0  0  0  0  0  0
   13.7393  -17.1447   19.5873 O   0  0  0  0  0  0  0  0  0  0  0  0
  2  1  1  0
  3  2  2  0
  4  3  1  0
  5  4  2  0
  5 11  1  0
  6  5  1  0
  7  8  1  1
  7  6  1  0
  9  7  1  0
 10  9  2  0
 11 12  2  0
 12  2  1  0
 14 13  1  1
 14 15  1  0
 16 17  1  1
 16 14  1  0
 17  9  1  0
 18 16  1  0
 19 18  2  0
 20 18  1  0
 21 20  1  0
 22 24  1  0
 22 21  1  0
 23 22  2  0
M  END
$$$$
