YVG.pdb
     RDKit          3D

 24 24  0  0  1  0  0  0  0  0999 V2000
   12.1245  -16.5773   32.1136 O   0  0  0  0  0  0  0  0  0  0  0  0
   11.5250  -16.5063   30.8483 C   0  0  0  0  0  0  0  0  0  0  0  0
   10.9556  -15.3261   30.4739 C   0  0  0  0  0  0  0  0  0  0  0  0
   10.3555  -15.2481   29.2128 C   0  0  0  0  0  0  0  0  0  0  0  0
   10.3419  -16.3352   28.3749 C   0  0  0  0  0  0  0  0  0  0  0  0
    9.7057  -16.2272   27.0567 C   0  0  0  0  0  0  0  0  0  0  0  0
    8.2325  -16.6087   27.0934 C   0  0  2  0  0  0  0  0  0  0  0  0
    8.0748  -18.0547   26.9695 N   0  0  0  0  0  0  0  0  0  0  0  0
    7.5941  -15.9162   25.9355 C   0  0  0  0  0  0  0  0  0  0  0  0
    7.0295  -16.6255   25.0731 O   0  0  0  0  0  0  0  0  0  0  0  0
   10.9259  -17.5067   28.7877 C   0  0  0  0  0  0  0  0  0  0  0  0
   11.5246  -17.6091   30.0276 C   0  0  0  0  0  0  0  0  0  0  0  0
    7.7422  -11.5145   25.3919 C   0  0  0  0  0  0  0  0  0  0  0  0
    6.5256  -12.3893   25.2437 C   0  0  2  0  0  0  0  0  0  0  0  0
    5.6744  -12.4111   26.4800 C   0  0  0  0  0  0  0  0  0  0  0  0
    6.8780  -13.7937   24.8213 C   0  0  2  0  0  0  0  0  0  0  0  0
    7.6338  -14.4978   25.8288 N   0  0  0  0  0  0  0  0  0  0  0  0
    7.5856  -13.8069   23.5157 C   0  0  0  0  0  0  0  0  0  0  0  0
    6.9610  -13.3685   22.5155 O   0  0  0  0  0  0  0  0  0  0  0  0
    8.9073  -14.2844   23.3619 N   0  0  0  0  0  0  0  0  0  0  0  0
    9.5687  -14.1078   22.0860 C   0  0  0  0  0  0  0  0  0  0  0  0
    9.3829  -15.3139   21.2662 C   0  0  0  0  0  0  0  0  0  0  0  0
    9.2628  -16.4242   21.8155 O   0  0  0  0  0  0  0  0  0  0  0  0
    9.3417  -15.2175   19.8977 O   0  0  0  0  0  0  0  0  0  0  0  0
  2  1  1  0
  3  2  2  0
  4  3  1  0
  5  4  2  0
  5 11  1  0
  6  5  1  0
  7  8  1  6
  7  6  1  0
  9  7  1  0
 10  9  2  0
 11 12  2  0
 12  2  1  0
 14 13  1  1
 14 15  1  0
 16 17  1  1
 16 14  1  0
 17  9  1  0
 18 16  1  0
 19 18  2  0
 20 18  1  0
 21 20  1  0
 22 24  1  0
 22 21  1  0
 23 22  2  0
M  END
$$$$
