YVG.pdb
     RDKit          3D

 24 24  0  0  1  0  0  0  0  0999 V2000
   11.7345  -14.7772   31.3453 O   0  0  0  0  0  0  0  0  0  0  0  0
   11.1276  -15.3584   30.2231 C   0  0  0  0  0  0  0  0  0  0  0  0
   11.0502  -16.7179   30.1682 C   0  0  0  0  0  0  0  0  0  0  0  0
   10.4459  -17.3047   29.0513 C   0  0  0  0  0  0  0  0  0  0  0  0
    9.9440  -16.5277   28.0371 C   0  0  0  0  0  0  0  0  0  0  0  0
    9.3148  -17.1682   26.8762 C   0  0  0  0  0  0  0  0  0  0  0  0
    7.7985  -17.2250   26.9992 C   0  0  2  0  0  0  0  0  0  0  0  0
    7.3328  -18.6080   26.9574 N   0  0  0  0  0  0  0  0  0  0  0  0
    7.2576  -16.4602   25.8372 C   0  0  0  0  0  0  0  0  0  0  0  0
    6.6524  -17.1018   24.9498 O   0  0  0  0  0  0  0  0  0  0  0  0
   10.0409  -15.1617   28.1288 C   0  0  0  0  0  0  0  0  0  0  0  0
   10.6327  -14.5585   29.2207 C   0  0  0  0  0  0  0  0  0  0  0  0
    7.7508  -12.1119   25.5593 C   0  0  0  0  0  0  0  0  0  0  0  0
    6.4907  -12.8540   25.2002 C   0  0  2  0  0  0  0  0  0  0  0  0
    5.4807  -12.8507   26.3107 C   0  0  0  0  0  0  0  0  0  0  0  0
    6.7671  -14.2644   24.7430 C   0  0  2  0  0  0  0  0  0  0  0  0
    7.4314  -15.0503   25.7544 N   0  0  0  0  0  0  0  0  0  0  0  0
    7.5270  -14.2828   23.4671 C   0  0  0  0  0  0  0  0  0  0  0  0
    7.0574  -13.6214   22.5053 O   0  0  0  0  0  0  0  0  0  0  0  0
    8.7327  -15.0018   23.3001 N   0  0  0  0  0  0  0  0  0  0  0  0
    9.4263  -14.9156   22.0321 C   0  0  0  0  0  0  0  0  0  0  0  0
   10.7019  -15.6411   22.1205 C   0  0  0  0  0  0  0  0  0  0  0  0
   11.6055  -15.2177   22.8643 O   0  0  0  0  0  0  0  0  0  0  0  0
   10.8976  -16.7832   21.3849 O   0  0  0  0  0  0  0  0  0  0  0  0
  2  1  1  0
  3  2  2  0
  4  3  1  0
  5  4  2  0
  5 11  1  0
  6  5  1  0
  7  8  1  6
  7  6  1  0
  9  7  1  0
 10  9  2  0
 11 12  2  0
 12  2  1  0
 14 13  1  1
 14 15  1  0
 16 17  1  1
 16 14  1  0
 17  9  1  0
 18 16  1  0
 19 18  2  0
 20 18  1  0
 21 20  1  0
 22 24  1  0
 22 21  1  0
 23 22  2  0
M  END
$$$$
