YVG.pdb
     RDKit          3D

 24 24  0  0  1  0  0  0  0  0999 V2000
   11.5087  -15.1642   31.6256 O   0  0  0  0  0  0  0  0  0  0  0  0
   10.9529  -15.6393   30.4294 C   0  0  0  0  0  0  0  0  0  0  0  0
   10.7779  -16.9840   30.2934 C   0  0  0  0  0  0  0  0  0  0  0  0
   10.2239  -17.4651   29.1025 C   0  0  0  0  0  0  0  0  0  0  0  0
    9.8662  -16.6017   28.0971 C   0  0  0  0  0  0  0  0  0  0  0  0
    9.2869  -17.1322   26.8573 C   0  0  0  0  0  0  0  0  0  0  0  0
    7.7671  -17.1988   26.9123 C   0  0  2  0  0  0  0  0  0  0  0  0
    7.3035  -18.5546   26.6328 N   0  0  0  0  0  0  0  0  0  0  0  0
    7.2710  -16.2553   25.8676 C   0  0  0  0  0  0  0  0  0  0  0  0
    6.5425  -16.7203   24.9628 O   0  0  0  0  0  0  0  0  0  0  0  0
   10.0580  -15.2539   28.2716 C   0  0  0  0  0  0  0  0  0  0  0  0
   10.6029  -14.7542   29.4376 C   0  0  0  0  0  0  0  0  0  0  0  0
    5.6761  -12.4438   26.5314 C   0  0  0  0  0  0  0  0  0  0  0  0
    6.8907  -12.5508   25.6477 C   0  0  2  0  0  0  0  0  0  0  0  0
    6.9371  -11.4809   24.5957 C   0  0  0  0  0  0  0  0  0  0  0  0
    7.0227  -13.9151   25.0184 C   0  0  2  0  0  0  0  0  0  0  0  0
    7.6222  -14.8770   25.9112 N   0  0  0  0  0  0  0  0  0  0  0  0
    7.7590  -13.8502   23.7302 C   0  0  0  0  0  0  0  0  0  0  0  0
    7.2341  -13.1891   22.7973 O   0  0  0  0  0  0  0  0  0  0  0  0
    9.0015  -14.4914   23.5212 N   0  0  0  0  0  0  0  0  0  0  0  0
    9.7112  -14.2502   22.2824 C   0  0  0  0  0  0  0  0  0  0  0  0
    9.8236  -15.5074   21.5288 C   0  0  0  0  0  0  0  0  0  0  0  0
    9.3223  -16.5509   21.9857 O   0  0  0  0  0  0  0  0  0  0  0  0
   10.4796  -15.5322   20.3235 O   0  0  0  0  0  0  0  0  0  0  0  0
  2  1  1  0
  3  2  2  0
  4  3  1  0
  5  4  2  0
  5 11  1  0
  6  5  1  0
  7  8  1  6
  7  6  1  0
  9  7  1  0
 10  9  2  0
 11 12  2  0
 12  2  1  0
 14 13  1  6
 14 15  1  0
 16 17  1  1
 16 14  1  0
 17  9  1  0
 18 16  1  0
 19 18  2  0
 20 18  1  0
 21 20  1  0
 22 24  1  0
 22 21  1  0
 23 22  2  0
M  END
$$$$
