YVG.pdb
     RDKit          3D

 24 24  0  0  1  0  0  0  0  0999 V2000
    6.7380  -10.7486   26.6133 O   0  0  0  0  0  0  0  0  0  0  0  0
    6.8244  -12.1477   26.5914 C   0  0  0  0  0  0  0  0  0  0  0  0
    5.6637  -12.8619   26.5909 C   0  0  0  0  0  0  0  0  0  0  0  0
    5.7424  -14.2583   26.5691 C   0  0  0  0  0  0  0  0  0  0  0  0
    6.9603  -14.8911   26.5489 C   0  0  0  0  0  0  0  0  0  0  0  0
    7.0155  -16.3576   26.5262 C   0  0  0  0  0  0  0  0  0  0  0  0
    6.3779  -16.9403   25.2727 C   0  0  2  0  0  0  0  0  0  0  0  0
    6.1024  -18.3626   25.4521 N   0  0  0  0  0  0  0  0  0  0  0  0
    7.3647  -16.7380   24.1713 C   0  0  0  0  0  0  0  0  0  0  0  0
    8.3357  -17.5247   24.1088 O   0  0  0  0  0  0  0  0  0  0  0  0
    8.1072  -14.1373   26.5502 C   0  0  0  0  0  0  0  0  0  0  0  0
    8.0561  -12.7577   26.5714 C   0  0  0  0  0  0  0  0  0  0  0  0
    8.3662  -14.4231   19.8644 C   0  0  0  0  0  0  0  0  0  0  0  0
    7.6395  -14.4094   21.1832 C   0  0  2  0  0  0  0  0  0  0  0  0
    7.7863  -13.1050   21.9114 C   0  0  0  0  0  0  0  0  0  0  0  0
    8.0447  -15.5583   22.0725 C   0  0  2  0  0  0  0  0  0  0  0  0
    7.1947  -15.6830   23.2316 N   0  0  0  0  0  0  0  0  0  0  0  0
    9.4738  -15.4633   22.4652 C   0  0  0  0  0  0  0  0  0  0  0  0
    9.7552  -14.7322   23.4496 O   0  0  0  0  0  0  0  0  0  0  0  0
   10.5055  -16.1509   21.7860 N   0  0  0  0  0  0  0  0  0  0  0  0
   11.8716  -15.9769   22.2332 C   0  0  0  0  0  0  0  0  0  0  0  0
   12.7869  -16.6050   21.2694 C   0  0  0  0  0  0  0  0  0  0  0  0
   12.3423  -17.3944   20.4161 O   0  0  0  0  0  0  0  0  0  0  0  0
   14.1295  -16.3226   21.3091 O   0  0  0  0  0  0  0  0  0  0  0  0
  2  1  1  0
  3  2  2  0
  4  3  1  0
  5  4  2  0
  5 11  1  0
  6  5  1  0
  7  8  1  1
  7  6  1  0
  9  7  1  0
 10  9  2  0
 11 12  2  0
 12  2  1  0
 14 13  1  6
 14 15  1  0
 16 17  1  1
 16 14  1  0
 17  9  1  0
 18 16  1  0
 19 18  2  0
 20 18  1  0
 21 20  1  0
 22 24  1  0
 22 21  1  0
 23 22  2  0
M  END
$$$$
