ATQ.pdb
     RDKit          3D

 22 21  0  0  1  0  0  0  0  0999 V2000
    9.7447  -17.0234   14.9428 C   0  0  0  0  0  0  0  0  0  0  0  0
    9.5095  -15.5446   15.0897 C   0  0  2  0  0  0  0  0  0  0  0  0
   10.2100  -14.8625   14.0256 N   0  0  0  0  0  0  0  0  0  0  0  0
    9.9614  -15.1002   16.4282 C   0  0  0  0  0  0  0  0  0  0  0  0
   11.1680  -14.7654   16.5753 O   0  0  0  0  0  0  0  0  0  0  0  0
    7.6523  -12.7990   18.4643 C   0  0  0  0  0  0  0  0  0  0  0  0
    8.2214  -13.8365   19.3765 C   0  0  1  0  0  0  0  0  0  0  0  0
    7.2234  -14.8416   19.4713 O   0  0  0  0  0  0  0  0  0  0  0  0
    9.5094  -14.4735   18.8474 C   0  0  2  0  0  0  0  0  0  0  0  0
    9.1123  -15.0313   17.5506 N   0  0  0  0  0  0  0  0  0  0  0  0
    9.8957  -15.5611   19.7727 C   0  0  0  0  0  0  0  0  0  0  0  0
   10.0624  -16.7148   19.2757 O   0  0  0  0  0  0  0  0  0  0  0  0
   15.0011  -14.5423   19.8189 N   0  0  0  0  0  0  0  0  0  0  0  0
   14.9611  -15.3802   20.9387 C   0  0  0  0  0  0  0  0  0  0  0  0
   15.9450  -16.1036   21.1980 O   0  0  0  0  0  0  0  0  0  0  0  0
   13.7970  -15.4742   21.8701 C   0  0  0  0  0  0  0  0  0  0  0  0
   12.5212  -15.0493   21.2129 C   0  0  0  0  0  0  0  0  0  0  0  0
   11.3548  -15.7193   21.8228 C   0  0  2  0  0  0  0  0  0  0  0  0
   10.1000  -15.4424   21.1502 N   0  0  0  0  0  0  0  0  0  0  0  0
   11.2811  -15.5424   23.2676 C   0  0  0  0  0  0  0  0  0  0  0  0
   10.6944  -14.5267   23.9818 O   0  0  0  0  0  0  0  0  0  0  0  0
   11.8323  -16.4417   23.9981 O   0  0  0  0  0  0  0  0  0  0  0  0
  2  1  1  1
  2  3  1  0
  4  2  1  0
  4 10  1  0
  5  4  2  0
  7  9  1  0
  7  6  1  6
  8  7  1  0
  9 10  1  6
  9 11  1  0
 11 19  1  0
 12 11  2  0
 14 13  1  0
 14 16  1  0
 15 14  2  0
 17 16  1  0
 18 20  1  0
 18 17  1  6
 19 18  1  0
 20 21  1  0
 22 20  2  0
M  END
$$$$
