ATQ.pdb
     RDKit          3D

 22 21  0  0  1  0  0  0  0  0999 V2000
    8.5711  -12.1990   20.3372 C   0  0  0  0  0  0  0  0  0  0  0  0
    8.4361  -13.5110   19.6133 C   0  0  2  0  0  0  0  0  0  0  0  0
    7.2675  -13.4470   18.7654 N   0  0  0  0  0  0  0  0  0  0  0  0
    8.3505  -14.6147   20.5969 C   0  0  0  0  0  0  0  0  0  0  0  0
    7.3171  -15.3370   20.6023 O   0  0  0  0  0  0  0  0  0  0  0  0
    8.5924  -17.2537   20.2930 C   0  0  0  0  0  0  0  0  0  0  0  0
    9.5740  -17.2472   21.4194 C   0  0  1  0  0  0  0  0  0  0  0  0
   10.8475  -17.1104   20.8070 O   0  0  0  0  0  0  0  0  0  0  0  0
    9.3733  -16.0858   22.3968 C   0  0  2  0  0  0  0  0  0  0  0  0
    9.3655  -14.9022   21.5310 N   0  0  0  0  0  0  0  0  0  0  0  0
   10.5404  -16.0448   23.3048 C   0  0  0  0  0  0  0  0  0  0  0  0
   11.3903  -15.1239   23.1172 O   0  0  0  0  0  0  0  0  0  0  0  0
    9.8473  -12.8531   28.5991 N   0  0  0  0  0  0  0  0  0  0  0  0
    9.2600  -13.8675   27.8350 C   0  0  0  0  0  0  0  0  0  0  0  0
    8.1378  -13.6764   27.3222 O   0  0  0  0  0  0  0  0  0  0  0  0
    9.8942  -15.1960   27.5819 C   0  0  0  0  0  0  0  0  0  0  0  0
    9.7535  -15.6180   26.1528 C   0  0  0  0  0  0  0  0  0  0  0  0
   10.8333  -16.5453   25.7585 C   0  0  2  0  0  0  0  0  0  0  0  0
   10.8001  -16.9248   24.3591 N   0  0  0  0  0  0  0  0  0  0  0  0
   10.9692  -17.6843   26.6576 C   0  0  0  0  0  0  0  0  0  0  0  0
   11.8893  -17.8876   27.6567 O   0  0  0  0  0  0  0  0  0  0  0  0
   10.1297  -18.6447   26.5195 O   0  0  0  0  0  0  0  0  0  0  0  0
  2  1  1  1
  2  3  1  0
  4  2  1  0
  4 10  1  0
  5  4  2  0
  7  9  1  0
  7  6  1  6
  8  7  1  0
  9 10  1  6
  9 11  1  0
 11 19  1  0
 12 11  2  0
 14 13  1  0
 14 16  1  0
 15 14  2  0
 17 16  1  0
 18 20  1  0
 18 17  1  1
 19 18  1  0
 20 21  1  0
 22 20  2  0
M  END
$$$$
