ATQ.pdb
     RDKit          3D

 22 21  0  0  1  0  0  0  0  0999 V2000
   10.9639  -17.5633   14.4434 C   0  0  0  0  0  0  0  0  0  0  0  0
   10.1352  -16.3158   14.3005 C   0  0  2  0  0  0  0  0  0  0  0  0
   10.3954  -15.7407   13.0005 N   0  0  0  0  0  0  0  0  0  0  0  0
   10.4573  -15.3767   15.3993 C   0  0  0  0  0  0  0  0  0  0  0  0
   11.4057  -14.5621   15.2359 O   0  0  0  0  0  0  0  0  0  0  0  0
    7.9039  -13.1558   17.3551 C   0  0  0  0  0  0  0  0  0  0  0  0
    8.6865  -14.0420   18.2686 C   0  0  1  0  0  0  0  0  0  0  0  0
    7.9109  -15.2237   18.4011 O   0  0  0  0  0  0  0  0  0  0  0  0
   10.0648  -14.4199   17.7188 C   0  0  2  0  0  0  0  0  0  0  0  0
    9.7585  -15.3444   16.6224 N   0  0  0  0  0  0  0  0  0  0  0  0
   10.8061  -15.1250   18.7872 C   0  0  0  0  0  0  0  0  0  0  0  0
   10.7248  -16.3892   18.8137 O   0  0  0  0  0  0  0  0  0  0  0  0
   16.2941  -15.5711   20.8863 N   0  0  0  0  0  0  0  0  0  0  0  0
   15.3655  -14.9996   20.0095 C   0  0  0  0  0  0  0  0  0  0  0  0
   15.3531  -15.3558   18.8130 O   0  0  0  0  0  0  0  0  0  0  0  0
   14.3624  -13.9683   20.4114 C   0  0  0  0  0  0  0  0  0  0  0  0
   13.4038  -14.4917   21.4349 C   0  0  0  0  0  0  0  0  0  0  0  0
   12.3133  -15.2624   20.8037 C   0  0  2  0  0  0  0  0  0  0  0  0
   11.5961  -14.5322   19.7763 N   0  0  0  0  0  0  0  0  0  0  0  0
   11.4319  -15.9068   21.7692 C   0  0  0  0  0  0  0  0  0  0  0  0
   11.6760  -17.0023   22.5606 O   0  0  0  0  0  0  0  0  0  0  0  0
   10.2607  -15.4055   21.9208 O   0  0  0  0  0  0  0  0  0  0  0  0
  2  1  1  1
  2  3  1  0
  4  2  1  0
  4 10  1  0
  5  4  2  0
  7  9  1  0
  7  6  1  6
  8  7  1  0
  9 10  1  6
  9 11  1  0
 11 19  1  0
 12 11  2  0
 14 13  1  0
 14 16  1  0
 15 14  2  0
 17 16  1  0
 18 20  1  0
 18 17  1  1
 19 18  1  0
 20 21  1  0
 22 20  2  0
M  END
$$$$
