ATQ.pdb
     RDKit          3D

 22 21  0  0  1  0  0  0  0  0999 V2000
    7.4872  -18.8132   17.3046 C   0  0  0  0  0  0  0  0  0  0  0  0
    7.7928  -17.4790   16.6798 C   0  0  2  0  0  0  0  0  0  0  0  0
    8.6454  -17.6959   15.5334 N   0  0  0  0  0  0  0  0  0  0  0  0
    8.4248  -16.5931   17.6842 C   0  0  0  0  0  0  0  0  0  0  0  0
    9.6774  -16.6366   17.8214 O   0  0  0  0  0  0  0  0  0  0  0  0
    7.7093  -12.7042   20.7225 C   0  0  0  0  0  0  0  0  0  0  0  0
    7.3029  -13.7088   19.6939 C   0  0  1  0  0  0  0  0  0  0  0  0
    7.2366  -12.9893   18.4718 O   0  0  0  0  0  0  0  0  0  0  0  0
    8.3039  -14.8562   19.5330 C   0  0  2  0  0  0  0  0  0  0  0  0
    7.6989  -15.7009   18.4981 N   0  0  0  0  0  0  0  0  0  0  0  0
    8.3688  -15.5902   20.8157 C   0  0  0  0  0  0  0  0  0  0  0  0
    7.5876  -16.5774   20.9603 O   0  0  0  0  0  0  0  0  0  0  0  0
   13.0106  -19.8055   23.4427 N   0  0  0  0  0  0  0  0  0  0  0  0
   12.0634  -19.2148   22.5991 C   0  0  0  0  0  0  0  0  0  0  0  0
   12.2100  -19.2954   21.3619 O   0  0  0  0  0  0  0  0  0  0  0  0
   10.8588  -18.4762   23.0838 C   0  0  0  0  0  0  0  0  0  0  0  0
   10.4132  -17.4338   22.1066 C   0  0  0  0  0  0  0  0  0  0  0  0
    9.7644  -16.2980   22.7926 C   0  0  2  0  0  0  0  0  0  0  0  0
    9.2141  -15.3039   21.8914 N   0  0  0  0  0  0  0  0  0  0  0  0
   10.5851  -15.7207   23.8497 C   0  0  0  0  0  0  0  0  0  0  0  0
   10.7082  -16.1183   25.1584 O   0  0  0  0  0  0  0  0  0  0  0  0
   11.2997  -14.6992   23.5464 O   0  0  0  0  0  0  0  0  0  0  0  0
  2  1  1  1
  2  3  1  0
  4  2  1  0
  4 10  1  0
  5  4  2  0
  7  9  1  0
  7  6  1  1
  8  7  1  0
  9 10  1  6
  9 11  1  0
 11 19  1  0
 12 11  2  0
 14 13  1  0
 14 16  1  0
 15 14  2  0
 17 16  1  0
 18 20  1  0
 18 17  1  6
 19 18  1  0
 20 21  1  0
 22 20  2  0
M  END
$$$$
