ATQ.pdb
     RDKit          3D

 22 21  0  0  1  0  0  0  0  0999 V2000
    8.0948  -12.9126   16.9830 C   0  0  0  0  0  0  0  0  0  0  0  0
    8.9671  -14.0572   17.4219 C   0  0  2  0  0  0  0  0  0  0  0  0
    8.2387  -15.2894   17.2226 N   0  0  0  0  0  0  0  0  0  0  0  0
    9.3626  -13.8667   18.8362 C   0  0  0  0  0  0  0  0  0  0  0  0
   10.1926  -12.9584   19.1117 O   0  0  0  0  0  0  0  0  0  0  0  0
    6.9109  -14.0123   21.9506 C   0  0  0  0  0  0  0  0  0  0  0  0
    8.0671  -14.9476   22.0944 C   0  0  1  0  0  0  0  0  0  0  0  0
    7.6058  -16.1945   21.5967 O   0  0  0  0  0  0  0  0  0  0  0  0
    9.2983  -14.5238   21.2885 C   0  0  2  0  0  0  0  0  0  0  0  0
    8.8595  -14.6488   19.8948 N   0  0  0  0  0  0  0  0  0  0  0  0
   10.3835  -15.4891   21.5692 C   0  0  0  0  0  0  0  0  0  0  0  0
   10.3172  -16.6194   21.0003 O   0  0  0  0  0  0  0  0  0  0  0  0
   16.1411  -14.7615   20.7990 N   0  0  0  0  0  0  0  0  0  0  0  0
   14.7985  -14.7374   20.4058 C   0  0  0  0  0  0  0  0  0  0  0  0
   14.3862  -13.8004   19.6912 O   0  0  0  0  0  0  0  0  0  0  0  0
   13.7974  -15.7778   20.7889 C   0  0  0  0  0  0  0  0  0  0  0  0
   13.8098  -16.0485   22.2608 C   0  0  0  0  0  0  0  0  0  0  0  0
   12.4467  -16.2978   22.7718 C   0  0  2  0  0  0  0  0  0  0  0  0
   11.4850  -15.2768   22.4030 N   0  0  0  0  0  0  0  0  0  0  0  0
   12.4165  -16.6266   24.1914 C   0  0  0  0  0  0  0  0  0  0  0  0
   11.6328  -16.0896   25.1831 O   0  0  0  0  0  0  0  0  0  0  0  0
   13.2222  -17.5375   24.6003 O   0  0  0  0  0  0  0  0  0  0  0  0
  2  1  1  1
  2  3  1  0
  4  2  1  0
  4 10  1  0
  5  4  2  0
  7  9  1  0
  7  6  1  6
  8  7  1  0
  9 10  1  6
  9 11  1  0
 11 19  1  0
 12 11  2  0
 14 13  1  0
 14 16  1  0
 15 14  2  0
 17 16  1  0
 18 20  1  0
 18 17  1  1
 19 18  1  0
 20 21  1  0
 22 20  2  0
M  END
$$$$
