ATQ.pdb
     RDKit          3D

 22 21  0  0  1  0  0  0  0  0999 V2000
    9.7348  -17.5556   14.5709 C   0  0  0  0  0  0  0  0  0  0  0  0
    9.3365  -16.1292   14.3056 C   0  0  2  0  0  0  0  0  0  0  0  0
    9.9807  -15.6939   13.0873 N   0  0  0  0  0  0  0  0  0  0  0  0
    9.7087  -15.2856   15.4643 C   0  0  0  0  0  0  0  0  0  0  0  0
   10.8881  -14.8453   15.5338 O   0  0  0  0  0  0  0  0  0  0  0  0
    7.9740  -13.1133   19.6354 C   0  0  0  0  0  0  0  0  0  0  0  0
    7.8449  -13.7972   18.3133 C   0  0  1  0  0  0  0  0  0  0  0  0
    7.2163  -12.8517   17.4610 O   0  0  0  0  0  0  0  0  0  0  0  0
    9.1897  -14.1934   17.6976 C   0  0  2  0  0  0  0  0  0  0  0  0
    8.8124  -14.9471   16.4975 N   0  0  0  0  0  0  0  0  0  0  0  0
    9.8888  -15.0778   18.6554 C   0  0  0  0  0  0  0  0  0  0  0  0
    9.5090  -16.2852   18.7150 O   0  0  0  0  0  0  0  0  0  0  0  0
   15.9399  -15.5300   19.8127 N   0  0  0  0  0  0  0  0  0  0  0  0
   15.0812  -14.4835   19.4591 C   0  0  0  0  0  0  0  0  0  0  0  0
   15.4998  -13.5725   18.7151 O   0  0  0  0  0  0  0  0  0  0  0  0
   13.6641  -14.3745   19.9187 C   0  0  0  0  0  0  0  0  0  0  0  0
   13.0648  -15.7164   20.2018 C   0  0  0  0  0  0  0  0  0  0  0  0
   11.6073  -15.6178   20.4195 C   0  0  2  0  0  0  0  0  0  0  0  0
   10.9365  -14.7132   19.5056 N   0  0  0  0  0  0  0  0  0  0  0  0
   11.2487  -15.3926   21.8141 C   0  0  0  0  0  0  0  0  0  0  0  0
   10.4054  -14.4473   22.3445 O   0  0  0  0  0  0  0  0  0  0  0  0
   11.7791  -16.1668   22.6891 O   0  0  0  0  0  0  0  0  0  0  0  0
  2  1  1  1
  2  3  1  0
  4  2  1  0
  4 10  1  0
  5  4  2  0
  7  9  1  0
  7  6  1  1
  8  7  1  0
  9 10  1  6
  9 11  1  0
 11 19  1  0
 12 11  2  0
 14 13  1  0
 14 16  1  0
 15 14  2  0
 17 16  1  0
 18 20  1  0
 18 17  1  1
 19 18  1  0
 20 21  1  0
 22 20  2  0
M  END
$$$$
