ATQ.pdb
     RDKit          3D

 22 21  0  0  1  0  0  0  0  0999 V2000
    8.9381  -22.2118   21.8834 C   0  0  0  0  0  0  0  0  0  0  0  0
    9.0205  -21.3147   20.6784 C   0  0  2  0  0  0  0  0  0  0  0  0
    9.4543  -22.1051   19.5490 N   0  0  0  0  0  0  0  0  0  0  0  0
    9.9426  -20.1903   20.9581 C   0  0  0  0  0  0  0  0  0  0  0  0
   11.1839  -20.4097   20.9334 O   0  0  0  0  0  0  0  0  0  0  0  0
   10.1473  -15.2404   21.6616 C   0  0  0  0  0  0  0  0  0  0  0  0
    9.5287  -16.5265   21.2193 C   0  0  1  0  0  0  0  0  0  0  0  0
    9.3543  -16.3966   19.8164 O   0  0  0  0  0  0  0  0  0  0  0  0
   10.4065  -17.7512   21.4923 C   0  0  2  0  0  0  0  0  0  0  0  0
    9.5058  -18.8832   21.2518 N   0  0  0  0  0  0  0  0  0  0  0  0
   10.8116  -17.7160   22.9146 C   0  0  0  0  0  0  0  0  0  0  0  0
    9.9528  -18.0796   23.7724 O   0  0  0  0  0  0  0  0  0  0  0  0
   12.0173  -21.9795   25.9212 N   0  0  0  0  0  0  0  0  0  0  0  0
   13.1492  -21.2170   26.2294 C   0  0  0  0  0  0  0  0  0  0  0  0
   14.1669  -21.7848   26.6774 O   0  0  0  0  0  0  0  0  0  0  0  0
   13.2304  -19.7355   26.0569 C   0  0  0  0  0  0  0  0  0  0  0  0
   12.5934  -19.2870   24.7789 C   0  0  0  0  0  0  0  0  0  0  0  0
   12.6480  -17.8177   24.6392 C   0  0  2  0  0  0  0  0  0  0  0  0
   12.0574  -17.3219   23.4108 N   0  0  0  0  0  0  0  0  0  0  0  0
   13.9703  -17.2643   24.9028 C   0  0  0  0  0  0  0  0  0  0  0  0
   14.7762  -16.5262   24.0710 O   0  0  0  0  0  0  0  0  0  0  0  0
   14.4774  -17.4814   26.0611 O   0  0  0  0  0  0  0  0  0  0  0  0
  2  1  1  1
  2  3  1  0
  4  2  1  0
  4 10  1  0
  5  4  2  0
  7  9  1  0
  7  6  1  6
  8  7  1  0
  9 10  1  1
  9 11  1  0
 11 19  1  0
 12 11  2  0
 14 13  1  0
 14 16  1  0
 15 14  2  0
 17 16  1  0
 18 20  1  0
 18 17  1  6
 19 18  1  0
 20 21  1  0
 22 20  2  0
M  END
$$$$
