ATQ.pdb
     RDKit          3D

 22 21  0  0  1  0  0  0  0  0999 V2000
    7.9702  -19.0240   17.5681 C   0  0  0  0  0  0  0  0  0  0  0  0
    8.1669  -17.7940   16.7243 C   0  0  2  0  0  0  0  0  0  0  0  0
    8.9814  -18.1474   15.5841 N   0  0  0  0  0  0  0  0  0  0  0  0
    8.7859  -16.7250   17.5409 C   0  0  0  0  0  0  0  0  0  0  0  0
   10.0411  -16.6065   17.5254 O   0  0  0  0  0  0  0  0  0  0  0  0
    7.8672  -12.6016   20.1992 C   0  0  0  0  0  0  0  0  0  0  0  0
    7.5196  -13.7433   19.3002 C   0  0  1  0  0  0  0  0  0  0  0  0
    7.2761  -13.1598   18.0291 O   0  0  0  0  0  0  0  0  0  0  0  0
    8.6441  -14.7729   19.1592 C   0  0  2  0  0  0  0  0  0  0  0  0
    8.0450  -15.8296   18.3376 N   0  0  0  0  0  0  0  0  0  0  0  0
    8.9597  -15.2934   20.5074 C   0  0  0  0  0  0  0  0  0  0  0  0
    7.9941  -15.7290   21.2027 O   0  0  0  0  0  0  0  0  0  0  0  0
    9.6842  -20.1494   22.8462 N   0  0  0  0  0  0  0  0  0  0  0  0
   10.0556  -19.5917   21.6178 C   0  0  0  0  0  0  0  0  0  0  0  0
   10.0327  -20.3014   20.5909 O   0  0  0  0  0  0  0  0  0  0  0  0
   10.4883  -18.1729   21.4415 C   0  0  0  0  0  0  0  0  0  0  0  0
   10.0304  -17.3056   22.5722 C   0  0  0  0  0  0  0  0  0  0  0  0
   10.4989  -15.9150   22.4052 C   0  0  2  0  0  0  0  0  0  0  0  0
   10.2265  -15.3565   21.0947 N   0  0  0  0  0  0  0  0  0  0  0  0
   11.8770  -15.7173   22.8366 C   0  0  0  0  0  0  0  0  0  0  0  0
   12.9187  -15.1398   22.1529 O   0  0  0  0  0  0  0  0  0  0  0  0
   12.1898  -16.1306   24.0102 O   0  0  0  0  0  0  0  0  0  0  0  0
  2  1  1  1
  2  3  1  0
  4  2  1  0
  4 10  1  0
  5  4  2  0
  7  9  1  0
  7  6  1  1
  8  7  1  0
  9 10  1  6
  9 11  1  0
 11 19  1  0
 12 11  2  0
 14 13  1  0
 14 16  1  0
 15 14  2  0
 17 16  1  0
 18 20  1  0
 18 17  1  6
 19 18  1  0
 20 21  1  0
 22 20  2  0
M  END
$$$$
