ATQ.pdb
     RDKit          3D

 22 21  0  0  1  0  0  0  0  0999 V2000
   12.8210  -15.5180   19.9801 C   0  0  0  0  0  0  0  0  0  0  0  0
   11.9317  -14.7873   19.0112 C   0  0  2  0  0  0  0  0  0  0  0  0
   12.7141  -13.7649   18.3546 N   0  0  0  0  0  0  0  0  0  0  0  0
   10.7695  -14.2211   19.7334 C   0  0  0  0  0  0  0  0  0  0  0  0
   10.1796  -13.2240   19.2359 O   0  0  0  0  0  0  0  0  0  0  0  0
    8.1244  -14.6733   19.1627 C   0  0  0  0  0  0  0  0  0  0  0  0
    7.9820  -15.0856   20.5917 C   0  0  1  0  0  0  0  0  0  0  0  0
    8.2339  -16.4826   20.6066 O   0  0  0  0  0  0  0  0  0  0  0  0
    8.9804  -14.3980   21.5272 C   0  0  2  0  0  0  0  0  0  0  0  0
   10.2854  -14.7385   20.9513 N   0  0  0  0  0  0  0  0  0  0  0  0
    8.8423  -15.0043   22.8694 C   0  0  0  0  0  0  0  0  0  0  0  0
    9.6642  -15.9166   23.1821 O   0  0  0  0  0  0  0  0  0  0  0  0
    5.1930  -12.2584   27.1834 N   0  0  0  0  0  0  0  0  0  0  0  0
    6.2909  -11.7168   26.5058 C   0  0  0  0  0  0  0  0  0  0  0  0
    6.4175  -10.4767   26.4372 O   0  0  0  0  0  0  0  0  0  0  0  0
    7.3493  -12.5356   25.8419 C   0  0  0  0  0  0  0  0  0  0  0  0
    7.1522  -14.0002   26.0789 C   0  0  0  0  0  0  0  0  0  0  0  0
    8.0864  -14.8055   25.2665 C   0  0  2  0  0  0  0  0  0  0  0  0
    7.8908  -14.6669   23.8361 N   0  0  0  0  0  0  0  0  0  0  0  0
    8.1749  -16.1941   25.7003 C   0  0  0  0  0  0  0  0  0  0  0  0
    7.9840  -17.3392   24.9666 O   0  0  0  0  0  0  0  0  0  0  0  0
    8.4681  -16.4071   26.9311 O   0  0  0  0  0  0  0  0  0  0  0  0
  2  1  1  1
  2  3  1  0
  4  2  1  0
  4 10  1  0
  5  4  2  0
  7  9  1  0
  7  6  1  6
  8  7  1  0
  9 10  1  6
  9 11  1  0
 11 19  1  0
 12 11  2  0
 14 13  1  0
 14 16  1  0
 15 14  2  0
 17 16  1  0
 18 20  1  0
 18 17  1  1
 19 18  1  0
 20 21  1  0
 22 20  2  0
M  END
$$$$
