ATQ.pdb
     RDKit          3D

 22 21  0  0  1  0  0  0  0  0999 V2000
    8.0565  -14.2505   16.2559 C   0  0  0  0  0  0  0  0  0  0  0  0
    8.4611  -15.4325   17.0941 C   0  0  2  0  0  0  0  0  0  0  0  0
    7.3157  -16.3011   17.2425 N   0  0  0  0  0  0  0  0  0  0  0  0
    8.9763  -14.9623   18.4004 C   0  0  0  0  0  0  0  0  0  0  0  0
   10.0482  -14.2987   18.4209 O   0  0  0  0  0  0  0  0  0  0  0  0
    7.1518  -12.8506   20.7854 C   0  0  0  0  0  0  0  0  0  0  0  0
    7.6011  -14.0569   21.5439 C   0  0  1  0  0  0  0  0  0  0  0  0
    6.5030  -14.9558   21.5047 O   0  0  0  0  0  0  0  0  0  0  0  0
    8.8207  -14.7465   20.9261 C   0  0  2  0  0  0  0  0  0  0  0  0
    8.3308  -15.2175   19.6266 N   0  0  0  0  0  0  0  0  0  0  0  0
    9.1785  -15.8979   21.7831 C   0  0  0  0  0  0  0  0  0  0  0  0
    8.7327  -17.0347   21.4447 O   0  0  0  0  0  0  0  0  0  0  0  0
   12.6727  -19.8385   21.3684 N   0  0  0  0  0  0  0  0  0  0  0  0
   13.1069  -18.5202   21.5457 C   0  0  0  0  0  0  0  0  0  0  0  0
   14.1735  -18.1497   21.0132 O   0  0  0  0  0  0  0  0  0  0  0  0
   12.3680  -17.4982   22.3463 C   0  0  0  0  0  0  0  0  0  0  0  0
   11.0868  -18.0412   22.8977 C   0  0  0  0  0  0  0  0  0  0  0  0
   10.3730  -17.0245   23.6965 C   0  0  2  0  0  0  0  0  0  0  0  0
    9.9677  -15.8579   22.9360 N   0  0  0  0  0  0  0  0  0  0  0  0
   11.0547  -16.6886   24.9402 C   0  0  0  0  0  0  0  0  0  0  0  0
   11.4755  -17.5254   25.9445 O   0  0  0  0  0  0  0  0  0  0  0  0
   11.3080  -15.4493   25.1547 O   0  0  0  0  0  0  0  0  0  0  0  0
  2  1  1  6
  2  3  1  0
  4  2  1  0
  4 10  1  0
  5  4  2  0
  7  9  1  0
  7  6  1  6
  8  7  1  0
  9 10  1  6
  9 11  1  0
 11 19  1  0
 12 11  2  0
 14 13  1  0
 14 16  1  0
 15 14  2  0
 17 16  1  0
 18 20  1  0
 18 17  1  6
 19 18  1  0
 20 21  1  0
 22 20  2  0
M  END
$$$$
