ATQ.pdb
     RDKit          3D

 22 21  0  0  1  0  0  0  0  0999 V2000
   10.3397  -21.7460   18.3142 C   0  0  0  0  0  0  0  0  0  0  0  0
    9.3015  -22.1890   17.3195 C   0  0  2  0  0  0  0  0  0  0  0  0
    8.4104  -21.0802   17.0644 N   0  0  0  0  0  0  0  0  0  0  0  0
    8.5822  -23.3718   17.8454 C   0  0  0  0  0  0  0  0  0  0  0  0
    7.5563  -23.1859   18.5544 O   0  0  0  0  0  0  0  0  0  0  0  0
    8.3445  -28.3722   17.7592 C   0  0  0  0  0  0  0  0  0  0  0  0
    8.8751  -27.0396   17.3407 C   0  0  1  0  0  0  0  0  0  0  0  0
    8.4471  -26.8698   15.9977 O   0  0  0  0  0  0  0  0  0  0  0  0
    8.3338  -25.8773   18.1778 C   0  0  2  0  0  0  0  0  0  0  0  0
    8.9841  -24.6990   17.5955 N   0  0  0  0  0  0  0  0  0  0  0  0
    8.7843  -26.0698   19.5736 C   0  0  0  0  0  0  0  0  0  0  0  0
    9.8966  -25.5587   19.9008 O   0  0  0  0  0  0  0  0  0  0  0  0
   11.9119  -26.5091   24.2388 N   0  0  0  0  0  0  0  0  0  0  0  0
   10.9643  -25.5399   23.8917 C   0  0  0  0  0  0  0  0  0  0  0  0
   11.3494  -24.4106   23.5241 O   0  0  0  0  0  0  0  0  0  0  0  0
    9.4879  -25.7641   23.9299 C   0  0  0  0  0  0  0  0  0  0  0  0
    8.8600  -25.5745   22.5846 C   0  0  0  0  0  0  0  0  0  0  0  0
    8.5454  -26.8715   21.9521 C   0  0  2  0  0  0  0  0  0  0  0  0
    8.0992  -26.7616   20.5765 N   0  0  0  0  0  0  0  0  0  0  0  0
    7.6810  -27.7143   22.7687 C   0  0  0  0  0  0  0  0  0  0  0  0
    7.9488  -28.3049   23.9792 O   0  0  0  0  0  0  0  0  0  0  0  0
    6.5035  -27.9564   22.3202 O   0  0  0  0  0  0  0  0  0  0  0  0
  2  1  1  1
  2  3  1  0
  4  2  1  0
  4 10  1  0
  5  4  2  0
  7  9  1  0
  7  6  1  1
  8  7  1  0
  9 10  1  6
  9 11  1  0
 11 19  1  0
 12 11  2  0
 14 13  1  0
 14 16  1  0
 15 14  2  0
 17 16  1  0
 18 20  1  0
 18 17  1  1
 19 18  1  0
 20 21  1  0
 22 20  2  0
M  END
$$$$
