ATQ.pdb
     RDKit          3D

 22 21  0  0  1  0  0  0  0  0999 V2000
    1.4883  -22.3958   20.1989 C   0  0  0  0  0  0  0  0  0  0  0  0
    2.1751  -21.6252   19.1044 C   0  0  2  0  0  0  0  0  0  0  0  0
    1.3718  -21.7181   17.9067 N   0  0  0  0  0  0  0  0  0  0  0  0
    3.5409  -22.1605   18.9016 C   0  0  0  0  0  0  0  0  0  0  0  0
    3.7303  -23.3981   19.0505 O   0  0  0  0  0  0  0  0  0  0  0  0
    5.6367  -22.0426   15.7891 C   0  0  0  0  0  0  0  0  0  0  0  0
    6.3299  -21.3270   16.9025 C   0  0  1  0  0  0  0  0  0  0  0  0
    5.8757  -19.9841   16.8262 O   0  0  0  0  0  0  0  0  0  0  0  0
    5.9896  -21.8809   18.2889 C   0  0  2  0  0  0  0  0  0  0  0  0
    4.6446  -21.3582   18.5500 N   0  0  0  0  0  0  0  0  0  0  0  0
    6.9532  -21.3139   19.2575 C   0  0  0  0  0  0  0  0  0  0  0  0
    6.7161  -20.1501   19.6993 O   0  0  0  0  0  0  0  0  0  0  0  0
    9.8645  -23.4177   24.3448 N   0  0  0  0  0  0  0  0  0  0  0  0
   10.4778  -22.1938   24.0555 C   0  0  0  0  0  0  0  0  0  0  0  0
   11.2806  -21.7020   24.8754 O   0  0  0  0  0  0  0  0  0  0  0  0
   10.2356  -21.4132   22.8051 C   0  0  0  0  0  0  0  0  0  0  0  0
    9.2732  -22.1067   21.8924 C   0  0  0  0  0  0  0  0  0  0  0  0
    9.0505  -21.3289   20.6568 C   0  0  2  0  0  0  0  0  0  0  0  0
    8.1062  -21.9390   19.7405 N   0  0  0  0  0  0  0  0  0  0  0  0
   10.2880  -20.9116   20.0097 C   0  0  0  0  0  0  0  0  0  0  0  0
   11.1775  -19.9400   20.3981 O   0  0  0  0  0  0  0  0  0  0  0  0
   10.6166  -21.5153   18.9264 O   0  0  0  0  0  0  0  0  0  0  0  0
  2  1  1  1
  2  3  1  0
  4  2  1  0
  4 10  1  0
  5  4  2  0
  7  9  1  0
  7  6  1  6
  8  7  1  0
  9 10  1  1
  9 11  1  0
 11 19  1  0
 12 11  2  0
 14 13  1  0
 14 16  1  0
 15 14  2  0
 17 16  1  0
 18 20  1  0
 18 17  1  1
 19 18  1  0
 20 21  1  0
 22 20  2  0
M  END
$$$$
