ATQ.pdb
     RDKit          3D

 22 21  0  0  1  0  0  0  0  0999 V2000
    2.8138  -18.7229   21.8232 C   0  0  0  0  0  0  0  0  0  0  0  0
    3.5340  -18.1489   20.6335 C   0  0  2  0  0  0  0  0  0  0  0  0
    3.3777  -19.0590   19.5219 N   0  0  0  0  0  0  0  0  0  0  0  0
    4.9577  -17.9259   20.9746 C   0  0  0  0  0  0  0  0  0  0  0  0
    5.7542  -18.9003   20.8992 O   0  0  0  0  0  0  0  0  0  0  0  0
    7.0916  -15.2779   19.4386 C   0  0  0  0  0  0  0  0  0  0  0  0
    7.1964  -15.1381   20.9224 C   0  0  1  0  0  0  0  0  0  0  0  0
    6.2290  -14.1614   21.2769 O   0  0  0  0  0  0  0  0  0  0  0  0
    6.8864  -16.4320   21.6804 C   0  0  2  0  0  0  0  0  0  0  0  0
    5.4723  -16.6785   21.3806 N   0  0  0  0  0  0  0  0  0  0  0  0
    7.0623  -16.1693   23.1255 C   0  0  0  0  0  0  0  0  0  0  0  0
    6.0492  -15.7642   23.7698 O   0  0  0  0  0  0  0  0  0  0  0  0
    7.6955  -20.5319   26.3749 N   0  0  0  0  0  0  0  0  0  0  0  0
    7.5240  -19.5536   27.3604 C   0  0  0  0  0  0  0  0  0  0  0  0
    7.4780  -19.8944   28.5606 O   0  0  0  0  0  0  0  0  0  0  0  0
    7.3884  -18.0939   27.0734 C   0  0  0  0  0  0  0  0  0  0  0  0
    7.3684  -17.8141   25.6032 C   0  0  0  0  0  0  0  0  0  0  0  0
    8.2984  -16.7217   25.2524 C   0  0  2  0  0  0  0  0  0  0  0  0
    8.2422  -16.3272   23.8579 N   0  0  0  0  0  0  0  0  0  0  0  0
    9.6570  -16.9486   25.7289 C   0  0  0  0  0  0  0  0  0  0  0  0
   10.7042  -17.5608   25.0850 O   0  0  0  0  0  0  0  0  0  0  0  0
    9.9428  -16.5319   26.9082 O   0  0  0  0  0  0  0  0  0  0  0  0
  2  1  1  1
  2  3  1  0
  4  2  1  0
  4 10  1  0
  5  4  2  0
  7  9  1  0
  7  6  1  6
  8  7  1  0
  9 10  1  1
  9 11  1  0
 11 19  1  0
 12 11  2  0
 14 13  1  0
 14 16  1  0
 15 14  2  0
 17 16  1  0
 18 20  1  0
 18 17  1  6
 19 18  1  0
 20 21  1  0
 22 20  2  0
M  END
$$$$
