ATQ.pdb
     RDKit          3D

 22 21  0  0  1  0  0  0  0  0999 V2000
    7.4724  -11.8103   26.6919 C   0  0  0  0  0  0  0  0  0  0  0  0
    6.4124  -12.1451   25.6780 C   0  0  2  0  0  0  0  0  0  0  0  0
    5.1212  -12.0602   26.3216 N   0  0  0  0  0  0  0  0  0  0  0  0
    6.6679  -13.4921   25.1182 C   0  0  0  0  0  0  0  0  0  0  0  0
    6.2294  -14.4961   25.7423 O   0  0  0  0  0  0  0  0  0  0  0  0
    6.8234  -14.1397   21.2392 C   0  0  0  0  0  0  0  0  0  0  0  0
    7.9728  -14.8082   21.9207 C   0  0  1  0  0  0  0  0  0  0  0  0
    9.0706  -13.9223   21.7619 O   0  0  0  0  0  0  0  0  0  0  0  0
    7.7434  -15.0406   23.4168 C   0  0  2  0  0  0  0  0  0  0  0  0
    7.3777  -13.7131   23.9212 N   0  0  0  0  0  0  0  0  0  0  0  0
    9.0246  -15.4770   24.0138 C   0  0  0  0  0  0  0  0  0  0  0  0
    9.6647  -14.6264   24.7012 O   0  0  0  0  0  0  0  0  0  0  0  0
    8.2782  -19.3725   28.6422 N   0  0  0  0  0  0  0  0  0  0  0  0
    9.2621  -18.6081   28.0053 C   0  0  0  0  0  0  0  0  0  0  0  0
   10.2325  -18.1846   28.6669 O   0  0  0  0  0  0  0  0  0  0  0  0
    9.2348  -18.2530   26.5546 C   0  0  0  0  0  0  0  0  0  0  0  0
   10.2567  -17.2134   26.2155 C   0  0  0  0  0  0  0  0  0  0  0  0
   10.6230  -17.2676   24.7858 C   0  0  2  0  0  0  0  0  0  0  0  0
    9.6029  -16.7441   23.8976 N   0  0  0  0  0  0  0  0  0  0  0  0
   11.1294  -18.5699   24.3714 C   0  0  0  0  0  0  0  0  0  0  0  0
   10.6087  -19.4418   23.4469 O   0  0  0  0  0  0  0  0  0  0  0  0
   12.2066  -18.9860   24.9307 O   0  0  0  0  0  0  0  0  0  0  0  0
  2  1  1  1
  2  3  1  0
  4  2  1  0
  4 10  1  0
  5  4  2  0
  7  9  1  0
  7  6  1  1
  8  7  1  0
  9 10  1  1
  9 11  1  0
 11 19  1  0
 12 11  2  0
 14 13  1  0
 14 16  1  0
 15 14  2  0
 17 16  1  0
 18 20  1  0
 18 17  1  1
 19 18  1  0
 20 21  1  0
 22 20  2  0
M  END
$$$$
