ATQ.pdb
     RDKit          3D

 22 21  0  0  1  0  0  0  0  0999 V2000
    8.2347  -12.1683   20.3034 C   0  0  0  0  0  0  0  0  0  0  0  0
    8.5549  -13.4697   19.6197 C   0  0  2  0  0  0  0  0  0  0  0  0
    7.6070  -13.6677   18.5470 N   0  0  0  0  0  0  0  0  0  0  0  0
    8.5166  -14.5724   20.6073 C   0  0  0  0  0  0  0  0  0  0  0  0
    7.3956  -15.0461   20.9371 O   0  0  0  0  0  0  0  0  0  0  0  0
    9.9170  -17.6422   19.9927 C   0  0  0  0  0  0  0  0  0  0  0  0
   10.4605  -17.3383   21.3509 C   0  0  1  0  0  0  0  0  0  0  0  0
   11.7717  -16.8415   21.1284 O   0  0  0  0  0  0  0  0  0  0  0  0
    9.6562  -16.2766   22.1063 C   0  0  2  0  0  0  0  0  0  0  0  0
    9.6698  -15.1230   21.2010 N   0  0  0  0  0  0  0  0  0  0  0  0
   10.3827  -15.9535   23.3537 C   0  0  0  0  0  0  0  0  0  0  0  0
   10.6790  -14.7381   23.5552 O   0  0  0  0  0  0  0  0  0  0  0  0
    9.3518  -13.4265   27.6969 N   0  0  0  0  0  0  0  0  0  0  0  0
    9.6580  -14.6013   28.3925 C   0  0  0  0  0  0  0  0  0  0  0  0
   10.0017  -14.5319   29.5907 O   0  0  0  0  0  0  0  0  0  0  0  0
    9.6020  -15.9671   27.7902 C   0  0  0  0  0  0  0  0  0  0  0  0
    9.6272  -15.9185   26.2944 C   0  0  0  0  0  0  0  0  0  0  0  0
   10.8466  -16.5559   25.7576 C   0  0  2  0  0  0  0  0  0  0  0  0
   10.7754  -16.8610   24.3415 N   0  0  0  0  0  0  0  0  0  0  0  0
   11.3097  -17.6791   26.5627 C   0  0  0  0  0  0  0  0  0  0  0  0
   12.3081  -17.7091   27.5052 O   0  0  0  0  0  0  0  0  0  0  0  0
   10.7248  -18.8076   26.3877 O   0  0  0  0  0  0  0  0  0  0  0  0
  2  1  1  1
  2  3  1  0
  4  2  1  0
  4 10  1  0
  5  4  2  0
  7  9  1  0
  7  6  1  6
  8  7  1  0
  9 10  1  6
  9 11  1  0
 11 19  1  0
 12 11  2  0
 14 13  1  0
 14 16  1  0
 15 14  2  0
 17 16  1  0
 18 20  1  0
 18 17  1  1
 19 18  1  0
 20 21  1  0
 22 20  2  0
M  END
$$$$
