ATQ.pdb
     RDKit          3D

 22 21  0  0  1  0  0  0  0  0999 V2000
   11.0121  -18.0372   20.2739 C   0  0  0  0  0  0  0  0  0  0  0  0
    9.6286  -17.4460   20.2785 C   0  0  2  0  0  0  0  0  0  0  0  0
    9.1739  -17.3367   18.9111 N   0  0  0  0  0  0  0  0  0  0  0  0
    9.6512  -16.1338   20.9644 C   0  0  0  0  0  0  0  0  0  0  0  0
   10.4382  -15.2457   20.5382 O   0  0  0  0  0  0  0  0  0  0  0  0
    8.3383  -13.6267   20.1677 C   0  0  0  0  0  0  0  0  0  0  0  0
    7.6551  -13.8741   21.4732 C   0  0  1  0  0  0  0  0  0  0  0  0
    6.6342  -14.8190   21.1898 O   0  0  0  0  0  0  0  0  0  0  0  0
    8.5799  -14.4588   22.5444 C   0  0  2  0  0  0  0  0  0  0  0  0
    8.8376  -15.8230   22.0721 N   0  0  0  0  0  0  0  0  0  0  0  0
    7.8353  -14.4946   23.8221 C   0  0  0  0  0  0  0  0  0  0  0  0
    6.8727  -15.3139   23.9108 O   0  0  0  0  0  0  0  0  0  0  0  0
   10.9118  -16.0937   28.7784 N   0  0  0  0  0  0  0  0  0  0  0  0
   10.0118  -15.0528   28.5245 C   0  0  0  0  0  0  0  0  0  0  0  0
    9.9131  -14.1151   29.3428 O   0  0  0  0  0  0  0  0  0  0  0  0
    9.1385  -14.9804   27.3147 C   0  0  0  0  0  0  0  0  0  0  0  0
    8.1602  -13.8509   27.3999 C   0  0  0  0  0  0  0  0  0  0  0  0
    7.3274  -13.7698   26.1829 C   0  0  2  0  0  0  0  0  0  0  0  0
    8.0908  -13.7114   24.9512 N   0  0  0  0  0  0  0  0  0  0  0  0
    6.2909  -12.7482   26.2631 C   0  0  0  0  0  0  0  0  0  0  0  0
    5.1562  -12.7318   27.0364 O   0  0  0  0  0  0  0  0  0  0  0  0
    6.4296  -11.7117   25.5198 O   0  0  0  0  0  0  0  0  0  0  0  0
  2  1  1  6
  2  3  1  0
  4  2  1  0
  4 10  1  0
  5  4  2  0
  7  9  1  0
  7  6  1  6
  8  7  1  0
  9 10  1  6
  9 11  1  0
 11 19  1  0
 12 11  2  0
 14 13  1  0
 14 16  1  0
 15 14  2  0
 17 16  1  0
 18 20  1  0
 18 17  1  1
 19 18  1  0
 20 21  1  0
 22 20  2  0
M  END
$$$$
