ILQ.pdb
     RDKit          3D

 26 25  0  0  1  0  0  0  0  0999 V2000
   22.4360  -20.3620  -15.9881 C   0  0  0  0  0  0  0  0  0  0  0  0
   23.7432  -20.2157  -15.2326 C   0  0  0  0  0  0  0  0  0  0  0  0
   23.5113  -20.7235  -13.8226 C   0  0  2  0  0  0  0  0  0  0  0  0
   22.3757  -19.9341  -13.2350 C   0  0  0  0  0  0  0  0  0  0  0  0
   24.8128  -20.5420  -13.0723 C   0  0  2  0  0  0  0  0  0  0  0  0
   25.8274  -21.2758  -13.8038 N   0  0  0  0  0  0  0  0  0  0  0  0
   24.7207  -21.0463  -11.6787 C   0  0  0  0  0  0  0  0  0  0  0  0
   24.6900  -22.2668  -11.4409 O   0  0  0  0  0  0  0  0  0  0  0  0
   25.2800  -20.9729   -6.3262 C   0  0  0  0  0  0  0  0  0  0  0  0
   26.2677  -20.2440   -7.2395 C   0  0  2  0  0  0  0  0  0  0  0  0
   27.1918  -19.3323   -6.5252 C   0  0  0  0  0  0  0  0  0  0  0  0
   25.6647  -19.7888   -8.5000 C   0  0  0  0  0  0  0  0  0  0  0  0
   24.6290  -20.5766   -9.1838 C   0  0  2  0  0  0  0  0  0  0  0  0
   24.6668  -20.1329  -10.6026 N   0  0  0  0  0  0  0  0  0  0  0  0
   23.2700  -20.6239   -8.7130 C   0  0  0  0  0  0  0  0  0  0  0  0
   22.5536  -19.5702   -8.8947 O   0  0  0  0  0  0  0  0  0  0  0  0
   18.0129  -23.0041   -9.8273 N   0  0  0  0  0  0  0  0  0  0  0  0
   18.9176  -24.0010   -9.3741 C   0  0  0  0  0  0  0  0  0  0  0  0
   18.6273  -25.2145   -9.5101 O   0  0  0  0  0  0  0  0  0  0  0  0
   20.2234  -23.5861   -8.7315 C   0  0  0  0  0  0  0  0  0  0  0  0
   20.3405  -22.1085   -8.8113 C   0  0  0  0  0  0  0  0  0  0  0  0
   21.1755  -21.5339   -7.6709 C   0  0  2  0  0  0  0  0  0  0  0  0
   22.5892  -21.6846   -8.0737 N   0  0  0  0  0  0  0  0  0  0  0  0
   20.9579  -22.2977   -6.4470 C   0  0  0  0  0  0  0  0  0  0  0  0
   21.7587  -23.1818   -6.0188 O   0  0  0  0  0  0  0  0  0  0  0  0
   19.8401  -22.0889   -5.6742 O   0  0  0  0  0  0  0  0  0  0  0  0
  2  1  1  0
  3  2  1  0
  3  5  1  0
  3  4  1  1
  5  6  1  6
  7  5  1  0
  7  8  2  0
 10  9  1  1
 10 11  1  0
 10 12  1  0
 13 14  1  0
 13 12  1  1
 14  7  1  0
 15 13  1  0
 16 15  2  0
 17 18  1  0
 18 19  2  0
 20 18  1  0
 20 21  1  0
 22 21  1  6
 22 23  1  0
 23 15  1  0
 24 26  1  0
 24 22  1  0
 25 24  2  0
M  END
$$$$
