ILQ.pdb
     RDKit          3D

 26 25  0  0  1  0  0  0  0  0999 V2000
   27.2294  -21.2867  -18.1462 C   0  0  0  0  0  0  0  0  0  0  0  0
   27.4426  -21.9253  -16.7869 C   0  0  0  0  0  0  0  0  0  0  0  0
   26.2176  -21.6219  -15.9462 C   0  0  2  0  0  0  0  0  0  0  0  0
   26.0928  -20.1278  -15.8453 C   0  0  0  0  0  0  0  0  0  0  0  0
   26.4287  -22.2929  -14.6064 C   0  0  2  0  0  0  0  0  0  0  0  0
   26.5967  -23.7098  -14.8660 N   0  0  0  0  0  0  0  0  0  0  0  0
   25.2797  -22.0724  -13.6921 C   0  0  0  0  0  0  0  0  0  0  0  0
   24.2260  -22.7206  -13.8212 O   0  0  0  0  0  0  0  0  0  0  0  0
   24.9745  -21.9573   -9.0005 C   0  0  0  0  0  0  0  0  0  0  0  0
   25.6284  -20.6890   -9.5526 C   0  0  2  0  0  0  0  0  0  0  0  0
   26.2432  -19.8259   -8.5170 C   0  0  0  0  0  0  0  0  0  0  0  0
   24.8497  -20.0548  -10.6254 C   0  0  0  0  0  0  0  0  0  0  0  0
   24.2597  -20.8451  -11.7155 C   0  0  2  0  0  0  0  0  0  0  0  0
   25.3774  -21.1145  -12.6587 N   0  0  0  0  0  0  0  0  0  0  0  0
   23.0957  -20.4024  -12.4365 C   0  0  0  0  0  0  0  0  0  0  0  0
   23.2409  -19.3815  -13.2067 O   0  0  0  0  0  0  0  0  0  0  0  0
   19.7068  -24.1322  -15.0861 N   0  0  0  0  0  0  0  0  0  0  0  0
   18.8114  -23.5733  -14.1355 C   0  0  0  0  0  0  0  0  0  0  0  0
   17.6636  -24.0622  -13.9978 O   0  0  0  0  0  0  0  0  0  0  0  0
   19.2540  -22.3927  -13.2987 C   0  0  0  0  0  0  0  0  0  0  0  0
   20.1829  -21.5631  -14.1064 C   0  0  0  0  0  0  0  0  0  0  0  0
   20.7435  -20.3865  -13.3129 C   0  0  2  0  0  0  0  0  0  0  0  0
   21.7894  -20.9418  -12.4289 N   0  0  0  0  0  0  0  0  0  0  0  0
   19.7020  -19.7916  -12.4824 C   0  0  0  0  0  0  0  0  0  0  0  0
   19.6666  -19.8933  -11.2196 O   0  0  0  0  0  0  0  0  0  0  0  0
   18.6771  -19.0688  -13.0459 O   0  0  0  0  0  0  0  0  0  0  0  0
  2  1  1  0
  3  2  1  0
  3  5  1  0
  3  4  1  1
  5  6  1  6
  7  5  1  0
  7  8  2  0
 10  9  1  1
 10 11  1  0
 10 12  1  0
 13 14  1  0
 13 12  1  1
 14  7  1  0
 15 13  1  0
 16 15  2  0
 17 18  1  0
 18 19  2  0
 20 18  1  0
 20 21  1  0
 22 21  1  1
 22 23  1  0
 23 15  1  0
 24 26  1  0
 24 22  1  0
 25 24  2  0
M  END
$$$$
