ILQ.pdb
     RDKit          3D

 26 25  0  0  1  0  0  0  0  0999 V2000
   18.9225  -22.2234  -13.9884 C   0  0  0  0  0  0  0  0  0  0  0  0
   19.5558  -22.1308  -12.6132 C   0  0  0  0  0  0  0  0  0  0  0  0
   20.8644  -21.3801  -12.7662 C   0  0  2  0  0  0  0  0  0  0  0  0
   21.7152  -22.1418  -13.7429 C   0  0  0  0  0  0  0  0  0  0  0  0
   21.4801  -21.2876  -11.3870 C   0  0  2  0  0  0  0  0  0  0  0  0
   20.5263  -20.5918  -10.5449 N   0  0  0  0  0  0  0  0  0  0  0  0
   22.7729  -20.5574  -11.4081 C   0  0  0  0  0  0  0  0  0  0  0  0
   22.8132  -19.3347  -11.6333 O   0  0  0  0  0  0  0  0  0  0  0  0
   25.7472  -19.1574   -8.5435 C   0  0  0  0  0  0  0  0  0  0  0  0
   25.8286  -20.6820   -8.6421 C   0  0  2  0  0  0  0  0  0  0  0  0
   26.6001  -21.3182   -7.5487 C   0  0  0  0  0  0  0  0  0  0  0  0
   26.0264  -21.1647  -10.0159 C   0  0  0  0  0  0  0  0  0  0  0  0
   25.2999  -20.5737  -11.1491 C   0  0  2  0  0  0  0  0  0  0  0  0
   23.9781  -21.2545  -11.1700 N   0  0  0  0  0  0  0  0  0  0  0  0
   25.8581  -20.5294  -12.4746 C   0  0  0  0  0  0  0  0  0  0  0  0
   25.8619  -21.6297  -13.1422 O   0  0  0  0  0  0  0  0  0  0  0  0
   27.4499  -15.6062  -15.9619 N   0  0  0  0  0  0  0  0  0  0  0  0
   27.6496  -16.6384  -16.9172 C   0  0  0  0  0  0  0  0  0  0  0  0
   28.0479  -16.3503  -18.0720 O   0  0  0  0  0  0  0  0  0  0  0  0
   27.3791  -18.0758  -16.5291 C   0  0  0  0  0  0  0  0  0  0  0  0
   27.0281  -18.1177  -15.0874 C   0  0  0  0  0  0  0  0  0  0  0  0
   26.7375  -19.5360  -14.6057 C   0  0  2  0  0  0  0  0  0  0  0  0
   26.4073  -19.4279  -13.1694 N   0  0  0  0  0  0  0  0  0  0  0  0
   27.9237  -20.3736  -14.7471 C   0  0  0  0  0  0  0  0  0  0  0  0
   28.9844  -20.2092  -14.0731 O   0  0  0  0  0  0  0  0  0  0  0  0
   27.9495  -21.4145  -15.6450 O   0  0  0  0  0  0  0  0  0  0  0  0
  2  1  1  0
  3  2  1  0
  3  5  1  0
  3  4  1  6
  5  6  1  1
  7  5  1  0
  7  8  2  0
 10  9  1  6
 10 11  1  0
 10 12  1  0
 13 14  1  0
 13 12  1  1
 14  7  1  0
 15 13  1  0
 16 15  2  0
 17 18  1  0
 18 19  2  0
 20 18  1  0
 20 21  1  0
 22 21  1  1
 22 23  1  0
 23 15  1  0
 24 26  1  0
 24 22  1  0
 25 24  2  0
M  END
$$$$
