ILQ.pdb
     RDKit          3D

 26 25  0  0  1  0  0  0  0  0999 V2000
   27.6139  -19.1330  -18.2904 C   0  0  0  0  0  0  0  0  0  0  0  0
   28.1644  -19.9864  -17.1637 C   0  0  0  0  0  0  0  0  0  0  0  0
   27.0209  -20.2693  -16.2087 C   0  0  2  0  0  0  0  0  0  0  0  0
   26.5046  -18.9484  -15.7121 C   0  0  0  0  0  0  0  0  0  0  0  0
   27.5775  -21.1430  -15.1057 C   0  0  2  0  0  0  0  0  0  0  0  0
   28.0373  -22.3687  -15.7298 N   0  0  0  0  0  0  0  0  0  0  0  0
   26.5542  -21.4465  -14.0734 C   0  0  0  0  0  0  0  0  0  0  0  0
   25.5814  -22.1771  -14.3324 O   0  0  0  0  0  0  0  0  0  0  0  0
   24.1074  -20.7307   -9.2419 C   0  0  0  0  0  0  0  0  0  0  0  0
   25.6252  -20.9093   -9.1689 C   0  0  2  0  0  0  0  0  0  0  0  0
   26.2449  -20.3254   -7.9562 C   0  0  0  0  0  0  0  0  0  0  0  0
   26.2948  -20.7178  -10.4629 C   0  0  0  0  0  0  0  0  0  0  0  0
   25.6469  -21.0994  -11.7261 C   0  0  2  0  0  0  0  0  0  0  0  0
   26.6807  -20.9013  -12.7765 N   0  0  0  0  0  0  0  0  0  0  0  0
   24.3950  -20.5274  -12.1457 C   0  0  0  0  0  0  0  0  0  0  0  0
   24.4289  -19.3269  -12.6085 O   0  0  0  0  0  0  0  0  0  0  0  0
   21.6386  -21.5627  -16.7226 N   0  0  0  0  0  0  0  0  0  0  0  0
   20.6402  -20.6626  -16.2632 C   0  0  0  0  0  0  0  0  0  0  0  0
   19.7352  -20.2834  -17.0457 O   0  0  0  0  0  0  0  0  0  0  0  0
   20.6808  -20.1714  -14.8324 C   0  0  0  0  0  0  0  0  0  0  0  0
   21.8613  -20.7702  -14.1607 C   0  0  0  0  0  0  0  0  0  0  0  0
   21.9489  -20.3763  -12.6892 C   0  0  2  0  0  0  0  0  0  0  0  0
   23.1060  -21.1069  -12.1314 N   0  0  0  0  0  0  0  0  0  0  0  0
   20.7471  -20.7984  -11.9780 C   0  0  0  0  0  0  0  0  0  0  0  0
   20.7277  -21.7370  -11.1266 O   0  0  0  0  0  0  0  0  0  0  0  0
   19.5402  -20.1792  -12.2024 O   0  0  0  0  0  0  0  0  0  0  0  0
  2  1  1  0
  3  2  1  0
  3  5  1  0
  3  4  1  1
  5  6  1  6
  7  5  1  0
  7  8  2  0
 10  9  1  6
 10 11  1  0
 10 12  1  0
 13 14  1  0
 13 12  1  1
 14  7  1  0
 15 13  1  0
 16 15  2  0
 17 18  1  0
 18 19  2  0
 20 18  1  0
 20 21  1  0
 22 21  1  6
 22 23  1  0
 23 15  1  0
 24 26  1  0
 24 22  1  0
 25 24  2  0
M  END
$$$$
