ILQ.pdb
     RDKit          3D

 26 25  0  0  1  0  0  0  0  0999 V2000
   27.4618  -21.7656   -9.4232 C   0  0  0  0  0  0  0  0  0  0  0  0
   26.8514  -20.4842   -9.9584 C   0  0  0  0  0  0  0  0  0  0  0  0
   25.4606  -20.8198  -10.4608 C   0  0  2  0  0  0  0  0  0  0  0  0
   25.6006  -21.8823  -11.5141 C   0  0  0  0  0  0  0  0  0  0  0  0
   24.8636  -19.5336  -10.9891 C   0  0  2  0  0  0  0  0  0  0  0  0
   24.9378  -18.5618   -9.9153 N   0  0  0  0  0  0  0  0  0  0  0  0
   23.4539  -19.7156  -11.4187 C   0  0  0  0  0  0  0  0  0  0  0  0
   22.5439  -19.8586  -10.5829 O   0  0  0  0  0  0  0  0  0  0  0  0
   20.7367  -18.7214  -16.8597 C   0  0  0  0  0  0  0  0  0  0  0  0
   20.5215  -19.3259  -15.4708 C   0  0  2  0  0  0  0  0  0  0  0  0
   19.2345  -18.9495  -14.8405 C   0  0  0  0  0  0  0  0  0  0  0  0
   21.7363  -19.3263  -14.6439 C   0  0  0  0  0  0  0  0  0  0  0  0
   21.7399  -19.8888  -13.2856 C   0  0  2  0  0  0  0  0  0  0  0  0
   23.1342  -19.7279  -12.7945 N   0  0  0  0  0  0  0  0  0  0  0  0
   21.2648  -21.2185  -13.0084 C   0  0  0  0  0  0  0  0  0  0  0  0
   22.0349  -22.1939  -13.3432 O   0  0  0  0  0  0  0  0  0  0  0  0
   19.4945  -23.4994   -7.9314 N   0  0  0  0  0  0  0  0  0  0  0  0
   18.4094  -24.0147   -8.6896 C   0  0  0  0  0  0  0  0  0  0  0  0
   17.4457  -24.5655   -8.1038 O   0  0  0  0  0  0  0  0  0  0  0  0
   18.4294  -23.8925  -10.1978 C   0  0  0  0  0  0  0  0  0  0  0  0
   19.6553  -23.1562  -10.5958 C   0  0  0  0  0  0  0  0  0  0  0  0
   19.7945  -23.0445  -12.1112 C   0  0  2  0  0  0  0  0  0  0  0  0
   20.0531  -21.6188  -12.4010 N   0  0  0  0  0  0  0  0  0  0  0  0
   18.5496  -23.4326  -12.7655 C   0  0  0  0  0  0  0  0  0  0  0  0
   17.6328  -22.6136  -13.0736 O   0  0  0  0  0  0  0  0  0  0  0  0
   18.3030  -24.7455  -13.0910 O   0  0  0  0  0  0  0  0  0  0  0  0
  2  1  1  0
  3  2  1  0
  3  5  1  0
  3  4  1  6
  5  6  1  1
  7  5  1  0
  7  8  2  0
 10  9  1  6
 10 11  1  0
 10 12  1  0
 13 14  1  0
 13 12  1  6
 14  7  1  0
 15 13  1  0
 16 15  2  0
 17 18  1  0
 18 19  2  0
 20 18  1  0
 20 21  1  0
 22 21  1  1
 22 23  1  0
 23 15  1  0
 24 26  1  0
 24 22  1  0
 25 24  2  0
M  END
$$$$
