ILQ.pdb
     RDKit          3D

 26 25  0  0  1  0  0  0  0  0999 V2000
   18.3306  -16.5797  -18.1326 C   0  0  0  0  0  0  0  0  0  0  0  0
   18.9690  -15.3373  -18.7240 C   0  0  0  0  0  0  0  0  0  0  0  0
   19.3195  -14.4154  -17.5721 C   0  0  2  0  0  0  0  0  0  0  0  0
   18.0532  -14.1311  -16.8146 C   0  0  0  0  0  0  0  0  0  0  0  0
   19.9417  -13.1758  -18.1770 C   0  0  2  0  0  0  0  0  0  0  0  0
   21.0008  -13.6236  -19.0607 N   0  0  0  0  0  0  0  0  0  0  0  0
   20.4917  -12.2708  -17.1360 C   0  0  0  0  0  0  0  0  0  0  0  0
   19.7639  -11.8128  -16.2373 O   0  0  0  0  0  0  0  0  0  0  0  0
   26.2793  -10.6464  -15.7281 C   0  0  0  0  0  0  0  0  0  0  0  0
   24.8090  -10.3047  -15.4781 C   0  0  2  0  0  0  0  0  0  0  0  0
   24.5000   -9.9567  -14.0714 C   0  0  0  0  0  0  0  0  0  0  0  0
   23.8786  -11.1773  -16.2077 C   0  0  0  0  0  0  0  0  0  0  0  0
   22.4357  -10.8985  -16.2467 C   0  0  2  0  0  0  0  0  0  0  0  0
   21.8599  -11.9207  -17.1604 N   0  0  0  0  0  0  0  0  0  0  0  0
   21.9181   -9.5950  -16.5686 C   0  0  0  0  0  0  0  0  0  0  0  0
   22.0017   -9.2222  -17.7976 O   0  0  0  0  0  0  0  0  0  0  0  0
   16.7299   -7.0934  -16.0405 N   0  0  0  0  0  0  0  0  0  0  0  0
   17.3953   -5.9111  -16.4620 C   0  0  0  0  0  0  0  0  0  0  0  0
   16.7249   -4.9043  -16.7968 O   0  0  0  0  0  0  0  0  0  0  0  0
   18.9077   -5.8808  -16.5018 C   0  0  0  0  0  0  0  0  0  0  0  0
   19.4166   -7.2298  -16.1488 C   0  0  0  0  0  0  0  0  0  0  0  0
   20.9385   -7.3097  -16.2236 C   0  0  2  0  0  0  0  0  0  0  0  0
   21.3102   -8.6465  -15.7152 N   0  0  0  0  0  0  0  0  0  0  0  0
   21.5432   -6.3007  -15.3606 C   0  0  0  0  0  0  0  0  0  0  0  0
   21.9870   -6.5444  -14.1987 O   0  0  0  0  0  0  0  0  0  0  0  0
   21.6659   -4.9966  -15.7785 O   0  0  0  0  0  0  0  0  0  0  0  0
  2  1  1  0
  3  2  1  0
  3  5  1  0
  3  4  1  6
  5  6  1  6
  7  5  1  0
  7  8  2  0
 10  9  1  1
 10 11  1  0
 10 12  1  0
 13 14  1  0
 13 12  1  6
 14  7  1  0
 15 13  1  0
 16 15  2  0
 17 18  1  0
 18 19  2  0
 20 18  1  0
 20 21  1  0
 22 21  1  1
 22 23  1  0
 23 15  1  0
 24 26  1  0
 24 22  1  0
 25 24  2  0
M  END
$$$$
