ILQ.pdb
     RDKit          3D

 26 25  0  0  1  0  0  0  0  0999 V2000
   25.1400  -17.8432  -19.1947 C   0  0  0  0  0  0  0  0  0  0  0  0
   25.9400  -18.3724  -18.0196 C   0  0  0  0  0  0  0  0  0  0  0  0
   24.9916  -19.1747  -17.1499 C   0  0  2  0  0  0  0  0  0  0  0  0
   23.8048  -18.3042  -16.8466 C   0  0  0  0  0  0  0  0  0  0  0  0
   25.7656  -19.5770  -15.9134 C   0  0  2  0  0  0  0  0  0  0  0  0
   26.9294  -20.3147  -16.3656 N   0  0  0  0  0  0  0  0  0  0  0  0
   24.9492  -20.4173  -15.0010 C   0  0  0  0  0  0  0  0  0  0  0  0
   24.5098  -21.5210  -15.3697 O   0  0  0  0  0  0  0  0  0  0  0  0
   25.8710  -22.3280  -11.3711 C   0  0  0  0  0  0  0  0  0  0  0  0
   25.5735  -20.8835  -10.9642 C   0  0  2  0  0  0  0  0  0  0  0  0
   26.0139  -20.5391   -9.5920 C   0  0  0  0  0  0  0  0  0  0  0  0
   24.2588  -20.4114  -11.4204 C   0  0  0  0  0  0  0  0  0  0  0  0
   23.7641  -20.7071  -12.7728 C   0  0  2  0  0  0  0  0  0  0  0  0
   24.6634  -19.9633  -13.6944 N   0  0  0  0  0  0  0  0  0  0  0  0
   22.3894  -20.5016  -13.1451 C   0  0  0  0  0  0  0  0  0  0  0  0
   21.9595  -19.2886  -13.1398 O   0  0  0  0  0  0  0  0  0  0  0  0
   19.2861  -22.6992  -17.6992 N   0  0  0  0  0  0  0  0  0  0  0  0
   18.2482  -21.8992  -17.1509 C   0  0  0  0  0  0  0  0  0  0  0  0
   17.1931  -21.7132  -17.8047 O   0  0  0  0  0  0  0  0  0  0  0  0
   18.4285  -21.2798  -15.7819 C   0  0  0  0  0  0  0  0  0  0  0  0
   19.7935  -21.6003  -15.2946 C   0  0  0  0  0  0  0  0  0  0  0  0
   20.0562  -21.0348  -13.9020 C   0  0  2  0  0  0  0  0  0  0  0  0
   21.4231  -21.4575  -13.5326 N   0  0  0  0  0  0  0  0  0  0  0  0
   19.1190  -21.6020  -12.9384 C   0  0  0  0  0  0  0  0  0  0  0  0
   18.0170  -21.0590  -12.6267 O   0  0  0  0  0  0  0  0  0  0  0  0
   19.3930  -22.7899  -12.3027 O   0  0  0  0  0  0  0  0  0  0  0  0
  2  1  1  0
  3  2  1  0
  3  5  1  0
  3  4  1  1
  5  6  1  6
  7  5  1  0
  7  8  2  0
 10  9  1  1
 10 11  1  0
 10 12  1  0
 13 14  1  0
 13 12  1  1
 14  7  1  0
 15 13  1  0
 16 15  2  0
 17 18  1  0
 18 19  2  0
 20 18  1  0
 20 21  1  0
 22 21  1  6
 22 23  1  0
 23 15  1  0
 24 26  1  0
 24 22  1  0
 25 24  2  0
M  END
$$$$
