ILQ.pdb
     RDKit          3D

 26 25  0  0  1  0  0  0  0  0999 V2000
   20.6515  -20.9105  -17.1180 C   0  0  0  0  0  0  0  0  0  0  0  0
   19.9539  -20.4401  -15.8558 C   0  0  0  0  0  0  0  0  0  0  0  0
   20.4292  -21.3238  -14.7188 C   0  0  2  0  0  0  0  0  0  0  0  0
   20.1647  -22.7505  -15.1093 C   0  0  0  0  0  0  0  0  0  0  0  0
   19.6685  -20.8946  -13.4831 C   0  0  2  0  0  0  0  0  0  0  0  0
   19.8920  -19.4706  -13.3234 N   0  0  0  0  0  0  0  0  0  0  0  0
   20.1258  -21.6237  -12.2731 C   0  0  0  0  0  0  0  0  0  0  0  0
   20.0354  -22.8621  -12.2002 O   0  0  0  0  0  0  0  0  0  0  0  0
   22.4856  -21.9441   -7.2416 C   0  0  0  0  0  0  0  0  0  0  0  0
   23.1390  -21.1667   -8.3859 C   0  0  2  0  0  0  0  0  0  0  0  0
   24.2231  -20.2533   -7.9546 C   0  0  0  0  0  0  0  0  0  0  0  0
   22.1756  -20.6910   -9.3885 C   0  0  0  0  0  0  0  0  0  0  0  0
   21.1478  -21.5810   -9.9478 C   0  0  2  0  0  0  0  0  0  0  0  0
   20.6722  -20.9073  -11.1853 N   0  0  0  0  0  0  0  0  0  0  0  0
   20.0282  -22.0392   -9.1687 C   0  0  0  0  0  0  0  0  0  0  0  0
   19.0284  -21.2363   -9.0573 O   0  0  0  0  0  0  0  0  0  0  0  0
   17.7944  -27.5540   -9.4292 N   0  0  0  0  0  0  0  0  0  0  0  0
   16.7890  -27.0048   -8.5892 C   0  0  0  0  0  0  0  0  0  0  0  0
   15.7576  -27.6725   -8.3331 O   0  0  0  0  0  0  0  0  0  0  0  0
   16.9751  -25.6182   -8.0123 C   0  0  0  0  0  0  0  0  0  0  0  0
   18.2479  -25.0577   -8.5313 C   0  0  0  0  0  0  0  0  0  0  0  0
   18.5338  -23.6656   -7.9759 C   0  0  2  0  0  0  0  0  0  0  0  0
   19.8584  -23.2727   -8.5001 N   0  0  0  0  0  0  0  0  0  0  0  0
   18.6044  -23.7046   -6.5192 C   0  0  0  0  0  0  0  0  0  0  0  0
   17.5860  -23.7718   -5.7679 O   0  0  0  0  0  0  0  0  0  0  0  0
   19.8161  -23.6705   -5.8703 O   0  0  0  0  0  0  0  0  0  0  0  0
  2  1  1  0
  3  2  1  0
  3  5  1  0
  3  4  1  6
  5  6  1  1
  7  5  1  0
  7  8  2  0
 10  9  1  1
 10 11  1  0
 10 12  1  0
 13 14  1  0
 13 12  1  1
 14  7  1  0
 15 13  1  0
 16 15  2  0
 17 18  1  0
 18 19  2  0
 20 18  1  0
 20 21  1  0
 22 21  1  6
 22 23  1  0
 23 15  1  0
 24 26  1  0
 24 22  1  0
 25 24  2  0
M  END
$$$$
