ILQ.pdb
     RDKit          3D

 26 25  0  0  1  0  0  0  0  0999 V2000
   28.3066  -17.8819  -17.2419 C   0  0  0  0  0  0  0  0  0  0  0  0
   28.0524  -19.2113  -17.9267 C   0  0  0  0  0  0  0  0  0  0  0  0
   26.9982  -19.9432  -17.1189 C   0  0  2  0  0  0  0  0  0  0  0  0
   25.7493  -19.1077  -17.1363 C   0  0  0  0  0  0  0  0  0  0  0  0
   27.5661  -20.1349  -15.7294 C   0  0  2  0  0  0  0  0  0  0  0  0
   28.7714  -20.9286  -15.8721 N   0  0  0  0  0  0  0  0  0  0  0  0
   26.6041  -20.8217  -14.8305 C   0  0  0  0  0  0  0  0  0  0  0  0
   26.1605  -21.9495  -15.1103 O   0  0  0  0  0  0  0  0  0  0  0  0
   25.6451  -20.1131   -8.9242 C   0  0  0  0  0  0  0  0  0  0  0  0
   25.5570  -20.9662  -10.1912 C   0  0  2  0  0  0  0  0  0  0  0  0
   26.4806  -22.1246  -10.2054 C   0  0  0  0  0  0  0  0  0  0  0  0
   25.4081  -20.1699  -11.4173 C   0  0  0  0  0  0  0  0  0  0  0  0
   25.1851  -20.8067  -12.7235 C   0  0  2  0  0  0  0  0  0  0  0  0
   26.1823  -20.1912  -13.6390 N   0  0  0  0  0  0  0  0  0  0  0  0
   23.8887  -20.8366  -13.3472 C   0  0  0  0  0  0  0  0  0  0  0  0
   23.4752  -19.7426  -13.8845 O   0  0  0  0  0  0  0  0  0  0  0  0
   21.2010  -23.8675  -17.1334 N   0  0  0  0  0  0  0  0  0  0  0  0
   19.9448  -23.4805  -16.5948 C   0  0  0  0  0  0  0  0  0  0  0  0
   18.9307  -23.4559  -17.3339 O   0  0  0  0  0  0  0  0  0  0  0  0
   19.8452  -23.1020  -15.1330 C   0  0  0  0  0  0  0  0  0  0  0  0
   21.2082  -23.1234  -14.5457 C   0  0  0  0  0  0  0  0  0  0  0  0
   21.6773  -21.7334  -14.1262 C   0  0  2  0  0  0  0  0  0  0  0  0
   22.9864  -21.9180  -13.4660 N   0  0  0  0  0  0  0  0  0  0  0  0
   20.7490  -21.1537  -13.1615 C   0  0  0  0  0  0  0  0  0  0  0  0
   20.8846  -21.2579  -11.9057 O   0  0  0  0  0  0  0  0  0  0  0  0
   19.6486  -20.4434  -13.5801 O   0  0  0  0  0  0  0  0  0  0  0  0
  2  1  1  0
  3  2  1  0
  3  5  1  0
  3  4  1  1
  5  6  1  6
  7  5  1  0
  7  8  2  0
 10  9  1  1
 10 11  1  0
 10 12  1  0
 13 14  1  0
 13 12  1  1
 14  7  1  0
 15 13  1  0
 16 15  2  0
 17 18  1  0
 18 19  2  0
 20 18  1  0
 20 21  1  0
 22 21  1  1
 22 23  1  0
 23 15  1  0
 24 26  1  0
 24 22  1  0
 25 24  2  0
M  END
$$$$
