ILQ.pdb
     RDKit          3D

 26 25  0  0  1  0  0  0  0  0999 V2000
   27.4080  -20.4218  -18.6280 C   0  0  0  0  0  0  0  0  0  0  0  0
   27.8457  -21.2302  -17.4215 C   0  0  0  0  0  0  0  0  0  0  0  0
   26.6976  -21.2239  -16.4308 C   0  0  2  0  0  0  0  0  0  0  0  0
   26.4226  -19.7937  -16.0609 C   0  0  0  0  0  0  0  0  0  0  0  0
   27.1307  -22.0700  -15.2533 C   0  0  2  0  0  0  0  0  0  0  0  0
   27.2957  -23.4243  -15.7449 N   0  0  0  0  0  0  0  0  0  0  0  0
   26.1302  -22.0417  -14.1564 C   0  0  0  0  0  0  0  0  0  0  0  0
   25.0607  -22.6698  -14.2498 O   0  0  0  0  0  0  0  0  0  0  0  0
   24.1467  -20.3253   -9.3422 C   0  0  0  0  0  0  0  0  0  0  0  0
   25.6216  -20.7323   -9.3522 C   0  0  2  0  0  0  0  0  0  0  0  0
   26.4189  -20.1423   -8.2514 C   0  0  0  0  0  0  0  0  0  0  0  0
   26.2039  -20.7698  -10.7009 C   0  0  0  0  0  0  0  0  0  0  0  0
   25.4195  -21.2106  -11.8634 C   0  0  2  0  0  0  0  0  0  0  0  0
   26.3898  -21.2928  -12.9872 N   0  0  0  0  0  0  0  0  0  0  0  0
   24.2269  -20.5244  -12.2847 C   0  0  0  0  0  0  0  0  0  0  0  0
   24.3691  -19.3199  -12.7155 O   0  0  0  0  0  0  0  0  0  0  0  0
   22.3647  -22.4195  -16.5628 N   0  0  0  0  0  0  0  0  0  0  0  0
   21.1408  -21.8670  -16.0994 C   0  0  0  0  0  0  0  0  0  0  0  0
   20.2209  -21.6174  -16.9159 O   0  0  0  0  0  0  0  0  0  0  0  0
   20.9614  -21.5858  -14.6233 C   0  0  0  0  0  0  0  0  0  0  0  0
   21.6997  -20.3430  -14.2862 C   0  0  0  0  0  0  0  0  0  0  0  0
   21.7990  -20.1220  -12.7797 C   0  0  2  0  0  0  0  0  0  0  0  0
   22.8936  -20.9929  -12.3030 N   0  0  0  0  0  0  0  0  0  0  0  0
   20.5617  -20.5309  -12.1236 C   0  0  0  0  0  0  0  0  0  0  0  0
   20.4572  -21.5706  -11.4064 O   0  0  0  0  0  0  0  0  0  0  0  0
   19.4140  -19.7853  -12.2543 O   0  0  0  0  0  0  0  0  0  0  0  0
  2  1  1  0
  3  2  1  0
  3  5  1  0
  3  4  1  1
  5  6  1  6
  7  5  1  0
  7  8  2  0
 10  9  1  6
 10 11  1  0
 10 12  1  0
 13 14  1  0
 13 12  1  1
 14  7  1  0
 15 13  1  0
 16 15  2  0
 17 18  1  0
 18 19  2  0
 20 18  1  0
 20 21  1  0
 22 21  1  6
 22 23  1  0
 23 15  1  0
 24 26  1  0
 24 22  1  0
 25 24  2  0
M  END
$$$$
