ILQ.pdb
     RDKit          3D

 26 25  0  0  1  0  0  0  0  0999 V2000
   19.4480  -17.0765  -18.8953 C   0  0  0  0  0  0  0  0  0  0  0  0
   20.3096  -15.9534  -19.4405 C   0  0  0  0  0  0  0  0  0  0  0  0
   20.4544  -14.9186  -18.3416 C   0  0  2  0  0  0  0  0  0  0  0  0
   19.0730  -14.5377  -17.8894 C   0  0  0  0  0  0  0  0  0  0  0  0
   21.2281  -13.7593  -18.9309 C   0  0  2  0  0  0  0  0  0  0  0  0
   22.3915  -14.3204  -19.5905 N   0  0  0  0  0  0  0  0  0  0  0  0
   21.6486  -12.7899  -17.8876 C   0  0  0  0  0  0  0  0  0  0  0  0
   20.8081  -12.2086  -17.1786 O   0  0  0  0  0  0  0  0  0  0  0  0
   25.4628   -9.6452  -15.4707 C   0  0  0  0  0  0  0  0  0  0  0  0
   25.7843  -11.1392  -15.5447 C   0  0  2  0  0  0  0  0  0  0  0  0
   27.2320  -11.4495  -15.4865 C   0  0  0  0  0  0  0  0  0  0  0  0
   24.9473  -11.8656  -16.5097 C   0  0  0  0  0  0  0  0  0  0  0  0
   23.5065  -11.5993  -16.6291 C   0  0  2  0  0  0  0  0  0  0  0  0
   23.0210  -12.5188  -17.6921 N   0  0  0  0  0  0  0  0  0  0  0  0
   22.9901  -10.2734  -16.8438 C   0  0  0  0  0  0  0  0  0  0  0  0
   23.3113   -9.6949  -17.9477 O   0  0  0  0  0  0  0  0  0  0  0  0
   17.7244   -8.1769  -17.4605 N   0  0  0  0  0  0  0  0  0  0  0  0
   18.3172   -6.8903  -17.3544 C   0  0  0  0  0  0  0  0  0  0  0  0
   17.6295   -5.8662  -17.5859 O   0  0  0  0  0  0  0  0  0  0  0  0
   19.7739   -6.7707  -16.9624 C   0  0  0  0  0  0  0  0  0  0  0  0
   20.3066   -8.1319  -16.7036 C   0  0  0  0  0  0  0  0  0  0  0  0
   21.7967   -8.1152  -16.3758 C   0  0  2  0  0  0  0  0  0  0  0  0
   22.1564   -9.4996  -16.0050 N   0  0  0  0  0  0  0  0  0  0  0  0
   22.0556   -7.2466  -15.2325 C   0  0  0  0  0  0  0  0  0  0  0  0
   22.1950   -7.6697  -14.0460 O   0  0  0  0  0  0  0  0  0  0  0  0
   22.1655   -5.8853  -15.3912 O   0  0  0  0  0  0  0  0  0  0  0  0
  2  1  1  0
  3  2  1  0
  3  5  1  0
  3  4  1  6
  5  6  1  1
  7  5  1  0
  7  8  2  0
 10  9  1  6
 10 11  1  0
 10 12  1  0
 13 14  1  0
 13 12  1  6
 14  7  1  0
 15 13  1  0
 16 15  2  0
 17 18  1  0
 18 19  2  0
 20 18  1  0
 20 21  1  0
 22 21  1  1
 22 23  1  0
 23 15  1  0
 24 26  1  0
 24 22  1  0
 25 24  2  0
M  END
$$$$
