ILQ.pdb
     RDKit          3D

 26 25  0  0  1  0  0  0  0  0999 V2000
   27.8827  -18.7407  -18.6201 C   0  0  0  0  0  0  0  0  0  0  0  0
   28.4012  -19.5713  -17.4616 C   0  0  0  0  0  0  0  0  0  0  0  0
   27.2336  -19.8260  -16.5280 C   0  0  2  0  0  0  0  0  0  0  0  0
   26.7587  -18.4945  -16.0186 C   0  0  0  0  0  0  0  0  0  0  0  0
   27.7409  -20.7361  -15.4306 C   0  0  2  0  0  0  0  0  0  0  0  0
   28.1919  -21.9571  -16.0700 N   0  0  0  0  0  0  0  0  0  0  0  0
   26.6832  -21.0405  -14.4338 C   0  0  0  0  0  0  0  0  0  0  0  0
   25.7328  -21.7907  -14.7185 O   0  0  0  0  0  0  0  0  0  0  0  0
   26.3839  -19.8634   -8.3977 C   0  0  0  0  0  0  0  0  0  0  0  0
   25.6225  -20.5095   -9.5570 C   0  0  2  0  0  0  0  0  0  0  0  0
   24.8751  -21.7328   -9.1821 C   0  0  0  0  0  0  0  0  0  0  0  0
   26.3742  -20.5036  -10.8196 C   0  0  0  0  0  0  0  0  0  0  0  0
   25.7058  -20.7150  -12.1118 C   0  0  2  0  0  0  0  0  0  0  0  0
   26.7507  -20.4735  -13.1419 N   0  0  0  0  0  0  0  0  0  0  0  0
   24.4910  -20.0290  -12.4645 C   0  0  0  0  0  0  0  0  0  0  0  0
   24.6123  -18.9367  -13.1342 O   0  0  0  0  0  0  0  0  0  0  0  0
   21.5224  -22.3942  -16.3955 N   0  0  0  0  0  0  0  0  0  0  0  0
   20.6680  -21.3462  -15.9601 C   0  0  0  0  0  0  0  0  0  0  0  0
   19.4229  -21.4857  -16.0346 O   0  0  0  0  0  0  0  0  0  0  0  0
   21.2715  -20.0719  -15.4106 C   0  0  0  0  0  0  0  0  0  0  0  0
   22.3406  -20.4333  -14.4463 C   0  0  0  0  0  0  0  0  0  0  0  0
   22.0510  -19.9114  -13.0420 C   0  0  2  0  0  0  0  0  0  0  0  0
   23.1541  -20.3918  -12.1842 N   0  0  0  0  0  0  0  0  0  0  0  0
   20.7984  -20.4675  -12.5417 C   0  0  0  0  0  0  0  0  0  0  0  0
   20.7324  -21.4850  -11.7889 O   0  0  0  0  0  0  0  0  0  0  0  0
   19.5916  -19.8972  -12.8715 O   0  0  0  0  0  0  0  0  0  0  0  0
  2  1  1  0
  3  2  1  0
  3  5  1  0
  3  4  1  1
  5  6  1  6
  7  5  1  0
  7  8  2  0
 10  9  1  1
 10 11  1  0
 10 12  1  0
 13 14  1  0
 13 12  1  1
 14  7  1  0
 15 13  1  0
 16 15  2  0
 17 18  1  0
 18 19  2  0
 20 18  1  0
 20 21  1  0
 22 21  1  6
 22 23  1  0
 23 15  1  0
 24 26  1  0
 24 22  1  0
 25 24  2  0
M  END
$$$$
