ILQ.pdb
     RDKit          3D

 26 25  0  0  1  0  0  0  0  0999 V2000
   15.0705  -16.1002  -17.2358 C   0  0  0  0  0  0  0  0  0  0  0  0
   15.4839  -15.2557  -16.0455 C   0  0  0  0  0  0  0  0  0  0  0  0
   16.2566  -14.0656  -16.5803 C   0  0  2  0  0  0  0  0  0  0  0  0
   17.4456  -14.5946  -17.3316 C   0  0  0  0  0  0  0  0  0  0  0  0
   16.6368  -13.2177  -15.3860 C   0  0  2  0  0  0  0  0  0  0  0  0
   15.4087  -12.9103  -14.6787 N   0  0  0  0  0  0  0  0  0  0  0  0
   17.3200  -11.9642  -15.7947 C   0  0  0  0  0  0  0  0  0  0  0  0
   18.4159  -11.9953  -16.3823 O   0  0  0  0  0  0  0  0  0  0  0  0
   15.1890   -6.1708  -16.0472 C   0  0  0  0  0  0  0  0  0  0  0  0
   16.4121   -7.0514  -16.3106 C   0  0  2  0  0  0  0  0  0  0  0  0
   17.0936   -6.7707  -17.5960 C   0  0  0  0  0  0  0  0  0  0  0  0
   16.2162   -8.4514  -15.9093 C   0  0  0  0  0  0  0  0  0  0  0  0
   17.3101   -9.4308  -15.9817 C   0  0  2  0  0  0  0  0  0  0  0  0
   16.7229  -10.7150  -15.5155 N   0  0  0  0  0  0  0  0  0  0  0  0
   18.5810   -9.2047  -15.3458 C   0  0  0  0  0  0  0  0  0  0  0  0
   18.6299   -9.3621  -14.0693 O   0  0  0  0  0  0  0  0  0  0  0  0
   23.7489  -11.6213  -16.4308 N   0  0  0  0  0  0  0  0  0  0  0  0
   24.1913  -10.7983  -15.3608 C   0  0  0  0  0  0  0  0  0  0  0  0
   25.2954  -11.0307  -14.8111 O   0  0  0  0  0  0  0  0  0  0  0  0
   23.3235   -9.6488  -14.8965 C   0  0  0  0  0  0  0  0  0  0  0  0
   22.0338   -9.7046  -15.6294 C   0  0  0  0  0  0  0  0  0  0  0  0
   21.0254   -8.6892  -15.1001 C   0  0  2  0  0  0  0  0  0  0  0  0
   19.8128   -8.8351  -15.9319 N   0  0  0  0  0  0  0  0  0  0  0  0
   21.5381   -7.3328  -15.2613 C   0  0  0  0  0  0  0  0  0  0  0  0
   22.3657   -6.7954  -14.4660 O   0  0  0  0  0  0  0  0  0  0  0  0
   21.1371   -6.5477  -16.3164 O   0  0  0  0  0  0  0  0  0  0  0  0
  2  1  1  0
  3  2  1  0
  3  5  1  0
  3  4  1  1
  5  6  1  6
  7  5  1  0
  7  8  2  0
 10  9  1  6
 10 11  1  0
 10 12  1  0
 13 14  1  0
 13 12  1  1
 14  7  1  0
 15 13  1  0
 16 15  2  0
 17 18  1  0
 18 19  2  0
 20 18  1  0
 20 21  1  0
 22 21  1  6
 22 23  1  0
 23 15  1  0
 24 26  1  0
 24 22  1  0
 25 24  2  0
M  END
$$$$
