ILQ.pdb
     RDKit          3D

 26 25  0  0  1  0  0  0  0  0999 V2000
   19.9315  -17.4968  -17.9253 C   0  0  0  0  0  0  0  0  0  0  0  0
   21.3680  -17.5451  -17.4404 C   0  0  0  0  0  0  0  0  0  0  0  0
   21.7039  -16.1764  -16.8806 C   0  0  2  0  0  0  0  0  0  0  0  0
   21.4134  -15.1625  -17.9509 C   0  0  0  0  0  0  0  0  0  0  0  0
   23.1619  -16.2141  -16.4771 C   0  0  2  0  0  0  0  0  0  0  0  0
   23.3064  -17.2923  -15.5180 N   0  0  0  0  0  0  0  0  0  0  0  0
   23.6005  -14.9300  -15.8741 C   0  0  0  0  0  0  0  0  0  0  0  0
   23.1233  -14.5336  -14.7960 O   0  0  0  0  0  0  0  0  0  0  0  0
   28.7890  -11.8351  -16.4672 C   0  0  0  0  0  0  0  0  0  0  0  0
   27.3361  -11.6576  -16.0217 C   0  0  2  0  0  0  0  0  0  0  0  0
   27.1774  -10.8694  -14.7771 C   0  0  0  0  0  0  0  0  0  0  0  0
   26.5240  -12.8700  -16.1950 C   0  0  0  0  0  0  0  0  0  0  0  0
   25.0727  -12.8616  -15.9609 C   0  0  2  0  0  0  0  0  0  0  0  0
   24.5730  -14.1420  -16.5286 N   0  0  0  0  0  0  0  0  0  0  0  0
   24.2371  -11.7694  -16.3847 C   0  0  0  0  0  0  0  0  0  0  0  0
   23.9118  -11.7337  -17.6294 O   0  0  0  0  0  0  0  0  0  0  0  0
   20.0364   -8.5579  -13.2848 N   0  0  0  0  0  0  0  0  0  0  0  0
   19.8691   -7.9637  -14.5642 C   0  0  0  0  0  0  0  0  0  0  0  0
   18.8825   -7.2190  -14.7814 O   0  0  0  0  0  0  0  0  0  0  0  0
   20.8855   -8.2368  -15.6516 C   0  0  0  0  0  0  0  0  0  0  0  0
   21.8446   -9.2558  -15.1564 C   0  0  0  0  0  0  0  0  0  0  0  0
   22.8242   -9.6997  -16.2388 C   0  0  2  0  0  0  0  0  0  0  0  0
   23.7025  -10.7113  -15.6152 N   0  0  0  0  0  0  0  0  0  0  0  0
   23.6466   -8.5751  -16.6719 C   0  0  0  0  0  0  0  0  0  0  0  0
   24.8089   -8.3411  -16.2241 O   0  0  0  0  0  0  0  0  0  0  0  0
   23.1875   -7.6877  -17.6164 O   0  0  0  0  0  0  0  0  0  0  0  0
  2  1  1  0
  3  2  1  0
  3  5  1  0
  3  4  1  6
  5  6  1  1
  7  5  1  0
  7  8  2  0
 10  9  1  1
 10 11  1  0
 10 12  1  0
 13 14  1  0
 13 12  1  6
 14  7  1  0
 15 13  1  0
 16 15  2  0
 17 18  1  0
 18 19  2  0
 20 18  1  0
 20 21  1  0
 22 21  1  1
 22 23  1  0
 23 15  1  0
 24 26  1  0
 24 22  1  0
 25 24  2  0
M  END
$$$$
