VAD.pdb
     RDKit          3D

 21 20  0  0  1  0  0  0  0  0999 V2000
   18.9229   -9.8430  -18.9198 C   0  0  0  0  0  0  0  0  0  0  0  0
   18.0999  -10.8906  -18.1832 C   0  0  1  0  0  0  0  0  0  0  0  0
   17.4989  -11.8004  -19.2214 C   0  0  0  0  0  0  0  0  0  0  0  0
   19.0096  -11.5927  -17.2362 C   0  0  2  0  0  0  0  0  0  0  0  0
   18.2677  -12.6657  -16.6034 N   0  0  0  0  0  0  0  0  0  0  0  0
   19.6661  -10.7180  -16.2522 C   0  0  0  0  0  0  0  0  0  0  0  0
   18.9324   -9.9908  -15.5343 O   0  0  0  0  0  0  0  0  0  0  0  0
   23.1259  -10.2698  -14.8978 C   0  0  0  0  0  0  0  0  0  0  0  0
   21.7057   -9.7658  -15.0928 C   0  0  2  0  0  0  0  0  0  0  0  0
   21.0489  -10.6239  -16.0440 N   0  0  0  0  0  0  0  0  0  0  0  0
   21.6481   -8.3487  -15.4127 C   0  0  0  0  0  0  0  0  0  0  0  0
   21.9394   -7.8924  -16.5446 O   0  0  0  0  0  0  0  0  0  0  0  0
   21.2491   -7.4144  -14.4253 N   0  0  0  0  0  0  0  0  0  0  0  0
   21.2956   -5.9795  -14.6514 C   0  0  1  0  0  0  0  0  0  0  0  0
   19.9201   -5.3936  -14.5226 C   0  0  0  0  0  0  0  0  0  0  0  0
   19.0175   -5.8068  -15.5929 C   0  0  0  0  0  0  0  0  0  0  0  0
   19.3061   -5.8985  -16.8172 O   0  0  0  0  0  0  0  0  0  0  0  0
   22.3016   -5.3237  -13.8248 C   0  0  0  0  0  0  0  0  0  0  0  0
   22.8790   -5.9489  -12.9111 O   0  0  0  0  0  0  0  0  0  0  0  0
   17.6868   -6.1459  -15.2810 O   0  0  0  0  0  0  0  0  0  0  0  0
   22.6342   -4.0012  -14.0376 O   0  0  0  0  0  0  0  0  0  0  0  0
  2  1  1  6
  2  3  1  0
  4  2  1  0
  4  5  1  1
  6  4  1  0
  6  7  2  0
  9  8  1  6
  9 10  1  0
 10  6  1  0
 11 12  2  0
 11  9  1  0
 13 11  1  0
 14 13  1  0
 14 15  1  1
 16 15  1  0
 16 20  1  0
 17 16  2  0
 18 14  1  0
 19 18  2  0
 21 18  1  0
M  END
$$$$
