VAD.pdb
     RDKit          3D

 21 20  0  0  1  0  0  0  0  0999 V2000
   23.1509  -14.7634  -15.2818 C   0  0  0  0  0  0  0  0  0  0  0  0
   22.8166  -13.2819  -15.3852 C   0  0  1  0  0  0  0  0  0  0  0  0
   24.0469  -12.5149  -14.9790 C   0  0  0  0  0  0  0  0  0  0  0  0
   22.3881  -13.0144  -16.7860 C   0  0  2  0  0  0  0  0  0  0  0  0
   23.4273  -13.4898  -17.6784 N   0  0  0  0  0  0  0  0  0  0  0  0
   22.0200  -11.6166  -17.0596 C   0  0  0  0  0  0  0  0  0  0  0  0
   22.9384  -10.8239  -17.3921 O   0  0  0  0  0  0  0  0  0  0  0  0
   18.9270   -9.6445  -17.6442 C   0  0  0  0  0  0  0  0  0  0  0  0
   20.3627   -9.7044  -17.1500 C   0  0  2  0  0  0  0  0  0  0  0  0
   20.7244  -11.0876  -16.9811 N   0  0  0  0  0  0  0  0  0  0  0  0
   20.5936   -8.8696  -15.9823 C   0  0  0  0  0  0  0  0  0  0  0  0
   20.4461   -9.2842  -14.8073 O   0  0  0  0  0  0  0  0  0  0  0  0
   21.0041   -7.5233  -16.1430 N   0  0  0  0  0  0  0  0  0  0  0  0
   21.2529   -6.6478  -15.0099 C   0  0  1  0  0  0  0  0  0  0  0  0
   22.0451   -5.4512  -15.4485 C   0  0  0  0  0  0  0  0  0  0  0  0
   22.3472   -4.5309  -14.3563 C   0  0  0  0  0  0  0  0  0  0  0  0
   22.6860   -4.8509  -13.1843 O   0  0  0  0  0  0  0  0  0  0  0  0
   20.0295   -6.3195  -14.2881 C   0  0  0  0  0  0  0  0  0  0  0  0
   19.0661   -5.7889  -14.8792 O   0  0  0  0  0  0  0  0  0  0  0  0
   22.2673   -3.1431  -14.5813 O   0  0  0  0  0  0  0  0  0  0  0  0
   19.9138   -6.5900  -12.9397 O   0  0  0  0  0  0  0  0  0  0  0  0
  2  1  1  6
  2  3  1  0
  4  2  1  0
  4  5  1  6
  6  4  1  0
  6  7  2  0
  9  8  1  1
  9 10  1  0
 10  6  1  0
 11 12  2  0
 11  9  1  0
 13 11  1  0
 14 13  1  0
 14 15  1  6
 16 15  1  0
 16 20  1  0
 17 16  2  0
 18 14  1  0
 19 18  2  0
 21 18  1  0
M  END
$$$$
