VAD.pdb
     RDKit          3D

 21 20  0  0  1  0  0  0  0  0999 V2000
   11.0668  -10.7511  -10.5407 C   0  0  0  0  0  0  0  0  0  0  0  0
   12.5344  -10.3468  -10.5260 C   0  0  1  0  0  0  0  0  0  0  0  0
   12.9132  -10.0840   -9.0927 C   0  0  0  0  0  0  0  0  0  0  0  0
   13.3116  -11.4530  -11.1502 C   0  0  2  0  0  0  0  0  0  0  0  0
   13.0705  -12.6639  -10.3902 N   0  0  0  0  0  0  0  0  0  0  0  0
   14.7477  -11.1786  -11.3139 C   0  0  0  0  0  0  0  0  0  0  0  0
   15.5150  -11.4925  -10.3678 O   0  0  0  0  0  0  0  0  0  0  0  0
   17.0243  -10.3566  -14.1322 C   0  0  0  0  0  0  0  0  0  0  0  0
   16.7476  -10.3674  -12.6381 C   0  0  2  0  0  0  0  0  0  0  0  0
   15.3394  -10.5933  -12.4416 N   0  0  0  0  0  0  0  0  0  0  0  0
   17.2753   -9.1962  -11.9573 C   0  0  0  0  0  0  0  0  0  0  0  0
   18.4967   -8.9095  -11.9401 O   0  0  0  0  0  0  0  0  0  0  0  0
   16.3985   -8.3186  -11.2731 N   0  0  0  0  0  0  0  0  0  0  0  0
   16.8423   -7.0444  -10.7327 C   0  0  1  0  0  0  0  0  0  0  0  0
   16.1638   -5.9160  -11.4524 C   0  0  0  0  0  0  0  0  0  0  0  0
   16.4782   -4.6056  -10.8912 C   0  0  0  0  0  0  0  0  0  0  0  0
   17.5219   -4.2993  -10.2528 O   0  0  0  0  0  0  0  0  0  0  0  0
   16.7148   -6.9869   -9.2815 C   0  0  0  0  0  0  0  0  0  0  0  0
   16.9554   -5.9287   -8.6641 O   0  0  0  0  0  0  0  0  0  0  0  0
   15.5614   -3.5487  -11.0505 O   0  0  0  0  0  0  0  0  0  0  0  0
   16.3251   -8.1001   -8.5648 O   0  0  0  0  0  0  0  0  0  0  0  0
  2  1  1  1
  2  3  1  0
  4  2  1  0
  4  5  1  1
  6  4  1  0
  6  7  2  0
  9  8  1  6
  9 10  1  0
 10  6  1  0
 11 12  2  0
 11  9  1  0
 13 11  1  0
 14 13  1  0
 14 15  1  6
 16 15  1  0
 16 20  1  0
 17 16  2  0
 18 14  1  0
 19 18  2  0
 21 18  1  0
M  END
$$$$
