VAD.pdb
     RDKit          3D

 21 20  0  0  1  0  0  0  0  0999 V2000
   17.0050  -11.3625  -18.4823 C   0  0  0  0  0  0  0  0  0  0  0  0
   17.7981  -10.3573  -17.6588 C   0  0  1  0  0  0  0  0  0  0  0  0
   16.8260   -9.3242  -17.1543 C   0  0  0  0  0  0  0  0  0  0  0  0
   18.4820  -11.1081  -16.5699 C   0  0  2  0  0  0  0  0  0  0  0  0
   17.4916  -11.9101  -15.8784 N   0  0  0  0  0  0  0  0  0  0  0  0
   19.2627  -10.2728  -15.6442 C   0  0  0  0  0  0  0  0  0  0  0  0
   18.6301   -9.5759  -14.8095 O   0  0  0  0  0  0  0  0  0  0  0  0
   22.8822   -9.6882  -14.8545 C   0  0  0  0  0  0  0  0  0  0  0  0
   21.4328   -9.2316  -14.8583 C   0  0  2  0  0  0  0  0  0  0  0  0
   20.6612  -10.1854  -15.6115 N   0  0  0  0  0  0  0  0  0  0  0  0
   21.2766   -7.8510  -15.2865 C   0  0  0  0  0  0  0  0  0  0  0  0
   21.2090   -7.5144  -16.4934 O   0  0  0  0  0  0  0  0  0  0  0  0
   21.1937   -6.8149  -14.3239 N   0  0  0  0  0  0  0  0  0  0  0  0
   21.1439   -5.4112  -14.6974 C   0  0  1  0  0  0  0  0  0  0  0  0
   19.8131   -4.8266  -14.3249 C   0  0  0  0  0  0  0  0  0  0  0  0
   19.6754   -3.4240  -14.7054 C   0  0  0  0  0  0  0  0  0  0  0  0
   20.2999   -2.8383  -15.6315 O   0  0  0  0  0  0  0  0  0  0  0  0
   22.2864   -4.6640  -14.1855 C   0  0  0  0  0  0  0  0  0  0  0  0
   22.7703   -4.9314  -13.0659 O   0  0  0  0  0  0  0  0  0  0  0  0
   18.7723   -2.6037  -14.0023 O   0  0  0  0  0  0  0  0  0  0  0  0
   22.8537   -3.6491  -14.9290 O   0  0  0  0  0  0  0  0  0  0  0  0
  2  1  1  6
  2  3  1  0
  4  2  1  0
  4  5  1  1
  6  4  1  0
  6  7  2  0
  9  8  1  6
  9 10  1  0
 10  6  1  0
 11 12  2  0
 11  9  1  0
 13 11  1  0
 14 13  1  0
 14 15  1  1
 16 15  1  0
 16 20  1  0
 17 16  2  0
 18 14  1  0
 19 18  2  0
 21 18  1  0
M  END
$$$$
