VAD.pdb
     RDKit          3D

 21 20  0  0  1  0  0  0  0  0999 V2000
   17.5558  -20.8112    3.8478 C   0  0  0  0  0  0  0  0  0  0  0  0
   17.0625  -19.9281    2.7101 C   0  0  1  0  0  0  0  0  0  0  0  0
   16.3812  -20.8239    1.7099 C   0  0  0  0  0  0  0  0  0  0  0  0
   16.1581  -18.9014    3.2975 C   0  0  2  0  0  0  0  0  0  0  0  0
   15.6007  -18.1133    2.2157 N   0  0  0  0  0  0  0  0  0  0  0  0
   16.7754  -18.0601    4.3346 C   0  0  0  0  0  0  0  0  0  0  0  0
   17.7070  -17.2902    3.9856 O   0  0  0  0  0  0  0  0  0  0  0  0
   15.9004  -16.8272    7.6920 C   0  0  0  0  0  0  0  0  0  0  0  0
   16.9946  -17.2118    6.7101 C   0  0  2  0  0  0  0  0  0  0  0  0
   16.4125  -18.0420    5.6883 N   0  0  0  0  0  0  0  0  0  0  0  0
   18.1636  -17.7804    7.3613 C   0  0  0  0  0  0  0  0  0  0  0  0
   18.3589  -19.0163    7.4549 O   0  0  0  0  0  0  0  0  0  0  0  0
   19.1453  -16.9291    7.9257 N   0  0  0  0  0  0  0  0  0  0  0  0
   20.3480  -17.4446    8.5583 C   0  0  1  0  0  0  0  0  0  0  0  0
   21.3612  -16.3480    8.7076 C   0  0  0  0  0  0  0  0  0  0  0  0
   22.6056  -16.7963    9.3253 C   0  0  0  0  0  0  0  0  0  0  0  0
   22.9306  -17.9912    9.5644 O   0  0  0  0  0  0  0  0  0  0  0  0
   20.0569  -18.1584    9.7958 C   0  0  0  0  0  0  0  0  0  0  0  0
   19.3895  -17.6153   10.7006 O   0  0  0  0  0  0  0  0  0  0  0  0
   23.5681  -15.8428    9.7093 O   0  0  0  0  0  0  0  0  0  0  0  0
   20.5127  -19.4467    9.9889 O   0  0  0  0  0  0  0  0  0  0  0  0
  2  1  1  1
  2  3  1  0
  4  2  1  0
  4  5  1  6
  6  4  1  0
  6  7  2  0
  9  8  1  1
  9 10  1  0
 10  6  1  0
 11 12  2  0
 11  9  1  0
 13 11  1  0
 14 13  1  0
 14 15  1  1
 16 15  1  0
 16 20  1  0
 17 16  2  0
 18 14  1  0
 19 18  2  0
 21 18  1  0
M  END
$$$$
