VAD.pdb
     RDKit          3D

 21 20  0  0  1  0  0  0  0  0999 V2000
   23.4654  -14.2401  -15.8534 C   0  0  0  0  0  0  0  0  0  0  0  0
   23.0291  -12.7841  -15.7689 C   0  0  1  0  0  0  0  0  0  0  0  0
   24.2734  -11.9513  -15.6105 C   0  0  0  0  0  0  0  0  0  0  0  0
   22.2618  -12.4722  -17.0063 C   0  0  2  0  0  0  0  0  0  0  0  0
   23.0566  -12.8777  -18.1491 N   0  0  0  0  0  0  0  0  0  0  0  0
   21.8097  -11.0763  -17.1135 C   0  0  0  0  0  0  0  0  0  0  0  0
   22.6466  -10.2178  -17.4944 O   0  0  0  0  0  0  0  0  0  0  0  0
   18.5595   -9.2488  -17.0462 C   0  0  0  0  0  0  0  0  0  0  0  0
   20.0709   -9.2495  -16.8893 C   0  0  2  0  0  0  0  0  0  0  0  0
   20.5173  -10.6166  -16.8256 N   0  0  0  0  0  0  0  0  0  0  0  0
   20.5254   -8.4108  -15.7920 C   0  0  0  0  0  0  0  0  0  0  0  0
   20.7490   -8.8559  -14.6404 O   0  0  0  0  0  0  0  0  0  0  0  0
   20.7349   -7.0250  -15.9984 N   0  0  0  0  0  0  0  0  0  0  0  0
   21.1007   -6.1263  -14.9163 C   0  0  1  0  0  0  0  0  0  0  0  0
   21.7494   -4.8917  -15.4699 C   0  0  0  0  0  0  0  0  0  0  0  0
   22.0130   -3.8769  -14.4541 C   0  0  0  0  0  0  0  0  0  0  0  0
   22.5100   -4.0769  -13.3124 O   0  0  0  0  0  0  0  0  0  0  0  0
   19.9825   -5.8599  -14.0195 C   0  0  0  0  0  0  0  0  0  0  0  0
   18.8297   -5.6998  -14.4717 O   0  0  0  0  0  0  0  0  0  0  0  0
   21.7003   -2.5310  -14.7258 O   0  0  0  0  0  0  0  0  0  0  0  0
   20.1777   -5.7809  -12.6555 O   0  0  0  0  0  0  0  0  0  0  0  0
  2  1  1  6
  2  3  1  0
  4  2  1  0
  4  5  1  6
  6  4  1  0
  6  7  2  0
  9  8  1  1
  9 10  1  0
 10  6  1  0
 11 12  2  0
 11  9  1  0
 13 11  1  0
 14 13  1  0
 14 15  1  6
 16 15  1  0
 16 20  1  0
 17 16  2  0
 18 14  1  0
 19 18  2  0
 21 18  1  0
M  END
$$$$
