VAD.pdb
     RDKit          3D

 21 20  0  0  1  0  0  0  0  0999 V2000
   27.6806  -25.3005  -18.8564 C   0  0  0  0  0  0  0  0  0  0  0  0
   26.6852  -24.5360  -17.9949 C   0  0  1  0  0  0  0  0  0  0  0  0
   25.4204  -25.3509  -17.9403 C   0  0  0  0  0  0  0  0  0  0  0  0
   27.3127  -24.3270  -16.6609 C   0  0  2  0  0  0  0  0  0  0  0  0
   27.6445  -25.6247  -16.1057 N   0  0  0  0  0  0  0  0  0  0  0  0
   26.5176  -23.5127  -15.7287 C   0  0  0  0  0  0  0  0  0  0  0  0
   25.7344  -24.1131  -14.9487 O   0  0  0  0  0  0  0  0  0  0  0  0
   26.2354  -19.8656  -14.8657 C   0  0  0  0  0  0  0  0  0  0  0  0
   25.7491  -21.3017  -14.7635 C   0  0  2  0  0  0  0  0  0  0  0  0
   26.5576  -22.1149  -15.6338 N   0  0  0  0  0  0  0  0  0  0  0  0
   24.3159  -21.4290  -14.9720 C   0  0  0  0  0  0  0  0  0  0  0  0
   23.8035  -21.5975  -16.1048 O   0  0  0  0  0  0  0  0  0  0  0  0
   23.4302  -21.3645  -13.8682 N   0  0  0  0  0  0  0  0  0  0  0  0
   21.9865  -21.4171  -14.0280 C   0  0  1  0  0  0  0  0  0  0  0  0
   21.3907  -22.3521  -13.0169 C   0  0  0  0  0  0  0  0  0  0  0  0
   19.9412  -22.4778  -13.1353 C   0  0  0  0  0  0  0  0  0  0  0  0
   19.2125  -21.9164  -13.9981 O   0  0  0  0  0  0  0  0  0  0  0  0
   21.3845  -20.0893  -14.0380 C   0  0  0  0  0  0  0  0  0  0  0  0
   21.9046  -19.1512  -13.3988 O   0  0  0  0  0  0  0  0  0  0  0  0
   19.2423  -23.2919  -12.2232 O   0  0  0  0  0  0  0  0  0  0  0  0
   20.2304  -19.8453  -14.7544 O   0  0  0  0  0  0  0  0  0  0  0  0
  2  1  1  6
  2  3  1  0
  4  2  1  0
  4  5  1  1
  6  4  1  0
  6  7  2  0
  9  8  1  6
  9 10  1  0
 10  6  1  0
 11 12  2  0
 11  9  1  0
 13 11  1  0
 14 13  1  0
 14 15  1  1
 16 15  1  0
 16 20  1  0
 17 16  2  0
 18 14  1  0
 19 18  2  0
 21 18  1  0
M  END
$$$$
