VAD.pdb
     RDKit          3D

 21 20  0  0  1  0  0  0  0  0999 V2000
   26.3612  -16.5736  -21.1167 C   0  0  0  0  0  0  0  0  0  0  0  0
   25.2632  -16.7009  -20.0699 C   0  0  1  0  0  0  0  0  0  0  0  0
   24.5357  -17.9917  -20.3375 C   0  0  0  0  0  0  0  0  0  0  0  0
   25.9115  -16.6536  -18.7303 C   0  0  2  0  0  0  0  0  0  0  0  0
   26.9676  -17.6466  -18.7005 N   0  0  0  0  0  0  0  0  0  0  0  0
   24.9867  -16.7946  -17.5949 C   0  0  0  0  0  0  0  0  0  0  0  0
   24.8792  -17.9305  -17.0652 O   0  0  0  0  0  0  0  0  0  0  0  0
   22.9932  -14.5008  -15.4118 C   0  0  0  0  0  0  0  0  0  0  0  0
   23.2876  -15.8914  -15.9492 C   0  0  2  0  0  0  0  0  0  0  0  0
   24.2090  -15.7647  -17.0481 N   0  0  0  0  0  0  0  0  0  0  0  0
   22.0828  -16.6471  -16.2513 C   0  0  0  0  0  0  0  0  0  0  0  0
   21.5672  -16.6807  -17.3947 O   0  0  0  0  0  0  0  0  0  0  0  0
   21.4372  -17.3896  -15.2321 N   0  0  0  0  0  0  0  0  0  0  0  0
   20.2124  -18.1343  -15.4723 C   0  0  1  0  0  0  0  0  0  0  0  0
   20.0864  -19.2516  -14.4787 C   0  0  0  0  0  0  0  0  0  0  0  0
   18.9604  -20.1394  -14.7529 C   0  0  0  0  0  0  0  0  0  0  0  0
   18.1540  -20.0440  -15.7179 O   0  0  0  0  0  0  0  0  0  0  0  0
   19.0438  -17.2652  -15.5420 C   0  0  0  0  0  0  0  0  0  0  0  0
   18.8633  -16.3737  -14.6866 O   0  0  0  0  0  0  0  0  0  0  0  0
   18.7076  -21.2208  -13.8871 O   0  0  0  0  0  0  0  0  0  0  0  0
   18.1174  -17.4116  -16.5544 O   0  0  0  0  0  0  0  0  0  0  0  0
  2  1  1  6
  2  3  1  0
  4  2  1  0
  4  5  1  6
  6  4  1  0
  6  7  2  0
  9  8  1  6
  9 10  1  0
 10  6  1  0
 11 12  2  0
 11  9  1  0
 13 11  1  0
 14 13  1  0
 14 15  1  1
 16 15  1  0
 16 20  1  0
 17 16  2  0
 18 14  1  0
 19 18  2  0
 21 18  1  0
M  END
$$$$
