VAD.pdb
     RDKit          3D

 21 20  0  0  1  0  0  0  0  0999 V2000
   19.8412   -9.6410  -19.4373 C   0  0  0  0  0  0  0  0  0  0  0  0
   18.8670  -10.6620  -18.8662 C   0  0  1  0  0  0  0  0  0  0  0  0
   18.3636  -11.4937  -20.0159 C   0  0  0  0  0  0  0  0  0  0  0  0
   19.5970  -11.4537  -17.8379 C   0  0  2  0  0  0  0  0  0  0  0  0
   18.7347  -12.5330  -17.3976 N   0  0  0  0  0  0  0  0  0  0  0  0
   20.1169  -10.6650  -16.7101 C   0  0  0  0  0  0  0  0  0  0  0  0
   19.2919  -10.0025  -16.0297 O   0  0  0  0  0  0  0  0  0  0  0  0
   23.4299  -10.1808  -15.0150 C   0  0  0  0  0  0  0  0  0  0  0  0
   21.9988   -9.7478  -15.2859 C   0  0  2  0  0  0  0  0  0  0  0  0
   21.4624  -10.5873  -16.3252 N   0  0  0  0  0  0  0  0  0  0  0  0
   21.8780   -8.3206  -15.5356 C   0  0  0  0  0  0  0  0  0  0  0  0
   21.9950   -7.8156  -16.6782 O   0  0  0  0  0  0  0  0  0  0  0  0
   21.6168   -7.4326  -14.4631 N   0  0  0  0  0  0  0  0  0  0  0  0
   21.6382   -5.9889  -14.6287 C   0  0  1  0  0  0  0  0  0  0  0  0
   20.2885   -5.5013  -15.0673 C   0  0  0  0  0  0  0  0  0  0  0  0
   20.2227   -4.0506  -15.2162 C   0  0  0  0  0  0  0  0  0  0  0  0
   19.9253   -3.2215  -14.3135 O   0  0  0  0  0  0  0  0  0  0  0  0
   22.1638   -5.3070  -13.4521 C   0  0  0  0  0  0  0  0  0  0  0  0
   22.2268   -5.8950  -12.3524 O   0  0  0  0  0  0  0  0  0  0  0  0
   20.5099   -3.4715  -16.4673 O   0  0  0  0  0  0  0  0  0  0  0  0
   22.6018   -4.0007  -13.5328 O   0  0  0  0  0  0  0  0  0  0  0  0
  2  1  1  6
  2  3  1  0
  4  2  1  0
  4  5  1  1
  6  4  1  0
  6  7  2  0
  9  8  1  6
  9 10  1  0
 10  6  1  0
 11 12  2  0
 11  9  1  0
 13 11  1  0
 14 13  1  0
 14 15  1  1
 16 15  1  0
 16 20  1  0
 17 16  2  0
 18 14  1  0
 19 18  2  0
 21 18  1  0
M  END
$$$$
