VAD.pdb
     RDKit          3D

 21 20  0  0  1  0  0  0  0  0999 V2000
   23.3078  -11.2957  -14.4492 C   0  0  0  0  0  0  0  0  0  0  0  0
   23.7624  -11.7977  -15.8126 C   0  0  1  0  0  0  0  0  0  0  0  0
   24.6469  -12.9934  -15.5784 C   0  0  0  0  0  0  0  0  0  0  0  0
   22.5420  -12.1107  -16.6063 C   0  0  2  0  0  0  0  0  0  0  0  0
   22.9543  -12.7399  -17.8458 N   0  0  0  0  0  0  0  0  0  0  0  0
   21.6487  -10.9649  -16.8372 C   0  0  0  0  0  0  0  0  0  0  0  0
   22.1360   -9.9447  -17.3888 O   0  0  0  0  0  0  0  0  0  0  0  0
   18.0066  -10.1855  -16.4060 C   0  0  0  0  0  0  0  0  0  0  0  0
   19.4544   -9.7401  -16.5277 C   0  0  2  0  0  0  0  0  0  0  0  0
   20.2911  -10.9111  -16.4930 N   0  0  0  0  0  0  0  0  0  0  0  0
   19.8114   -8.7102  -15.5656 C   0  0  0  0  0  0  0  0  0  0  0  0
   20.1644   -8.9681  -14.3895 O   0  0  0  0  0  0  0  0  0  0  0  0
   19.7696   -7.3446  -15.9402 N   0  0  0  0  0  0  0  0  0  0  0  0
   20.0622   -6.2737  -15.0022 C   0  0  1  0  0  0  0  0  0  0  0  0
   21.5356   -5.9902  -14.9883 C   0  0  0  0  0  0  0  0  0  0  0  0
   21.9000   -4.8887  -14.1023 C   0  0  0  0  0  0  0  0  0  0  0  0
   21.1087   -4.2113  -13.3912 O   0  0  0  0  0  0  0  0  0  0  0  0
   19.2320   -5.0975  -15.2324 C   0  0  0  0  0  0  0  0  0  0  0  0
   19.0015   -4.7000  -16.3934 O   0  0  0  0  0  0  0  0  0  0  0  0
   23.2512   -4.5069  -13.9957 O   0  0  0  0  0  0  0  0  0  0  0  0
   18.6856   -4.4033  -14.1720 O   0  0  0  0  0  0  0  0  0  0  0  0
  2  1  1  1
  2  3  1  0
  4  2  1  0
  4  5  1  6
  6  4  1  0
  6  7  2  0
  9  8  1  1
  9 10  1  0
 10  6  1  0
 11 12  2  0
 11  9  1  0
 13 11  1  0
 14 13  1  0
 14 15  1  6
 16 15  1  0
 16 20  1  0
 17 16  2  0
 18 14  1  0
 19 18  2  0
 21 18  1  0
M  END
$$$$
