VAD.pdb
     RDKit          3D

 21 20  0  0  1  0  0  0  0  0999 V2000
   16.4305  -13.0382  -16.6556 C   0  0  0  0  0  0  0  0  0  0  0  0
   17.3219  -11.8067  -16.5765 C   0  0  1  0  0  0  0  0  0  0  0  0
   17.3901  -11.3944  -15.1300 C   0  0  0  0  0  0  0  0  0  0  0  0
   18.6461  -12.1726  -17.1507 C   0  0  2  0  0  0  0  0  0  0  0  0
   19.0717  -13.4230  -16.5525 N   0  0  0  0  0  0  0  0  0  0  0  0
   19.6746  -11.1267  -17.0385 C   0  0  0  0  0  0  0  0  0  0  0  0
   20.2561  -10.9941  -15.9310 O   0  0  0  0  0  0  0  0  0  0  0  0
   21.3736   -8.7334  -19.3770 C   0  0  0  0  0  0  0  0  0  0  0  0
   21.0754   -9.2365  -17.9745 C   0  0  2  0  0  0  0  0  0  0  0  0
   20.0655  -10.2583  -18.0669 N   0  0  0  0  0  0  0  0  0  0  0  0
   20.7696   -8.1634  -17.0425 C   0  0  0  0  0  0  0  0  0  0  0  0
   19.6027   -7.7510  -16.8359 O   0  0  0  0  0  0  0  0  0  0  0  0
   21.8122   -7.5338  -16.3190 N   0  0  0  0  0  0  0  0  0  0  0  0
   21.5583   -6.4782  -15.3528 C   0  0  1  0  0  0  0  0  0  0  0  0
   22.7296   -6.3367  -14.4256 C   0  0  0  0  0  0  0  0  0  0  0  0
   22.5188   -5.3371  -13.3828 C   0  0  0  0  0  0  0  0  0  0  0  0
   22.6267   -4.0876  -13.5156 O   0  0  0  0  0  0  0  0  0  0  0  0
   21.1514   -5.2326  -15.9919 C   0  0  0  0  0  0  0  0  0  0  0  0
   21.6843   -4.8622  -17.0587 O   0  0  0  0  0  0  0  0  0  0  0  0
   22.1594   -5.7564  -12.0874 O   0  0  0  0  0  0  0  0  0  0  0  0
   20.1699   -4.4414  -15.4302 O   0  0  0  0  0  0  0  0  0  0  0  0
  2  1  1  1
  2  3  1  0
  4  2  1  0
  4  5  1  1
  6  4  1  0
  6  7  2  0
  9  8  1  6
  9 10  1  0
 10  6  1  0
 11 12  2  0
 11  9  1  0
 13 11  1  0
 14 13  1  0
 14 15  1  6
 16 15  1  0
 16 20  1  0
 17 16  2  0
 18 14  1  0
 19 18  2  0
 21 18  1  0
M  END
$$$$
