VAD.pdb
     RDKit          3D

 21 20  0  0  1  0  0  0  0  0999 V2000
   16.2386  -10.1878  -16.5244 C   0  0  0  0  0  0  0  0  0  0  0  0
   16.1267  -11.4861  -15.7375 C   0  0  1  0  0  0  0  0  0  0  0  0
   14.8332  -12.1440  -16.1389 C   0  0  0  0  0  0  0  0  0  0  0  0
   17.3297  -12.3062  -16.0497 C   0  0  2  0  0  0  0  0  0  0  0  0
   17.2074  -13.5750  -15.3588 N   0  0  0  0  0  0  0  0  0  0  0  0
   18.6136  -11.6448  -15.7700 C   0  0  0  0  0  0  0  0  0  0  0  0
   18.8423  -11.2878  -14.5856 O   0  0  0  0  0  0  0  0  0  0  0  0
   21.7607  -10.8883  -17.6641 C   0  0  0  0  0  0  0  0  0  0  0  0
   20.8445  -10.6737  -16.4709 C   0  0  2  0  0  0  0  0  0  0  0  0
   19.6119  -11.3757  -16.7164 N   0  0  0  0  0  0  0  0  0  0  0  0
   20.6854   -9.2703  -16.1259 C   0  0  0  0  0  0  0  0  0  0  0  0
   19.7671   -8.5532  -16.5914 O   0  0  0  0  0  0  0  0  0  0  0  0
   21.5905   -8.6540  -15.2271 N   0  0  0  0  0  0  0  0  0  0  0  0
   21.4915   -7.2490  -14.8683 C   0  0  1  0  0  0  0  0  0  0  0  0
   22.2488   -6.9874  -13.5996 C   0  0  0  0  0  0  0  0  0  0  0  0
   22.1455   -5.6044  -13.1440 C   0  0  0  0  0  0  0  0  0  0  0  0
   22.9201   -4.6582  -13.4530 O   0  0  0  0  0  0  0  0  0  0  0  0
   21.8591   -6.3711  -15.9726 C   0  0  0  0  0  0  0  0  0  0  0  0
   22.7840   -6.6830  -16.7513 O   0  0  0  0  0  0  0  0  0  0  0  0
   21.0987   -5.2403  -12.2754 O   0  0  0  0  0  0  0  0  0  0  0  0
   21.1914   -5.1808  -16.1776 O   0  0  0  0  0  0  0  0  0  0  0  0
  2  1  1  6
  2  3  1  0
  4  2  1  0
  4  5  1  1
  6  4  1  0
  6  7  2  0
  9  8  1  6
  9 10  1  0
 10  6  1  0
 11 12  2  0
 11  9  1  0
 13 11  1  0
 14 13  1  0
 14 15  1  1
 16 15  1  0
 16 20  1  0
 17 16  2  0
 18 14  1  0
 19 18  2  0
 21 18  1  0
M  END
$$$$
