IRW.pdb
     RDKit          3D

 34 35  0  0  1  0  0  0  0  0999 V2000
    7.5656  -11.5926   19.1161 C   0  0  0  0  0  0  0  0  0  0  0  0
    8.1783  -12.9055   18.6949 C   0  0  0  0  0  0  0  0  0  0  0  0
    8.0320  -13.9609   19.7568 C   0  0  2  0  0  0  0  0  0  0  0  0
    8.7491  -13.4688   21.0021 C   0  0  0  0  0  0  0  0  0  0  0  0
    8.6656  -15.2412   19.3238 C   0  0  2  0  0  0  0  0  0  0  0  0
    8.1085  -15.6892   18.0789 N   0  0  0  0  0  0  0  0  0  0  0  0
    8.5921  -16.3156   20.3293 C   0  0  0  0  0  0  0  0  0  0  0  0
    7.6814  -17.2008   20.3178 O   0  0  0  0  0  0  0  0  0  0  0  0
   10.9010  -18.8666   17.9020 N   0  0  0  0  0  0  0  0  0  0  0  0
   11.8009  -19.9059   18.1761 C   0  0  0  0  0  0  0  0  0  0  0  0
   12.7496  -20.1739   17.3356 N   0  0  0  0  0  0  0  0  0  0  0  0
   11.6793  -20.6597   19.3652 N   0  0  0  0  0  0  0  0  0  0  0  0
   10.6600  -20.3964   20.3284 C   0  0  0  0  0  0  0  0  0  0  0  0
   10.6921  -19.0269   20.9450 C   0  0  0  0  0  0  0  0  0  0  0  0
    9.5895  -18.7567   21.9039 C   0  0  0  0  0  0  0  0  0  0  0  0
    9.5969  -17.3313   22.4173 C   0  0  2  0  0  0  0  0  0  0  0  0
    9.5721  -16.3693   21.3527 N   0  0  0  0  0  0  0  0  0  0  0  0
   10.8409  -17.1742   23.2547 C   0  0  0  0  0  0  0  0  0  0  0  0
   11.7532  -18.0359   23.1862 O   0  0  0  0  0  0  0  0  0  0  0  0
   13.5073  -20.8227   17.5656 N   0  0  0  0  0  0  0  0  0  0  0  0
   11.0270  -16.0760   24.1317 C   0  0  2  0  0  0  0  0  0  0  0  0
    9.9450  -15.7401   25.0331 C   0  0  0  0  0  0  0  0  0  0  0  0
    8.7069  -15.4984   24.1898 C   0  0  0  0  0  0  0  0  0  0  0  0
    7.6129  -15.0061   25.0699 C   0  0  0  0  0  0  0  0  0  0  0  0
    6.5626  -15.6625   25.6595 N   0  0  0  0  0  0  0  0  0  0  0  0
    5.8225  -14.7790   26.3792 C   0  0  0  0  0  0  0  0  0  0  0  0
    6.3615  -13.5607   26.2760 C   0  0  0  0  0  0  0  0  0  0  0  0
    5.9996  -12.3502   26.8066 C   0  0  0  0  0  0  0  0  0  0  0  0
    6.7705  -11.2149   26.5245 C   0  0  0  0  0  0  0  0  0  0  0  0
    7.8859  -11.2965   25.7225 C   0  0  0  0  0  0  0  0  0  0  0  0
    8.2175  -12.5354   25.2066 C   0  0  0  0  0  0  0  0  0  0  0  0
    7.4698  -13.6791   25.4706 C   0  0  0  0  0  0  0  0  0  0  0  0
    9.6452  -16.9415   25.8896 O   0  0  0  0  0  0  0  0  0  0  0  0
    9.5454  -18.0902   25.3889 O   0  0  0  0  0  0  0  0  0  0  0  0
  2  1  1  0
  3  2  1  0
  3  4  1  1
  5  3  1  0
  5  6  1  6
  7  5  1  0
  7  8  2  0
  9 10  1  0
 10 12  1  0
 11 10  2  0
 12 13  1  0
 13 14  1  0
 14 15  1  0
 16 15  1  6
 16 17  1  0
 17  7  1  0
 18 16  1  0
 19 18  2  0
 20 18  1  0
 21 20  1  0
 21 22  1  6
 22 23  1  0
 23 31  1  0
 23 24  2  0
 24 25  1  0
 26 27  2  0
 26 25  1  0
 28 27  1  0
 29 28  2  0
 30 29  1  0
 30 31  2  0
 31 26  1  0
 32 21  1  0
 33 32  2  0
 34 32  1  0
M  END
$$$$
