IRW.pdb
     RDKit          3D

 34 35  0  0  1  0  0  0  0  0999 V2000
    6.1049  -22.3248   26.2073 C   0  0  0  0  0  0  0  0  0  0  0  0
    6.0630  -21.7549   24.8109 C   0  0  0  0  0  0  0  0  0  0  0  0
    7.2388  -20.8584   24.5337 C   0  0  2  0  0  0  0  0  0  0  0  0
    7.1930  -19.7121   25.5291 C   0  0  0  0  0  0  0  0  0  0  0  0
    7.1593  -20.2890   23.1562 C   0  0  2  0  0  0  0  0  0  0  0  0
    6.9787  -21.3305   22.1848 N   0  0  0  0  0  0  0  0  0  0  0  0
    8.3106  -19.4461   22.7895 C   0  0  0  0  0  0  0  0  0  0  0  0
    9.4094  -19.9321   22.3776 O   0  0  0  0  0  0  0  0  0  0  0  0
    7.6365  -13.5166   17.6460 N   0  0  0  0  0  0  0  0  0  0  0  0
    7.8609  -13.0365   18.9439 C   0  0  0  0  0  0  0  0  0  0  0  0
    7.8219  -11.7622   19.1741 N   0  0  0  0  0  0  0  0  0  0  0  0
    8.1264  -13.9357   20.0011 N   0  0  0  0  0  0  0  0  0  0  0  0
    7.0834  -14.6204   20.6934 C   0  0  0  0  0  0  0  0  0  0  0  0
    7.5326  -15.5346   21.7975 C   0  0  0  0  0  0  0  0  0  0  0  0
    8.9124  -16.0625   21.6376 C   0  0  0  0  0  0  0  0  0  0  0  0
    9.2642  -17.1052   22.6790 C   0  0  2  0  0  0  0  0  0  0  0  0
    8.1951  -18.0371   22.8987 N   0  0  0  0  0  0  0  0  0  0  0  0
    9.5982  -16.3617   23.9474 C   0  0  0  0  0  0  0  0  0  0  0  0
   10.1724  -15.2455   23.8846 O   0  0  0  0  0  0  0  0  0  0  0  0
    8.0917  -11.3687   20.0798 N   0  0  0  0  0  0  0  0  0  0  0  0
    9.2865  -16.8787   25.2301 C   0  0  1  0  0  0  0  0  0  0  0  0
    9.9411  -16.2835   26.3761 C   0  0  0  0  0  0  0  0  0  0  0  0
    8.8636  -15.9292   27.3840 C   0  0  0  0  0  0  0  0  0  0  0  0
    7.7806  -15.1822   26.6890 C   0  0  0  0  0  0  0  0  0  0  0  0
    6.6246  -15.6148   26.0905 N   0  0  0  0  0  0  0  0  0  0  0  0
    5.9488  -14.5491   25.5868 C   0  0  0  0  0  0  0  0  0  0  0  0
    6.6328  -13.4295   25.8402 C   0  0  0  0  0  0  0  0  0  0  0  0
    6.3804  -12.1149   25.5475 C   0  0  0  0  0  0  0  0  0  0  0  0
    7.2937  -11.1310   25.9482 C   0  0  0  0  0  0  0  0  0  0  0  0
    8.4409  -11.4645   26.6313 C   0  0  0  0  0  0  0  0  0  0  0  0
    8.6593  -12.8013   26.9072 C   0  0  0  0  0  0  0  0  0  0  0  0
    7.7689  -13.7989   26.5212 C   0  0  0  0  0  0  0  0  0  0  0  0
   10.8047  -17.3289   27.0303 O   0  0  0  0  0  0  0  0  0  0  0  0
   10.8035  -18.5200   26.6283 O   0  0  0  0  0  0  0  0  0  0  0  0
  2  1  1  0
  3  2  1  0
  3  4  1  1
  5  3  1  0
  5  6  1  6
  7  5  1  0
  7  8  2  0
  9 10  1  0
 10 12  1  0
 11 10  2  0
 12 13  1  0
 13 14  1  0
 14 15  1  0
 16 15  1  6
 16 17  1  0
 17  7  1  0
 18 16  1  0
 19 18  2  0
 20 18  1  0
 21 20  1  0
 21 22  1  1
 22 23  1  0
 23 31  1  0
 23 24  2  0
 24 25  1  0
 26 27  2  0
 26 25  1  0
 28 27  1  0
 29 28  2  0
 30 29  1  0
 30 31  2  0
 31 26  1  0
 32 21  1  0
 33 32  2  0
 34 32  1  0
M  END
$$$$
