IRW.pdb
     RDKit          3D

 34 35  0  0  1  0  0  0  0  0999 V2000
    6.7641  -12.1661   18.0700 C   0  0  0  0  0  0  0  0  0  0  0  0
    8.0116  -12.9028   18.4917 C   0  0  0  0  0  0  0  0  0  0  0  0
    7.7266  -13.9304   19.5527 C   0  0  2  0  0  0  0  0  0  0  0  0
    7.1441  -13.2071   20.7546 C   0  0  0  0  0  0  0  0  0  0  0  0
    8.9821  -14.6159   19.9788 C   0  0  2  0  0  0  0  0  0  0  0  0
    9.5799  -15.3145   18.8763 N   0  0  0  0  0  0  0  0  0  0  0  0
    8.8078  -15.5271   21.1234 C   0  0  0  0  0  0  0  0  0  0  0  0
    8.3029  -15.1498   22.2261 O   0  0  0  0  0  0  0  0  0  0  0  0
   14.1131  -18.9184   19.3712 N   0  0  0  0  0  0  0  0  0  0  0  0
   14.1769  -19.8282   20.4358 C   0  0  0  0  0  0  0  0  0  0  0  0
   15.3189  -20.0958   20.9858 N   0  0  0  0  0  0  0  0  0  0  0  0
   13.0018  -20.4517   20.9126 N   0  0  0  0  0  0  0  0  0  0  0  0
   11.7214  -20.1959   20.3372 C   0  0  0  0  0  0  0  0  0  0  0  0
   11.0481  -18.9334   20.7947 C   0  0  0  0  0  0  0  0  0  0  0  0
    9.8603  -19.1476   21.6615 C   0  0  0  0  0  0  0  0  0  0  0  0
    9.1786  -17.8517   22.0506 C   0  0  2  0  0  0  0  0  0  0  0  0
    9.2179  -16.8784   20.9966 N   0  0  0  0  0  0  0  0  0  0  0  0
    9.8824  -17.3394   23.2817 C   0  0  0  0  0  0  0  0  0  0  0  0
   11.0199  -16.8151   23.1785 O   0  0  0  0  0  0  0  0  0  0  0  0
   15.4054  -20.7735   21.7483 N   0  0  0  0  0  0  0  0  0  0  0  0
    9.3043  -17.4267   24.5732 C   0  0  1  0  0  0  0  0  0  0  0  0
   10.1108  -17.0173   25.7037 C   0  0  0  0  0  0  0  0  0  0  0  0
    9.9554  -15.5156   25.8551 C   0  0  0  0  0  0  0  0  0  0  0  0
    8.5057  -15.1816   25.8824 C   0  0  0  0  0  0  0  0  0  0  0  0
    7.3959  -15.9533   25.6493 N   0  0  0  0  0  0  0  0  0  0  0  0
    6.2779  -15.1948   25.7938 C   0  0  0  0  0  0  0  0  0  0  0  0
    6.6273  -13.9458   26.1158 C   0  0  0  0  0  0  0  0  0  0  0  0
    5.8847  -12.8221   26.3671 C   0  0  0  0  0  0  0  0  0  0  0  0
    6.5344  -11.6236   26.6904 C   0  0  0  0  0  0  0  0  0  0  0  0
    7.9072  -11.5575   26.7594 C   0  0  0  0  0  0  0  0  0  0  0  0
    8.6204  -12.7128   26.4990 C   0  0  0  0  0  0  0  0  0  0  0  0
    8.0008  -13.9163   26.1757 C   0  0  0  0  0  0  0  0  0  0  0  0
    9.5322  -17.6303   26.9512 O   0  0  0  0  0  0  0  0  0  0  0  0
    8.4645  -18.2929   26.9169 O   0  0  0  0  0  0  0  0  0  0  0  0
  2  1  1  0
  3  2  1  0
  3  4  1  1
  5  3  1  0
  5  6  1  6
  7  5  1  0
  7  8  2  0
  9 10  1  0
 10 12  1  0
 11 10  2  0
 12 13  1  0
 13 14  1  0
 14 15  1  0
 16 15  1  6
 16 17  1  0
 17  7  1  0
 18 16  1  0
 19 18  2  0
 20 18  1  0
 21 20  1  0
 21 22  1  1
 22 23  1  0
 23 31  1  0
 23 24  2  0
 24 25  1  0
 26 27  2  0
 26 25  1  0
 28 27  1  0
 29 28  2  0
 30 29  1  0
 30 31  2  0
 31 26  1  0
 32 21  1  0
 33 32  2  0
 34 32  1  0
M  END
$$$$
