IRW.pdb
     RDKit          3D

 34 35  0  0  1  0  0  0  0  0999 V2000
    7.5579  -12.1152   17.9873 C   0  0  0  0  0  0  0  0  0  0  0  0
    8.6627  -12.6590   18.8592 C   0  0  0  0  0  0  0  0  0  0  0  0
    8.1997  -13.8210   19.6948 C   0  0  2  0  0  0  0  0  0  0  0  0
    7.0638  -13.3342   20.5778 C   0  0  0  0  0  0  0  0  0  0  0  0
    9.3004  -14.3152   20.5736 C   0  0  2  0  0  0  0  0  0  0  0  0
   10.4752  -14.6077   19.8020 N   0  0  0  0  0  0  0  0  0  0  0  0
    8.9313  -15.4788   21.3984 C   0  0  0  0  0  0  0  0  0  0  0  0
    7.8559  -15.5246   22.0726 O   0  0  0  0  0  0  0  0  0  0  0  0
    9.5230  -20.0798   17.3020 N   0  0  0  0  0  0  0  0  0  0  0  0
   10.8850  -20.3452   17.5020 C   0  0  0  0  0  0  0  0  0  0  0  0
   11.6880  -20.3880   16.4862 N   0  0  0  0  0  0  0  0  0  0  0  0
   11.3854  -20.5630   18.8054 N   0  0  0  0  0  0  0  0  0  0  0  0
   10.5296  -20.6213   19.9456 C   0  0  0  0  0  0  0  0  0  0  0  0
    9.9974  -19.2997   20.4222 C   0  0  0  0  0  0  0  0  0  0  0  0
   10.3790  -18.9476   21.8145 C   0  0  0  0  0  0  0  0  0  0  0  0
    9.6562  -17.7182   22.3260 C   0  0  2  0  0  0  0  0  0  0  0  0
    9.8058  -16.5938   21.4469 N   0  0  0  0  0  0  0  0  0  0  0  0
   10.2224  -17.4133   23.6898 C   0  0  0  0  0  0  0  0  0  0  0  0
   11.1378  -18.1336   24.1616 O   0  0  0  0  0  0  0  0  0  0  0  0
   12.7007  -20.4827   16.6022 N   0  0  0  0  0  0  0  0  0  0  0  0
    9.7564  -16.3294   24.4757 C   0  0  1  0  0  0  0  0  0  0  0  0
   10.4111  -16.0830   25.7432 C   0  0  0  0  0  0  0  0  0  0  0  0
    9.8838  -14.7656   26.2807 C   0  0  0  0  0  0  0  0  0  0  0  0
    8.3965  -14.8066   26.2821 C   0  0  0  0  0  0  0  0  0  0  0  0
    7.5194  -15.8044   25.9404 N   0  0  0  0  0  0  0  0  0  0  0  0
    6.2448  -15.3648   26.1084 C   0  0  0  0  0  0  0  0  0  0  0  0
    6.2648  -14.1043   26.5518 C   0  0  0  0  0  0  0  0  0  0  0  0
    5.2602  -13.2294   26.8724 C   0  0  0  0  0  0  0  0  0  0  0  0
    5.5834  -11.9431   27.3240 C   0  0  0  0  0  0  0  0  0  0  0  0
    6.8945  -11.5446   27.4505 C   0  0  0  0  0  0  0  0  0  0  0  0
    7.8786  -12.4564   27.1169 C   0  0  0  0  0  0  0  0  0  0  0  0
    7.5858  -13.7401   26.6660 C   0  0  0  0  0  0  0  0  0  0  0  0
    9.9762  -17.1427   26.7204 O   0  0  0  0  0  0  0  0  0  0  0  0
    9.0504  -17.9460   26.4413 O   0  0  0  0  0  0  0  0  0  0  0  0
  2  1  1  0
  3  2  1  0
  3  4  1  1
  5  3  1  0
  5  6  1  6
  7  5  1  0
  7  8  2  0
  9 10  1  0
 10 12  1  0
 11 10  2  0
 12 13  1  0
 13 14  1  0
 14 15  1  0
 16 15  1  6
 16 17  1  0
 17  7  1  0
 18 16  1  0
 19 18  2  0
 20 18  1  0
 21 20  1  0
 21 22  1  6
 22 23  1  0
 23 31  1  0
 23 24  2  0
 24 25  1  0
 26 27  2  0
 26 25  1  0
 28 27  1  0
 29 28  2  0
 30 29  1  0
 30 31  2  0
 31 26  1  0
 32 21  1  0
 33 32  2  0
 34 32  1  0
M  END
$$$$
