IRW.pdb
     RDKit          3D

 34 35  0  0  1  0  0  0  0  0999 V2000
    7.5261  -11.6899   19.7193 C   0  0  0  0  0  0  0  0  0  0  0  0
    7.6761  -13.0827   19.1588 C   0  0  0  0  0  0  0  0  0  0  0  0
    8.2470  -14.0380   20.1710 C   0  0  2  0  0  0  0  0  0  0  0  0
    9.6547  -13.5747   20.5038 C   0  0  0  0  0  0  0  0  0  0  0  0
    8.3260  -15.4196   19.6117 C   0  0  2  0  0  0  0  0  0  0  0  0
    7.0395  -15.8546   19.1464 N   0  0  0  0  0  0  0  0  0  0  0  0
    8.8915  -16.4111   20.5432 C   0  0  0  0  0  0  0  0  0  0  0  0
    8.2383  -16.8709   21.5307 O   0  0  0  0  0  0  0  0  0  0  0  0
   11.4519  -22.1122   18.8292 N   0  0  0  0  0  0  0  0  0  0  0  0
   11.6288  -21.5973   17.5374 C   0  0  0  0  0  0  0  0  0  0  0  0
   11.1668  -22.2477   16.5167 N   0  0  0  0  0  0  0  0  0  0  0  0
   12.3057  -20.3719   17.3445 N   0  0  0  0  0  0  0  0  0  0  0  0
   12.7247  -19.5574   18.4385 C   0  0  0  0  0  0  0  0  0  0  0  0
   11.6914  -19.3248   19.5037 C   0  0  0  0  0  0  0  0  0  0  0  0
   12.1179  -18.3983   20.5844 C   0  0  0  0  0  0  0  0  0  0  0  0
   10.9502  -17.7002   21.2511 C   0  0  2  0  0  0  0  0  0  0  0  0
   10.2156  -16.8740   20.3360 N   0  0  0  0  0  0  0  0  0  0  0  0
   11.5184  -16.8780   22.3801 C   0  0  0  0  0  0  0  0  0  0  0  0
   12.2012  -15.8541   22.1253 O   0  0  0  0  0  0  0  0  0  0  0  0
   11.3560  -21.9496   15.5558 N   0  0  0  0  0  0  0  0  0  0  0  0
   11.3113  -17.2184   23.7406 C   0  0  1  0  0  0  0  0  0  0  0  0
   11.9602  -16.4049   24.7472 C   0  0  0  0  0  0  0  0  0  0  0  0
   11.1960  -15.0973   24.8394 C   0  0  0  0  0  0  0  0  0  0  0  0
   10.0869  -15.2555   25.8185 C   0  0  0  0  0  0  0  0  0  0  0  0
    8.9247  -15.9817   25.7582 N   0  0  0  0  0  0  0  0  0  0  0  0
    8.2218  -15.8086   26.9080 C   0  0  0  0  0  0  0  0  0  0  0  0
    8.8942  -14.9875   27.7200 C   0  0  0  0  0  0  0  0  0  0  0  0
    8.6174  -14.5086   28.9737 C   0  0  0  0  0  0  0  0  0  0  0  0
    9.5264  -13.6452   29.5989 C   0  0  0  0  0  0  0  0  0  0  0  0
   10.6935  -13.2703   28.9733 C   0  0  0  0  0  0  0  0  0  0  0  0
   10.9360  -13.7748   27.7093 C   0  0  0  0  0  0  0  0  0  0  0  0
   10.0506  -14.6339   27.0652 C   0  0  0  0  0  0  0  0  0  0  0  0
   11.8036  -17.0813   26.0831 O   0  0  0  0  0  0  0  0  0  0  0  0
   10.9689  -18.0061   26.2514 O   0  0  0  0  0  0  0  0  0  0  0  0
  2  1  1  0
  3  2  1  0
  3  4  1  6
  5  3  1  0
  5  6  1  1
  7  5  1  0
  7  8  2  0
  9 10  1  0
 10 12  1  0
 11 10  2  0
 12 13  1  0
 13 14  1  0
 14 15  1  0
 16 15  1  6
 16 17  1  0
 17  7  1  0
 18 16  1  0
 19 18  2  0
 20 18  1  0
 21 20  1  0
 21 22  1  6
 22 23  1  0
 23 31  1  0
 23 24  2  0
 24 25  1  0
 26 27  2  0
 26 25  1  0
 28 27  1  0
 29 28  2  0
 30 29  1  0
 30 31  2  0
 31 26  1  0
 32 21  1  0
 33 32  2  0
 34 32  1  0
M  END
$$$$
