IRW.pdb
     RDKit          3D

 34 35  0  0  1  0  0  0  0  0999 V2000
    7.1682  -11.5215   20.0018 C   0  0  0  0  0  0  0  0  0  0  0  0
    7.4341  -12.9540   19.6096 C   0  0  0  0  0  0  0  0  0  0  0  0
    7.8853  -13.7834   20.7807 C   0  0  2  0  0  0  0  0  0  0  0  0
    9.1180  -13.1209   21.3710 C   0  0  0  0  0  0  0  0  0  0  0  0
    8.2554  -15.1619   20.3439 C   0  0  2  0  0  0  0  0  0  0  0  0
    7.1753  -15.7747   19.6236 N   0  0  0  0  0  0  0  0  0  0  0  0
    8.6967  -16.0396   21.4419 C   0  0  0  0  0  0  0  0  0  0  0  0
    7.8810  -16.6040   22.2351 O   0  0  0  0  0  0  0  0  0  0  0  0
   15.6935  -16.6094   25.1589 N   0  0  0  0  0  0  0  0  0  0  0  0
   15.9769  -16.8154   23.8015 C   0  0  0  0  0  0  0  0  0  0  0  0
   17.1252  -16.4550   23.3221 N   0  0  0  0  0  0  0  0  0  0  0  0
   15.0175  -17.4162   22.9557 N   0  0  0  0  0  0  0  0  0  0  0  0
   14.1617  -18.4654   23.4060 C   0  0  0  0  0  0  0  0  0  0  0  0
   12.7242  -18.0820   23.6142 C   0  0  0  0  0  0  0  0  0  0  0  0
   12.1242  -17.3092   22.4958 C   0  0  0  0  0  0  0  0  0  0  0  0
   10.6587  -16.9970   22.7205 C   0  0  2  0  0  0  0  0  0  0  0  0
   10.0840  -16.2669   21.6268 N   0  0  0  0  0  0  0  0  0  0  0  0
   10.5712  -16.2048   24.0004 C   0  0  0  0  0  0  0  0  0  0  0  0
   10.9728  -15.0143   24.0271 O   0  0  0  0  0  0  0  0  0  0  0  0
   17.3888  -16.6453   22.3514 N   0  0  0  0  0  0  0  0  0  0  0  0
   10.0460  -16.7571   25.1957 C   0  0  1  0  0  0  0  0  0  0  0  0
   10.1578  -15.9740   26.4083 C   0  0  0  0  0  0  0  0  0  0  0  0
    8.9041  -16.2192   27.2271 C   0  0  0  0  0  0  0  0  0  0  0  0
    7.7403  -15.6239   26.5164 C   0  0  0  0  0  0  0  0  0  0  0  0
    6.7292  -16.2044   25.7936 N   0  0  0  0  0  0  0  0  0  0  0  0
    5.8904  -15.2402   25.3324 C   0  0  0  0  0  0  0  0  0  0  0  0
    6.3263  -14.0428   25.7349 C   0  0  0  0  0  0  0  0  0  0  0  0
    5.8406  -12.7767   25.5381 C   0  0  0  0  0  0  0  0  0  0  0  0
    6.5186  -11.6835   26.0930 C   0  0  0  0  0  0  0  0  0  0  0  0
    7.6654  -11.8615   26.8328 C   0  0  0  0  0  0  0  0  0  0  0  0
    8.1231  -13.1541   27.0083 C   0  0  0  0  0  0  0  0  0  0  0  0
    7.4693  -14.2578   26.4685 C   0  0  0  0  0  0  0  0  0  0  0  0
   11.3055  -16.5116   27.2211 O   0  0  0  0  0  0  0  0  0  0  0  0
   11.9458  -17.5283   26.8515 O   0  0  0  0  0  0  0  0  0  0  0  0
  2  1  1  0
  3  2  1  0
  3  4  1  6
  5  3  1  0
  5  6  1  1
  7  5  1  0
  7  8  2  0
  9 10  1  0
 10 12  1  0
 11 10  2  0
 12 13  1  0
 13 14  1  0
 14 15  1  0
 16 15  1  6
 16 17  1  0
 17  7  1  0
 18 16  1  0
 19 18  2  0
 20 18  1  0
 21 20  1  0
 21 22  1  1
 22 23  1  0
 23 31  1  0
 23 24  2  0
 24 25  1  0
 26 27  2  0
 26 25  1  0
 28 27  1  0
 29 28  2  0
 30 29  1  0
 30 31  2  0
 31 26  1  0
 32 21  1  0
 33 32  2  0
 34 32  1  0
M  END
$$$$
