IRW.pdb
     RDKit          3D

 34 35  0  0  1  0  0  0  0  0999 V2000
    7.8598  -10.9566   19.8496 C   0  0  0  0  0  0  0  0  0  0  0  0
    8.4591  -12.2772   19.4330 C   0  0  0  0  0  0  0  0  0  0  0  0
    7.8710  -13.4292   20.2011 C   0  0  2  0  0  0  0  0  0  0  0  0
    8.1806  -13.2122   21.6722 C   0  0  0  0  0  0  0  0  0  0  0  0
    8.4871  -14.7206   19.7759 C   0  0  2  0  0  0  0  0  0  0  0  0
    8.3592  -14.9029   18.3577 N   0  0  0  0  0  0  0  0  0  0  0  0
    7.9618  -15.8979   20.4891 C   0  0  0  0  0  0  0  0  0  0  0  0
    7.0825  -16.6646   19.9869 O   0  0  0  0  0  0  0  0  0  0  0  0
    9.9608  -23.5903   20.9376 N   0  0  0  0  0  0  0  0  0  0  0  0
   11.1560  -22.8651   21.0424 C   0  0  0  0  0  0  0  0  0  0  0  0
   12.2314  -23.4543   21.4601 N   0  0  0  0  0  0  0  0  0  0  0  0
   11.1930  -21.4966   20.6921 N   0  0  0  0  0  0  0  0  0  0  0  0
   10.0804  -20.6293   20.9060 C   0  0  0  0  0  0  0  0  0  0  0  0
   10.3415  -19.4525   21.8023 C   0  0  0  0  0  0  0  0  0  0  0  0
    9.8260  -18.1580   21.2858 C   0  0  0  0  0  0  0  0  0  0  0  0
    8.8525  -17.4942   22.2383 C   0  0  2  0  0  0  0  0  0  0  0  0
    8.4516  -16.1923   21.7867 N   0  0  0  0  0  0  0  0  0  0  0  0
    9.5390  -17.4105   23.5781 C   0  0  0  0  0  0  0  0  0  0  0  0
    9.9350  -18.4606   24.1439 O   0  0  0  0  0  0  0  0  0  0  0  0
   13.1084  -22.9441   21.5963 N   0  0  0  0  0  0  0  0  0  0  0  0
    9.7598  -16.1752   24.2375 C   0  0  2  0  0  0  0  0  0  0  0  0
   10.1756  -16.2140   25.6238 C   0  0  0  0  0  0  0  0  0  0  0  0
    9.0776  -16.9052   26.4104 C   0  0  0  0  0  0  0  0  0  0  0  0
    7.8655  -16.0423   26.4061 C   0  0  0  0  0  0  0  0  0  0  0  0
    6.5472  -16.3369   26.1674 N   0  0  0  0  0  0  0  0  0  0  0  0
    5.8026  -15.2058   26.2786 C   0  0  0  0  0  0  0  0  0  0  0  0
    6.5999  -14.1778   26.5842 C   0  0  0  0  0  0  0  0  0  0  0  0
    6.3408  -12.8501   26.8021 C   0  0  0  0  0  0  0  0  0  0  0  0
    7.3961  -11.9834   27.1152 C   0  0  0  0  0  0  0  0  0  0  0  0
    8.6893  -12.4450   27.2072 C   0  0  0  0  0  0  0  0  0  0  0  0
    8.9092  -13.7908   26.9802 C   0  0  0  0  0  0  0  0  0  0  0  0
    7.8797  -14.6737   26.6677 C   0  0  0  0  0  0  0  0  0  0  0  0
   11.3926  -17.0937   25.7339 O   0  0  0  0  0  0  0  0  0  0  0  0
   12.0037  -17.2272   26.8243 O   0  0  0  0  0  0  0  0  0  0  0  0
  2  1  1  0
  3  2  1  0
  3  4  1  1
  5  3  1  0
  5  6  1  6
  7  5  1  0
  7  8  2  0
  9 10  1  0
 10 12  1  0
 11 10  2  0
 12 13  1  0
 13 14  1  0
 14 15  1  0
 16 15  1  6
 16 17  1  0
 17  7  1  0
 18 16  1  0
 19 18  2  0
 20 18  1  0
 21 20  1  0
 21 22  1  6
 22 23  1  0
 23 31  1  0
 23 24  2  0
 24 25  1  0
 26 27  2  0
 26 25  1  0
 28 27  1  0
 29 28  2  0
 30 29  1  0
 30 31  2  0
 31 26  1  0
 32 21  1  0
 33 32  2  0
 34 32  1  0
M  END
$$$$
