IRW.pdb
     RDKit          3D

 34 35  0  0  1  0  0  0  0  0999 V2000
    7.8054  -11.4693   19.6153 C   0  0  0  0  0  0  0  0  0  0  0  0
    8.1752  -12.8802   19.2291 C   0  0  0  0  0  0  0  0  0  0  0  0
    8.0624  -13.8293   20.3907 C   0  0  2  0  0  0  0  0  0  0  0  0
    9.0348  -13.3684   21.4627 C   0  0  0  0  0  0  0  0  0  0  0  0
    8.4351  -15.2157   19.9818 C   0  0  2  0  0  0  0  0  0  0  0  0
    7.6643  -15.6357   18.8459 N   0  0  0  0  0  0  0  0  0  0  0  0
    8.3269  -16.2087   21.0648 C   0  0  0  0  0  0  0  0  0  0  0  0
    7.2156  -16.7044   21.4285 O   0  0  0  0  0  0  0  0  0  0  0  0
   14.7101  -18.1241   20.8735 N   0  0  0  0  0  0  0  0  0  0  0  0
   14.1341  -18.7819   19.7777 C   0  0  0  0  0  0  0  0  0  0  0  0
   14.6648  -18.6598   18.6023 N   0  0  0  0  0  0  0  0  0  0  0  0
   12.9800  -19.5789   19.9504 N   0  0  0  0  0  0  0  0  0  0  0  0
   12.2855  -19.6471   21.1949 C   0  0  0  0  0  0  0  0  0  0  0  0
   11.4084  -18.4691   21.5107 C   0  0  0  0  0  0  0  0  0  0  0  0
   10.4857  -18.6774   22.6567 C   0  0  0  0  0  0  0  0  0  0  0  0
    9.5369  -17.5143   22.8627 C   0  0  2  0  0  0  0  0  0  0  0  0
    9.5046  -16.6315   21.7317 N   0  0  0  0  0  0  0  0  0  0  0  0
    9.9990  -16.7863   24.0996 C   0  0  0  0  0  0  0  0  0  0  0  0
   10.8523  -15.8688   24.0025 O   0  0  0  0  0  0  0  0  0  0  0  0
   14.2500  -19.0966   17.7745 N   0  0  0  0  0  0  0  0  0  0  0  0
    9.5025  -17.0998   25.3899 C   0  0  1  0  0  0  0  0  0  0  0  0
    9.9815  -16.3140   26.5077 C   0  0  0  0  0  0  0  0  0  0  0  0
    8.8372  -16.1803   27.4951 C   0  0  0  0  0  0  0  0  0  0  0  0
    7.6532  -15.6220   26.7878 C   0  0  0  0  0  0  0  0  0  0  0  0
    6.5914  -16.2391   26.1768 N   0  0  0  0  0  0  0  0  0  0  0  0
    5.7541  -15.2992   25.6650 C   0  0  0  0  0  0  0  0  0  0  0  0
    6.2406  -14.0822   25.9255 C   0  0  0  0  0  0  0  0  0  0  0  0
    5.7773  -12.8271   25.6294 C   0  0  0  0  0  0  0  0  0  0  0  0
    6.5107  -11.7062   26.0397 C   0  0  0  0  0  0  0  0  0  0  0  0
    7.6897  -11.8461   26.7356 C   0  0  0  0  0  0  0  0  0  0  0  0
    8.1232  -13.1288   27.0146 C   0  0  0  0  0  0  0  0  0  0  0  0
    7.4146  -14.2594   26.6192 C   0  0  0  0  0  0  0  0  0  0  0  0
   11.0598  -17.0930   27.2130 O   0  0  0  0  0  0  0  0  0  0  0  0
   11.3505  -18.2654   26.8649 O   0  0  0  0  0  0  0  0  0  0  0  0
  2  1  1  0
  3  2  1  0
  3  4  1  1
  5  3  1  0
  5  6  1  6
  7  5  1  0
  7  8  2  0
  9 10  1  0
 10 12  1  0
 11 10  2  0
 12 13  1  0
 13 14  1  0
 14 15  1  0
 16 15  1  6
 16 17  1  0
 17  7  1  0
 18 16  1  0
 19 18  2  0
 20 18  1  0
 21 20  1  0
 21 22  1  1
 22 23  1  0
 23 31  1  0
 23 24  2  0
 24 25  1  0
 26 27  2  0
 26 25  1  0
 28 27  1  0
 29 28  2  0
 30 29  1  0
 30 31  2  0
 31 26  1  0
 32 21  1  0
 33 32  2  0
 34 32  1  0
M  END
$$$$
