IRW.pdb
     RDKit          3D

 34 35  0  0  1  0  0  0  0  0999 V2000
    6.8058  -12.3546   18.0306 C   0  0  0  0  0  0  0  0  0  0  0  0
    8.0938  -12.9275   18.5686 C   0  0  0  0  0  0  0  0  0  0  0  0
    7.8547  -13.8630   19.7222 C   0  0  2  0  0  0  0  0  0  0  0  0
    7.2018  -13.0660   20.8383 C   0  0  0  0  0  0  0  0  0  0  0  0
    9.1433  -14.4179   20.2317 C   0  0  2  0  0  0  0  0  0  0  0  0
    9.8463  -15.1111   19.1895 N   0  0  0  0  0  0  0  0  0  0  0  0
    8.9956  -15.2882   21.4112 C   0  0  0  0  0  0  0  0  0  0  0  0
    8.3478  -14.9340   22.4447 O   0  0  0  0  0  0  0  0  0  0  0  0
   11.2512  -22.1688   25.5834 N   0  0  0  0  0  0  0  0  0  0  0  0
   12.3334  -21.6522   24.8573 C   0  0  0  0  0  0  0  0  0  0  0  0
   13.4991  -21.5637   25.4154 N   0  0  0  0  0  0  0  0  0  0  0  0
   12.1587  -21.2307   23.5198 N   0  0  0  0  0  0  0  0  0  0  0  0
   10.8671  -21.1129   22.9251 C   0  0  0  0  0  0  0  0  0  0  0  0
   10.1387  -19.8305   23.2110 C   0  0  0  0  0  0  0  0  0  0  0  0
   10.3473  -18.7641   22.1973 C   0  0  0  0  0  0  0  0  0  0  0  0
    9.5036  -17.5335   22.4608 C   0  0  2  0  0  0  0  0  0  0  0  0
    9.5978  -16.5719   21.3997 N   0  0  0  0  0  0  0  0  0  0  0  0
    9.9829  -16.9450   23.7636 C   0  0  0  0  0  0  0  0  0  0  0  0
   11.0428  -16.2701   23.7919 O   0  0  0  0  0  0  0  0  0  0  0  0
   14.3126  -21.1997   24.9117 N   0  0  0  0  0  0  0  0  0  0  0  0
    9.2756  -17.1249   24.9789 C   0  0  1  0  0  0  0  0  0  0  0  0
    9.8745  -16.6094   26.1921 C   0  0  0  0  0  0  0  0  0  0  0  0
    8.7543  -16.3664   27.1863 C   0  0  0  0  0  0  0  0  0  0  0  0
    7.6863  -15.5700   26.5237 C   0  0  0  0  0  0  0  0  0  0  0  0
    6.5708  -15.9579   25.8260 N   0  0  0  0  0  0  0  0  0  0  0  0
    5.8925  -14.8574   25.4075 C   0  0  0  0  0  0  0  0  0  0  0  0
    6.5354  -13.7586   25.8137 C   0  0  0  0  0  0  0  0  0  0  0  0
    6.2637  -12.4253   25.6525 C   0  0  0  0  0  0  0  0  0  0  0  0
    7.1321  -11.4728   26.2014 C   0  0  0  0  0  0  0  0  0  0  0  0
    8.2543  -11.8556   26.9000 C   0  0  0  0  0  0  0  0  0  0  0  0
    8.4933  -13.2099   27.0404 C   0  0  0  0  0  0  0  0  0  0  0  0
    7.6475  -14.1772   26.5057 C   0  0  0  0  0  0  0  0  0  0  0  0
   10.7447  -17.6830   26.7897 O   0  0  0  0  0  0  0  0  0  0  0  0
   10.7650  -18.8459   26.3129 O   0  0  0  0  0  0  0  0  0  0  0  0
  2  1  1  0
  3  2  1  0
  3  4  1  1
  5  3  1  0
  5  6  1  6
  7  5  1  0
  7  8  2  0
  9 10  1  0
 10 12  1  0
 11 10  2  0
 12 13  1  0
 13 14  1  0
 14 15  1  0
 16 15  1  6
 16 17  1  0
 17  7  1  0
 18 16  1  0
 19 18  2  0
 20 18  1  0
 21 20  1  0
 21 22  1  1
 22 23  1  0
 23 31  1  0
 23 24  2  0
 24 25  1  0
 26 27  2  0
 26 25  1  0
 28 27  1  0
 29 28  2  0
 30 29  1  0
 30 31  2  0
 31 26  1  0
 32 21  1  0
 33 32  2  0
 34 32  1  0
M  END
$$$$
