IRW.pdb
     RDKit          3D

 34 35  0  0  1  0  0  0  0  0999 V2000
    7.4303  -11.5336   19.8322 C   0  0  0  0  0  0  0  0  0  0  0  0
    7.8949  -12.9049   19.4075 C   0  0  0  0  0  0  0  0  0  0  0  0
    7.8955  -13.8787   20.5541 C   0  0  2  0  0  0  0  0  0  0  0  0
    8.9657  -13.4372   21.5374 C   0  0  0  0  0  0  0  0  0  0  0  0
    8.2291  -15.2548   20.0819 C   0  0  2  0  0  0  0  0  0  0  0  0
    7.3102  -15.6803   19.0643 N   0  0  0  0  0  0  0  0  0  0  0  0
    8.2948  -16.2579   21.1590 C   0  0  0  0  0  0  0  0  0  0  0  0
    7.2566  -16.7197   21.7266 O   0  0  0  0  0  0  0  0  0  0  0  0
    9.9531  -22.4221   23.5985 N   0  0  0  0  0  0  0  0  0  0  0  0
   10.7675  -22.4727   22.4587 C   0  0  0  0  0  0  0  0  0  0  0  0
   10.5144  -23.3343   21.5249 N   0  0  0  0  0  0  0  0  0  0  0  0
   11.8603  -21.5872   22.3229 N   0  0  0  0  0  0  0  0  0  0  0  0
   12.1579  -20.5949   23.3041 C   0  0  0  0  0  0  0  0  0  0  0  0
   11.0806  -19.5745   23.5384 C   0  0  0  0  0  0  0  0  0  0  0  0
   10.8611  -18.6388   22.4051 C   0  0  0  0  0  0  0  0  0  0  0  0
    9.7803  -17.6163   22.6916 C   0  0  2  0  0  0  0  0  0  0  0  0
    9.5624  -16.7300   21.5841 N   0  0  0  0  0  0  0  0  0  0  0  0
   10.2156  -16.8505   23.9153 C   0  0  0  0  0  0  0  0  0  0  0  0
   11.2570  -16.1482   23.8751 O   0  0  0  0  0  0  0  0  0  0  0  0
   11.1435  -23.4678   20.7284 N   0  0  0  0  0  0  0  0  0  0  0  0
    9.4864  -16.8911   25.1303 C   0  0  2  0  0  0  0  0  0  0  0  0
    9.9883  -16.1166   26.2459 C   0  0  0  0  0  0  0  0  0  0  0  0
    8.8256  -15.8680   27.1885 C   0  0  0  0  0  0  0  0  0  0  0  0
    7.7152  -15.2344   26.4273 C   0  0  0  0  0  0  0  0  0  0  0  0
    6.6193  -15.7781   25.8067 N   0  0  0  0  0  0  0  0  0  0  0  0
    5.8828  -14.7880   25.2379 C   0  0  0  0  0  0  0  0  0  0  0  0
    6.4685  -13.6096   25.4703 C   0  0  0  0  0  0  0  0  0  0  0  0
    6.1268  -12.3306   25.1170 C   0  0  0  0  0  0  0  0  0  0  0  0
    6.9458  -11.2639   25.5097 C   0  0  0  0  0  0  0  0  0  0  0  0
    8.0888  -11.4810   26.2448 C   0  0  0  0  0  0  0  0  0  0  0  0
    8.3989  -12.7855   26.5811 C   0  0  0  0  0  0  0  0  0  0  0  0
    7.6033  -13.8634   26.2043 C   0  0  0  0  0  0  0  0  0  0  0  0
   10.9769  -16.9593   27.0071 O   0  0  0  0  0  0  0  0  0  0  0  0
   11.1472  -18.1737   26.7307 O   0  0  0  0  0  0  0  0  0  0  0  0
  2  1  1  0
  3  2  1  0
  3  4  1  1
  5  3  1  0
  5  6  1  6
  7  5  1  0
  7  8  2  0
  9 10  1  0
 10 12  1  0
 11 10  2  0
 12 13  1  0
 13 14  1  0
 14 15  1  0
 16 15  1  6
 16 17  1  0
 17  7  1  0
 18 16  1  0
 19 18  2  0
 20 18  1  0
 21 20  1  0
 21 22  1  6
 22 23  1  0
 23 31  1  0
 23 24  2  0
 24 25  1  0
 26 27  2  0
 26 25  1  0
 28 27  1  0
 29 28  2  0
 30 29  1  0
 30 31  2  0
 31 26  1  0
 32 21  1  0
 33 32  2  0
 34 32  1  0
M  END
$$$$
