IRW.pdb
     RDKit          3D

 34 35  0  0  1  0  0  0  0  0999 V2000
    7.1066  -11.2211   19.4326 C   0  0  0  0  0  0  0  0  0  0  0  0
    8.0143  -12.3345   18.9712 C   0  0  0  0  0  0  0  0  0  0  0  0
    8.0398  -13.4799   19.9460 C   0  0  2  0  0  0  0  0  0  0  0  0
    8.6009  -12.9601   21.2582 C   0  0  0  0  0  0  0  0  0  0  0  0
    8.9275  -14.5751   19.4554 C   0  0  2  0  0  0  0  0  0  0  0  0
    8.5157  -15.0196   18.1540 N   0  0  0  0  0  0  0  0  0  0  0  0
    9.0287  -15.7212   20.3756 C   0  0  0  0  0  0  0  0  0  0  0  0
    8.2111  -16.6929   20.3488 O   0  0  0  0  0  0  0  0  0  0  0  0
   13.5218  -15.9142   18.4295 N   0  0  0  0  0  0  0  0  0  0  0  0
   14.5908  -15.7513   19.3217 C   0  0  0  0  0  0  0  0  0  0  0  0
   15.3156  -14.6789   19.2682 N   0  0  0  0  0  0  0  0  0  0  0  0
   14.8788  -16.7493   20.2796 N   0  0  0  0  0  0  0  0  0  0  0  0
   13.8534  -17.5292   20.8931 C   0  0  0  0  0  0  0  0  0  0  0  0
   12.6173  -16.7735   21.2901 C   0  0  0  0  0  0  0  0  0  0  0  0
   11.5588  -17.6084   21.9153 C   0  0  0  0  0  0  0  0  0  0  0  0
   10.3151  -16.8147   22.2599 C   0  0  2  0  0  0  0  0  0  0  0  0
   10.0761  -15.7472   21.3309 N   0  0  0  0  0  0  0  0  0  0  0  0
   10.5105  -16.2789   23.6556 C   0  0  0  0  0  0  0  0  0  0  0  0
   11.2756  -15.3005   23.8479 O   0  0  0  0  0  0  0  0  0  0  0  0
   16.1189  -14.5387   19.8871 N   0  0  0  0  0  0  0  0  0  0  0  0
    9.8559  -16.8430   24.7794 C   0  0  1  0  0  0  0  0  0  0  0  0
   10.0765  -16.2257   26.0703 C   0  0  0  0  0  0  0  0  0  0  0  0
    8.7925  -16.3630   26.8671 C   0  0  0  0  0  0  0  0  0  0  0  0
    7.6769  -15.7570   26.0912 C   0  0  0  0  0  0  0  0  0  0  0  0
    6.7612  -16.3172   25.2371 N   0  0  0  0  0  0  0  0  0  0  0  0
    5.9310  -15.3507   24.7653 C   0  0  0  0  0  0  0  0  0  0  0  0
    6.2795  -14.1717   25.2888 C   0  0  0  0  0  0  0  0  0  0  0  0
    5.7639  -12.9116   25.1341 C   0  0  0  0  0  0  0  0  0  0  0  0
    6.3433  -11.8393   25.8249 C   0  0  0  0  0  0  0  0  0  0  0  0
    7.4226  -12.0319   26.6567 C   0  0  0  0  0  0  0  0  0  0  0  0
    7.9133  -13.3178   26.7859 C   0  0  0  0  0  0  0  0  0  0  0  0
    7.3571  -14.4009   26.1116 C   0  0  0  0  0  0  0  0  0  0  0  0
   11.1197  -17.0213   26.8092 O   0  0  0  0  0  0  0  0  0  0  0  0
   11.7209  -16.5425   27.8039 O   0  0  0  0  0  0  0  0  0  0  0  0
  2  1  1  0
  3  2  1  0
  3  4  1  1
  5  3  1  0
  5  6  1  6
  7  5  1  0
  7  8  2  0
  9 10  1  0
 10 12  1  0
 11 10  2  0
 12 13  1  0
 13 14  1  0
 14 15  1  0
 16 15  1  6
 16 17  1  0
 17  7  1  0
 18 16  1  0
 19 18  2  0
 20 18  1  0
 21 20  1  0
 21 22  1  1
 22 23  1  0
 23 31  1  0
 23 24  2  0
 24 25  1  0
 26 27  2  0
 26 25  1  0
 28 27  1  0
 29 28  2  0
 30 29  1  0
 30 31  2  0
 31 26  1  0
 32 21  1  0
 33 32  2  0
 34 32  1  0
M  END
$$$$
