FVP.pdb
     RDKit          3D

 26 27  0  0  1  0  0  0  0  0999 V2000
   35.0088  -32.3486  -13.5982 N   0  0  0  0  0  0  0  0  0  0  0  0
   36.3162  -32.9618  -13.6925 C   0  0  1  0  0  0  0  0  0  0  0  0
   36.1194  -34.4554  -13.5342 C   0  0  0  0  0  0  0  0  0  0  0  0
   36.3316  -34.7714  -12.0989 C   0  0  0  0  0  0  0  0  0  0  0  0
   37.5528  -35.2269  -11.6595 C   0  0  0  0  0  0  0  0  0  0  0  0
   37.7778  -35.5302  -10.3199 C   0  0  0  0  0  0  0  0  0  0  0  0
   36.7309  -35.3572   -9.4481 C   0  0  0  0  0  0  0  0  0  0  0  0
   35.5054  -34.9011   -9.8825 C   0  0  0  0  0  0  0  0  0  0  0  0
   35.2871  -34.6007  -11.2181 C   0  0  0  0  0  0  0  0  0  0  0  0
   36.8801  -32.6443  -15.0499 C   0  0  0  0  0  0  0  0  0  0  0  0
   36.1516  -32.6759  -16.0705 O   0  0  0  0  0  0  0  0  0  0  0  0
   40.4274  -30.7834  -15.2021 C   0  0  0  0  0  0  0  0  0  0  0  0
   39.5383  -30.7480  -16.4337 C   0  0  1  0  0  0  0  0  0  0  0  0
   40.3077  -30.4580  -17.6965 C   0  0  0  0  0  0  0  0  0  0  0  0
   38.7349  -32.0297  -16.5575 C   0  0  2  0  0  0  0  0  0  0  0  0
   38.2440  -32.3032  -15.2046 N   0  0  0  0  0  0  0  0  0  0  0  0
   39.6102  -33.1259  -17.0264 C   0  0  0  0  0  0  0  0  0  0  0  0
   40.1560  -33.8487  -16.1172 O   0  0  0  0  0  0  0  0  0  0  0  0
   39.8567  -33.4004  -18.3766 N   0  0  0  0  0  0  0  0  0  0  0  0
   39.3934  -32.6881  -19.5378 C   0  0  0  0  0  0  0  0  0  0  0  0
   39.4795  -33.6898  -20.6849 C   0  0  0  0  0  0  0  0  0  0  0  0
   39.7380  -34.9914  -19.9932 C   0  0  0  0  0  0  0  0  0  0  0  0
   40.6583  -34.5454  -18.8443 C   0  0  1  0  0  0  0  0  0  0  0  0
   41.9210  -34.0969  -19.4532 C   0  0  0  0  0  0  0  0  0  0  0  0
   42.1027  -32.7329  -19.6197 O   0  0  0  0  0  0  0  0  0  0  0  0
   42.8445  -34.8558  -19.8326 O   0  0  0  0  0  0  0  0  0  0  0  0
  2 10  1  0
  2  1  1  6
  3  2  1  0
  4  5  2  0
  4  3  1  0
  6  5  1  0
  7  6  2  0
  8  7  1  0
  8  9  2  0
  9  4  1  0
 10 11  2  0
 13 14  1  6
 13 12  1  0
 15 13  1  0
 16 10  1  0
 15 16  1  1
 17 15  1  0
 18 17  2  0
 19 17  1  0
 19 23  1  0
 20 21  1  0
 20 19  1  0
 21 22  1  0
 22 23  1  0
 24 25  1  0
 23 24  1  6
 26 24  2  0
M  END
$$$$
