FVP.pdb
     RDKit          3D

 26 27  0  0  1  0  0  0  0  0999 V2000
   26.1736  -22.1458  -11.3510 N   0  0  0  0  0  0  0  0  0  0  0  0
   25.6275  -20.8266  -11.5868 C   0  0  1  0  0  0  0  0  0  0  0  0
   25.7490  -20.0562  -10.2882 C   0  0  0  0  0  0  0  0  0  0  0  0
   24.7382  -20.6159   -9.3554 C   0  0  0  0  0  0  0  0  0  0  0  0
   25.1058  -21.0267   -8.0953 C   0  0  0  0  0  0  0  0  0  0  0  0
   24.1782  -21.5546   -7.2020 C   0  0  0  0  0  0  0  0  0  0  0  0
   22.8757  -21.6509   -7.6265 C   0  0  0  0  0  0  0  0  0  0  0  0
   22.5016  -21.2409   -8.8877 C   0  0  0  0  0  0  0  0  0  0  0  0
   23.4300  -20.7159   -9.7732 C   0  0  0  0  0  0  0  0  0  0  0  0
   26.4446  -20.1732  -12.6670 C   0  0  0  0  0  0  0  0  0  0  0  0
   27.6087  -19.7681  -12.4343 O   0  0  0  0  0  0  0  0  0  0  0  0
   27.9439  -21.5574  -15.3436 C   0  0  0  0  0  0  0  0  0  0  0  0
   27.0775  -20.4812  -15.9758 C   0  0  1  0  0  0  0  0  0  0  0  0
   25.8145  -21.0355  -16.5825 C   0  0  0  0  0  0  0  0  0  0  0  0
   26.7742  -19.3770  -14.9797 C   0  0  2  0  0  0  0  0  0  0  0  0
   25.9178  -20.0015  -13.9683 N   0  0  0  0  0  0  0  0  0  0  0  0
   26.0607  -18.2731  -15.6578 C   0  0  0  0  0  0  0  0  0  0  0  0
   24.7791  -18.2995  -15.5967 O   0  0  0  0  0  0  0  0  0  0  0  0
   26.7049  -17.2332  -16.3381 N   0  0  0  0  0  0  0  0  0  0  0  0
   28.1154  -17.0196  -16.5256 C   0  0  0  0  0  0  0  0  0  0  0  0
   28.2606  -15.5309  -16.8246 C   0  0  0  0  0  0  0  0  0  0  0  0
   26.9075  -14.9771  -16.5050 C   0  0  0  0  0  0  0  0  0  0  0  0
   25.9933  -16.1167  -16.9859 C   0  0  1  0  0  0  0  0  0  0  0  0
   26.1218  -16.1830  -18.4506 C   0  0  0  0  0  0  0  0  0  0  0  0
   25.5202  -15.1784  -19.1924 O   0  0  0  0  0  0  0  0  0  0  0  0
   26.7343  -17.0796  -19.0778 O   0  0  0  0  0  0  0  0  0  0  0  0
  2 10  1  0
  2  1  1  1
  3  2  1  0
  4  5  2  0
  4  3  1  0
  6  5  1  0
  7  6  2  0
  8  7  1  0
  8  9  2  0
  9  4  1  0
 10 11  2  0
 13 14  1  1
 13 12  1  0
 15 13  1  0
 16 10  1  0
 15 16  1  1
 17 15  1  0
 18 17  2  0
 19 17  1  0
 19 23  1  0
 20 21  1  0
 20 19  1  0
 21 22  1  0
 22 23  1  0
 24 25  1  0
 23 24  1  6
 26 24  2  0
M  END
$$$$
