FVP.pdb
     RDKit          3D

 26 27  0  0  1  0  0  0  0  0999 V2000
   23.1100  -18.5910  -19.2989 N   0  0  0  0  0  0  0  0  0  0  0  0
   22.9676  -18.2042  -17.9117 C   0  0  1  0  0  0  0  0  0  0  0  0
   21.5743  -18.6100  -17.4775 C   0  0  0  0  0  0  0  0  0  0  0  0
   20.6398  -17.5817  -18.0013 C   0  0  0  0  0  0  0  0  0  0  0  0
   19.8418  -17.8548  -19.0877 C   0  0  0  0  0  0  0  0  0  0  0  0
   18.9578  -16.9088  -19.5981 C   0  0  0  0  0  0  0  0  0  0  0  0
   18.9107  -15.6862  -18.9744 C   0  0  0  0  0  0  0  0  0  0  0  0
   19.7078  -15.4069  -17.8857 C   0  0  0  0  0  0  0  0  0  0  0  0
   20.5865  -16.3531  -17.3817 C   0  0  0  0  0  0  0  0  0  0  0  0
   24.0059  -18.9452  -17.1151 C   0  0  0  0  0  0  0  0  0  0  0  0
   24.1286  -20.1890  -17.2214 O   0  0  0  0  0  0  0  0  0  0  0  0
   26.2514  -16.7913  -14.4057 C   0  0  0  0  0  0  0  0  0  0  0  0
   26.8223  -18.1081  -14.9043 C   0  0  1  0  0  0  0  0  0  0  0  0
   27.7371  -18.7609  -13.9004 C   0  0  0  0  0  0  0  0  0  0  0  0
   25.7128  -19.0496  -15.3357 C   0  0  2  0  0  0  0  0  0  0  0  0
   24.8659  -18.2554  -16.2293 N   0  0  0  0  0  0  0  0  0  0  0  0
   24.9470  -19.4967  -14.1520 C   0  0  0  0  0  0  0  0  0  0  0  0
   23.8472  -18.8784  -13.9171 O   0  0  0  0  0  0  0  0  0  0  0  0
   25.3574  -20.5346  -13.3073 N   0  0  0  0  0  0  0  0  0  0  0  0
   26.5847  -21.2850  -13.3361 C   0  0  0  0  0  0  0  0  0  0  0  0
   26.2779  -22.5863  -12.6017 C   0  0  0  0  0  0  0  0  0  0  0  0
   24.7887  -22.5621  -12.4559 C   0  0  0  0  0  0  0  0  0  0  0  0
   24.5338  -21.0659  -12.2064 C   0  0  1  0  0  0  0  0  0  0  0  0
   25.1228  -20.7410  -10.8973 C   0  0  0  0  0  0  0  0  0  0  0  0
   24.3665  -21.0157   -9.7688 O   0  0  0  0  0  0  0  0  0  0  0  0
   26.2572  -20.2345  -10.7263 O   0  0  0  0  0  0  0  0  0  0  0  0
  2 10  1  0
  2  1  1  6
  3  2  1  0
  4  5  2  0
  4  3  1  0
  6  5  1  0
  7  6  2  0
  8  7  1  0
  8  9  2  0
  9  4  1  0
 10 11  2  0
 13 14  1  1
 13 12  1  0
 15 13  1  0
 16 10  1  0
 15 16  1  6
 17 15  1  0
 18 17  2  0
 19 17  1  0
 19 23  1  0
 20 21  1  0
 20 19  1  0
 21 22  1  0
 22 23  1  0
 24 25  1  0
 23 24  1  1
 26 24  2  0
M  END
$$$$
