FVP.pdb
     RDKit          3D

 26 27  0  0  1  0  0  0  0  0999 V2000
   24.3402  -21.9258  -12.5001 N   0  0  0  0  0  0  0  0  0  0  0  0
   24.2870  -20.8344  -11.5512 C   0  0  1  0  0  0  0  0  0  0  0  0
   22.8557  -20.7375  -11.0646 C   0  0  0  0  0  0  0  0  0  0  0  0
   22.0483  -20.2097  -12.1936 C   0  0  0  0  0  0  0  0  0  0  0  0
   22.4404  -19.0705  -12.8570 C   0  0  0  0  0  0  0  0  0  0  0  0
   21.7018  -18.5551  -13.9181 C   0  0  0  0  0  0  0  0  0  0  0  0
   20.5613  -19.2287  -14.2806 C   0  0  0  0  0  0  0  0  0  0  0  0
   20.1636  -20.3704  -13.6196 C   0  0  0  0  0  0  0  0  0  0  0  0
   20.9033  -20.8791  -12.5634 C   0  0  0  0  0  0  0  0  0  0  0  0
   25.2109  -21.1656  -10.4118 C   0  0  0  0  0  0  0  0  0  0  0  0
   24.9781  -22.1426   -9.6605 O   0  0  0  0  0  0  0  0  0  0  0  0
   29.7141  -20.9994   -8.6369 C   0  0  0  0  0  0  0  0  0  0  0  0
   28.6507  -20.7694   -9.6975 C   0  0  1  0  0  0  0  0  0  0  0  0
   28.7672  -21.7289  -10.8535 C   0  0  0  0  0  0  0  0  0  0  0  0
   27.2616  -20.8049   -9.0870 C   0  0  2  0  0  0  0  0  0  0  0  0
   26.3620  -20.3823  -10.1633 N   0  0  0  0  0  0  0  0  0  0  0  0
   27.1910  -19.8636   -7.9483 C   0  0  0  0  0  0  0  0  0  0  0  0
   26.6040  -18.7440   -8.1692 O   0  0  0  0  0  0  0  0  0  0  0  0
   27.7177  -20.1364   -6.6805 N   0  0  0  0  0  0  0  0  0  0  0  0
   28.3751  -21.3298   -6.2179 C   0  0  0  0  0  0  0  0  0  0  0  0
   28.2364  -21.3024   -4.6991 C   0  0  0  0  0  0  0  0  0  0  0  0
   27.2530  -20.2004   -4.4582 C   0  0  0  0  0  0  0  0  0  0  0  0
   27.6542  -19.1935   -5.5494 C   0  0  1  0  0  0  0  0  0  0  0  0
   28.9929  -18.6909   -5.2006 C   0  0  0  0  0  0  0  0  0  0  0  0
   29.0720  -17.6873   -4.2479 O   0  0  0  0  0  0  0  0  0  0  0  0
   30.0670  -19.1023   -5.7003 O   0  0  0  0  0  0  0  0  0  0  0  0
  2 10  1  0
  2  1  1  6
  3  2  1  0
  4  5  2  0
  4  3  1  0
  6  5  1  0
  7  6  2  0
  8  7  1  0
  8  9  2  0
  9  4  1  0
 10 11  2  0
 13 14  1  6
 13 12  1  0
 15 13  1  0
 16 10  1  0
 15 16  1  6
 17 15  1  0
 18 17  2  0
 19 17  1  0
 19 23  1  0
 20 21  1  0
 20 19  1  0
 21 22  1  0
 22 23  1  0
 24 25  1  0
 23 24  1  1
 26 24  2  0
M  END
$$$$
