FVP.pdb
     RDKit          3D

 26 27  0  0  1  0  0  0  0  0999 V2000
   26.0051  -19.5028  -11.3766 N   0  0  0  0  0  0  0  0  0  0  0  0
   25.6210  -20.0778  -10.1054 C   0  0  1  0  0  0  0  0  0  0  0  0
   25.1295  -21.4834  -10.3833 C   0  0  0  0  0  0  0  0  0  0  0  0
   23.7965  -21.3579  -11.0256 C   0  0  0  0  0  0  0  0  0  0  0  0
   22.7210  -20.8849  -10.3106 C   0  0  0  0  0  0  0  0  0  0  0  0
   21.4614  -20.7577  -10.8889 C   0  0  0  0  0  0  0  0  0  0  0  0
   21.3306  -21.1234  -12.2061 C   0  0  0  0  0  0  0  0  0  0  0  0
   22.4045  -21.5979  -12.9273 C   0  0  0  0  0  0  0  0  0  0  0  0
   23.6568  -21.7225  -12.3460 C   0  0  0  0  0  0  0  0  0  0  0  0
   26.8391  -20.1088   -9.2239 C   0  0  0  0  0  0  0  0  0  0  0  0
   27.9567  -20.4415   -9.6859 O   0  0  0  0  0  0  0  0  0  0  0  0
   27.6450  -17.1095   -7.4077 C   0  0  0  0  0  0  0  0  0  0  0  0
   27.8310  -18.2359   -6.4051 C   0  0  1  0  0  0  0  0  0  0  0  0
   26.7245  -18.2920   -5.3838 C   0  0  0  0  0  0  0  0  0  0  0  0
   27.9981  -19.5678   -7.1133 C   0  0  2  0  0  0  0  0  0  0  0  0
   26.7501  -19.7635   -7.8553 N   0  0  0  0  0  0  0  0  0  0  0  0
   28.1869  -20.6444   -6.1168 C   0  0  0  0  0  0  0  0  0  0  0  0
   27.1777  -21.4081   -5.9039 O   0  0  0  0  0  0  0  0  0  0  0  0
   29.3828  -20.8595   -5.4220 N   0  0  0  0  0  0  0  0  0  0  0  0
   30.6325  -20.1570   -5.5446 C   0  0  0  0  0  0  0  0  0  0  0  0
   31.6877  -21.1156   -5.0021 C   0  0  0  0  0  0  0  0  0  0  0  0
   30.9477  -22.4094   -4.8674 C   0  0  0  0  0  0  0  0  0  0  0  0
   29.5622  -21.9192   -4.4135 C   0  0  1  0  0  0  0  0  0  0  0  0
   29.7271  -21.3489   -3.0667 C   0  0  0  0  0  0  0  0  0  0  0  0
   29.8558  -22.2339   -2.0077 O   0  0  0  0  0  0  0  0  0  0  0  0
   29.7600  -20.1229   -2.8053 O   0  0  0  0  0  0  0  0  0  0  0  0
  2 10  1  0
  2  1  1  6
  3  2  1  0
  4  5  2  0
  4  3  1  0
  6  5  1  0
  7  6  2  0
  8  7  1  0
  8  9  2  0
  9  4  1  0
 10 11  2  0
 13 14  1  1
 13 12  1  0
 15 13  1  0
 16 10  1  0
 15 16  1  1
 17 15  1  0
 18 17  2  0
 19 17  1  0
 19 23  1  0
 20 21  1  0
 20 19  1  0
 21 22  1  0
 22 23  1  0
 24 25  1  0
 23 24  1  1
 26 24  2  0
M  END
$$$$
