FVP.pdb
     RDKit          3D

 26 27  0  0  1  0  0  0  0  0999 V2000
   19.6410  -13.0001  -20.0692 N   0  0  0  0  0  0  0  0  0  0  0  0
   18.2551  -13.1070  -19.6669 C   0  0  1  0  0  0  0  0  0  0  0  0
   17.5442  -13.9171  -20.7313 C   0  0  0  0  0  0  0  0  0  0  0  0
   17.3809  -13.0329  -21.9130 C   0  0  0  0  0  0  0  0  0  0  0  0
   18.2143  -13.1619  -22.9995 C   0  0  0  0  0  0  0  0  0  0  0  0
   18.0825  -12.3459  -24.1193 C   0  0  0  0  0  0  0  0  0  0  0  0
   17.0849  -11.4023  -24.1000 C   0  0  0  0  0  0  0  0  0  0  0  0
   16.2471  -11.2685  -23.0143 C   0  0  0  0  0  0  0  0  0  0  0  0
   16.3831  -12.0841  -21.9017 C   0  0  0  0  0  0  0  0  0  0  0  0
   18.2103  -13.8192  -18.3432 C   0  0  0  0  0  0  0  0  0  0  0  0
   19.0108  -14.7507  -18.0888 O   0  0  0  0  0  0  0  0  0  0  0  0
   17.1338  -11.7558  -15.5915 C   0  0  0  0  0  0  0  0  0  0  0  0
   17.3398  -13.1447  -15.0111 C   0  0  1  0  0  0  0  0  0  0  0  0
   16.3908  -13.4476  -13.8805 C   0  0  0  0  0  0  0  0  0  0  0  0
   17.2612  -14.2017  -16.0974 C   0  0  2  0  0  0  0  0  0  0  0  0
   17.2647  -13.4537  -17.3571 N   0  0  0  0  0  0  0  0  0  0  0  0
   16.0089  -14.9754  -15.9536 C   0  0  0  0  0  0  0  0  0  0  0  0
   14.9349  -14.4033  -16.3613 O   0  0  0  0  0  0  0  0  0  0  0  0
   15.9496  -16.2647  -15.4121 N   0  0  0  0  0  0  0  0  0  0  0  0
   17.0158  -17.0579  -14.8604 C   0  0  0  0  0  0  0  0  0  0  0  0
   16.5274  -18.5007  -14.9420 C   0  0  0  0  0  0  0  0  0  0  0  0
   15.3063  -18.4078  -15.8021 C   0  0  0  0  0  0  0  0  0  0  0  0
   14.7139  -17.0651  -15.3418 C   0  0  1  0  0  0  0  0  0  0  0  0
   14.2745  -17.2433  -13.9484 C   0  0  0  0  0  0  0  0  0  0  0  0
   13.1328  -17.9977  -13.7284 O   0  0  0  0  0  0  0  0  0  0  0  0
   14.8553  -16.7639  -12.9456 O   0  0  0  0  0  0  0  0  0  0  0  0
  2 10  1  0
  2  1  1  6
  3  2  1  0
  4  5  2  0
  4  3  1  0
  6  5  1  0
  7  6  2  0
  8  7  1  0
  8  9  2  0
  9  4  1  0
 10 11  2  0
 13 14  1  1
 13 12  1  0
 15 13  1  0
 16 10  1  0
 15 16  1  6
 17 15  1  0
 18 17  2  0
 19 17  1  0
 19 23  1  0
 20 21  1  0
 20 19  1  0
 21 22  1  0
 22 23  1  0
 24 25  1  0
 23 24  1  1
 26 24  2  0
M  END
$$$$
