FVP.pdb
     RDKit          3D

 26 27  0  0  1  0  0  0  0  0999 V2000
   22.1253  -19.0161  -17.6530 N   0  0  0  0  0  0  0  0  0  0  0  0
   22.7048  -18.2414  -16.5768 C   0  0  1  0  0  0  0  0  0  0  0  0
   21.5610  -17.7678  -15.7038 C   0  0  0  0  0  0  0  0  0  0  0  0
   20.9109  -16.6383  -16.4154 C   0  0  0  0  0  0  0  0  0  0  0  0
   21.6195  -15.4943  -16.6998 C   0  0  0  0  0  0  0  0  0  0  0  0
   21.0339  -14.4215  -17.3655 C   0  0  0  0  0  0  0  0  0  0  0  0
   19.7158  -14.5471  -17.7301 C   0  0  0  0  0  0  0  0  0  0  0  0
   19.0009  -15.6907  -17.4479 C   0  0  0  0  0  0  0  0  0  0  0  0
   19.5896  -16.7561  -16.7845 C   0  0  0  0  0  0  0  0  0  0  0  0
   23.6241  -19.1428  -15.7997 C   0  0  0  0  0  0  0  0  0  0  0  0
   23.2250  -20.2533  -15.3745 O   0  0  0  0  0  0  0  0  0  0  0  0
   27.4910  -17.8335  -14.8866 C   0  0  0  0  0  0  0  0  0  0  0  0
   27.2120  -19.3159  -15.0688 C   0  0  1  0  0  0  0  0  0  0  0  0
   28.1847  -20.1862  -14.3158 C   0  0  0  0  0  0  0  0  0  0  0  0
   25.7765  -19.6449  -14.7016 C   0  0  2  0  0  0  0  0  0  0  0  0
   24.9584  -18.7576  -15.5320 N   0  0  0  0  0  0  0  0  0  0  0  0
   25.5514  -19.3700  -13.2658 C   0  0  0  0  0  0  0  0  0  0  0  0
   25.2331  -18.1653  -12.9587 O   0  0  0  0  0  0  0  0  0  0  0  0
   25.6643  -20.3388  -12.2619 N   0  0  0  0  0  0  0  0  0  0  0  0
   26.0408  -21.7220  -12.3857 C   0  0  0  0  0  0  0  0  0  0  0  0
   25.4773  -22.4049  -11.1436 C   0  0  0  0  0  0  0  0  0  0  0  0
   24.5799  -21.3647  -10.5500 C   0  0  0  0  0  0  0  0  0  0  0  0
   25.3736  -20.0796  -10.8403 C   0  0  1  0  0  0  0  0  0  0  0  0
   26.5996  -20.1378  -10.0280 C   0  0  0  0  0  0  0  0  0  0  0  0
   26.5029  -19.7696   -8.6952 O   0  0  0  0  0  0  0  0  0  0  0  0
   27.7248  -20.4954  -10.4508 O   0  0  0  0  0  0  0  0  0  0  0  0
  2 10  1  0
  2  1  1  6
  3  2  1  0
  4  5  2  0
  4  3  1  0
  6  5  1  0
  7  6  2  0
  8  7  1  0
  8  9  2  0
  9  4  1  0
 10 11  2  0
 13 14  1  1
 13 12  1  0
 15 13  1  0
 16 10  1  0
 15 16  1  6
 17 15  1  0
 18 17  2  0
 19 17  1  0
 19 23  1  0
 20 21  1  0
 20 19  1  0
 21 22  1  0
 22 23  1  0
 24 25  1  0
 23 24  1  1
 26 24  2  0
M  END
$$$$
