FVP.pdb
     RDKit          3D

 26 27  0  0  1  0  0  0  0  0999 V2000
   26.8187  -18.3157   -7.9851 N   0  0  0  0  0  0  0  0  0  0  0  0
   27.0926  -19.6749   -8.3993 C   0  0  1  0  0  0  0  0  0  0  0  0
   26.7639  -20.5727   -7.2243 C   0  0  0  0  0  0  0  0  0  0  0  0
   27.7267  -20.2425   -6.1431 C   0  0  0  0  0  0  0  0  0  0  0  0
   29.0726  -20.1542   -6.4124 C   0  0  0  0  0  0  0  0  0  0  0  0
   29.9956  -19.8463   -5.4173 C   0  0  0  0  0  0  0  0  0  0  0  0
   29.5114  -19.6326   -4.1501 C   0  0  0  0  0  0  0  0  0  0  0  0
   28.1642  -19.7196   -3.8744 C   0  0  0  0  0  0  0  0  0  0  0  0
   27.2494  -20.0267   -4.8697 C   0  0  0  0  0  0  0  0  0  0  0  0
   26.2034  -19.9906   -9.5702 C   0  0  0  0  0  0  0  0  0  0  0  0
   25.0056  -19.6186   -9.5846 O   0  0  0  0  0  0  0  0  0  0  0  0
   28.3474  -19.2228  -12.6247 C   0  0  0  0  0  0  0  0  0  0  0  0
   27.4247  -20.3955  -12.9110 C   0  0  1  0  0  0  0  0  0  0  0  0
   28.1298  -21.7241  -12.8197 C   0  0  0  0  0  0  0  0  0  0  0  0
   26.2032  -20.3546  -12.0112 C   0  0  2  0  0  0  0  0  0  0  0  0
   26.6989  -20.7137  -10.6802 N   0  0  0  0  0  0  0  0  0  0  0  0
   25.2037  -21.3394  -12.4789 C   0  0  0  0  0  0  0  0  0  0  0  0
   25.3852  -22.5553  -12.1106 O   0  0  0  0  0  0  0  0  0  0  0  0
   24.1023  -21.0099  -13.2773 N   0  0  0  0  0  0  0  0  0  0  0  0
   23.7843  -19.7495  -13.8943 C   0  0  0  0  0  0  0  0  0  0  0  0
   22.2813  -19.7951  -14.1507 C   0  0  0  0  0  0  0  0  0  0  0  0
   21.8338  -21.0033  -13.3894 C   0  0  0  0  0  0  0  0  0  0  0  0
   23.0215  -21.9557  -13.6087 C   0  0  1  0  0  0  0  0  0  0  0  0
   23.0378  -22.3015  -15.0393 C   0  0  0  0  0  0  0  0  0  0  0  0
   24.0063  -21.7048  -15.8313 O   0  0  0  0  0  0  0  0  0  0  0  0
   22.2418  -23.0951  -15.5952 O   0  0  0  0  0  0  0  0  0  0  0  0
  2 10  1  0
  2  1  1  1
  3  2  1  0
  4  5  2  0
  4  3  1  0
  6  5  1  0
  7  6  2  0
  8  7  1  0
  8  9  2  0
  9  4  1  0
 10 11  2  0
 13 14  1  1
 13 12  1  0
 15 13  1  0
 16 10  1  0
 15 16  1  1
 17 15  1  0
 18 17  2  0
 19 17  1  0
 19 23  1  0
 20 21  1  0
 20 19  1  0
 21 22  1  0
 22 23  1  0
 24 25  1  0
 23 24  1  6
 26 24  2  0
M  END
$$$$
