FVP.pdb
     RDKit          3D

 26 27  0  0  1  0  0  0  0  0999 V2000
   21.6697  -12.7240  -19.2161 N   0  0  0  0  0  0  0  0  0  0  0  0
   22.5080  -11.6284  -18.7791 C   0  0  1  0  0  0  0  0  0  0  0  0
   22.8842  -10.8361  -20.0142 C   0  0  0  0  0  0  0  0  0  0  0  0
   23.8165  -11.6800  -20.8039 C   0  0  0  0  0  0  0  0  0  0  0  0
   23.3615  -12.3922  -21.8891 C   0  0  0  0  0  0  0  0  0  0  0  0
   24.2144  -13.1904  -22.6458 C   0  0  0  0  0  0  0  0  0  0  0  0
   25.5336  -13.2415  -22.2677 C   0  0  0  0  0  0  0  0  0  0  0  0
   25.9951  -12.5303  -21.1815 C   0  0  0  0  0  0  0  0  0  0  0  0
   25.1409  -11.7369  -20.4315 C   0  0  0  0  0  0  0  0  0  0  0  0
   21.7055  -10.7801  -17.8316 C   0  0  0  0  0  0  0  0  0  0  0  0
   20.4519  -10.7804  -17.8752 O   0  0  0  0  0  0  0  0  0  0  0  0
   22.6328  -10.5540  -14.1875 C   0  0  0  0  0  0  0  0  0  0  0  0
   21.3000  -10.0916  -14.7517 C   0  0  1  0  0  0  0  0  0  0  0  0
   20.4282   -9.4325  -13.7143 C   0  0  0  0  0  0  0  0  0  0  0  0
   21.5060   -9.1897  -15.9550 C   0  0  2  0  0  0  0  0  0  0  0  0
   22.3471   -9.9639  -16.8712 N   0  0  0  0  0  0  0  0  0  0  0  0
   22.1937   -7.9484  -15.5384 C   0  0  0  0  0  0  0  0  0  0  0  0
   23.4449   -8.0512  -15.2721 O   0  0  0  0  0  0  0  0  0  0  0  0
   21.5576   -6.7063  -15.4296 N   0  0  0  0  0  0  0  0  0  0  0  0
   20.1727   -6.3833  -15.6490 C   0  0  0  0  0  0  0  0  0  0  0  0
   20.1494   -4.8849  -15.9335 C   0  0  0  0  0  0  0  0  0  0  0  0
   21.5945   -4.5418  -16.1171 C   0  0  0  0  0  0  0  0  0  0  0  0
   22.2574   -5.4585  -15.0749 C   0  0  1  0  0  0  0  0  0  0  0  0
   21.8413   -4.9743  -13.7487 C   0  0  0  0  0  0  0  0  0  0  0  0
   22.5109   -3.8780  -13.2282 O   0  0  0  0  0  0  0  0  0  0  0  0
   20.9269   -5.4789  -13.0545 O   0  0  0  0  0  0  0  0  0  0  0  0
  2 10  1  0
  2  1  1  6
  3  2  1  0
  4  5  2  0
  4  3  1  0
  6  5  1  0
  7  6  2  0
  8  7  1  0
  8  9  2  0
  9  4  1  0
 10 11  2  0
 13 14  1  1
 13 12  1  0
 15 13  1  0
 16 10  1  0
 15 16  1  6
 17 15  1  0
 18 17  2  0
 19 17  1  0
 19 23  1  0
 20 21  1  0
 20 19  1  0
 21 22  1  0
 22 23  1  0
 24 25  1  0
 23 24  1  1
 26 24  2  0
M  END
$$$$
