FVP.pdb
     RDKit          3D

 26 27  0  0  1  0  0  0  0  0999 V2000
   21.5469  -19.8604  -17.3672 N   0  0  0  0  0  0  0  0  0  0  0  0
   22.0719  -18.9726  -16.3522 C   0  0  1  0  0  0  0  0  0  0  0  0
   20.9422  -18.6862  -15.3844 C   0  0  0  0  0  0  0  0  0  0  0  0
   20.0211  -17.7380  -16.0608 C   0  0  0  0  0  0  0  0  0  0  0  0
   20.4065  -16.4381  -16.2919 C   0  0  0  0  0  0  0  0  0  0  0  0
   19.5624  -15.5297  -16.9238 C   0  0  0  0  0  0  0  0  0  0  0  0
   18.3242  -15.9806  -17.3103 C   0  0  0  0  0  0  0  0  0  0  0  0
   17.9327  -17.2817  -17.0815 C   0  0  0  0  0  0  0  0  0  0  0  0
   18.7777  -18.1821  -16.4516 C   0  0  0  0  0  0  0  0  0  0  0  0
   23.1987  -19.6823  -15.6536 C   0  0  0  0  0  0  0  0  0  0  0  0
   23.1126  -20.9017  -15.3728 O   0  0  0  0  0  0  0  0  0  0  0  0
   27.0322  -19.1625  -16.2910 C   0  0  0  0  0  0  0  0  0  0  0  0
   26.6971  -19.0226  -14.8156 C   0  0  1  0  0  0  0  0  0  0  0  0
   26.7056  -17.5888  -14.3523 C   0  0  0  0  0  0  0  0  0  0  0  0
   25.3774  -19.6999  -14.4944 C   0  0  2  0  0  0  0  0  0  0  0  0
   24.3796  -18.9897  -15.2984 N   0  0  0  0  0  0  0  0  0  0  0  0
   25.0809  -19.5598  -13.0521 C   0  0  0  0  0  0  0  0  0  0  0  0
   24.2263  -18.6582  -12.7303 O   0  0  0  0  0  0  0  0  0  0  0  0
   25.6721  -20.3469  -12.0570 N   0  0  0  0  0  0  0  0  0  0  0  0
   26.6619  -21.3815  -12.1990 C   0  0  0  0  0  0  0  0  0  0  0  0
   26.5294  -22.2396  -10.9448 C   0  0  0  0  0  0  0  0  0  0  0  0
   25.2601  -21.7513  -10.3202 C   0  0  0  0  0  0  0  0  0  0  0  0
   25.3325  -20.2457  -10.6263 C   0  0  1  0  0  0  0  0  0  0  0  0
   26.4584  -19.7019   -9.8499 C   0  0  0  0  0  0  0  0  0  0  0  0
   26.2287  -19.3946   -8.5180 O   0  0  0  0  0  0  0  0  0  0  0  0
   27.6096  -19.4959  -10.3026 O   0  0  0  0  0  0  0  0  0  0  0  0
  2 10  1  0
  2  1  1  6
  3  2  1  0
  4  5  2  0
  4  3  1  0
  6  5  1  0
  7  6  2  0
  8  7  1  0
  8  9  2  0
  9  4  1  0
 10 11  2  0
 13 14  1  6
 13 12  1  0
 15 13  1  0
 16 10  1  0
 15 16  1  6
 17 15  1  0
 18 17  2  0
 19 17  1  0
 19 23  1  0
 20 21  1  0
 20 19  1  0
 21 22  1  0
 22 23  1  0
 24 25  1  0
 23 24  1  1
 26 24  2  0
M  END
$$$$
