FVP.pdb
     RDKit          3D

 26 27  0  0  1  0  0  0  0  0999 V2000
   23.0790  -18.9797  -18.8531 N   0  0  0  0  0  0  0  0  0  0  0  0
   22.8803  -18.6879  -17.4496 C   0  0  1  0  0  0  0  0  0  0  0  0
   21.5690  -19.3285  -17.0436 C   0  0  0  0  0  0  0  0  0  0  0  0
   20.4905  -18.3708  -17.3964 C   0  0  0  0  0  0  0  0  0  0  0  0
   20.3081  -17.2248  -16.6581 C   0  0  0  0  0  0  0  0  0  0  0  0
   19.3050  -16.3111  -16.9677 C   0  0  0  0  0  0  0  0  0  0  0  0
   18.4995  -16.5967  -18.0427 C   0  0  0  0  0  0  0  0  0  0  0  0
   18.6776  -17.7431  -18.7860 C   0  0  0  0  0  0  0  0  0  0  0  0
   19.6785  -18.6497  -18.4729 C   0  0  0  0  0  0  0  0  0  0  0  0
   24.0238  -19.2941  -16.6838 C   0  0  0  0  0  0  0  0  0  0  0  0
   24.3798  -20.4784  -16.8934 O   0  0  0  0  0  0  0  0  0  0  0  0
   27.5337  -17.9990  -16.0155 C   0  0  0  0  0  0  0  0  0  0  0  0
   26.8400  -18.2643  -14.6900 C   0  0  1  0  0  0  0  0  0  0  0  0
   26.3836  -16.9992  -14.0106 C   0  0  0  0  0  0  0  0  0  0  0  0
   25.6928  -19.2422  -14.8665 C   0  0  2  0  0  0  0  0  0  0  0  0
   24.7221  -18.5415  -15.7110 N   0  0  0  0  0  0  0  0  0  0  0  0
   25.1020  -19.5639  -13.5493 C   0  0  0  0  0  0  0  0  0  0  0  0
   23.9510  -19.0537  -13.3004 O   0  0  0  0  0  0  0  0  0  0  0  0
   25.7247  -20.3779  -12.5960 N   0  0  0  0  0  0  0  0  0  0  0  0
   27.0313  -20.9785  -12.6425 C   0  0  0  0  0  0  0  0  0  0  0  0
   26.9703  -22.1502  -11.6677 C   0  0  0  0  0  0  0  0  0  0  0  0
   25.5119  -22.2670  -11.3531 C   0  0  0  0  0  0  0  0  0  0  0  0
   25.0881  -20.7886  -11.3316 C   0  0  1  0  0  0  0  0  0  0  0  0
   25.7530  -20.1667  -10.1752 C   0  0  0  0  0  0  0  0  0  0  0  0
   25.1846  -20.3648   -8.9267 O   0  0  0  0  0  0  0  0  0  0  0  0
   26.7949  -19.4712  -10.2345 O   0  0  0  0  0  0  0  0  0  0  0  0
  2 10  1  0
  2  1  1  6
  3  2  1  0
  4  5  2  0
  4  3  1  0
  6  5  1  0
  7  6  2  0
  8  7  1  0
  8  9  2  0
  9  4  1  0
 10 11  2  0
 13 14  1  6
 13 12  1  0
 15 13  1  0
 16 10  1  0
 15 16  1  6
 17 15  1  0
 18 17  2  0
 19 17  1  0
 19 23  1  0
 20 21  1  0
 20 19  1  0
 21 22  1  0
 22 23  1  0
 24 25  1  0
 23 24  1  1
 26 24  2  0
M  END
$$$$
