CNA.pdb
     RDKit          3D

 20 19  0  0  1  0  0  0  0  0999 V2000
   15.0387  -13.8510  -12.2296 N   0  0  0  0  0  0  0  0  0  0  0  0
   14.4586  -12.5242  -12.3007 C   0  0  1  0  0  0  0  0  0  0  0  0
   13.0902  -12.4974  -11.7011 C   0  0  0  0  0  0  0  0  0  0  0  0
   11.9993  -13.6842  -12.5050 S   0  0  0  0  0  0  0  0  0  0  0  0
   15.3404  -11.5156  -11.6884 C   0  0  0  0  0  0  0  0  0  0  0  0
   16.0118  -11.8768  -10.6763 O   0  0  0  0  0  0  0  0  0  0  0  0
   18.0620   -9.5935  -14.7556 N   0  0  0  0  0  0  0  0  0  0  0  0
   18.1511   -9.2872  -13.3782 C   0  0  0  0  0  0  0  0  0  0  0  0
   19.1196   -9.7259  -12.7188 O   0  0  0  0  0  0  0  0  0  0  0  0
   17.1321   -8.4720  -12.7296 C   0  0  0  0  0  0  0  0  0  0  0  0
   16.4020   -9.2230  -11.6197 C   0  0  2  0  0  0  0  0  0  0  0  0
   15.4717  -10.1852  -12.1679 N   0  0  0  0  0  0  0  0  0  0  0  0
   15.6322   -8.2058  -10.8687 C   0  0  0  0  0  0  0  0  0  0  0  0
   14.6773   -7.6260  -11.4329 O   0  0  0  0  0  0  0  0  0  0  0  0
   15.4072   -6.8745   -7.3589 C   0  0  0  0  0  0  0  0  0  0  0  0
   15.2164   -6.7860   -8.8528 C   0  0  2  0  0  0  0  0  0  0  0  0
   15.9328   -7.8554   -9.5223 N   0  0  0  0  0  0  0  0  0  0  0  0
   15.6268   -5.4747   -9.3960 C   0  0  0  0  0  0  0  0  0  0  0  0
   16.6748   -5.3357  -10.0726 O   0  0  0  0  0  0  0  0  0  0  0  0
   14.8419   -4.3636   -9.1580 O   0  0  0  0  0  0  0  0  0  0  0  0
  2  1  1  1
  2  5  1  0
  3  2  1  0
  4  3  1  0
  5 12  1  0
  5  6  2  0
  7  8  1  0
  8 10  1  0
  8  9  2  0
 11 10  1  6
 11 13  1  0
 12 11  1  0
 13 14  2  0
 16 15  1  1
 16 18  1  0
 17 16  1  0
 17 13  1  0
 18 20  1  0
 19 18  2  0
M  END
$$$$
