CNA.pdb
     RDKit          3D

 20 19  0  0  1  0  0  0  0  0999 V2000
   26.4206  -22.1348  -10.7813 N   0  0  0  0  0  0  0  0  0  0  0  0
   25.5005  -21.0263  -10.9444 C   0  0  1  0  0  0  0  0  0  0  0  0
   26.0015  -19.7993  -10.2542 C   0  0  0  0  0  0  0  0  0  0  0  0
   25.6902  -19.8715   -8.4814 S   0  0  0  0  0  0  0  0  0  0  0  0
   25.2094  -20.7704  -12.3654 C   0  0  0  0  0  0  0  0  0  0  0  0
   26.0756  -21.1519  -13.2079 O   0  0  0  0  0  0  0  0  0  0  0  0
   20.5920  -21.3369  -12.9107 N   0  0  0  0  0  0  0  0  0  0  0  0
   21.4843  -21.2696  -14.0053 C   0  0  0  0  0  0  0  0  0  0  0  0
   21.7189  -22.3073  -14.6637 O   0  0  0  0  0  0  0  0  0  0  0  0
   22.1253  -20.0118  -14.3667 C   0  0  0  0  0  0  0  0  0  0  0  0
   23.6433  -20.0660  -14.2199 C   0  0  2  0  0  0  0  0  0  0  0  0
   24.0290  -20.1299  -12.8273 N   0  0  0  0  0  0  0  0  0  0  0  0
   24.1597  -18.8009  -14.7891 C   0  0  0  0  0  0  0  0  0  0  0  0
   23.5945  -17.7244  -14.4924 O   0  0  0  0  0  0  0  0  0  0  0  0
   27.3101  -17.6286  -16.3935 C   0  0  0  0  0  0  0  0  0  0  0  0
   25.8378  -17.4863  -16.0961 C   0  0  2  0  0  0  0  0  0  0  0  0
   25.2799  -18.7547  -15.6661 N   0  0  0  0  0  0  0  0  0  0  0  0
   25.0796  -16.9563  -17.2481 C   0  0  0  0  0  0  0  0  0  0  0  0
   24.4632  -17.7103  -18.0398 O   0  0  0  0  0  0  0  0  0  0  0  0
   25.0416  -15.5936  -17.4691 O   0  0  0  0  0  0  0  0  0  0  0  0
  2  1  1  6
  2  5  1  0
  3  2  1  0
  4  3  1  0
  5 12  1  0
  5  6  2  0
  7  8  1  0
  8 10  1  0
  8  9  2  0
 11 10  1  1
 11 13  1  0
 12 11  1  0
 13 14  2  0
 16 15  1  6
 16 18  1  0
 17 16  1  0
 17 13  1  0
 18 20  1  0
 19 18  2  0
M  END
$$$$
