CNA.pdb
     RDKit          3D

 20 19  0  0  1  0  0  0  0  0999 V2000
   22.1779  -15.3335  -17.0915 N   0  0  0  0  0  0  0  0  0  0  0  0
   22.0564  -14.1448  -16.2702 C   0  0  1  0  0  0  0  0  0  0  0  0
   23.3383  -13.3779  -16.2327 C   0  0  0  0  0  0  0  0  0  0  0  0
   24.5420  -14.1662  -15.1490 S   0  0  0  0  0  0  0  0  0  0  0  0
   20.9303  -13.3007  -16.7049 C   0  0  0  0  0  0  0  0  0  0  0  0
   20.8462  -13.0466  -17.9434 O   0  0  0  0  0  0  0  0  0  0  0  0
   16.7859  -14.3768  -14.5260 N   0  0  0  0  0  0  0  0  0  0  0  0
   17.0442  -13.5142  -15.6160 C   0  0  0  0  0  0  0  0  0  0  0  0
   16.7799  -13.9030  -16.7755 O   0  0  0  0  0  0  0  0  0  0  0  0
   17.6105  -12.1892  -15.3986 C   0  0  0  0  0  0  0  0  0  0  0  0
   18.8515  -11.9370  -16.2500 C   0  0  2  0  0  0  0  0  0  0  0  0
   19.9542  -12.7689  -15.8209 N   0  0  0  0  0  0  0  0  0  0  0  0
   19.2231  -10.5210  -16.0309 C   0  0  0  0  0  0  0  0  0  0  0  0
   19.7405  -10.1890  -14.9408 O   0  0  0  0  0  0  0  0  0  0  0  0
   19.2646   -7.3197  -18.0381 C   0  0  0  0  0  0  0  0  0  0  0  0
   19.5040   -8.1613  -16.8091 C   0  0  2  0  0  0  0  0  0  0  0  0
   19.0161   -9.5123  -17.0137 N   0  0  0  0  0  0  0  0  0  0  0  0
   18.8957   -7.5739  -15.5975 C   0  0  0  0  0  0  0  0  0  0  0  0
   17.7245   -7.8519  -15.2421 O   0  0  0  0  0  0  0  0  0  0  0  0
   19.6283   -6.6926  -14.8270 O   0  0  0  0  0  0  0  0  0  0  0  0
  2  1  1  6
  2  5  1  0
  3  2  1  0
  4  3  1  0
  5 12  1  0
  5  6  2  0
  7  8  1  0
  8 10  1  0
  8  9  2  0
 11 10  1  1
 11 13  1  0
 12 11  1  0
 13 14  2  0
 16 15  1  6
 16 18  1  0
 17 16  1  0
 17 13  1  0
 18 20  1  0
 19 18  2  0
M  END
$$$$
