CNA.pdb
     RDKit          3D

 20 19  0  0  1  0  0  0  0  0999 V2000
   17.3826  -11.5089  -15.2292 N   0  0  0  0  0  0  0  0  0  0  0  0
   17.1666  -10.1196  -15.5830 C   0  0  1  0  0  0  0  0  0  0  0  0
   16.1417   -9.4873  -14.6983 C   0  0  0  0  0  0  0  0  0  0  0  0
   14.5524  -10.3241  -14.8349 S   0  0  0  0  0  0  0  0  0  0  0  0
   18.4284   -9.3596  -15.5828 C   0  0  0  0  0  0  0  0  0  0  0  0
   19.3668   -9.8028  -14.8556 O   0  0  0  0  0  0  0  0  0  0  0  0
   19.6206   -7.6546  -20.1343 N   0  0  0  0  0  0  0  0  0  0  0  0
   20.2680   -7.8199  -18.8882 C   0  0  0  0  0  0  0  0  0  0  0  0
   21.0093   -8.8127  -18.7147 O   0  0  0  0  0  0  0  0  0  0  0  0
   20.0786   -6.8505  -17.8168 C   0  0  0  0  0  0  0  0  0  0  0  0
   19.9190   -7.5125  -16.4512 C   0  0  2  0  0  0  0  0  0  0  0  0
   18.6397   -8.1785  -16.3426 N   0  0  0  0  0  0  0  0  0  0  0  0
   19.9616   -6.4195  -15.4537 C   0  0  0  0  0  0  0  0  0  0  0  0
   18.9604   -5.6813  -15.3164 O   0  0  0  0  0  0  0  0  0  0  0  0
   22.1247   -5.2755  -12.6198 C   0  0  0  0  0  0  0  0  0  0  0  0
   21.1343   -5.0359  -13.7324 C   0  0  2  0  0  0  0  0  0  0  0  0
   21.1006   -6.1693  -14.6376 N   0  0  0  0  0  0  0  0  0  0  0  0
   21.4156   -3.7918  -14.4781 C   0  0  0  0  0  0  0  0  0  0  0  0
   21.9841   -3.8034  -15.5970 O   0  0  0  0  0  0  0  0  0  0  0  0
   21.0465   -2.5759  -13.9372 O   0  0  0  0  0  0  0  0  0  0  0  0
  2  1  1  1
  2  5  1  0
  3  2  1  0
  4  3  1  0
  5 12  1  0
  5  6  2  0
  7  8  1  0
  8 10  1  0
  8  9  2  0
 11 10  1  6
 11 13  1  0
 12 11  1  0
 13 14  2  0
 16 15  1  1
 16 18  1  0
 17 16  1  0
 17 13  1  0
 18 20  1  0
 19 18  2  0
M  END
$$$$
