CNA.pdb
     RDKit          3D

 20 19  0  0  1  0  0  0  0  0999 V2000
   25.3567  -12.2447  -17.9253 N   0  0  0  0  0  0  0  0  0  0  0  0
   25.2723  -11.4340  -16.7263 C   0  0  1  0  0  0  0  0  0  0  0  0
   26.6040  -10.8615  -16.3634 C   0  0  0  0  0  0  0  0  0  0  0  0
   27.6997  -12.1248  -15.6938 S   0  0  0  0  0  0  0  0  0  0  0  0
   24.2462  -10.3850  -16.8546 C   0  0  0  0  0  0  0  0  0  0  0  0
   24.2552   -9.6986  -17.9197 O   0  0  0  0  0  0  0  0  0  0  0  0
   20.7348  -11.1413  -17.3019 N   0  0  0  0  0  0  0  0  0  0  0  0
   20.2490  -10.6937  -16.0519 C   0  0  0  0  0  0  0  0  0  0  0  0
   19.2267  -11.2297  -15.5691 O   0  0  0  0  0  0  0  0  0  0  0  0
   20.9251   -9.6231  -15.3308 C   0  0  0  0  0  0  0  0  0  0  0  0
   22.1957   -9.1556  -16.0350 C   0  0  2  0  0  0  0  0  0  0  0  0
   23.2674  -10.1115  -15.8626 N   0  0  0  0  0  0  0  0  0  0  0  0
   22.5907   -7.8890  -15.3786 C   0  0  0  0  0  0  0  0  0  0  0  0
   23.1227   -7.9301  -14.2465 O   0  0  0  0  0  0  0  0  0  0  0  0
   22.7601   -4.2270  -16.2561 C   0  0  0  0  0  0  0  0  0  0  0  0
   22.7896   -5.3975  -15.3047 C   0  0  2  0  0  0  0  0  0  0  0  0
   22.3905   -6.6162  -15.9834 N   0  0  0  0  0  0  0  0  0  0  0  0
   21.9465   -5.1747  -14.1120 C   0  0  0  0  0  0  0  0  0  0  0  0
   20.8055   -5.6857  -14.0016 O   0  0  0  0  0  0  0  0  0  0  0  0
   22.4182   -4.3830  -13.0833 O   0  0  0  0  0  0  0  0  0  0  0  0
  2  1  1  6
  2  5  1  0
  3  2  1  0
  4  3  1  0
  5 12  1  0
  5  6  2  0
  7  8  1  0
  8 10  1  0
  8  9  2  0
 11 10  1  1
 11 13  1  0
 12 11  1  0
 13 14  2  0
 16 15  1  6
 16 18  1  0
 17 16  1  0
 17 13  1  0
 18 20  1  0
 19 18  2  0
M  END
$$$$
