CNA.pdb
     RDKit          3D

 20 19  0  0  1  0  0  0  0  0999 V2000
   25.3423  -22.6578  -11.3069 N   0  0  0  0  0  0  0  0  0  0  0  0
   25.3807  -21.2267  -11.5359 C   0  0  1  0  0  0  0  0  0  0  0  0
   26.2404  -20.5384  -10.5260 C   0  0  0  0  0  0  0  0  0  0  0  0
   25.3761  -20.3363   -8.9585 S   0  0  0  0  0  0  0  0  0  0  0  0
   25.7995  -20.9109  -12.9123 C   0  0  0  0  0  0  0  0  0  0  0  0
   26.8823  -21.4295  -13.3175 O   0  0  0  0  0  0  0  0  0  0  0  0
   25.4061  -20.9887  -18.1412 N   0  0  0  0  0  0  0  0  0  0  0  0
   24.4786  -20.1429  -17.4906 C   0  0  0  0  0  0  0  0  0  0  0  0
   23.8999  -19.2520  -18.1516 O   0  0  0  0  0  0  0  0  0  0  0  0
   24.1961  -20.3015  -16.0699 C   0  0  0  0  0  0  0  0  0  0  0  0
   25.3777  -19.9018  -15.1908 C   0  0  2  0  0  0  0  0  0  0  0  0
   25.0634  -20.0704  -13.7891 N   0  0  0  0  0  0  0  0  0  0  0  0
   25.6151  -18.4630  -15.4455 C   0  0  0  0  0  0  0  0  0  0  0  0
   24.7741  -17.6270  -15.0453 O   0  0  0  0  0  0  0  0  0  0  0  0
   28.4313  -16.2348  -16.4266 C   0  0  0  0  0  0  0  0  0  0  0  0
   26.9607  -16.5658  -16.3633 C   0  0  2  0  0  0  0  0  0  0  0  0
   26.7672  -17.9848  -16.1310 N   0  0  0  0  0  0  0  0  0  0  0  0
   26.2354  -16.1411  -17.5785 C   0  0  0  0  0  0  0  0  0  0  0  0
   25.9525  -16.9475  -18.4978 O   0  0  0  0  0  0  0  0  0  0  0  0
   25.8533  -14.8213  -17.7168 O   0  0  0  0  0  0  0  0  0  0  0  0
  2  1  1  1
  2  5  1  0
  3  2  1  0
  4  3  1  0
  5 12  1  0
  5  6  2  0
  7  8  1  0
  8 10  1  0
  8  9  2  0
 11 10  1  6
 11 13  1  0
 12 11  1  0
 13 14  2  0
 16 15  1  6
 16 18  1  0
 17 16  1  0
 17 13  1  0
 18 20  1  0
 19 18  2  0
M  END
$$$$
