CNA.pdb
     RDKit          3D

 20 19  0  0  1  0  0  0  0  0999 V2000
   15.6123  -13.6101  -14.4212 N   0  0  0  0  0  0  0  0  0  0  0  0
   15.0624  -12.2761  -14.2798 C   0  0  1  0  0  0  0  0  0  0  0  0
   13.6368  -12.3212  -13.8345 C   0  0  0  0  0  0  0  0  0  0  0  0
   12.5507  -12.8582  -15.1676 S   0  0  0  0  0  0  0  0  0  0  0  0
   15.8856  -11.4446  -13.3850 C   0  0  0  0  0  0  0  0  0  0  0  0
   16.3888  -12.0145  -12.3713 O   0  0  0  0  0  0  0  0  0  0  0  0
   19.8972   -7.9905  -12.1623 N   0  0  0  0  0  0  0  0  0  0  0  0
   18.7361   -7.4869  -12.7925 C   0  0  0  0  0  0  0  0  0  0  0  0
   18.4372   -6.2811  -12.6432 O   0  0  0  0  0  0  0  0  0  0  0  0
   17.8949   -8.3551  -13.6061 C   0  0  0  0  0  0  0  0  0  0  0  0
   17.0086   -9.2675  -12.7630 C   0  0  2  0  0  0  0  0  0  0  0  0
   16.1372  -10.0634  -13.5992 N   0  0  0  0  0  0  0  0  0  0  0  0
   16.1697   -8.3760  -11.9308 C   0  0  0  0  0  0  0  0  0  0  0  0
   15.2742   -7.6955  -12.4797 O   0  0  0  0  0  0  0  0  0  0  0  0
   15.3552   -7.9033   -8.3253 C   0  0  0  0  0  0  0  0  0  0  0  0
   15.4778   -7.3911   -9.7390 C   0  0  2  0  0  0  0  0  0  0  0  0
   16.3381   -8.2578  -10.5223 N   0  0  0  0  0  0  0  0  0  0  0  0
   15.9671   -5.9980   -9.7925 C   0  0  0  0  0  0  0  0  0  0  0  0
   17.0890   -5.7072  -10.2744 O   0  0  0  0  0  0  0  0  0  0  0  0
   15.1752   -4.9790   -9.3007 O   0  0  0  0  0  0  0  0  0  0  0  0
  2  1  1  1
  2  5  1  0
  3  2  1  0
  4  3  1  0
  5 12  1  0
  5  6  2  0
  7  8  1  0
  8 10  1  0
  8  9  2  0
 11 10  1  6
 11 13  1  0
 12 11  1  0
 13 14  2  0
 16 15  1  1
 16 18  1  0
 17 16  1  0
 17 13  1  0
 18 20  1  0
 19 18  2  0
M  END
$$$$
