CNA.pdb
     RDKit          3D

 20 19  0  0  1  0  0  0  0  0999 V2000
   18.2991  -12.0081  -16.5125 N   0  0  0  0  0  0  0  0  0  0  0  0
   18.2301  -10.5607  -16.4635 C   0  0  1  0  0  0  0  0  0  0  0  0
   17.0169  -10.1001  -15.7226 C   0  0  0  0  0  0  0  0  0  0  0  0
   15.5098  -10.4796  -16.6333 S   0  0  0  0  0  0  0  0  0  0  0  0
   19.4624   -9.9798  -15.9034 C   0  0  0  0  0  0  0  0  0  0  0  0
   19.7737  -10.3194  -14.7230 O   0  0  0  0  0  0  0  0  0  0  0  0
   23.1119  -10.6252  -18.6472 N   0  0  0  0  0  0  0  0  0  0  0  0
   23.1056  -10.0570  -17.3526 C   0  0  0  0  0  0  0  0  0  0  0  0
   23.4883  -10.7486  -16.3827 O   0  0  0  0  0  0  0  0  0  0  0  0
   22.6608   -8.6851  -17.1441 C   0  0  0  0  0  0  0  0  0  0  0  0
   21.5590   -8.5812  -16.0933 C   0  0  2  0  0  0  0  0  0  0  0  0
   20.3012   -9.0761  -16.6082 N   0  0  0  0  0  0  0  0  0  0  0  0
   21.4058   -7.1393  -15.7952 C   0  0  0  0  0  0  0  0  0  0  0  0
   20.8031   -6.4092  -16.6138 O   0  0  0  0  0  0  0  0  0  0  0  0
   21.9783   -4.8363  -12.8755 C   0  0  0  0  0  0  0  0  0  0  0  0
   21.6965   -5.1363  -14.3270 C   0  0  2  0  0  0  0  0  0  0  0  0
   21.9180   -6.5422  -14.6091 N   0  0  0  0  0  0  0  0  0  0  0  0
   22.4982   -4.2969  -15.2411 C   0  0  0  0  0  0  0  0  0  0  0  0
   23.5699   -4.7070  -15.7497 O   0  0  0  0  0  0  0  0  0  0  0  0
   22.0648   -3.0229  -15.5515 O   0  0  0  0  0  0  0  0  0  0  0  0
  2  1  1  1
  2  5  1  0
  3  2  1  0
  4  3  1  0
  5 12  1  0
  5  6  2  0
  7  8  1  0
  8 10  1  0
  8  9  2  0
 11 10  1  6
 11 13  1  0
 12 11  1  0
 13 14  2  0
 16 15  1  1
 16 18  1  0
 17 16  1  0
 17 13  1  0
 18 20  1  0
 19 18  2  0
M  END
$$$$
