CNA.pdb
     RDKit          3D

 20 19  0  0  1  0  0  0  0  0999 V2000
   19.3958   -8.7542  -16.7004 N   0  0  0  0  0  0  0  0  0  0  0  0
   19.0614   -8.7621  -15.2897 C   0  0  1  0  0  0  0  0  0  0  0  0
   19.7647   -9.8678  -14.5715 C   0  0  0  0  0  0  0  0  0  0  0  0
   19.2504  -11.4805  -15.1876 S   0  0  0  0  0  0  0  0  0  0  0  0
   19.3241   -7.4544  -14.6649 C   0  0  0  0  0  0  0  0  0  0  0  0
   19.1076   -7.3575  -13.4201 O   0  0  0  0  0  0  0  0  0  0  0  0
   21.8362   -5.9797  -12.9853 N   0  0  0  0  0  0  0  0  0  0  0  0
   22.3104   -5.1093  -13.9935 C   0  0  0  0  0  0  0  0  0  0  0  0
   23.5351   -4.8617  -14.0569 O   0  0  0  0  0  0  0  0  0  0  0  0
   21.3902   -4.5058  -14.9488 C   0  0  0  0  0  0  0  0  0  0  0  0
   19.9600   -5.0110  -14.7820 C   0  0  2  0  0  0  0  0  0  0  0  0
   19.7984   -6.3200  -15.3757 N   0  0  0  0  0  0  0  0  0  0  0  0
   19.0960   -4.0574  -15.5138 C   0  0  0  0  0  0  0  0  0  0  0  0
   19.0970   -4.0719  -16.7652 O   0  0  0  0  0  0  0  0  0  0  0  0
   16.1845   -1.8463  -14.7714 C   0  0  0  0  0  0  0  0  0  0  0  0
   17.3787   -2.2421  -15.6042 C   0  0  2  0  0  0  0  0  0  0  0  0
   18.2576   -3.1172  -14.8512 N   0  0  0  0  0  0  0  0  0  0  0  0
   18.1274   -1.0716  -16.1066 C   0  0  0  0  0  0  0  0  0  0  0  0
   19.1595   -0.6479  -15.5317 O   0  0  0  0  0  0  0  0  0  0  0  0
   17.6873   -0.4178  -17.2406 O   0  0  0  0  0  0  0  0  0  0  0  0
  2  1  1  6
  2  5  1  0
  3  2  1  0
  4  3  1  0
  5 12  1  0
  5  6  2  0
  7  8  1  0
  8 10  1  0
  8  9  2  0
 11 10  1  6
 11 13  1  0
 12 11  1  0
 13 14  2  0
 16 15  1  1
 16 18  1  0
 17 16  1  0
 17 13  1  0
 18 20  1  0
 19 18  2  0
M  END
$$$$
