CNA.pdb
     RDKit          3D

 20 19  0  0  1  0  0  0  0  0999 V2000
   25.3478  -33.7983  -10.1139 N   0  0  0  0  0  0  0  0  0  0  0  0
   26.2119  -33.3120   -9.0561 C   0  0  1  0  0  0  0  0  0  0  0  0
   25.7456  -31.9898   -8.5392 C   0  0  0  0  0  0  0  0  0  0  0  0
   24.0082  -32.0467   -8.0673 S   0  0  0  0  0  0  0  0  0  0  0  0
   26.3496  -34.3013   -7.9735 C   0  0  0  0  0  0  0  0  0  0  0  0
   25.4580  -35.1985   -7.8971 O   0  0  0  0  0  0  0  0  0  0  0  0
   28.2481  -37.5595   -4.5518 N   0  0  0  0  0  0  0  0  0  0  0  0
   29.2844  -36.6315   -4.8045 C   0  0  0  0  0  0  0  0  0  0  0  0
   30.4337  -36.8701   -4.3712 O   0  0  0  0  0  0  0  0  0  0  0  0
   29.0240  -35.4121   -5.5586 C   0  0  0  0  0  0  0  0  0  0  0  0
   27.5658  -35.2934   -5.9925 C   0  0  2  0  0  0  0  0  0  0  0  0
   27.4116  -34.2981   -7.0305 N   0  0  0  0  0  0  0  0  0  0  0  0
   26.8143  -34.8429   -4.7993 C   0  0  0  0  0  0  0  0  0  0  0  0
   26.9914  -33.6802   -4.3715 O   0  0  0  0  0  0  0  0  0  0  0  0
   23.9877  -36.1316   -2.6660 C   0  0  0  0  0  0  0  0  0  0  0  0
   25.0961  -35.1684   -3.0121 C   0  0  2  0  0  0  0  0  0  0  0  0
   25.8917  -35.6808   -4.1118 N   0  0  0  0  0  0  0  0  0  0  0  0
   25.9595  -34.8637   -1.8524 C   0  0  0  0  0  0  0  0  0  0  0  0
   27.1095  -35.3526   -1.7352 O   0  0  0  0  0  0  0  0  0  0  0  0
   25.4974  -34.0178   -0.8634 O   0  0  0  0  0  0  0  0  0  0  0  0
  2  1  1  6
  2  5  1  0
  3  2  1  0
  4  3  1  0
  5 12  1  0
  5  6  2  0
  7  8  1  0
  8 10  1  0
  8  9  2  0
 11 10  1  1
 11 13  1  0
 12 11  1  0
 13 14  2  0
 16 15  1  1
 16 18  1  0
 17 16  1  0
 17 13  1  0
 18 20  1  0
 19 18  2  0
M  END
$$$$
