CNA.pdb
     RDKit          3D

 20 19  0  0  1  0  0  0  0  0999 V2000
   14.9845  -20.5673    1.5215 N   0  0  0  0  0  0  0  0  0  0  0  0
   15.2894  -20.9779    2.8782 C   0  0  1  0  0  0  0  0  0  0  0  0
   15.8767  -22.3515    2.9104 C   0  0  0  0  0  0  0  0  0  0  0  0
   14.7634  -23.5576    2.1684 S   0  0  0  0  0  0  0  0  0  0  0  0
   16.1567  -19.9996    3.5566 C   0  0  0  0  0  0  0  0  0  0  0  0
   17.1149  -19.5158    2.8832 O   0  0  0  0  0  0  0  0  0  0  0  0
   17.9705  -16.3793    6.7748 N   0  0  0  0  0  0  0  0  0  0  0  0
   16.6054  -16.5936    7.0742 C   0  0  0  0  0  0  0  0  0  0  0  0
   16.0237  -15.8093    7.8564 O   0  0  0  0  0  0  0  0  0  0  0  0
   15.8803  -17.7108    6.4830 C   0  0  0  0  0  0  0  0  0  0  0  0
   16.7436  -18.5263    5.5246 C   0  0  2  0  0  0  0  0  0  0  0  0
   15.9746  -19.5810    4.9014 N   0  0  0  0  0  0  0  0  0  0  0  0
   17.8042  -19.1477    6.3494 C   0  0  0  0  0  0  0  0  0  0  0  0
   17.4851  -19.9931    7.2153 O   0  0  0  0  0  0  0  0  0  0  0  0
   21.5577  -19.3002    6.4164 C   0  0  0  0  0  0  0  0  0  0  0  0
   20.1898  -19.4482    7.0354 C   0  0  2  0  0  0  0  0  0  0  0  0
   19.1819  -18.8232    6.1997 N   0  0  0  0  0  0  0  0  0  0  0  0
   20.1305  -18.9016    8.4068 C   0  0  0  0  0  0  0  0  0  0  0  0
   20.7326  -19.4458    9.3643 O   0  0  0  0  0  0  0  0  0  0  0  0
   19.3941  -17.7595    8.6530 O   0  0  0  0  0  0  0  0  0  0  0  0
  2  1  1  6
  2  5  1  0
  3  2  1  0
  4  3  1  0
  5 12  1  0
  5  6  2  0
  7  8  1  0
  8 10  1  0
  8  9  2  0
 11 10  1  1
 11 13  1  0
 12 11  1  0
 13 14  2  0
 16 15  1  6
 16 18  1  0
 17 16  1  0
 17 13  1  0
 18 20  1  0
 19 18  2  0
M  END
$$$$
