CNA.pdb
     RDKit          3D

 20 19  0  0  1  0  0  0  0  0999 V2000
   16.8235  -13.0630  -13.9730 N   0  0  0  0  0  0  0  0  0  0  0  0
   16.9894  -11.7941  -14.6545 C   0  0  1  0  0  0  0  0  0  0  0  0
   16.5601  -11.8852  -16.0829 C   0  0  0  0  0  0  0  0  0  0  0  0
   17.7461  -12.8198  -17.0651 S   0  0  0  0  0  0  0  0  0  0  0  0
   16.2945  -10.7056  -13.9462 C   0  0  0  0  0  0  0  0  0  0  0  0
   15.0278  -10.7405  -13.9388 O   0  0  0  0  0  0  0  0  0  0  0  0
   14.7723   -9.3663  -10.4016 N   0  0  0  0  0  0  0  0  0  0  0  0
   16.0494   -8.8224  -10.1326 C   0  0  0  0  0  0  0  0  0  0  0  0
   16.4507   -8.7686   -8.9488 O   0  0  0  0  0  0  0  0  0  0  0  0
   16.8914   -8.3296  -11.2150 C   0  0  0  0  0  0  0  0  0  0  0  0
   16.2769   -8.5726  -12.5905 C   0  0  2  0  0  0  0  0  0  0  0  0
   16.9619   -9.6407  -13.2847 N   0  0  0  0  0  0  0  0  0  0  0  0
   16.4687   -7.3205  -13.3566 C   0  0  0  0  0  0  0  0  0  0  0  0
   17.6318   -6.9254  -13.5960 O   0  0  0  0  0  0  0  0  0  0  0  0
   14.3279   -4.7829  -15.1503 C   0  0  0  0  0  0  0  0  0  0  0  0
   15.6097   -5.2911  -14.5381 C   0  0  2  0  0  0  0  0  0  0  0  0
   15.3794   -6.5400  -13.8366 N   0  0  0  0  0  0  0  0  0  0  0  0
   16.2325   -4.3020  -13.6342 C   0  0  0  0  0  0  0  0  0  0  0  0
   16.0283   -4.3144  -12.3959 O   0  0  0  0  0  0  0  0  0  0  0  0
   17.0649   -3.3318  -14.1568 O   0  0  0  0  0  0  0  0  0  0  0  0
  2  1  1  1
  2  5  1  0
  3  2  1  0
  4  3  1  0
  5 12  1  0
  5  6  2  0
  7  8  1  0
  8 10  1  0
  8  9  2  0
 11 10  1  1
 11 13  1  0
 12 11  1  0
 13 14  2  0
 16 15  1  1
 16 18  1  0
 17 16  1  0
 17 13  1  0
 18 20  1  0
 19 18  2  0
M  END
$$$$
