GHK.pdb
     RDKit          3D

 24 24  0  0  1  0  0  0  0  0999 V2000
   23.8925  -25.0148  -14.1731 N   0  0  0  0  0  0  0  0  0  0  0  0
   24.6834  -23.8993  -14.6287 C   0  0  0  0  0  0  0  0  0  0  0  0
   24.1051  -22.6319  -14.0749 C   0  0  0  0  0  0  0  0  0  0  0  0
   22.8855  -22.5537  -13.7837 O   0  0  0  0  0  0  0  0  0  0  0  0
   24.9154  -21.5089  -13.8713 N   0  0  0  0  0  0  0  0  0  0  0  0
   24.3789  -20.2042  -13.3912 C   0  0  1  0  0  0  0  0  0  0  0  0
   25.4296  -19.6816  -12.4874 C   0  0  0  0  0  0  0  0  0  0  0  0
   25.3071  -20.1738  -11.1068 C   0  0  0  0  0  0  0  0  0  0  0  0
   24.2543  -20.9556  -10.6317 C   0  0  0  0  0  0  0  0  0  0  0  0
   24.4301  -21.2404   -9.3349 N   0  0  0  0  0  0  0  0  0  0  0  0
   25.5845  -20.6536   -8.9600 C   0  0  0  0  0  0  0  0  0  0  0  0
   26.0979  -20.0184  -10.0330 N   0  0  0  0  0  0  0  0  0  0  0  0
   24.0366  -19.4386  -14.5735 C   0  0  0  0  0  0  0  0  0  0  0  0
   24.6011  -19.7601  -15.6851 O   0  0  0  0  0  0  0  0  0  0  0  0
   23.1158  -18.3509  -14.6178 N   0  0  0  0  0  0  0  0  0  0  0  0
   22.7473  -17.7995  -15.9318 C   0  0  1  0  0  0  0  0  0  0  0  0
   23.8727  -18.0857  -16.9032 C   0  0  0  0  0  0  0  0  0  0  0  0
   23.5791  -17.6274  -18.3015 C   0  0  0  0  0  0  0  0  0  0  0  0
   24.6690  -18.0282  -19.2744 C   0  0  0  0  0  0  0  0  0  0  0  0
   24.3494  -17.5374  -20.6739 C   0  0  0  0  0  0  0  0  0  0  0  0
   25.4010  -17.8982  -21.5764 N   0  0  0  0  0  0  0  0  0  0  0  0
   21.5145  -18.4372  -16.4296 C   0  0  0  0  0  0  0  0  0  0  0  0
   20.6637  -17.7134  -17.2462 O   0  0  0  0  0  0  0  0  0  0  0  0
   21.1720  -19.6087  -16.1633 O   0  0  0  0  0  0  0  0  0  0  0  0
  2  1  1  0
  3  4  2  0
  3  2  1  0
  5  3  1  0
  6  7  1  6
  6  5  1  0
  8  9  2  0
  8  7  1  0
 10  9  1  0
 11 12  2  0
 11 10  1  0
 12  8  1  0
 13  6  1  0
 13 14  2  0
 15 13  1  0
 16 15  1  0
 16 17  1  6
 17 18  1  0
 19 18  1  0
 20 19  1  0
 20 21  1  0
 22 16  1  0
 23 22  1  0
 24 22  2  0
M  END
$$$$
