GHK.pdb
     RDKit          3D

 24 24  0  0  1  0  0  0  0  0999 V2000
   16.6808  -11.1610  -15.4174 N   0  0  0  0  0  0  0  0  0  0  0  0
   16.6221   -9.7491  -15.1334 C   0  0  0  0  0  0  0  0  0  0  0  0
   17.3472   -9.4785  -13.8495 C   0  0  0  0  0  0  0  0  0  0  0  0
   17.4195  -10.3559  -12.9532 O   0  0  0  0  0  0  0  0  0  0  0  0
   17.9590   -8.2398  -13.6246 N   0  0  0  0  0  0  0  0  0  0  0  0
   18.5747   -7.8701  -12.3190 C   0  0  1  0  0  0  0  0  0  0  0  0
   19.8639   -7.2380  -12.6832 C   0  0  0  0  0  0  0  0  0  0  0  0
   20.8177   -8.1738  -13.2978 C   0  0  0  0  0  0  0  0  0  0  0  0
   20.5864   -9.5364  -13.4852 C   0  0  0  0  0  0  0  0  0  0  0  0
   21.6439  -10.1154  -14.0684 N   0  0  0  0  0  0  0  0  0  0  0  0
   22.5608   -9.1464  -14.2630 C   0  0  0  0  0  0  0  0  0  0  0  0
   22.0507   -7.9887  -13.7959 N   0  0  0  0  0  0  0  0  0  0  0  0
   17.5902   -7.0790  -11.6077 C   0  0  0  0  0  0  0  0  0  0  0  0
   16.9676   -6.1606  -12.2609 O   0  0  0  0  0  0  0  0  0  0  0  0
   17.2412   -7.2315  -10.2337 N   0  0  0  0  0  0  0  0  0  0  0  0
   16.2664   -6.2948   -9.6516 C   0  0  1  0  0  0  0  0  0  0  0  0
   15.3134   -7.0797   -8.7755 C   0  0  0  0  0  0  0  0  0  0  0  0
   14.3431   -7.9162   -9.5568 C   0  0  0  0  0  0  0  0  0  0  0  0
   13.3521   -8.6289   -8.6595 C   0  0  0  0  0  0  0  0  0  0  0  0
   12.4295   -9.5166   -9.4735 C   0  0  0  0  0  0  0  0  0  0  0  0
   11.5894  -10.2848   -8.6049 N   0  0  0  0  0  0  0  0  0  0  0  0
   16.9534   -5.2863   -8.8239 C   0  0  0  0  0  0  0  0  0  0  0  0
   16.2816   -4.1271   -8.4779 O   0  0  0  0  0  0  0  0  0  0  0  0
   18.1236   -5.4017   -8.4020 O   0  0  0  0  0  0  0  0  0  0  0  0
  2  1  1  0
  3  4  2  0
  3  2  1  0
  5  3  1  0
  6  7  1  6
  6  5  1  0
  8  9  2  0
  8  7  1  0
 10  9  1  0
 11 12  2  0
 11 10  1  0
 12  8  1  0
 13  6  1  0
 13 14  2  0
 15 13  1  0
 16 15  1  0
 16 17  1  1
 17 18  1  0
 19 18  1  0
 20 19  1  0
 20 21  1  0
 22 16  1  0
 23 22  1  0
 24 22  2  0
M  END
$$$$
