GHK.pdb
     RDKit          3D

 24 24  0  0  1  0  0  0  0  0999 V2000
   12.6747  -13.8333    4.5450 N   0  0  0  0  0  0  0  0  0  0  0  0
   13.3869  -13.7275    5.7937 C   0  0  0  0  0  0  0  0  0  0  0  0
   14.6591  -14.5147    5.6986 C   0  0  0  0  0  0  0  0  0  0  0  0
   14.9005  -15.2299    4.6944 O   0  0  0  0  0  0  0  0  0  0  0  0
   15.6045  -14.4674    6.7298 N   0  0  0  0  0  0  0  0  0  0  0  0
   16.8694  -15.2546    6.7004 C   0  0  1  0  0  0  0  0  0  0  0  0
   17.8922  -14.3327    7.2461 C   0  0  0  0  0  0  0  0  0  0  0  0
   18.4441  -13.4138    6.2389 C   0  0  0  0  0  0  0  0  0  0  0  0
   18.0817  -13.3994    4.8921 C   0  0  0  0  0  0  0  0  0  0  0  0
   18.7598  -12.4501    4.2345 N   0  0  0  0  0  0  0  0  0  0  0  0
   19.5592  -11.8463    5.1367 C   0  0  0  0  0  0  0  0  0  0  0  0
   19.3584  -12.4351    6.3331 N   0  0  0  0  0  0  0  0  0  0  0  0
   16.6021  -16.4917    7.4070 C   0  0  0  0  0  0  0  0  0  0  0  0
   15.9366  -16.4266    8.5072 O   0  0  0  0  0  0  0  0  0  0  0  0
   17.0109  -17.7910    6.9855 N   0  0  0  0  0  0  0  0  0  0  0  0
   16.7038  -18.9375    7.8560 C   0  0  1  0  0  0  0  0  0  0  0  0
   16.1203  -20.0433    7.0025 C   0  0  0  0  0  0  0  0  0  0  0  0
   15.6842  -21.2384    7.7983 C   0  0  0  0  0  0  0  0  0  0  0  0
   15.0673  -22.3116    6.9250 C   0  0  0  0  0  0  0  0  0  0  0  0
   14.6248  -23.4980    7.7607 C   0  0  0  0  0  0  0  0  0  0  0  0
   14.0550  -24.5086    6.9214 N   0  0  0  0  0  0  0  0  0  0  0  0
   17.9315  -19.4338    8.5047 C   0  0  0  0  0  0  0  0  0  0  0  0
   19.1578  -18.9459    8.0893 O   0  0  0  0  0  0  0  0  0  0  0  0
   17.9484  -20.2815    9.4222 O   0  0  0  0  0  0  0  0  0  0  0  0
  2  1  1  0
  3  4  2  0
  3  2  1  0
  5  3  1  0
  6  7  1  1
  6  5  1  0
  8  9  2  0
  8  7  1  0
 10  9  1  0
 11 12  2  0
 11 10  1  0
 12  8  1  0
 13  6  1  0
 13 14  2  0
 15 13  1  0
 16 15  1  0
 16 17  1  6
 17 18  1  0
 19 18  1  0
 20 19  1  0
 20 21  1  0
 22 16  1  0
 23 22  1  0
 24 22  2  0
M  END
$$$$
