GHK.pdb
     RDKit          3D

 24 24  0  0  1  0  0  0  0  0999 V2000
   26.3808  -33.4455   -9.2635 N   0  0  0  0  0  0  0  0  0  0  0  0
   24.9677  -33.3224   -9.0070 C   0  0  0  0  0  0  0  0  0  0  0  0
   24.7609  -32.9959   -7.5586 C   0  0  0  0  0  0  0  0  0  0  0  0
   25.7402  -32.8335   -6.7886 O   0  0  0  0  0  0  0  0  0  0  0  0
   23.4691  -32.8653   -7.0355 N   0  0  0  0  0  0  0  0  0  0  0  0
   23.2052  -32.6425   -5.5860 C   0  0  1  0  0  0  0  0  0  0  0  0
   21.7845  -32.2275   -5.5276 C   0  0  0  0  0  0  0  0  0  0  0  0
   21.3126  -31.9582   -4.1608 C   0  0  0  0  0  0  0  0  0  0  0  0
   22.0934  -32.0797   -3.0115 C   0  0  0  0  0  0  0  0  0  0  0  0
   21.3781  -31.7660   -1.9237 N   0  0  0  0  0  0  0  0  0  0  0  0
   20.1411  -31.4419   -2.3507 C   0  0  0  0  0  0  0  0  0  0  0  0
   20.1179  -31.5620   -3.6936 N   0  0  0  0  0  0  0  0  0  0  0  0
   23.6019  -33.8578   -4.9027 C   0  0  0  0  0  0  0  0  0  0  0  0
   23.3421  -34.9827   -5.4724 O   0  0  0  0  0  0  0  0  0  0  0  0
   24.2667  -33.9201   -3.6429 N   0  0  0  0  0  0  0  0  0  0  0  0
   24.5132  -35.2431   -3.0469 C   0  0  1  0  0  0  0  0  0  0  0  0
   25.9218  -35.6715   -3.3993 C   0  0  0  0  0  0  0  0  0  0  0  0
   26.2692  -37.0402   -2.8918 C   0  0  0  0  0  0  0  0  0  0  0  0
   27.7169  -37.3977   -3.1590 C   0  0  0  0  0  0  0  0  0  0  0  0
   28.0120  -38.8183   -2.7156 C   0  0  0  0  0  0  0  0  0  0  0  0
   29.3750  -39.1520   -3.0003 N   0  0  0  0  0  0  0  0  0  0  0  0
   24.3885  -35.1771   -1.5791 C   0  0  0  0  0  0  0  0  0  0  0  0
   24.3234  -33.9398   -0.9631 O   0  0  0  0  0  0  0  0  0  0  0  0
   24.3364  -36.1772   -0.8323 O   0  0  0  0  0  0  0  0  0  0  0  0
  2  1  1  0
  3  4  2  0
  3  2  1  0
  5  3  1  0
  6  7  1  6
  6  5  1  0
  8  9  2  0
  8  7  1  0
 10  9  1  0
 11 12  2  0
 11 10  1  0
 12  8  1  0
 13  6  1  0
 13 14  2  0
 15 13  1  0
 16 15  1  0
 16 17  1  1
 17 18  1  0
 19 18  1  0
 20 19  1  0
 20 21  1  0
 22 16  1  0
 23 22  1  0
 24 22  2  0
M  END
$$$$
