GHK.pdb
     RDKit          3D

 24 24  0  0  1  0  0  0  0  0999 V2000
   26.0956  -29.8889  -22.2430 N   0  0  0  0  0  0  0  0  0  0  0  0
   25.4014  -29.9129  -20.9800 C   0  0  0  0  0  0  0  0  0  0  0  0
   26.3659  -30.3003  -19.8997 C   0  0  0  0  0  0  0  0  0  0  0  0
   27.5055  -30.7465  -20.1833 O   0  0  0  0  0  0  0  0  0  0  0  0
   26.0138  -30.1717  -18.5511 N   0  0  0  0  0  0  0  0  0  0  0  0
   26.8959  -30.6290  -17.4406 C   0  0  1  0  0  0  0  0  0  0  0  0
   26.7832  -29.5653  -16.4160 C   0  0  0  0  0  0  0  0  0  0  0  0
   27.5020  -28.3332  -16.7749 C   0  0  0  0  0  0  0  0  0  0  0  0
   28.3228  -28.1884  -17.8932 C   0  0  0  0  0  0  0  0  0  0  0  0
   28.8332  -26.9512  -17.9429 N   0  0  0  0  0  0  0  0  0  0  0  0
   28.3546  -26.2888  -16.8706 C   0  0  0  0  0  0  0  0  0  0  0  0
   27.5584  -27.1306  -16.1807 N   0  0  0  0  0  0  0  0  0  0  0  0
   26.4668  -31.9707  -17.0984 C   0  0  0  0  0  0  0  0  0  0  0  0
   25.2247  -32.2672  -17.2624 O   0  0  0  0  0  0  0  0  0  0  0  0
   27.3079  -33.0059  -16.5948 N   0  0  0  0  0  0  0  0  0  0  0  0
   26.7329  -34.3488  -16.4148 C   0  0  1  0  0  0  0  0  0  0  0  0
   27.8652  -35.3269  -16.1845 C   0  0  0  0  0  0  0  0  0  0  0  0
   27.4174  -36.7590  -16.1712 C   0  0  0  0  0  0  0  0  0  0  0  0
   28.5596  -37.7117  -15.8833 C   0  0  0  0  0  0  0  0  0  0  0  0
   28.0935  -39.1530  -15.9675 C   0  0  0  0  0  0  0  0  0  0  0  0
   29.1970  -40.0421  -15.7622 N   0  0  0  0  0  0  0  0  0  0  0  0
   25.8377  -34.3720  -15.2434 C   0  0  0  0  0  0  0  0  0  0  0  0
   24.7022  -35.1620  -15.2784 O   0  0  0  0  0  0  0  0  0  0  0  0
   26.0311  -33.7167  -14.1976 O   0  0  0  0  0  0  0  0  0  0  0  0
  2  1  1  0
  3  4  2  0
  3  2  1  0
  5  3  1  0
  6  7  1  1
  6  5  1  0
  8  9  2  0
  8  7  1  0
 10  9  1  0
 11 12  2  0
 11 10  1  0
 12  8  1  0
 13  6  1  0
 13 14  2  0
 15 13  1  0
 16 15  1  0
 16 17  1  1
 17 18  1  0
 19 18  1  0
 20 19  1  0
 20 21  1  0
 22 16  1  0
 23 22  1  0
 24 22  2  0
M  END
$$$$
