GHK.pdb
     RDKit          3D

 24 24  0  0  1  0  0  0  0  0999 V2000
   25.3992  -20.0074   -8.9346 N   0  0  0  0  0  0  0  0  0  0  0  0
   25.5393  -21.0376   -9.9330 C   0  0  0  0  0  0  0  0  0  0  0  0
   25.1970  -20.4661  -11.2760 C   0  0  0  0  0  0  0  0  0  0  0  0
   25.0715  -19.2263  -11.4355 O   0  0  0  0  0  0  0  0  0  0  0  0
   25.0103  -21.3055  -12.3804 N   0  0  0  0  0  0  0  0  0  0  0  0
   24.7541  -20.7862  -13.7534 C   0  0  1  0  0  0  0  0  0  0  0  0
   25.5516  -21.6672  -14.6376 C   0  0  0  0  0  0  0  0  0  0  0  0
   26.7810  -21.0321  -15.1362 C   0  0  0  0  0  0  0  0  0  0  0  0
   27.1316  -19.6995  -14.9205 C   0  0  0  0  0  0  0  0  0  0  0  0
   28.3066  -19.4242  -15.5012 N   0  0  0  0  0  0  0  0  0  0  0  0
   28.7252  -20.5613  -16.0923 C   0  0  0  0  0  0  0  0  0  0  0  0
   27.8001  -21.5156  -15.8645 N   0  0  0  0  0  0  0  0  0  0  0  0
   23.3145  -20.7543  -13.9206 C   0  0  0  0  0  0  0  0  0  0  0  0
   22.6282  -21.7259  -13.4282 O   0  0  0  0  0  0  0  0  0  0  0  0
   22.5806  -19.7286  -14.5855 N   0  0  0  0  0  0  0  0  0  0  0  0
   21.1136  -19.8376  -14.6341 C   0  0  1  0  0  0  0  0  0  0  0  0
   20.5560  -18.5443  -15.1894 C   0  0  0  0  0  0  0  0  0  0  0  0
   19.0589  -18.5396  -15.2903 C   0  0  0  0  0  0  0  0  0  0  0  0
   18.5234  -17.2075  -15.7740 C   0  0  0  0  0  0  0  0  0  0  0  0
   17.0065  -17.2139  -15.8002 C   0  0  0  0  0  0  0  0  0  0  0  0
   16.5123  -15.9086  -16.1200 N   0  0  0  0  0  0  0  0  0  0  0  0
   20.7095  -20.9481  -15.5160 C   0  0  0  0  0  0  0  0  0  0  0  0
   19.5670  -21.6677  -15.2133 O   0  0  0  0  0  0  0  0  0  0  0  0
   21.3354  -21.2967  -16.5393 O   0  0  0  0  0  0  0  0  0  0  0  0
  2  1  1  0
  3  4  2  0
  3  2  1  0
  5  3  1  0
  6  7  1  6
  6  5  1  0
  8  9  2  0
  8  7  1  0
 10  9  1  0
 11 12  2  0
 11 10  1  0
 12  8  1  0
 13  6  1  0
 13 14  2  0
 15 13  1  0
 16 15  1  0
 16 17  1  6
 17 18  1  0
 19 18  1  0
 20 19  1  0
 20 21  1  0
 22 16  1  0
 23 22  1  0
 24 22  2  0
M  END
$$$$
