GHK.pdb
     RDKit          3D

 24 24  0  0  1  0  0  0  0  0999 V2000
   16.1237   -9.2412  -10.9294 N   0  0  0  0  0  0  0  0  0  0  0  0
   16.7079   -8.0070  -10.4675 C   0  0  0  0  0  0  0  0  0  0  0  0
   18.0391   -7.8185  -11.1305 C   0  0  0  0  0  0  0  0  0  0  0  0
   18.7991   -6.8767  -10.7933 O   0  0  0  0  0  0  0  0  0  0  0  0
   18.4615   -8.6907  -12.1405 N   0  0  0  0  0  0  0  0  0  0  0  0
   19.7646   -8.5359  -12.8464 C   0  0  1  0  0  0  0  0  0  0  0  0
   20.2951   -9.9148  -12.9518 C   0  0  0  0  0  0  0  0  0  0  0  0
   21.5243  -10.0057  -13.7543 C   0  0  0  0  0  0  0  0  0  0  0  0
   22.1797   -8.9180  -14.3310 C   0  0  0  0  0  0  0  0  0  0  0  0
   23.2665   -9.3260  -14.9988 N   0  0  0  0  0  0  0  0  0  0  0  0
   23.3266  -10.6661  -14.8639 C   0  0  0  0  0  0  0  0  0  0  0  0
   22.2756  -11.0582  -14.1155 N   0  0  0  0  0  0  0  0  0  0  0  0
   19.4887   -7.8031  -14.0663 C   0  0  0  0  0  0  0  0  0  0  0  0
   18.4749   -8.1661  -14.7721 O   0  0  0  0  0  0  0  0  0  0  0  0
   20.2455   -6.6997  -14.5586 N   0  0  0  0  0  0  0  0  0  0  0  0
   19.8043   -6.0484  -15.8026 C   0  0  1  0  0  0  0  0  0  0  0  0
   19.3889   -4.6292  -15.4782 C   0  0  0  0  0  0  0  0  0  0  0  0
   19.0230   -3.8269  -16.6923 C   0  0  0  0  0  0  0  0  0  0  0  0
   18.5949   -2.4177  -16.3376 C   0  0  0  0  0  0  0  0  0  0  0  0
   18.2714   -1.6218  -17.5881 C   0  0  0  0  0  0  0  0  0  0  0  0
   17.9944   -0.2586  -17.2485 N   0  0  0  0  0  0  0  0  0  0  0  0
   20.9061   -6.0103  -16.7818 C   0  0  0  0  0  0  0  0  0  0  0  0
   20.6122   -6.0985  -18.1310 O   0  0  0  0  0  0  0  0  0  0  0  0
   22.1131   -5.9024  -16.4781 O   0  0  0  0  0  0  0  0  0  0  0  0
  2  1  1  0
  3  4  2  0
  3  2  1  0
  5  3  1  0
  6  7  1  6
  6  5  1  0
  8  9  2  0
  8  7  1  0
 10  9  1  0
 11 12  2  0
 11 10  1  0
 12  8  1  0
 13  6  1  0
 13 14  2  0
 15 13  1  0
 16 15  1  0
 16 17  1  1
 17 18  1  0
 19 18  1  0
 20 19  1  0
 20 21  1  0
 22 16  1  0
 23 22  1  0
 24 22  2  0
M  END
$$$$
