GHK.pdb
     RDKit          3D

 24 24  0  0  1  0  0  0  0  0999 V2000
   16.8274  -11.1516  -15.3692 N   0  0  0  0  0  0  0  0  0  0  0  0
   16.8852   -9.7160  -15.2526 C   0  0  0  0  0  0  0  0  0  0  0  0
   17.2995   -9.3556  -13.8577 C   0  0  0  0  0  0  0  0  0  0  0  0
   17.2811  -10.2120  -12.9387 O   0  0  0  0  0  0  0  0  0  0  0  0
   17.7157   -8.0545  -13.5523 N   0  0  0  0  0  0  0  0  0  0  0  0
   18.3016   -7.6845  -12.2331 C   0  0  1  0  0  0  0  0  0  0  0  0
   19.5282   -6.9264  -12.5720 C   0  0  0  0  0  0  0  0  0  0  0  0
   20.5683   -7.7540  -13.2018 C   0  0  0  0  0  0  0  0  0  0  0  0
   21.3593   -8.6852  -12.5291 C   0  0  0  0  0  0  0  0  0  0  0  0
   22.2118   -9.2753  -13.3768 N   0  0  0  0  0  0  0  0  0  0  0  0
   21.9855   -8.7395  -14.5931 C   0  0  0  0  0  0  0  0  0  0  0  0
   20.9978   -7.8296  -14.4716 N   0  0  0  0  0  0  0  0  0  0  0  0
   17.2537   -7.0130  -11.4899 C   0  0  0  0  0  0  0  0  0  0  0  0
   16.4563   -6.2373  -12.1379 O   0  0  0  0  0  0  0  0  0  0  0  0
   17.0206   -7.1398  -10.0890 N   0  0  0  0  0  0  0  0  0  0  0  0
   15.9866   -6.2929   -9.4726 C   0  0  1  0  0  0  0  0  0  0  0  0
   15.1094   -7.1667   -8.6016 C   0  0  0  0  0  0  0  0  0  0  0  0
   14.0289   -7.8719   -9.3677 C   0  0  0  0  0  0  0  0  0  0  0  0
   13.1183   -8.6755   -8.4621 C   0  0  0  0  0  0  0  0  0  0  0  0
   11.9880   -9.3043   -9.2550 C   0  0  0  0  0  0  0  0  0  0  0  0
   11.1813  -10.1232   -8.4012 N   0  0  0  0  0  0  0  0  0  0  0  0
   16.6078   -5.2530   -8.6318 C   0  0  0  0  0  0  0  0  0  0  0  0
   15.8509   -4.1636   -8.2379 O   0  0  0  0  0  0  0  0  0  0  0  0
   17.7935   -5.2816   -8.2393 O   0  0  0  0  0  0  0  0  0  0  0  0
  2  1  1  0
  3  4  2  0
  3  2  1  0
  5  3  1  0
  6  7  1  6
  6  5  1  0
  8  9  2  0
  8  7  1  0
 10  9  1  0
 11 12  2  0
 11 10  1  0
 12  8  1  0
 13  6  1  0
 13 14  2  0
 15 13  1  0
 16 15  1  0
 16 17  1  1
 17 18  1  0
 19 18  1  0
 20 19  1  0
 20 21  1  0
 22 16  1  0
 23 22  1  0
 24 22  2  0
M  END
$$$$
