GHK.pdb
     RDKit          3D

 24 24  0  0  1  0  0  0  0  0999 V2000
   19.2790   -3.7946  -16.9535 N   0  0  0  0  0  0  0  0  0  0  0  0
   20.3641   -4.3385  -16.1761 C   0  0  0  0  0  0  0  0  0  0  0  0
   19.8305   -5.4135  -15.2778 C   0  0  0  0  0  0  0  0  0  0  0  0
   18.7818   -6.0387  -15.5740 O   0  0  0  0  0  0  0  0  0  0  0  0
   20.4925   -5.7417  -14.0890 N   0  0  0  0  0  0  0  0  0  0  0  0
   20.0167   -6.8149  -13.1712 C   0  0  1  0  0  0  0  0  0  0  0  0
   21.2440   -7.5569  -12.8011 C   0  0  0  0  0  0  0  0  0  0  0  0
   21.6450   -8.5554  -13.8039 C   0  0  0  0  0  0  0  0  0  0  0  0
   20.9785   -8.7860  -15.0073 C   0  0  0  0  0  0  0  0  0  0  0  0
   21.5864   -9.7569  -15.7011 N   0  0  0  0  0  0  0  0  0  0  0  0
   22.6405  -10.1613  -14.9641 C   0  0  0  0  0  0  0  0  0  0  0  0
   22.6619   -9.4317  -13.8302 N   0  0  0  0  0  0  0  0  0  0  0  0
   19.2608   -6.1570  -12.1238 C   0  0  0  0  0  0  0  0  0  0  0  0
   19.8250   -5.1892  -11.4893 O   0  0  0  0  0  0  0  0  0  0  0  0
   17.9302   -6.4864  -11.7312 N   0  0  0  0  0  0  0  0  0  0  0  0
   17.3097   -5.7117  -10.6443 C   0  0  1  0  0  0  0  0  0  0  0  0
   15.8377   -6.0609  -10.5882 C   0  0  0  0  0  0  0  0  0  0  0  0
   15.0799   -5.2694   -9.5630 C   0  0  0  0  0  0  0  0  0  0  0  0
   13.6119   -5.6419   -9.5250 C   0  0  0  0  0  0  0  0  0  0  0  0
   12.8631   -4.7809   -8.5252 C   0  0  0  0  0  0  0  0  0  0  0  0
   11.4667   -5.0965   -8.5493 N   0  0  0  0  0  0  0  0  0  0  0  0
   17.9300   -6.0529   -9.3509 C   0  0  0  0  0  0  0  0  0  0  0  0
   18.6396   -7.2351   -9.2345 O   0  0  0  0  0  0  0  0  0  0  0  0
   17.8612   -5.3389   -8.3281 O   0  0  0  0  0  0  0  0  0  0  0  0
  2  1  1  0
  3  4  2  0
  3  2  1  0
  5  3  1  0
  6  7  1  1
  6  5  1  0
  8  9  2  0
  8  7  1  0
 10  9  1  0
 11 12  2  0
 11 10  1  0
 12  8  1  0
 13  6  1  0
 13 14  2  0
 15 13  1  0
 16 15  1  0
 16 17  1  1
 17 18  1  0
 19 18  1  0
 20 19  1  0
 20 21  1  0
 22 16  1  0
 23 22  1  0
 24 22  2  0
M  END
$$$$
