GHK.pdb
     RDKit          3D

 24 24  0  0  1  0  0  0  0  0999 V2000
   24.9702  -25.0025  -14.7345 N   0  0  0  0  0  0  0  0  0  0  0  0
   25.5100  -23.8077  -15.3335 C   0  0  0  0  0  0  0  0  0  0  0  0
   24.6170  -22.6497  -15.0040 C   0  0  0  0  0  0  0  0  0  0  0  0
   23.3943  -22.8242  -14.7739 O   0  0  0  0  0  0  0  0  0  0  0  0
   25.1300  -21.3486  -14.9463 N   0  0  0  0  0  0  0  0  0  0  0  0
   24.3012  -20.1716  -14.5614 C   0  0  1  0  0  0  0  0  0  0  0  0
   25.1368  -19.4329  -13.5867 C   0  0  0  0  0  0  0  0  0  0  0  0
   25.0578  -19.9768  -12.2224 C   0  0  0  0  0  0  0  0  0  0  0  0
   24.2077  -21.0089  -11.8258 C   0  0  0  0  0  0  0  0  0  0  0  0
   24.3701  -21.2755  -10.5234 N   0  0  0  0  0  0  0  0  0  0  0  0
   25.3157  -20.4295  -10.0674 C   0  0  0  0  0  0  0  0  0  0  0  0
   25.7178  -19.6578  -11.0976 N   0  0  0  0  0  0  0  0  0  0  0  0
   23.9253  -19.5103  -15.7954 C   0  0  0  0  0  0  0  0  0  0  0  0
   24.8496  -19.2770  -16.6607 O   0  0  0  0  0  0  0  0  0  0  0  0
   22.6068  -19.0941  -16.1434 N   0  0  0  0  0  0  0  0  0  0  0  0
   22.3980  -18.4543  -17.4524 C   0  0  1  0  0  0  0  0  0  0  0  0
   21.0018  -18.7901  -17.9316 C   0  0  0  0  0  0  0  0  0  0  0  0
   20.9308  -20.0826  -18.6905 C   0  0  0  0  0  0  0  0  0  0  0  0
   19.5654  -20.3087  -19.3066 C   0  0  0  0  0  0  0  0  0  0  0  0
   19.5200  -21.6330  -20.0455 C   0  0  0  0  0  0  0  0  0  0  0  0
   18.2377  -21.8145  -20.6563 N   0  0  0  0  0  0  0  0  0  0  0  0
   22.5219  -16.9897  -17.3345 C   0  0  0  0  0  0  0  0  0  0  0  0
   22.8994  -16.2537  -18.4438 O   0  0  0  0  0  0  0  0  0  0  0  0
   22.3072  -16.3483  -16.2842 O   0  0  0  0  0  0  0  0  0  0  0  0
  2  1  1  0
  3  4  2  0
  3  2  1  0
  5  3  1  0
  6  7  1  1
  6  5  1  0
  8  9  2  0
  8  7  1  0
 10  9  1  0
 11 12  2  0
 11 10  1  0
 12  8  1  0
 13  6  1  0
 13 14  2  0
 15 13  1  0
 16 15  1  0
 16 17  1  1
 17 18  1  0
 19 18  1  0
 20 19  1  0
 20 21  1  0
 22 16  1  0
 23 22  1  0
 24 22  2  0
M  END
$$$$
