GHK.pdb
     RDKit          3D

 24 24  0  0  1  0  0  0  0  0999 V2000
   20.8625  -21.5026  -11.8935 N   0  0  0  0  0  0  0  0  0  0  0  0
   21.3765  -21.2499  -13.2162 C   0  0  0  0  0  0  0  0  0  0  0  0
   22.6265  -20.4298  -13.1061 C   0  0  0  0  0  0  0  0  0  0  0  0
   22.5999  -19.2793  -12.6020 O   0  0  0  0  0  0  0  0  0  0  0  0
   23.8502  -20.9318  -13.5642 N   0  0  0  0  0  0  0  0  0  0  0  0
   25.1339  -20.1909  -13.4103 C   0  0  1  0  0  0  0  0  0  0  0  0
   25.9711  -21.0722  -12.5639 C   0  0  0  0  0  0  0  0  0  0  0  0
   25.6571  -20.9719  -11.1305 C   0  0  0  0  0  0  0  0  0  0  0  0
   25.8288  -19.8240  -10.3571 C   0  0  0  0  0  0  0  0  0  0  0  0
   25.4542  -20.0511   -9.0916 N   0  0  0  0  0  0  0  0  0  0  0  0
   25.0406  -21.3329   -9.0316 C   0  0  0  0  0  0  0  0  0  0  0  0
   25.1684  -21.8711  -10.2614 N   0  0  0  0  0  0  0  0  0  0  0  0
   25.5914  -19.8753  -14.7491 C   0  0  0  0  0  0  0  0  0  0  0  0
   25.3498  -20.7254  -15.6854 O   0  0  0  0  0  0  0  0  0  0  0  0
   26.2893  -18.6912  -15.1280 N   0  0  0  0  0  0  0  0  0  0  0  0
   26.6428  -18.5110  -16.5453 C   0  0  1  0  0  0  0  0  0  0  0  0
   27.1592  -17.1004  -16.7339 C   0  0  0  0  0  0  0  0  0  0  0  0
   27.5348  -16.7919  -18.1535 C   0  0  0  0  0  0  0  0  0  0  0  0
   28.0791  -15.3865  -18.3075 C   0  0  0  0  0  0  0  0  0  0  0  0
   28.3239  -15.0604  -19.7688 C   0  0  0  0  0  0  0  0  0  0  0  0
   28.7899  -13.7132  -19.9033 N   0  0  0  0  0  0  0  0  0  0  0  0
   27.6999  -19.4616  -16.9365 C   0  0  0  0  0  0  0  0  0  0  0  0
   27.7791  -19.8770  -18.2540 O   0  0  0  0  0  0  0  0  0  0  0  0
   28.5490  -19.9316  -16.1498 O   0  0  0  0  0  0  0  0  0  0  0  0
  2  1  1  0
  3  4  2  0
  3  2  1  0
  5  3  1  0
  6  7  1  6
  6  5  1  0
  8  9  2  0
  8  7  1  0
 10  9  1  0
 11 12  2  0
 11 10  1  0
 12  8  1  0
 13  6  1  0
 13 14  2  0
 15 13  1  0
 16 15  1  0
 16 17  1  1
 17 18  1  0
 19 18  1  0
 20 19  1  0
 20 21  1  0
 22 16  1  0
 23 22  1  0
 24 22  2  0
M  END
$$$$
