GHK.pdb
     RDKit          3D

 24 24  0  0  1  0  0  0  0  0999 V2000
   17.6087  -11.3342  -16.0744 N   0  0  0  0  0  0  0  0  0  0  0  0
   17.0757  -10.0721  -15.6263 C   0  0  0  0  0  0  0  0  0  0  0  0
   17.6375   -9.7577  -14.2725 C   0  0  0  0  0  0  0  0  0  0  0  0
   17.5890  -10.6017  -13.3431 O   0  0  0  0  0  0  0  0  0  0  0  0
   18.2281   -8.5145  -14.0178 N   0  0  0  0  0  0  0  0  0  0  0  0
   18.8005   -8.1507  -12.6910 C   0  0  1  0  0  0  0  0  0  0  0  0
   20.0337   -7.3963  -13.0138 C   0  0  0  0  0  0  0  0  0  0  0  0
   21.0876   -8.2315  -13.6095 C   0  0  0  0  0  0  0  0  0  0  0  0
   20.9602   -9.5914  -13.8920 C   0  0  0  0  0  0  0  0  0  0  0  0
   22.0916  -10.0667  -14.4282 N   0  0  0  0  0  0  0  0  0  0  0  0
   22.9541   -9.0329  -14.4983 C   0  0  0  0  0  0  0  0  0  0  0  0
   22.3376   -7.9402  -14.0038 N   0  0  0  0  0  0  0  0  0  0  0  0
   17.7469   -7.4776  -11.9575 C   0  0  0  0  0  0  0  0  0  0  0  0
   17.0770   -6.5625  -12.5669 O   0  0  0  0  0  0  0  0  0  0  0  0
   17.3778   -7.7445  -10.6064 N   0  0  0  0  0  0  0  0  0  0  0  0
   16.2714   -6.9724  -10.0181 C   0  0  1  0  0  0  0  0  0  0  0  0
   15.2612   -7.9440   -9.4461 C   0  0  0  0  0  0  0  0  0  0  0  0
   14.0760   -7.2675   -8.8223 C   0  0  0  0  0  0  0  0  0  0  0  0
   13.0839   -8.2622   -8.2551 C   0  0  0  0  0  0  0  0  0  0  0  0
   11.8971   -7.5470   -7.6372 C   0  0  0  0  0  0  0  0  0  0  0  0
   10.9587   -8.4992   -7.1244 N   0  0  0  0  0  0  0  0  0  0  0  0
   16.7684   -6.1075   -8.9322 C   0  0  0  0  0  0  0  0  0  0  0  0
   16.0264   -5.0009   -8.5586 O   0  0  0  0  0  0  0  0  0  0  0  0
   17.8338   -6.3027   -8.3097 O   0  0  0  0  0  0  0  0  0  0  0  0
  2  1  1  0
  3  4  2  0
  3  2  1  0
  5  3  1  0
  6  7  1  6
  6  5  1  0
  8  9  2  0
  8  7  1  0
 10  9  1  0
 11 12  2  0
 11 10  1  0
 12  8  1  0
 13  6  1  0
 13 14  2  0
 15 13  1  0
 16 15  1  0
 16 17  1  1
 17 18  1  0
 19 18  1  0
 20 19  1  0
 20 21  1  0
 22 16  1  0
 23 22  1  0
 24 22  2  0
M  END
$$$$
