GHK.pdb
     RDKit          3D

 24 24  0  0  1  0  0  0  0  0999 V2000
   17.8697   -9.9994  -16.5673 N   0  0  0  0  0  0  0  0  0  0  0  0
   16.8437   -9.7189  -15.5945 C   0  0  0  0  0  0  0  0  0  0  0  0
   17.4793   -9.5606  -14.2460 C   0  0  0  0  0  0  0  0  0  0  0  0
   17.3482  -10.4458  -13.3642 O   0  0  0  0  0  0  0  0  0  0  0  0
   18.2327   -8.4204  -13.9434 N   0  0  0  0  0  0  0  0  0  0  0  0
   18.7523   -8.1372  -12.5758 C   0  0  1  0  0  0  0  0  0  0  0  0
   20.0504   -7.4617  -12.8052 C   0  0  0  0  0  0  0  0  0  0  0  0
   21.0869   -8.3587  -13.3384 C   0  0  0  0  0  0  0  0  0  0  0  0
   20.9439   -9.7377  -13.4903 C   0  0  0  0  0  0  0  0  0  0  0  0
   22.0618  -10.2716  -13.9991 N   0  0  0  0  0  0  0  0  0  0  0  0
   22.9308   -9.2569  -14.1804 C   0  0  0  0  0  0  0  0  0  0  0  0
   22.3318   -8.1172  -13.7797 N   0  0  0  0  0  0  0  0  0  0  0  0
   17.7071   -7.4142  -11.8787 C   0  0  0  0  0  0  0  0  0  0  0  0
   17.1201   -6.4524  -12.5016 O   0  0  0  0  0  0  0  0  0  0  0  0
   17.2616   -7.6787  -10.5503 N   0  0  0  0  0  0  0  0  0  0  0  0
   16.1745   -6.8532   -9.9998 C   0  0  1  0  0  0  0  0  0  0  0  0
   15.1631   -7.7695   -9.3446 C   0  0  0  0  0  0  0  0  0  0  0  0
   14.0088   -7.0342   -8.7293 C   0  0  0  0  0  0  0  0  0  0  0  0
   12.9994   -7.9758   -8.1051 C   0  0  0  0  0  0  0  0  0  0  0  0
   11.8780   -7.2000   -7.4400 C   0  0  0  0  0  0  0  0  0  0  0  0
   10.9478   -8.1014   -6.8296 N   0  0  0  0  0  0  0  0  0  0  0  0
   16.6999   -5.9208   -8.9856 C   0  0  0  0  0  0  0  0  0  0  0  0
   16.0152   -4.7455   -8.7315 O   0  0  0  0  0  0  0  0  0  0  0  0
   17.7410   -6.1160   -8.3233 O   0  0  0  0  0  0  0  0  0  0  0  0
  2  1  1  0
  3  4  2  0
  3  2  1  0
  5  3  1  0
  6  7  1  6
  6  5  1  0
  8  9  2  0
  8  7  1  0
 10  9  1  0
 11 12  2  0
 11 10  1  0
 12  8  1  0
 13  6  1  0
 13 14  2  0
 15 13  1  0
 16 15  1  0
 16 17  1  1
 17 18  1  0
 19 18  1  0
 20 19  1  0
 20 21  1  0
 22 16  1  0
 23 22  1  0
 24 22  2  0
M  END
$$$$
