QPF.pdb
     RDKit          3D

 28 29  0  0  1  0  0  0  0  0999 V2000
    8.5720  -17.7481   15.6835 N   0  0  0  0  0  0  0  0  0  0  0  0
    7.2646  -17.4841   16.2169 C   0  0  0  0  0  0  0  0  0  0  0  0
    6.3304  -17.4929   15.3789 O   0  0  0  0  0  0  0  0  0  0  0  0
    7.1340  -17.2333   17.6546 C   0  0  0  0  0  0  0  0  0  0  0  0
    8.4188  -17.0959   18.3956 C   0  0  0  0  0  0  0  0  0  0  0  0
    8.4520  -17.7473   19.7520 C   0  0  2  0  0  0  0  0  0  0  0  0
    7.2005  -18.4600   19.9262 N   0  0  0  0  0  0  0  0  0  0  0  0
    8.7796  -16.8462   20.8574 C   0  0  0  0  0  0  0  0  0  0  0  0
    9.5463  -17.3524   21.7568 O   0  0  0  0  0  0  0  0  0  0  0  0
    8.3625  -15.5205   21.0463 N   0  0  0  0  0  0  0  0  0  0  0  0
    7.0878  -14.8545   20.9300 C   0  0  0  0  0  0  0  0  0  0  0  0
    7.4787  -13.6489   20.0563 C   0  0  0  0  0  0  0  0  0  0  0  0
    8.6913  -13.1750   20.8693 C   0  0  0  0  0  0  0  0  0  0  0  0
    9.2770  -14.4370   21.4495 C   0  0  1  0  0  0  0  0  0  0  0  0
    9.2826  -14.3574   22.9318 C   0  0  0  0  0  0  0  0  0  0  0  0
    9.0327  -13.2739   23.5185 O   0  0  0  0  0  0  0  0  0  0  0  0
    9.5679  -15.4894   23.7351 N   0  0  0  0  0  0  0  0  0  0  0  0
    9.1245  -15.5139   25.1377 C   0  0  1  0  0  0  0  0  0  0  0  0
    7.6371  -15.2781   25.1768 C   0  0  0  0  0  0  0  0  0  0  0  0
    7.2883  -14.0143   25.8365 C   0  0  0  0  0  0  0  0  0  0  0  0
    8.2070  -13.0326   26.1106 C   0  0  0  0  0  0  0  0  0  0  0  0
    7.8606  -11.8315   26.7364 C   0  0  0  0  0  0  0  0  0  0  0  0
    6.5412  -11.6504   27.0815 C   0  0  0  0  0  0  0  0  0  0  0  0
    5.6205  -12.6250   26.8114 C   0  0  0  0  0  0  0  0  0  0  0  0
    5.9719  -13.7989   26.1970 C   0  0  0  0  0  0  0  0  0  0  0  0
    9.5352  -16.7810   25.7666 C   0  0  0  0  0  0  0  0  0  0  0  0
    9.5453  -17.8518   25.1180 O   0  0  0  0  0  0  0  0  0  0  0  0
    9.9255  -16.8301   27.1015 O   0  0  0  0  0  0  0  0  0  0  0  0
  2  1  1  0
  2  3  2  0
  4  5  1  0
  4  2  1  0
  5  6  1  0
  6  7  1  1
  8  6  1  0
  8 10  1  0
  9  8  2  0
 10 14  1  0
 10 11  1  0
 12 11  1  0
 13 14  1  0
 13 12  1  0
 14 15  1  1
 16 15  2  0
 17 15  1  0
 18 17  1  0
 18 26  1  0
 19 20  1  0
 18 19  1  6
 20 25  2  0
 21 22  2  0
 21 20  1  0
 22 23  1  0
 23 24  2  0
 25 24  1  0
 26 28  1  0
 27 26  2  0
M  END
$$$$
