QPF.pdb
     RDKit          3D

 28 29  0  0  1  0  0  0  0  0999 V2000
   10.8874  -21.8227   19.1385 N   0  0  0  0  0  0  0  0  0  0  0  0
    9.8638  -20.8150   19.1171 C   0  0  0  0  0  0  0  0  0  0  0  0
    9.0719  -20.8738   18.1452 O   0  0  0  0  0  0  0  0  0  0  0  0
    9.8302  -19.8298   20.2011 C   0  0  0  0  0  0  0  0  0  0  0  0
   10.8521  -18.7498   20.1109 C   0  0  0  0  0  0  0  0  0  0  0  0
   10.3579  -17.4415   19.5548 C   0  0  2  0  0  0  0  0  0  0  0  0
   11.3665  -16.9470   18.6368 N   0  0  0  0  0  0  0  0  0  0  0  0
    9.9433  -16.4643   20.5621 C   0  0  0  0  0  0  0  0  0  0  0  0
   10.9096  -15.8879   21.1843 O   0  0  0  0  0  0  0  0  0  0  0  0
    8.6399  -16.0909   20.9210 N   0  0  0  0  0  0  0  0  0  0  0  0
    7.3316  -16.4712   20.4458 C   0  0  0  0  0  0  0  0  0  0  0  0
    6.6956  -15.0857   20.2329 C   0  0  0  0  0  0  0  0  0  0  0  0
    7.0346  -14.4781   21.6010 C   0  0  0  0  0  0  0  0  0  0  0  0
    8.3447  -15.1162   21.9865 C   0  0  1  0  0  0  0  0  0  0  0  0
    8.1914  -15.8539   23.2655 C   0  0  0  0  0  0  0  0  0  0  0  0
    7.9621  -17.0901   23.2713 O   0  0  0  0  0  0  0  0  0  0  0  0
    8.2961  -15.1989   24.5177 N   0  0  0  0  0  0  0  0  0  0  0  0
    8.2749  -15.9933   25.7559 C   0  0  1  0  0  0  0  0  0  0  0  0
    8.5423  -15.0763   26.9210 C   0  0  0  0  0  0  0  0  0  0  0  0
    7.7389  -13.8494   26.8629 C   0  0  0  0  0  0  0  0  0  0  0  0
    8.2207  -12.6595   26.3784 C   0  0  0  0  0  0  0  0  0  0  0  0
    7.4434  -11.4988   26.3253 C   0  0  0  0  0  0  0  0  0  0  0  0
    6.1484  -11.5779   26.7826 C   0  0  0  0  0  0  0  0  0  0  0  0
    5.6619  -12.7609   27.2670 C   0  0  0  0  0  0  0  0  0  0  0  0
    6.4336  -13.8929   27.3141 C   0  0  0  0  0  0  0  0  0  0  0  0
    6.9967  -16.7178   25.8597 C   0  0  0  0  0  0  0  0  0  0  0  0
    6.8260  -17.6085   26.7227 O   0  0  0  0  0  0  0  0  0  0  0  0
    5.9368  -16.4364   25.0027 O   0  0  0  0  0  0  0  0  0  0  0  0
  2  1  1  0
  2  3  2  0
  4  5  1  0
  4  2  1  0
  5  6  1  0
  6  7  1  1
  8  6  1  0
  8 10  1  0
  9  8  2  0
 10 14  1  0
 10 11  1  0
 12 11  1  0
 13 14  1  0
 13 12  1  0
 14 15  1  1
 16 15  2  0
 17 15  1  0
 18 17  1  0
 18 26  1  0
 19 20  1  0
 18 19  1  1
 20 25  2  0
 21 22  2  0
 21 20  1  0
 22 23  1  0
 23 24  2  0
 25 24  1  0
 26 28  1  0
 27 26  2  0
M  END
$$$$
