QPF.pdb
     RDKit          3D

 28 29  0  0  1  0  0  0  0  0999 V2000
   11.5831  -21.2117   21.0647 N   0  0  0  0  0  0  0  0  0  0  0  0
   12.5131  -20.1170   21.0847 C   0  0  0  0  0  0  0  0  0  0  0  0
   13.5950  -20.3418   21.6796 O   0  0  0  0  0  0  0  0  0  0  0  0
   12.1319  -18.8641   20.4277 C   0  0  0  0  0  0  0  0  0  0  0  0
   10.7761  -18.8562   19.8109 C   0  0  0  0  0  0  0  0  0  0  0  0
   10.3387  -17.5359   19.2356 C   0  0  2  0  0  0  0  0  0  0  0  0
   11.4265  -17.0324   18.4185 N   0  0  0  0  0  0  0  0  0  0  0  0
    9.8413  -16.5730   20.2189 C   0  0  0  0  0  0  0  0  0  0  0  0
   10.6841  -15.6627   20.5565 O   0  0  0  0  0  0  0  0  0  0  0  0
    8.5769  -16.5287   20.8242 N   0  0  0  0  0  0  0  0  0  0  0  0
    7.4000  -17.3579   20.7272 C   0  0  0  0  0  0  0  0  0  0  0  0
    6.3198  -16.2869   20.4907 C   0  0  0  0  0  0  0  0  0  0  0  0
    6.6881  -15.3473   21.6472 C   0  0  0  0  0  0  0  0  0  0  0  0
    8.1818  -15.4891   21.7916 C   0  0  1  0  0  0  0  0  0  0  0  0
    8.5152  -15.9693   23.1561 C   0  0  0  0  0  0  0  0  0  0  0  0
    8.6888  -17.1939   23.3822 O   0  0  0  0  0  0  0  0  0  0  0  0
    8.6486  -15.0741   24.2463 N   0  0  0  0  0  0  0  0  0  0  0  0
    9.0530  -15.5902   25.5635 C   0  0  1  0  0  0  0  0  0  0  0  0
    9.3523  -14.4225   26.4671 C   0  0  0  0  0  0  0  0  0  0  0  0
    8.2976  -13.4025   26.4307 C   0  0  0  0  0  0  0  0  0  0  0  0
    8.3769  -12.2683   25.6625 C   0  0  0  0  0  0  0  0  0  0  0  0
    7.3632  -11.3062   25.6344 C   0  0  0  0  0  0  0  0  0  0  0  0
    6.2529  -11.5276   26.4161 C   0  0  0  0  0  0  0  0  0  0  0  0
    6.1676  -12.6559   27.1843 C   0  0  0  0  0  0  0  0  0  0  0  0
    7.1682  -13.5927   27.2037 C   0  0  0  0  0  0  0  0  0  0  0  0
    8.0085  -16.4865   26.0880 C   0  0  0  0  0  0  0  0  0  0  0  0
    8.2123  -17.1953   27.0997 O   0  0  0  0  0  0  0  0  0  0  0  0
    6.7611  -16.5751   25.4773 O   0  0  0  0  0  0  0  0  0  0  0  0
  2  1  1  0
  2  3  2  0
  4  5  1  0
  4  2  1  0
  5  6  1  0
  6  7  1  1
  8  6  1  0
  8 10  1  0
  9  8  2  0
 10 14  1  0
 10 11  1  0
 12 11  1  0
 13 14  1  0
 13 12  1  0
 14 15  1  1
 16 15  2  0
 17 15  1  0
 18 17  1  0
 18 26  1  0
 19 20  1  0
 18 19  1  1
 20 25  2  0
 21 22  2  0
 21 20  1  0
 22 23  1  0
 23 24  2  0
 25 24  1  0
 26 28  1  0
 27 26  2  0
M  END
$$$$
