QPF.pdb
     RDKit          3D

 28 29  0  0  1  0  0  0  0  0999 V2000
    5.0906  -19.1218   20.2814 N   0  0  0  0  0  0  0  0  0  0  0  0
    6.3229  -19.5171   20.9050 C   0  0  0  0  0  0  0  0  0  0  0  0
    6.2095  -20.3417   21.8443 O   0  0  0  0  0  0  0  0  0  0  0  0
    7.5745  -18.9408   20.4070 C   0  0  0  0  0  0  0  0  0  0  0  0
    7.4258  -17.9645   19.2919 C   0  0  0  0  0  0  0  0  0  0  0  0
    8.6109  -17.0656   19.0616 C   0  0  2  0  0  0  0  0  0  0  0  0
    9.6837  -17.8833   18.5280 N   0  0  0  0  0  0  0  0  0  0  0  0
    9.0007  -16.2566   20.2170 C   0  0  0  0  0  0  0  0  0  0  0  0
   10.1331  -16.5713   20.7383 O   0  0  0  0  0  0  0  0  0  0  0  0
    8.2966  -15.1988   20.8104 N   0  0  0  0  0  0  0  0  0  0  0  0
    6.9967  -14.6172   20.5779 C   0  0  0  0  0  0  0  0  0  0  0  0
    7.3663  -13.1250   20.4969 C   0  0  0  0  0  0  0  0  0  0  0  0
    8.1947  -13.0357   21.7859 C   0  0  0  0  0  0  0  0  0  0  0  0
    8.8360  -14.3932   21.9207 C   0  0  1  0  0  0  0  0  0  0  0  0
    8.4226  -15.0236   23.1995 C   0  0  0  0  0  0  0  0  0  0  0  0
    7.3817  -15.7260   23.2632 O   0  0  0  0  0  0  0  0  0  0  0  0
    9.1781  -14.8587   24.3869 N   0  0  0  0  0  0  0  0  0  0  0  0
    8.7500  -15.5387   25.6194 C   0  0  1  0  0  0  0  0  0  0  0  0
    7.2727  -15.3108   25.8070 C   0  0  0  0  0  0  0  0  0  0  0  0
    6.9558  -13.9073   26.0969 C   0  0  0  0  0  0  0  0  0  0  0  0
    7.8794  -13.0132   26.5766 C   0  0  0  0  0  0  0  0  0  0  0  0
    7.5651  -11.6779   26.8451 C   0  0  0  0  0  0  0  0  0  0  0  0
    6.2726  -11.2683   26.6115 C   0  0  0  0  0  0  0  0  0  0  0  0
    5.3469  -12.1545   26.1336 C   0  0  0  0  0  0  0  0  0  0  0  0
    5.6669  -13.4619   25.8738 C   0  0  0  0  0  0  0  0  0  0  0  0
    9.1213  -16.9627   25.5557 C   0  0  0  0  0  0  0  0  0  0  0  0
    8.7778  -17.7619   26.4562 O   0  0  0  0  0  0  0  0  0  0  0  0
    9.8655  -17.4670   24.4934 O   0  0  0  0  0  0  0  0  0  0  0  0
  2  1  1  0
  2  3  2  0
  4  5  1  0
  4  2  1  0
  5  6  1  0
  6  7  1  1
  8  6  1  0
  8 10  1  0
  9  8  2  0
 10 14  1  0
 10 11  1  0
 12 11  1  0
 13 14  1  0
 13 12  1  0
 14 15  1  1
 16 15  2  0
 17 15  1  0
 18 17  1  0
 18 26  1  0
 19 20  1  0
 18 19  1  6
 20 25  2  0
 21 22  2  0
 21 20  1  0
 22 23  1  0
 23 24  2  0
 25 24  1  0
 26 28  1  0
 27 26  2  0
M  END
$$$$
