QPF.pdb
     RDKit          3D

 28 29  0  0  1  0  0  0  0  0999 V2000
    4.3890  -18.7213   19.5848 N   0  0  0  0  0  0  0  0  0  0  0  0
    5.5327  -19.3040   20.2299 C   0  0  0  0  0  0  0  0  0  0  0  0
    5.2885  -20.2860   20.9724 O   0  0  0  0  0  0  0  0  0  0  0  0
    6.8520  -18.7200   19.9750 C   0  0  0  0  0  0  0  0  0  0  0  0
    6.8535  -17.5024   19.1170 C   0  0  0  0  0  0  0  0  0  0  0  0
    8.2062  -16.8891   18.8731 C   0  0  2  0  0  0  0  0  0  0  0  0
    9.0886  -17.9440   18.4118 N   0  0  0  0  0  0  0  0  0  0  0  0
    8.7411  -16.1174   19.9954 C   0  0  0  0  0  0  0  0  0  0  0  0
    9.8414  -16.5684   20.4844 O   0  0  0  0  0  0  0  0  0  0  0  0
    8.2037  -14.9656   20.5884 N   0  0  0  0  0  0  0  0  0  0  0  0
    7.0572  -14.1402   20.2945 C   0  0  0  0  0  0  0  0  0  0  0  0
    7.7044  -12.7435   20.3101 C   0  0  0  0  0  0  0  0  0  0  0  0
    8.4335  -12.8566   21.6560 C   0  0  0  0  0  0  0  0  0  0  0  0
    8.7974  -14.3149   21.7702 C   0  0  1  0  0  0  0  0  0  0  0  0
    8.1765  -14.8979   22.9860 C   0  0  0  0  0  0  0  0  0  0  0  0
    7.1415  -14.3889   23.4865 O   0  0  0  0  0  0  0  0  0  0  0  0
    8.7220  -16.0397   23.6237 N   0  0  0  0  0  0  0  0  0  0  0  0
    9.1343  -15.9555   25.0336 C   0  0  1  0  0  0  0  0  0  0  0  0
    9.3407  -14.5062   25.3893 C   0  0  0  0  0  0  0  0  0  0  0  0
    8.1009  -13.8566   25.8306 C   0  0  0  0  0  0  0  0  0  0  0  0
    6.8721  -14.4641   25.7677 C   0  0  0  0  0  0  0  0  0  0  0  0
    5.6991  -13.8351   26.1949 C   0  0  0  0  0  0  0  0  0  0  0  0
    5.8066  -12.5575   26.6936 C   0  0  0  0  0  0  0  0  0  0  0  0
    7.0284  -11.9460   26.7589 C   0  0  0  0  0  0  0  0  0  0  0  0
    8.1721  -12.5729   26.3370 C   0  0  0  0  0  0  0  0  0  0  0  0
    8.1402  -16.6332   25.8833 C   0  0  0  0  0  0  0  0  0  0  0  0
    7.0311  -16.9887   25.4238 O   0  0  0  0  0  0  0  0  0  0  0  0
    8.4003  -16.9009   27.2240 O   0  0  0  0  0  0  0  0  0  0  0  0
  2  1  1  0
  2  3  2  0
  4  5  1  0
  4  2  1  0
  5  6  1  0
  6  7  1  1
  8  6  1  0
  8 10  1  0
  9  8  2  0
 10 14  1  0
 10 11  1  0
 12 11  1  0
 13 14  1  0
 13 12  1  0
 14 15  1  1
 16 15  2  0
 17 15  1  0
 18 17  1  0
 18 26  1  0
 19 20  1  0
 18 19  1  1
 20 25  2  0
 21 22  2  0
 21 20  1  0
 22 23  1  0
 23 24  2  0
 25 24  1  0
 26 28  1  0
 27 26  2  0
M  END
$$$$
