QPF.pdb
     RDKit          3D

 28 29  0  0  1  0  0  0  0  0999 V2000
    5.3151  -19.2624   24.3270 N   0  0  0  0  0  0  0  0  0  0  0  0
    6.7296  -19.4828   24.2069 C   0  0  0  0  0  0  0  0  0  0  0  0
    7.2980  -19.9032   25.2438 O   0  0  0  0  0  0  0  0  0  0  0  0
    7.3732  -19.2060   22.9201 C   0  0  0  0  0  0  0  0  0  0  0  0
    6.4804  -18.6384   21.8714 C   0  0  0  0  0  0  0  0  0  0  0  0
    7.1832  -17.9559   20.7288 C   0  0  2  0  0  0  0  0  0  0  0  0
    7.8628  -18.9800   19.9583 N   0  0  0  0  0  0  0  0  0  0  0  0
    8.0436  -16.8381   21.1177 C   0  0  0  0  0  0  0  0  0  0  0  0
    9.3013  -17.1049   21.1315 O   0  0  0  0  0  0  0  0  0  0  0  0
    7.6635  -15.5350   21.4707 N   0  0  0  0  0  0  0  0  0  0  0  0
    6.3872  -14.8766   21.6108 C   0  0  0  0  0  0  0  0  0  0  0  0
    6.6337  -13.6048   20.7793 C   0  0  0  0  0  0  0  0  0  0  0  0
    7.9615  -13.1793   21.4208 C   0  0  0  0  0  0  0  0  0  0  0  0
    8.6317  -14.4744   21.8027 C   0  0  1  0  0  0  0  0  0  0  0  0
    8.8755  -14.5057   23.2667 C   0  0  0  0  0  0  0  0  0  0  0  0
    8.4345  -13.5939   24.0116 O   0  0  0  0  0  0  0  0  0  0  0  0
    9.6086  -15.5546   23.8751 N   0  0  0  0  0  0  0  0  0  0  0  0
    9.7318  -15.5985   25.3406 C   0  0  1  0  0  0  0  0  0  0  0  0
    8.3497  -15.6197   25.9396 C   0  0  0  0  0  0  0  0  0  0  0  0
    7.8176  -14.2708   26.1664 C   0  0  0  0  0  0  0  0  0  0  0  0
    8.5302  -13.2785   26.7911 C   0  0  0  0  0  0  0  0  0  0  0  0
    8.0127  -11.9965   26.9976 C   0  0  0  0  0  0  0  0  0  0  0  0
    6.7371  -11.7444   26.5482 C   0  0  0  0  0  0  0  0  0  0  0  0
    6.0212  -12.7292   25.9249 C   0  0  0  0  0  0  0  0  0  0  0  0
    6.5393  -13.9829   25.7279 C   0  0  0  0  0  0  0  0  0  0  0  0
   10.5609  -16.7502   25.7352 C   0  0  0  0  0  0  0  0  0  0  0  0
   10.8982  -16.9262   26.9280 O   0  0  0  0  0  0  0  0  0  0  0  0
   10.9967  -17.6804   24.7962 O   0  0  0  0  0  0  0  0  0  0  0  0
  2  1  1  0
  2  3  2  0
  4  5  1  0
  4  2  1  0
  5  6  1  0
  6  7  1  1
  8  6  1  0
  8 10  1  0
  9  8  2  0
 10 14  1  0
 10 11  1  0
 12 11  1  0
 13 14  1  0
 13 12  1  0
 14 15  1  1
 16 15  2  0
 17 15  1  0
 18 17  1  0
 18 26  1  0
 19 20  1  0
 18 19  1  1
 20 25  2  0
 21 22  2  0
 21 20  1  0
 22 23  1  0
 23 24  2  0
 25 24  1  0
 26 28  1  0
 27 26  2  0
M  END
$$$$
