QPF.pdb
     RDKit          3D

 28 29  0  0  1  0  0  0  0  0999 V2000
    6.8768  -22.1309   18.3624 N   0  0  0  0  0  0  0  0  0  0  0  0
    6.7493  -20.7073   18.2176 C   0  0  0  0  0  0  0  0  0  0  0  0
    7.4291  -20.1981   17.2937 O   0  0  0  0  0  0  0  0  0  0  0  0
    5.8613  -19.9883   19.1348 C   0  0  0  0  0  0  0  0  0  0  0  0
    6.2990  -18.6108   19.4947 C   0  0  0  0  0  0  0  0  0  0  0  0
    6.7483  -18.4303   20.9198 C   0  0  2  0  0  0  0  0  0  0  0  0
    5.5716  -18.1382   21.7163 N   0  0  0  0  0  0  0  0  0  0  0  0
    7.8399  -17.4730   21.1022 C   0  0  0  0  0  0  0  0  0  0  0  0
    9.0157  -17.9492   20.8924 O   0  0  0  0  0  0  0  0  0  0  0  0
    7.7547  -16.1228   21.4722 N   0  0  0  0  0  0  0  0  0  0  0  0
    6.6663  -15.2772   21.8994 C   0  0  0  0  0  0  0  0  0  0  0  0
    6.8664  -14.0685   20.9675 C   0  0  0  0  0  0  0  0  0  0  0  0
    8.3621  -13.8401   21.2254 C   0  0  0  0  0  0  0  0  0  0  0  0
    8.9169  -15.2165   21.4902 C   0  0  1  0  0  0  0  0  0  0  0  0
    9.5265  -15.2649   22.8428 C   0  0  0  0  0  0  0  0  0  0  0  0
   10.6320  -14.7107   23.0700 O   0  0  0  0  0  0  0  0  0  0  0  0
    8.8919  -15.9321   23.9198 N   0  0  0  0  0  0  0  0  0  0  0  0
    9.5221  -15.9261   25.2493 C   0  0  1  0  0  0  0  0  0  0  0  0
    9.7303  -14.4967   25.6772 C   0  0  0  0  0  0  0  0  0  0  0  0
    8.4672  -13.8154   25.9845 C   0  0  0  0  0  0  0  0  0  0  0  0
    7.2523  -14.2344   25.5036 C   0  0  0  0  0  0  0  0  0  0  0  0
    6.0560  -13.5781   25.8071 C   0  0  0  0  0  0  0  0  0  0  0  0
    6.1253  -12.4715   26.6215 C   0  0  0  0  0  0  0  0  0  0  0  0
    7.3331  -12.0483   27.1041 C   0  0  0  0  0  0  0  0  0  0  0  0
    8.4999  -12.7001   26.7997 C   0  0  0  0  0  0  0  0  0  0  0  0
    8.7028  -16.7080   26.1911 C   0  0  0  0  0  0  0  0  0  0  0  0
    7.5847  -17.1600   25.8551 O   0  0  0  0  0  0  0  0  0  0  0  0
    9.1439  -16.9702   27.4847 O   0  0  0  0  0  0  0  0  0  0  0  0
  2  1  1  0
  2  3  2  0
  4  5  1  0
  4  2  1  0
  5  6  1  0
  6  7  1  1
  8  6  1  0
  8 10  1  0
  9  8  2  0
 10 14  1  0
 10 11  1  0
 12 11  1  0
 13 14  1  0
 13 12  1  0
 14 15  1  1
 16 15  2  0
 17 15  1  0
 18 17  1  0
 18 26  1  0
 19 20  1  0
 18 19  1  1
 20 25  2  0
 21 22  2  0
 21 20  1  0
 22 23  1  0
 23 24  2  0
 25 24  1  0
 26 28  1  0
 27 26  2  0
M  END
$$$$
