QPF.pdb
     RDKit          3D

 28 29  0  0  1  0  0  0  0  0999 V2000
   12.8025  -13.1576   18.9707 N   0  0  0  0  0  0  0  0  0  0  0  0
   12.1755  -13.5192   20.2116 C   0  0  0  0  0  0  0  0  0  0  0  0
   12.9456  -13.9807   21.0884 O   0  0  0  0  0  0  0  0  0  0  0  0
   10.7295  -13.3249   20.3466 C   0  0  0  0  0  0  0  0  0  0  0  0
    9.8998  -13.9699   19.2910 C   0  0  0  0  0  0  0  0  0  0  0  0
    8.4116  -13.8326   19.4692 C   0  0  2  0  0  0  0  0  0  0  0  0
    8.0695  -12.4417   19.2395 N   0  0  0  0  0  0  0  0  0  0  0  0
    7.8922  -14.3707   20.7269 C   0  0  0  0  0  0  0  0  0  0  0  0
    7.4594  -13.4867   21.5540 O   0  0  0  0  0  0  0  0  0  0  0  0
    7.8134  -15.7126   21.1275 N   0  0  0  0  0  0  0  0  0  0  0  0
    8.2682  -16.9514   20.5438 C   0  0  0  0  0  0  0  0  0  0  0  0
    6.9837  -17.7947   20.6371 C   0  0  0  0  0  0  0  0  0  0  0  0
    6.6631  -17.5400   22.1163 C   0  0  0  0  0  0  0  0  0  0  0  0
    7.1664  -16.1438   22.3797 C   0  0  1  0  0  0  0  0  0  0  0  0
    8.1932  -16.1697   23.4515 C   0  0  0  0  0  0  0  0  0  0  0  0
    9.4047  -16.3636   23.1768 O   0  0  0  0  0  0  0  0  0  0  0  0
    7.8501  -15.9794   24.8131 N   0  0  0  0  0  0  0  0  0  0  0  0
    8.8880  -16.1101   25.8478 C   0  0  1  0  0  0  0  0  0  0  0  0
    8.5623  -15.1690   26.9782 C   0  0  0  0  0  0  0  0  0  0  0  0
    7.9573  -13.9175   26.5073 C   0  0  0  0  0  0  0  0  0  0  0  0
    8.6905  -12.8722   26.0050 C   0  0  0  0  0  0  0  0  0  0  0  0
    8.1011  -11.6867   25.5564 C   0  0  0  0  0  0  0  0  0  0  0  0
    6.7310  -11.5881   25.6320 C   0  0  0  0  0  0  0  0  0  0  0  0
    5.9941  -12.6263   26.1318 C   0  0  0  0  0  0  0  0  0  0  0  0
    6.5833  -13.7843   26.5687 C   0  0  0  0  0  0  0  0  0  0  0  0
    8.9962  -17.5178   26.2679 C   0  0  0  0  0  0  0  0  0  0  0  0
    8.1338  -18.3612   25.9327 O   0  0  0  0  0  0  0  0  0  0  0  0
   10.0598  -17.9569   27.0507 O   0  0  0  0  0  0  0  0  0  0  0  0
  2  1  1  0
  2  3  2  0
  4  5  1  0
  4  2  1  0
  5  6  1  0
  6  7  1  1
  8  6  1  0
  8 10  1  0
  9  8  2  0
 10 14  1  0
 10 11  1  0
 12 11  1  0
 13 14  1  0
 13 12  1  0
 14 15  1  1
 16 15  2  0
 17 15  1  0
 18 17  1  0
 18 26  1  0
 19 20  1  0
 18 19  1  1
 20 25  2  0
 21 22  2  0
 21 20  1  0
 22 23  1  0
 23 24  2  0
 25 24  1  0
 26 28  1  0
 27 26  2  0
M  END
$$$$
