QPF.pdb
     RDKit          3D

 28 29  0  0  1  0  0  0  0  0999 V2000
   11.6002  -20.7989   22.1198 N   0  0  0  0  0  0  0  0  0  0  0  0
   11.0163  -20.3503   20.8863 C   0  0  0  0  0  0  0  0  0  0  0  0
   10.4202  -21.2323   20.2217 O   0  0  0  0  0  0  0  0  0  0  0  0
   11.1615  -18.9399   20.5166 C   0  0  0  0  0  0  0  0  0  0  0  0
   10.4125  -18.5212   19.2991 C   0  0  0  0  0  0  0  0  0  0  0  0
   10.4426  -17.0462   19.0009 C   0  0  2  0  0  0  0  0  0  0  0  0
   11.7564  -16.7332   18.4713 N   0  0  0  0  0  0  0  0  0  0  0  0
   10.0315  -16.1873   20.1120 C   0  0  0  0  0  0  0  0  0  0  0  0
   10.9766  -15.4861   20.6300 O   0  0  0  0  0  0  0  0  0  0  0  0
    8.7516  -16.0429   20.6670 N   0  0  0  0  0  0  0  0  0  0  0  0
    7.4830  -16.6834   20.4171 C   0  0  0  0  0  0  0  0  0  0  0  0
    6.5689  -15.4527   20.2774 C   0  0  0  0  0  0  0  0  0  0  0  0
    6.9914  -14.7212   21.5589 C   0  0  0  0  0  0  0  0  0  0  0  0
    8.4427  -15.0845   21.7434 C   0  0  1  0  0  0  0  0  0  0  0  0
    8.6313  -15.7690   23.0471 C   0  0  0  0  0  0  0  0  0  0  0  0
    8.6862  -17.0234   23.1127 O   0  0  0  0  0  0  0  0  0  0  0  0
    8.7549  -15.0414   24.2567 N   0  0  0  0  0  0  0  0  0  0  0  0
    9.2904  -15.7091   25.4534 C   0  0  1  0  0  0  0  0  0  0  0  0
    9.6803  -14.6566   26.4583 C   0  0  0  0  0  0  0  0  0  0  0  0
    8.5957  -13.7027   26.7184 C   0  0  0  0  0  0  0  0  0  0  0  0
    8.5073  -12.9632   27.8709 C   0  0  0  0  0  0  0  0  0  0  0  0
    7.4705  -12.0552   28.1045 C   0  0  0  0  0  0  0  0  0  0  0  0
    6.5135  -11.9154   27.1261 C   0  0  0  0  0  0  0  0  0  0  0  0
    6.5955  -12.6497   25.9750 C   0  0  0  0  0  0  0  0  0  0  0  0
    7.6172  -13.5372   25.7570 C   0  0  0  0  0  0  0  0  0  0  0  0
    8.3040  -16.6749   25.9669 C   0  0  0  0  0  0  0  0  0  0  0  0
    8.5833  -17.4428   26.9154 O   0  0  0  0  0  0  0  0  0  0  0  0
    7.0294  -16.7659   25.4154 O   0  0  0  0  0  0  0  0  0  0  0  0
  2  1  1  0
  2  3  2  0
  4  5  1  0
  4  2  1  0
  5  6  1  0
  6  7  1  1
  8  6  1  0
  8 10  1  0
  9  8  2  0
 10 14  1  0
 10 11  1  0
 12 11  1  0
 13 14  1  0
 13 12  1  0
 14 15  1  1
 16 15  2  0
 17 15  1  0
 18 17  1  0
 18 26  1  0
 19 20  1  0
 18 19  1  1
 20 25  2  0
 21 22  2  0
 21 20  1  0
 22 23  1  0
 23 24  2  0
 25 24  1  0
 26 28  1  0
 27 26  2  0
M  END
$$$$
