QPF.pdb
     RDKit          3D

 28 29  0  0  1  0  0  0  0  0999 V2000
   13.3536  -14.5406   18.5602 N   0  0  0  0  0  0  0  0  0  0  0  0
   12.5161  -14.3905   19.7177 C   0  0  0  0  0  0  0  0  0  0  0  0
   13.1025  -14.0086   20.7595 O   0  0  0  0  0  0  0  0  0  0  0  0
   11.0871  -14.6876   19.5896 C   0  0  0  0  0  0  0  0  0  0  0  0
   10.2846  -13.6562   18.8748 C   0  0  0  0  0  0  0  0  0  0  0  0
    8.7994  -13.8993   18.8509 C   0  0  2  0  0  0  0  0  0  0  0  0
    8.1730  -12.7264   18.2711 N   0  0  0  0  0  0  0  0  0  0  0  0
    8.2238  -14.3057   20.1334 C   0  0  0  0  0  0  0  0  0  0  0  0
    7.9543  -13.3372   20.9349 O   0  0  0  0  0  0  0  0  0  0  0  0
    7.9375  -15.6036   20.5814 N   0  0  0  0  0  0  0  0  0  0  0  0
    8.1743  -16.9177   20.0343 C   0  0  0  0  0  0  0  0  0  0  0  0
    6.7727  -17.5383   20.1759 C   0  0  0  0  0  0  0  0  0  0  0  0
    6.5275  -17.1881   21.6500 C   0  0  0  0  0  0  0  0  0  0  0  0
    7.2549  -15.8842   21.8573 C   0  0  1  0  0  0  0  0  0  0  0  0
    8.2856  -16.0420   22.9140 C   0  0  0  0  0  0  0  0  0  0  0  0
    9.3822  -16.6037   22.6637 O   0  0  0  0  0  0  0  0  0  0  0  0
    8.0744  -15.5706   24.2335 N   0  0  0  0  0  0  0  0  0  0  0  0
    9.1393  -15.7228   25.2373 C   0  0  1  0  0  0  0  0  0  0  0  0
    9.4815  -14.3623   25.7864 C   0  0  0  0  0  0  0  0  0  0  0  0
    8.2913  -13.5317   26.0046 C   0  0  0  0  0  0  0  0  0  0  0  0
    7.7076  -13.3657   27.2353 C   0  0  0  0  0  0  0  0  0  0  0  0
    6.5759  -12.5686   27.4299 C   0  0  0  0  0  0  0  0  0  0  0  0
    6.0450  -11.9365   26.3293 C   0  0  0  0  0  0  0  0  0  0  0  0
    6.6217  -12.0979   25.0997 C   0  0  0  0  0  0  0  0  0  0  0  0
    7.7317  -12.8822   24.9210 C   0  0  0  0  0  0  0  0  0  0  0  0
    8.7150  -16.6835   26.2701 C   0  0  0  0  0  0  0  0  0  0  0  0
    7.5353  -17.0996   26.3211 O   0  0  0  0  0  0  0  0  0  0  0  0
    9.6105  -17.1604   27.2227 O   0  0  0  0  0  0  0  0  0  0  0  0
  2  1  1  0
  2  3  2  0
  4  5  1  0
  4  2  1  0
  5  6  1  0
  6  7  1  1
  8  6  1  0
  8 10  1  0
  9  8  2  0
 10 14  1  0
 10 11  1  0
 12 11  1  0
 13 14  1  0
 13 12  1  0
 14 15  1  1
 16 15  2  0
 17 15  1  0
 18 17  1  0
 18 26  1  0
 19 20  1  0
 18 19  1  1
 20 25  2  0
 21 22  2  0
 21 20  1  0
 22 23  1  0
 23 24  2  0
 25 24  1  0
 26 28  1  0
 27 26  2  0
M  END
$$$$
