QPF.pdb
     RDKit          3D

 28 29  0  0  1  0  0  0  0  0999 V2000
   10.9434  -21.6733   21.2356 N   0  0  0  0  0  0  0  0  0  0  0  0
   11.0381  -21.6032   19.8039 C   0  0  0  0  0  0  0  0  0  0  0  0
   11.5069  -22.6248   19.2456 O   0  0  0  0  0  0  0  0  0  0  0  0
   10.5922  -20.3793   19.1331 C   0  0  0  0  0  0  0  0  0  0  0  0
   10.0084  -19.3406   20.0270 C   0  0  0  0  0  0  0  0  0  0  0  0
    9.9176  -17.9598   19.4351 C   0  0  2  0  0  0  0  0  0  0  0  0
   11.1515  -17.7103   18.7143 N   0  0  0  0  0  0  0  0  0  0  0  0
    9.5641  -16.9064   20.3873 C   0  0  0  0  0  0  0  0  0  0  0  0
   10.5576  -16.2135   20.8186 O   0  0  0  0  0  0  0  0  0  0  0  0
    8.2925  -16.5712   20.8749 N   0  0  0  0  0  0  0  0  0  0  0  0
    6.9700  -17.1012   20.6463 C   0  0  0  0  0  0  0  0  0  0  0  0
    6.1962  -15.8057   20.3424 C   0  0  0  0  0  0  0  0  0  0  0  0
    6.6598  -14.9858   21.5543 C   0  0  0  0  0  0  0  0  0  0  0  0
    8.0588  -15.4742   21.8312 C   0  0  1  0  0  0  0  0  0  0  0  0
    8.1387  -16.0277   23.2062 C   0  0  0  0  0  0  0  0  0  0  0  0
    8.0946  -17.2687   23.4034 O   0  0  0  0  0  0  0  0  0  0  0  0
    8.2661  -15.1862   24.3392 N   0  0  0  0  0  0  0  0  0  0  0  0
    8.5443  -15.7800   25.6563 C   0  0  1  0  0  0  0  0  0  0  0  0
    8.9134  -14.6769   26.6136 C   0  0  0  0  0  0  0  0  0  0  0  0
    7.9080  -13.6084   26.6503 C   0  0  0  0  0  0  0  0  0  0  0  0
    8.1401  -12.3431   26.1729 C   0  0  0  0  0  0  0  0  0  0  0  0
    7.1720  -11.3354   26.2106 C   0  0  0  0  0  0  0  0  0  0  0  0
    5.9469  -11.6488   26.7525 C   0  0  0  0  0  0  0  0  0  0  0  0
    5.7090  -12.9081   27.2304 C   0  0  0  0  0  0  0  0  0  0  0  0
    6.6662  -13.8884   27.1879 C   0  0  0  0  0  0  0  0  0  0  0  0
    7.3864  -16.5770   26.0965 C   0  0  0  0  0  0  0  0  0  0  0  0
    6.2633  -16.4368   25.5613 O   0  0  0  0  0  0  0  0  0  0  0  0
    7.5021  -17.5117   27.1211 O   0  0  0  0  0  0  0  0  0  0  0  0
  2  1  1  0
  2  3  2  0
  4  5  1  0
  4  2  1  0
  5  6  1  0
  6  7  1  1
  8  6  1  0
  8 10  1  0
  9  8  2  0
 10 14  1  0
 10 11  1  0
 12 11  1  0
 13 14  1  0
 13 12  1  0
 14 15  1  1
 16 15  2  0
 17 15  1  0
 18 17  1  0
 18 26  1  0
 19 20  1  0
 18 19  1  1
 20 25  2  0
 21 22  2  0
 21 20  1  0
 22 23  1  0
 23 24  2  0
 25 24  1  0
 26 28  1  0
 27 26  2  0
M  END
$$$$
