QPF.pdb
     RDKit          3D

 28 29  0  0  1  0  0  0  0  0999 V2000
    3.0715  -18.0127   22.1025 N   0  0  0  0  0  0  0  0  0  0  0  0
    4.3732  -18.3826   22.5846 C   0  0  0  0  0  0  0  0  0  0  0  0
    4.4133  -18.7768   23.7754 O   0  0  0  0  0  0  0  0  0  0  0  0
    5.5139  -18.2718   21.6719 C   0  0  0  0  0  0  0  0  0  0  0  0
    5.2142  -17.6505   20.3517 C   0  0  0  0  0  0  0  0  0  0  0  0
    6.4082  -17.4134   19.4664 C   0  0  2  0  0  0  0  0  0  0  0  0
    6.8185  -18.6978   18.9313 N   0  0  0  0  0  0  0  0  0  0  0  0
    7.4942  -16.6572   20.0909 C   0  0  0  0  0  0  0  0  0  0  0  0
    8.5815  -17.3204   20.2670 O   0  0  0  0  0  0  0  0  0  0  0  0
    7.4871  -15.3193   20.5119 N   0  0  0  0  0  0  0  0  0  0  0  0
    6.4654  -14.3021   20.5701 C   0  0  0  0  0  0  0  0  0  0  0  0
    7.1929  -13.1327   19.8825 C   0  0  0  0  0  0  0  0  0  0  0  0
    8.4929  -13.1758   20.6975 C   0  0  0  0  0  0  0  0  0  0  0  0
    8.6813  -14.6325   21.0362 C   0  0  1  0  0  0  0  0  0  0  0  0
    8.7129  -14.8095   22.5098 C   0  0  0  0  0  0  0  0  0  0  0  0
    7.8015  -14.3349   23.2341 O   0  0  0  0  0  0  0  0  0  0  0  0
    9.7627  -15.5132   23.1507 N   0  0  0  0  0  0  0  0  0  0  0  0
   10.2259  -15.0752   24.4767 C   0  0  1  0  0  0  0  0  0  0  0  0
    9.0968  -15.2408   25.4602 C   0  0  0  0  0  0  0  0  0  0  0  0
    9.4998  -14.9176   26.8340 C   0  0  0  0  0  0  0  0  0  0  0  0
    9.5527  -13.6349   27.3182 C   0  0  0  0  0  0  0  0  0  0  0  0
    9.9349  -13.3412   28.6304 C   0  0  0  0  0  0  0  0  0  0  0  0
   10.2665  -14.3963   29.4486 C   0  0  0  0  0  0  0  0  0  0  0  0
   10.2161  -15.6774   28.9722 C   0  0  0  0  0  0  0  0  0  0  0  0
    9.8396  -15.9532   27.6833 C   0  0  0  0  0  0  0  0  0  0  0  0
   11.4424  -15.8180   24.8484 C   0  0  0  0  0  0  0  0  0  0  0  0
   12.2962  -15.3187   25.6161 O   0  0  0  0  0  0  0  0  0  0  0  0
   11.6831  -17.0984   24.3591 O   0  0  0  0  0  0  0  0  0  0  0  0
  2  1  1  0
  2  3  2  0
  4  5  1  0
  4  2  1  0
  5  6  1  0
  6  7  1  1
  8  6  1  0
  8 10  1  0
  9  8  2  0
 10 14  1  0
 10 11  1  0
 12 11  1  0
 13 14  1  0
 13 12  1  0
 14 15  1  1
 16 15  2  0
 17 15  1  0
 18 17  1  0
 18 26  1  0
 19 20  1  0
 18 19  1  1
 20 25  2  0
 21 22  2  0
 21 20  1  0
 22 23  1  0
 23 24  2  0
 25 24  1  0
 26 28  1  0
 27 26  2  0
M  END
$$$$
