NFI.pdb
     RDKit          3D

 28 28  0  0  1  0  0  0  0  0999 V2000
    8.1678  -13.6158   16.3602 N   0  0  0  0  0  0  0  0  0  0  0  0
    7.9586  -14.5488   17.3973 C   0  0  0  0  0  0  0  0  0  0  0  0
    7.7194  -15.7369   17.1176 O   0  0  0  0  0  0  0  0  0  0  0  0
    8.0232  -14.1211   18.8012 C   0  0  0  0  0  0  0  0  0  0  0  0
    8.3419  -15.2811   19.6739 C   0  0  2  0  0  0  0  0  0  0  0  0
    7.3593  -16.3431   19.6016 N   0  0  0  0  0  0  0  0  0  0  0  0
    8.6942  -14.9325   21.0689 C   0  0  0  0  0  0  0  0  0  0  0  0
    9.8103  -14.3565   21.2541 O   0  0  0  0  0  0  0  0  0  0  0  0
    7.8150  -15.2347   22.1359 N   0  0  0  0  0  0  0  0  0  0  0  0
    8.2133  -14.9355   23.5060 C   0  0  1  0  0  0  0  0  0  0  0  0
    6.9742  -14.5344   24.2601 C   0  0  0  0  0  0  0  0  0  0  0  0
    7.1931  -13.8692   25.5353 C   0  0  0  0  0  0  0  0  0  0  0  0
    7.5747  -14.5530   26.6758 C   0  0  0  0  0  0  0  0  0  0  0  0
    7.7771  -13.8973   27.8741 C   0  0  0  0  0  0  0  0  0  0  0  0
    7.6086  -12.5352   27.9844 C   0  0  0  0  0  0  0  0  0  0  0  0
    7.2257  -11.8474   26.8387 C   0  0  0  0  0  0  0  0  0  0  0  0
    7.0207  -12.4993   25.6331 C   0  0  0  0  0  0  0  0  0  0  0  0
    8.8231  -16.1029   24.1619 C   0  0  0  0  0  0  0  0  0  0  0  0
    8.2602  -17.1979   24.0897 O   0  0  0  0  0  0  0  0  0  0  0  0
   13.2957  -16.8698   22.8822 C   0  0  0  0  0  0  0  0  0  0  0  0
   12.1232  -17.5564   23.5074 C   0  0  0  0  0  0  0  0  0  0  0  0
   12.0642  -17.4310   25.0097 C   0  0  2  0  0  0  0  0  0  0  0  0
   12.6699  -18.6538   25.6728 C   0  0  0  0  0  0  0  0  0  0  0  0
   10.7036  -17.1041   25.5472 C   0  0  2  0  0  0  0  0  0  0  0  0
   10.0662  -16.0057   24.8920 N   0  0  0  0  0  0  0  0  0  0  0  0
   10.5972  -17.0828   27.0173 C   0  0  0  0  0  0  0  0  0  0  0  0
   10.3696  -15.9003   27.7545 O   0  0  0  0  0  0  0  0  0  0  0  0
   10.6993  -18.1087   27.7387 O   0  0  0  0  0  0  0  0  0  0  0  0
  1  2  1  0
  2  3  2  0
  4  2  1  0
  4  5  1  0
  5  6  1  1
  7  5  1  0
  7  8  2  0
  9  7  1  0
 10  9  1  0
 11 12  1  0
 10 11  1  1
 12 13  2  0
 12 17  1  0
 13 14  1  0
 14 15  2  0
 16 15  1  0
 17 16  2  0
 18 10  1  0
 19 18  2  0
 21 20  1  0
 22 21  1  0
 22 23  1  1
 24 22  1  0
 24 25  1  1
 25 18  1  0
 26 24  1  0
 27 26  1  0
 28 26  2  0
M  END
$$$$
