NFI.pdb
     RDKit          3D

 28 28  0  0  1  0  0  0  0  0999 V2000
   12.8830  -18.0904   17.9043 N   0  0  0  0  0  0  0  0  0  0  0  0
   11.5001  -17.8532   18.0503 C   0  0  0  0  0  0  0  0  0  0  0  0
   10.6863  -18.5432   17.4110 O   0  0  0  0  0  0  0  0  0  0  0  0
   11.0219  -16.7974   18.9529 C   0  0  0  0  0  0  0  0  0  0  0  0
   10.6555  -17.3797   20.2703 C   0  0  2  0  0  0  0  0  0  0  0  0
    9.6132  -18.3823   20.1867 N   0  0  0  0  0  0  0  0  0  0  0  0
   10.4003  -16.3885   21.3398 C   0  0  0  0  0  0  0  0  0  0  0  0
   11.2939  -15.5079   21.5338 O   0  0  0  0  0  0  0  0  0  0  0  0
    9.2087  -16.4348   22.1019 N   0  0  0  0  0  0  0  0  0  0  0  0
    9.0035  -15.4745   23.1795 C   0  0  1  0  0  0  0  0  0  0  0  0
    7.5263  -15.1999   23.2659 C   0  0  0  0  0  0  0  0  0  0  0  0
    7.1151  -14.2464   24.2847 C   0  0  0  0  0  0  0  0  0  0  0  0
    6.3167  -14.6011   25.3574 C   0  0  0  0  0  0  0  0  0  0  0  0
    5.9414  -13.6763   26.3119 C   0  0  0  0  0  0  0  0  0  0  0  0
    6.3464  -12.3625   26.2367 C   0  0  0  0  0  0  0  0  0  0  0  0
    7.1491  -12.0056   25.1594 C   0  0  0  0  0  0  0  0  0  0  0  0
    7.5291  -12.9285   24.1980 C   0  0  0  0  0  0  0  0  0  0  0  0
    9.4754  -15.9980   24.4710 C   0  0  0  0  0  0  0  0  0  0  0  0
    9.1704  -17.1455   24.8047 O   0  0  0  0  0  0  0  0  0  0  0  0
   10.4778  -13.8571   30.1506 C   0  0  0  0  0  0  0  0  0  0  0  0
   10.8808  -14.8489   29.1062 C   0  0  0  0  0  0  0  0  0  0  0  0
   10.4458  -14.4837   27.7084 C   0  0  2  0  0  0  0  0  0  0  0  0
    9.0374  -13.9199   27.7167 C   0  0  0  0  0  0  0  0  0  0  0  0
   10.6158  -15.5832   26.7038 C   0  0  2  0  0  0  0  0  0  0  0  0
   10.2883  -15.2056   25.3650 N   0  0  0  0  0  0  0  0  0  0  0  0
   10.0868  -16.8965   27.1141 C   0  0  0  0  0  0  0  0  0  0  0  0
    8.7147  -17.2249   27.0558 O   0  0  0  0  0  0  0  0  0  0  0  0
   10.8059  -17.8328   27.5492 O   0  0  0  0  0  0  0  0  0  0  0  0
  1  2  1  0
  2  3  2  0
  4  2  1  0
  4  5  1  0
  5  6  1  6
  7  5  1  0
  7  8  2  0
  9  7  1  0
 10  9  1  0
 11 12  1  0
 10 11  1  1
 12 13  2  0
 12 17  1  0
 13 14  1  0
 14 15  2  0
 16 15  1  0
 17 16  2  0
 18 10  1  0
 19 18  2  0
 21 20  1  0
 22 21  1  0
 22 23  1  1
 24 22  1  0
 24 25  1  6
 25 18  1  0
 26 24  1  0
 27 26  1  0
 28 26  2  0
M  END
$$$$
