NFI.pdb
     RDKit          3D

 28 28  0  0  1  0  0  0  0  0999 V2000
   10.5592  -16.4477   16.7741 N   0  0  0  0  0  0  0  0  0  0  0  0
   10.9065  -16.9535   18.0443 C   0  0  0  0  0  0  0  0  0  0  0  0
   11.2870  -18.1325   18.1545 O   0  0  0  0  0  0  0  0  0  0  0  0
   10.8206  -16.0930   19.2319 C   0  0  0  0  0  0  0  0  0  0  0  0
    9.9609  -16.7308   20.2629 C   0  0  2  0  0  0  0  0  0  0  0  0
    8.6289  -17.0450   19.7879 N   0  0  0  0  0  0  0  0  0  0  0  0
    9.9446  -16.0417   21.5730 C   0  0  0  0  0  0  0  0  0  0  0  0
   11.0689  -15.8057   22.1135 O   0  0  0  0  0  0  0  0  0  0  0  0
    8.7222  -15.6696   22.1814 N   0  0  0  0  0  0  0  0  0  0  0  0
    8.7342  -15.0172   23.4851 C   0  0  1  0  0  0  0  0  0  0  0  0
    7.5223  -14.1277   23.5572 C   0  0  0  0  0  0  0  0  0  0  0  0
    7.3522  -13.3836   24.7956 C   0  0  0  0  0  0  0  0  0  0  0  0
    6.5817  -13.8511   25.8452 C   0  0  0  0  0  0  0  0  0  0  0  0
    6.4374  -13.1253   27.0111 C   0  0  0  0  0  0  0  0  0  0  0  0
    7.0549  -11.9061   27.1786 C   0  0  0  0  0  0  0  0  0  0  0  0
    7.8297  -11.4360   26.1246 C   0  0  0  0  0  0  0  0  0  0  0  0
    7.9785  -12.1591   24.9519 C   0  0  0  0  0  0  0  0  0  0  0  0
    8.6831  -15.9955   24.5829 C   0  0  0  0  0  0  0  0  0  0  0  0
    7.9160  -16.9576   24.4984 O   0  0  0  0  0  0  0  0  0  0  0  0
   12.4618  -19.8642   25.6458 C   0  0  0  0  0  0  0  0  0  0  0  0
   11.5371  -19.0064   26.4495 C   0  0  0  0  0  0  0  0  0  0  0  0
   11.0382  -17.7844   25.7187 C   0  0  2  0  0  0  0  0  0  0  0  0
   12.2010  -16.9565   25.2049 C   0  0  0  0  0  0  0  0  0  0  0  0
   10.0505  -16.9645   26.4930 C   0  0  2  0  0  0  0  0  0  0  0  0
    9.5070  -15.8632   25.7625 N   0  0  0  0  0  0  0  0  0  0  0  0
   10.4478  -16.6432   27.8757 C   0  0  0  0  0  0  0  0  0  0  0  0
   10.3626  -15.3419   28.4173 O   0  0  0  0  0  0  0  0  0  0  0  0
   10.8943  -17.4936   28.6884 O   0  0  0  0  0  0  0  0  0  0  0  0
  1  2  1  0
  2  3  2  0
  4  2  1  0
  4  5  1  0
  5  6  1  6
  7  5  1  0
  7  8  2  0
  9  7  1  0
 10  9  1  0
 11 12  1  0
 10 11  1  6
 12 13  2  0
 12 17  1  0
 13 14  1  0
 14 15  2  0
 16 15  1  0
 17 16  2  0
 18 10  1  0
 19 18  2  0
 21 20  1  0
 22 21  1  0
 22 23  1  1
 24 22  1  0
 24 25  1  6
 25 18  1  0
 26 24  1  0
 27 26  1  0
 28 26  2  0
M  END
$$$$
