NFI.pdb
     RDKit          3D

 28 28  0  0  1  0  0  0  0  0999 V2000
   12.1353  -17.1988   17.2100 N   0  0  0  0  0  0  0  0  0  0  0  0
   12.5274  -17.3481   18.5568 C   0  0  0  0  0  0  0  0  0  0  0  0
   13.2862  -18.2801   18.8773 O   0  0  0  0  0  0  0  0  0  0  0  0
   12.0435  -16.4081   19.5767 C   0  0  0  0  0  0  0  0  0  0  0  0
   11.3132  -17.1427   20.6423 C   0  0  2  0  0  0  0  0  0  0  0  0
   10.2134  -17.9414   20.1410 N   0  0  0  0  0  0  0  0  0  0  0  0
   10.9268  -16.3216   21.8119 C   0  0  0  0  0  0  0  0  0  0  0  0
   11.8356  -15.6110   22.3419 O   0  0  0  0  0  0  0  0  0  0  0  0
    9.6000  -16.3397   22.3040 N   0  0  0  0  0  0  0  0  0  0  0  0
    9.2530  -15.5407   23.4730 C   0  0  1  0  0  0  0  0  0  0  0  0
    7.7850  -15.2213   23.3833 C   0  0  0  0  0  0  0  0  0  0  0  0
    7.2529  -14.3733   24.4388 C   0  0  0  0  0  0  0  0  0  0  0  0
    6.4826  -14.8697   25.4753 C   0  0  0  0  0  0  0  0  0  0  0  0
    5.9904  -14.0430   26.4659 C   0  0  0  0  0  0  0  0  0  0  0  0
    6.2460  -12.6901   26.4644 C   0  0  0  0  0  0  0  0  0  0  0  0
    7.0203  -12.1907   25.4235 C   0  0  0  0  0  0  0  0  0  0  0  0
    7.5171  -13.0147   24.4261 C   0  0  0  0  0  0  0  0  0  0  0  0
    9.5151  -16.2673   24.7252 C   0  0  0  0  0  0  0  0  0  0  0  0
    9.5534  -17.5000   24.7108 O   0  0  0  0  0  0  0  0  0  0  0  0
   10.2283  -12.9592   29.2644 C   0  0  0  0  0  0  0  0  0  0  0  0
   10.3851  -13.8619   28.0822 C   0  0  0  0  0  0  0  0  0  0  0  0
   10.1481  -15.3209   28.3846 C   0  0  2  0  0  0  0  0  0  0  0  0
   11.0852  -15.7998   29.4774 C   0  0  0  0  0  0  0  0  0  0  0  0
   10.1731  -16.2114   27.1791 C   0  0  2  0  0  0  0  0  0  0  0  0
    9.7292  -15.5785   25.9773 N   0  0  0  0  0  0  0  0  0  0  0  0
    9.6357  -17.5679   27.3888 C   0  0  0  0  0  0  0  0  0  0  0  0
    8.2891  -17.9090   27.1353 O   0  0  0  0  0  0  0  0  0  0  0  0
   10.3243  -18.5336   27.8090 O   0  0  0  0  0  0  0  0  0  0  0  0
  1  2  1  0
  2  3  2  0
  4  2  1  0
  4  5  1  0
  5  6  1  6
  7  5  1  0
  7  8  2  0
  9  7  1  0
 10  9  1  0
 11 12  1  0
 10 11  1  6
 12 13  2  0
 12 17  1  0
 13 14  1  0
 14 15  2  0
 16 15  1  0
 17 16  2  0
 18 10  1  0
 19 18  2  0
 21 20  1  0
 22 21  1  0
 22 23  1  1
 24 22  1  0
 24 25  1  6
 25 18  1  0
 26 24  1  0
 27 26  1  0
 28 26  2  0
M  END
$$$$
