NFI.pdb
     RDKit          3D

 28 28  0  0  1  0  0  0  0  0999 V2000
   11.5437  -17.0485   16.9438 N   0  0  0  0  0  0  0  0  0  0  0  0
   11.9103  -17.3544   18.2711 C   0  0  0  0  0  0  0  0  0  0  0  0
   12.5022  -18.4205   18.5163 O   0  0  0  0  0  0  0  0  0  0  0  0
   11.5960  -16.4191   19.3595 C   0  0  0  0  0  0  0  0  0  0  0  0
   10.8995  -17.1335   20.4610 C   0  0  2  0  0  0  0  0  0  0  0  0
    9.7376  -17.8781   20.0203 N   0  0  0  0  0  0  0  0  0  0  0  0
   10.6205  -16.3097   21.6589 C   0  0  0  0  0  0  0  0  0  0  0  0
   11.5861  -15.6338   22.1306 O   0  0  0  0  0  0  0  0  0  0  0  0
    9.3299  -16.2879   22.2393 N   0  0  0  0  0  0  0  0  0  0  0  0
    9.0861  -15.4772   23.4262 C   0  0  1  0  0  0  0  0  0  0  0  0
    7.6321  -15.0889   23.4181 C   0  0  0  0  0  0  0  0  0  0  0  0
    7.2026  -14.2093   24.4943 C   0  0  0  0  0  0  0  0  0  0  0  0
    7.4938  -12.8569   24.5116 C   0  0  0  0  0  0  0  0  0  0  0  0
    7.0731  -12.0433   25.5450 C   0  0  0  0  0  0  0  0  0  0  0  0
    6.3455  -12.5433   26.6015 C   0  0  0  0  0  0  0  0  0  0  0  0
    6.0520  -13.9020   26.5846 C   0  0  0  0  0  0  0  0  0  0  0  0
    6.4713  -14.7241   25.5507 C   0  0  0  0  0  0  0  0  0  0  0  0
    9.3825  -16.2193   24.6616 C   0  0  0  0  0  0  0  0  0  0  0  0
    9.2218  -17.4420   24.6842 O   0  0  0  0  0  0  0  0  0  0  0  0
   10.0751  -13.6287   29.9471 C   0  0  0  0  0  0  0  0  0  0  0  0
    9.5760  -14.5092   28.8459 C   0  0  0  0  0  0  0  0  0  0  0  0
   10.6534  -15.3185   28.1672 C   0  0  2  0  0  0  0  0  0  0  0  0
   11.7802  -14.4193   27.6945 C   0  0  0  0  0  0  0  0  0  0  0  0
   10.1519  -16.2247   27.0835 C   0  0  2  0  0  0  0  0  0  0  0  0
    9.8575  -15.5571   25.8548 N   0  0  0  0  0  0  0  0  0  0  0  0
    9.1344  -17.2045   27.5046 C   0  0  0  0  0  0  0  0  0  0  0  0
    9.3778  -18.1935   28.4826 O   0  0  0  0  0  0  0  0  0  0  0  0
    7.9685  -17.2454   27.0331 O   0  0  0  0  0  0  0  0  0  0  0  0
  1  2  1  0
  2  3  2  0
  4  2  1  0
  4  5  1  0
  5  6  1  6
  7  5  1  0
  7  8  2  0
  9  7  1  0
 10  9  1  0
 11 12  1  0
 10 11  1  1
 12 13  2  0
 12 17  1  0
 13 14  1  0
 14 15  2  0
 16 15  1  0
 17 16  2  0
 18 10  1  0
 19 18  2  0
 21 20  1  0
 22 21  1  0
 22 23  1  6
 24 22  1  0
 24 25  1  6
 25 18  1  0
 26 24  1  0
 27 26  1  0
 28 26  2  0
M  END
$$$$
