NFI.pdb
     RDKit          3D

 28 28  0  0  1  0  0  0  0  0999 V2000
   11.6204  -17.4214   16.9843 N   0  0  0  0  0  0  0  0  0  0  0  0
   11.8437  -17.7369   18.3409 C   0  0  0  0  0  0  0  0  0  0  0  0
   12.2814  -18.8600   18.6478 O   0  0  0  0  0  0  0  0  0  0  0  0
   11.5619  -16.7449   19.3871 C   0  0  0  0  0  0  0  0  0  0  0  0
   10.9322  -17.4053   20.5602 C   0  0  2  0  0  0  0  0  0  0  0  0
    9.8397  -18.2884   20.2061 N   0  0  0  0  0  0  0  0  0  0  0  0
   10.5833  -16.4950   21.6741 C   0  0  0  0  0  0  0  0  0  0  0  0
   11.4662  -15.6545   22.0290 O   0  0  0  0  0  0  0  0  0  0  0  0
    9.3182  -16.5714   22.3039 N   0  0  0  0  0  0  0  0  0  0  0  0
    9.0283  -15.7147   23.4473 C   0  0  1  0  0  0  0  0  0  0  0  0
    7.5459  -15.4554   23.4542 C   0  0  0  0  0  0  0  0  0  0  0  0
    7.0688  -14.5177   24.4589 C   0  0  0  0  0  0  0  0  0  0  0  0
    6.3790  -14.9229   25.5875 C   0  0  0  0  0  0  0  0  0  0  0  0
    5.9378  -14.0120   26.5270 C   0  0  0  0  0  0  0  0  0  0  0  0
    6.1665  -12.6622   26.3807 C   0  0  0  0  0  0  0  0  0  0  0  0
    6.8600  -12.2543   25.2471 C   0  0  0  0  0  0  0  0  0  0  0  0
    7.3052  -13.1631   24.3003 C   0  0  0  0  0  0  0  0  0  0  0  0
    9.4145  -16.3522   24.7159 C   0  0  0  0  0  0  0  0  0  0  0  0
    9.3837  -17.5818   24.8071 O   0  0  0  0  0  0  0  0  0  0  0  0
   11.1017  -12.7665   28.7894 C   0  0  0  0  0  0  0  0  0  0  0  0
   11.0537  -13.8024   27.7116 C   0  0  0  0  0  0  0  0  0  0  0  0
   10.5527  -15.1489   28.1723 C   0  0  2  0  0  0  0  0  0  0  0  0
   11.4256  -15.6912   29.2884 C   0  0  0  0  0  0  0  0  0  0  0  0
   10.3538  -16.1426   27.0678 C   0  0  2  0  0  0  0  0  0  0  0  0
    9.8301  -15.5789   25.8636 N   0  0  0  0  0  0  0  0  0  0  0  0
    9.7240  -17.4128   27.4713 C   0  0  0  0  0  0  0  0  0  0  0  0
    8.3265  -17.6143   27.4639 O   0  0  0  0  0  0  0  0  0  0  0  0
   10.3715  -18.4212   27.8549 O   0  0  0  0  0  0  0  0  0  0  0  0
  1  2  1  0
  2  3  2  0
  4  2  1  0
  4  5  1  0
  5  6  1  6
  7  5  1  0
  7  8  2  0
  9  7  1  0
 10  9  1  0
 11 12  1  0
 10 11  1  1
 12 13  2  0
 12 17  1  0
 13 14  1  0
 14 15  2  0
 16 15  1  0
 17 16  2  0
 18 10  1  0
 19 18  2  0
 21 20  1  0
 22 21  1  0
 22 23  1  1
 24 22  1  0
 24 25  1  6
 25 18  1  0
 26 24  1  0
 27 26  1  0
 28 26  2  0
M  END
$$$$
