NFI.pdb
     RDKit          3D

 28 28  0  0  1  0  0  0  0  0999 V2000
   11.4988  -17.2777   16.9226 N   0  0  0  0  0  0  0  0  0  0  0  0
   11.9836  -17.4173   18.2400 C   0  0  0  0  0  0  0  0  0  0  0  0
   12.7682  -18.3431   18.5124 O   0  0  0  0  0  0  0  0  0  0  0  0
   11.5653  -16.4743   19.2859 C   0  0  0  0  0  0  0  0  0  0  0  0
   10.9778  -17.2130   20.4338 C   0  0  2  0  0  0  0  0  0  0  0  0
    9.8914  -18.0939   20.0562 N   0  0  0  0  0  0  0  0  0  0  0  0
   10.6429  -16.3754   21.6075 C   0  0  0  0  0  0  0  0  0  0  0  0
   11.5662  -15.6370   22.0702 O   0  0  0  0  0  0  0  0  0  0  0  0
    9.3472  -16.4083   22.1758 N   0  0  0  0  0  0  0  0  0  0  0  0
    9.0491  -15.5845   23.3411 C   0  0  1  0  0  0  0  0  0  0  0  0
    7.5717  -15.2981   23.3270 C   0  0  0  0  0  0  0  0  0  0  0  0
    7.0940  -14.3701   24.3402 C   0  0  0  0  0  0  0  0  0  0  0  0
    6.2728  -14.7631   25.3819 C   0  0  0  0  0  0  0  0  0  0  0  0
    5.8340  -13.8619   26.3318 C   0  0  0  0  0  0  0  0  0  0  0  0
    6.1958  -12.5343   26.2828 C   0  0  0  0  0  0  0  0  0  0  0  0
    7.0214  -12.1388   25.2367 C   0  0  0  0  0  0  0  0  0  0  0  0
    7.4650  -13.0379   24.2801 C   0  0  0  0  0  0  0  0  0  0  0  0
    9.3977  -16.2705   24.5951 C   0  0  0  0  0  0  0  0  0  0  0  0
    9.2817  -17.4964   24.6646 O   0  0  0  0  0  0  0  0  0  0  0  0
   10.4958  -13.4743   29.7445 C   0  0  0  0  0  0  0  0  0  0  0  0
    9.8856  -14.3720   28.7157 C   0  0  0  0  0  0  0  0  0  0  0  0
   10.8837  -15.2222   27.9691 C   0  0  2  0  0  0  0  0  0  0  0  0
   11.9657  -14.3576   27.3498 C   0  0  0  0  0  0  0  0  0  0  0  0
   10.2700  -16.1663   26.9797 C   0  0  2  0  0  0  0  0  0  0  0  0
    9.8734  -15.5492   25.7533 N   0  0  0  0  0  0  0  0  0  0  0  0
    9.2806  -17.1058   27.5379 C   0  0  0  0  0  0  0  0  0  0  0  0
    7.9321  -17.1398   27.1207 O   0  0  0  0  0  0  0  0  0  0  0  0
    9.5489  -17.9532   28.4285 O   0  0  0  0  0  0  0  0  0  0  0  0
  1  2  1  0
  2  3  2  0
  4  2  1  0
  4  5  1  0
  5  6  1  6
  7  5  1  0
  7  8  2  0
  9  7  1  0
 10  9  1  0
 11 12  1  0
 10 11  1  1
 12 13  2  0
 12 17  1  0
 13 14  1  0
 14 15  2  0
 16 15  1  0
 17 16  2  0
 18 10  1  0
 19 18  2  0
 21 20  1  0
 22 21  1  0
 22 23  1  6
 24 22  1  0
 24 25  1  6
 25 18  1  0
 26 24  1  0
 27 26  1  0
 28 26  2  0
M  END
$$$$
