NFI.pdb
     RDKit          3D

 28 28  0  0  1  0  0  0  0  0999 V2000
   13.5996  -17.3953   18.1686 N   0  0  0  0  0  0  0  0  0  0  0  0
   12.2154  -17.3533   18.4370 C   0  0  0  0  0  0  0  0  0  0  0  0
   11.4421  -18.0901   17.7998 O   0  0  0  0  0  0  0  0  0  0  0  0
   11.6884  -16.4450   19.4643 C   0  0  0  0  0  0  0  0  0  0  0  0
   11.2004  -17.2237   20.6323 C   0  0  2  0  0  0  0  0  0  0  0  0
   10.1934  -18.2069   20.2887 N   0  0  0  0  0  0  0  0  0  0  0  0
   10.8157  -16.4091   21.8069 C   0  0  0  0  0  0  0  0  0  0  0  0
   11.7390  -15.7519   22.3791 O   0  0  0  0  0  0  0  0  0  0  0  0
    9.4748  -16.3755   22.2582 N   0  0  0  0  0  0  0  0  0  0  0  0
    9.1275  -15.5808   23.4301 C   0  0  1  0  0  0  0  0  0  0  0  0
    7.6512  -15.2961   23.3625 C   0  0  0  0  0  0  0  0  0  0  0  0
    7.1368  -14.3654   24.3553 C   0  0  0  0  0  0  0  0  0  0  0  0
    6.4114  -14.7792   25.4582 C   0  0  0  0  0  0  0  0  0  0  0  0
    5.9352  -13.8749   26.3869 C   0  0  0  0  0  0  0  0  0  0  0  0
    6.1627  -12.5234   26.2548 C   0  0  0  0  0  0  0  0  0  0  0  0
    6.8920  -12.1070   25.1471 C   0  0  0  0  0  0  0  0  0  0  0  0
    7.3726  -13.0091   24.2113 C   0  0  0  0  0  0  0  0  0  0  0  0
    9.4262  -16.2967   24.6803 C   0  0  0  0  0  0  0  0  0  0  0  0
    9.3549  -17.5278   24.7023 O   0  0  0  0  0  0  0  0  0  0  0  0
   10.9071  -12.9773   29.0353 C   0  0  0  0  0  0  0  0  0  0  0  0
   10.9038  -13.9592   27.9072 C   0  0  0  0  0  0  0  0  0  0  0  0
   10.3414  -15.3118   28.2685 C   0  0  2  0  0  0  0  0  0  0  0  0
   11.1308  -15.9330   29.4055 C   0  0  0  0  0  0  0  0  0  0  0  0
   10.1843  -16.2440   27.1052 C   0  0  2  0  0  0  0  0  0  0  0  0
    9.8015  -15.5991   25.8888 N   0  0  0  0  0  0  0  0  0  0  0  0
    9.4501  -17.4895   27.3928 C   0  0  0  0  0  0  0  0  0  0  0  0
   10.0872  -18.6784   27.8103 O   0  0  0  0  0  0  0  0  0  0  0  0
    8.2009  -17.6017   27.2921 O   0  0  0  0  0  0  0  0  0  0  0  0
  1  2  1  0
  2  3  2  0
  4  2  1  0
  4  5  1  0
  5  6  1  6
  7  5  1  0
  7  8  2  0
  9  7  1  0
 10  9  1  0
 11 12  1  0
 10 11  1  6
 12 13  2  0
 12 17  1  0
 13 14  1  0
 14 15  2  0
 16 15  1  0
 17 16  2  0
 18 10  1  0
 19 18  2  0
 21 20  1  0
 22 21  1  0
 22 23  1  1
 24 22  1  0
 24 25  1  6
 25 18  1  0
 26 24  1  0
 27 26  1  0
 28 26  2  0
M  END
$$$$
