NFI.pdb
     RDKit          3D

 28 28  0  0  1  0  0  0  0  0999 V2000
   12.8265  -17.0700   17.4588 N   0  0  0  0  0  0  0  0  0  0  0  0
   12.4479  -17.6228   18.7001 C   0  0  0  0  0  0  0  0  0  0  0  0
   12.2887  -18.8519   18.8038 O   0  0  0  0  0  0  0  0  0  0  0  0
   12.2430  -16.7524   19.8658 C   0  0  0  0  0  0  0  0  0  0  0  0
   11.1418  -17.2827   20.7112 C   0  0  2  0  0  0  0  0  0  0  0  0
   10.0013  -17.7457   19.9473 N   0  0  0  0  0  0  0  0  0  0  0  0
   10.7478  -16.4097   21.8400 C   0  0  0  0  0  0  0  0  0  0  0  0
   11.6705  -15.7414   22.4003 O   0  0  0  0  0  0  0  0  0  0  0  0
    9.3992  -16.3352   22.2626 N   0  0  0  0  0  0  0  0  0  0  0  0
    9.0486  -15.5152   23.4159 C   0  0  1  0  0  0  0  0  0  0  0  0
    7.5805  -15.1993   23.3171 C   0  0  0  0  0  0  0  0  0  0  0  0
    7.0578  -14.2842   24.3200 C   0  0  0  0  0  0  0  0  0  0  0  0
    7.3401  -12.9299   24.3113 C   0  0  0  0  0  0  0  0  0  0  0  0
    6.8301  -12.0823   25.2749 C   0  0  0  0  0  0  0  0  0  0  0  0
    6.0185  -12.5491   26.2844 C   0  0  0  0  0  0  0  0  0  0  0  0
    5.7340  -13.9097   26.2935 C   0  0  0  0  0  0  0  0  0  0  0  0
    6.2427  -14.7658   25.3297 C   0  0  0  0  0  0  0  0  0  0  0  0
    9.3088  -16.2182   24.6819 C   0  0  0  0  0  0  0  0  0  0  0  0
    9.1525  -17.4404   24.7364 O   0  0  0  0  0  0  0  0  0  0  0  0
   10.6550  -12.8583   29.0294 C   0  0  0  0  0  0  0  0  0  0  0  0
   10.6860  -13.8359   27.8979 C   0  0  0  0  0  0  0  0  0  0  0  0
   10.2039  -15.2180   28.2637 C   0  0  2  0  0  0  0  0  0  0  0  0
   11.0398  -15.7955   29.3904 C   0  0  0  0  0  0  0  0  0  0  0  0
   10.0852  -16.1564   27.1007 C   0  0  2  0  0  0  0  0  0  0  0  0
    9.7432  -15.5180   25.8689 N   0  0  0  0  0  0  0  0  0  0  0  0
    9.3417  -17.4003   27.3705 C   0  0  0  0  0  0  0  0  0  0  0  0
    9.9701  -18.6004   27.7688 O   0  0  0  0  0  0  0  0  0  0  0  0
    8.0915  -17.5011   27.2701 O   0  0  0  0  0  0  0  0  0  0  0  0
  1  2  1  0
  2  3  2  0
  4  2  1  0
  4  5  1  0
  5  6  1  6
  7  5  1  0
  7  8  2  0
  9  7  1  0
 10  9  1  0
 11 12  1  0
 10 11  1  6
 12 13  2  0
 12 17  1  0
 13 14  1  0
 14 15  2  0
 16 15  1  0
 17 16  2  0
 18 10  1  0
 19 18  2  0
 21 20  1  0
 22 21  1  0
 22 23  1  1
 24 22  1  0
 24 25  1  6
 25 18  1  0
 26 24  1  0
 27 26  1  0
 28 26  2  0
M  END
$$$$
