NFI.pdb
     RDKit          3D

 28 28  0  0  1  0  0  0  0  0999 V2000
   12.1904  -17.2544   17.0633 N   0  0  0  0  0  0  0  0  0  0  0  0
   12.2407  -17.5753   18.4360 C   0  0  0  0  0  0  0  0  0  0  0  0
   12.7116  -18.6689   18.7958 O   0  0  0  0  0  0  0  0  0  0  0  0
   11.7405  -16.6235   19.4370 C   0  0  0  0  0  0  0  0  0  0  0  0
   11.1096  -17.3551   20.5663 C   0  0  2  0  0  0  0  0  0  0  0  0
   10.0109  -18.2067   20.1586 N   0  0  0  0  0  0  0  0  0  0  0  0
   10.7690  -16.5172   21.7382 C   0  0  0  0  0  0  0  0  0  0  0  0
   11.6887  -15.7753   22.2024 O   0  0  0  0  0  0  0  0  0  0  0  0
    9.4719  -16.5535   22.3030 N   0  0  0  0  0  0  0  0  0  0  0  0
    9.1528  -15.6905   23.4339 C   0  0  1  0  0  0  0  0  0  0  0  0
    7.6727  -15.4209   23.3940 C   0  0  0  0  0  0  0  0  0  0  0  0
    7.1743  -14.4620   24.3679 C   0  0  0  0  0  0  0  0  0  0  0  0
    7.4767  -13.1133   24.3067 C   0  0  0  0  0  0  0  0  0  0  0  0
    6.9895  -12.2234   25.2436 C   0  0  0  0  0  0  0  0  0  0  0  0
    6.1818  -12.6405   26.2777 C   0  0  0  0  0  0  0  0  0  0  0  0
    5.8771  -13.9954   26.3394 C   0  0  0  0  0  0  0  0  0  0  0  0
    6.3628  -14.8938   25.4027 C   0  0  0  0  0  0  0  0  0  0  0  0
    9.4952  -16.3259   24.7160 C   0  0  0  0  0  0  0  0  0  0  0  0
    9.5795  -17.5549   24.7768 O   0  0  0  0  0  0  0  0  0  0  0  0
   10.2118  -12.7297   29.0334 C   0  0  0  0  0  0  0  0  0  0  0  0
   10.4376  -13.7193   27.9350 C   0  0  0  0  0  0  0  0  0  0  0  0
   10.0989  -15.1417   28.3072 C   0  0  2  0  0  0  0  0  0  0  0  0
   10.9349  -15.5993   29.4876 C   0  0  0  0  0  0  0  0  0  0  0  0
   10.1507  -16.1068   27.1614 C   0  0  2  0  0  0  0  0  0  0  0  0
    9.7362  -15.5513   25.9118 N   0  0  0  0  0  0  0  0  0  0  0  0
    9.6062  -17.4472   27.4439 C   0  0  0  0  0  0  0  0  0  0  0  0
    8.2785  -17.8178   27.1381 O   0  0  0  0  0  0  0  0  0  0  0  0
   10.2717  -18.3717   27.9785 O   0  0  0  0  0  0  0  0  0  0  0  0
  1  2  1  0
  2  3  2  0
  4  2  1  0
  4  5  1  0
  5  6  1  6
  7  5  1  0
  7  8  2  0
  9  7  1  0
 10  9  1  0
 11 12  1  0
 10 11  1  1
 12 13  2  0
 12 17  1  0
 13 14  1  0
 14 15  2  0
 16 15  1  0
 17 16  2  0
 18 10  1  0
 19 18  2  0
 21 20  1  0
 22 21  1  0
 22 23  1  1
 24 22  1  0
 24 25  1  6
 25 18  1  0
 26 24  1  0
 27 26  1  0
 28 26  2  0
M  END
$$$$
