NFI.pdb
     RDKit          3D

 28 28  0  0  1  0  0  0  0  0999 V2000
   11.3743  -17.4149   17.0532 N   0  0  0  0  0  0  0  0  0  0  0  0
   11.8655  -17.6727   18.3502 C   0  0  0  0  0  0  0  0  0  0  0  0
   12.4715  -18.7344   18.5793 O   0  0  0  0  0  0  0  0  0  0  0  0
   11.6637  -16.6928   19.4259 C   0  0  0  0  0  0  0  0  0  0  0  0
   10.9539  -17.3269   20.5673 C   0  0  2  0  0  0  0  0  0  0  0  0
    9.8031  -18.1102   20.1662 N   0  0  0  0  0  0  0  0  0  0  0  0
   10.6516  -16.4173   21.6954 C   0  0  0  0  0  0  0  0  0  0  0  0
   11.6065  -15.7027   22.1306 O   0  0  0  0  0  0  0  0  0  0  0  0
    9.3516  -16.3592   22.2517 N   0  0  0  0  0  0  0  0  0  0  0  0
    9.0756  -15.4364   23.3461 C   0  0  1  0  0  0  0  0  0  0  0  0
    7.5947  -15.1681   23.3492 C   0  0  0  0  0  0  0  0  0  0  0  0
    7.1276  -14.1894   24.3189 C   0  0  0  0  0  0  0  0  0  0  0  0
    6.4080  -14.5432   25.4462 C   0  0  0  0  0  0  0  0  0  0  0  0
    5.9772  -13.5942   26.3522 C   0  0  0  0  0  0  0  0  0  0  0  0
    6.2461  -12.2559   26.1722 C   0  0  0  0  0  0  0  0  0  0  0  0
    6.9696  -11.8997   25.0399 C   0  0  0  0  0  0  0  0  0  0  0  0
    7.4047  -12.8469   24.1267 C   0  0  0  0  0  0  0  0  0  0  0  0
    9.4681  -16.0023   24.6462 C   0  0  0  0  0  0  0  0  0  0  0  0
    9.3604  -17.2167   24.8330 O   0  0  0  0  0  0  0  0  0  0  0  0
   11.9877  -14.5109   29.9421 C   0  0  0  0  0  0  0  0  0  0  0  0
   10.6958  -15.0830   29.4516 C   0  0  0  0  0  0  0  0  0  0  0  0
   10.2853  -14.5957   28.0840 C   0  0  2  0  0  0  0  0  0  0  0  0
    8.9613  -13.8581   28.1542 C   0  0  0  0  0  0  0  0  0  0  0  0
   10.2937  -15.6560   27.0245 C   0  0  2  0  0  0  0  0  0  0  0  0
    9.9777  -15.1757   25.7163 N   0  0  0  0  0  0  0  0  0  0  0  0
    9.6216  -16.9157   27.3909 C   0  0  0  0  0  0  0  0  0  0  0  0
   10.3087  -18.0248   27.9310 O   0  0  0  0  0  0  0  0  0  0  0  0
    8.3861  -17.1118   27.2555 O   0  0  0  0  0  0  0  0  0  0  0  0
  1  2  1  0
  2  3  2  0
  4  2  1  0
  4  5  1  0
  5  6  1  6
  7  5  1  0
  7  8  2  0
  9  7  1  0
 10  9  1  0
 11 12  1  0
 10 11  1  1
 12 13  2  0
 12 17  1  0
 13 14  1  0
 14 15  2  0
 16 15  1  0
 17 16  2  0
 18 10  1  0
 19 18  2  0
 21 20  1  0
 22 21  1  0
 22 23  1  1
 24 22  1  0
 24 25  1  6
 25 18  1  0
 26 24  1  0
 27 26  1  0
 28 26  2  0
M  END
$$$$
