NFI.pdb
     RDKit          3D

 28 28  0  0  1  0  0  0  0  0999 V2000
    9.8824  -19.1667   17.6362 N   0  0  0  0  0  0  0  0  0  0  0  0
   10.3835  -18.3524   18.6735 C   0  0  0  0  0  0  0  0  0  0  0  0
   11.6113  -18.1939   18.7932 O   0  0  0  0  0  0  0  0  0  0  0  0
    9.4610  -17.6937   19.6080 C   0  0  0  0  0  0  0  0  0  0  0  0
    9.9264  -17.8874   21.0061 C   0  0  2  0  0  0  0  0  0  0  0  0
    9.3367  -19.0409   21.6546 N   0  0  0  0  0  0  0  0  0  0  0  0
    9.8727  -16.6750   21.8537 C   0  0  0  0  0  0  0  0  0  0  0  0
   10.8443  -15.8632   21.7596 O   0  0  0  0  0  0  0  0  0  0  0  0
    8.7803  -16.4465   22.7240 N   0  0  0  0  0  0  0  0  0  0  0  0
    8.7311  -15.2225   23.5144 C   0  0  1  0  0  0  0  0  0  0  0  0
    7.3195  -15.0605   24.0104 C   0  0  0  0  0  0  0  0  0  0  0  0
    7.0931  -13.9628   24.9377 C   0  0  0  0  0  0  0  0  0  0  0  0
    6.2183  -14.0583   26.0052 C   0  0  0  0  0  0  0  0  0  0  0  0
    6.0223  -13.0012   26.8719 C   0  0  0  0  0  0  0  0  0  0  0  0
    6.6899  -11.8078   26.7108 C   0  0  0  0  0  0  0  0  0  0  0  0
    7.5694  -11.7112   25.6387 C   0  0  0  0  0  0  0  0  0  0  0  0
    7.7705  -12.7681   24.7651 C   0  0  0  0  0  0  0  0  0  0  0  0
    9.6454  -15.2817   24.6656 C   0  0  0  0  0  0  0  0  0  0  0  0
   10.4588  -14.3707   24.8375 O   0  0  0  0  0  0  0  0  0  0  0  0
    9.3760  -13.0995   28.5471 C   0  0  0  0  0  0  0  0  0  0  0  0
    9.9085  -14.0245   27.4994 C   0  0  0  0  0  0  0  0  0  0  0  0
    9.8565  -15.4834   27.8806 C   0  0  2  0  0  0  0  0  0  0  0  0
   10.5262  -15.7096   29.2231 C   0  0  0  0  0  0  0  0  0  0  0  0
   10.3671  -16.4146   26.8227 C   0  0  2  0  0  0  0  0  0  0  0  0
    9.6203  -16.3794   25.6050 N   0  0  0  0  0  0  0  0  0  0  0  0
   10.7081  -17.7703   27.2905 C   0  0  0  0  0  0  0  0  0  0  0  0
   10.2009  -18.9419   26.6872 O   0  0  0  0  0  0  0  0  0  0  0  0
   11.4750  -18.0007   28.2611 O   0  0  0  0  0  0  0  0  0  0  0  0
  1  2  1  0
  2  3  2  0
  4  2  1  0
  4  5  1  0
  5  6  1  1
  7  5  1  0
  7  8  2  0
  9  7  1  0
 10  9  1  0
 11 12  1  0
 10 11  1  1
 12 13  2  0
 12 17  1  0
 13 14  1  0
 14 15  2  0
 16 15  1  0
 17 16  2  0
 18 10  1  0
 19 18  2  0
 21 20  1  0
 22 21  1  0
 22 23  1  1
 24 22  1  0
 24 25  1  6
 25 18  1  0
 26 24  1  0
 27 26  1  0
 28 26  2  0
M  END
$$$$
