NFI.pdb
     RDKit          3D

 28 28  0  0  1  0  0  0  0  0999 V2000
   10.8664  -19.2621   18.5658 N   0  0  0  0  0  0  0  0  0  0  0  0
   11.1931  -19.7129   19.8619 C   0  0  0  0  0  0  0  0  0  0  0  0
   11.4381  -20.9175   20.0512 O   0  0  0  0  0  0  0  0  0  0  0  0
   11.2448  -18.7655   20.9834 C   0  0  0  0  0  0  0  0  0  0  0  0
   10.7831  -17.4242   20.5401 C   0  0  2  0  0  0  0  0  0  0  0  0
   11.6106  -16.8445   19.5019 N   0  0  0  0  0  0  0  0  0  0  0  0
   10.5010  -16.4694   21.6356 C   0  0  0  0  0  0  0  0  0  0  0  0
   11.4816  -15.7958   22.0790 O   0  0  0  0  0  0  0  0  0  0  0  0
    9.1917  -16.3261   22.1534 N   0  0  0  0  0  0  0  0  0  0  0  0
    8.9671  -15.4898   23.3262 C   0  0  1  0  0  0  0  0  0  0  0  0
    7.5231  -15.0659   23.3099 C   0  0  0  0  0  0  0  0  0  0  0  0
    7.1239  -14.1276   24.3474 C   0  0  0  0  0  0  0  0  0  0  0  0
    6.4083  -14.5149   25.4663 C   0  0  0  0  0  0  0  0  0  0  0  0
    6.0426  -13.6039   26.4376 C   0  0  0  0  0  0  0  0  0  0  0  0
    6.3752  -12.2718   26.3339 C   0  0  0  0  0  0  0  0  0  0  0  0
    7.0946  -11.8820   25.2102 C   0  0  0  0  0  0  0  0  0  0  0  0
    7.4646  -12.7910   24.2317 C   0  0  0  0  0  0  0  0  0  0  0  0
    9.2442  -16.2181   24.5743 C   0  0  0  0  0  0  0  0  0  0  0  0
    9.0799  -17.4400   24.6089 O   0  0  0  0  0  0  0  0  0  0  0  0
   10.8773  -12.9714   28.9297 C   0  0  0  0  0  0  0  0  0  0  0  0
   10.7782  -13.9158   27.7742 C   0  0  0  0  0  0  0  0  0  0  0  0
   10.2760  -15.2901   28.1424 C   0  0  2  0  0  0  0  0  0  0  0  0
   11.1449  -15.9053   29.2233 C   0  0  0  0  0  0  0  0  0  0  0  0
   10.0817  -16.2081   26.9734 C   0  0  2  0  0  0  0  0  0  0  0  0
    9.7042  -15.5432   25.7662 N   0  0  0  0  0  0  0  0  0  0  0  0
    9.3170  -17.4356   27.2588 C   0  0  0  0  0  0  0  0  0  0  0  0
    9.9160  -18.6199   27.7409 O   0  0  0  0  0  0  0  0  0  0  0  0
    8.0729  -17.5350   27.0990 O   0  0  0  0  0  0  0  0  0  0  0  0
  1  2  1  0
  2  3  2  0
  4  2  1  0
  4  5  1  0
  5  6  1  6
  7  5  1  0
  7  8  2  0
  9  7  1  0
 10  9  1  0
 11 12  1  0
 10 11  1  1
 12 13  2  0
 12 17  1  0
 13 14  1  0
 14 15  2  0
 16 15  1  0
 17 16  2  0
 18 10  1  0
 19 18  2  0
 21 20  1  0
 22 21  1  0
 22 23  1  1
 24 22  1  0
 24 25  1  6
 25 18  1  0
 26 24  1  0
 27 26  1  0
 28 26  2  0
M  END
$$$$
