CNH.pdb
     RDKit          3D

 25 25  0  0  1  0  0  0  0  0999 V2000
    7.5682  -14.9813   17.3569 N   0  0  0  0  0  0  0  0  0  0  0  0
    8.6561  -14.6714   18.2349 C   0  0  1  0  0  0  0  0  0  0  0  0
    8.6533  -13.2371   18.7086 C   0  0  0  0  0  0  0  0  0  0  0  0
    8.7573  -12.0752   17.3382 S   0  0  0  0  0  0  0  0  0  0  0  0
    8.7177  -15.5822   19.3978 C   0  0  0  0  0  0  0  0  0  0  0  0
    7.7238  -15.8646   20.1156 O   0  0  0  0  0  0  0  0  0  0  0  0
    7.3689  -17.6720   21.5206 N   0  0  0  0  0  0  0  0  0  0  0  0
    7.9451  -18.6157   20.5910 C   0  0  0  0  0  0  0  0  0  0  0  0
    7.2288  -19.5420   20.2324 O   0  0  0  0  0  0  0  0  0  0  0  0
    9.3004  -18.3801   20.1752 C   0  0  0  0  0  0  0  0  0  0  0  0
   10.0745  -17.2267   20.7881 C   0  0  2  0  0  0  0  0  0  0  0  0
    9.9514  -16.1708   19.7284 N   0  0  0  0  0  0  0  0  0  0  0  0
   11.4767  -17.4855   21.0516 C   0  0  0  0  0  0  0  0  0  0  0  0
   12.1976  -17.7959   20.0332 O   0  0  0  0  0  0  0  0  0  0  0  0
   12.1765  -17.4413   22.2703 N   0  0  0  0  0  0  0  0  0  0  0  0
   13.4650  -16.7318   22.3996 C   0  0  1  0  0  0  0  0  0  0  0  0
   13.4431  -15.3507   21.8940 C   0  0  0  0  0  0  0  0  0  0  0  0
   13.8647  -15.1072   20.5233 C   0  0  0  0  0  0  0  0  0  0  0  0
   14.2502  -15.9434   19.5107 C   0  0  0  0  0  0  0  0  0  0  0  0
   14.5258  -15.2293   18.3945 N   0  0  0  0  0  0  0  0  0  0  0  0
   14.3097  -13.9508   18.7179 C   0  0  0  0  0  0  0  0  0  0  0  0
   13.9156  -13.8598   19.9812 N   0  0  0  0  0  0  0  0  0  0  0  0
   13.9040  -16.8737   23.8033 C   0  0  0  0  0  0  0  0  0  0  0  0
   15.0727  -16.5603   24.1326 O   0  0  0  0  0  0  0  0  0  0  0  0
   13.0679  -17.3490   24.8052 O   0  0  0  0  0  0  0  0  0  0  0  0
  2  1  1  1
  3  4  1  0
  3  2  1  0
  5  6  2  0
  5  2  1  0
  7  8  1  0
  8  9  2  0
  8 10  1  0
 11 10  1  6
 11 13  1  0
 11 12  1  0
 12  5  1  0
 13 15  1  0
 14 13  2  0
 15 16  1  0
 16 23  1  0
 17 18  1  0
 16 17  1  1
 18 22  1  0
 19 20  1  0
 19 18  2  0
 20 21  1  0
 21 22  2  0
 23 24  2  0
 23 25  1  0
M  END
$$$$
