CNH.pdb
     RDKit          3D

 25 25  0  0  1  0  0  0  0  0999 V2000
    7.1405  -14.9883   18.5969 N   0  0  0  0  0  0  0  0  0  0  0  0
    7.9995  -14.5915   19.6717 C   0  0  1  0  0  0  0  0  0  0  0  0
    8.2935  -13.1099   19.6875 C   0  0  0  0  0  0  0  0  0  0  0  0
    8.9777  -12.5426   18.1226 S   0  0  0  0  0  0  0  0  0  0  0  0
    7.4815  -15.0129   20.9908 C   0  0  0  0  0  0  0  0  0  0  0  0
    6.2566  -15.1201   21.2569 O   0  0  0  0  0  0  0  0  0  0  0  0
    5.8028  -17.7545   24.7171 N   0  0  0  0  0  0  0  0  0  0  0  0
    6.8539  -18.1674   23.8163 C   0  0  0  0  0  0  0  0  0  0  0  0
    7.2841  -19.3052   23.9576 O   0  0  0  0  0  0  0  0  0  0  0  0
    7.2949  -17.2076   22.8418 C   0  0  0  0  0  0  0  0  0  0  0  0
    7.9786  -15.9354   23.3102 C   0  0  2  0  0  0  0  0  0  0  0  0
    8.4013  -15.3126   22.0116 N   0  0  0  0  0  0  0  0  0  0  0  0
    9.1411  -16.1259   24.1556 C   0  0  0  0  0  0  0  0  0  0  0  0
    9.8205  -17.1985   23.9529 O   0  0  0  0  0  0  0  0  0  0  0  0
    9.6467  -15.2986   25.1739 N   0  0  0  0  0  0  0  0  0  0  0  0
    9.3920  -15.5807   26.6007 C   0  0  1  0  0  0  0  0  0  0  0  0
    7.9989  -15.3588   27.0172 C   0  0  0  0  0  0  0  0  0  0  0  0
    7.4535  -14.0135   26.9253 C   0  0  0  0  0  0  0  0  0  0  0  0
    8.0294  -12.7739   26.9976 C   0  0  0  0  0  0  0  0  0  0  0  0
    7.0926  -11.8128   26.8234 N   0  0  0  0  0  0  0  0  0  0  0  0
    5.9371  -12.4593   26.6427 C   0  0  0  0  0  0  0  0  0  0  0  0
    6.1335  -13.7699   26.7001 N   0  0  0  0  0  0  0  0  0  0  0  0
    9.9171  -16.9334   26.8800 C   0  0  0  0  0  0  0  0  0  0  0  0
    9.4862  -17.9212   26.2388 O   0  0  0  0  0  0  0  0  0  0  0  0
   10.8895  -17.1756   27.8415 O   0  0  0  0  0  0  0  0  0  0  0  0
  2  1  1  6
  3  4  1  0
  3  2  1  0
  5  6  2  0
  5  2  1  0
  7  8  1  0
  8  9  2  0
  8 10  1  0
 11 10  1  6
 11 13  1  0
 11 12  1  0
 12  5  1  0
 13 15  1  0
 14 13  2  0
 15 16  1  0
 16 23  1  0
 17 18  1  0
 16 17  1  6
 18 22  1  0
 19 20  1  0
 19 18  2  0
 20 21  1  0
 21 22  2  0
 23 24  2  0
 23 25  1  0
M  END
$$$$
