CNH.pdb
     RDKit          3D

 25 25  0  0  1  0  0  0  0  0999 V2000
   10.4289  -15.2639   12.4058 N   0  0  0  0  0  0  0  0  0  0  0  0
   10.9920  -15.0951   13.7115 C   0  0  1  0  0  0  0  0  0  0  0  0
   10.1147  -15.6351   14.8163 C   0  0  0  0  0  0  0  0  0  0  0  0
    9.9020  -17.4182   14.6964 S   0  0  0  0  0  0  0  0  0  0  0  0
   12.3470  -15.6765   13.8194 C   0  0  0  0  0  0  0  0  0  0  0  0
   12.9271  -16.2727   12.8756 O   0  0  0  0  0  0  0  0  0  0  0  0
   17.2440  -16.2529   14.7850 N   0  0  0  0  0  0  0  0  0  0  0  0
   16.6607  -14.9501   14.5637 C   0  0  0  0  0  0  0  0  0  0  0  0
   17.4233  -14.0581   14.2137 O   0  0  0  0  0  0  0  0  0  0  0  0
   15.2447  -14.8228   14.7741 C   0  0  0  0  0  0  0  0  0  0  0  0
   14.4473  -16.0389   15.2106 C   0  0  2  0  0  0  0  0  0  0  0  0
   13.0342  -15.5621   15.0411 N   0  0  0  0  0  0  0  0  0  0  0  0
   14.6534  -16.4615   16.5823 C   0  0  0  0  0  0  0  0  0  0  0  0
   14.4656  -15.5665   17.4861 O   0  0  0  0  0  0  0  0  0  0  0  0
   15.0272  -17.7228   17.0787 N   0  0  0  0  0  0  0  0  0  0  0  0
   15.0607  -18.0074   18.5273 C   0  0  1  0  0  0  0  0  0  0  0  0
   14.1592  -19.0910   18.9471 C   0  0  0  0  0  0  0  0  0  0  0  0
   12.7238  -18.8715   18.8614 C   0  0  0  0  0  0  0  0  0  0  0  0
   11.9609  -17.7355   18.8338 C   0  0  0  0  0  0  0  0  0  0  0  0
   10.6509  -18.0552   18.7179 N   0  0  0  0  0  0  0  0  0  0  0  0
   10.6047  -19.3900   18.6731 C   0  0  0  0  0  0  0  0  0  0  0  0
   11.8296  -19.8922   18.7572 N   0  0  0  0  0  0  0  0  0  0  0  0
   16.4771  -18.1952   18.9038 C   0  0  0  0  0  0  0  0  0  0  0  0
   16.7904  -18.3836   20.1034 O   0  0  0  0  0  0  0  0  0  0  0  0
   17.5085  -18.1736   17.9740 O   0  0  0  0  0  0  0  0  0  0  0  0
  2  1  1  6
  3  4  1  0
  3  2  1  0
  5  6  2  0
  5  2  1  0
  7  8  1  0
  8  9  2  0
  8 10  1  0
 11 10  1  1
 11 13  1  0
 11 12  1  0
 12  5  1  0
 13 15  1  0
 14 13  2  0
 15 16  1  0
 16 23  1  0
 17 18  1  0
 16 17  1  6
 18 22  1  0
 19 20  1  0
 19 18  2  0
 20 21  1  0
 21 22  2  0
 23 24  2  0
 23 25  1  0
M  END
$$$$
