CNH.pdb
     RDKit          3D

 25 25  0  0  1  0  0  0  0  0999 V2000
    7.9192  -13.7417   16.7829 N   0  0  0  0  0  0  0  0  0  0  0  0
    8.6533  -13.5794   18.0015 C   0  0  1  0  0  0  0  0  0  0  0  0
    7.7871  -13.6538   19.2368 C   0  0  0  0  0  0  0  0  0  0  0  0
    8.7474  -13.4529   20.7456 S   0  0  0  0  0  0  0  0  0  0  0  0
    9.7721  -14.5391   18.1165 C   0  0  0  0  0  0  0  0  0  0  0  0
    9.6840  -15.7537   17.8006 O   0  0  0  0  0  0  0  0  0  0  0  0
   14.6177  -16.2911   18.1797 N   0  0  0  0  0  0  0  0  0  0  0  0
   14.5642  -14.8669   17.9444 C   0  0  0  0  0  0  0  0  0  0  0  0
   15.5885  -14.3388   17.5302 O   0  0  0  0  0  0  0  0  0  0  0  0
   13.3181  -14.2050   18.2172 C   0  0  0  0  0  0  0  0  0  0  0  0
   12.1738  -14.9982   18.8229 C   0  0  2  0  0  0  0  0  0  0  0  0
   11.0077  -14.0785   18.6052 N   0  0  0  0  0  0  0  0  0  0  0  0
   12.2985  -15.2940   20.2369 C   0  0  0  0  0  0  0  0  0  0  0  0
   12.6448  -14.3137   20.9933 O   0  0  0  0  0  0  0  0  0  0  0  0
   12.0884  -16.5080   20.9144 N   0  0  0  0  0  0  0  0  0  0  0  0
   12.2326  -16.6133   22.3802 C   0  0  1  0  0  0  0  0  0  0  0  0
   11.1552  -17.3693   23.0367 C   0  0  0  0  0  0  0  0  0  0  0  0
    9.7914  -16.8772   22.9190 C   0  0  0  0  0  0  0  0  0  0  0  0
    9.2738  -15.6504   22.6024 C   0  0  0  0  0  0  0  0  0  0  0  0
    7.9214  -15.7013   22.5971 N   0  0  0  0  0  0  0  0  0  0  0  0
    7.6033  -16.9609   22.9101 C   0  0  0  0  0  0  0  0  0  0  0  0
    8.7043  -17.6747   23.1049 N   0  0  0  0  0  0  0  0  0  0  0  0
   13.5970  -17.1117   22.6511 C   0  0  0  0  0  0  0  0  0  0  0  0
   14.0007  -17.2321   23.8323 O   0  0  0  0  0  0  0  0  0  0  0  0
   14.4805  -17.4637   21.6391 O   0  0  0  0  0  0  0  0  0  0  0  0
  2  1  1  6
  3  4  1  0
  3  2  1  0
  5  6  2  0
  5  2  1  0
  7  8  1  0
  8  9  2  0
  8 10  1  0
 11 10  1  1
 11 13  1  0
 11 12  1  0
 12  5  1  0
 13 15  1  0
 14 13  2  0
 15 16  1  0
 16 23  1  0
 17 18  1  0
 16 17  1  6
 18 22  1  0
 19 20  1  0
 19 18  2  0
 20 21  1  0
 21 22  2  0
 23 24  2  0
 23 25  1  0
M  END
$$$$
