CNH.pdb
     RDKit          3D

 25 25  0  0  1  0  0  0  0  0999 V2000
    7.9440  -14.6614   17.5649 N   0  0  0  0  0  0  0  0  0  0  0  0
    8.9748  -14.0321   18.3342 C   0  0  1  0  0  0  0  0  0  0  0  0
    8.4917  -13.5051   19.6649 C   0  0  0  0  0  0  0  0  0  0  0  0
    7.0353  -12.4628   19.4877 S   0  0  0  0  0  0  0  0  0  0  0  0
   10.1422  -14.9156   18.5400 C   0  0  0  0  0  0  0  0  0  0  0  0
   10.0947  -16.1687   18.4387 O   0  0  0  0  0  0  0  0  0  0  0  0
   16.0405  -13.9011   18.8704 N   0  0  0  0  0  0  0  0  0  0  0  0
   15.0381  -14.8675   18.4857 C   0  0  0  0  0  0  0  0  0  0  0  0
   15.4300  -16.0045   18.2549 O   0  0  0  0  0  0  0  0  0  0  0  0
   13.6792  -14.4060   18.4101 C   0  0  0  0  0  0  0  0  0  0  0  0
   12.5975  -15.1573   19.1656 C   0  0  2  0  0  0  0  0  0  0  0  0
   11.3793  -14.3325   18.8678 N   0  0  0  0  0  0  0  0  0  0  0  0
   12.7833  -15.2439   20.6010 C   0  0  0  0  0  0  0  0  0  0  0  0
   12.1726  -14.3594   21.3066 O   0  0  0  0  0  0  0  0  0  0  0  0
   13.5371  -16.1669   21.3471 N   0  0  0  0  0  0  0  0  0  0  0  0
   12.9813  -16.8395   22.5384 C   0  0  1  0  0  0  0  0  0  0  0  0
   11.6554  -17.4394   22.3250 C   0  0  0  0  0  0  0  0  0  0  0  0
   10.4776  -16.6139   22.5423 C   0  0  0  0  0  0  0  0  0  0  0  0
   10.3183  -15.3148   22.9426 C   0  0  0  0  0  0  0  0  0  0  0  0
    9.0044  -14.9916   22.9683 N   0  0  0  0  0  0  0  0  0  0  0  0
    8.3514  -16.0920   22.5828 C   0  0  0  0  0  0  0  0  0  0  0  0
    9.2128  -17.0673   22.3252 N   0  0  0  0  0  0  0  0  0  0  0  0
   14.0136  -17.7722   23.0360 C   0  0  0  0  0  0  0  0  0  0  0  0
   13.8292  -18.4050   24.1029 O   0  0  0  0  0  0  0  0  0  0  0  0
   15.2104  -17.9915   22.3665 O   0  0  0  0  0  0  0  0  0  0  0  0
  2  1  1  1
  3  4  1  0
  3  2  1  0
  5  6  2  0
  5  2  1  0
  7  8  1  0
  8  9  2  0
  8 10  1  0
 11 10  1  6
 11 13  1  0
 11 12  1  0
 12  5  1  0
 13 15  1  0
 14 13  2  0
 15 16  1  0
 16 23  1  0
 17 18  1  0
 16 17  1  6
 18 22  1  0
 19 20  1  0
 19 18  2  0
 20 21  1  0
 21 22  2  0
 23 24  2  0
 23 25  1  0
M  END
$$$$
