CNH.pdb
     RDKit          3D

 25 25  0  0  1  0  0  0  0  0999 V2000
    7.4316  -13.7675   18.2006 N   0  0  0  0  0  0  0  0  0  0  0  0
    8.5317  -13.9556   19.0978 C   0  0  1  0  0  0  0  0  0  0  0  0
    8.7189  -12.8099   20.0642 C   0  0  0  0  0  0  0  0  0  0  0  0
    8.9652  -11.2438   19.2122 S   0  0  0  0  0  0  0  0  0  0  0  0
    8.4382  -15.2288   19.8434 C   0  0  0  0  0  0  0  0  0  0  0  0
    7.3644  -15.8635   20.0075 O   0  0  0  0  0  0  0  0  0  0  0  0
    9.9742  -20.1105   20.9321 N   0  0  0  0  0  0  0  0  0  0  0  0
   11.0612  -19.1637   20.8385 C   0  0  0  0  0  0  0  0  0  0  0  0
   12.1777  -19.5778   21.1243 O   0  0  0  0  0  0  0  0  0  0  0  0
   10.7320  -17.8288   20.4201 C   0  0  0  0  0  0  0  0  0  0  0  0
    9.6155  -17.0832   21.1292 C   0  0  2  0  0  0  0  0  0  0  0  0
    9.6093  -15.7688   20.4045 N   0  0  0  0  0  0  0  0  0  0  0  0
    9.8197  -16.8528   22.5461 C   0  0  0  0  0  0  0  0  0  0  0  0
    9.6754  -17.8742   23.3137 O   0  0  0  0  0  0  0  0  0  0  0  0
   10.1625  -15.6643   23.2146 N   0  0  0  0  0  0  0  0  0  0  0  0
   10.2581  -15.6023   24.6868 C   0  0  1  0  0  0  0  0  0  0  0  0
    8.9597  -15.6583   25.3755 C   0  0  0  0  0  0  0  0  0  0  0  0
    8.0010  -14.5909   25.1363 C   0  0  0  0  0  0  0  0  0  0  0  0
    8.0351  -13.4765   24.3424 C   0  0  0  0  0  0  0  0  0  0  0  0
    6.8698  -12.7956   24.4428 N   0  0  0  0  0  0  0  0  0  0  0  0
    6.1150  -13.4904   25.2991 C   0  0  0  0  0  0  0  0  0  0  0  0
    6.7726  -14.5621   25.7216 N   0  0  0  0  0  0  0  0  0  0  0  0
   11.2301  -16.6331   25.1062 C   0  0  0  0  0  0  0  0  0  0  0  0
   11.6891  -17.4446   24.2675 O   0  0  0  0  0  0  0  0  0  0  0  0
   11.6749  -16.7544   26.4163 O   0  0  0  0  0  0  0  0  0  0  0  0
  2  1  1  1
  3  4  1  0
  3  2  1  0
  5  6  2  0
  5  2  1  0
  7  8  1  0
  8  9  2  0
  8 10  1  0
 11 10  1  6
 11 13  1  0
 11 12  1  0
 12  5  1  0
 13 15  1  0
 14 13  2  0
 15 16  1  0
 16 23  1  0
 17 18  1  0
 16 17  1  1
 18 22  1  0
 19 20  1  0
 19 18  2  0
 20 21  1  0
 21 22  2  0
 23 24  2  0
 23 25  1  0
M  END
$$$$
