CNH.pdb
     RDKit          3D

 25 25  0  0  1  0  0  0  0  0999 V2000
    9.4450  -15.3193   16.3854 N   0  0  0  0  0  0  0  0  0  0  0  0
    9.8842  -14.5796   17.5301 C   0  0  1  0  0  0  0  0  0  0  0  0
    8.7783  -14.2938   18.5186 C   0  0  0  0  0  0  0  0  0  0  0  0
    9.2676  -13.0659   19.7400 S   0  0  0  0  0  0  0  0  0  0  0  0
   11.0166  -15.2320   18.2212 C   0  0  0  0  0  0  0  0  0  0  0  0
   11.0674  -16.4651   18.4653 O   0  0  0  0  0  0  0  0  0  0  0  0
   15.1720  -13.2808   16.5851 N   0  0  0  0  0  0  0  0  0  0  0  0
   15.1141  -14.3445   17.5608 C   0  0  0  0  0  0  0  0  0  0  0  0
   15.6679  -15.3952   17.2627 O   0  0  0  0  0  0  0  0  0  0  0  0
   14.4146  -14.0712   18.7860 C   0  0  0  0  0  0  0  0  0  0  0  0
   13.3344  -15.0304   19.2534 C   0  0  2  0  0  0  0  0  0  0  0  0
   12.1025  -14.4387   18.6327 N   0  0  0  0  0  0  0  0  0  0  0  0
   13.1567  -15.1193   20.6897 C   0  0  0  0  0  0  0  0  0  0  0  0
   12.0301  -14.7032   21.1489 O   0  0  0  0  0  0  0  0  0  0  0  0
   14.0422  -15.6048   21.6680 N   0  0  0  0  0  0  0  0  0  0  0  0
   13.5593  -16.3321   22.8590 C   0  0  1  0  0  0  0  0  0  0  0  0
   12.5154  -17.3277   22.5719 C   0  0  0  0  0  0  0  0  0  0  0  0
   11.1238  -16.9073   22.6204 C   0  0  0  0  0  0  0  0  0  0  0  0
   10.5300  -15.6955   22.8493 C   0  0  0  0  0  0  0  0  0  0  0  0
    9.1844  -15.8108   22.7618 N   0  0  0  0  0  0  0  0  0  0  0  0
    8.9468  -17.0948   22.4780 C   0  0  0  0  0  0  0  0  0  0  0  0
   10.0899  -17.7620   22.3901 N   0  0  0  0  0  0  0  0  0  0  0  0
   14.7474  -16.8606   23.5607 C   0  0  0  0  0  0  0  0  0  0  0  0
   15.7202  -17.3047   22.9057 O   0  0  0  0  0  0  0  0  0  0  0  0
   14.8468  -16.8924   24.9456 O   0  0  0  0  0  0  0  0  0  0  0  0
  2  1  1  6
  3  4  1  0
  3  2  1  0
  5  6  2  0
  5  2  1  0
  7  8  1  0
  8  9  2  0
  8 10  1  0
 11 10  1  1
 11 13  1  0
 11 12  1  0
 12  5  1  0
 13 15  1  0
 14 13  2  0
 15 16  1  0
 16 23  1  0
 17 18  1  0
 16 17  1  6
 18 22  1  0
 19 20  1  0
 19 18  2  0
 20 21  1  0
 21 22  2  0
 23 24  2  0
 23 25  1  0
M  END
$$$$
