CNH.pdb
     RDKit          3D

 25 25  0  0  1  0  0  0  0  0999 V2000
    8.8453  -14.6662   16.1429 N   0  0  0  0  0  0  0  0  0  0  0  0
    9.3766  -13.9896   17.2876 C   0  0  1  0  0  0  0  0  0  0  0  0
    8.3216  -13.2936   18.1149 C   0  0  0  0  0  0  0  0  0  0  0  0
    9.0392  -12.1016   19.2565 S   0  0  0  0  0  0  0  0  0  0  0  0
   10.1775  -14.8853   18.1491 C   0  0  0  0  0  0  0  0  0  0  0  0
    9.9473  -16.1151   18.2810 O   0  0  0  0  0  0  0  0  0  0  0  0
   14.6490  -16.4614   18.3059 N   0  0  0  0  0  0  0  0  0  0  0  0
   14.2821  -15.0642   18.3033 C   0  0  0  0  0  0  0  0  0  0  0  0
   14.6481  -14.4010   17.3411 O   0  0  0  0  0  0  0  0  0  0  0  0
   13.5242  -14.5846   19.4262 C   0  0  0  0  0  0  0  0  0  0  0  0
   12.1616  -15.1892   19.7141 C   0  0  2  0  0  0  0  0  0  0  0  0
   11.2591  -14.3420   18.8652 N   0  0  0  0  0  0  0  0  0  0  0  0
   11.7279  -15.1224   21.0961 C   0  0  0  0  0  0  0  0  0  0  0  0
   10.9974  -14.1129   21.4134 O   0  0  0  0  0  0  0  0  0  0  0  0
   11.9854  -16.0119   22.1541 N   0  0  0  0  0  0  0  0  0  0  0  0
   10.9574  -16.3348   23.1637 C   0  0  1  0  0  0  0  0  0  0  0  0
    9.6848  -16.8050   22.5954 C   0  0  0  0  0  0  0  0  0  0  0  0
    8.6745  -15.8185   22.2463 C   0  0  0  0  0  0  0  0  0  0  0  0
    8.3806  -14.5780   22.7444 C   0  0  0  0  0  0  0  0  0  0  0  0
    7.3512  -14.0306   22.0572 N   0  0  0  0  0  0  0  0  0  0  0  0
    7.0094  -14.9335   21.1332 C   0  0  0  0  0  0  0  0  0  0  0  0
    7.7869  -16.0038   21.2314 N   0  0  0  0  0  0  0  0  0  0  0  0
   11.5780  -17.2510   24.1429 C   0  0  0  0  0  0  0  0  0  0  0  0
   11.0075  -17.4868   25.2344 O   0  0  0  0  0  0  0  0  0  0  0  0
   12.7932  -17.8825   23.9121 O   0  0  0  0  0  0  0  0  0  0  0  0
  2  1  1  6
  3  4  1  0
  3  2  1  0
  5  6  2  0
  5  2  1  0
  7  8  1  0
  8  9  2  0
  8 10  1  0
 11 10  1  1
 11 13  1  0
 11 12  1  0
 12  5  1  0
 13 15  1  0
 14 13  2  0
 15 16  1  0
 16 23  1  0
 17 18  1  0
 16 17  1  6
 18 22  1  0
 19 20  1  0
 19 18  2  0
 20 21  1  0
 21 22  2  0
 23 24  2  0
 23 25  1  0
M  END
$$$$
