CNH.pdb
     RDKit          3D

 25 25  0  0  1  0  0  0  0  0999 V2000
    6.3098  -14.6238   20.5577 N   0  0  0  0  0  0  0  0  0  0  0  0
    7.5323  -14.4037   19.8452 C   0  0  1  0  0  0  0  0  0  0  0  0
    8.4360  -13.3895   20.5059 C   0  0  0  0  0  0  0  0  0  0  0  0
    8.5996  -11.8915   19.5220 S   0  0  0  0  0  0  0  0  0  0  0  0
    8.2780  -15.6578   19.6065 C   0  0  0  0  0  0  0  0  0  0  0  0
    8.2230  -16.6574   20.3684 O   0  0  0  0  0  0  0  0  0  0  0  0
    8.4386  -18.0465   15.8797 N   0  0  0  0  0  0  0  0  0  0  0  0
    9.2781  -16.8732   15.8062 C   0  0  0  0  0  0  0  0  0  0  0  0
    9.0107  -16.0593   14.9311 O   0  0  0  0  0  0  0  0  0  0  0  0
   10.3450  -16.7709   16.7636 C   0  0  0  0  0  0  0  0  0  0  0  0
   10.0294  -16.9032   18.2428 C   0  0  2  0  0  0  0  0  0  0  0  0
    9.0971  -15.7483   18.4670 N   0  0  0  0  0  0  0  0  0  0  0  0
   11.1652  -16.7876   19.1366 C   0  0  0  0  0  0  0  0  0  0  0  0
   12.1172  -17.6330   18.9567 O   0  0  0  0  0  0  0  0  0  0  0  0
   11.3869  -15.8729   20.1812 N   0  0  0  0  0  0  0  0  0  0  0  0
   12.6061  -15.9253   21.0126 C   0  0  1  0  0  0  0  0  0  0  0  0
   13.4616  -14.7343   20.8993 C   0  0  0  0  0  0  0  0  0  0  0  0
   14.1928  -14.5208   19.6601 C   0  0  0  0  0  0  0  0  0  0  0  0
   14.1933  -15.1792   18.4601 C   0  0  0  0  0  0  0  0  0  0  0  0
   15.0390  -14.5726   17.5949 N   0  0  0  0  0  0  0  0  0  0  0  0
   15.5609  -13.5382   18.2609 C   0  0  0  0  0  0  0  0  0  0  0  0
   15.0682  -13.4924   19.4916 N   0  0  0  0  0  0  0  0  0  0  0  0
   12.1836  -16.2595   22.3885 C   0  0  0  0  0  0  0  0  0  0  0  0
   10.9655  -16.3771   22.6624 O   0  0  0  0  0  0  0  0  0  0  0  0
   13.0890  -16.4559   23.4232 O   0  0  0  0  0  0  0  0  0  0  0  0
  2  1  1  1
  3  4  1  0
  3  2  1  0
  5  6  2  0
  5  2  1  0
  7  8  1  0
  8  9  2  0
  8 10  1  0
 11 10  1  6
 11 13  1  0
 11 12  1  0
 12  5  1  0
 13 15  1  0
 14 13  2  0
 15 16  1  0
 16 23  1  0
 17 18  1  0
 16 17  1  1
 18 22  1  0
 19 20  1  0
 19 18  2  0
 20 21  1  0
 21 22  2  0
 23 24  2  0
 23 25  1  0
M  END
$$$$
