CNH.pdb
     RDKit          3D

 25 25  0  0  1  0  0  0  0  0999 V2000
    7.7535  -13.9063   18.2017 N   0  0  0  0  0  0  0  0  0  0  0  0
    8.9170  -13.8426   19.0340 C   0  0  1  0  0  0  0  0  0  0  0  0
    8.9430  -12.6303   19.9349 C   0  0  0  0  0  0  0  0  0  0  0  0
    7.5547  -12.6127   21.0801 S   0  0  0  0  0  0  0  0  0  0  0  0
    9.1003  -15.0686   19.8397 C   0  0  0  0  0  0  0  0  0  0  0  0
    8.1568  -15.8307   20.1741 O   0  0  0  0  0  0  0  0  0  0  0  0
   12.8114  -19.2919   20.6607 N   0  0  0  0  0  0  0  0  0  0  0  0
   12.7971  -18.0281   21.3602 C   0  0  0  0  0  0  0  0  0  0  0  0
   13.3621  -17.9939   22.4462 O   0  0  0  0  0  0  0  0  0  0  0  0
   12.1237  -16.9326   20.7185 C   0  0  0  0  0  0  0  0  0  0  0  0
   10.6758  -16.6426   21.0719 C   0  0  2  0  0  0  0  0  0  0  0  0
   10.3978  -15.4107   20.2606 N   0  0  0  0  0  0  0  0  0  0  0  0
   10.4175  -16.3676   22.4719 C   0  0  0  0  0  0  0  0  0  0  0  0
   10.7603  -15.2024   22.8939 O   0  0  0  0  0  0  0  0  0  0  0  0
    9.8348  -17.1939   23.4489 N   0  0  0  0  0  0  0  0  0  0  0  0
    9.6045  -16.7204   24.8285 C   0  0  1  0  0  0  0  0  0  0  0  0
    8.2009  -16.3964   25.1255 C   0  0  0  0  0  0  0  0  0  0  0  0
    7.7202  -15.0564   24.8270 C   0  0  0  0  0  0  0  0  0  0  0  0
    8.3649  -13.8702   24.6017 C   0  0  0  0  0  0  0  0  0  0  0  0
    7.4666  -12.8937   24.3350 N   0  0  0  0  0  0  0  0  0  0  0  0
    6.2660  -13.4774   24.3950 C   0  0  0  0  0  0  0  0  0  0  0  0
    6.3983  -14.7646   24.6866 N   0  0  0  0  0  0  0  0  0  0  0  0
   10.2215  -17.7073   25.7388 C   0  0  0  0  0  0  0  0  0  0  0  0
   10.7059  -18.7697   25.2813 O   0  0  0  0  0  0  0  0  0  0  0  0
   10.2957  -17.5154   27.1123 O   0  0  0  0  0  0  0  0  0  0  0  0
  2  1  1  1
  3  4  1  0
  3  2  1  0
  5  6  2  0
  5  2  1  0
  7  8  1  0
  8  9  2  0
  8 10  1  0
 11 10  1  1
 11 13  1  0
 11 12  1  0
 12  5  1  0
 13 15  1  0
 14 13  2  0
 15 16  1  0
 16 23  1  0
 17 18  1  0
 16 17  1  1
 18 22  1  0
 19 20  1  0
 19 18  2  0
 20 21  1  0
 21 22  2  0
 23 24  2  0
 23 25  1  0
M  END
$$$$
