PEA.pdb
     RDKit          3D

 22 22  0  0  1  0  0  0  0  0999 V2000
   24.3366  -11.8567  -15.7745 N   0  0  0  0  0  0  0  0  0  0  0  0
   24.9682  -13.1032  -16.0922 C   0  0  0  0  0  0  0  0  0  0  0  0
   24.7561  -13.3884  -17.5574 C   0  0  0  0  0  0  0  0  0  0  0  0
   23.7950  -12.2641  -17.9668 C   0  0  0  0  0  0  0  0  0  0  0  0
   24.2690  -11.1696  -17.0274 C   0  0  1  0  0  0  0  0  0  0  0  0
   23.3636  -10.0047  -17.0069 C   0  0  0  0  0  0  0  0  0  0  0  0
   23.3076   -9.2333  -18.0183 O   0  0  0  0  0  0  0  0  0  0  0  0
   22.5702   -9.7759  -15.8423 N   0  0  0  0  0  0  0  0  0  0  0  0
   21.6087   -8.7217  -15.8413 C   0  0  1  0  0  0  0  0  0  0  0  0
   20.2525   -9.0892  -15.3695 C   0  0  0  0  0  0  0  0  0  0  0  0
   19.4451   -9.9155  -16.2840 C   0  0  0  0  0  0  0  0  0  0  0  0
   18.1081  -10.3153  -15.9203 C   0  0  0  0  0  0  0  0  0  0  0  0
   17.0847  -10.2237  -16.6087 O   0  0  0  0  0  0  0  0  0  0  0  0
   22.1739   -7.5598  -15.0838 C   0  0  0  0  0  0  0  0  0  0  0  0
   22.6609   -7.7567  -13.9468 O   0  0  0  0  0  0  0  0  0  0  0  0
   17.9290  -10.8775  -14.6349 O   0  0  0  0  0  0  0  0  0  0  0  0
   22.8734   -3.9954  -15.9097 C   0  0  0  0  0  0  0  0  0  0  0  0
   22.7186   -5.1648  -14.9613 C   0  0  2  0  0  0  0  0  0  0  0  0
   22.1348   -6.2824  -15.6870 N   0  0  0  0  0  0  0  0  0  0  0  0
   21.7748   -4.7719  -13.8753 C   0  0  0  0  0  0  0  0  0  0  0  0
   20.5748   -5.1600  -13.8626 O   0  0  0  0  0  0  0  0  0  0  0  0
   22.2285   -3.9589  -12.8536 O   0  0  0  0  0  0  0  0  0  0  0  0
  1  5  1  0
  2  1  1  0
  3  4  1  0
  3  2  1  0
  4  5  1  0
  5  6  1  1
  6  7  2  0
  8  9  1  0
  8  6  1  0
  9 14  1  0
  9 10  1  1
 11 10  1  0
 11 12  1  0
 12 13  2  0
 12 16  1  0
 14 15  2  0
 14 19  1  0
 18 17  1  6
 18 20  1  0
 19 18  1  0
 20 22  1  0
 21 20  2  0
M  END
$$$$
