PEA.pdb
     RDKit          3D

 22 22  0  0  1  0  0  0  0  0999 V2000
   22.0500  -11.7856  -17.8251 N   0  0  0  0  0  0  0  0  0  0  0  0
   22.3385  -12.9025  -18.6754 C   0  0  0  0  0  0  0  0  0  0  0  0
   21.4444  -12.8262  -19.8869 C   0  0  0  0  0  0  0  0  0  0  0  0
   20.5166  -11.6578  -19.5274 C   0  0  0  0  0  0  0  0  0  0  0  0
   21.4755  -10.8153  -18.7053 C   0  0  1  0  0  0  0  0  0  0  0  0
   20.8000   -9.7111  -17.9969 C   0  0  0  0  0  0  0  0  0  0  0  0
   20.1949   -8.8117  -18.6649 O   0  0  0  0  0  0  0  0  0  0  0  0
   20.8462   -9.6846  -16.5703 N   0  0  0  0  0  0  0  0  0  0  0  0
   20.1583   -8.6540  -15.8627 C   0  0  1  0  0  0  0  0  0  0  0  0
   19.1382   -9.1128  -14.8902 C   0  0  0  0  0  0  0  0  0  0  0  0
   17.9630   -9.8007  -15.4530 C   0  0  0  0  0  0  0  0  0  0  0  0
   16.9270  -10.3060  -14.5863 C   0  0  0  0  0  0  0  0  0  0  0  0
   16.8136  -11.4556  -14.1446 O   0  0  0  0  0  0  0  0  0  0  0  0
   21.1715   -7.7486  -15.2326 C   0  0  0  0  0  0  0  0  0  0  0  0
   22.1144   -8.2542  -14.5815 O   0  0  0  0  0  0  0  0  0  0  0  0
   15.9191   -9.3979  -14.1866 O   0  0  0  0  0  0  0  0  0  0  0  0
   21.8214   -4.0812  -15.2516 C   0  0  0  0  0  0  0  0  0  0  0  0
   21.9231   -5.4753  -14.6711 C   0  0  2  0  0  0  0  0  0  0  0  0
   21.0211   -6.3534  -15.4003 N   0  0  0  0  0  0  0  0  0  0  0  0
   21.4779   -5.4293  -13.2483 C   0  0  0  0  0  0  0  0  0  0  0  0
   22.1065   -4.7721  -12.3744 O   0  0  0  0  0  0  0  0  0  0  0  0
   20.3438   -6.1270  -12.8772 O   0  0  0  0  0  0  0  0  0  0  0  0
  1  5  1  0
  2  1  1  0
  3  4  1  0
  3  2  1  0
  4  5  1  0
  5  6  1  1
  6  7  2  0
  8  9  1  0
  8  6  1  0
  9 14  1  0
  9 10  1  1
 11 10  1  0
 11 12  1  0
 12 13  2  0
 12 16  1  0
 14 15  2  0
 14 19  1  0
 18 17  1  6
 18 20  1  0
 19 18  1  0
 20 22  1  0
 21 20  2  0
M  END
$$$$
