PEA.pdb
     RDKit          3D

 22 22  0  0  1  0  0  0  0  0999 V2000
   24.0464  -12.6366  -15.4144 N   0  0  0  0  0  0  0  0  0  0  0  0
   24.6873  -13.8872  -15.6951 C   0  0  0  0  0  0  0  0  0  0  0  0
   24.8541  -14.0159  -17.1880 C   0  0  0  0  0  0  0  0  0  0  0  0
   24.0804  -12.7949  -17.7033 C   0  0  0  0  0  0  0  0  0  0  0  0
   24.3368  -11.8300  -16.5595 C   0  0  1  0  0  0  0  0  0  0  0  0
   23.5061  -10.6134  -16.6433 C   0  0  0  0  0  0  0  0  0  0  0  0
   23.6375   -9.8289  -17.6376 O   0  0  0  0  0  0  0  0  0  0  0  0
   22.5713  -10.3505  -15.5968 N   0  0  0  0  0  0  0  0  0  0  0  0
   21.6207   -9.2975  -15.7501 C   0  0  1  0  0  0  0  0  0  0  0  0
   20.2214   -9.6390  -15.4003 C   0  0  0  0  0  0  0  0  0  0  0  0
   19.5289  -10.5669  -16.3117 C   0  0  0  0  0  0  0  0  0  0  0  0
   18.1776  -10.9891  -16.0370 C   0  0  0  0  0  0  0  0  0  0  0  0
   17.1567  -10.2912  -16.0505 O   0  0  0  0  0  0  0  0  0  0  0  0
   22.1123   -8.0970  -15.0015 C   0  0  0  0  0  0  0  0  0  0  0  0
   22.4900   -8.2350  -13.8153 O   0  0  0  0  0  0  0  0  0  0  0  0
   17.9795  -12.3518  -15.7140 O   0  0  0  0  0  0  0  0  0  0  0  0
   23.0990   -4.6737  -16.0506 C   0  0  0  0  0  0  0  0  0  0  0  0
   22.7950   -5.7344  -15.0146 C   0  0  2  0  0  0  0  0  0  0  0  0
   22.1306   -6.8512  -15.6686 N   0  0  0  0  0  0  0  0  0  0  0  0
   21.8556   -5.1587  -14.0092 C   0  0  0  0  0  0  0  0  0  0  0  0
   20.6195   -5.4082  -14.0328 O   0  0  0  0  0  0  0  0  0  0  0  0
   22.3543   -4.3279  -13.0235 O   0  0  0  0  0  0  0  0  0  0  0  0
  1  5  1  0
  2  1  1  0
  3  4  1  0
  3  2  1  0
  4  5  1  0
  5  6  1  6
  6  7  2  0
  8  9  1  0
  8  6  1  0
  9 14  1  0
  9 10  1  1
 11 10  1  0
 11 12  1  0
 12 13  2  0
 12 16  1  0
 14 15  2  0
 14 19  1  0
 18 17  1  6
 18 20  1  0
 19 18  1  0
 20 22  1  0
 21 20  2  0
M  END
$$$$
