PEA.pdb
     RDKit          3D

 22 22  0  0  1  0  0  0  0  0999 V2000
   24.1174  -12.3588  -15.3618 N   0  0  0  0  0  0  0  0  0  0  0  0
   24.7090  -13.6442  -15.5882 C   0  0  0  0  0  0  0  0  0  0  0  0
   24.6816  -13.9306  -17.0682 C   0  0  0  0  0  0  0  0  0  0  0  0
   23.8559  -12.7545  -17.6068 C   0  0  0  0  0  0  0  0  0  0  0  0
   24.2634  -11.6813  -16.6132 C   0  0  1  0  0  0  0  0  0  0  0  0
   23.4366  -10.4637  -16.7185 C   0  0  0  0  0  0  0  0  0  0  0  0
   23.5382   -9.7212  -17.7478 O   0  0  0  0  0  0  0  0  0  0  0  0
   22.5393  -10.1525  -15.6527 N   0  0  0  0  0  0  0  0  0  0  0  0
   21.6262   -9.0653  -15.7959 C   0  0  1  0  0  0  0  0  0  0  0  0
   20.2111   -9.3681  -15.4754 C   0  0  0  0  0  0  0  0  0  0  0  0
   19.2383   -8.2928  -15.7374 C   0  0  0  0  0  0  0  0  0  0  0  0
   17.8418   -8.4794  -15.4299 C   0  0  0  0  0  0  0  0  0  0  0  0
   17.2407   -9.5518  -15.2945 O   0  0  0  0  0  0  0  0  0  0  0  0
   22.1450   -7.8990  -15.0124 C   0  0  0  0  0  0  0  0  0  0  0  0
   22.4995   -8.0764  -13.8243 O   0  0  0  0  0  0  0  0  0  0  0  0
   17.0562   -7.3155  -15.2610 O   0  0  0  0  0  0  0  0  0  0  0  0
   23.0649   -4.3911  -15.8631 C   0  0  0  0  0  0  0  0  0  0  0  0
   22.7741   -5.5241  -14.9027 C   0  0  2  0  0  0  0  0  0  0  0  0
   22.2141   -6.6397  -15.6500 N   0  0  0  0  0  0  0  0  0  0  0  0
   21.7508   -5.0618  -13.9210 C   0  0  0  0  0  0  0  0  0  0  0  0
   20.5399   -5.4033  -14.0100 O   0  0  0  0  0  0  0  0  0  0  0  0
   22.1410   -4.2354  -12.8840 O   0  0  0  0  0  0  0  0  0  0  0  0
  1  5  1  0
  2  1  1  0
  3  4  1  0
  3  2  1  0
  4  5  1  0
  5  6  1  1
  6  7  2  0
  8  9  1  0
  8  6  1  0
  9 14  1  0
  9 10  1  1
 11 10  1  0
 11 12  1  0
 12 13  2  0
 12 16  1  0
 14 15  2  0
 14 19  1  0
 18 17  1  6
 18 20  1  0
 19 18  1  0
 20 22  1  0
 21 20  2  0
M  END
$$$$
