PEA.pdb
     RDKit          3D

 22 22  0  0  1  0  0  0  0  0999 V2000
   22.1086  -11.9312  -19.5761 N   0  0  0  0  0  0  0  0  0  0  0  0
   22.4794  -13.2441  -20.0146 C   0  0  0  0  0  0  0  0  0  0  0  0
   21.3672  -14.1991  -19.6624 C   0  0  0  0  0  0  0  0  0  0  0  0
   20.4333  -13.3103  -18.8300 C   0  0  0  0  0  0  0  0  0  0  0  0
   20.6803  -11.9752  -19.5093 C   0  0  1  0  0  0  0  0  0  0  0  0
   20.0947  -10.8417  -18.7681 C   0  0  0  0  0  0  0  0  0  0  0  0
   18.8317  -10.7696  -18.6233 O   0  0  0  0  0  0  0  0  0  0  0  0
   20.9706   -9.8508  -18.2306 N   0  0  0  0  0  0  0  0  0  0  0  0
   20.4309   -8.7752  -17.4639 C   0  0  1  0  0  0  0  0  0  0  0  0
   20.7773   -8.7761  -16.0227 C   0  0  0  0  0  0  0  0  0  0  0  0
   20.2548   -7.6525  -15.2254 C   0  0  0  0  0  0  0  0  0  0  0  0
   20.5881   -7.5307  -13.8276 C   0  0  0  0  0  0  0  0  0  0  0  0
   20.2565   -6.6245  -13.0540 O   0  0  0  0  0  0  0  0  0  0  0  0
   20.7934   -7.4839  -18.1304 C   0  0  0  0  0  0  0  0  0  0  0  0
   21.9930   -7.2659  -18.4176 O   0  0  0  0  0  0  0  0  0  0  0  0
   21.3833   -8.5542  -13.2614 O   0  0  0  0  0  0  0  0  0  0  0  0
   18.8172   -4.7133  -19.6444 C   0  0  0  0  0  0  0  0  0  0  0  0
   20.0978   -5.3682  -19.1733 C   0  0  2  0  0  0  0  0  0  0  0  0
   19.7612   -6.5600  -18.4100 N   0  0  0  0  0  0  0  0  0  0  0  0
   20.8084   -4.4207  -18.2667 C   0  0  0  0  0  0  0  0  0  0  0  0
   21.2689   -3.3216  -18.6800 O   0  0  0  0  0  0  0  0  0  0  0  0
   20.9667   -4.7570  -16.9354 O   0  0  0  0  0  0  0  0  0  0  0  0
  1  5  1  0
  2  1  1  0
  3  4  1  0
  3  2  1  0
  4  5  1  0
  5  6  1  1
  6  7  2  0
  8  9  1  0
  8  6  1  0
  9 14  1  0
  9 10  1  1
 11 10  1  0
 11 12  1  0
 12 13  2  0
 12 16  1  0
 14 15  2  0
 14 19  1  0
 18 17  1  1
 18 20  1  0
 19 18  1  0
 20 22  1  0
 21 20  2  0
M  END
$$$$
