PEA.pdb
     RDKit          3D

 22 22  0  0  1  0  0  0  0  0999 V2000
   29.1308  -35.0879   -5.5722 N   0  0  0  0  0  0  0  0  0  0  0  0
   28.6995  -34.6452   -6.8652 C   0  0  0  0  0  0  0  0  0  0  0  0
   27.1925  -34.6059   -6.8805 C   0  0  0  0  0  0  0  0  0  0  0  0
   26.8417  -35.2413   -5.5282 C   0  0  0  0  0  0  0  0  0  0  0  0
   28.0327  -34.7738   -4.7109 C   0  0  1  0  0  0  0  0  0  0  0  0
   28.1150  -35.4349   -3.3943 C   0  0  0  0  0  0  0  0  0  0  0  0
   27.1315  -35.3587   -2.5893 O   0  0  0  0  0  0  0  0  0  0  0  0
   29.3065  -36.1467   -3.0601 N   0  0  0  0  0  0  0  0  0  0  0  0
   29.3206  -36.9971   -1.9144 C   0  0  1  0  0  0  0  0  0  0  0  0
   30.4981  -37.8888   -1.7904 C   0  0  0  0  0  0  0  0  0  0  0  0
   30.4435  -38.8961   -0.7163 C   0  0  0  0  0  0  0  0  0  0  0  0
   31.5818  -39.7391   -0.4460 C   0  0  0  0  0  0  0  0  0  0  0  0
   31.9546  -40.1658    0.6532 O   0  0  0  0  0  0  0  0  0  0  0  0
   29.1190  -36.1555   -0.6920 C   0  0  0  0  0  0  0  0  0  0  0  0
   29.7267  -35.0641   -0.6005 O   0  0  0  0  0  0  0  0  0  0  0  0
   32.3721  -40.1315   -1.5515 O   0  0  0  0  0  0  0  0  0  0  0  0
   26.5997  -36.0984    1.9959 C   0  0  0  0  0  0  0  0  0  0  0  0
   27.9681  -35.7595    1.4449 C   0  0  2  0  0  0  0  0  0  0  0  0
   28.2462  -36.6301    0.3131 N   0  0  0  0  0  0  0  0  0  0  0  0
   28.9847  -36.0318    2.5018 C   0  0  0  0  0  0  0  0  0  0  0  0
   29.8466  -36.9442    2.3779 O   0  0  0  0  0  0  0  0  0  0  0  0
   28.9819  -35.2621    3.6498 O   0  0  0  0  0  0  0  0  0  0  0  0
  1  5  1  0
  2  1  1  0
  3  4  1  0
  3  2  1  0
  4  5  1  0
  5  6  1  1
  6  7  2  0
  8  9  1  0
  8  6  1  0
  9 14  1  0
  9 10  1  1
 11 10  1  0
 11 12  1  0
 12 13  2  0
 12 16  1  0
 14 15  2  0
 14 19  1  0
 18 17  1  1
 18 20  1  0
 19 18  1  0
 20 22  1  0
 21 20  2  0
M  END
$$$$
