PEA.pdb
     RDKit          3D

 22 22  0  0  1  0  0  0  0  0999 V2000
   23.5083  -12.0256  -15.3544 N   0  0  0  0  0  0  0  0  0  0  0  0
   23.9641  -13.3678  -15.5649 C   0  0  0  0  0  0  0  0  0  0  0  0
   23.9384  -13.6563  -17.0445 C   0  0  0  0  0  0  0  0  0  0  0  0
   23.2548  -12.4012  -17.6038 C   0  0  0  0  0  0  0  0  0  0  0  0
   23.7529  -11.3732  -16.6037 C   0  0  1  0  0  0  0  0  0  0  0  0
   23.0632  -10.0749  -16.7299 C   0  0  0  0  0  0  0  0  0  0  0  0
   23.2781   -9.3447  -17.7506 O   0  0  0  0  0  0  0  0  0  0  0  0
   22.1673   -9.6732  -15.6935 N   0  0  0  0  0  0  0  0  0  0  0  0
   21.3500   -8.5182  -15.8779 C   0  0  1  0  0  0  0  0  0  0  0  0
   19.9061   -8.7012  -15.5975 C   0  0  0  0  0  0  0  0  0  0  0  0
   19.0491   -7.5180  -15.7890 C   0  0  0  0  0  0  0  0  0  0  0  0
   17.6299   -7.5959  -15.5451 C   0  0  0  0  0  0  0  0  0  0  0  0
   16.9983   -8.5594  -15.0955 O   0  0  0  0  0  0  0  0  0  0  0  0
   21.9380   -7.3863  -15.0929 C   0  0  0  0  0  0  0  0  0  0  0  0
   22.2683   -7.5825  -13.9008 O   0  0  0  0  0  0  0  0  0  0  0  0
   16.8583   -6.4501  -15.8487 O   0  0  0  0  0  0  0  0  0  0  0  0
   22.9651   -3.8924  -15.9224 C   0  0  0  0  0  0  0  0  0  0  0  0
   22.7395   -5.0635  -14.9905 C   0  0  2  0  0  0  0  0  0  0  0  0
   22.0975   -6.1368  -15.7337 N   0  0  0  0  0  0  0  0  0  0  0  0
   21.8137   -4.6322  -13.9036 C   0  0  0  0  0  0  0  0  0  0  0  0
   22.2375   -4.1225  -12.8305 O   0  0  0  0  0  0  0  0  0  0  0  0
   20.4523   -4.7958  -14.0775 O   0  0  0  0  0  0  0  0  0  0  0  0
  1  5  1  0
  2  1  1  0
  3  4  1  0
  3  2  1  0
  4  5  1  0
  5  6  1  1
  6  7  2  0
  8  9  1  0
  8  6  1  0
  9 14  1  0
  9 10  1  1
 11 10  1  0
 11 12  1  0
 12 13  2  0
 12 16  1  0
 14 15  2  0
 14 19  1  0
 18 17  1  6
 18 20  1  0
 19 18  1  0
 20 22  1  0
 21 20  2  0
M  END
$$$$
