PEA.pdb
     RDKit          3D

 22 22  0  0  1  0  0  0  0  0999 V2000
   27.3082  -19.7420  -17.2075 N   0  0  0  0  0  0  0  0  0  0  0  0
   28.4646  -19.6116  -18.0437 C   0  0  0  0  0  0  0  0  0  0  0  0
   28.9971  -18.2074  -17.9098 C   0  0  0  0  0  0  0  0  0  0  0  0
   27.9134  -17.5338  -17.0571 C   0  0  0  0  0  0  0  0  0  0  0  0
   27.4743  -18.7213  -16.2192 C   0  0  1  0  0  0  0  0  0  0  0  0
   26.2468  -18.4506  -15.4465 C   0  0  0  0  0  0  0  0  0  0  0  0
   26.2581  -17.5565  -14.5400 O   0  0  0  0  0  0  0  0  0  0  0  0
   25.0725  -19.2068  -15.7418 N   0  0  0  0  0  0  0  0  0  0  0  0
   23.8520  -18.9039  -15.0676 C   0  0  1  0  0  0  0  0  0  0  0  0
   22.7050  -18.5564  -15.9397 C   0  0  0  0  0  0  0  0  0  0  0  0
   21.4195  -18.3141  -15.2614 C   0  0  0  0  0  0  0  0  0  0  0  0
   20.2133  -18.1215  -16.0281 C   0  0  0  0  0  0  0  0  0  0  0  0
   20.1253  -17.8339  -17.2277 O   0  0  0  0  0  0  0  0  0  0  0  0
   23.5297  -20.0296  -14.1336 C   0  0  0  0  0  0  0  0  0  0  0  0
   23.4261  -21.1894  -14.5952 O   0  0  0  0  0  0  0  0  0  0  0  0
   18.9834  -18.2748  -15.3468 O   0  0  0  0  0  0  0  0  0  0  0  0
   23.4711  -20.4315  -10.4544 C   0  0  0  0  0  0  0  0  0  0  0  0
   23.0710  -20.8373  -11.8565 C   0  0  2  0  0  0  0  0  0  0  0  0
   23.3557  -19.7351  -12.7624 N   0  0  0  0  0  0  0  0  0  0  0  0
   21.6007  -21.0871  -11.8758 C   0  0  0  0  0  0  0  0  0  0  0  0
   20.8012  -20.3137  -12.4703 O   0  0  0  0  0  0  0  0  0  0  0  0
   21.1001  -22.1980  -11.2232 O   0  0  0  0  0  0  0  0  0  0  0  0
  1  5  1  0
  2  1  1  0
  3  4  1  0
  3  2  1  0
  4  5  1  0
  5  6  1  6
  6  7  2  0
  8  9  1  0
  8  6  1  0
  9 14  1  0
  9 10  1  6
 11 10  1  0
 11 12  1  0
 12 13  2  0
 12 16  1  0
 14 15  2  0
 14 19  1  0
 18 17  1  1
 18 20  1  0
 19 18  1  0
 20 22  1  0
 21 20  2  0
M  END
$$$$
