PEA.pdb
     RDKit          3D

 22 22  0  0  1  0  0  0  0  0999 V2000
   26.4112  -34.4615  -12.4956 N   0  0  0  0  0  0  0  0  0  0  0  0
   26.4734  -34.3828  -13.9251 C   0  0  0  0  0  0  0  0  0  0  0  0
   25.0798  -34.1559  -14.4538 C   0  0  0  0  0  0  0  0  0  0  0  0
   24.2287  -34.2973  -13.1846 C   0  0  0  0  0  0  0  0  0  0  0  0
   25.2106  -33.7605  -12.1587 C   0  0  1  0  0  0  0  0  0  0  0  0
   24.7681  -33.9930  -10.7704 C   0  0  0  0  0  0  0  0  0  0  0  0
   23.6388  -33.5473  -10.3868 O   0  0  0  0  0  0  0  0  0  0  0  0
   25.6282  -34.7178   -9.8911 N   0  0  0  0  0  0  0  0  0  0  0  0
   25.1271  -35.1774   -8.6366 C   0  0  1  0  0  0  0  0  0  0  0  0
   25.2475  -36.6342   -8.3912 C   0  0  0  0  0  0  0  0  0  0  0  0
   24.2986  -37.4984   -9.1150 C   0  0  0  0  0  0  0  0  0  0  0  0
   24.2868  -38.9224   -8.8875 C   0  0  0  0  0  0  0  0  0  0  0  0
   24.5367  -39.8146   -9.7067 O   0  0  0  0  0  0  0  0  0  0  0  0
   25.7560  -34.3675   -7.5450 C   0  0  0  0  0  0  0  0  0  0  0  0
   26.9712  -34.0757   -7.6298 O   0  0  0  0  0  0  0  0  0  0  0  0
   23.9540  -39.3661   -7.5864 O   0  0  0  0  0  0  0  0  0  0  0  0
   24.4507  -32.5299   -4.5813 C   0  0  0  0  0  0  0  0  0  0  0  0
   25.5511  -33.1305   -5.4294 C   0  0  2  0  0  0  0  0  0  0  0  0
   24.9478  -33.9632   -6.4585 N   0  0  0  0  0  0  0  0  0  0  0  0
   26.3952  -34.0020   -4.5619 C   0  0  0  0  0  0  0  0  0  0  0  0
   26.3755  -35.2593   -4.6602 O   0  0  0  0  0  0  0  0  0  0  0  0
   27.2228  -33.4147   -3.6233 O   0  0  0  0  0  0  0  0  0  0  0  0
  1  5  1  0
  2  1  1  0
  3  4  1  0
  3  2  1  0
  4  5  1  0
  5  6  1  1
  6  7  2  0
  8  9  1  0
  8  6  1  0
  9 14  1  0
  9 10  1  1
 11 10  1  0
 11 12  1  0
 12 13  2  0
 12 16  1  0
 14 15  2  0
 14 19  1  0
 18 17  1  1
 18 20  1  0
 19 18  1  0
 20 22  1  0
 21 20  2  0
M  END
$$$$
