PEA.pdb
     RDKit          3D

 22 22  0  0  1  0  0  0  0  0999 V2000
   19.1765  -10.2309  -17.1730 N   0  0  0  0  0  0  0  0  0  0  0  0
   19.4466  -11.6116  -17.4457 C   0  0  0  0  0  0  0  0  0  0  0  0
   19.7444  -12.3083  -16.1423 C   0  0  0  0  0  0  0  0  0  0  0  0
   19.7856  -11.1350  -15.1539 C   0  0  0  0  0  0  0  0  0  0  0  0
   18.7637  -10.2192  -15.8034 C   0  0  1  0  0  0  0  0  0  0  0  0
   18.7495   -8.8688  -15.2089 C   0  0  0  0  0  0  0  0  0  0  0  0
   18.4106   -8.7212  -13.9905 O   0  0  0  0  0  0  0  0  0  0  0  0
   19.1198   -7.7582  -16.0259 N   0  0  0  0  0  0  0  0  0  0  0  0
   19.1151   -6.4436  -15.4712 C   0  0  1  0  0  0  0  0  0  0  0  0
   20.4476   -5.8273  -15.2669 C   0  0  0  0  0  0  0  0  0  0  0  0
   21.0548   -6.0121  -13.9372 C   0  0  0  0  0  0  0  0  0  0  0  0
   22.3133   -5.3859  -13.6148 C   0  0  0  0  0  0  0  0  0  0  0  0
   23.3833   -5.4955  -14.2252 O   0  0  0  0  0  0  0  0  0  0  0  0
   18.2146   -5.5789  -16.2988 C   0  0  0  0  0  0  0  0  0  0  0  0
   18.3239   -5.6088  -17.5462 O   0  0  0  0  0  0  0  0  0  0  0  0
   22.3452   -4.5488  -12.4752 O   0  0  0  0  0  0  0  0  0  0  0  0
   15.2793   -3.4039  -15.5409 C   0  0  0  0  0  0  0  0  0  0  0  0
   16.3402   -3.9936  -16.4451 C   0  0  2  0  0  0  0  0  0  0  0  0
   17.2731   -4.7609  -15.6342 N   0  0  0  0  0  0  0  0  0  0  0  0
   17.0915   -2.8754  -17.0853 C   0  0  0  0  0  0  0  0  0  0  0  0
   18.1402   -2.3976  -16.5726 O   0  0  0  0  0  0  0  0  0  0  0  0
   16.6249   -2.3477  -18.2745 O   0  0  0  0  0  0  0  0  0  0  0  0
  1  5  1  0
  2  1  1  0
  3  4  1  0
  3  2  1  0
  4  5  1  0
  5  6  1  1
  6  7  2  0
  8  9  1  0
  8  6  1  0
  9 14  1  0
  9 10  1  6
 11 10  1  0
 11 12  1  0
 12 13  2  0
 12 16  1  0
 14 15  2  0
 14 19  1  0
 18 17  1  1
 18 20  1  0
 19 18  1  0
 20 22  1  0
 21 20  2  0
M  END
$$$$
