PEA.pdb
     RDKit          3D

 22 22  0  0  1  0  0  0  0  0999 V2000
   17.1492  -14.5041    3.2911 N   0  0  0  0  0  0  0  0  0  0  0  0
   17.8659  -13.5084    2.5504 C   0  0  0  0  0  0  0  0  0  0  0  0
   18.9054  -12.8947    3.4537 C   0  0  0  0  0  0  0  0  0  0  0  0
   18.5654  -13.5277    4.8098 C   0  0  0  0  0  0  0  0  0  0  0  0
   18.0492  -14.8757    4.3391 C   0  0  1  0  0  0  0  0  0  0  0  0
   17.4030  -15.6468    5.4184 C   0  0  0  0  0  0  0  0  0  0  0  0
   16.3050  -15.2358    5.9150 O   0  0  0  0  0  0  0  0  0  0  0  0
   18.0348  -16.8419    5.8773 N   0  0  0  0  0  0  0  0  0  0  0  0
   17.4255  -17.6056    6.9174 C   0  0  1  0  0  0  0  0  0  0  0  0
   16.8745  -18.9203    6.5111 C   0  0  0  0  0  0  0  0  0  0  0  0
   16.2184  -19.7080    7.5694 C   0  0  0  0  0  0  0  0  0  0  0  0
   15.6991  -21.0232    7.2863 C   0  0  0  0  0  0  0  0  0  0  0  0
   15.0898  -21.7713    8.0601 O   0  0  0  0  0  0  0  0  0  0  0  0
   18.3954  -17.7269    8.0523 C   0  0  0  0  0  0  0  0  0  0  0  0
   19.5924  -17.9965    7.8005 O   0  0  0  0  0  0  0  0  0  0  0  0
   15.9005  -21.5303    5.9814 O   0  0  0  0  0  0  0  0  0  0  0  0
   18.4186  -16.7006   11.5779 C   0  0  0  0  0  0  0  0  0  0  0  0
   18.8709  -17.6185   10.4627 C   0  0  2  0  0  0  0  0  0  0  0  0
   17.9173  -17.5303    9.3676 N   0  0  0  0  0  0  0  0  0  0  0  0
   18.8658  -19.0203   10.9719 C   0  0  0  0  0  0  0  0  0  0  0  0
   19.7194  -19.4296   11.8053 O   0  0  0  0  0  0  0  0  0  0  0  0
   17.8977  -19.8959   10.5171 O   0  0  0  0  0  0  0  0  0  0  0  0
  1  5  1  0
  2  1  1  0
  3  4  1  0
  3  2  1  0
  4  5  1  0
  5  6  1  1
  6  7  2  0
  8  9  1  0
  8  6  1  0
  9 14  1  0
  9 10  1  6
 11 10  1  0
 11 12  1  0
 12 13  2  0
 12 16  1  0
 14 15  2  0
 14 19  1  0
 18 17  1  1
 18 20  1  0
 19 18  1  0
 20 22  1  0
 21 20  2  0
M  END
$$$$
