PEA.pdb
     RDKit          3D

 22 22  0  0  1  0  0  0  0  0999 V2000
   35.9203  -10.6548  -13.6332 N   0  0  0  0  0  0  0  0  0  0  0  0
   36.8581  -11.1350  -12.6618 C   0  0  0  0  0  0  0  0  0  0  0  0
   38.2524  -10.9141  -13.1914 C   0  0  0  0  0  0  0  0  0  0  0  0
   37.9788  -10.4307  -14.6220 C   0  0  0  0  0  0  0  0  0  0  0  0
   36.6655   -9.7028  -14.3978 C   0  0  1  0  0  0  0  0  0  0  0  0
   36.0035   -9.3201  -15.6598 C   0  0  0  0  0  0  0  0  0  0  0  0
   36.5686   -8.4871  -16.4395 O   0  0  0  0  0  0  0  0  0  0  0  0
   34.7372   -9.9013  -15.9710 N   0  0  0  0  0  0  0  0  0  0  0  0
   34.1445   -9.6568  -17.2458 C   0  0  1  0  0  0  0  0  0  0  0  0
   33.7677  -10.8624  -18.0213 C   0  0  0  0  0  0  0  0  0  0  0  0
   34.8793  -11.6651  -18.5607 C   0  0  0  0  0  0  0  0  0  0  0  0
   34.6151  -12.8518  -19.3363 C   0  0  0  0  0  0  0  0  0  0  0  0
   34.3135  -13.9734  -18.9114 O   0  0  0  0  0  0  0  0  0  0  0  0
   32.9907   -8.7191  -17.0645 C   0  0  0  0  0  0  0  0  0  0  0  0
   32.1921   -8.9162  -16.1199 O   0  0  0  0  0  0  0  0  0  0  0  0
   34.7069  -12.7379  -20.7431 O   0  0  0  0  0  0  0  0  0  0  0  0
   31.8652   -5.5688  -18.7107 C   0  0  0  0  0  0  0  0  0  0  0  0
   31.6676   -6.8048  -17.8598 C   0  0  2  0  0  0  0  0  0  0  0  0
   32.8504   -7.6444  -17.9714 N   0  0  0  0  0  0  0  0  0  0  0  0
   30.5037   -7.5678  -18.3963 C   0  0  0  0  0  0  0  0  0  0  0  0
   30.6343   -8.4267  -19.3106 O   0  0  0  0  0  0  0  0  0  0  0  0
   29.2459   -7.3264  -17.8765 O   0  0  0  0  0  0  0  0  0  0  0  0
  1  5  1  0
  2  1  1  0
  3  4  1  0
  3  2  1  0
  4  5  1  0
  5  6  1  6
  6  7  2  0
  8  9  1  0
  8  6  1  0
  9 14  1  0
  9 10  1  1
 11 10  1  0
 11 12  1  0
 12 13  2  0
 12 16  1  0
 14 15  2  0
 14 19  1  0
 18 17  1  6
 18 20  1  0
 19 18  1  0
 20 22  1  0
 21 20  2  0
M  END
$$$$
