PEA.pdb
     RDKit          3D

 22 22  0  0  1  0  0  0  0  0999 V2000
   17.4176  -10.2256  -15.6346 N   0  0  0  0  0  0  0  0  0  0  0  0
   17.3988  -11.2803  -16.6045 C   0  0  0  0  0  0  0  0  0  0  0  0
   18.2401  -12.4205  -16.0894 C   0  0  0  0  0  0  0  0  0  0  0  0
   18.8638  -11.8129  -14.8256 C   0  0  0  0  0  0  0  0  0  0  0  0
   17.7371  -10.8857  -14.4063 C   0  0  1  0  0  0  0  0  0  0  0  0
   18.1336   -9.9576  -13.3300 C   0  0  0  0  0  0  0  0  0  0  0  0
   18.4752  -10.4203  -12.1941 O   0  0  0  0  0  0  0  0  0  0  0  0
   18.1219   -8.5553  -13.5977 N   0  0  0  0  0  0  0  0  0  0  0  0
   18.6110   -7.6464  -12.6126 C   0  0  1  0  0  0  0  0  0  0  0  0
   19.5342   -6.5978  -13.1075 C   0  0  0  0  0  0  0  0  0  0  0  0
   20.1966   -5.7741  -12.0809 C   0  0  0  0  0  0  0  0  0  0  0  0
   21.1762   -4.7850  -12.4573 C   0  0  0  0  0  0  0  0  0  0  0  0
   22.3790   -4.9677  -12.6796 O   0  0  0  0  0  0  0  0  0  0  0  0
   17.4432   -7.0673  -11.8747 C   0  0  0  0  0  0  0  0  0  0  0  0
   16.4741   -6.6194  -12.5297 O   0  0  0  0  0  0  0  0  0  0  0  0
   20.7280   -3.4503  -12.5918 O   0  0  0  0  0  0  0  0  0  0  0  0
   16.4158   -7.0713   -8.2975 C   0  0  0  0  0  0  0  0  0  0  0  0
   16.2769   -6.6619   -9.7480 C   0  0  2  0  0  0  0  0  0  0  0  0
   17.4832   -7.0508  -10.4622 N   0  0  0  0  0  0  0  0  0  0  0  0
   16.1577   -5.1765   -9.8113 C   0  0  0  0  0  0  0  0  0  0  0  0
   15.1417   -4.5703   -9.3743 O   0  0  0  0  0  0  0  0  0  0  0  0
   17.1905   -4.4434  -10.3649 O   0  0  0  0  0  0  0  0  0  0  0  0
  1  5  1  0
  2  1  1  0
  3  4  1  0
  3  2  1  0
  4  5  1  0
  5  6  1  1
  6  7  2  0
  8  9  1  0
  8  6  1  0
  9 14  1  0
  9 10  1  6
 11 10  1  0
 11 12  1  0
 12 13  2  0
 12 16  1  0
 14 15  2  0
 14 19  1  0
 18 17  1  1
 18 20  1  0
 19 18  1  0
 20 22  1  0
 21 20  2  0
M  END
$$$$
