PEA.pdb
     RDKit          3D

 22 22  0  0  1  0  0  0  0  0999 V2000
   17.8996  -11.5725  -14.8030 N   0  0  0  0  0  0  0  0  0  0  0  0
   17.3121  -12.8672  -14.9820 C   0  0  0  0  0  0  0  0  0  0  0  0
   16.8868  -13.0057  -16.4219 C   0  0  0  0  0  0  0  0  0  0  0  0
   17.1375  -11.5934  -16.9673 C   0  0  0  0  0  0  0  0  0  0  0  0
   18.3307  -11.1996  -16.1151 C   0  0  1  0  0  0  0  0  0  0  0  0
   18.6686   -9.7683  -16.2345 C   0  0  0  0  0  0  0  0  0  0  0  0
   19.0575   -9.3048  -17.3548 O   0  0  0  0  0  0  0  0  0  0  0  0
   18.5481   -8.9388  -15.0789 N   0  0  0  0  0  0  0  0  0  0  0  0
   18.7279   -7.5286  -15.2026 C   0  0  1  0  0  0  0  0  0  0  0  0
   17.5705   -6.6953  -14.7987 C   0  0  0  0  0  0  0  0  0  0  0  0
   16.5425   -6.4634  -15.8284 C   0  0  0  0  0  0  0  0  0  0  0  0
   15.3811   -5.6607  -15.5343 C   0  0  0  0  0  0  0  0  0  0  0  0
   14.2285   -6.0577  -15.3260 O   0  0  0  0  0  0  0  0  0  0  0  0
   19.9814   -7.1413  -14.4802 C   0  0  0  0  0  0  0  0  0  0  0  0
   20.1531   -7.5429  -13.3062 O   0  0  0  0  0  0  0  0  0  0  0  0
   15.5628   -4.2594  -15.4732 O   0  0  0  0  0  0  0  0  0  0  0  0
   23.1304   -5.3971  -15.4368 C   0  0  0  0  0  0  0  0  0  0  0  0
   22.1299   -5.9455  -14.4422 C   0  0  2  0  0  0  0  0  0  0  0  0
   20.9241   -6.3349  -15.1569 N   0  0  0  0  0  0  0  0  0  0  0  0
   21.7722   -4.8605  -13.4834 C   0  0  0  0  0  0  0  0  0  0  0  0
   20.7520   -4.1369  -13.6464 O   0  0  0  0  0  0  0  0  0  0  0  0
   22.5819   -4.6418  -12.3848 O   0  0  0  0  0  0  0  0  0  0  0  0
  1  5  1  0
  2  1  1  0
  3  4  1  0
  3  2  1  0
  4  5  1  0
  5  6  1  1
  6  7  2  0
  8  9  1  0
  8  6  1  0
  9 14  1  0
  9 10  1  1
 11 10  1  0
 11 12  1  0
 12 13  2  0
 12 16  1  0
 14 15  2  0
 14 19  1  0
 18 17  1  6
 18 20  1  0
 19 18  1  0
 20 22  1  0
 21 20  2  0
M  END
$$$$
