PEA.pdb
     RDKit          3D

 22 22  0  0  1  0  0  0  0  0999 V2000
   19.0940  -12.0249  -15.0509 N   0  0  0  0  0  0  0  0  0  0  0  0
   18.7443  -13.3897  -15.3129 C   0  0  0  0  0  0  0  0  0  0  0  0
   17.6778  -13.4152  -16.3783 C   0  0  0  0  0  0  0  0  0  0  0  0
   17.3536  -11.9242  -16.5429 C   0  0  0  0  0  0  0  0  0  0  0  0
   18.7197  -11.3325  -16.2453 C   0  0  1  0  0  0  0  0  0  0  0  0
   18.6826   -9.8663  -16.0836 C   0  0  0  0  0  0  0  0  0  0  0  0
   18.3558   -9.1323  -17.0714 O   0  0  0  0  0  0  0  0  0  0  0  0
   19.0176   -9.3101  -14.8122 N   0  0  0  0  0  0  0  0  0  0  0  0
   18.8580   -7.9093  -14.5924 C   0  0  1  0  0  0  0  0  0  0  0  0
   17.7942   -7.5261  -13.6341 C   0  0  0  0  0  0  0  0  0  0  0  0
   17.8749   -8.1319  -12.2933 C   0  0  0  0  0  0  0  0  0  0  0  0
   16.9910   -7.6967  -11.2401 C   0  0  0  0  0  0  0  0  0  0  0  0
   15.7546   -7.6801  -11.2580 O   0  0  0  0  0  0  0  0  0  0  0  0
   20.1879   -7.3293  -14.2206 C   0  0  0  0  0  0  0  0  0  0  0  0
   20.8634   -7.8868  -13.3252 O   0  0  0  0  0  0  0  0  0  0  0  0
   17.5890   -7.2335  -10.0450 O   0  0  0  0  0  0  0  0  0  0  0  0
   22.3921   -4.7575  -15.7465 C   0  0  0  0  0  0  0  0  0  0  0  0
   21.9742   -5.6892  -14.6293 C   0  0  2  0  0  0  0  0  0  0  0  0
   20.6283   -6.1708  -14.8997 N   0  0  0  0  0  0  0  0  0  0  0  0
   21.9438   -4.9158  -13.3543 C   0  0  0  0  0  0  0  0  0  0  0  0
   20.8678   -4.4682  -12.8720 O   0  0  0  0  0  0  0  0  0  0  0  0
   23.1291   -4.6829  -12.6824 O   0  0  0  0  0  0  0  0  0  0  0  0
  1  5  1  0
  2  1  1  0
  3  4  1  0
  3  2  1  0
  4  5  1  0
  5  6  1  1
  6  7  2  0
  8  9  1  0
  8  6  1  0
  9 14  1  0
  9 10  1  1
 11 10  1  0
 11 12  1  0
 12 13  2  0
 12 16  1  0
 14 15  2  0
 14 19  1  0
 18 17  1  6
 18 20  1  0
 19 18  1  0
 20 22  1  0
 21 20  2  0
M  END
$$$$
