PEA.pdb
     RDKit          3D

 22 22  0  0  1  0  0  0  0  0999 V2000
   37.4606  -33.0495   -0.1376 N   0  0  0  0  0  0  0  0  0  0  0  0
   37.7268  -33.3653   -1.5098 C   0  0  0  0  0  0  0  0  0  0  0  0
   36.5351  -32.9535   -2.3364 C   0  0  0  0  0  0  0  0  0  0  0  0
   35.5221  -32.5468   -1.2577 C   0  0  0  0  0  0  0  0  0  0  0  0
   36.4746  -32.0151   -0.2018 C   0  0  1  0  0  0  0  0  0  0  0  0
   35.8087  -31.7614    1.0903 C   0  0  0  0  0  0  0  0  0  0  0  0
   34.8656  -30.9085    1.1555 O   0  0  0  0  0  0  0  0  0  0  0  0
   36.2467  -32.4870    2.2391 N   0  0  0  0  0  0  0  0  0  0  0  0
   35.4625  -32.4588    3.4309 C   0  0  1  0  0  0  0  0  0  0  0  0
   35.1720  -33.7782    4.0405 C   0  0  0  0  0  0  0  0  0  0  0  0
   34.2854  -33.7722    5.2174 C   0  0  0  0  0  0  0  0  0  0  0  0
   33.9003  -35.0101    5.8490 C   0  0  0  0  0  0  0  0  0  0  0  0
   34.6118  -36.0011    6.0523 O   0  0  0  0  0  0  0  0  0  0  0  0
   36.1040  -31.5171    4.4030 C   0  0  0  0  0  0  0  0  0  0  0  0
   37.3464  -31.5581    4.5568 O   0  0  0  0  0  0  0  0  0  0  0  0
   32.5616  -35.1205    6.2918 O   0  0  0  0  0  0  0  0  0  0  0  0
   34.9109  -28.4930    6.1989 C   0  0  0  0  0  0  0  0  0  0  0  0
   35.9163  -29.5889    5.9178 C   0  0  2  0  0  0  0  0  0  0  0  0
   35.2764  -30.6158    5.1100 N   0  0  0  0  0  0  0  0  0  0  0  0
   36.3218  -30.2034    7.2150 C   0  0  0  0  0  0  0  0  0  0  0  0
   36.0174  -31.3903    7.5140 O   0  0  0  0  0  0  0  0  0  0  0  0
   37.0520  -29.4504    8.1151 O   0  0  0  0  0  0  0  0  0  0  0  0
  1  5  1  0
  2  1  1  0
  3  4  1  0
  3  2  1  0
  4  5  1  0
  5  6  1  1
  6  7  2  0
  8  9  1  0
  8  6  1  0
  9 14  1  0
  9 10  1  1
 11 10  1  0
 11 12  1  0
 12 13  2  0
 12 16  1  0
 14 15  2  0
 14 19  1  0
 18 17  1  1
 18 20  1  0
 19 18  1  0
 20 22  1  0
 21 20  2  0
M  END
$$$$
