PEA.pdb
     RDKit          3D

 22 22  0  0  1  0  0  0  0  0999 V2000
   24.1361  -12.2936  -15.5203 N   0  0  0  0  0  0  0  0  0  0  0  0
   24.7853  -13.5705  -15.5604 C   0  0  0  0  0  0  0  0  0  0  0  0
   24.7012  -14.1070  -16.9669 C   0  0  0  0  0  0  0  0  0  0  0  0
   23.7871  -13.0794  -17.6477 C   0  0  0  0  0  0  0  0  0  0  0  0
   24.1834  -11.8345  -16.8743 C   0  0  1  0  0  0  0  0  0  0  0  0
   23.2871  -10.6919  -17.1356 C   0  0  0  0  0  0  0  0  0  0  0  0
   23.2356  -10.1867  -18.3032 O   0  0  0  0  0  0  0  0  0  0  0  0
   22.4975  -10.1827  -16.0608 N   0  0  0  0  0  0  0  0  0  0  0  0
   21.6193   -9.0822  -16.2922 C   0  0  1  0  0  0  0  0  0  0  0  0
   20.1712   -9.3853  -16.2017 C   0  0  0  0  0  0  0  0  0  0  0  0
   19.7161  -10.0301  -14.9574 C   0  0  0  0  0  0  0  0  0  0  0  0
   18.3146  -10.2910  -14.7396 C   0  0  0  0  0  0  0  0  0  0  0  0
   17.5391   -9.6609  -14.0107 O   0  0  0  0  0  0  0  0  0  0  0  0
   22.0171   -7.9551  -15.3895 C   0  0  0  0  0  0  0  0  0  0  0  0
   22.3539   -8.2125  -14.2108 O   0  0  0  0  0  0  0  0  0  0  0  0
   17.7466  -11.3873  -15.4294 O   0  0  0  0  0  0  0  0  0  0  0  0
   22.6650   -4.3215  -15.9102 C   0  0  0  0  0  0  0  0  0  0  0  0
   22.4913   -5.5641  -15.0638 C   0  0  2  0  0  0  0  0  0  0  0  0
   21.9966   -6.6406  -15.9080 N   0  0  0  0  0  0  0  0  0  0  0  0
   21.4655   -5.2849  -14.0177 C   0  0  0  0  0  0  0  0  0  0  0  0
   21.6899   -4.4982  -13.0576 O   0  0  0  0  0  0  0  0  0  0  0  0
   20.2337   -5.9061  -14.1030 O   0  0  0  0  0  0  0  0  0  0  0  0
  1  5  1  0
  2  1  1  0
  3  4  1  0
  3  2  1  0
  4  5  1  0
  5  6  1  1
  6  7  2  0
  8  9  1  0
  8  6  1  0
  9 14  1  0
  9 10  1  1
 11 10  1  0
 11 12  1  0
 12 13  2  0
 12 16  1  0
 14 15  2  0
 14 19  1  0
 18 17  1  6
 18 20  1  0
 19 18  1  0
 20 22  1  0
 21 20  2  0
M  END
$$$$
