PEA.pdb
     RDKit          3D

 22 22  0  0  1  0  0  0  0  0999 V2000
   26.6358  -19.1856  -15.2805 N   0  0  0  0  0  0  0  0  0  0  0  0
   27.9201  -18.7387  -15.7326 C   0  0  0  0  0  0  0  0  0  0  0  0
   28.8997  -19.8763  -15.5939 C   0  0  0  0  0  0  0  0  0  0  0  0
   28.0641  -20.9304  -14.8552 C   0  0  0  0  0  0  0  0  0  0  0  0
   26.6918  -20.6083  -15.4192 C   0  0  1  0  0  0  0  0  0  0  0  0
   25.6048  -21.3081  -14.7080 C   0  0  0  0  0  0  0  0  0  0  0  0
   25.5998  -22.5805  -14.6620 O   0  0  0  0  0  0  0  0  0  0  0  0
   24.5819  -20.5295  -14.0871 N   0  0  0  0  0  0  0  0  0  0  0  0
   23.5761  -21.1790  -13.3109 C   0  0  1  0  0  0  0  0  0  0  0  0
   23.6804  -20.9990  -11.8434 C   0  0  0  0  0  0  0  0  0  0  0  0
   24.9920  -21.2962  -11.2412 C   0  0  0  0  0  0  0  0  0  0  0  0
   25.2005  -21.1293   -9.8241 C   0  0  0  0  0  0  0  0  0  0  0  0
   24.3744  -20.7536   -8.9839 O   0  0  0  0  0  0  0  0  0  0  0  0
   22.2325  -20.7744  -13.8348 C   0  0  0  0  0  0  0  0  0  0  0  0
   22.0122  -19.5636  -14.0677 O   0  0  0  0  0  0  0  0  0  0  0  0
   26.4893  -21.4240   -9.3215 O   0  0  0  0  0  0  0  0  0  0  0  0
   19.2193  -22.6400  -14.9997 C   0  0  0  0  0  0  0  0  0  0  0  0
   19.9850  -21.3908  -14.6201 C   0  0  2  0  0  0  0  0  0  0  0  0
   21.2636  -21.7812  -14.0464 N   0  0  0  0  0  0  0  0  0  0  0  0
   19.2106  -20.6599  -13.5758 C   0  0  0  0  0  0  0  0  0  0  0  0
   19.4422  -20.8128  -12.3454 O   0  0  0  0  0  0  0  0  0  0  0  0
   18.2105  -19.7900  -13.9678 O   0  0  0  0  0  0  0  0  0  0  0  0
  1  5  1  0
  2  1  1  0
  3  4  1  0
  3  2  1  0
  4  5  1  0
  5  6  1  1
  6  7  2  0
  8  9  1  0
  8  6  1  0
  9 14  1  0
  9 10  1  1
 11 10  1  0
 11 12  1  0
 12 13  2  0
 12 16  1  0
 14 15  2  0
 14 19  1  0
 18 17  1  1
 18 20  1  0
 19 18  1  0
 20 22  1  0
 21 20  2  0
M  END
$$$$
