TEI.pdb
     RDKit          3D

 25 24  0  0  1  0  0  0  0  0999 V2000
   15.9887  -10.7752  -15.5525 C   0  0  0  0  0  0  0  0  0  0  0  0
   16.8173  -12.0270  -15.3575 C   0  0  1  0  0  0  0  0  0  0  0  0
   16.0793  -13.1287  -15.7113 O   0  0  0  0  0  0  0  0  0  0  0  0
   18.1304  -11.9411  -16.1104 C   0  0  2  0  0  0  0  0  0  0  0  0
   18.8342  -13.1879  -15.8940 N   0  0  0  0  0  0  0  0  0  0  0  0
   18.9113  -10.8417  -15.5491 C   0  0  0  0  0  0  0  0  0  0  0  0
   19.2023  -10.8477  -14.3273 O   0  0  0  0  0  0  0  0  0  0  0  0
   19.3820   -9.7290  -16.3063 N   0  0  0  0  0  0  0  0  0  0  0  0
   20.0174   -8.5653  -15.7402 C   0  0  1  0  0  0  0  0  0  0  0  0
   20.8363   -7.7681  -16.7116 C   0  0  0  0  0  0  0  0  0  0  0  0
   21.4676   -6.5294  -16.1958 C   0  0  0  0  0  0  0  0  0  0  0  0
   22.1828   -5.8090  -17.2559 C   0  0  0  0  0  0  0  0  0  0  0  0
   21.8011   -4.6801  -17.6114 O   0  0  0  0  0  0  0  0  0  0  0  0
   19.1306   -7.7069  -14.9411 C   0  0  0  0  0  0  0  0  0  0  0  0
   17.9489   -7.5393  -15.3337 O   0  0  0  0  0  0  0  0  0  0  0  0
   23.2782   -6.3867  -17.8566 O   0  0  0  0  0  0  0  0  0  0  0  0
   16.7012   -6.8620   -9.7146 C   0  0  0  0  0  0  0  0  0  0  0  0
   17.2017   -6.0451  -10.9206 C   0  0  0  0  0  0  0  0  0  0  0  0
   18.1241   -6.9193  -11.7221 C   0  0  2  0  0  0  0  0  0  0  0  0
   19.2692   -7.4417  -10.8825 C   0  0  0  0  0  0  0  0  0  0  0  0
   18.5650   -6.2239  -12.9614 C   0  0  2  0  0  0  0  0  0  0  0  0
   19.5004   -7.0351  -13.7428 N   0  0  0  0  0  0  0  0  0  0  0  0
   19.1914   -4.9055  -12.7737 C   0  0  0  0  0  0  0  0  0  0  0  0
   18.5293   -3.7561  -12.3910 O   0  0  0  0  0  0  0  0  0  0  0  0
   20.4250   -4.7828  -12.9712 O   0  0  0  0  0  0  0  0  0  0  0  0
  2  3  1  0
  2  1  1  6
  4  5  1  1
  4  2  1  0
  6  4  1  0
  7  6  2  0
  8  6  1  0
  9  8  1  0
  9 10  1  6
 11 10  1  0
 12 11  1  0
 13 12  2  0
 14  9  1  0
 14 22  1  0
 15 14  2  0
 16 12  1  0
 17 18  1  0
 19 18  1  0
 19 21  1  0
 19 20  1  1
 21 22  1  1
 21 23  1  0
 23 25  2  0
 23 24  1  0
M  END
$$$$
