TEI.pdb
     RDKit          3D

 25 24  0  0  1  0  0  0  0  0999 V2000
   14.4795  -12.2578  -14.7577 C   0  0  0  0  0  0  0  0  0  0  0  0
   15.6792  -11.3448  -14.8941 C   0  0  1  0  0  0  0  0  0  0  0  0
   16.8079  -11.9992  -14.4683 O   0  0  0  0  0  0  0  0  0  0  0  0
   15.8122  -10.8180  -16.3095 C   0  0  2  0  0  0  0  0  0  0  0  0
   16.1792  -11.9361  -17.1533 N   0  0  0  0  0  0  0  0  0  0  0  0
   16.8826   -9.8244  -16.3316 C   0  0  0  0  0  0  0  0  0  0  0  0
   18.0549  -10.1810  -16.6070 O   0  0  0  0  0  0  0  0  0  0  0  0
   16.6909   -8.4386  -16.0556 N   0  0  0  0  0  0  0  0  0  0  0  0
   17.7203   -7.4347  -16.1595 C   0  0  1  0  0  0  0  0  0  0  0  0
   17.2131   -6.0236  -16.1936 C   0  0  0  0  0  0  0  0  0  0  0  0
   18.2059   -4.9628  -16.4906 C   0  0  0  0  0  0  0  0  0  0  0  0
   17.5766   -3.6380  -16.5460 C   0  0  0  0  0  0  0  0  0  0  0  0
   17.1191   -3.2079  -17.6195 O   0  0  0  0  0  0  0  0  0  0  0  0
   18.8320   -7.5919  -15.2100 C   0  0  0  0  0  0  0  0  0  0  0  0
   18.5645   -7.9137  -14.0253 O   0  0  0  0  0  0  0  0  0  0  0  0
   17.4940   -2.8716  -15.4057 O   0  0  0  0  0  0  0  0  0  0  0  0
   22.4194  -11.1325  -15.2968 C   0  0  0  0  0  0  0  0  0  0  0  0
   21.4187  -10.0071  -14.9734 C   0  0  0  0  0  0  0  0  0  0  0  0
   22.1815   -8.7147  -14.9017 C   0  0  2  0  0  0  0  0  0  0  0  0
   23.3944   -8.8303  -14.0047 C   0  0  0  0  0  0  0  0  0  0  0  0
   21.2788   -7.5892  -14.5383 C   0  0  2  0  0  0  0  0  0  0  0  0
   20.2080   -7.4055  -15.5196 N   0  0  0  0  0  0  0  0  0  0  0  0
   21.9230   -6.2790  -14.3537 C   0  0  0  0  0  0  0  0  0  0  0  0
   22.5143   -5.8393  -13.1862 O   0  0  0  0  0  0  0  0  0  0  0  0
   21.9523   -5.4730  -15.3156 O   0  0  0  0  0  0  0  0  0  0  0  0
  2  3  1  0
  2  1  1  6
  4  5  1  6
  4  2  1  0
  6  4  1  0
  7  6  2  0
  8  6  1  0
  9  8  1  0
  9 10  1  1
 11 10  1  0
 12 11  1  0
 13 12  2  0
 14  9  1  0
 14 22  1  0
 15 14  2  0
 16 12  1  0
 17 18  1  0
 19 18  1  0
 19 21  1  0
 19 20  1  1
 21 22  1  6
 21 23  1  0
 23 25  2  0
 23 24  1  0
M  END
$$$$
