TEI.pdb
     RDKit          3D

 25 24  0  0  1  0  0  0  0  0999 V2000
   16.9290  -10.6637  -17.0682 C   0  0  0  0  0  0  0  0  0  0  0  0
   17.6482  -11.7798  -17.7951 C   0  0  1  0  0  0  0  0  0  0  0  0
   16.7708  -12.8031  -18.0531 O   0  0  0  0  0  0  0  0  0  0  0  0
   18.3311  -11.2700  -19.0490 C   0  0  2  0  0  0  0  0  0  0  0  0
   19.0332  -12.3885  -19.6431 N   0  0  0  0  0  0  0  0  0  0  0  0
   19.2962  -10.2441  -18.6623 C   0  0  0  0  0  0  0  0  0  0  0  0
   20.3821  -10.5827  -18.1301 O   0  0  0  0  0  0  0  0  0  0  0  0
   19.0919   -8.8453  -18.8492 N   0  0  0  0  0  0  0  0  0  0  0  0
   19.9831   -7.8182  -18.3704 C   0  0  1  0  0  0  0  0  0  0  0  0
   19.7017   -6.4477  -18.9110 C   0  0  0  0  0  0  0  0  0  0  0  0
   20.6423   -5.3692  -18.5224 C   0  0  0  0  0  0  0  0  0  0  0  0
   20.2492   -4.0789  -19.1011 C   0  0  0  0  0  0  0  0  0  0  0  0
   20.8389   -3.6380  -20.1034 O   0  0  0  0  0  0  0  0  0  0  0  0
   20.1760   -7.8006  -16.9128 C   0  0  0  0  0  0  0  0  0  0  0  0
   19.1652   -7.9134  -16.1752 O   0  0  0  0  0  0  0  0  0  0  0  0
   19.2254   -3.3570  -18.5311 O   0  0  0  0  0  0  0  0  0  0  0  0
   22.6681  -11.2671  -14.3310 C   0  0  0  0  0  0  0  0  0  0  0  0
   21.7443  -10.1165  -14.7728 C   0  0  0  0  0  0  0  0  0  0  0  0
   22.3580   -8.8254  -14.3104 C   0  0  2  0  0  0  0  0  0  0  0  0
   22.5871   -8.8192  -12.8149 C   0  0  0  0  0  0  0  0  0  0  0  0
   21.5669   -7.6623  -14.7951 C   0  0  2  0  0  0  0  0  0  0  0  0
   21.4286   -7.6616  -16.2526 N   0  0  0  0  0  0  0  0  0  0  0  0
   22.0699   -6.3340  -14.4099 C   0  0  0  0  0  0  0  0  0  0  0  0
   21.8143   -5.7028  -13.2090 O   0  0  0  0  0  0  0  0  0  0  0  0
   22.7906   -5.6973  -15.2167 O   0  0  0  0  0  0  0  0  0  0  0  0
  2  3  1  0
  2  1  1  6
  4  5  1  1
  4  2  1  0
  6  4  1  0
  7  6  2  0
  8  6  1  0
  9  8  1  0
  9 10  1  1
 11 10  1  0
 12 11  1  0
 13 12  2  0
 14  9  1  0
 14 22  1  0
 15 14  2  0
 16 12  1  0
 17 18  1  0
 19 18  1  0
 19 21  1  0
 19 20  1  1
 21 22  1  6
 21 23  1  0
 23 25  2  0
 23 24  1  0
M  END
$$$$
