TEI.pdb
     RDKit          3D

 25 24  0  0  1  0  0  0  0  0999 V2000
   36.4000  -11.2986  -14.0634 C   0  0  0  0  0  0  0  0  0  0  0  0
   35.8461  -10.0903  -14.7878 C   0  0  1  0  0  0  0  0  0  0  0  0
   36.8050   -9.1105  -14.8509 O   0  0  0  0  0  0  0  0  0  0  0  0
   35.3088  -10.4663  -16.1548 C   0  0  2  0  0  0  0  0  0  0  0  0
   36.4461  -10.7837  -16.9930 N   0  0  0  0  0  0  0  0  0  0  0  0
   34.6089   -9.3096  -16.7077 C   0  0  0  0  0  0  0  0  0  0  0  0
   35.2284   -8.5035  -17.4451 O   0  0  0  0  0  0  0  0  0  0  0  0
   33.2342   -9.0180  -16.4659 N   0  0  0  0  0  0  0  0  0  0  0  0
   32.5369   -7.8718  -16.9934 C   0  0  1  0  0  0  0  0  0  0  0  0
   31.1821   -8.1739  -17.5615 C   0  0  0  0  0  0  0  0  0  0  0  0
   31.1191   -9.1966  -18.6336 C   0  0  0  0  0  0  0  0  0  0  0  0
   29.7416   -9.4083  -19.0942 C   0  0  0  0  0  0  0  0  0  0  0  0
   28.9208   -9.9902  -18.3633 O   0  0  0  0  0  0  0  0  0  0  0  0
   32.5055   -6.7049  -16.0993 C   0  0  0  0  0  0  0  0  0  0  0  0
   32.1119   -6.8684  -14.9174 O   0  0  0  0  0  0  0  0  0  0  0  0
   29.3601   -8.9609  -20.3386 O   0  0  0  0  0  0  0  0  0  0  0  0
   36.4484   -2.7892  -15.9527 C   0  0  0  0  0  0  0  0  0  0  0  0
   35.0732   -3.3247  -16.3935 C   0  0  0  0  0  0  0  0  0  0  0  0
   34.4134   -3.9491  -15.1968 C   0  0  2  0  0  0  0  0  0  0  0  0
   35.2153   -5.1147  -14.6609 C   0  0  0  0  0  0  0  0  0  0  0  0
   32.9960   -4.2900  -15.4943 C   0  0  2  0  0  0  0  0  0  0  0  0
   32.8857   -5.3828  -16.4622 N   0  0  0  0  0  0  0  0  0  0  0  0
   32.1579   -3.1875  -15.9923 C   0  0  0  0  0  0  0  0  0  0  0  0
   31.7986   -2.0693  -15.2667 O   0  0  0  0  0  0  0  0  0  0  0  0
   31.7172   -3.2390  -17.1666 O   0  0  0  0  0  0  0  0  0  0  0  0
  2  3  1  0
  2  1  1  6
  4  5  1  6
  4  2  1  0
  6  4  1  0
  7  6  2  0
  8  6  1  0
  9  8  1  0
  9 10  1  1
 11 10  1  0
 12 11  1  0
 13 12  2  0
 14  9  1  0
 14 22  1  0
 15 14  2  0
 16 12  1  0
 17 18  1  0
 19 18  1  0
 19 21  1  0
 19 20  1  6
 21 22  1  6
 21 23  1  0
 23 25  2  0
 23 24  1  0
M  END
$$$$
