TEI.pdb
     RDKit          3D

 25 24  0  0  1  0  0  0  0  0999 V2000
   22.1976  -13.0635  -17.3269 C   0  0  0  0  0  0  0  0  0  0  0  0
   20.9768  -12.7161  -18.1518 C   0  0  1  0  0  0  0  0  0  0  0  0
   20.8168  -13.6423  -19.1520 O   0  0  0  0  0  0  0  0  0  0  0  0
   19.7431  -12.5829  -17.2807 C   0  0  2  0  0  0  0  0  0  0  0  0
   18.6492  -13.2231  -17.9810 N   0  0  0  0  0  0  0  0  0  0  0  0
   19.4467  -11.1620  -17.1175 C   0  0  0  0  0  0  0  0  0  0  0  0
   19.5429  -10.3907  -18.1040 O   0  0  0  0  0  0  0  0  0  0  0  0
   19.0444  -10.5670  -15.8858 N   0  0  0  0  0  0  0  0  0  0  0  0
   18.8652   -9.1510  -15.6823 C   0  0  1  0  0  0  0  0  0  0  0  0
   17.5979   -8.7793  -14.9713 C   0  0  0  0  0  0  0  0  0  0  0  0
   16.3591   -9.4670  -15.4087 C   0  0  0  0  0  0  0  0  0  0  0  0
   15.8012  -10.3019  -14.3382 C   0  0  0  0  0  0  0  0  0  0  0  0
   15.5860   -9.8154  -13.2141 O   0  0  0  0  0  0  0  0  0  0  0  0
   20.0317   -8.4577  -15.1161 C   0  0  0  0  0  0  0  0  0  0  0  0
   20.6852   -9.0312  -14.2091 O   0  0  0  0  0  0  0  0  0  0  0  0
   15.5165  -11.6264  -14.5816 O   0  0  0  0  0  0  0  0  0  0  0  0
   25.0191   -5.9044  -16.9233 C   0  0  0  0  0  0  0  0  0  0  0  0
   24.0426   -5.9167  -15.7322 C   0  0  0  0  0  0  0  0  0  0  0  0
   22.7519   -6.5295  -16.1971 C   0  0  2  0  0  0  0  0  0  0  0  0
   22.2077   -5.8258  -17.4209 C   0  0  0  0  0  0  0  0  0  0  0  0
   21.7756   -6.6149  -15.0776 C   0  0  2  0  0  0  0  0  0  0  0  0
   20.4919   -7.1704  -15.5100 N   0  0  0  0  0  0  0  0  0  0  0  0
   21.4850   -5.3538  -14.3770 C   0  0  0  0  0  0  0  0  0  0  0  0
   22.3443   -4.7067  -13.5117 O   0  0  0  0  0  0  0  0  0  0  0  0
   20.3743   -4.7976  -14.5582 O   0  0  0  0  0  0  0  0  0  0  0  0
  2  3  1  0
  2  1  1  1
  4  5  1  6
  4  2  1  0
  6  4  1  0
  7  6  2  0
  8  6  1  0
  9  8  1  0
  9 10  1  1
 11 10  1  0
 12 11  1  0
 13 12  2  0
 14  9  1  0
 14 22  1  0
 15 14  2  0
 16 12  1  0
 17 18  1  0
 19 18  1  0
 19 21  1  0
 19 20  1  6
 21 22  1  6
 21 23  1  0
 23 25  2  0
 23 24  1  0
M  END
$$$$
