TEI.pdb
     RDKit          3D

 25 24  0  0  1  0  0  0  0  0999 V2000
   10.8320   -7.9467  -11.0068 C   0  0  0  0  0  0  0  0  0  0  0  0
   11.1378   -9.0924  -10.0659 C   0  0  1  0  0  0  0  0  0  0  0  0
    9.9867   -9.7909   -9.7999 O   0  0  0  0  0  0  0  0  0  0  0  0
   12.2402   -9.9766  -10.6149 C   0  0  2  0  0  0  0  0  0  0  0  0
   12.4674  -11.0322   -9.6500 N   0  0  0  0  0  0  0  0  0  0  0  0
   13.4524   -9.1724  -10.7458 C   0  0  0  0  0  0  0  0  0  0  0  0
   13.9827   -8.6778   -9.7204 O   0  0  0  0  0  0  0  0  0  0  0  0
   14.0982   -8.8985  -11.9872 N   0  0  0  0  0  0  0  0  0  0  0  0
   15.2581   -8.0554  -12.1364 C   0  0  1  0  0  0  0  0  0  0  0  0
   16.1612   -8.4336  -13.2725 C   0  0  0  0  0  0  0  0  0  0  0  0
   17.3440   -7.5695  -13.5032 C   0  0  0  0  0  0  0  0  0  0  0  0
   18.1274   -8.0273  -14.6569 C   0  0  0  0  0  0  0  0  0  0  0  0
   17.8390   -7.6379  -15.8023 O   0  0  0  0  0  0  0  0  0  0  0  0
   14.9766   -6.6123  -12.1205 C   0  0  0  0  0  0  0  0  0  0  0  0
   13.9977   -6.1874  -12.7837 O   0  0  0  0  0  0  0  0  0  0  0  0
   19.1832   -8.8899  -14.4681 O   0  0  0  0  0  0  0  0  0  0  0  0
   13.5716   -2.0452   -8.8574 C   0  0  0  0  0  0  0  0  0  0  0  0
   14.3889   -2.3536  -10.1260 C   0  0  0  0  0  0  0  0  0  0  0  0
   14.7156   -3.8201  -10.1220 C   0  0  2  0  0  0  0  0  0  0  0  0
   15.4912   -4.2168   -8.8849 C   0  0  0  0  0  0  0  0  0  0  0  0
   15.3812   -4.2154  -11.3926 C   0  0  2  0  0  0  0  0  0  0  0  0
   15.7305   -5.6371  -11.4101 N   0  0  0  0  0  0  0  0  0  0  0  0
   16.5998   -3.4683  -11.7425 C   0  0  0  0  0  0  0  0  0  0  0  0
   16.6383   -2.1451  -12.1343 O   0  0  0  0  0  0  0  0  0  0  0  0
   17.7093   -4.0534  -11.6923 O   0  0  0  0  0  0  0  0  0  0  0  0
  2  3  1  0
  2  1  1  6
  4  5  1  1
  4  2  1  0
  6  4  1  0
  7  6  2  0
  8  6  1  0
  9  8  1  0
  9 10  1  6
 11 10  1  0
 12 11  1  0
 13 12  2  0
 14  9  1  0
 14 22  1  0
 15 14  2  0
 16 12  1  0
 17 18  1  0
 19 18  1  0
 19 21  1  0
 19 20  1  1
 21 22  1  1
 21 23  1  0
 23 25  2  0
 23 24  1  0
M  END
$$$$
