TEI.pdb
     RDKit          3D

 25 24  0  0  1  0  0  0  0  0999 V2000
   15.7499  -10.0425  -14.6934 C   0  0  0  0  0  0  0  0  0  0  0  0
   16.2106  -11.4006  -15.1782 C   0  0  1  0  0  0  0  0  0  0  0  0
   15.2483  -12.3396  -14.9032 O   0  0  0  0  0  0  0  0  0  0  0  0
   16.5832  -11.3636  -16.6474 C   0  0  2  0  0  0  0  0  0  0  0  0
   17.0015  -12.6988  -17.0201 N   0  0  0  0  0  0  0  0  0  0  0  0
   17.7039  -10.4418  -16.8144 C   0  0  0  0  0  0  0  0  0  0  0  0
   18.8633  -10.8119  -16.5045 O   0  0  0  0  0  0  0  0  0  0  0  0
   17.5767   -9.1138  -17.3178 N   0  0  0  0  0  0  0  0  0  0  0  0
   18.6658   -8.1765  -17.4349 C   0  0  1  0  0  0  0  0  0  0  0  0
   18.3517   -6.9548  -18.2463 C   0  0  0  0  0  0  0  0  0  0  0  0
   19.4587   -5.9919  -18.4617 C   0  0  0  0  0  0  0  0  0  0  0  0
   19.0039   -4.8056  -19.1967 C   0  0  0  0  0  0  0  0  0  0  0  0
   18.6426   -4.9057  -20.3825 O   0  0  0  0  0  0  0  0  0  0  0  0
   19.3225   -7.8337  -16.1648 C   0  0  0  0  0  0  0  0  0  0  0  0
   18.6057   -7.6794  -15.1445 O   0  0  0  0  0  0  0  0  0  0  0  0
   18.9784   -3.5806  -18.5698 O   0  0  0  0  0  0  0  0  0  0  0  0
   21.0053  -10.1664  -13.2510 C   0  0  0  0  0  0  0  0  0  0  0  0
   21.8268   -9.8780  -14.5216 C   0  0  0  0  0  0  0  0  0  0  0  0
   22.3916   -8.4907  -14.4036 C   0  0  2  0  0  0  0  0  0  0  0  0
   23.1063   -8.2881  -13.0856 C   0  0  0  0  0  0  0  0  0  0  0  0
   21.3434   -7.4701  -14.6742 C   0  0  2  0  0  0  0  0  0  0  0  0
   20.7227   -7.6553  -15.9871 N   0  0  0  0  0  0  0  0  0  0  0  0
   21.7752   -6.0653  -14.5965 C   0  0  0  0  0  0  0  0  0  0  0  0
   21.8477   -5.3170  -13.4386 O   0  0  0  0  0  0  0  0  0  0  0  0
   22.1091   -5.4708  -15.6504 O   0  0  0  0  0  0  0  0  0  0  0  0
  2  3  1  0
  2  1  1  6
  4  5  1  1
  4  2  1  0
  6  4  1  0
  7  6  2  0
  8  6  1  0
  9  8  1  0
  9 10  1  1
 11 10  1  0
 12 11  1  0
 13 12  2  0
 14  9  1  0
 14 22  1  0
 15 14  2  0
 16 12  1  0
 17 18  1  0
 19 18  1  0
 19 21  1  0
 19 20  1  1
 21 22  1  6
 21 23  1  0
 23 25  2  0
 23 24  1  0
M  END
$$$$
