TEI.pdb
     RDKit          3D

 25 24  0  0  1  0  0  0  0  0999 V2000
   27.9382  -18.5505  -18.6037 C   0  0  0  0  0  0  0  0  0  0  0  0
   27.1496  -18.9637  -17.3794 C   0  0  1  0  0  0  0  0  0  0  0  0
   27.8862  -18.7115  -16.2492 O   0  0  0  0  0  0  0  0  0  0  0  0
   25.7899  -18.2936  -17.3482 C   0  0  2  0  0  0  0  0  0  0  0  0
   26.0112  -16.8648  -17.4277 N   0  0  0  0  0  0  0  0  0  0  0  0
   25.1490  -18.6131  -16.0752 C   0  0  0  0  0  0  0  0  0  0  0  0
   25.1596  -17.7686  -15.1458 O   0  0  0  0  0  0  0  0  0  0  0  0
   24.4926  -19.8488  -15.8002 N   0  0  0  0  0  0  0  0  0  0  0  0
   23.8870  -20.1889  -14.5369 C   0  0  1  0  0  0  0  0  0  0  0  0
   22.6443  -21.0216  -14.6459 C   0  0  0  0  0  0  0  0  0  0  0  0
   21.4962  -20.4190  -15.3656 C   0  0  0  0  0  0  0  0  0  0  0  0
   20.5783  -19.7419  -14.4419 C   0  0  0  0  0  0  0  0  0  0  0  0
   19.6249  -20.3636  -13.9407 O   0  0  0  0  0  0  0  0  0  0  0  0
   24.8171  -20.7261  -13.5328 C   0  0  0  0  0  0  0  0  0  0  0  0
   25.7148  -21.5183  -13.9137 O   0  0  0  0  0  0  0  0  0  0  0  0
   20.7752  -18.4156  -14.1314 O   0  0  0  0  0  0  0  0  0  0  0  0
   28.0744  -18.0769  -10.6562 C   0  0  0  0  0  0  0  0  0  0  0  0
   27.3662  -19.1998  -11.4373 C   0  0  0  0  0  0  0  0  0  0  0  0
   26.5157  -19.9726  -10.4694 C   0  0  2  0  0  0  0  0  0  0  0  0
   27.3330  -20.5186   -9.3192 C   0  0  0  0  0  0  0  0  0  0  0  0
   25.7207  -21.0110  -11.1789 C   0  0  2  0  0  0  0  0  0  0  0  0
   24.7876  -20.4246  -12.1427 N   0  0  0  0  0  0  0  0  0  0  0  0
   24.9418  -21.9225  -10.3255 C   0  0  0  0  0  0  0  0  0  0  0  0
   23.5955  -21.7970  -10.0463 O   0  0  0  0  0  0  0  0  0  0  0  0
   25.5191  -22.9013   -9.7924 O   0  0  0  0  0  0  0  0  0  0  0  0
  2  3  1  0
  2  1  1  6
  4  5  1  1
  4  2  1  0
  6  4  1  0
  7  6  2  0
  8  6  1  0
  9  8  1  0
  9 10  1  6
 11 10  1  0
 12 11  1  0
 13 12  2  0
 14  9  1  0
 14 22  1  0
 15 14  2  0
 16 12  1  0
 17 18  1  0
 19 18  1  0
 19 21  1  0
 19 20  1  1
 21 22  1  6
 21 23  1  0
 23 25  2  0
 23 24  1  0
M  END
$$$$
