TEI.pdb
     RDKit          3D

 25 24  0  0  1  0  0  0  0  0999 V2000
   28.2244  -18.9546  -18.9287 C   0  0  0  0  0  0  0  0  0  0  0  0
   27.3702  -19.1571  -17.6955 C   0  0  1  0  0  0  0  0  0  0  0  0
   28.1731  -19.4441  -16.6201 O   0  0  0  0  0  0  0  0  0  0  0  0
   26.4707  -17.9624  -17.4464 C   0  0  2  0  0  0  0  0  0  0  0  0
   27.3241  -16.8003  -17.3118 N   0  0  0  0  0  0  0  0  0  0  0  0
   25.7516  -18.1814  -16.1940 C   0  0  0  0  0  0  0  0  0  0  0  0
   26.1503  -17.6208  -15.1433 O   0  0  0  0  0  0  0  0  0  0  0  0
   24.5967  -19.0086  -16.0710 N   0  0  0  0  0  0  0  0  0  0  0  0
   23.9381  -19.3125  -14.8251 C   0  0  1  0  0  0  0  0  0  0  0  0
   22.5023  -19.7233  -14.9635 C   0  0  0  0  0  0  0  0  0  0  0  0
   21.7551  -19.9773  -13.7080 C   0  0  0  0  0  0  0  0  0  0  0  0
   20.5286  -19.1739  -13.6404 C   0  0  0  0  0  0  0  0  0  0  0  0
   20.0851  -18.6234  -14.6636 O   0  0  0  0  0  0  0  0  0  0  0  0
   24.6826  -20.2211  -13.9406 C   0  0  0  0  0  0  0  0  0  0  0  0
   25.3728  -21.1313  -14.4638 O   0  0  0  0  0  0  0  0  0  0  0  0
   19.8697  -19.0309  -12.4405 O   0  0  0  0  0  0  0  0  0  0  0  0
   26.4221  -18.5953   -8.9528 C   0  0  0  0  0  0  0  0  0  0  0  0
   26.4189  -19.1953  -10.3714 C   0  0  0  0  0  0  0  0  0  0  0  0
   25.6959  -20.5113  -10.3166 C   0  0  2  0  0  0  0  0  0  0  0  0
   26.3726  -21.4822   -9.3740 C   0  0  0  0  0  0  0  0  0  0  0  0
   25.4906  -21.0573  -11.6853 C   0  0  2  0  0  0  0  0  0  0  0  0
   24.6878  -20.1609  -12.5192 N   0  0  0  0  0  0  0  0  0  0  0  0
   24.8689  -22.3889  -11.7624 C   0  0  0  0  0  0  0  0  0  0  0  0
   23.5104  -22.6343  -11.7765 O   0  0  0  0  0  0  0  0  0  0  0  0
   25.6058  -23.4036  -11.8194 O   0  0  0  0  0  0  0  0  0  0  0  0
  2  3  1  0
  2  1  1  6
  4  5  1  1
  4  2  1  0
  6  4  1  0
  7  6  2  0
  8  6  1  0
  9  8  1  0
  9 10  1  6
 11 10  1  0
 12 11  1  0
 13 12  2  0
 14  9  1  0
 14 22  1  0
 15 14  2  0
 16 12  1  0
 17 18  1  0
 19 18  1  0
 19 21  1  0
 19 20  1  1
 21 22  1  6
 21 23  1  0
 23 25  2  0
 23 24  1  0
M  END
$$$$
