TEI.pdb
     RDKit          3D

 25 24  0  0  1  0  0  0  0  0999 V2000
   22.8482  -13.5066  -19.5752 C   0  0  0  0  0  0  0  0  0  0  0  0
   22.1358  -12.2176  -19.2254 C   0  0  1  0  0  0  0  0  0  0  0  0
   21.8322  -11.5316  -20.3747 O   0  0  0  0  0  0  0  0  0  0  0  0
   20.9150  -12.4790  -18.3652 C   0  0  2  0  0  0  0  0  0  0  0  0
   19.9157  -13.0977  -19.2110 N   0  0  0  0  0  0  0  0  0  0  0  0
   20.4109  -11.1966  -17.8806 C   0  0  0  0  0  0  0  0  0  0  0  0
   19.8483  -10.4086  -18.6804 O   0  0  0  0  0  0  0  0  0  0  0  0
   20.5127  -10.7591  -16.5273 N   0  0  0  0  0  0  0  0  0  0  0  0
   20.0677   -9.4742  -16.0482 C   0  0  1  0  0  0  0  0  0  0  0  0
   18.9312   -9.5331  -15.0712 C   0  0  0  0  0  0  0  0  0  0  0  0
   17.6501  -10.0905  -15.5680 C   0  0  0  0  0  0  0  0  0  0  0  0
   16.6319  -10.1223  -14.5113 C   0  0  0  0  0  0  0  0  0  0  0  0
   16.9018   -9.7062  -13.3708 O   0  0  0  0  0  0  0  0  0  0  0  0
   21.1420   -8.5849  -15.5823 C   0  0  0  0  0  0  0  0  0  0  0  0
   22.3154   -9.0328  -15.5481 O   0  0  0  0  0  0  0  0  0  0  0  0
   15.3762  -10.6143  -14.7858 O   0  0  0  0  0  0  0  0  0  0  0  0
   24.9944   -5.1341  -17.0105 C   0  0  0  0  0  0  0  0  0  0  0  0
   24.0836   -5.2064  -15.7705 C   0  0  0  0  0  0  0  0  0  0  0  0
   22.9767   -6.1789  -16.0642 C   0  0  2  0  0  0  0  0  0  0  0  0
   22.2386   -5.8189  -17.3350 C   0  0  0  0  0  0  0  0  0  0  0  0
   22.0852   -6.3353  -14.8834 C   0  0  2  0  0  0  0  0  0  0  0  0
   20.9660   -7.2389  -15.1564 N   0  0  0  0  0  0  0  0  0  0  0  0
   21.5131   -5.0941  -14.3377 C   0  0  0  0  0  0  0  0  0  0  0  0
   20.1892   -4.7156  -14.4379 O   0  0  0  0  0  0  0  0  0  0  0  0
   22.2633   -4.2932  -13.7283 O   0  0  0  0  0  0  0  0  0  0  0  0
  2  3  1  0
  2  1  1  6
  4  5  1  6
  4  2  1  0
  6  4  1  0
  7  6  2  0
  8  6  1  0
  9  8  1  0
  9 10  1  1
 11 10  1  0
 12 11  1  0
 13 12  2  0
 14  9  1  0
 14 22  1  0
 15 14  2  0
 16 12  1  0
 17 18  1  0
 19 18  1  0
 19 21  1  0
 19 20  1  6
 21 22  1  6
 21 23  1  0
 23 25  2  0
 23 24  1  0
M  END
$$$$
