TEI.pdb
     RDKit          3D

 25 24  0  0  1  0  0  0  0  0999 V2000
   26.5346  -19.4867  -17.9552 C   0  0  0  0  0  0  0  0  0  0  0  0
   27.5993  -18.7865  -17.1381 C   0  0  1  0  0  0  0  0  0  0  0  0
   27.0752  -17.6505  -16.5737 O   0  0  0  0  0  0  0  0  0  0  0  0
   28.2061  -19.7197  -16.1088 C   0  0  2  0  0  0  0  0  0  0  0  0
   28.7418  -20.8599  -16.8228 N   0  0  0  0  0  0  0  0  0  0  0  0
   27.1443  -20.1671  -15.2112 C   0  0  0  0  0  0  0  0  0  0  0  0
   26.2654  -20.9578  -15.6351 O   0  0  0  0  0  0  0  0  0  0  0  0
   27.0269  -19.7615  -13.8492 N   0  0  0  0  0  0  0  0  0  0  0  0
   25.9092  -20.0786  -12.9955 C   0  0  1  0  0  0  0  0  0  0  0  0
   26.1152  -19.7415  -11.5487 C   0  0  0  0  0  0  0  0  0  0  0  0
   25.0090  -20.0765  -10.6196 C   0  0  0  0  0  0  0  0  0  0  0  0
   25.1756  -21.4176  -10.0468 C   0  0  0  0  0  0  0  0  0  0  0  0
   26.2628  -22.0119  -10.1533 O   0  0  0  0  0  0  0  0  0  0  0  0
   24.6062  -19.6055  -13.4857 C   0  0  0  0  0  0  0  0  0  0  0  0
   24.4919  -18.3960  -13.8059 O   0  0  0  0  0  0  0  0  0  0  0  0
   24.1244  -22.0167   -9.3907 O   0  0  0  0  0  0  0  0  0  0  0  0
   22.4065  -20.2187  -17.8144 C   0  0  0  0  0  0  0  0  0  0  0  0
   22.7813  -19.7035  -16.4121 C   0  0  0  0  0  0  0  0  0  0  0  0
   21.7924  -20.2673  -15.4314 C   0  0  2  0  0  0  0  0  0  0  0  0
   20.3689  -19.9266  -15.8143 C   0  0  0  0  0  0  0  0  0  0  0  0
   22.1446  -19.8715  -14.0411 C   0  0  2  0  0  0  0  0  0  0  0  0
   23.4420  -20.4106  -13.6289 N   0  0  0  0  0  0  0  0  0  0  0  0
   21.1738  -20.2420  -12.9990 C   0  0  0  0  0  0  0  0  0  0  0  0
   20.1666  -19.4269  -12.5224 O   0  0  0  0  0  0  0  0  0  0  0  0
   21.2413  -21.3833  -12.4807 O   0  0  0  0  0  0  0  0  0  0  0  0
  2  3  1  0
  2  1  1  1
  4  5  1  6
  4  2  1  0
  6  4  1  0
  7  6  2  0
  8  6  1  0
  9  8  1  0
  9 10  1  1
 11 10  1  0
 12 11  1  0
 13 12  2  0
 14  9  1  0
 14 22  1  0
 15 14  2  0
 16 12  1  0
 17 18  1  0
 19 18  1  0
 19 21  1  0
 19 20  1  6
 21 22  1  1
 21 23  1  0
 23 25  2  0
 23 24  1  0
M  END
$$$$
