TEI.pdb
     RDKit          3D

 25 24  0  0  1  0  0  0  0  0999 V2000
   15.8928  -11.9356  -17.2495 C   0  0  0  0  0  0  0  0  0  0  0  0
   17.0214  -11.0515  -16.7637 C   0  0  1  0  0  0  0  0  0  0  0  0
   16.7771  -10.6598  -15.4712 O   0  0  0  0  0  0  0  0  0  0  0  0
   18.3644  -11.7376  -16.9188 C   0  0  2  0  0  0  0  0  0  0  0  0
   18.3469  -12.9155  -16.0767 N   0  0  0  0  0  0  0  0  0  0  0  0
   19.4040  -10.8245  -16.4508 C   0  0  0  0  0  0  0  0  0  0  0  0
   19.7487  -10.8430  -15.2433 O   0  0  0  0  0  0  0  0  0  0  0  0
   20.0769   -9.8856  -17.2868 N   0  0  0  0  0  0  0  0  0  0  0  0
   21.1522   -9.0289  -16.8530 C   0  0  1  0  0  0  0  0  0  0  0  0
   22.0879   -8.6021  -17.9447 C   0  0  0  0  0  0  0  0  0  0  0  0
   23.0155   -9.6322  -18.4715 C   0  0  0  0  0  0  0  0  0  0  0  0
   23.2834   -9.4338  -19.9009 C   0  0  0  0  0  0  0  0  0  0  0  0
   22.8376   -8.4316  -20.4870 O   0  0  0  0  0  0  0  0  0  0  0  0
   20.7358   -7.8935  -16.0167 C   0  0  0  0  0  0  0  0  0  0  0  0
   19.5963   -7.3990  -16.2053 O   0  0  0  0  0  0  0  0  0  0  0  0
   24.0300  -10.3608  -20.5921 O   0  0  0  0  0  0  0  0  0  0  0  0
   19.2757   -8.3076  -11.3819 C   0  0  0  0  0  0  0  0  0  0  0  0
   19.5820   -7.8267  -12.8127 C   0  0  0  0  0  0  0  0  0  0  0  0
   20.7053   -6.8317  -12.7369 C   0  0  2  0  0  0  0  0  0  0  0  0
   20.4447   -5.7730  -11.6880 C   0  0  0  0  0  0  0  0  0  0  0  0
   21.0067   -6.2733  -14.0827 C   0  0  2  0  0  0  0  0  0  0  0  0
   21.5250   -7.2930  -14.9966 N   0  0  0  0  0  0  0  0  0  0  0  0
   21.9507   -5.1449  -14.1166 C   0  0  0  0  0  0  0  0  0  0  0  0
   21.5993   -3.8106  -14.0703 O   0  0  0  0  0  0  0  0  0  0  0  0
   23.1810   -5.3812  -14.1956 O   0  0  0  0  0  0  0  0  0  0  0  0
  2  3  1  0
  2  1  1  1
  4  5  1  1
  4  2  1  0
  6  4  1  0
  7  6  2  0
  8  6  1  0
  9  8  1  0
  9 10  1  6
 11 10  1  0
 12 11  1  0
 13 12  2  0
 14  9  1  0
 14 22  1  0
 15 14  2  0
 16 12  1  0
 17 18  1  0
 19 18  1  0
 19 21  1  0
 19 20  1  1
 21 22  1  6
 21 23  1  0
 23 25  2  0
 23 24  1  0
M  END
$$$$
