TEI.pdb
     RDKit          3D

 25 24  0  0  1  0  0  0  0  0999 V2000
   16.4194   -8.5174  -16.6896 C   0  0  0  0  0  0  0  0  0  0  0  0
   16.0022   -9.7792  -15.9648 C   0  0  1  0  0  0  0  0  0  0  0  0
   14.6884  -10.0598  -16.2456 O   0  0  0  0  0  0  0  0  0  0  0  0
   16.9264  -10.9349  -16.2946 C   0  0  2  0  0  0  0  0  0  0  0  0
   16.5072  -12.0651  -15.4923 N   0  0  0  0  0  0  0  0  0  0  0  0
   18.2871  -10.5562  -15.9224 C   0  0  0  0  0  0  0  0  0  0  0  0
   18.5909  -10.4475  -14.7086 O   0  0  0  0  0  0  0  0  0  0  0  0
   19.3273  -10.2928  -16.8613 N   0  0  0  0  0  0  0  0  0  0  0  0
   20.6347   -9.7943  -16.5141 C   0  0  1  0  0  0  0  0  0  0  0  0
   21.7374  -10.2522  -17.4218 C   0  0  0  0  0  0  0  0  0  0  0  0
   21.7984   -9.6305  -18.7667 C   0  0  0  0  0  0  0  0  0  0  0  0
   22.9044  -10.1770  -19.5619 C   0  0  0  0  0  0  0  0  0  0  0  0
   24.0169   -9.6212  -19.5499 O   0  0  0  0  0  0  0  0  0  0  0  0
   20.6964   -8.3459  -16.2686 C   0  0  0  0  0  0  0  0  0  0  0  0
   19.9463   -7.5940  -16.9399 O   0  0  0  0  0  0  0  0  0  0  0  0
   22.7073  -11.3074  -20.3220 O   0  0  0  0  0  0  0  0  0  0  0  0
   19.5715   -3.9718  -13.7176 C   0  0  0  0  0  0  0  0  0  0  0  0
   20.9710   -4.5240  -13.3873 C   0  0  0  0  0  0  0  0  0  0  0  0
   20.9663   -5.9993  -13.6716 C   0  0  2  0  0  0  0  0  0  0  0  0
   21.6712   -6.7805  -12.5844 C   0  0  0  0  0  0  0  0  0  0  0  0
   21.4907   -6.2749  -15.0364 C   0  0  2  0  0  0  0  0  0  0  0  0
   21.5479   -7.7095  -15.3232 N   0  0  0  0  0  0  0  0  0  0  0  0
   22.8200   -5.7217  -15.3409 C   0  0  0  0  0  0  0  0  0  0  0  0
   23.9496   -6.4670  -15.6141 O   0  0  0  0  0  0  0  0  0  0  0  0
   22.9723   -4.4759  -15.3598 O   0  0  0  0  0  0  0  0  0  0  0  0
  2  3  1  0
  2  1  1  6
  4  5  1  1
  4  2  1  0
  6  4  1  0
  7  6  2  0
  8  6  1  0
  9  8  1  0
  9 10  1  6
 11 10  1  0
 12 11  1  0
 13 12  2  0
 14  9  1  0
 14 22  1  0
 15 14  2  0
 16 12  1  0
 17 18  1  0
 19 18  1  0
 19 21  1  0
 19 20  1  1
 21 22  1  1
 21 23  1  0
 23 25  2  0
 23 24  1  0
M  END
$$$$
