TEI.pdb
     RDKit          3D

 25 24  0  0  1  0  0  0  0  0999 V2000
   17.5789  -11.7418  -14.7953 C   0  0  0  0  0  0  0  0  0  0  0  0
   17.8321  -12.4986  -16.0816 C   0  0  1  0  0  0  0  0  0  0  0  0
   17.1827  -13.7070  -16.0416 O   0  0  0  0  0  0  0  0  0  0  0  0
   17.4463  -11.6715  -17.2922 C   0  0  2  0  0  0  0  0  0  0  0  0
   17.7228  -12.4714  -18.4672 N   0  0  0  0  0  0  0  0  0  0  0  0
   18.2815  -10.4735  -17.3158 C   0  0  0  0  0  0  0  0  0  0  0  0
   19.5297  -10.5886  -17.3941 O   0  0  0  0  0  0  0  0  0  0  0  0
   17.7712   -9.1435  -17.2545 N   0  0  0  0  0  0  0  0  0  0  0  0
   18.5849   -7.9614  -17.1167 C   0  0  1  0  0  0  0  0  0  0  0  0
   17.8233   -6.6706  -17.1741 C   0  0  0  0  0  0  0  0  0  0  0  0
   18.6130   -5.4217  -17.0490 C   0  0  0  0  0  0  0  0  0  0  0  0
   17.7521   -4.2341  -17.0991 C   0  0  0  0  0  0  0  0  0  0  0  0
   18.2527   -3.0968  -17.0483 O   0  0  0  0  0  0  0  0  0  0  0  0
   19.5258   -7.9898  -15.9871 C   0  0  0  0  0  0  0  0  0  0  0  0
   19.1206   -8.4327  -14.8834 O   0  0  0  0  0  0  0  0  0  0  0  0
   16.3876   -4.3821  -17.2023 O   0  0  0  0  0  0  0  0  0  0  0  0
   24.6176  -10.2093  -14.2957 C   0  0  0  0  0  0  0  0  0  0  0  0
   23.6687   -9.0378  -13.9802 C   0  0  0  0  0  0  0  0  0  0  0  0
   22.7759   -8.8306  -15.1708 C   0  0  2  0  0  0  0  0  0  0  0  0
   23.5736   -8.6621  -16.4453 C   0  0  0  0  0  0  0  0  0  0  0  0
   21.8133   -7.7239  -14.9216 C   0  0  2  0  0  0  0  0  0  0  0  0
   20.8777   -7.5492  -16.0341 N   0  0  0  0  0  0  0  0  0  0  0  0
   22.4040   -6.4048  -14.6447 C   0  0  0  0  0  0  0  0  0  0  0  0
   22.8258   -5.9648  -13.4059 O   0  0  0  0  0  0  0  0  0  0  0  0
   22.5478   -5.5906  -15.5892 O   0  0  0  0  0  0  0  0  0  0  0  0
  2  3  1  0
  2  1  1  1
  4  5  1  6
  4  2  1  0
  6  4  1  0
  7  6  2  0
  8  6  1  0
  9  8  1  0
  9 10  1  1
 11 10  1  0
 12 11  1  0
 13 12  2  0
 14  9  1  0
 14 22  1  0
 15 14  2  0
 16 12  1  0
 17 18  1  0
 19 18  1  0
 19 21  1  0
 19 20  1  6
 21 22  1  6
 21 23  1  0
 23 25  2  0
 23 24  1  0
M  END
$$$$
