TEI.pdb
     RDKit          3D

 25 24  0  0  1  0  0  0  0  0999 V2000
   18.0868  -14.2057  -14.9020 C   0  0  0  0  0  0  0  0  0  0  0  0
   17.3375  -14.5514  -16.1710 C   0  0  1  0  0  0  0  0  0  0  0  0
   16.7672  -15.7935  -16.0465 O   0  0  0  0  0  0  0  0  0  0  0  0
   16.3241  -13.4795  -16.5215 C   0  0  2  0  0  0  0  0  0  0  0  0
   15.7344  -13.8425  -17.7932 N   0  0  0  0  0  0  0  0  0  0  0  0
   17.0294  -12.2081  -16.6613 C   0  0  0  0  0  0  0  0  0  0  0  0
   17.9441  -12.0964  -17.5147 O   0  0  0  0  0  0  0  0  0  0  0  0
   16.7492  -11.0497  -15.8785 N   0  0  0  0  0  0  0  0  0  0  0  0
   17.4371   -9.7894  -16.0087 C   0  0  1  0  0  0  0  0  0  0  0  0
   16.5433   -8.5855  -15.9756 C   0  0  0  0  0  0  0  0  0  0  0  0
   17.1908   -7.2658  -16.1711 C   0  0  0  0  0  0  0  0  0  0  0  0
   16.2201   -6.1699  -16.0665 C   0  0  0  0  0  0  0  0  0  0  0  0
   15.2470   -6.1212  -16.8394 O   0  0  0  0  0  0  0  0  0  0  0  0
   18.6011   -9.6290  -15.1248 C   0  0  0  0  0  0  0  0  0  0  0  0
   18.4789   -9.9407  -13.9138 O   0  0  0  0  0  0  0  0  0  0  0  0
   16.3895   -5.1950  -15.1098 O   0  0  0  0  0  0  0  0  0  0  0  0
   22.9957  -12.0983  -15.4641 C   0  0  0  0  0  0  0  0  0  0  0  0
   21.7605  -11.2824  -15.0385 C   0  0  0  0  0  0  0  0  0  0  0  0
   22.1582   -9.8346  -14.9816 C   0  0  2  0  0  0  0  0  0  0  0  0
   23.3754   -9.6231  -14.1082 C   0  0  0  0  0  0  0  0  0  0  0  0
   20.9986   -8.9839  -14.6007 C   0  0  2  0  0  0  0  0  0  0  0  0
   19.8754   -9.1404  -15.5267 N   0  0  0  0  0  0  0  0  0  0  0  0
   21.2659   -7.5412  -14.4880 C   0  0  0  0  0  0  0  0  0  0  0  0
   21.6447   -6.8889  -13.3317 O   0  0  0  0  0  0  0  0  0  0  0  0
   21.1469   -6.8176  -15.5069 O   0  0  0  0  0  0  0  0  0  0  0  0
  2  3  1  0
  2  1  1  1
  4  5  1  6
  4  2  1  0
  6  4  1  0
  7  6  2  0
  8  6  1  0
  9  8  1  0
  9 10  1  1
 11 10  1  0
 12 11  1  0
 13 12  2  0
 14  9  1  0
 14 22  1  0
 15 14  2  0
 16 12  1  0
 17 18  1  0
 19 18  1  0
 19 21  1  0
 19 20  1  1
 21 22  1  6
 21 23  1  0
 23 25  2  0
 23 24  1  0
M  END
$$$$
