PLV.pdb
     RDKit          3D

 23 23  0  0  1  0  0  0  0  0999 V2000
    7.4226  -16.0881   21.2788 N   0  0  0  0  0  0  0  0  0  0  0  0
    6.8569  -15.8829   19.9697 C   0  0  0  0  0  0  0  0  0  0  0  0
    7.5227  -14.6632   19.3964 C   0  0  0  0  0  0  0  0  0  0  0  0
    8.6873  -14.3381   20.2914 C   0  0  0  0  0  0  0  0  0  0  0  0
    8.7149  -15.4895   21.2614 C   0  0  1  0  0  0  0  0  0  0  0  0
    9.0366  -15.0118   22.6576 C   0  0  0  0  0  0  0  0  0  0  0  0
   10.1826  -14.5575   22.8390 O   0  0  0  0  0  0  0  0  0  0  0  0
    7.3858  -11.7162   25.6062 C   0  0  0  0  0  0  0  0  0  0  0  0
    6.4577  -12.8574   25.3591 C   0  0  2  0  0  0  0  0  0  0  0  0
    5.2301  -12.6159   26.2620 C   0  0  0  0  0  0  0  0  0  0  0  0
    7.0252  -14.2040   25.5978 C   0  0  0  0  0  0  0  0  0  0  0  0
    8.2992  -14.6431   25.0216 C   0  0  2  0  0  0  0  0  0  0  0  0
    8.0693  -15.0957   23.6556 N   0  0  0  0  0  0  0  0  0  0  0  0
    9.1098  -15.5790   25.7770 C   0  0  0  0  0  0  0  0  0  0  0  0
    9.2248  -16.8111   25.5728 O   0  0  0  0  0  0  0  0  0  0  0  0
   12.2963  -14.2326   28.3909 C   0  0  0  0  0  0  0  0  0  0  0  0
   11.4950  -15.4337   28.7648 C   0  0  1  0  0  0  0  0  0  0  0  0
   10.4635  -15.0299   29.7921 C   0  0  0  0  0  0  0  0  0  0  0  0
   10.7579  -16.0745   27.6125 C   0  0  2  0  0  0  0  0  0  0  0  0
    9.9128  -15.1406   26.9141 N   0  0  0  0  0  0  0  0  0  0  0  0
    9.9072  -17.1500   28.1601 C   0  0  0  0  0  0  0  0  0  0  0  0
   10.4648  -18.2957   28.6775 O   0  0  0  0  0  0  0  0  0  0  0  0
    8.6680  -17.0151   28.1521 O   0  0  0  0  0  0  0  0  0  0  0  0
  1  2  1  0
  3  2  1  0
  4  3  1  0
  5  4  1  0
  5  1  1  0
  5  6  1  1
  6  7  2  0
  9  8  1  1
  9 11  1  0
  9 10  1  0
 12 11  1  1
 12 14  1  0
 12 13  1  0
 13  6  1  0
 14 20  1  0
 15 14  2  0
 17 16  1  6
 17 19  1  0
 18 17  1  0
 19 21  1  0
 19 20  1  1
 21 23  2  0
 21 22  1  0
M  END
$$$$
