PLV.pdb
     RDKit          3D

 23 23  0  0  1  0  0  0  0  0999 V2000
    7.1485  -16.0692   21.1517 N   0  0  0  0  0  0  0  0  0  0  0  0
    6.6004  -15.8159   19.8436 C   0  0  0  0  0  0  0  0  0  0  0  0
    7.3753  -14.6654   19.2645 C   0  0  0  0  0  0  0  0  0  0  0  0
    8.5680  -14.4480   20.1550 C   0  0  0  0  0  0  0  0  0  0  0  0
    8.4911  -15.5940   21.1287 C   0  0  1  0  0  0  0  0  0  0  0  0
    8.8603  -15.1444   22.5224 C   0  0  0  0  0  0  0  0  0  0  0  0
   10.0183  -14.7115   22.6778 O   0  0  0  0  0  0  0  0  0  0  0  0
    7.3941  -11.7318   25.5852 C   0  0  0  0  0  0  0  0  0  0  0  0
    6.4006  -12.7862   25.2307 C   0  0  2  0  0  0  0  0  0  0  0  0
    5.1564  -12.5142   26.1016 C   0  0  0  0  0  0  0  0  0  0  0  0
    6.8636  -14.1821   25.4022 C   0  0  0  0  0  0  0  0  0  0  0  0
    8.1413  -14.6663   24.8725 C   0  0  2  0  0  0  0  0  0  0  0  0
    7.9207  -15.2290   23.5465 N   0  0  0  0  0  0  0  0  0  0  0  0
    8.9465  -15.5371   25.7072 C   0  0  0  0  0  0  0  0  0  0  0  0
    8.9760  -16.7907   25.6794 O   0  0  0  0  0  0  0  0  0  0  0  0
   10.7697  -14.4823   29.5071 C   0  0  0  0  0  0  0  0  0  0  0  0
   11.5917  -15.1221   28.4396 C   0  0  1  0  0  0  0  0  0  0  0  0
   12.5235  -16.1250   29.0784 C   0  0  0  0  0  0  0  0  0  0  0  0
   10.7893  -15.8555   27.3906 C   0  0  2  0  0  0  0  0  0  0  0  0
    9.8497  -14.9960   26.7178 N   0  0  0  0  0  0  0  0  0  0  0  0
   10.0340  -16.9295   28.0661 C   0  0  0  0  0  0  0  0  0  0  0  0
   10.6773  -18.0389   28.5627 O   0  0  0  0  0  0  0  0  0  0  0  0
    8.7975  -16.8267   28.1864 O   0  0  0  0  0  0  0  0  0  0  0  0
  1  2  1  0
  3  2  1  0
  4  3  1  0
  5  4  1  0
  5  1  1  0
  5  6  1  1
  6  7  2  0
  9  8  1  1
  9 11  1  0
  9 10  1  0
 12 11  1  1
 12 14  1  0
 12 13  1  0
 13  6  1  0
 14 20  1  0
 15 14  2  0
 17 16  1  1
 17 19  1  0
 18 17  1  0
 19 21  1  0
 19 20  1  1
 21 23  2  0
 21 22  1  0
M  END
$$$$
