PLV.pdb
     RDKit          3D

 23 23  0  0  1  0  0  0  0  0999 V2000
    6.8762  -14.7599   20.8416 N   0  0  0  0  0  0  0  0  0  0  0  0
    6.3266  -14.0204   19.7340 C   0  0  0  0  0  0  0  0  0  0  0  0
    7.1585  -12.7769   19.5880 C   0  0  0  0  0  0  0  0  0  0  0  0
    8.3730  -12.9576   20.4570 C   0  0  0  0  0  0  0  0  0  0  0  0
    8.2433  -14.3747   20.9491 C   0  0  1  0  0  0  0  0  0  0  0  0
    8.6555  -14.4833   22.3979 C   0  0  0  0  0  0  0  0  0  0  0  0
    9.8801  -14.4884   22.6281 O   0  0  0  0  0  0  0  0  0  0  0  0
    7.8619  -11.7823   26.1607 C   0  0  0  0  0  0  0  0  0  0  0  0
    6.7427  -12.5891   25.5943 C   0  0  2  0  0  0  0  0  0  0  0  0
    5.4885  -12.2181   26.4128 C   0  0  0  0  0  0  0  0  0  0  0  0
    6.9506  -14.0551   25.5924 C   0  0  0  0  0  0  0  0  0  0  0  0
    7.9990  -14.7080   24.8035 C   0  0  2  0  0  0  0  0  0  0  0  0
    7.6804  -14.5705   23.3881 N   0  0  0  0  0  0  0  0  0  0  0  0
    8.3747  -16.0658   25.1484 C   0  0  0  0  0  0  0  0  0  0  0  0
    7.6044  -17.0421   25.3107 O   0  0  0  0  0  0  0  0  0  0  0  0
   11.1296  -18.1336   23.3056 C   0  0  0  0  0  0  0  0  0  0  0  0
   11.3210  -18.2509   24.7800 C   0  0  1  0  0  0  0  0  0  0  0  0
   12.4945  -17.3915   25.1883 C   0  0  0  0  0  0  0  0  0  0  0  0
   10.1314  -17.8097   25.5999 C   0  0  2  0  0  0  0  0  0  0  0  0
    9.7714  -16.4376   25.3508 N   0  0  0  0  0  0  0  0  0  0  0  0
   10.4887  -17.9437   27.0263 C   0  0  0  0  0  0  0  0  0  0  0  0
   10.6812  -19.1825   27.5916 O   0  0  0  0  0  0  0  0  0  0  0  0
   10.6170  -16.9192   27.7247 O   0  0  0  0  0  0  0  0  0  0  0  0
  1  2  1  0
  3  2  1  0
  4  3  1  0
  5  4  1  0
  5  1  1  0
  5  6  1  1
  6  7  2  0
  9  8  1  1
  9 11  1  0
  9 10  1  0
 12 11  1  1
 12 14  1  0
 12 13  1  0
 13  6  1  0
 14 20  1  0
 15 14  2  0
 17 16  1  6
 17 19  1  0
 18 17  1  0
 19 21  1  0
 19 20  1  1
 21 23  2  0
 21 22  1  0
M  END
$$$$
