PLV.pdb
     RDKit          3D

 23 23  0  0  1  0  0  0  0  0999 V2000
    6.9664  -14.6886   20.2123 N   0  0  0  0  0  0  0  0  0  0  0  0
    6.5092  -13.9858   19.0407 C   0  0  0  0  0  0  0  0  0  0  0  0
    7.4565  -12.8384   18.8265 C   0  0  0  0  0  0  0  0  0  0  0  0
    8.6325  -13.0653   19.7368 C   0  0  0  0  0  0  0  0  0  0  0  0
    8.3614  -14.4241   20.3263 C   0  0  1  0  0  0  0  0  0  0  0  0
    8.7347  -14.4625   21.7892 C   0  0  0  0  0  0  0  0  0  0  0  0
    9.9518  -14.5172   22.0506 O   0  0  0  0  0  0  0  0  0  0  0  0
    5.8049  -12.4417   26.7603 C   0  0  0  0  0  0  0  0  0  0  0  0
    7.0461  -13.0770   26.2308 C   0  0  2  0  0  0  0  0  0  0  0  0
    8.1870  -12.0707   26.4877 C   0  0  0  0  0  0  0  0  0  0  0  0
    7.0039  -13.4659   24.8027 C   0  0  0  0  0  0  0  0  0  0  0  0
    8.0152  -14.3271   24.1834 C   0  0  2  0  0  0  0  0  0  0  0  0
    7.7345  -14.4359   22.7576 N   0  0  0  0  0  0  0  0  0  0  0  0
    8.2819  -15.6187   24.7868 C   0  0  0  0  0  0  0  0  0  0  0  0
    7.4439  -16.5133   25.0523 O   0  0  0  0  0  0  0  0  0  0  0  0
   10.7872  -18.2098   23.4450 C   0  0  0  0  0  0  0  0  0  0  0  0
   11.0340  -18.0127   24.9026 C   0  0  1  0  0  0  0  0  0  0  0  0
   12.2567  -17.1423   25.0757 C   0  0  0  0  0  0  0  0  0  0  0  0
    9.8977  -17.3473   25.6427 C   0  0  2  0  0  0  0  0  0  0  0  0
    9.6353  -16.0150   25.1626 N   0  0  0  0  0  0  0  0  0  0  0  0
   10.2736  -17.2608   27.0680 C   0  0  0  0  0  0  0  0  0  0  0  0
   10.4367  -18.3977   27.8244 O   0  0  0  0  0  0  0  0  0  0  0  0
   10.4448  -16.1417   27.5898 O   0  0  0  0  0  0  0  0  0  0  0  0
  1  2  1  0
  3  2  1  0
  4  3  1  0
  5  4  1  0
  5  1  1  0
  5  6  1  1
  6  7  2  0
  9  8  1  6
  9 11  1  0
  9 10  1  0
 12 11  1  1
 12 14  1  0
 12 13  1  0
 13  6  1  0
 14 20  1  0
 15 14  2  0
 17 16  1  6
 17 19  1  0
 18 17  1  0
 19 21  1  0
 19 20  1  6
 21 23  2  0
 21 22  1  0
M  END
$$$$
