PLV.pdb
     RDKit          3D

 23 23  0  0  1  0  0  0  0  0999 V2000
    7.0045  -14.6946   20.8905 N   0  0  0  0  0  0  0  0  0  0  0  0
    6.4569  -13.9633   19.7765 C   0  0  0  0  0  0  0  0  0  0  0  0
    7.2718  -12.7075   19.6401 C   0  0  0  0  0  0  0  0  0  0  0  0
    8.4787  -12.8702   20.5232 C   0  0  0  0  0  0  0  0  0  0  0  0
    8.3643  -14.2892   21.0139 C   0  0  1  0  0  0  0  0  0  0  0  0
    8.7612  -14.3917   22.4674 C   0  0  0  0  0  0  0  0  0  0  0  0
    9.9705  -14.2378   22.7252 O   0  0  0  0  0  0  0  0  0  0  0  0
    8.0544  -11.9791   26.4203 C   0  0  0  0  0  0  0  0  0  0  0  0
    6.9044  -12.6630   25.7611 C   0  0  2  0  0  0  0  0  0  0  0  0
    5.6549  -12.2961   26.5885 C   0  0  0  0  0  0  0  0  0  0  0  0
    7.0287  -14.1322   25.6258 C   0  0  0  0  0  0  0  0  0  0  0  0
    8.0958  -14.7715   24.8510 C   0  0  2  0  0  0  0  0  0  0  0  0
    7.7896  -14.6464   23.4318 N   0  0  0  0  0  0  0  0  0  0  0  0
    8.4906  -16.1210   25.2067 C   0  0  0  0  0  0  0  0  0  0  0  0
    7.7350  -17.0594   25.5555 O   0  0  0  0  0  0  0  0  0  0  0  0
   11.2735  -18.3039   23.1977 C   0  0  0  0  0  0  0  0  0  0  0  0
   11.4598  -18.3447   24.6769 C   0  0  1  0  0  0  0  0  0  0  0  0
   12.6083  -17.4361   25.0479 C   0  0  0  0  0  0  0  0  0  0  0  0
   10.2547  -17.8958   25.4695 C   0  0  2  0  0  0  0  0  0  0  0  0
    9.8912  -16.5305   25.1898 N   0  0  0  0  0  0  0  0  0  0  0  0
   10.5897  -18.0019   26.9036 C   0  0  0  0  0  0  0  0  0  0  0  0
   10.7000  -16.8771   27.6871 O   0  0  0  0  0  0  0  0  0  0  0  0
   10.7745  -19.1268   27.4081 O   0  0  0  0  0  0  0  0  0  0  0  0
  1  2  1  0
  3  2  1  0
  4  3  1  0
  5  4  1  0
  5  1  1  0
  5  6  1  1
  6  7  2  0
  9  8  1  1
  9 11  1  0
  9 10  1  0
 12 11  1  1
 12 14  1  0
 12 13  1  0
 13  6  1  0
 14 20  1  0
 15 14  2  0
 17 16  1  6
 17 19  1  0
 18 17  1  0
 19 21  1  0
 19 20  1  6
 21 23  2  0
 21 22  1  0
M  END
$$$$
