PLV.pdb
     RDKit          3D

 23 23  0  0  1  0  0  0  0  0999 V2000
    7.0077  -14.8433   20.3099 N   0  0  0  0  0  0  0  0  0  0  0  0
    6.4885  -14.3052   19.0784 C   0  0  0  0  0  0  0  0  0  0  0  0
    7.2861  -13.0674   18.7761 C   0  0  0  0  0  0  0  0  0  0  0  0
    8.4627  -13.0645   19.7134 C   0  0  0  0  0  0  0  0  0  0  0  0
    8.3550  -14.3930   20.4140 C   0  0  1  0  0  0  0  0  0  0  0  0
    8.7005  -14.2610   21.8783 C   0  0  0  0  0  0  0  0  0  0  0  0
    9.8980  -14.0491   22.1495 O   0  0  0  0  0  0  0  0  0  0  0  0
    5.7085  -12.5385   26.8862 C   0  0  0  0  0  0  0  0  0  0  0  0
    6.9585  -13.1480   26.3472 C   0  0  2  0  0  0  0  0  0  0  0  0
    8.0883  -12.1380   26.6369 C   0  0  0  0  0  0  0  0  0  0  0  0
    6.9278  -13.4996   24.9093 C   0  0  0  0  0  0  0  0  0  0  0  0
    7.9604  -14.3194   24.2694 C   0  0  2  0  0  0  0  0  0  0  0  0
    7.6976  -14.3778   22.8372 N   0  0  0  0  0  0  0  0  0  0  0  0
    8.2422  -15.6288   24.8259 C   0  0  0  0  0  0  0  0  0  0  0  0
    7.4089  -16.5236   25.1049 O   0  0  0  0  0  0  0  0  0  0  0  0
   10.8405  -18.1162   23.3208 C   0  0  0  0  0  0  0  0  0  0  0  0
   11.0472  -18.0021   24.7935 C   0  0  1  0  0  0  0  0  0  0  0  0
   12.2510  -17.1258   25.0494 C   0  0  0  0  0  0  0  0  0  0  0  0
    9.8819  -17.3981   25.5413 C   0  0  2  0  0  0  0  0  0  0  0  0
    9.6074  -16.0454   25.1301 N   0  0  0  0  0  0  0  0  0  0  0  0
   10.2223  -17.3860   26.9781 C   0  0  0  0  0  0  0  0  0  0  0  0
   10.3632  -18.5606   27.6793 O   0  0  0  0  0  0  0  0  0  0  0  0
   10.3834  -16.2956   27.5605 O   0  0  0  0  0  0  0  0  0  0  0  0
  1  2  1  0
  3  2  1  0
  4  3  1  0
  5  4  1  0
  5  1  1  0
  5  6  1  1
  6  7  2  0
  9  8  1  6
  9 11  1  0
  9 10  1  0
 12 11  1  1
 12 14  1  0
 12 13  1  0
 13  6  1  0
 14 20  1  0
 15 14  2  0
 17 16  1  6
 17 19  1  0
 18 17  1  0
 19 21  1  0
 19 20  1  6
 21 23  2  0
 21 22  1  0
M  END
$$$$
