PLV.pdb
     RDKit          3D

 23 23  0  0  1  0  0  0  0  0999 V2000
    7.0655  -15.9110   21.0332 N   0  0  0  0  0  0  0  0  0  0  0  0
    6.4976  -15.5544   19.7580 C   0  0  0  0  0  0  0  0  0  0  0  0
    7.2970  -14.3926   19.2375 C   0  0  0  0  0  0  0  0  0  0  0  0
    8.5153  -14.2723   20.1117 C   0  0  0  0  0  0  0  0  0  0  0  0
    8.4220  -15.4775   21.0095 C   0  0  1  0  0  0  0  0  0  0  0  0
    8.8360  -15.1333   22.4205 C   0  0  0  0  0  0  0  0  0  0  0  0
   10.0590  -15.0140   22.6271 O   0  0  0  0  0  0  0  0  0  0  0  0
    5.8480  -12.3193   26.9577 C   0  0  0  0  0  0  0  0  0  0  0  0
    7.1353  -12.9323   26.5201 C   0  0  2  0  0  0  0  0  0  0  0  0
    8.1710  -11.7889   26.5011 C   0  0  0  0  0  0  0  0  0  0  0  0
    7.0991  -13.6264   25.2128 C   0  0  0  0  0  0  0  0  0  0  0  0
    8.1723  -14.5125   24.7534 C   0  0  2  0  0  0  0  0  0  0  0  0
    7.8642  -14.9682   23.4040 N   0  0  0  0  0  0  0  0  0  0  0  0
    8.5809  -15.6035   25.6173 C   0  0  0  0  0  0  0  0  0  0  0  0
    7.8656  -16.5498   26.0247 O   0  0  0  0  0  0  0  0  0  0  0  0
   11.7352  -17.8293   24.9816 C   0  0  0  0  0  0  0  0  0  0  0  0
   11.7064  -17.3857   26.4053 C   0  0  1  0  0  0  0  0  0  0  0  0
   12.7163  -16.2775   26.5902 C   0  0  0  0  0  0  0  0  0  0  0  0
   10.3680  -16.8587   26.8669 C   0  0  2  0  0  0  0  0  0  0  0  0
    9.9471  -15.7008   26.1211 N   0  0  0  0  0  0  0  0  0  0  0  0
   10.4972  -16.4740   28.2867 C   0  0  0  0  0  0  0  0  0  0  0  0
   10.7771  -17.4151   29.2495 O   0  0  0  0  0  0  0  0  0  0  0  0
   10.3502  -15.2802   28.6138 O   0  0  0  0  0  0  0  0  0  0  0  0
  1  2  1  0
  3  2  1  0
  4  3  1  0
  5  4  1  0
  5  1  1  0
  5  6  1  1
  6  7  2  0
  9  8  1  6
  9 11  1  0
  9 10  1  0
 12 11  1  1
 12 14  1  0
 12 13  1  0
 13  6  1  0
 14 20  1  0
 15 14  2  0
 17 16  1  6
 17 19  1  0
 18 17  1  0
 19 21  1  0
 19 20  1  6
 21 23  2  0
 21 22  1  0
M  END
$$$$
