PLV.pdb
     RDKit          3D

 23 23  0  0  1  0  0  0  0  0999 V2000
    7.0395  -15.0820   21.1362 N   0  0  0  0  0  0  0  0  0  0  0  0
    6.5367  -14.4241   19.9572 C   0  0  0  0  0  0  0  0  0  0  0  0
    7.4692  -13.2810   19.6681 C   0  0  0  0  0  0  0  0  0  0  0  0
    8.6782  -13.4696   20.5432 C   0  0  0  0  0  0  0  0  0  0  0  0
    8.4361  -14.8074   21.1905 C   0  0  1  0  0  0  0  0  0  0  0  0
    8.8616  -14.7912   22.6395 C   0  0  0  0  0  0  0  0  0  0  0  0
   10.0862  -14.7200   22.8580 O   0  0  0  0  0  0  0  0  0  0  0  0
    7.9254  -11.6669   26.0837 C   0  0  0  0  0  0  0  0  0  0  0  0
    6.8490  -12.5629   25.5710 C   0  0  2  0  0  0  0  0  0  0  0  0
    5.5602  -12.1556   26.3150 C   0  0  0  0  0  0  0  0  0  0  0  0
    7.1022  -14.0141   25.7204 C   0  0  0  0  0  0  0  0  0  0  0  0
    8.2146  -14.6992   25.0564 C   0  0  2  0  0  0  0  0  0  0  0  0
    7.8978  -14.8546   23.6425 N   0  0  0  0  0  0  0  0  0  0  0  0
    8.7131  -15.9290   25.6418 C   0  0  0  0  0  0  0  0  0  0  0  0
    8.0693  -16.9891   25.8285 O   0  0  0  0  0  0  0  0  0  0  0  0
   12.2130  -17.6226   24.6708 C   0  0  0  0  0  0  0  0  0  0  0  0
   12.0208  -17.5655   26.1487 C   0  0  1  0  0  0  0  0  0  0  0  0
   12.8734  -16.4505   26.7075 C   0  0  0  0  0  0  0  0  0  0  0  0
   10.5972  -17.3060   26.5824 C   0  0  2  0  0  0  0  0  0  0  0  0
   10.0954  -16.0473   26.0945 N   0  0  0  0  0  0  0  0  0  0  0  0
   10.5713  -17.2747   28.0585 C   0  0  0  0  0  0  0  0  0  0  0  0
   10.9081  -18.3873   28.7933 O   0  0  0  0  0  0  0  0  0  0  0  0
   10.2396  -16.2251   28.6434 O   0  0  0  0  0  0  0  0  0  0  0  0
  1  2  1  0
  3  2  1  0
  4  3  1  0
  5  4  1  0
  5  1  1  0
  5  6  1  1
  6  7  2  0
  9  8  1  1
  9 11  1  0
  9 10  1  0
 12 11  1  1
 12 14  1  0
 12 13  1  0
 13  6  1  0
 14 20  1  0
 15 14  2  0
 17 16  1  6
 17 19  1  0
 18 17  1  0
 19 21  1  0
 19 20  1  6
 21 23  2  0
 21 22  1  0
M  END
$$$$
