PLV.pdb
     RDKit          3D

 23 23  0  0  1  0  0  0  0  0999 V2000
    7.1686  -14.9154   20.7978 N   0  0  0  0  0  0  0  0  0  0  0  0
    6.6523  -14.2412   19.6339 C   0  0  0  0  0  0  0  0  0  0  0  0
    7.4147  -12.9519   19.5064 C   0  0  0  0  0  0  0  0  0  0  0  0
    8.5753  -13.0329   20.4600 C   0  0  0  0  0  0  0  0  0  0  0  0
    8.4989  -14.4422   20.9849 C   0  0  1  0  0  0  0  0  0  0  0  0
    8.8163  -14.4868   22.4607 C   0  0  0  0  0  0  0  0  0  0  0  0
   10.0169  -14.3729   22.7744 O   0  0  0  0  0  0  0  0  0  0  0  0
    8.0664  -11.8997   26.2973 C   0  0  0  0  0  0  0  0  0  0  0  0
    6.9146  -12.5403   25.5991 C   0  0  2  0  0  0  0  0  0  0  0  0
    5.6467  -12.0703   26.3421 C   0  0  0  0  0  0  0  0  0  0  0  0
    6.9576  -14.0183   25.5222 C   0  0  0  0  0  0  0  0  0  0  0  0
    8.0170  -14.7470   24.8191 C   0  0  2  0  0  0  0  0  0  0  0  0
    7.7862  -14.6484   23.3836 N   0  0  0  0  0  0  0  0  0  0  0  0
    8.3081  -16.1064   25.2324 C   0  0  0  0  0  0  0  0  0  0  0  0
    7.4863  -17.0439   25.3703 O   0  0  0  0  0  0  0  0  0  0  0  0
   11.0201  -18.3228   23.5513 C   0  0  0  0  0  0  0  0  0  0  0  0
   11.1643  -18.4046   25.0336 C   0  0  1  0  0  0  0  0  0  0  0  0
   12.3446  -17.5609   25.4549 C   0  0  0  0  0  0  0  0  0  0  0  0
    9.9612  -17.9150   25.8047 C   0  0  2  0  0  0  0  0  0  0  0  0
    9.6696  -16.5287   25.5451 N   0  0  0  0  0  0  0  0  0  0  0  0
   10.2529  -18.0658   27.2443 C   0  0  0  0  0  0  0  0  0  0  0  0
   10.4185  -19.3113   27.8034 O   0  0  0  0  0  0  0  0  0  0  0  0
   10.3499  -17.0495   27.9596 O   0  0  0  0  0  0  0  0  0  0  0  0
  1  2  1  0
  3  2  1  0
  4  3  1  0
  5  4  1  0
  5  1  1  0
  5  6  1  1
  6  7  2  0
  9  8  1  1
  9 11  1  0
  9 10  1  0
 12 11  1  1
 12 14  1  0
 12 13  1  0
 13  6  1  0
 14 20  1  0
 15 14  2  0
 17 16  1  6
 17 19  1  0
 18 17  1  0
 19 21  1  0
 19 20  1  1
 21 23  2  0
 21 22  1  0
M  END
$$$$
