PLV.pdb
     RDKit          3D

 23 23  0  0  1  0  0  0  0  0999 V2000
    7.0083  -14.8250   20.4471 N   0  0  0  0  0  0  0  0  0  0  0  0
    6.4309  -14.2509   19.2585 C   0  0  0  0  0  0  0  0  0  0  0  0
    7.1874  -12.9825   18.9786 C   0  0  0  0  0  0  0  0  0  0  0  0
    8.3979  -12.9880   19.8717 C   0  0  0  0  0  0  0  0  0  0  0  0
    8.3476  -14.3459   20.5205 C   0  0  1  0  0  0  0  0  0  0  0  0
    8.7444  -14.2644   21.9754 C   0  0  0  0  0  0  0  0  0  0  0  0
    9.9610  -14.1377   22.2131 O   0  0  0  0  0  0  0  0  0  0  0  0
    5.9003  -12.5998   27.1155 C   0  0  0  0  0  0  0  0  0  0  0  0
    7.1407  -13.1756   26.5201 C   0  0  2  0  0  0  0  0  0  0  0  0
    8.2650  -12.1573   26.8017 C   0  0  0  0  0  0  0  0  0  0  0  0
    7.0685  -13.4880   25.0746 C   0  0  0  0  0  0  0  0  0  0  0  0
    8.0724  -14.3047   24.3869 C   0  0  2  0  0  0  0  0  0  0  0  0
    7.7648  -14.3320   22.9627 N   0  0  0  0  0  0  0  0  0  0  0  0
    8.3580  -15.6275   24.9085 C   0  0  0  0  0  0  0  0  0  0  0  0
    7.5278  -16.5336   25.1589 O   0  0  0  0  0  0  0  0  0  0  0  0
   10.9710  -18.0865   23.3517 C   0  0  0  0  0  0  0  0  0  0  0  0
   11.1784  -17.9830   24.8250 C   0  0  1  0  0  0  0  0  0  0  0  0
   12.3659  -17.0868   25.0874 C   0  0  0  0  0  0  0  0  0  0  0  0
   10.0034  -17.4085   25.5808 C   0  0  2  0  0  0  0  0  0  0  0  0
    9.7238  -16.0458   25.2077 N   0  0  0  0  0  0  0  0  0  0  0  0
   10.3321  -17.4370   27.0201 C   0  0  0  0  0  0  0  0  0  0  0  0
   10.5286  -18.6303   27.6749 O   0  0  0  0  0  0  0  0  0  0  0  0
   10.4320  -16.3643   27.6472 O   0  0  0  0  0  0  0  0  0  0  0  0
  1  2  1  0
  3  2  1  0
  4  3  1  0
  5  4  1  0
  5  1  1  0
  5  6  1  1
  6  7  2  0
  9  8  1  6
  9 11  1  0
  9 10  1  0
 12 11  1  1
 12 14  1  0
 12 13  1  0
 13  6  1  0
 14 20  1  0
 15 14  2  0
 17 16  1  6
 17 19  1  0
 18 17  1  0
 19 21  1  0
 19 20  1  6
 21 23  2  0
 21 22  1  0
M  END
$$$$
