PLV.pdb
     RDKit          3D

 23 23  0  0  1  0  0  0  0  0999 V2000
    7.4120  -16.1836   21.2379 N   0  0  0  0  0  0  0  0  0  0  0  0
    6.7439  -15.9963   19.9752 C   0  0  0  0  0  0  0  0  0  0  0  0
    7.3126  -14.7455   19.3655 C   0  0  0  0  0  0  0  0  0  0  0  0
    8.5243  -14.3746   20.1762 C   0  0  0  0  0  0  0  0  0  0  0  0
    8.6725  -15.5288   21.1318 C   0  0  1  0  0  0  0  0  0  0  0  0
    9.0741  -15.0451   22.5049 C   0  0  0  0  0  0  0  0  0  0  0  0
   10.1885  -14.4951   22.5961 O   0  0  0  0  0  0  0  0  0  0  0  0
    7.4409  -11.7344   25.3764 C   0  0  0  0  0  0  0  0  0  0  0  0
    6.5651  -12.9247   25.1745 C   0  0  2  0  0  0  0  0  0  0  0  0
    5.3170  -12.6933   26.0514 C   0  0  0  0  0  0  0  0  0  0  0  0
    7.1859  -14.2329   25.4838 C   0  0  0  0  0  0  0  0  0  0  0  0
    8.4596  -14.6654   24.9022 C   0  0  2  0  0  0  0  0  0  0  0  0
    8.2096  -15.2275   23.5811 N   0  0  0  0  0  0  0  0  0  0  0  0
    9.3280  -15.5108   25.6989 C   0  0  0  0  0  0  0  0  0  0  0  0
    9.6853  -16.6839   25.4356 O   0  0  0  0  0  0  0  0  0  0  0  0
   11.7692  -13.7038   28.6425 C   0  0  0  0  0  0  0  0  0  0  0  0
   11.4205  -15.1347   28.8775 C   0  0  1  0  0  0  0  0  0  0  0  0
   10.3812  -15.2090   29.9714 C   0  0  0  0  0  0  0  0  0  0  0  0
   10.8563  -15.8451   27.6696 C   0  0  2  0  0  0  0  0  0  0  0  0
    9.8971  -15.0404   26.9578 N   0  0  0  0  0  0  0  0  0  0  0  0
   10.1770  -17.0691   28.1395 C   0  0  0  0  0  0  0  0  0  0  0  0
   10.8992  -18.1359   28.6206 O   0  0  0  0  0  0  0  0  0  0  0  0
    8.9328  -17.1335   28.0984 O   0  0  0  0  0  0  0  0  0  0  0  0
  1  2  1  0
  3  2  1  0
  4  3  1  0
  5  4  1  0
  5  1  1  0
  5  6  1  1
  6  7  2  0
  9  8  1  1
  9 11  1  0
  9 10  1  0
 12 11  1  1
 12 14  1  0
 12 13  1  0
 13  6  1  0
 14 20  1  0
 15 14  2  0
 17 16  1  6
 17 19  1  0
 18 17  1  0
 19 21  1  0
 19 20  1  1
 21 23  2  0
 21 22  1  0
M  END
$$$$
