PLV.pdb
     RDKit          3D

 23 23  0  0  1  0  0  0  0  0999 V2000
    6.9582  -14.6234   20.9244 N   0  0  0  0  0  0  0  0  0  0  0  0
    6.4103  -13.8424   19.8447 C   0  0  0  0  0  0  0  0  0  0  0  0
    7.3284  -12.6682   19.6501 C   0  0  0  0  0  0  0  0  0  0  0  0
    8.5695  -12.9443   20.4541 C   0  0  0  0  0  0  0  0  0  0  0  0
    8.3551  -14.3471   20.9577 C   0  0  1  0  0  0  0  0  0  0  0  0
    8.8339  -14.4884   22.3830 C   0  0  0  0  0  0  0  0  0  0  0  0
   10.0660  -14.4386   22.5626 O   0  0  0  0  0  0  0  0  0  0  0  0
    8.3227  -11.8712   26.1640 C   0  0  0  0  0  0  0  0  0  0  0  0
    7.1314  -12.6220   25.6725 C   0  0  2  0  0  0  0  0  0  0  0  0
    5.9599  -12.2181   26.5917 C   0  0  0  0  0  0  0  0  0  0  0  0
    7.2787  -14.0947   25.6302 C   0  0  0  0  0  0  0  0  0  0  0  0
    8.2892  -14.7691   24.8106 C   0  0  2  0  0  0  0  0  0  0  0  0
    7.9079  -14.6633   23.4081 N   0  0  0  0  0  0  0  0  0  0  0  0
    8.6770  -16.1197   25.1697 C   0  0  0  0  0  0  0  0  0  0  0  0
    7.9165  -17.1040   25.3306 O   0  0  0  0  0  0  0  0  0  0  0  0
   12.2528  -19.5797   25.3358 C   0  0  0  0  0  0  0  0  0  0  0  0
   11.8133  -18.1768   25.0841 C   0  0  1  0  0  0  0  0  0  0  0  0
   11.7604  -17.9437   23.5924 C   0  0  0  0  0  0  0  0  0  0  0  0
   10.4503  -17.8412   25.6422 C   0  0  2  0  0  0  0  0  0  0  0  0
   10.0756  -16.4735   25.3905 N   0  0  0  0  0  0  0  0  0  0  0  0
   10.4949  -18.0482   27.1035 C   0  0  0  0  0  0  0  0  0  0  0  0
   10.5601  -19.3152   27.6344 O   0  0  0  0  0  0  0  0  0  0  0  0
   10.4731  -17.0603   27.8634 O   0  0  0  0  0  0  0  0  0  0  0  0
  1  2  1  0
  3  2  1  0
  4  3  1  0
  5  4  1  0
  5  1  1  0
  5  6  1  1
  6  7  2  0
  9  8  1  1
  9 11  1  0
  9 10  1  0
 12 11  1  1
 12 14  1  0
 12 13  1  0
 13  6  1  0
 14 20  1  0
 15 14  2  0
 17 16  1  6
 17 19  1  0
 18 17  1  0
 19 21  1  0
 19 20  1  1
 21 23  2  0
 21 22  1  0
M  END
$$$$
