PLV.pdb
     RDKit          3D

 23 23  0  0  1  0  0  0  0  0999 V2000
    7.2102  -14.8904   20.7946 N   0  0  0  0  0  0  0  0  0  0  0  0
    6.6504  -14.2394   19.6377 C   0  0  0  0  0  0  0  0  0  0  0  0
    7.3536  -12.9178   19.5015 C   0  0  0  0  0  0  0  0  0  0  0  0
    8.5284  -12.9477   20.4406 C   0  0  0  0  0  0  0  0  0  0  0  0
    8.5206  -14.3590   20.9656 C   0  0  1  0  0  0  0  0  0  0  0  0
    8.8579  -14.3896   22.4374 C   0  0  0  0  0  0  0  0  0  0  0  0
   10.0487  -14.1804   22.7388 O   0  0  0  0  0  0  0  0  0  0  0  0
    8.1280  -11.9886   26.4174 C   0  0  0  0  0  0  0  0  0  0  0  0
    6.9854  -12.6057   25.6837 C   0  0  2  0  0  0  0  0  0  0  0  0
    5.7101  -12.1868   26.4443 C   0  0  0  0  0  0  0  0  0  0  0  0
    7.0445  -14.0776   25.5334 C   0  0  0  0  0  0  0  0  0  0  0  0
    8.1143  -14.7591   24.7994 C   0  0  2  0  0  0  0  0  0  0  0  0
    7.8554  -14.6428   23.3700 N   0  0  0  0  0  0  0  0  0  0  0  0
    8.4560  -16.1155   25.1830 C   0  0  0  0  0  0  0  0  0  0  0  0
    7.6586  -17.0477   25.4442 O   0  0  0  0  0  0  0  0  0  0  0  0
   11.3034  -18.3003   23.3932 C   0  0  0  0  0  0  0  0  0  0  0  0
   11.3955  -18.3932   24.8789 C   0  0  1  0  0  0  0  0  0  0  0  0
   12.5582  -17.5502   25.3480 C   0  0  0  0  0  0  0  0  0  0  0  0
   10.1648  -17.9122   25.6109 C   0  0  2  0  0  0  0  0  0  0  0  0
    9.8465  -16.5407   25.3075 N   0  0  0  0  0  0  0  0  0  0  0  0
   10.4287  -18.0173   27.0599 C   0  0  0  0  0  0  0  0  0  0  0  0
   10.5016  -16.8917   27.8467 O   0  0  0  0  0  0  0  0  0  0  0  0
   10.5870  -19.1418   27.5739 O   0  0  0  0  0  0  0  0  0  0  0  0
  1  2  1  0
  3  2  1  0
  4  3  1  0
  5  4  1  0
  5  1  1  0
  5  6  1  1
  6  7  2  0
  9  8  1  1
  9 11  1  0
  9 10  1  0
 12 11  1  1
 12 14  1  0
 12 13  1  0
 13  6  1  0
 14 20  1  0
 15 14  2  0
 17 16  1  6
 17 19  1  0
 18 17  1  0
 19 21  1  0
 19 20  1  1
 21 23  2  0
 21 22  1  0
M  END
$$$$
