PLV.pdb
     RDKit          3D

 23 23  0  0  1  0  0  0  0  0999 V2000
    7.0092  -14.8862   20.8156 N   0  0  0  0  0  0  0  0  0  0  0  0
    6.4091  -14.2779   19.6556 C   0  0  0  0  0  0  0  0  0  0  0  0
    7.1193  -12.9715   19.4352 C   0  0  0  0  0  0  0  0  0  0  0  0
    8.3313  -12.9758   20.3264 C   0  0  0  0  0  0  0  0  0  0  0  0
    8.3308  -14.3636   20.9107 C   0  0  1  0  0  0  0  0  0  0  0  0
    8.7277  -14.3364   22.3675 C   0  0  0  0  0  0  0  0  0  0  0  0
    9.9221  -14.0800   22.6131 O   0  0  0  0  0  0  0  0  0  0  0  0
    8.1749  -12.0176   26.4853 C   0  0  0  0  0  0  0  0  0  0  0  0
    7.0035  -12.6022   25.7708 C   0  0  2  0  0  0  0  0  0  0  0  0
    5.7597  -12.2173   26.5987 C   0  0  0  0  0  0  0  0  0  0  0  0
    7.0544  -14.0660   25.5539 C   0  0  0  0  0  0  0  0  0  0  0  0
    8.1022  -14.7160   24.7619 C   0  0  2  0  0  0  0  0  0  0  0  0
    7.7724  -14.5911   23.3480 N   0  0  0  0  0  0  0  0  0  0  0  0
    8.4914  -16.0682   25.1135 C   0  0  0  0  0  0  0  0  0  0  0  0
    7.7278  -17.0384   25.3340 O   0  0  0  0  0  0  0  0  0  0  0  0
   12.7542  -17.3912   25.3189 C   0  0  0  0  0  0  0  0  0  0  0  0
   11.5936  -18.1402   24.7562 C   0  0  1  0  0  0  0  0  0  0  0  0
   11.8398  -19.6206   24.9295 C   0  0  0  0  0  0  0  0  0  0  0  0
   10.2702  -17.8228   25.4116 C   0  0  2  0  0  0  0  0  0  0  0  0
    9.8956  -16.4413   25.2515 N   0  0  0  0  0  0  0  0  0  0  0  0
   10.4001  -18.1036   26.8554 C   0  0  0  0  0  0  0  0  0  0  0  0
   10.5087  -19.3950   27.3155 O   0  0  0  0  0  0  0  0  0  0  0  0
   10.4111  -17.1561   27.6654 O   0  0  0  0  0  0  0  0  0  0  0  0
  1  2  1  0
  3  2  1  0
  4  3  1  0
  5  4  1  0
  5  1  1  0
  5  6  1  1
  6  7  2  0
  9  8  1  1
  9 11  1  0
  9 10  1  0
 12 11  1  1
 12 14  1  0
 12 13  1  0
 13  6  1  0
 14 20  1  0
 15 14  2  0
 17 16  1  1
 17 19  1  0
 18 17  1  0
 19 21  1  0
 19 20  1  1
 21 23  2  0
 21 22  1  0
M  END
$$$$
