YIT.pdb
     RDKit          3D

 28 28  0  0  1  0  0  0  0  0999 V2000
   12.0343  -19.6710   11.5495 O   0  0  0  0  0  0  0  0  0  0  0  0
   12.0651  -19.1279   12.8155 C   0  0  0  0  0  0  0  0  0  0  0  0
   10.9437  -19.1469   13.6145 C   0  0  0  0  0  0  0  0  0  0  0  0
   10.9717  -18.6070   14.8750 C   0  0  0  0  0  0  0  0  0  0  0  0
   12.1224  -18.0380   15.3597 C   0  0  0  0  0  0  0  0  0  0  0  0
   12.0769  -17.4713   16.7446 C   0  0  0  0  0  0  0  0  0  0  0  0
   11.5309  -16.0624   16.7069 C   0  0  2  0  0  0  0  0  0  0  0  0
   12.3626  -15.2226   15.8999 N   0  0  0  0  0  0  0  0  0  0  0  0
   11.3981  -15.5752   18.0992 C   0  0  0  0  0  0  0  0  0  0  0  0
   12.3825  -15.1809   18.7693 O   0  0  0  0  0  0  0  0  0  0  0  0
   13.2476  -18.0124   14.5738 C   0  0  0  0  0  0  0  0  0  0  0  0
   13.2067  -18.5563   13.3135 C   0  0  0  0  0  0  0  0  0  0  0  0
    7.1379  -12.4638   18.9235 C   0  0  0  0  0  0  0  0  0  0  0  0
    8.4736  -13.0988   19.0072 C   0  0  0  0  0  0  0  0  0  0  0  0
    8.6958  -14.1190   20.0621 C   0  0  2  0  0  0  0  0  0  0  0  0
    8.2618  -13.6828   21.4547 C   0  0  0  0  0  0  0  0  0  0  0  0
    9.9488  -14.8847   20.0031 C   0  0  2  0  0  0  0  0  0  0  0  0
   10.1241  -15.5468   18.7096 N   0  0  0  0  0  0  0  0  0  0  0  0
   10.0255  -15.9487   21.0138 C   0  0  0  0  0  0  0  0  0  0  0  0
    9.4821  -17.0697   20.8634 O   0  0  0  0  0  0  0  0  0  0  0  0
   12.0794  -18.3137   21.5973 C   0  0  0  0  0  0  0  0  0  0  0  0
   12.0997  -17.6760   22.9665 C   0  0  1  0  0  0  0  0  0  0  0  0
   13.2253  -16.8623   23.0662 O   0  0  0  0  0  0  0  0  0  0  0  0
   10.8232  -16.8514   23.1821 C   0  0  2  0  0  0  0  0  0  0  0  0
   10.7259  -15.7861   22.2460 N   0  0  0  0  0  0  0  0  0  0  0  0
   10.8040  -16.3607   24.5848 C   0  0  0  0  0  0  0  0  0  0  0  0
   10.6644  -17.2942   25.5950 O   0  0  0  0  0  0  0  0  0  0  0  0
   10.9142  -15.1247   24.8083 O   0  0  0  0  0  0  0  0  0  0  0  0
  2  1  1  0
  3  2  2  0
  4  3  1  0
  5 11  1  0
  5  4  2  0
  6  5  1  0
  7  6  1  0
  7  8  1  6
  9 10  2  0
  9  7  1  0
 11 12  2  0
 12  2  1  0
 14 13  1  0
 15 14  1  0
 15 16  1  1
 17 18  1  6
 17 15  1  0
 18  9  1  0
 19 17  1  0
 20 19  2  0
 22 23  1  0
 22 24  1  0
 22 21  1  6
 24 25  1  6
 25 19  1  0
 26 24  1  0
 26 27  1  0
 28 26  2  0
M  END
$$$$
