YIT.pdb
     RDKit          3D

 28 28  0  0  1  0  0  0  0  0999 V2000
   11.7139  -17.1717   32.8167 O   0  0  0  0  0  0  0  0  0  0  0  0
   11.2944  -17.1760   31.5042 C   0  0  0  0  0  0  0  0  0  0  0  0
   10.8681  -16.0142   30.9002 C   0  0  0  0  0  0  0  0  0  0  0  0
   10.4500  -16.0159   29.5939 C   0  0  0  0  0  0  0  0  0  0  0  0
   10.4507  -17.1800   28.8675 C   0  0  0  0  0  0  0  0  0  0  0  0
    9.9827  -17.1029   27.4476 C   0  0  0  0  0  0  0  0  0  0  0  0
    8.4763  -17.2148   27.3950 C   0  0  2  0  0  0  0  0  0  0  0  0
    8.0655  -18.5697   27.6038 N   0  0  0  0  0  0  0  0  0  0  0  0
    8.0116  -16.6645   26.1009 C   0  0  0  0  0  0  0  0  0  0  0  0
    7.4315  -17.3698   25.2409 O   0  0  0  0  0  0  0  0  0  0  0  0
   10.8733  -18.3452   29.4574 C   0  0  0  0  0  0  0  0  0  0  0  0
   11.2894  -18.3305   30.7660 C   0  0  0  0  0  0  0  0  0  0  0  0
    6.2860  -11.8394   26.6126 C   0  0  0  0  0  0  0  0  0  0  0  0
    6.2170  -13.1172   25.8665 C   0  0  0  0  0  0  0  0  0  0  0  0
    7.2030  -13.3450   24.7807 C   0  0  2  0  0  0  0  0  0  0  0  0
    6.9244  -12.5571   23.5081 C   0  0  0  0  0  0  0  0  0  0  0  0
    7.6745  -14.7222   24.5791 C   0  0  2  0  0  0  0  0  0  0  0  0
    8.2211  -15.2981   25.8087 N   0  0  0  0  0  0  0  0  0  0  0  0
    8.7427  -14.8277   23.5754 C   0  0  0  0  0  0  0  0  0  0  0  0
    9.9594  -14.7237   23.8641 O   0  0  0  0  0  0  0  0  0  0  0  0
   10.5653  -16.8316   23.1505 C   0  0  0  0  0  0  0  0  0  0  0  0
   10.0158  -16.9019   21.7452 C   0  0  1  0  0  0  0  0  0  0  0  0
    8.9908  -17.8438   21.7105 O   0  0  0  0  0  0  0  0  0  0  0  0
    9.4911  -15.5248   21.3158 C   0  0  2  0  0  0  0  0  0  0  0  0
    8.4753  -15.0568   22.1930 N   0  0  0  0  0  0  0  0  0  0  0  0
    9.0136  -15.6137   19.9113 C   0  0  0  0  0  0  0  0  0  0  0  0
    7.6488  -15.6073   19.6902 O   0  0  0  0  0  0  0  0  0  0  0  0
    9.8560  -15.6910   18.9763 O   0  0  0  0  0  0  0  0  0  0  0  0
  2  1  1  0
  3  2  2  0
  4  3  1  0
  5 11  1  0
  5  4  2  0
  6  5  1  0
  7  6  1  0
  7  8  1  6
  9 10  2  0
  9  7  1  0
 11 12  2  0
 12  2  1  0
 14 13  1  0
 15 14  1  0
 15 16  1  6
 17 18  1  1
 17 15  1  0
 18  9  1  0
 19 17  1  0
 20 19  2  0
 22 23  1  0
 22 24  1  0
 22 21  1  1
 24 25  1  1
 25 19  1  0
 26 24  1  0
 26 27  1  0
 28 26  2  0
M  END
$$$$
