YIT.pdb
     RDKit          3D

 28 28  0  0  1  0  0  0  0  0999 V2000
    3.7596  -24.3341   25.3234 O   0  0  0  0  0  0  0  0  0  0  0  0
    4.5141  -23.1964   25.1364 C   0  0  0  0  0  0  0  0  0  0  0  0
    4.0973  -21.9868   25.6458 C   0  0  0  0  0  0  0  0  0  0  0  0
    4.8465  -20.8528   25.4610 C   0  0  0  0  0  0  0  0  0  0  0  0
    6.0267  -20.9080   24.7632 C   0  0  0  0  0  0  0  0  0  0  0  0
    6.7902  -19.6301   24.6043 C   0  0  0  0  0  0  0  0  0  0  0  0
    5.8786  -18.5483   24.0720 C   0  0  2  0  0  0  0  0  0  0  0  0
    5.2329  -18.9816   22.8706 N   0  0  0  0  0  0  0  0  0  0  0  0
    6.6768  -17.3149   23.8847 C   0  0  0  0  0  0  0  0  0  0  0  0
    7.1917  -17.0093   22.7825 O   0  0  0  0  0  0  0  0  0  0  0  0
    6.4538  -22.1074   24.2501 C   0  0  0  0  0  0  0  0  0  0  0  0
    5.6947  -23.2357   24.4419 C   0  0  0  0  0  0  0  0  0  0  0  0
    5.5426  -12.9919   26.9799 C   0  0  0  0  0  0  0  0  0  0  0  0
    6.0819  -13.6169   25.7499 C   0  0  0  0  0  0  0  0  0  0  0  0
    7.4333  -14.2272   25.8126 C   0  0  2  0  0  0  0  0  0  0  0  0
    8.5547  -13.2353   26.0895 C   0  0  0  0  0  0  0  0  0  0  0  0
    7.7451  -15.2725   24.8279 C   0  0  2  0  0  0  0  0  0  0  0  0
    6.8750  -16.4401   24.9764 N   0  0  0  0  0  0  0  0  0  0  0  0
    9.1204  -15.7787   24.9361 C   0  0  0  0  0  0  0  0  0  0  0  0
    9.5237  -16.4465   25.9189 O   0  0  0  0  0  0  0  0  0  0  0  0
   13.1485  -17.1854   22.4489 C   0  0  0  0  0  0  0  0  0  0  0  0
   11.8694  -16.3818   22.4573 C   0  0  1  0  0  0  0  0  0  0  0  0
   10.9541  -16.9859   21.5993 O   0  0  0  0  0  0  0  0  0  0  0  0
   11.3013  -16.3117   23.8815 C   0  0  2  0  0  0  0  0  0  0  0  0
   10.1035  -15.5478   23.9284 N   0  0  0  0  0  0  0  0  0  0  0  0
   12.3457  -15.7617   24.7846 C   0  0  0  0  0  0  0  0  0  0  0  0
   13.1361  -16.6573   25.4808 O   0  0  0  0  0  0  0  0  0  0  0  0
   12.4776  -14.5120   24.8872 O   0  0  0  0  0  0  0  0  0  0  0  0
  2  1  1  0
  3  2  2  0
  4  3  1  0
  5 11  1  0
  5  4  2  0
  6  5  1  0
  7  6  1  0
  7  8  1  6
  9 10  2  0
  9  7  1  0
 11 12  2  0
 12  2  1  0
 14 13  1  0
 15 14  1  0
 15 16  1  6
 17 18  1  1
 17 15  1  0
 18  9  1  0
 19 17  1  0
 20 19  2  0
 22 23  1  0
 22 24  1  0
 22 21  1  1
 24 25  1  6
 25 19  1  0
 26 24  1  0
 26 27  1  0
 28 26  2  0
M  END
$$$$
