YIT.pdb
     RDKit          3D

 28 28  0  0  1  0  0  0  0  0999 V2000
    6.9736  -13.7738   15.7826 O   0  0  0  0  0  0  0  0  0  0  0  0
    7.6037  -13.9367   16.9971 C   0  0  0  0  0  0  0  0  0  0  0  0
    7.5604  -12.9423   17.9488 C   0  0  0  0  0  0  0  0  0  0  0  0
    8.1868  -13.1020   19.1585 C   0  0  0  0  0  0  0  0  0  0  0  0
    8.8683  -14.2595   19.4385 C   0  0  0  0  0  0  0  0  0  0  0  0
    9.5248  -14.3617   20.7801 C   0  0  0  0  0  0  0  0  0  0  0  0
    8.7624  -15.3310   21.6541 C   0  0  2  0  0  0  0  0  0  0  0  0
    7.3549  -15.2167   21.4219 N   0  0  0  0  0  0  0  0  0  0  0  0
    9.1358  -15.0811   23.0654 C   0  0  0  0  0  0  0  0  0  0  0  0
   10.3267  -14.9255   23.4273 O   0  0  0  0  0  0  0  0  0  0  0  0
    8.9194  -15.2588   18.4988 C   0  0  0  0  0  0  0  0  0  0  0  0
    8.2882  -15.0868   17.2914 C   0  0  0  0  0  0  0  0  0  0  0  0
    6.0718  -11.7556   25.8157 C   0  0  0  0  0  0  0  0  0  0  0  0
    7.1206  -12.6408   25.2582 C   0  0  0  0  0  0  0  0  0  0  0  0
    7.5698  -13.7927   26.0793 C   0  0  2  0  0  0  0  0  0  0  0  0
    7.8879  -13.4425   27.5264 C   0  0  0  0  0  0  0  0  0  0  0  0
    8.4859  -14.7521   25.4468 C   0  0  2  0  0  0  0  0  0  0  0  0
    8.1268  -15.0125   24.0520 N   0  0  0  0  0  0  0  0  0  0  0  0
    8.5003  -16.0631   26.1105 C   0  0  0  0  0  0  0  0  0  0  0  0
    7.4576  -16.6316   26.5156 O   0  0  0  0  0  0  0  0  0  0  0  0
    9.4449  -19.3994   24.9222 C   0  0  0  0  0  0  0  0  0  0  0  0
   10.3078  -19.1506   26.1368 C   0  0  1  0  0  0  0  0  0  0  0  0
   11.5807  -18.7762   25.7142 O   0  0  0  0  0  0  0  0  0  0  0  0
    9.6874  -18.0483   27.0063 C   0  0  2  0  0  0  0  0  0  0  0  0
    9.7052  -16.7902   26.3449 N   0  0  0  0  0  0  0  0  0  0  0  0
   10.4091  -18.0027   28.3046 C   0  0  0  0  0  0  0  0  0  0  0  0
   10.2871  -19.0889   29.1513 O   0  0  0  0  0  0  0  0  0  0  0  0
   11.1016  -16.9887   28.5910 O   0  0  0  0  0  0  0  0  0  0  0  0
  2  1  1  0
  3  2  2  0
  4  3  1  0
  5 11  1  0
  5  4  2  0
  6  5  1  0
  7  6  1  0
  7  8  1  1
  9 10  2  0
  9  7  1  0
 11 12  2  0
 12  2  1  0
 14 13  1  0
 15 14  1  0
 15 16  1  1
 17 18  1  6
 17 15  1  0
 18  9  1  0
 19 17  1  0
 20 19  2  0
 22 23  1  0
 22 24  1  0
 22 21  1  6
 24 25  1  6
 25 19  1  0
 26 24  1  0
 26 27  1  0
 28 26  2  0
M  END
$$$$
