YIT.pdb
     RDKit          3D

 28 28  0  0  1  0  0  0  0  0999 V2000
    5.1268  -10.5635   28.4319 O   0  0  0  0  0  0  0  0  0  0  0  0
    5.7758  -11.5502   27.7221 C   0  0  0  0  0  0  0  0  0  0  0  0
    6.9745  -12.0615   28.1671 C   0  0  0  0  0  0  0  0  0  0  0  0
    7.6225  -13.0437   27.4624 C   0  0  0  0  0  0  0  0  0  0  0  0
    7.0833  -13.5326   26.2992 C   0  0  0  0  0  0  0  0  0  0  0  0
    7.8471  -14.6050   25.5866 C   0  0  0  0  0  0  0  0  0  0  0  0
    6.8931  -15.5010   24.8305 C   0  0  2  0  0  0  0  0  0  0  0  0
    6.3657  -16.5144   25.6924 N   0  0  0  0  0  0  0  0  0  0  0  0
    7.6047  -16.0561   23.6562 C   0  0  0  0  0  0  0  0  0  0  0  0
    7.7516  -17.2895   23.4815 O   0  0  0  0  0  0  0  0  0  0  0  0
    5.8890  -13.0318   25.8443 C   0  0  0  0  0  0  0  0  0  0  0  0
    5.2499  -12.0485   26.5589 C   0  0  0  0  0  0  0  0  0  0  0  0
    7.5851  -12.5086   19.6766 C   0  0  0  0  0  0  0  0  0  0  0  0
    7.4353  -13.8637   20.2559 C   0  0  0  0  0  0  0  0  0  0  0  0
    8.6454  -14.7172   20.3554 C   0  0  2  0  0  0  0  0  0  0  0  0
    9.1890  -15.1898   19.0141 C   0  0  0  0  0  0  0  0  0  0  0  0
    8.6781  -15.7135   21.4353 C   0  0  2  0  0  0  0  0  0  0  0  0
    8.1433  -15.1788   22.6884 N   0  0  0  0  0  0  0  0  0  0  0  0
   10.0341  -16.1871   21.7456 C   0  0  0  0  0  0  0  0  0  0  0  0
   10.9419  -15.4261   22.1595 O   0  0  0  0  0  0  0  0  0  0  0  0
   11.0920  -19.3987   23.8828 C   0  0  0  0  0  0  0  0  0  0  0  0
   11.7311  -19.4030   22.5141 C   0  0  1  0  0  0  0  0  0  0  0  0
   11.0159  -20.2655   21.6874 O   0  0  0  0  0  0  0  0  0  0  0  0
   11.7346  -17.9834   21.9305 C   0  0  2  0  0  0  0  0  0  0  0  0
   10.4214  -17.5523   21.5989 N   0  0  0  0  0  0  0  0  0  0  0  0
   12.6417  -17.9543   20.7536 C   0  0  0  0  0  0  0  0  0  0  0  0
   12.0703  -17.8562   19.4984 O   0  0  0  0  0  0  0  0  0  0  0  0
   13.8881  -18.0191   20.9328 O   0  0  0  0  0  0  0  0  0  0  0  0
  2  1  1  0
  3  2  2  0
  4  3  1  0
  5 11  1  0
  5  4  2  0
  6  5  1  0
  7  6  1  0
  7  8  1  1
  9 10  2  0
  9  7  1  0
 11 12  2  0
 12  2  1  0
 14 13  1  0
 15 14  1  0
 15 16  1  6
 17 18  1  1
 17 15  1  0
 18  9  1  0
 19 17  1  0
 20 19  2  0
 22 23  1  0
 22 24  1  0
 22 21  1  1
 24 25  1  6
 25 19  1  0
 26 24  1  0
 26 27  1  0
 28 26  2  0
M  END
$$$$
