YIT.pdb
     RDKit          3D

 28 28  0  0  1  0  0  0  0  0999 V2000
   12.1071  -16.5818   31.7183 O   0  0  0  0  0  0  0  0  0  0  0  0
   11.5185  -16.9495   30.5279 C   0  0  0  0  0  0  0  0  0  0  0  0
   11.2791  -16.0146   29.5455 C   0  0  0  0  0  0  0  0  0  0  0  0
   10.6934  -16.3780   28.3598 C   0  0  0  0  0  0  0  0  0  0  0  0
   10.3362  -17.6836   28.1348 C   0  0  0  0  0  0  0  0  0  0  0  0
    9.7037  -18.0043   26.8163 C   0  0  0  0  0  0  0  0  0  0  0  0
    8.1985  -18.0075   26.9544 C   0  0  2  0  0  0  0  0  0  0  0  0
    7.6916  -19.3446   26.8974 N   0  0  0  0  0  0  0  0  0  0  0  0
    7.6310  -17.1307   25.9043 C   0  0  0  0  0  0  0  0  0  0  0  0
    7.1266  -17.5860   24.8498 O   0  0  0  0  0  0  0  0  0  0  0  0
   10.5691  -18.6257   29.1056 C   0  0  0  0  0  0  0  0  0  0  0  0
   11.1563  -18.2492   30.2886 C   0  0  0  0  0  0  0  0  0  0  0  0
    5.9926  -11.1666   25.0350 C   0  0  0  0  0  0  0  0  0  0  0  0
    6.3390  -12.5178   24.5364 C   0  0  0  0  0  0  0  0  0  0  0  0
    6.9476  -13.4784   25.4902 C   0  0  2  0  0  0  0  0  0  0  0  0
    8.0733  -12.8944   26.3325 C   0  0  0  0  0  0  0  0  0  0  0  0
    7.1632  -14.8521   25.0149 C   0  0  2  0  0  0  0  0  0  0  0  0
    7.6503  -15.7290   26.0807 N   0  0  0  0  0  0  0  0  0  0  0  0
    8.1551  -14.9422   23.9343 C   0  0  0  0  0  0  0  0  0  0  0  0
    9.3903  -14.9967   24.1482 O   0  0  0  0  0  0  0  0  0  0  0  0
    9.4186  -16.9749   19.8236 C   0  0  0  0  0  0  0  0  0  0  0  0
    8.4528  -16.6934   20.9505 C   0  0  1  0  0  0  0  0  0  0  0  0
    8.5961  -17.6807   21.9219 O   0  0  0  0  0  0  0  0  0  0  0  0
    8.7333  -15.3086   21.5503 C   0  0  2  0  0  0  0  0  0  0  0  0
    7.7866  -14.9744   22.5565 N   0  0  0  0  0  0  0  0  0  0  0  0
    8.7513  -14.3082   20.4514 C   0  0  0  0  0  0  0  0  0  0  0  0
    9.9520  -14.0779   19.8056 O   0  0  0  0  0  0  0  0  0  0  0  0
    7.6857  -13.7077   20.1454 O   0  0  0  0  0  0  0  0  0  0  0  0
  2  1  1  0
  3  2  2  0
  4  3  1  0
  5 11  1  0
  5  4  2  0
  6  5  1  0
  7  6  1  0
  7  8  1  6
  9 10  2  0
  9  7  1  0
 11 12  2  0
 12  2  1  0
 14 13  1  0
 15 14  1  0
 15 16  1  6
 17 18  1  1
 17 15  1  0
 18  9  1  0
 19 17  1  0
 20 19  2  0
 22 23  1  0
 22 24  1  0
 22 21  1  6
 24 25  1  1
 25 19  1  0
 26 24  1  0
 26 27  1  0
 28 26  2  0
M  END
$$$$
