YIT.pdb
     RDKit          3D

 28 28  0  0  1  0  0  0  0  0999 V2000
    5.9450  -19.1359   16.8167 O   0  0  0  0  0  0  0  0  0  0  0  0
    6.5139  -18.6805   17.9862 C   0  0  0  0  0  0  0  0  0  0  0  0
    7.8406  -18.3136   18.0245 C   0  0  0  0  0  0  0  0  0  0  0  0
    8.4091  -17.8600   19.1873 C   0  0  0  0  0  0  0  0  0  0  0  0
    7.6609  -17.7651   20.3335 C   0  0  0  0  0  0  0  0  0  0  0  0
    8.3499  -17.2597   21.5628 C   0  0  0  0  0  0  0  0  0  0  0  0
    8.2102  -15.7572   21.6507 C   0  0  2  0  0  0  0  0  0  0  0  0
    8.7641  -15.1323   20.4884 N   0  0  0  0  0  0  0  0  0  0  0  0
    8.8459  -15.3015   22.9083 C   0  0  0  0  0  0  0  0  0  0  0  0
   10.0736  -15.0573   22.9900 O   0  0  0  0  0  0  0  0  0  0  0  0
    6.3371  -18.1275   20.3093 C   0  0  0  0  0  0  0  0  0  0  0  0
    5.7795  -18.5802   19.1388 C   0  0  0  0  0  0  0  0  0  0  0  0
    5.9621  -12.0262   25.9281 C   0  0  0  0  0  0  0  0  0  0  0  0
    7.1648  -12.6601   25.3399 C   0  0  0  0  0  0  0  0  0  0  0  0
    7.7892  -13.7878   26.0755 C   0  0  2  0  0  0  0  0  0  0  0  0
    8.2685  -13.4313   27.4759 C   0  0  0  0  0  0  0  0  0  0  0  0
    8.6754  -14.6787   25.3136 C   0  0  2  0  0  0  0  0  0  0  0  0
    8.0555  -15.1304   24.0670 N   0  0  0  0  0  0  0  0  0  0  0  0
    9.0403  -15.8987   26.0471 C   0  0  0  0  0  0  0  0  0  0  0  0
    8.1957  -16.7546   26.4056 O   0  0  0  0  0  0  0  0  0  0  0  0
   12.3439  -19.3822   26.8516 C   0  0  0  0  0  0  0  0  0  0  0  0
   11.9747  -18.0532   26.2358 C   0  0  1  0  0  0  0  0  0  0  0  0
   11.7213  -18.2416   24.8796 O   0  0  0  0  0  0  0  0  0  0  0  0
   10.7371  -17.4746   26.9355 C   0  0  2  0  0  0  0  0  0  0  0  0
   10.3867  -16.2021   26.4079 N   0  0  0  0  0  0  0  0  0  0  0  0
   11.0000  -17.4159   28.3971 C   0  0  0  0  0  0  0  0  0  0  0  0
   11.0818  -18.6105   29.0883 O   0  0  0  0  0  0  0  0  0  0  0  0
   11.1386  -16.2938   28.9551 O   0  0  0  0  0  0  0  0  0  0  0  0
  2  1  1  0
  3  2  2  0
  4  3  1  0
  5 11  1  0
  5  4  2  0
  6  5  1  0
  7  6  1  0
  7  8  1  6
  9 10  2  0
  9  7  1  0
 11 12  2  0
 12  2  1  0
 14 13  1  0
 15 14  1  0
 15 16  1  1
 17 18  1  6
 17 15  1  0
 18  9  1  0
 19 17  1  0
 20 19  2  0
 22 23  1  0
 22 24  1  0
 22 21  1  1
 24 25  1  6
 25 19  1  0
 26 24  1  0
 26 27  1  0
 28 26  2  0
M  END
$$$$
