YIT.pdb
     RDKit          3D

 28 28  0  0  1  0  0  0  0  0999 V2000
    3.3364  -21.7880   20.3596 O   0  0  0  0  0  0  0  0  0  0  0  0
    4.2426  -20.9666   20.9941 C   0  0  0  0  0  0  0  0  0  0  0  0
    5.5830  -21.0300   20.6852 C   0  0  0  0  0  0  0  0  0  0  0  0
    6.4871  -20.2135   21.3153 C   0  0  0  0  0  0  0  0  0  0  0  0
    6.0669  -19.3182   22.2665 C   0  0  0  0  0  0  0  0  0  0  0  0
    7.1112  -18.4593   22.9092 C   0  0  0  0  0  0  0  0  0  0  0  0
    7.0070  -17.0445   22.3876 C   0  0  2  0  0  0  0  0  0  0  0  0
    7.3434  -16.9955   20.9974 N   0  0  0  0  0  0  0  0  0  0  0  0
    7.8693  -16.1747   23.2203 C   0  0  0  0  0  0  0  0  0  0  0  0
    9.0826  -15.9875   22.9625 O   0  0  0  0  0  0  0  0  0  0  0  0
    4.7335  -19.2445   22.5840 C   0  0  0  0  0  0  0  0  0  0  0  0
    3.8381  -20.0675   21.9460 C   0  0  0  0  0  0  0  0  0  0  0  0
    7.4627  -11.7685   27.6031 C   0  0  0  0  0  0  0  0  0  0  0  0
    8.2000  -12.8273   26.8754 C   0  0  0  0  0  0  0  0  0  0  0  0
    7.4399  -13.6824   25.9298 C   0  0  2  0  0  0  0  0  0  0  0  0
    6.0545  -14.0788   26.4210 C   0  0  0  0  0  0  0  0  0  0  0  0
    8.1859  -14.7367   25.2288 C   0  0  2  0  0  0  0  0  0  0  0  0
    7.3215  -15.5249   24.3490 N   0  0  0  0  0  0  0  0  0  0  0  0
    8.8203  -15.7004   26.1389 C   0  0  0  0  0  0  0  0  0  0  0  0
    8.1640  -16.5175   26.8289 O   0  0  0  0  0  0  0  0  0  0  0  0
   11.4293  -18.1509   25.1418 C   0  0  0  0  0  0  0  0  0  0  0  0
   11.9546  -17.5144   26.4069 C   0  0  1  0  0  0  0  0  0  0  0  0
   12.9761  -16.6288   26.0733 O   0  0  0  0  0  0  0  0  0  0  0  0
   10.8223  -16.7752   27.1334 C   0  0  2  0  0  0  0  0  0  0  0  0
   10.2348  -15.7792   26.3068 N   0  0  0  0  0  0  0  0  0  0  0  0
   11.3598  -16.2027   28.3952 C   0  0  0  0  0  0  0  0  0  0  0  0
   11.8089  -17.0805   29.3644 O   0  0  0  0  0  0  0  0  0  0  0  0
   11.3896  -14.9507   28.5418 O   0  0  0  0  0  0  0  0  0  0  0  0
  2  1  1  0
  3  2  2  0
  4  3  1  0
  5 11  1  0
  5  4  2  0
  6  5  1  0
  7  6  1  0
  7  8  1  6
  9 10  2  0
  9  7  1  0
 11 12  2  0
 12  2  1  0
 14 13  1  0
 15 14  1  0
 15 16  1  1
 17 18  1  6
 17 15  1  0
 18  9  1  0
 19 17  1  0
 20 19  2  0
 22 23  1  0
 22 24  1  0
 22 21  1  6
 24 25  1  6
 25 19  1  0
 26 24  1  0
 26 27  1  0
 28 26  2  0
M  END
$$$$
