YIT.pdb
     RDKit          3D

 28 28  0  0  1  0  0  0  0  0999 V2000
    5.8540  -19.3804   16.7424 O   0  0  0  0  0  0  0  0  0  0  0  0
    6.4398  -18.9195   17.9013 C   0  0  0  0  0  0  0  0  0  0  0  0
    5.6658  -18.4703   18.9479 C   0  0  0  0  0  0  0  0  0  0  0  0
    6.2464  -18.0109   20.1025 C   0  0  0  0  0  0  0  0  0  0  0  0
    7.6123  -17.9926   20.2314 C   0  0  0  0  0  0  0  0  0  0  0  0
    8.1728  -17.4794   21.5213 C   0  0  0  0  0  0  0  0  0  0  0  0
    8.5701  -16.0290   21.3695 C   0  0  2  0  0  0  0  0  0  0  0  0
    9.5748  -15.8863   20.3603 N   0  0  0  0  0  0  0  0  0  0  0  0
    9.0052  -15.5227   22.6915 C   0  0  0  0  0  0  0  0  0  0  0  0
   10.2019  -15.5635   23.0655 O   0  0  0  0  0  0  0  0  0  0  0  0
    8.3958  -18.4376   19.1959 C   0  0  0  0  0  0  0  0  0  0  0  0
    7.8024  -18.8951   18.0450 C   0  0  0  0  0  0  0  0  0  0  0  0
    7.0972  -11.6348   27.1332 C   0  0  0  0  0  0  0  0  0  0  0  0
    7.9466  -12.7500   26.6546 C   0  0  0  0  0  0  0  0  0  0  0  0
    7.5789  -13.4076   25.3758 C   0  0  2  0  0  0  0  0  0  0  0  0
    6.0903  -13.6871   25.2222 C   0  0  0  0  0  0  0  0  0  0  0  0
    8.4731  -14.4641   24.8820 C   0  0  2  0  0  0  0  0  0  0  0  0
    8.0510  -14.9706   23.5753 N   0  0  0  0  0  0  0  0  0  0  0  0
    8.5311  -15.6349   25.7682 C   0  0  0  0  0  0  0  0  0  0  0  0
    7.5153  -16.3020   26.0807 O   0  0  0  0  0  0  0  0  0  0  0  0
   10.0042  -18.7601   25.1145 C   0  0  0  0  0  0  0  0  0  0  0  0
   10.6244  -18.3838   26.4395 C   0  0  1  0  0  0  0  0  0  0  0  0
   11.9227  -17.9330   26.2155 O   0  0  0  0  0  0  0  0  0  0  0  0
    9.7889  -17.2909   27.1202 C   0  0  2  0  0  0  0  0  0  0  0  0
    9.7509  -16.1022   26.3417 N   0  0  0  0  0  0  0  0  0  0  0  0
   10.3397  -17.0468   28.4788 C   0  0  0  0  0  0  0  0  0  0  0  0
   10.3004  -18.0864   29.3894 O   0  0  0  0  0  0  0  0  0  0  0  0
   10.8198  -15.9144   28.7563 O   0  0  0  0  0  0  0  0  0  0  0  0
  2  1  1  0
  3  2  2  0
  4  3  1  0
  5 11  1  0
  5  4  2  0
  6  5  1  0
  7  6  1  0
  7  8  1  6
  9 10  2  0
  9  7  1  0
 11 12  2  0
 12  2  1  0
 14 13  1  0
 15 14  1  0
 15 16  1  1
 17 18  1  6
 17 15  1  0
 18  9  1  0
 19 17  1  0
 20 19  2  0
 22 23  1  0
 22 24  1  0
 22 21  1  6
 24 25  1  6
 25 19  1  0
 26 24  1  0
 26 27  1  0
 28 26  2  0
M  END
$$$$
