YIT.pdb
     RDKit          3D

 28 28  0  0  1  0  0  0  0  0999 V2000
    5.7108  -19.7676   16.9417 O   0  0  0  0  0  0  0  0  0  0  0  0
    6.2710  -19.2086   18.0696 C   0  0  0  0  0  0  0  0  0  0  0  0
    7.5814  -19.4677   18.4042 C   0  0  0  0  0  0  0  0  0  0  0  0
    8.1413  -18.9126   19.5264 C   0  0  0  0  0  0  0  0  0  0  0  0
    7.4006  -18.0878   20.3349 C   0  0  0  0  0  0  0  0  0  0  0  0
    8.0805  -17.5177   21.5408 C   0  0  0  0  0  0  0  0  0  0  0  0
    8.2628  -16.0268   21.3726 C   0  0  2  0  0  0  0  0  0  0  0  0
    9.1030  -15.7469   20.2484 N   0  0  0  0  0  0  0  0  0  0  0  0
    8.7936  -15.4748   22.6404 C   0  0  0  0  0  0  0  0  0  0  0  0
   10.0145  -15.5051   22.9267 O   0  0  0  0  0  0  0  0  0  0  0  0
    6.0931  -17.8210   20.0131 C   0  0  0  0  0  0  0  0  0  0  0  0
    5.5440  -18.3830   18.8868 C   0  0  0  0  0  0  0  0  0  0  0  0
    6.9960  -11.7736   27.3372 C   0  0  0  0  0  0  0  0  0  0  0  0
    7.9132  -12.7562   26.7146 C   0  0  0  0  0  0  0  0  0  0  0  0
    7.4898  -13.3989   25.4456 C   0  0  2  0  0  0  0  0  0  0  0  0
    6.0211  -13.7983   25.4071 C   0  0  0  0  0  0  0  0  0  0  0  0
    8.4204  -14.3585   24.8350 C   0  0  2  0  0  0  0  0  0  0  0  0
    7.9066  -14.8897   23.5716 N   0  0  0  0  0  0  0  0  0  0  0  0
    8.6871  -15.5275   25.6846 C   0  0  0  0  0  0  0  0  0  0  0  0
    7.8331  -16.4216   25.8983 O   0  0  0  0  0  0  0  0  0  0  0  0
   11.7998  -18.8632   27.2789 C   0  0  0  0  0  0  0  0  0  0  0  0
   11.5269  -17.5855   26.5208 C   0  0  1  0  0  0  0  0  0  0  0  0
   11.4350  -17.8800   25.1629 O   0  0  0  0  0  0  0  0  0  0  0  0
   10.2232  -16.9463   27.0187 C   0  0  2  0  0  0  0  0  0  0  0  0
    9.9413  -15.7338   26.3324 N   0  0  0  0  0  0  0  0  0  0  0  0
   10.3232  -16.7421   28.4873 C   0  0  0  0  0  0  0  0  0  0  0  0
   10.4319  -15.4453   28.9544 O   0  0  0  0  0  0  0  0  0  0  0  0
   10.3062  -17.7439   29.2527 O   0  0  0  0  0  0  0  0  0  0  0  0
  2  1  1  0
  3  2  2  0
  4  3  1  0
  5 11  1  0
  5  4  2  0
  6  5  1  0
  7  6  1  0
  7  8  1  6
  9 10  2  0
  9  7  1  0
 11 12  2  0
 12  2  1  0
 14 13  1  0
 15 14  1  0
 15 16  1  1
 17 18  1  6
 17 15  1  0
 18  9  1  0
 19 17  1  0
 20 19  2  0
 22 23  1  0
 22 24  1  0
 22 21  1  1
 24 25  1  6
 25 19  1  0
 26 24  1  0
 26 27  1  0
 28 26  2  0
M  END
$$$$
