YIT.pdb
     RDKit          3D

 28 28  0  0  1  0  0  0  0  0999 V2000
   11.1883  -14.8810   30.8256 O   0  0  0  0  0  0  0  0  0  0  0  0
   10.3760  -14.9877   29.7178 C   0  0  0  0  0  0  0  0  0  0  0  0
   10.0638  -13.8762   28.9672 C   0  0  0  0  0  0  0  0  0  0  0  0
    9.2554  -13.9797   27.8640 C   0  0  0  0  0  0  0  0  0  0  0  0
    8.7444  -15.1974   27.4912 C   0  0  0  0  0  0  0  0  0  0  0  0
    7.8719  -15.2320   26.2751 C   0  0  0  0  0  0  0  0  0  0  0  0
    8.5482  -16.0220   25.1783 C   0  0  2  0  0  0  0  0  0  0  0  0
    9.9171  -15.6264   25.0451 N   0  0  0  0  0  0  0  0  0  0  0  0
    7.7730  -15.8451   23.9288 C   0  0  0  0  0  0  0  0  0  0  0  0
    6.5364  -16.0476   23.8715 O   0  0  0  0  0  0  0  0  0  0  0  0
    9.0477  -16.3134   28.2305 C   0  0  0  0  0  0  0  0  0  0  0  0
    9.8582  -16.1967   29.3330 C   0  0  0  0  0  0  0  0  0  0  0  0
    7.4402  -12.2717   19.0451 C   0  0  0  0  0  0  0  0  0  0  0  0
    7.1631  -13.5749   19.6924 C   0  0  0  0  0  0  0  0  0  0  0  0
    7.9483  -13.9352   20.8992 C   0  0  2  0  0  0  0  0  0  0  0  0
    9.4176  -13.5427   20.8289 C   0  0  0  0  0  0  0  0  0  0  0  0
    7.6734  -15.2410   21.5148 C   0  0  2  0  0  0  0  0  0  0  0  0
    8.4346  -15.4339   22.7500 N   0  0  0  0  0  0  0  0  0  0  0  0
    8.0198  -16.3751   20.6469 C   0  0  0  0  0  0  0  0  0  0  0  0
    7.2166  -16.8668   19.8177 O   0  0  0  0  0  0  0  0  0  0  0  0
    9.6268  -16.7949   17.6872 C   0  0  0  0  0  0  0  0  0  0  0  0
   10.4588  -17.6378   18.6248 C   0  0  1  0  0  0  0  0  0  0  0  0
   11.5457  -16.8846   19.0609 O   0  0  0  0  0  0  0  0  0  0  0  0
    9.6085  -18.0909   19.8197 C   0  0  2  0  0  0  0  0  0  0  0  0
    9.2997  -17.0042   20.6823 N   0  0  0  0  0  0  0  0  0  0  0  0
   10.3293  -19.1776   20.5326 C   0  0  0  0  0  0  0  0  0  0  0  0
   10.6440  -20.3206   19.8212 O   0  0  0  0  0  0  0  0  0  0  0  0
   10.6281  -19.0265   21.7482 O   0  0  0  0  0  0  0  0  0  0  0  0
  2  1  1  0
  3  2  2  0
  4  3  1  0
  5 11  1  0
  5  4  2  0
  6  5  1  0
  7  6  1  0
  7  8  1  6
  9 10  2  0
  9  7  1  0
 11 12  2  0
 12  2  1  0
 14 13  1  0
 15 14  1  0
 15 16  1  6
 17 18  1  1
 17 15  1  0
 18  9  1  0
 19 17  1  0
 20 19  2  0
 22 23  1  0
 22 24  1  0
 22 21  1  6
 24 25  1  1
 25 19  1  0
 26 24  1  0
 26 27  1  0
 28 26  2  0
M  END
$$$$
