YIT.pdb
     RDKit          3D

 28 28  0  0  1  0  0  0  0  0999 V2000
   11.1266  -19.5991   31.7903 O   0  0  0  0  0  0  0  0  0  0  0  0
   10.5993  -19.3960   30.5336 C   0  0  0  0  0  0  0  0  0  0  0  0
   10.5021  -18.1258   30.0105 C   0  0  0  0  0  0  0  0  0  0  0  0
    9.9775  -17.9210   28.7599 C   0  0  0  0  0  0  0  0  0  0  0  0
    9.5403  -18.9831   28.0093 C   0  0  0  0  0  0  0  0  0  0  0  0
    8.9820  -18.6814   26.6534 C   0  0  0  0  0  0  0  0  0  0  0  0
    7.5230  -18.3043   26.7694 C   0  0  2  0  0  0  0  0  0  0  0  0
    6.6961  -19.4708   26.7079 N   0  0  0  0  0  0  0  0  0  0  0  0
    7.2091  -17.3188   25.7093 C   0  0  0  0  0  0  0  0  0  0  0  0
    6.6386  -17.6418   24.6399 O   0  0  0  0  0  0  0  0  0  0  0  0
    9.6314  -20.2545   28.5186 C   0  0  0  0  0  0  0  0  0  0  0  0
   10.1586  -20.4466   29.7721 C   0  0  0  0  0  0  0  0  0  0  0  0
    6.3554  -12.0634   26.9515 C   0  0  0  0  0  0  0  0  0  0  0  0
    6.2373  -13.2829   26.1191 C   0  0  0  0  0  0  0  0  0  0  0  0
    7.3717  -13.6317   25.2279 C   0  0  2  0  0  0  0  0  0  0  0  0
    7.6861  -12.5779   24.1750 C   0  0  0  0  0  0  0  0  0  0  0  0
    7.4644  -15.0257   24.7721 C   0  0  2  0  0  0  0  0  0  0  0  0
    7.5581  -15.9621   25.8931 N   0  0  0  0  0  0  0  0  0  0  0  0
    8.6425  -15.2835   23.9324 C   0  0  0  0  0  0  0  0  0  0  0  0
    9.8177  -15.1782   24.3593 O   0  0  0  0  0  0  0  0  0  0  0  0
   10.4483  -17.8338   20.1513 C   0  0  0  0  0  0  0  0  0  0  0  0
    9.2501  -17.3518   20.9347 C   0  0  1  0  0  0  0  0  0  0  0  0
    8.7418  -18.4147   21.6769 O   0  0  0  0  0  0  0  0  0  0  0  0
    9.6570  -16.1984   21.8622 C   0  0  2  0  0  0  0  0  0  0  0  0
    8.5379  -15.6739   22.5643 N   0  0  0  0  0  0  0  0  0  0  0  0
   10.3429  -15.1566   21.0542 C   0  0  0  0  0  0  0  0  0  0  0  0
   11.7227  -15.0935   21.1166 O   0  0  0  0  0  0  0  0  0  0  0  0
    9.6553  -14.3724   20.3457 O   0  0  0  0  0  0  0  0  0  0  0  0
  2  1  1  0
  3  2  2  0
  4  3  1  0
  5 11  1  0
  5  4  2  0
  6  5  1  0
  7  6  1  0
  7  8  1  6
  9 10  2  0
  9  7  1  0
 11 12  2  0
 12  2  1  0
 14 13  1  0
 15 14  1  0
 15 16  1  6
 17 18  1  1
 17 15  1  0
 18  9  1  0
 19 17  1  0
 20 19  2  0
 22 23  1  0
 22 24  1  0
 22 21  1  1
 24 25  1  6
 25 19  1  0
 26 24  1  0
 26 27  1  0
 28 26  2  0
M  END
$$$$
