AMF.pdb
     RDKit          3D

 25 25  0  0  1  0  0  0  0  0999 V2000
   27.4304  -16.1606  -14.3382 C   0  0  0  0  0  0  0  0  0  0  0  0
   26.5926  -17.2610  -14.9920 C   0  0  2  0  0  0  0  0  0  0  0  0
   25.5738  -16.7012  -15.8359 N   0  0  0  0  0  0  0  0  0  0  0  0
   26.0293  -18.1261  -13.9229 C   0  0  0  0  0  0  0  0  0  0  0  0
   24.9951  -17.7639  -13.3494 O   0  0  0  0  0  0  0  0  0  0  0  0
   23.8048  -23.6300  -14.4191 C   0  0  0  0  0  0  0  0  0  0  0  0
   24.6300  -24.0753  -12.8695 S   0  0  0  0  0  0  0  0  0  0  0  0
   25.1119  -22.5022  -12.0619 C   0  0  0  0  0  0  0  0  0  0  0  0
   25.7031  -21.5565  -13.0700 C   0  0  0  0  0  0  0  0  0  0  0  0
   26.0734  -20.2286  -12.5105 C   0  0  2  0  0  0  0  0  0  0  0  0
   26.6334  -19.3517  -13.5358 N   0  0  0  0  0  0  0  0  0  0  0  0
   26.9675  -20.2875  -11.3300 C   0  0  0  0  0  0  0  0  0  0  0  0
   28.2008  -20.5191  -11.3644 O   0  0  0  0  0  0  0  0  0  0  0  0
   26.3861  -20.0638  -10.0536 N   0  0  0  0  0  0  0  0  0  0  0  0
   27.1229  -20.2107   -8.8091 C   0  0  1  0  0  0  0  0  0  0  0  0
   26.5506  -19.1323   -7.8844 C   0  0  0  0  0  0  0  0  0  0  0  0
   27.3110  -19.1305   -6.6241 C   0  0  0  0  0  0  0  0  0  0  0  0
   28.4899  -18.4439   -6.4317 C   0  0  0  0  0  0  0  0  0  0  0  0
   29.1286  -18.4986   -5.2126 C   0  0  0  0  0  0  0  0  0  0  0  0
   28.6052  -19.2395   -4.1590 C   0  0  0  0  0  0  0  0  0  0  0  0
   27.4363  -19.9214   -4.3473 C   0  0  0  0  0  0  0  0  0  0  0  0
   26.7806  -19.8759   -5.5707 C   0  0  0  0  0  0  0  0  0  0  0  0
   26.8911  -21.5673   -8.3005 C   0  0  0  0  0  0  0  0  0  0  0  0
   27.9530  -22.3213   -7.8648 O   0  0  0  0  0  0  0  0  0  0  0  0
   25.7403  -22.0411   -8.2621 O   0  0  0  0  0  0  0  0  0  0  0  0
  2  1  1  1
  2  4  1  0
  3  2  1  0
  4 11  1  0
  4  5  2  0
  6  7  1  0
  8  7  1  0
  9  8  1  0
 10  9  1  6
 11 10  1  0
 12 10  1  0
 12 13  2  0
 14 15  1  0
 14 12  1  0
 16 17  1  0
 15 16  1  1
 17 18  2  0
 19 18  1  0
 20 19  2  0
 21 20  1  0
 22 21  2  0
 22 17  1  0
 23 15  1  0
 24 23  1  0
 25 23  2  0
M  END
$$$$
