AMF.pdb
     RDKit          3D

 25 25  0  0  1  0  0  0  0  0999 V2000
   27.6074  -18.2450  -15.1113 C   0  0  0  0  0  0  0  0  0  0  0  0
   26.7192  -18.9065  -14.0560 C   0  0  2  0  0  0  0  0  0  0  0  0
   26.3337  -17.9648  -13.0421 N   0  0  0  0  0  0  0  0  0  0  0  0
   27.4419  -20.0776  -13.4949 C   0  0  0  0  0  0  0  0  0  0  0  0
   27.7438  -21.0077  -14.2522 O   0  0  0  0  0  0  0  0  0  0  0  0
   31.6375  -22.0535   -9.1706 C   0  0  0  0  0  0  0  0  0  0  0  0
   32.1643  -22.4948  -10.8464 S   0  0  0  0  0  0  0  0  0  0  0  0
   30.9537  -21.7346  -11.9934 C   0  0  0  0  0  0  0  0  0  0  0  0
   29.9252  -20.9525  -11.2249 C   0  0  0  0  0  0  0  0  0  0  0  0
   28.5196  -21.3071  -11.5599 C   0  0  2  0  0  0  0  0  0  0  0  0
   27.7987  -20.1684  -12.1232 N   0  0  0  0  0  0  0  0  0  0  0  0
   27.7544  -21.9066  -10.4411 C   0  0  0  0  0  0  0  0  0  0  0  0
   27.9120  -23.0692   -9.9947 O   0  0  0  0  0  0  0  0  0  0  0  0
   26.7610  -21.1037   -9.8199 N   0  0  0  0  0  0  0  0  0  0  0  0
   26.6694  -20.9273   -8.3799 C   0  0  1  0  0  0  0  0  0  0  0  0
   27.8274  -19.9899   -8.0249 C   0  0  0  0  0  0  0  0  0  0  0  0
   27.8470  -19.7850   -6.5674 C   0  0  0  0  0  0  0  0  0  0  0  0
   27.5855  -18.5809   -5.9510 C   0  0  0  0  0  0  0  0  0  0  0  0
   27.6230  -18.4871   -4.5773 C   0  0  0  0  0  0  0  0  0  0  0  0
   27.9222  -19.5925   -3.7888 C   0  0  0  0  0  0  0  0  0  0  0  0
   28.1820  -20.7876   -4.3977 C   0  0  0  0  0  0  0  0  0  0  0  0
   28.1480  -20.8979   -5.7817 C   0  0  0  0  0  0  0  0  0  0  0  0
   25.3592  -20.3413   -8.0757 C   0  0  0  0  0  0  0  0  0  0  0  0
   24.7384  -19.5431   -9.0051 O   0  0  0  0  0  0  0  0  0  0  0  0
   24.8062  -20.5600   -6.9818 O   0  0  0  0  0  0  0  0  0  0  0  0
  2  1  1  6
  2  4  1  0
  3  2  1  0
  4 11  1  0
  4  5  2  0
  6  7  1  0
  8  7  1  0
  9  8  1  0
 10  9  1  1
 11 10  1  0
 12 10  1  0
 12 13  2  0
 14 15  1  0
 14 12  1  0
 16 17  1  0
 15 16  1  6
 17 18  2  0
 19 18  1  0
 20 19  2  0
 21 20  1  0
 22 21  2  0
 22 17  1  0
 23 15  1  0
 24 23  1  0
 25 23  2  0
M  END
$$$$
