AMF.pdb
     RDKit          3D

 25 25  0  0  1  0  0  0  0  0999 V2000
   26.3249  -16.7057  -15.3669 C   0  0  0  0  0  0  0  0  0  0  0  0
   27.4939  -17.6228  -15.7313 C   0  0  2  0  0  0  0  0  0  0  0  0
   27.5742  -17.8165  -17.1523 N   0  0  0  0  0  0  0  0  0  0  0  0
   27.3391  -18.9036  -14.9936 C   0  0  0  0  0  0  0  0  0  0  0  0
   26.5633  -19.7565  -15.4412 O   0  0  0  0  0  0  0  0  0  0  0  0
   31.5033  -21.1075  -10.7756 C   0  0  0  0  0  0  0  0  0  0  0  0
   30.3764  -22.5143  -10.5976 S   0  0  0  0  0  0  0  0  0  0  0  0
   28.7996  -22.0262  -11.3942 C   0  0  0  0  0  0  0  0  0  0  0  0
   28.9882  -20.7728  -12.2027 C   0  0  0  0  0  0  0  0  0  0  0  0
   27.7810  -20.3572  -12.9666 C   0  0  2  0  0  0  0  0  0  0  0  0
   28.0480  -19.1845  -13.7955 N   0  0  0  0  0  0  0  0  0  0  0  0
   26.5722  -20.1440  -12.1358 C   0  0  0  0  0  0  0  0  0  0  0  0
   26.2539  -19.0637  -11.5812 O   0  0  0  0  0  0  0  0  0  0  0  0
   25.6996  -21.2491  -11.9496 N   0  0  0  0  0  0  0  0  0  0  0  0
   24.4726  -21.1695  -11.1741 C   0  0  1  0  0  0  0  0  0  0  0  0
   24.5394  -19.8099  -10.4721 C   0  0  0  0  0  0  0  0  0  0  0  0
   25.1985  -19.9778   -9.1667 C   0  0  0  0  0  0  0  0  0  0  0  0
   26.1172  -19.0943   -8.6436 C   0  0  0  0  0  0  0  0  0  0  0  0
   26.6784  -19.3339   -7.4088 C   0  0  0  0  0  0  0  0  0  0  0  0
   26.3355  -20.4601   -6.6691 C   0  0  0  0  0  0  0  0  0  0  0  0
   25.4248  -21.3378   -7.1858 C   0  0  0  0  0  0  0  0  0  0  0  0
   24.8502  -21.1098   -8.4294 C   0  0  0  0  0  0  0  0  0  0  0  0
   23.3406  -21.2670  -12.1023 C   0  0  0  0  0  0  0  0  0  0  0  0
   22.0591  -21.3120  -11.6104 O   0  0  0  0  0  0  0  0  0  0  0  0
   23.5318  -21.3110  -13.3319 O   0  0  0  0  0  0  0  0  0  0  0  0
  2  1  1  6
  2  4  1  0
  3  2  1  0
  4 11  1  0
  4  5  2  0
  6  7  1  0
  8  7  1  0
  9  8  1  0
 10  9  1  1
 11 10  1  0
 12 10  1  0
 12 13  2  0
 14 15  1  0
 14 12  1  0
 16 17  1  0
 15 16  1  6
 17 18  2  0
 19 18  1  0
 20 19  2  0
 21 20  1  0
 22 21  2  0
 22 17  1  0
 23 15  1  0
 24 23  1  0
 25 23  2  0
M  END
$$$$
