AMF.pdb
     RDKit          3D

 25 25  0  0  1  0  0  0  0  0999 V2000
   24.3512  -30.7178  -18.7133 C   0  0  0  0  0  0  0  0  0  0  0  0
   24.0839  -30.1078  -17.3361 C   0  0  2  0  0  0  0  0  0  0  0  0
   25.3030  -29.6517  -16.7283 N   0  0  0  0  0  0  0  0  0  0  0  0
   23.3776  -31.1141  -16.5011 C   0  0  0  0  0  0  0  0  0  0  0  0
   22.2861  -31.5471  -16.8896 O   0  0  0  0  0  0  0  0  0  0  0  0
   25.9067  -36.1765  -14.1401 C   0  0  0  0  0  0  0  0  0  0  0  0
   25.3242  -35.8591  -15.8255 S   0  0  0  0  0  0  0  0  0  0  0  0
   24.5975  -34.1765  -15.8204 C   0  0  0  0  0  0  0  0  0  0  0  0
   23.8971  -33.9134  -14.5164 C   0  0  0  0  0  0  0  0  0  0  0  0
   23.2272  -32.5868  -14.4455 C   0  0  2  0  0  0  0  0  0  0  0  0
   23.9086  -31.5966  -15.2755 N   0  0  0  0  0  0  0  0  0  0  0  0
   23.0338  -32.0696  -13.0701 C   0  0  0  0  0  0  0  0  0  0  0  0
   23.9291  -31.5579  -12.3544 O   0  0  0  0  0  0  0  0  0  0  0  0
   21.7305  -32.1575  -12.5123 N   0  0  0  0  0  0  0  0  0  0  0  0
   21.4120  -31.7125  -11.1656 C   0  0  1  0  0  0  0  0  0  0  0  0
   20.2602  -30.7187  -11.3427 C   0  0  0  0  0  0  0  0  0  0  0  0
   20.7835  -29.4832  -11.9479 C   0  0  0  0  0  0  0  0  0  0  0  0
   21.4147  -28.4822  -11.2424 C   0  0  0  0  0  0  0  0  0  0  0  0
   21.8762  -27.3622  -11.8980 C   0  0  0  0  0  0  0  0  0  0  0  0
   21.7179  -27.2164  -13.2716 C   0  0  0  0  0  0  0  0  0  0  0  0
   21.0922  -28.2076  -13.9734 C   0  0  0  0  0  0  0  0  0  0  0  0
   20.6215  -29.3428  -13.3265 C   0  0  0  0  0  0  0  0  0  0  0  0
   21.0233  -32.8877  -10.3780 C   0  0  0  0  0  0  0  0  0  0  0  0
   20.9867  -34.1245  -10.9740 O   0  0  0  0  0  0  0  0  0  0  0  0
   20.7249  -32.7731   -9.1746 O   0  0  0  0  0  0  0  0  0  0  0  0
  2  1  1  6
  2  4  1  0
  3  2  1  0
  4 11  1  0
  4  5  2  0
  6  7  1  0
  8  7  1  0
  9  8  1  0
 10  9  1  1
 11 10  1  0
 12 10  1  0
 12 13  2  0
 14 15  1  0
 14 12  1  0
 16 17  1  0
 15 16  1  6
 17 18  2  0
 19 18  1  0
 20 19  2  0
 21 20  1  0
 22 21  2  0
 22 17  1  0
 23 15  1  0
 24 23  1  0
 25 23  2  0
M  END
$$$$
