AMF.pdb
     RDKit          3D

 25 25  0  0  1  0  0  0  0  0999 V2000
   21.8805  -18.0930  -15.1217 C   0  0  0  0  0  0  0  0  0  0  0  0
   23.1895  -17.3525  -15.4026 C   0  0  2  0  0  0  0  0  0  0  0  0
   23.1659  -16.7371  -16.7003 N   0  0  0  0  0  0  0  0  0  0  0  0
   24.3168  -18.3088  -15.2505 C   0  0  0  0  0  0  0  0  0  0  0  0
   24.1378  -19.4922  -15.5625 O   0  0  0  0  0  0  0  0  0  0  0  0
   29.8986  -16.7435  -16.8965 C   0  0  0  0  0  0  0  0  0  0  0  0
   28.9122  -17.7937  -17.9940 S   0  0  0  0  0  0  0  0  0  0  0  0
   27.4919  -18.3967  -17.0050 C   0  0  0  0  0  0  0  0  0  0  0  0
   27.8439  -18.4180  -15.5435 C   0  0  0  0  0  0  0  0  0  0  0  0
   26.7233  -18.8313  -14.6564 C   0  0  2  0  0  0  0  0  0  0  0  0
   25.5904  -17.9151  -14.7608 N   0  0  0  0  0  0  0  0  0  0  0  0
   27.1043  -19.0295  -13.2379 C   0  0  0  0  0  0  0  0  0  0  0  0
   27.8606  -18.2761  -12.5774 O   0  0  0  0  0  0  0  0  0  0  0  0
   26.5724  -20.1626  -12.5668 N   0  0  0  0  0  0  0  0  0  0  0  0
   26.8734  -20.4773  -11.1799 C   0  0  1  0  0  0  0  0  0  0  0  0
   26.3586  -19.2744  -10.3838 C   0  0  0  0  0  0  0  0  0  0  0  0
   26.7581  -19.4268   -8.9754 C   0  0  0  0  0  0  0  0  0  0  0  0
   27.8830  -18.8543   -8.4231 C   0  0  0  0  0  0  0  0  0  0  0  0
   28.1730  -19.0499   -7.0908 C   0  0  0  0  0  0  0  0  0  0  0  0
   27.3470  -19.8211   -6.2807 C   0  0  0  0  0  0  0  0  0  0  0  0
   26.2310  -20.3899   -6.8260 C   0  0  0  0  0  0  0  0  0  0  0  0
   25.9253  -20.2017   -8.1676 C   0  0  0  0  0  0  0  0  0  0  0  0
   26.1753  -21.7203  -10.8334 C   0  0  0  0  0  0  0  0  0  0  0  0
   26.6983  -22.5490   -9.8712 O   0  0  0  0  0  0  0  0  0  0  0  0
   25.1137  -22.0309  -11.4052 O   0  0  0  0  0  0  0  0  0  0  0  0
  2  1  1  6
  2  4  1  0
  3  2  1  0
  4 11  1  0
  4  5  2  0
  6  7  1  0
  8  7  1  0
  9  8  1  0
 10  9  1  6
 11 10  1  0
 12 10  1  0
 12 13  2  0
 14 15  1  0
 14 12  1  0
 16 17  1  0
 15 16  1  1
 17 18  2  0
 19 18  1  0
 20 19  2  0
 21 20  1  0
 22 21  2  0
 22 17  1  0
 23 15  1  0
 24 23  1  0
 25 23  2  0
M  END
$$$$
