AMF.pdb
     RDKit          3D

 25 25  0  0  1  0  0  0  0  0999 V2000
   30.5937  -20.4299  -11.3468 C   0  0  0  0  0  0  0  0  0  0  0  0
   30.5194  -21.3945  -10.1617 C   0  0  2  0  0  0  0  0  0  0  0  0
   31.0445  -22.6846  -10.5128 N   0  0  0  0  0  0  0  0  0  0  0  0
   29.1099  -21.4650   -9.6959 C   0  0  0  0  0  0  0  0  0  0  0  0
   28.3854  -22.3681  -10.1309 O   0  0  0  0  0  0  0  0  0  0  0  0
   27.6636  -18.0318   -4.6718 C   0  0  0  0  0  0  0  0  0  0  0  0
   27.8731  -19.7930   -4.3042 S   0  0  0  0  0  0  0  0  0  0  0  0
   28.0097  -20.6520   -5.9174 C   0  0  0  0  0  0  0  0  0  0  0  0
   27.0620  -20.0457   -6.9147 C   0  0  0  0  0  0  0  0  0  0  0  0
   27.1880  -20.6049   -8.2876 C   0  0  2  0  0  0  0  0  0  0  0  0
   28.5647  -20.5355   -8.7709 N   0  0  0  0  0  0  0  0  0  0  0  0
   26.2573  -20.0145   -9.2786 C   0  0  0  0  0  0  0  0  0  0  0  0
   26.1709  -18.7932   -9.5555 O   0  0  0  0  0  0  0  0  0  0  0  0
   25.3909  -20.8990   -9.9746 N   0  0  0  0  0  0  0  0  0  0  0  0
   24.4083  -20.4468  -10.9457 C   0  0  1  0  0  0  0  0  0  0  0  0
   24.7940  -21.1494  -12.2508 C   0  0  0  0  0  0  0  0  0  0  0  0
   25.8272  -20.3547  -12.9344 C   0  0  0  0  0  0  0  0  0  0  0  0
   27.1321  -20.7627  -13.1042 C   0  0  0  0  0  0  0  0  0  0  0  0
   28.0283  -19.9503  -13.7631 C   0  0  0  0  0  0  0  0  0  0  0  0
   27.6421  -18.7133  -14.2669 C   0  0  0  0  0  0  0  0  0  0  0  0
   26.3487  -18.3064  -14.0997 C   0  0  0  0  0  0  0  0  0  0  0  0
   25.4335  -19.1144  -13.4376 C   0  0  0  0  0  0  0  0  0  0  0  0
   23.0793  -20.8426  -10.4664 C   0  0  0  0  0  0  0  0  0  0  0  0
   21.9658  -20.5158  -11.2010 O   0  0  0  0  0  0  0  0  0  0  0  0
   22.9523  -21.4709   -9.3989 O   0  0  0  0  0  0  0  0  0  0  0  0
  2  1  1  6
  2  4  1  0
  3  2  1  0
  4 11  1  0
  4  5  2  0
  6  7  1  0
  8  7  1  0
  9  8  1  0
 10  9  1  1
 11 10  1  0
 12 10  1  0
 12 13  2  0
 14 15  1  0
 14 12  1  0
 16 17  1  0
 15 16  1  6
 17 18  2  0
 19 18  1  0
 20 19  2  0
 21 20  1  0
 22 21  2  0
 22 17  1  0
 23 15  1  0
 24 23  1  0
 25 23  2  0
M  END
$$$$
