AMF.pdb
     RDKit          3D

 25 25  0  0  1  0  0  0  0  0999 V2000
   27.5818  -18.5787  -17.4003 C   0  0  0  0  0  0  0  0  0  0  0  0
   28.1664  -19.8177  -16.7195 C   0  0  2  0  0  0  0  0  0  0  0  0
   28.6700  -20.7500  -17.6894 N   0  0  0  0  0  0  0  0  0  0  0  0
   27.1222  -20.4167  -15.8482 C   0  0  0  0  0  0  0  0  0  0  0  0
   26.2649  -21.1444  -16.3632 O   0  0  0  0  0  0  0  0  0  0  0  0
   25.1134  -19.9218   -8.6586 C   0  0  0  0  0  0  0  0  0  0  0  0
   26.0341  -21.2408   -9.4912 S   0  0  0  0  0  0  0  0  0  0  0  0
   25.4198  -21.2996  -11.2169 C   0  0  0  0  0  0  0  0  0  0  0  0
   26.4681  -20.7838  -12.1630 C   0  0  0  0  0  0  0  0  0  0  0  0
   26.0312  -20.7375  -13.5845 C   0  0  2  0  0  0  0  0  0  0  0  0
   27.0720  -20.1851  -14.4479 N   0  0  0  0  0  0  0  0  0  0  0  0
   24.7433  -20.0390  -13.8085 C   0  0  0  0  0  0  0  0  0  0  0  0
   24.5734  -18.7963  -13.7592 O   0  0  0  0  0  0  0  0  0  0  0  0
   23.6059  -20.8368  -14.1036 N   0  0  0  0  0  0  0  0  0  0  0  0
   22.2908  -20.2768  -14.3686 C   0  0  1  0  0  0  0  0  0  0  0  0
   22.1754  -20.2515  -15.8956 C   0  0  0  0  0  0  0  0  0  0  0  0
   20.8227  -19.8042  -16.2655 C   0  0  0  0  0  0  0  0  0  0  0  0
   19.8043  -20.6503  -16.6464 C   0  0  0  0  0  0  0  0  0  0  0  0
   18.5674  -20.1382  -16.9706 C   0  0  0  0  0  0  0  0  0  0  0  0
   18.3198  -18.7710  -16.9220 C   0  0  0  0  0  0  0  0  0  0  0  0
   19.3281  -17.9299  -16.5447 C   0  0  0  0  0  0  0  0  0  0  0  0
   20.5806  -18.4312  -16.2147 C   0  0  0  0  0  0  0  0  0  0  0  0
   21.2903  -21.1495  -13.7443 C   0  0  0  0  0  0  0  0  0  0  0  0
   21.4892  -22.5083  -13.7259 O   0  0  0  0  0  0  0  0  0  0  0  0
   20.2620  -20.6691  -13.2325 O   0  0  0  0  0  0  0  0  0  0  0  0
  2  1  1  6
  2  4  1  0
  3  2  1  0
  4 11  1  0
  4  5  2  0
  6  7  1  0
  8  7  1  0
  9  8  1  0
 10  9  1  1
 11 10  1  0
 12 10  1  0
 12 13  2  0
 14 15  1  0
 14 12  1  0
 16 17  1  0
 15 16  1  6
 17 18  2  0
 19 18  1  0
 20 19  2  0
 21 20  1  0
 22 21  2  0
 22 17  1  0
 23 15  1  0
 24 23  1  0
 25 23  2  0
M  END
$$$$
