AMF.pdb
     RDKit          3D

 25 25  0  0  1  0  0  0  0  0999 V2000
   28.3846  -17.9381  -14.8277 C   0  0  0  0  0  0  0  0  0  0  0  0
   27.7760  -19.3041  -14.5050 C   0  0  2  0  0  0  0  0  0  0  0  0
   26.9017  -19.7411  -15.5577 N   0  0  0  0  0  0  0  0  0  0  0  0
   27.0823  -19.2158  -13.1937 C   0  0  0  0  0  0  0  0  0  0  0  0
   27.3240  -18.2515  -12.4578 O   0  0  0  0  0  0  0  0  0  0  0  0
   20.8442  -20.0653  -12.0039 C   0  0  0  0  0  0  0  0  0  0  0  0
   21.5108  -21.0639  -10.6478 S   0  0  0  0  0  0  0  0  0  0  0  0
   23.2230  -20.4778  -10.3583 C   0  0  0  0  0  0  0  0  0  0  0  0
   24.0017  -20.4821  -11.6443 C   0  0  0  0  0  0  0  0  0  0  0  0
   25.4312  -20.1006  -11.4883 C   0  0  2  0  0  0  0  0  0  0  0  0
   26.1533  -20.1961  -12.7545 N   0  0  0  0  0  0  0  0  0  0  0  0
   26.1502  -20.8369  -10.4216 C   0  0  0  0  0  0  0  0  0  0  0  0
   26.5615  -22.0198  -10.5068 O   0  0  0  0  0  0  0  0  0  0  0  0
   26.3964  -20.1519   -9.2019 N   0  0  0  0  0  0  0  0  0  0  0  0
   27.0778  -20.7627   -8.0724 C   0  0  1  0  0  0  0  0  0  0  0  0
   28.2733  -19.8470   -7.7933 C   0  0  0  0  0  0  0  0  0  0  0  0
   28.3859  -19.6371   -6.3408 C   0  0  0  0  0  0  0  0  0  0  0  0
   27.7940  -18.5955   -5.6605 C   0  0  0  0  0  0  0  0  0  0  0  0
   27.9524  -18.4841   -4.2967 C   0  0  0  0  0  0  0  0  0  0  0  0
   28.7048  -19.4095   -3.5821 C   0  0  0  0  0  0  0  0  0  0  0  0
   29.2929  -20.4432   -4.2544 C   0  0  0  0  0  0  0  0  0  0  0  0
   29.1423  -20.5689   -5.6293 C   0  0  0  0  0  0  0  0  0  0  0  0
   26.1368  -20.8160   -6.9480 C   0  0  0  0  0  0  0  0  0  0  0  0
   26.2927  -21.7726   -5.9749 O   0  0  0  0  0  0  0  0  0  0  0  0
   25.1974  -20.0025   -6.8693 O   0  0  0  0  0  0  0  0  0  0  0  0
  2  1  1  6
  2  4  1  0
  3  2  1  0
  4 11  1  0
  4  5  2  0
  6  7  1  0
  8  7  1  0
  9  8  1  0
 10  9  1  6
 11 10  1  0
 12 10  1  0
 12 13  2  0
 14 15  1  0
 14 12  1  0
 16 17  1  0
 15 16  1  1
 17 18  2  0
 19 18  1  0
 20 19  2  0
 21 20  1  0
 22 21  2  0
 22 17  1  0
 23 15  1  0
 24 23  1  0
 25 23  2  0
M  END
$$$$
