AMF.pdb
     RDKit          3D

 25 25  0  0  1  0  0  0  0  0999 V2000
   28.0644  -19.7715  -15.5256 C   0  0  0  0  0  0  0  0  0  0  0  0
   28.5392  -20.9687  -14.7000 C   0  0  2  0  0  0  0  0  0  0  0  0
   28.8097  -22.1010  -15.5415 N   0  0  0  0  0  0  0  0  0  0  0  0
   27.5159  -21.2655  -13.6639 C   0  0  0  0  0  0  0  0  0  0  0  0
   26.5734  -22.0108  -13.9567 O   0  0  0  0  0  0  0  0  0  0  0  0
   28.2575  -20.5214   -7.2498 C   0  0  0  0  0  0  0  0  0  0  0  0
   26.5133  -20.0410   -7.3350 S   0  0  0  0  0  0  0  0  0  0  0  0
   25.8873  -20.6263   -8.9551 C   0  0  0  0  0  0  0  0  0  0  0  0
   26.9441  -20.4673  -10.0124 C   0  0  0  0  0  0  0  0  0  0  0  0
   26.5051  -20.8758  -11.3740 C   0  0  2  0  0  0  0  0  0  0  0  0
   27.5800  -20.7259  -12.3517 N   0  0  0  0  0  0  0  0  0  0  0  0
   25.2717  -20.2046  -11.8485 C   0  0  0  0  0  0  0  0  0  0  0  0
   25.1582  -18.9769  -12.0842 O   0  0  0  0  0  0  0  0  0  0  0  0
   24.1220  -21.0126  -12.0552 N   0  0  0  0  0  0  0  0  0  0  0  0
   22.8739  -20.4946  -12.5910 C   0  0  1  0  0  0  0  0  0  0  0  0
   22.6894  -21.2199  -13.9273 C   0  0  0  0  0  0  0  0  0  0  0  0
   21.3808  -20.8542  -14.4931 C   0  0  0  0  0  0  0  0  0  0  0  0
   21.0636  -19.5984  -14.9628 C   0  0  0  0  0  0  0  0  0  0  0  0
   19.8111  -19.3518  -15.4802 C   0  0  0  0  0  0  0  0  0  0  0  0
   18.8478  -20.3526  -15.5401 C   0  0  0  0  0  0  0  0  0  0  0  0
   19.1598  -21.5986  -15.0748 C   0  0  0  0  0  0  0  0  0  0  0  0
   20.4184  -21.8627  -14.5504 C   0  0  0  0  0  0  0  0  0  0  0  0
   21.8055  -20.8014  -11.6335 C   0  0  0  0  0  0  0  0  0  0  0  0
   20.7404  -19.9439  -11.5046 O   0  0  0  0  0  0  0  0  0  0  0  0
   21.8569  -21.8314  -10.9358 O   0  0  0  0  0  0  0  0  0  0  0  0
  2  1  1  6
  2  4  1  0
  3  2  1  0
  4 11  1  0
  4  5  2  0
  6  7  1  0
  8  7  1  0
  9  8  1  0
 10  9  1  1
 11 10  1  0
 12 10  1  0
 12 13  2  0
 14 15  1  0
 14 12  1  0
 16 17  1  0
 15 16  1  6
 17 18  2  0
 19 18  1  0
 20 19  2  0
 21 20  1  0
 22 21  2  0
 22 17  1  0
 23 15  1  0
 24 23  1  0
 25 23  2  0
M  END
$$$$
