AMF.pdb
     RDKit          3D

 25 25  0  0  1  0  0  0  0  0999 V2000
   27.8754  -19.3029  -14.0900 C   0  0  0  0  0  0  0  0  0  0  0  0
   28.5035  -20.5535  -13.4720 C   0  0  2  0  0  0  0  0  0  0  0  0
   28.5640  -21.6257  -14.4260 N   0  0  0  0  0  0  0  0  0  0  0  0
   27.7307  -20.9206  -12.2568 C   0  0  0  0  0  0  0  0  0  0  0  0
   26.7704  -21.6912  -12.3741 O   0  0  0  0  0  0  0  0  0  0  0  0
   26.9734  -20.1799   -4.3871 C   0  0  0  0  0  0  0  0  0  0  0  0
   27.9986  -19.7989   -5.8307 S   0  0  0  0  0  0  0  0  0  0  0  0
   27.0721  -20.3832   -7.3001 C   0  0  0  0  0  0  0  0  0  0  0  0
   27.8872  -20.1805   -8.5470 C   0  0  0  0  0  0  0  0  0  0  0  0
   27.2188  -20.6494   -9.7907 C   0  0  2  0  0  0  0  0  0  0  0  0
   28.0535  -20.4203  -10.9674 N   0  0  0  0  0  0  0  0  0  0  0  0
   25.8587  -20.0995  -10.0014 C   0  0  0  0  0  0  0  0  0  0  0  0
   25.5907  -18.8956  -10.2350 O   0  0  0  0  0  0  0  0  0  0  0  0
   24.7664  -21.0049   -9.9350 N   0  0  0  0  0  0  0  0  0  0  0  0
   23.4105  -20.6417  -10.3128 C   0  0  1  0  0  0  0  0  0  0  0  0
   23.1444  -21.4128  -11.6091 C   0  0  0  0  0  0  0  0  0  0  0  0
   22.9225  -20.4507  -12.7008 C   0  0  0  0  0  0  0  0  0  0  0  0
   21.7270  -19.8073  -12.9351 C   0  0  0  0  0  0  0  0  0  0  0  0
   21.6162  -18.9178  -13.9809 C   0  0  0  0  0  0  0  0  0  0  0  0
   22.6955  -18.6510  -14.8157 C   0  0  0  0  0  0  0  0  0  0  0  0
   23.8821  -19.2879  -14.5855 C   0  0  0  0  0  0  0  0  0  0  0  0
   24.0094  -20.1873  -13.5350 C   0  0  0  0  0  0  0  0  0  0  0  0
   22.5117  -21.0445   -9.2254 C   0  0  0  0  0  0  0  0  0  0  0  0
   21.1983  -20.6435   -9.2443 O   0  0  0  0  0  0  0  0  0  0  0  0
   22.9299  -21.7453   -8.2850 O   0  0  0  0  0  0  0  0  0  0  0  0
  2  1  1  6
  2  4  1  0
  3  2  1  0
  4 11  1  0
  4  5  2  0
  6  7  1  0
  8  7  1  0
  9  8  1  0
 10  9  1  1
 11 10  1  0
 12 10  1  0
 12 13  2  0
 14 15  1  0
 14 12  1  0
 16 17  1  0
 15 16  1  6
 17 18  2  0
 19 18  1  0
 20 19  2  0
 21 20  1  0
 22 21  2  0
 22 17  1  0
 23 15  1  0
 24 23  1  0
 25 23  2  0
M  END
$$$$
