AMF.pdb
     RDKit          3D

 25 25  0  0  1  0  0  0  0  0999 V2000
   25.6361  -23.3773  -17.0558 C   0  0  0  0  0  0  0  0  0  0  0  0
   26.7988  -22.4054  -17.2649 C   0  0  2  0  0  0  0  0  0  0  0  0
   27.8467  -23.0131  -18.0370 N   0  0  0  0  0  0  0  0  0  0  0  0
   27.2727  -21.9405  -15.9353 C   0  0  0  0  0  0  0  0  0  0  0  0
   28.4098  -22.2575  -15.5661 O   0  0  0  0  0  0  0  0  0  0  0  0
   28.4575  -16.7842  -15.8806 C   0  0  0  0  0  0  0  0  0  0  0  0
   27.0060  -16.4957  -14.8363 S   0  0  0  0  0  0  0  0  0  0  0  0
   26.3283  -18.1454  -14.4139 C   0  0  0  0  0  0  0  0  0  0  0  0
   27.4445  -19.1153  -14.1426 C   0  0  0  0  0  0  0  0  0  0  0  0
   26.9869  -20.5042  -13.8683 C   0  0  2  0  0  0  0  0  0  0  0  0
   26.4697  -21.1466  -15.0740 N   0  0  0  0  0  0  0  0  0  0  0  0
   26.0135  -20.6216  -12.7568 C   0  0  0  0  0  0  0  0  0  0  0  0
   24.7940  -20.3320  -12.8263 O   0  0  0  0  0  0  0  0  0  0  0  0
   26.4951  -21.1009  -11.5095 N   0  0  0  0  0  0  0  0  0  0  0  0
   25.6214  -21.4338  -10.3964 C   0  0  1  0  0  0  0  0  0  0  0  0
   26.5347  -22.1091   -9.3690 C   0  0  0  0  0  0  0  0  0  0  0  0
   27.2181  -21.0705   -8.5811 C   0  0  0  0  0  0  0  0  0  0  0  0
   26.5687  -20.0921   -7.8605 C   0  0  0  0  0  0  0  0  0  0  0  0
   27.2952  -19.1636   -7.1483 C   0  0  0  0  0  0  0  0  0  0  0  0
   28.6853  -19.1908   -7.1396 C   0  0  0  0  0  0  0  0  0  0  0  0
   29.3316  -20.1599   -7.8535 C   0  0  0  0  0  0  0  0  0  0  0  0
   28.6129  -21.1031   -8.5765 C   0  0  0  0  0  0  0  0  0  0  0  0
   25.0329  -20.1883   -9.8916 C   0  0  0  0  0  0  0  0  0  0  0  0
   23.8421  -20.2263   -9.2084 O   0  0  0  0  0  0  0  0  0  0  0  0
   25.6029  -19.0972  -10.0786 O   0  0  0  0  0  0  0  0  0  0  0  0
  2  1  1  1
  2  4  1  0
  3  2  1  0
  4 11  1  0
  4  5  2  0
  6  7  1  0
  8  7  1  0
  9  8  1  0
 10  9  1  6
 11 10  1  0
 12 10  1  0
 12 13  2  0
 14 15  1  0
 14 12  1  0
 16 17  1  0
 15 16  1  1
 17 18  2  0
 19 18  1  0
 20 19  2  0
 21 20  1  0
 22 21  2  0
 22 17  1  0
 23 15  1  0
 24 23  1  0
 25 23  2  0
M  END
$$$$
