AMF.pdb
     RDKit          3D

 25 25  0  0  1  0  0  0  0  0999 V2000
   28.9502  -22.5723  -15.8916 C   0  0  0  0  0  0  0  0  0  0  0  0
   28.0607  -22.5577  -17.1361 C   0  0  2  0  0  0  0  0  0  0  0  0
   28.7640  -22.0189  -18.2667 N   0  0  0  0  0  0  0  0  0  0  0  0
   26.8228  -21.7966  -16.8247 C   0  0  0  0  0  0  0  0  0  0  0  0
   26.8693  -20.5606  -16.8274 O   0  0  0  0  0  0  0  0  0  0  0  0
   21.1014  -22.8340  -19.0096 C   0  0  0  0  0  0  0  0  0  0  0  0
   22.3440  -21.8791  -19.9179 S   0  0  0  0  0  0  0  0  0  0  0  0
   23.6813  -21.4920  -18.7259 C   0  0  0  0  0  0  0  0  0  0  0  0
   23.3375  -22.0251  -17.3629 C   0  0  0  0  0  0  0  0  0  0  0  0
   24.3432  -21.7030  -16.3150 C   0  0  2  0  0  0  0  0  0  0  0  0
   25.5899  -22.4346  -16.5249 N   0  0  0  0  0  0  0  0  0  0  0  0
   23.8608  -21.8832  -14.9251 C   0  0  0  0  0  0  0  0  0  0  0  0
   23.7875  -22.9798  -14.3187 O   0  0  0  0  0  0  0  0  0  0  0  0
   23.4471  -20.7232  -14.2176 N   0  0  0  0  0  0  0  0  0  0  0  0
   22.9012  -20.7675  -12.8711 C   0  0  1  0  0  0  0  0  0  0  0  0
   23.6082  -19.6332  -12.1233 C   0  0  0  0  0  0  0  0  0  0  0  0
   24.5079  -20.2141  -11.1136 C   0  0  0  0  0  0  0  0  0  0  0  0
   24.2456  -20.2322   -9.7612 C   0  0  0  0  0  0  0  0  0  0  0  0
   25.1478  -20.8039   -8.8915 C   0  0  0  0  0  0  0  0  0  0  0  0
   26.3313  -21.3698   -9.3521 C   0  0  0  0  0  0  0  0  0  0  0  0
   26.5938  -21.3529  -10.6927 C   0  0  0  0  0  0  0  0  0  0  0  0
   25.6939  -20.7803  -11.5821 C   0  0  0  0  0  0  0  0  0  0  0  0
   21.4512  -20.5625  -12.9610 C   0  0  0  0  0  0  0  0  0  0  0  0
   20.6329  -21.0454  -11.9694 O   0  0  0  0  0  0  0  0  0  0  0  0
   20.9562  -19.9559  -13.9293 O   0  0  0  0  0  0  0  0  0  0  0  0
  2  1  1  1
  2  4  1  0
  3  2  1  0
  4 11  1  0
  4  5  2  0
  6  7  1  0
  8  7  1  0
  9  8  1  0
 10  9  1  6
 11 10  1  0
 12 10  1  0
 12 13  2  0
 14 15  1  0
 14 12  1  0
 16 17  1  0
 15 16  1  1
 17 18  2  0
 19 18  1  0
 20 19  2  0
 21 20  1  0
 22 21  2  0
 22 17  1  0
 23 15  1  0
 24 23  1  0
 25 23  2  0
M  END
$$$$
