AMF.pdb
     RDKit          3D

 25 25  0  0  1  0  0  0  0  0999 V2000
   29.1157  -21.5476  -16.2892 C   0  0  0  0  0  0  0  0  0  0  0  0
   27.8843  -22.3532  -16.7075 C   0  0  2  0  0  0  0  0  0  0  0  0
   27.7190  -22.3394  -18.1344 N   0  0  0  0  0  0  0  0  0  0  0  0
   26.6984  -21.8099  -15.9954 C   0  0  0  0  0  0  0  0  0  0  0  0
   26.1720  -20.7753  -16.4224 O   0  0  0  0  0  0  0  0  0  0  0  0
   22.0942  -24.8416  -16.3541 C   0  0  0  0  0  0  0  0  0  0  0  0
   21.7811  -23.0886  -16.6852 S   0  0  0  0  0  0  0  0  0  0  0  0
   23.2617  -22.1743  -16.1098 C   0  0  0  0  0  0  0  0  0  0  0  0
   23.7263  -22.7121  -14.7850 C   0  0  0  0  0  0  0  0  0  0  0  0
   24.9018  -21.9968  -14.2194 C   0  0  2  0  0  0  0  0  0  0  0  0
   26.1476  -22.4337  -14.8446 N   0  0  0  0  0  0  0  0  0  0  0  0
   25.0086  -22.0633  -12.7426 C   0  0  0  0  0  0  0  0  0  0  0  0
   25.1661  -23.1132  -12.0728 O   0  0  0  0  0  0  0  0  0  0  0  0
   24.9271  -20.8418  -12.0223 N   0  0  0  0  0  0  0  0  0  0  0  0
   24.9549  -20.7733  -10.5705 C   0  0  1  0  0  0  0  0  0  0  0  0
   25.8276  -19.5558  -10.2516 C   0  0  0  0  0  0  0  0  0  0  0  0
   26.9112  -19.9686   -9.3450 C   0  0  0  0  0  0  0  0  0  0  0  0
   26.9869  -19.6132   -8.0161 C   0  0  0  0  0  0  0  0  0  0  0  0
   28.0392  -20.0528   -7.2436 C   0  0  0  0  0  0  0  0  0  0  0  0
   29.0389  -20.8563   -7.7802 C   0  0  0  0  0  0  0  0  0  0  0  0
   28.9662  -21.2100   -9.0979 C   0  0  0  0  0  0  0  0  0  0  0  0
   27.9114  -20.7747   -9.8894 C   0  0  0  0  0  0  0  0  0  0  0  0
   23.5756  -20.6152  -10.0960 C   0  0  0  0  0  0  0  0  0  0  0  0
   23.2333  -21.0547   -8.8407 O   0  0  0  0  0  0  0  0  0  0  0  0
   22.7127  -20.0874  -10.8221 O   0  0  0  0  0  0  0  0  0  0  0  0
  2  1  1  6
  2  4  1  0
  3  2  1  0
  4 11  1  0
  4  5  2  0
  6  7  1  0
  8  7  1  0
  9  8  1  0
 10  9  1  6
 11 10  1  0
 12 10  1  0
 12 13  2  0
 14 15  1  0
 14 12  1  0
 16 17  1  0
 15 16  1  6
 17 18  2  0
 19 18  1  0
 20 19  2  0
 21 20  1  0
 22 21  2  0
 22 17  1  0
 23 15  1  0
 24 23  1  0
 25 23  2  0
M  END
$$$$
