AMF.pdb
     RDKit          3D

 25 25  0  0  1  0  0  0  0  0999 V2000
   27.3827  -19.8804  -15.5837 C   0  0  0  0  0  0  0  0  0  0  0  0
   27.9185  -20.4117  -14.2529 C   0  0  2  0  0  0  0  0  0  0  0  0
   28.9628  -21.3750  -14.4650 N   0  0  0  0  0  0  0  0  0  0  0  0
   26.7829  -20.9707  -13.4741 C   0  0  0  0  0  0  0  0  0  0  0  0
   26.2472  -22.0127  -13.8703 O   0  0  0  0  0  0  0  0  0  0  0  0
   27.5986  -19.4358   -7.4502 C   0  0  0  0  0  0  0  0  0  0  0  0
   26.2857  -20.6809   -7.5309 S   0  0  0  0  0  0  0  0  0  0  0  0
   26.2487  -21.2920   -9.2584 C   0  0  0  0  0  0  0  0  0  0  0  0
   25.2812  -20.4844  -10.0781 C   0  0  0  0  0  0  0  0  0  0  0  0
   25.1942  -20.9064  -11.5021 C   0  0  2  0  0  0  0  0  0  0  0  0
   26.2907  -20.3539  -12.2934 N   0  0  0  0  0  0  0  0  0  0  0  0
   23.8907  -20.6224  -12.1479 C   0  0  0  0  0  0  0  0  0  0  0  0
   23.5375  -19.5108  -12.6120 O   0  0  0  0  0  0  0  0  0  0  0  0
   22.9625  -21.6924  -12.2530 N   0  0  0  0  0  0  0  0  0  0  0  0
   21.6404  -21.5414  -12.8380 C   0  0  1  0  0  0  0  0  0  0  0  0
   21.1297  -22.9727  -13.0286 C   0  0  0  0  0  0  0  0  0  0  0  0
   19.7347  -22.9244  -13.4957 C   0  0  0  0  0  0  0  0  0  0  0  0
   18.6374  -23.0482  -12.6718 C   0  0  0  0  0  0  0  0  0  0  0  0
   17.3673  -22.9852  -13.2011 C   0  0  0  0  0  0  0  0  0  0  0  0
   17.1644  -22.7975  -14.5637 C   0  0  0  0  0  0  0  0  0  0  0  0
   18.2509  -22.6745  -15.3827 C   0  0  0  0  0  0  0  0  0  0  0  0
   19.5377  -22.7359  -14.8639 C   0  0  0  0  0  0  0  0  0  0  0  0
   20.8141  -20.7705  -11.9023 C   0  0  0  0  0  0  0  0  0  0  0  0
   19.8709  -19.8978  -12.3872 O   0  0  0  0  0  0  0  0  0  0  0  0
   20.9618  -20.8994  -10.6727 O   0  0  0  0  0  0  0  0  0  0  0  0
  2  1  1  6
  2  4  1  0
  3  2  1  0
  4 11  1  0
  4  5  2  0
  6  7  1  0
  8  7  1  0
  9  8  1  0
 10  9  1  1
 11 10  1  0
 12 10  1  0
 12 13  2  0
 14 15  1  0
 14 12  1  0
 16 17  1  0
 15 16  1  1
 17 18  2  0
 19 18  1  0
 20 19  2  0
 21 20  1  0
 22 21  2  0
 22 17  1  0
 23 15  1  0
 24 23  1  0
 25 23  2  0
M  END
$$$$
