WIG.pdb
     RDKit          3D

 27 28  0  0  1  0  0  0  0  0999 V2000
    6.3038  -18.2866   24.9864 N   0  0  0  0  0  0  0  0  0  0  0  0
    6.5828  -16.9474   24.5646 C   0  0  1  0  0  0  0  0  0  0  0  0
    7.3923  -16.2974   25.6962 C   0  0  0  0  0  0  0  0  0  0  0  0
    6.7248  -15.0731   26.1983 C   0  0  0  0  0  0  0  0  0  0  0  0
    5.4100  -14.9436   26.5569 C   0  0  0  0  0  0  0  0  0  0  0  0
    5.2325  -13.6712   26.9514 N   0  0  0  0  0  0  0  0  0  0  0  0
    6.3702  -12.9785   26.8630 C   0  0  0  0  0  0  0  0  0  0  0  0
    6.6670  -11.6582   27.1548 C   0  0  0  0  0  0  0  0  0  0  0  0
    7.9646  -11.2438   26.9511 C   0  0  0  0  0  0  0  0  0  0  0  0
    8.9561  -12.0795   26.4772 C   0  0  0  0  0  0  0  0  0  0  0  0
    8.6321  -13.3825   26.1968 C   0  0  0  0  0  0  0  0  0  0  0  0
    7.3287  -13.8486   26.3877 C   0  0  0  0  0  0  0  0  0  0  0  0
    7.4851  -16.9632   23.3863 C   0  0  0  0  0  0  0  0  0  0  0  0
    8.0720  -18.0268   23.0866 O   0  0  0  0  0  0  0  0  0  0  0  0
    7.0800  -12.7046   20.0714 C   0  0  0  0  0  0  0  0  0  0  0  0
    7.1240  -14.2022   20.2926 C   0  0  0  0  0  0  0  0  0  0  0  0
    8.5518  -14.5602   20.6264 C   0  0  2  0  0  0  0  0  0  0  0  0
    9.3306  -14.7515   19.3554 C   0  0  0  0  0  0  0  0  0  0  0  0
    8.6410  -15.8322   21.4535 C   0  0  2  0  0  0  0  0  0  0  0  0
    7.7262  -15.8313   22.5678 N   0  0  0  0  0  0  0  0  0  0  0  0
   10.0454  -16.0889   21.8981 C   0  0  0  0  0  0  0  0  0  0  0  0
   10.5639  -15.3643   22.7856 O   0  0  0  0  0  0  0  0  0  0  0  0
   10.8027  -17.1614   21.3128 N   0  0  0  0  0  0  0  0  0  0  0  0
   12.1260  -17.3751   21.8179 C   0  0  0  0  0  0  0  0  0  0  0  0
   13.1677  -16.6570   21.0946 C   0  0  0  0  0  0  0  0  0  0  0  0
   12.8900  -15.9974   20.0718 O   0  0  0  0  0  0  0  0  0  0  0  0
   14.4753  -16.6952   21.5287 O   0  0  0  0  0  0  0  0  0  0  0  0
  2  1  1  1
  3  2  1  0
  4  3  1  0
  4  5  2  0
  6  5  1  0
  7  6  1  0
  8  7  2  0
  9  8  1  0
 10  9  2  0
 10 11  1  0
 11 12  2  0
 12  7  1  0
 12  4  1  0
 13  2  1  0
 14 13  2  0
 16 15  1  0
 17 16  1  0
 17 18  1  6
 19 17  1  0
 19 20  1  1
 20 13  1  0
 21 19  1  0
 22 21  2  0
 23 21  1  0
 24 23  1  0
 25 24  1  0
 25 27  1  0
 26 25  2  0
M  END
$$$$
