WIG.pdb
     RDKit          3D

 27 28  0  0  1  0  0  0  0  0999 V2000
    6.2548  -18.5691   25.0464 N   0  0  0  0  0  0  0  0  0  0  0  0
    6.5033  -17.2113   24.6671 C   0  0  1  0  0  0  0  0  0  0  0  0
    7.3811  -16.6072   25.7729 C   0  0  0  0  0  0  0  0  0  0  0  0
    6.9083  -15.2553   26.1544 C   0  0  0  0  0  0  0  0  0  0  0  0
    5.6385  -14.7617   26.0198 C   0  0  0  0  0  0  0  0  0  0  0  0
    5.6535  -13.5021   26.4883 N   0  0  0  0  0  0  0  0  0  0  0  0
    6.8719  -13.1643   26.9168 C   0  0  0  0  0  0  0  0  0  0  0  0
    7.3587  -11.9929   27.4710 C   0  0  0  0  0  0  0  0  0  0  0  0
    8.6922  -11.9646   27.8148 C   0  0  0  0  0  0  0  0  0  0  0  0
    9.5401  -13.0384   27.6300 C   0  0  0  0  0  0  0  0  0  0  0  0
    9.0291  -14.1857   27.0787 C   0  0  0  0  0  0  0  0  0  0  0  0
    7.6823  -14.2615   26.7142 C   0  0  0  0  0  0  0  0  0  0  0  0
    7.3294  -17.1709   23.4347 C   0  0  0  0  0  0  0  0  0  0  0  0
    7.6006  -18.2441   22.8515 O   0  0  0  0  0  0  0  0  0  0  0  0
    7.1232  -12.4977   20.3076 C   0  0  0  0  0  0  0  0  0  0  0  0
    6.9970  -13.9628   20.6700 C   0  0  0  0  0  0  0  0  0  0  0  0
    8.3825  -14.4581   21.0069 C   0  0  2  0  0  0  0  0  0  0  0  0
    9.2468  -14.4024   19.7786 C   0  0  0  0  0  0  0  0  0  0  0  0
    8.3650  -15.8846   21.5312 C   0  0  2  0  0  0  0  0  0  0  0  0
    7.8372  -15.9742   22.8697 N   0  0  0  0  0  0  0  0  0  0  0  0
    9.7188  -16.5117   21.4330 C   0  0  0  0  0  0  0  0  0  0  0  0
   10.1907  -16.8101   20.3061 O   0  0  0  0  0  0  0  0  0  0  0  0
   10.4805  -16.7737   22.6235 N   0  0  0  0  0  0  0  0  0  0  0  0
   11.7295  -17.4559   22.4603 C   0  0  0  0  0  0  0  0  0  0  0  0
   12.8946  -16.5805   22.4507 C   0  0  0  0  0  0  0  0  0  0  0  0
   12.7607  -15.3451   22.5702 O   0  0  0  0  0  0  0  0  0  0  0  0
   14.1622  -17.1030   22.3094 O   0  0  0  0  0  0  0  0  0  0  0  0
  2  1  1  1
  3  2  1  0
  4  3  1  0
  4  5  2  0
  6  5  1  0
  7  6  1  0
  8  7  2  0
  9  8  1  0
 10  9  2  0
 10 11  1  0
 11 12  2  0
 12  7  1  0
 12  4  1  0
 13  2  1  0
 14 13  2  0
 16 15  1  0
 17 16  1  0
 17 18  1  6
 19 17  1  0
 19 20  1  1
 20 13  1  0
 21 19  1  0
 22 21  2  0
 23 21  1  0
 24 23  1  0
 25 24  1  0
 25 27  1  0
 26 25  2  0
M  END
$$$$
