WIG.pdb
     RDKit          3D

 27 28  0  0  1  0  0  0  0  0999 V2000
    8.4861  -17.7481   25.0787 N   0  0  0  0  0  0  0  0  0  0  0  0
    7.1738  -17.1937   24.9384 C   0  0  1  0  0  0  0  0  0  0  0  0
    7.1743  -15.8764   25.7277 C   0  0  0  0  0  0  0  0  0  0  0  0
    8.2550  -15.8592   26.7419 C   0  0  0  0  0  0  0  0  0  0  0  0
    9.0426  -16.9133   27.1198 C   0  0  0  0  0  0  0  0  0  0  0  0
    9.8858  -16.4574   28.0618 N   0  0  0  0  0  0  0  0  0  0  0  0
    9.6769  -15.1618   28.3062 C   0  0  0  0  0  0  0  0  0  0  0  0
   10.2920  -14.2806   29.1788 C   0  0  0  0  0  0  0  0  0  0  0  0
    9.8338  -12.9818   29.1905 C   0  0  0  0  0  0  0  0  0  0  0  0
    8.8065  -12.5387   28.3815 C   0  0  0  0  0  0  0  0  0  0  0  0
    8.2162  -13.4348   27.5271 C   0  0  0  0  0  0  0  0  0  0  0  0
    8.6473  -14.7631   27.4799 C   0  0  0  0  0  0  0  0  0  0  0  0
    6.9316  -16.8121   23.5247 C   0  0  0  0  0  0  0  0  0  0  0  0
    5.7840  -16.9540   23.0468 O   0  0  0  0  0  0  0  0  0  0  0  0
    7.8008  -12.0524   21.7979 C   0  0  0  0  0  0  0  0  0  0  0  0
    7.1844  -13.4322   21.8976 C   0  0  0  0  0  0  0  0  0  0  0  0
    8.0777  -14.3745   21.1279 C   0  0  2  0  0  0  0  0  0  0  0  0
    8.0049  -14.0490   19.6625 C   0  0  0  0  0  0  0  0  0  0  0  0
    7.6795  -15.8274   21.3289 C   0  0  2  0  0  0  0  0  0  0  0  0
    7.9347  -16.2891   22.6705 N   0  0  0  0  0  0  0  0  0  0  0  0
    8.3304  -16.7103   20.3126 C   0  0  0  0  0  0  0  0  0  0  0  0
    7.9996  -16.6223   19.1025 O   0  0  0  0  0  0  0  0  0  0  0  0
    9.3325  -17.6584   20.7167 N   0  0  0  0  0  0  0  0  0  0  0  0
    9.9903  -18.3930   19.6776 C   0  0  0  0  0  0  0  0  0  0  0  0
   11.1131  -17.6931   19.0665 C   0  0  0  0  0  0  0  0  0  0  0  0
   10.9367  -16.9552   18.0751 O   0  0  0  0  0  0  0  0  0  0  0  0
   12.3869  -17.8353   19.5735 O   0  0  0  0  0  0  0  0  0  0  0  0
  2  1  1  6
  3  2  1  0
  4  3  1  0
  4  5  2  0
  6  5  1  0
  7  6  1  0
  8  7  2  0
  9  8  1  0
 10  9  2  0
 10 11  1  0
 11 12  2  0
 12  7  1  0
 12  4  1  0
 13  2  1  0
 14 13  2  0
 16 15  1  0
 17 16  1  0
 17 18  1  6
 19 17  1  0
 19 20  1  1
 20 13  1  0
 21 19  1  0
 22 21  2  0
 23 21  1  0
 24 23  1  0
 25 24  1  0
 25 27  1  0
 26 25  2  0
M  END
$$$$
