WIG.pdb
     RDKit          3D

 27 28  0  0  1  0  0  0  0  0999 V2000
    6.9914  -19.2213   26.3167 N   0  0  0  0  0  0  0  0  0  0  0  0
    7.5582  -17.9542   26.6664 C   0  0  1  0  0  0  0  0  0  0  0  0
    9.0730  -18.1763   26.7862 C   0  0  0  0  0  0  0  0  0  0  0  0
    9.5988  -17.6154   28.0534 C   0  0  0  0  0  0  0  0  0  0  0  0
    9.9833  -18.3169   29.1643 C   0  0  0  0  0  0  0  0  0  0  0  0
   10.3927  -17.4183   30.0759 N   0  0  0  0  0  0  0  0  0  0  0  0
   10.2892  -16.1742   29.6030 C   0  0  0  0  0  0  0  0  0  0  0  0
   10.5874  -14.9476   30.1713 C   0  0  0  0  0  0  0  0  0  0  0  0
   10.3631  -13.8260   29.4040 C   0  0  0  0  0  0  0  0  0  0  0  0
    9.8629  -13.8812   28.1183 C   0  0  0  0  0  0  0  0  0  0  0  0
    9.5768  -15.1107   27.5819 C   0  0  0  0  0  0  0  0  0  0  0  0
    9.7880  -16.2768   28.3224 C   0  0  0  0  0  0  0  0  0  0  0  0
    7.3827  -16.9930   25.5492 C   0  0  0  0  0  0  0  0  0  0  0  0
    6.9620  -17.4136   24.4484 O   0  0  0  0  0  0  0  0  0  0  0  0
    5.9691  -11.8843   26.7563 C   0  0  0  0  0  0  0  0  0  0  0  0
    5.8558  -13.0906   25.8477 C   0  0  0  0  0  0  0  0  0  0  0  0
    7.1844  -13.2464   25.1483 C   0  0  2  0  0  0  0  0  0  0  0  0
    7.2658  -12.2740   24.0053 C   0  0  0  0  0  0  0  0  0  0  0  0
    7.3830  -14.6541   24.6110 C   0  0  2  0  0  0  0  0  0  0  0  0
    7.6662  -15.6081   25.6541 N   0  0  0  0  0  0  0  0  0  0  0  0
    8.4307  -14.6813   23.5445 C   0  0  0  0  0  0  0  0  0  0  0  0
    8.2352  -14.0775   22.4588 O   0  0  0  0  0  0  0  0  0  0  0  0
    9.6595  -15.3959   23.7585 N   0  0  0  0  0  0  0  0  0  0  0  0
   10.6486  -15.3137   22.7256 C   0  0  0  0  0  0  0  0  0  0  0  0
   10.8416  -16.5509   21.9798 C   0  0  0  0  0  0  0  0  0  0  0  0
   10.1407  -17.5545   22.2240 O   0  0  0  0  0  0  0  0  0  0  0  0
   11.8010  -16.6317   20.9935 O   0  0  0  0  0  0  0  0  0  0  0  0
  2  1  1  6
  3  2  1  0
  4  3  1  0
  4  5  2  0
  6  5  1  0
  7  6  1  0
  8  7  2  0
  9  8  1  0
 10  9  2  0
 10 11  1  0
 11 12  2  0
 12  7  1  0
 12  4  1  0
 13  2  1  0
 14 13  2  0
 16 15  1  0
 17 16  1  0
 17 18  1  6
 19 17  1  0
 19 20  1  1
 20 13  1  0
 21 19  1  0
 22 21  2  0
 23 21  1  0
 24 23  1  0
 25 24  1  0
 25 27  1  0
 26 25  2  0
M  END
$$$$
