WIG.pdb
     RDKit          3D

 27 28  0  0  1  0  0  0  0  0999 V2000
    5.0843  -18.9881   23.7171 N   0  0  0  0  0  0  0  0  0  0  0  0
    6.0820  -18.3040   24.4825 C   0  0  1  0  0  0  0  0  0  0  0  0
    7.2796  -19.2598   24.5848 C   0  0  0  0  0  0  0  0  0  0  0  0
    6.9451  -20.4537   25.3969 C   0  0  0  0  0  0  0  0  0  0  0  0
    6.5081  -21.6654   24.9333 C   0  0  0  0  0  0  0  0  0  0  0  0
    6.3267  -22.4554   26.0054 N   0  0  0  0  0  0  0  0  0  0  0  0
    6.6263  -21.8085   27.1340 C   0  0  0  0  0  0  0  0  0  0  0  0
    6.5937  -22.2090   28.4588 C   0  0  0  0  0  0  0  0  0  0  0  0
    6.9726  -21.2842   29.4065 C   0  0  0  0  0  0  0  0  0  0  0  0
    7.3741  -20.0021   29.0888 C   0  0  0  0  0  0  0  0  0  0  0  0
    7.3962  -19.6340   27.7677 C   0  0  0  0  0  0  0  0  0  0  0  0
    7.0206  -20.5380   26.7707 C   0  0  0  0  0  0  0  0  0  0  0  0
    6.5768  -17.1227   23.7324 C   0  0  0  0  0  0  0  0  0  0  0  0
    5.9291  -16.7198   22.7405 O   0  0  0  0  0  0  0  0  0  0  0  0
    6.0269  -12.3497   26.1862 C   0  0  0  0  0  0  0  0  0  0  0  0
    6.8530  -12.8497   25.0195 C   0  0  0  0  0  0  0  0  0  0  0  0
    6.8447  -14.3578   25.0833 C   0  0  2  0  0  0  0  0  0  0  0  0
    7.1895  -14.8021   26.4769 C   0  0  0  0  0  0  0  0  0  0  0  0
    7.8375  -14.9739   24.1113 C   0  0  2  0  0  0  0  0  0  0  0  0
    7.7546  -16.4127   24.0754 N   0  0  0  0  0  0  0  0  0  0  0  0
    9.2305  -14.5124   24.3986 C   0  0  0  0  0  0  0  0  0  0  0  0
    9.5608  -13.3248   24.1495 O   0  0  0  0  0  0  0  0  0  0  0  0
   10.1912  -15.4234   24.9584 N   0  0  0  0  0  0  0  0  0  0  0  0
   10.9705  -16.1950   24.0369 C   0  0  0  0  0  0  0  0  0  0  0  0
   11.9696  -15.4264   23.3055 C   0  0  0  0  0  0  0  0  0  0  0  0
   11.7126  -14.9670   22.1736 O   0  0  0  0  0  0  0  0  0  0  0  0
   13.2135  -15.1949   23.8523 O   0  0  0  0  0  0  0  0  0  0  0  0
  2  1  1  6
  3  2  1  0
  4  3  1  0
  4  5  2  0
  6  5  1  0
  7  6  1  0
  8  7  2  0
  9  8  1  0
 10  9  2  0
 10 11  1  0
 11 12  2  0
 12  7  1  0
 12  4  1  0
 13  2  1  0
 14 13  2  0
 16 15  1  0
 17 16  1  0
 17 18  1  1
 19 17  1  0
 19 20  1  1
 20 13  1  0
 21 19  1  0
 22 21  2  0
 23 21  1  0
 24 23  1  0
 25 24  1  0
 25 27  1  0
 26 25  2  0
M  END
$$$$
