WIG.pdb
     RDKit          3D

 27 28  0  0  1  0  0  0  0  0999 V2000
    6.5451  -17.2166   25.5876 N   0  0  0  0  0  0  0  0  0  0  0  0
    7.0908  -16.0882   24.8962 C   0  0  1  0  0  0  0  0  0  0  0  0
    8.4631  -15.8154   25.5291 C   0  0  0  0  0  0  0  0  0  0  0  0
    8.3663  -14.7970   26.6015 C   0  0  0  0  0  0  0  0  0  0  0  0
    8.9976  -14.8216   27.8160 C   0  0  0  0  0  0  0  0  0  0  0  0
    8.6304  -13.7086   28.4738 N   0  0  0  0  0  0  0  0  0  0  0  0
    7.7938  -12.9716   27.7396 C   0  0  0  0  0  0  0  0  0  0  0  0
    7.1651  -11.7653   27.9965 C   0  0  0  0  0  0  0  0  0  0  0  0
    6.3470  -11.2583   27.0113 C   0  0  0  0  0  0  0  0  0  0  0  0
    6.1370  -11.8963   25.8050 C   0  0  0  0  0  0  0  0  0  0  0  0
    6.7735  -13.0900   25.5790 C   0  0  0  0  0  0  0  0  0  0  0  0
    7.6133  -13.6436   26.5490 C   0  0  0  0  0  0  0  0  0  0  0  0
    7.3667  -16.4433   23.4818 C   0  0  0  0  0  0  0  0  0  0  0  0
    7.1485  -17.6138   23.0972 O   0  0  0  0  0  0  0  0  0  0  0  0
    8.4080  -12.3001   19.6906 C   0  0  0  0  0  0  0  0  0  0  0  0
    8.6596  -13.4415   20.6536 C   0  0  0  0  0  0  0  0  0  0  0  0
    7.7323  -14.5662   20.2617 C   0  0  2  0  0  0  0  0  0  0  0  0
    6.3066  -14.1156   20.4126 C   0  0  0  0  0  0  0  0  0  0  0  0
    7.9489  -15.8055   21.1143 C   0  0  2  0  0  0  0  0  0  0  0  0
    7.8694  -15.5250   22.5262 N   0  0  0  0  0  0  0  0  0  0  0  0
    9.2339  -16.4843   20.7623 C   0  0  0  0  0  0  0  0  0  0  0  0
    9.3939  -16.9642   19.6109 O   0  0  0  0  0  0  0  0  0  0  0  0
   10.2852  -16.5890   21.7371 N   0  0  0  0  0  0  0  0  0  0  0  0
   11.4256  -17.3797   21.3822 C   0  0  0  0  0  0  0  0  0  0  0  0
   12.5382  -16.6153   20.8327 C   0  0  0  0  0  0  0  0  0  0  0  0
   12.3969  -15.4097   20.5416 O   0  0  0  0  0  0  0  0  0  0  0  0
   13.7635  -17.2119   20.6260 O   0  0  0  0  0  0  0  0  0  0  0  0
  2  1  1  1
  3  2  1  0
  4  3  1  0
  4  5  2  0
  6  5  1  0
  7  6  1  0
  8  7  2  0
  9  8  1  0
 10  9  2  0
 10 11  1  0
 11 12  2  0
 12  7  1  0
 12  4  1  0
 13  2  1  0
 14 13  2  0
 16 15  1  0
 17 16  1  0
 17 18  1  1
 19 17  1  0
 19 20  1  1
 20 13  1  0
 21 19  1  0
 22 21  2  0
 23 21  1  0
 24 23  1  0
 25 24  1  0
 25 27  1  0
 26 25  2  0
M  END
$$$$
