WIG.pdb
     RDKit          3D

 27 28  0  0  1  0  0  0  0  0999 V2000
    6.3136  -17.9089   24.9325 N   0  0  0  0  0  0  0  0  0  0  0  0
    6.8922  -16.6267   24.6670 C   0  0  1  0  0  0  0  0  0  0  0  0
    8.0876  -16.4858   25.6206 C   0  0  0  0  0  0  0  0  0  0  0  0
    7.8210  -15.4724   26.6688 C   0  0  0  0  0  0  0  0  0  0  0  0
    7.8053  -15.6764   28.0224 C   0  0  0  0  0  0  0  0  0  0  0  0
    7.5225  -14.4943   28.5959 N   0  0  0  0  0  0  0  0  0  0  0  0
    7.3561  -13.5422   27.6752 C   0  0  0  0  0  0  0  0  0  0  0  0
    7.0583  -12.1951   27.7901 C   0  0  0  0  0  0  0  0  0  0  0  0
    6.9531  -11.4709   26.6232 C   0  0  0  0  0  0  0  0  0  0  0  0
    7.1301  -12.0285   25.3727 C   0  0  0  0  0  0  0  0  0  0  0  0
    7.4243  -13.3656   25.2904 C   0  0  0  0  0  0  0  0  0  0  0  0
    7.5411  -14.1411   26.4469 C   0  0  0  0  0  0  0  0  0  0  0  0
    7.4676  -16.6022   23.2990 C   0  0  0  0  0  0  0  0  0  0  0  0
    7.5933  -17.6794   22.6751 O   0  0  0  0  0  0  0  0  0  0  0  0
    6.9767  -12.0469   20.0208 C   0  0  0  0  0  0  0  0  0  0  0  0
    6.8975  -13.5111   20.3999 C   0  0  0  0  0  0  0  0  0  0  0  0
    8.3046  -13.9698   20.6971 C   0  0  2  0  0  0  0  0  0  0  0  0
    9.1162  -13.9479   19.4325 C   0  0  0  0  0  0  0  0  0  0  0  0
    8.3346  -15.3747   21.2761 C   0  0  2  0  0  0  0  0  0  0  0  0
    7.8893  -15.4165   22.6466 N   0  0  0  0  0  0  0  0  0  0  0  0
    9.6871  -15.9931   21.1205 C   0  0  0  0  0  0  0  0  0  0  0  0
   10.0698  -16.3860   19.9889 O   0  0  0  0  0  0  0  0  0  0  0  0
   10.5493  -16.1388   22.2615 N   0  0  0  0  0  0  0  0  0  0  0  0
   11.7754  -16.8525   22.0639 C   0  0  0  0  0  0  0  0  0  0  0  0
   12.6999  -16.7800   23.1882 C   0  0  0  0  0  0  0  0  0  0  0  0
   12.4436  -17.3685   24.2589 O   0  0  0  0  0  0  0  0  0  0  0  0
   13.8712  -16.0606   23.0867 O   0  0  0  0  0  0  0  0  0  0  0  0
  2  1  1  1
  3  2  1  0
  4  3  1  0
  4  5  2  0
  6  5  1  0
  7  6  1  0
  8  7  2  0
  9  8  1  0
 10  9  2  0
 10 11  1  0
 11 12  2  0
 12  7  1  0
 12  4  1  0
 13  2  1  0
 14 13  2  0
 16 15  1  0
 17 16  1  0
 17 18  1  6
 19 17  1  0
 19 20  1  1
 20 13  1  0
 21 19  1  0
 22 21  2  0
 23 21  1  0
 24 23  1  0
 25 24  1  0
 25 27  1  0
 26 25  2  0
M  END
$$$$
