WIG.pdb
     RDKit          3D

 27 28  0  0  1  0  0  0  0  0999 V2000
    9.0230  -16.0412   24.3396 N   0  0  0  0  0  0  0  0  0  0  0  0
    7.7204  -16.4440   23.9034 C   0  0  1  0  0  0  0  0  0  0  0  0
    6.7354  -15.4135   24.4745 C   0  0  0  0  0  0  0  0  0  0  0  0
    7.2198  -14.8656   25.7637 C   0  0  0  0  0  0  0  0  0  0  0  0
    7.9276  -15.5348   26.7256 C   0  0  0  0  0  0  0  0  0  0  0  0
    8.1581  -14.6638   27.7229 N   0  0  0  0  0  0  0  0  0  0  0  0
    7.6321  -13.4684   27.4467 C   0  0  0  0  0  0  0  0  0  0  0  0
    7.6179  -12.2834   28.1623 C   0  0  0  0  0  0  0  0  0  0  0  0
    6.9783  -11.2074   27.5877 C   0  0  0  0  0  0  0  0  0  0  0  0
    6.3652  -11.2682   26.3522 C   0  0  0  0  0  0  0  0  0  0  0  0
    6.3956  -12.4558   25.6666 C   0  0  0  0  0  0  0  0  0  0  0  0
    7.0327  -13.5747   26.2093 C   0  0  0  0  0  0  0  0  0  0  0  0
    7.6174  -16.3198   22.4280 C   0  0  0  0  0  0  0  0  0  0  0  0
    6.6137  -16.7916   21.8487 O   0  0  0  0  0  0  0  0  0  0  0  0
    8.8293  -11.6961   19.9763 C   0  0  0  0  0  0  0  0  0  0  0  0
    9.1940  -13.0933   20.4329 C   0  0  0  0  0  0  0  0  0  0  0  0
    8.1636  -14.0328   19.8549 C   0  0  2  0  0  0  0  0  0  0  0  0
    6.8038  -13.6708   20.3828 C   0  0  0  0  0  0  0  0  0  0  0  0
    8.4563  -15.4827   20.2040 C   0  0  2  0  0  0  0  0  0  0  0  0
    8.6001  -15.6906   21.6233 N   0  0  0  0  0  0  0  0  0  0  0  0
    9.6462  -15.9884   19.4529 C   0  0  0  0  0  0  0  0  0  0  0  0
    9.6093  -16.0639   18.1981 O   0  0  0  0  0  0  0  0  0  0  0  0
   10.8308  -16.3879   20.1625 N   0  0  0  0  0  0  0  0  0  0  0  0
   11.9136  -16.9070   19.3814 C   0  0  0  0  0  0  0  0  0  0  0  0
   12.8641  -15.8992   18.9288 C   0  0  0  0  0  0  0  0  0  0  0  0
   12.6439  -14.6862   19.1253 O   0  0  0  0  0  0  0  0  0  0  0  0
   14.0206  -16.2699   18.2770 O   0  0  0  0  0  0  0  0  0  0  0  0
  2  1  1  1
  3  2  1  0
  4  3  1  0
  4  5  2  0
  6  5  1  0
  7  6  1  0
  8  7  2  0
  9  8  1  0
 10  9  2  0
 10 11  1  0
 11 12  2  0
 12  7  1  0
 12  4  1  0
 13  2  1  0
 14 13  2  0
 16 15  1  0
 17 16  1  0
 17 18  1  1
 19 17  1  0
 19 20  1  1
 20 13  1  0
 21 19  1  0
 22 21  2  0
 23 21  1  0
 24 23  1  0
 25 24  1  0
 25 27  1  0
 26 25  2  0
M  END
$$$$
