WIG.pdb
     RDKit          3D

 27 28  0  0  1  0  0  0  0  0999 V2000
    6.0536  -18.4044   24.7646 N   0  0  0  0  0  0  0  0  0  0  0  0
    6.4605  -17.0764   24.4178 C   0  0  1  0  0  0  0  0  0  0  0  0
    7.2079  -16.5205   25.6386 C   0  0  0  0  0  0  0  0  0  0  0  0
    6.6019  -15.2513   26.1063 C   0  0  0  0  0  0  0  0  0  0  0  0
    5.2784  -15.0225   26.3713 C   0  0  0  0  0  0  0  0  0  0  0  0
    5.1712  -13.7427   26.7672 N   0  0  0  0  0  0  0  0  0  0  0  0
    6.3623  -13.1398   26.7688 C   0  0  0  0  0  0  0  0  0  0  0  0
    6.7378  -11.8483   27.0969 C   0  0  0  0  0  0  0  0  0  0  0  0
    8.0748  -11.5345   26.9916 C   0  0  0  0  0  0  0  0  0  0  0  0
    9.0307  -12.4415   26.5799 C   0  0  0  0  0  0  0  0  0  0  0  0
    8.6286  -13.7136   26.2615 C   0  0  0  0  0  0  0  0  0  0  0  0
    7.2829  -14.0785   26.3530 C   0  0  0  0  0  0  0  0  0  0  0  0
    7.4616  -17.1212   23.3230 C   0  0  0  0  0  0  0  0  0  0  0  0
    7.6999  -18.2150   22.7640 O   0  0  0  0  0  0  0  0  0  0  0  0
    7.2805  -12.5096   20.2506 C   0  0  0  0  0  0  0  0  0  0  0  0
    7.2353  -13.9925   20.5548 C   0  0  0  0  0  0  0  0  0  0  0  0
    8.6085  -14.3886   21.0402 C   0  0  2  0  0  0  0  0  0  0  0  0
    9.6033  -14.2124   19.9276 C   0  0  0  0  0  0  0  0  0  0  0  0
    8.6504  -15.8325   21.5127 C   0  0  2  0  0  0  0  0  0  0  0  0
    8.1745  -15.9848   22.8650 N   0  0  0  0  0  0  0  0  0  0  0  0
   10.0169  -16.4156   21.3440 C   0  0  0  0  0  0  0  0  0  0  0  0
   10.5072  -16.5400   20.1926 O   0  0  0  0  0  0  0  0  0  0  0  0
   10.7700  -16.8336   22.4949 N   0  0  0  0  0  0  0  0  0  0  0  0
   12.1089  -17.2887   22.2665 C   0  0  0  0  0  0  0  0  0  0  0  0
   13.1181  -16.2390   22.3279 C   0  0  0  0  0  0  0  0  0  0  0  0
   13.5223  -15.8115   23.4289 O   0  0  0  0  0  0  0  0  0  0  0  0
   13.6417  -15.7023   21.1714 O   0  0  0  0  0  0  0  0  0  0  0  0
  2  1  1  1
  3  2  1  0
  4  3  1  0
  4  5  2  0
  6  5  1  0
  7  6  1  0
  8  7  2  0
  9  8  1  0
 10  9  2  0
 10 11  1  0
 11 12  2  0
 12  7  1  0
 12  4  1  0
 13  2  1  0
 14 13  2  0
 16 15  1  0
 17 16  1  0
 17 18  1  6
 19 17  1  0
 19 20  1  1
 20 13  1  0
 21 19  1  0
 22 21  2  0
 23 21  1  0
 24 23  1  0
 25 24  1  0
 25 27  1  0
 26 25  2  0
M  END
$$$$
