WIG.pdb
     RDKit          3D

 27 28  0  0  1  0  0  0  0  0999 V2000
    6.5016  -18.5927   24.6352 N   0  0  0  0  0  0  0  0  0  0  0  0
    6.7137  -17.1886   24.4547 C   0  0  1  0  0  0  0  0  0  0  0  0
    7.3639  -16.6794   25.7494 C   0  0  0  0  0  0  0  0  0  0  0  0
    6.7493  -15.4060   26.1934 C   0  0  0  0  0  0  0  0  0  0  0  0
    5.4352  -15.1975   26.5156 C   0  0  0  0  0  0  0  0  0  0  0  0
    5.3146  -13.9047   26.8623 N   0  0  0  0  0  0  0  0  0  0  0  0
    6.4882  -13.2741   26.7780 C   0  0  0  0  0  0  0  0  0  0  0  0
    6.8460  -11.9611   27.0319 C   0  0  0  0  0  0  0  0  0  0  0  0
    8.1674  -11.6203   26.8456 C   0  0  0  0  0  0  0  0  0  0  0  0
    9.1249  -12.5214   26.4244 C   0  0  0  0  0  0  0  0  0  0  0  0
    8.7406  -13.8153   26.1806 C   0  0  0  0  0  0  0  0  0  0  0  0
    7.4110  -14.2078   26.3557 C   0  0  0  0  0  0  0  0  0  0  0  0
    7.7183  -16.9595   23.3864 C   0  0  0  0  0  0  0  0  0  0  0  0
    8.2663  -17.9471   22.8480 O   0  0  0  0  0  0  0  0  0  0  0  0
    6.8049  -12.3576   20.1748 C   0  0  0  0  0  0  0  0  0  0  0  0
    6.9570  -13.8167   20.5509 C   0  0  0  0  0  0  0  0  0  0  0  0
    8.3290  -13.9781   21.1590 C   0  0  2  0  0  0  0  0  0  0  0  0
    9.3727  -13.5828   20.1525 C   0  0  0  0  0  0  0  0  0  0  0  0
    8.5904  -15.4082   21.6021 C   0  0  2  0  0  0  0  0  0  0  0  0
    8.1003  -15.6723   22.9319 N   0  0  0  0  0  0  0  0  0  0  0  0
   10.0388  -15.7565   21.4728 C   0  0  0  0  0  0  0  0  0  0  0  0
   10.5752  -15.7929   20.3360 O   0  0  0  0  0  0  0  0  0  0  0  0
   10.8177  -16.0494   22.6449 N   0  0  0  0  0  0  0  0  0  0  0  0
   12.1826  -16.4330   22.4403 C   0  0  0  0  0  0  0  0  0  0  0  0
   12.9539  -16.5839   23.6676 C   0  0  0  0  0  0  0  0  0  0  0  0
   12.4461  -17.1203   24.6739 O   0  0  0  0  0  0  0  0  0  0  0  0
   14.2559  -16.1366   23.7360 O   0  0  0  0  0  0  0  0  0  0  0  0
  2  1  1  1
  3  2  1  0
  4  3  1  0
  4  5  2  0
  6  5  1  0
  7  6  1  0
  8  7  2  0
  9  8  1  0
 10  9  2  0
 10 11  1  0
 11 12  2  0
 12  7  1  0
 12  4  1  0
 13  2  1  0
 14 13  2  0
 16 15  1  0
 17 16  1  0
 17 18  1  6
 19 17  1  0
 19 20  1  1
 20 13  1  0
 21 19  1  0
 22 21  2  0
 23 21  1  0
 24 23  1  0
 25 24  1  0
 25 27  1  0
 26 25  2  0
M  END
$$$$
