WIG.pdb
     RDKit          3D

 27 28  0  0  1  0  0  0  0  0999 V2000
    6.2184  -18.3920   24.8357 N   0  0  0  0  0  0  0  0  0  0  0  0
    6.5315  -17.0607   24.4128 C   0  0  1  0  0  0  0  0  0  0  0  0
    7.4075  -16.4510   25.5170 C   0  0  0  0  0  0  0  0  0  0  0  0
    6.7963  -15.2177   26.0668 C   0  0  0  0  0  0  0  0  0  0  0  0
    5.4788  -15.0267   26.3861 C   0  0  0  0  0  0  0  0  0  0  0  0
    5.3635  -13.7701   26.8485 N   0  0  0  0  0  0  0  0  0  0  0  0
    6.5436  -13.1462   26.8412 C   0  0  0  0  0  0  0  0  0  0  0  0
    6.9082  -11.8658   27.2206 C   0  0  0  0  0  0  0  0  0  0  0  0
    8.2354  -11.5225   27.0874 C   0  0  0  0  0  0  0  0  0  0  0  0
    9.1921  -12.3904   26.6000 C   0  0  0  0  0  0  0  0  0  0  0  0
    8.8010  -13.6525   26.2320 C   0  0  0  0  0  0  0  0  0  0  0  0
    7.4654  -14.0462   26.3492 C   0  0  0  0  0  0  0  0  0  0  0  0
    7.3870  -17.1003   23.2006 C   0  0  0  0  0  0  0  0  0  0  0  0
    7.8406  -18.2007   22.8148 O   0  0  0  0  0  0  0  0  0  0  0  0
    8.0180  -12.3355   20.0600 C   0  0  0  0  0  0  0  0  0  0  0  0
    8.4391  -13.5108   20.9173 C   0  0  0  0  0  0  0  0  0  0  0  0
    7.8432  -14.7504   20.2955 C   0  0  2  0  0  0  0  0  0  0  0  0
    6.3477  -14.6135   20.2399 C   0  0  0  0  0  0  0  0  0  0  0  0
    8.1932  -16.0046   21.0793 C   0  0  2  0  0  0  0  0  0  0  0  0
    7.7264  -15.9519   22.4423 N   0  0  0  0  0  0  0  0  0  0  0  0
    9.6594  -16.2902   21.0131 C   0  0  0  0  0  0  0  0  0  0  0  0
   10.1968  -16.5548   19.9073 O   0  0  0  0  0  0  0  0  0  0  0  0
   10.4545  -16.2627   22.2103 N   0  0  0  0  0  0  0  0  0  0  0  0
   11.8175  -16.6885   22.0965 C   0  0  0  0  0  0  0  0  0  0  0  0
   12.7006  -15.7128   21.4705 C   0  0  0  0  0  0  0  0  0  0  0  0
   12.2447  -14.6410   21.0212 O   0  0  0  0  0  0  0  0  0  0  0  0
   14.0528  -15.9583   21.3648 O   0  0  0  0  0  0  0  0  0  0  0  0
  2  1  1  1
  3  2  1  0
  4  3  1  0
  4  5  2  0
  6  5  1  0
  7  6  1  0
  8  7  2  0
  9  8  1  0
 10  9  2  0
 10 11  1  0
 11 12  2  0
 12  7  1  0
 12  4  1  0
 13  2  1  0
 14 13  2  0
 16 15  1  0
 17 16  1  0
 17 18  1  1
 19 17  1  0
 19 20  1  1
 20 13  1  0
 21 19  1  0
 22 21  2  0
 23 21  1  0
 24 23  1  0
 25 24  1  0
 25 27  1  0
 26 25  2  0
M  END
$$$$
