WIG.pdb
     RDKit          3D

 27 28  0  0  1  0  0  0  0  0999 V2000
    6.2606  -18.5416   24.6191 N   0  0  0  0  0  0  0  0  0  0  0  0
    6.5174  -17.1448   24.4394 C   0  0  1  0  0  0  0  0  0  0  0  0
    7.2201  -16.6663   25.7183 C   0  0  0  0  0  0  0  0  0  0  0  0
    6.6682  -15.3708   26.1808 C   0  0  0  0  0  0  0  0  0  0  0  0
    5.3545  -15.0829   26.4363 C   0  0  0  0  0  0  0  0  0  0  0  0
    5.3019  -13.7991   26.8307 N   0  0  0  0  0  0  0  0  0  0  0  0
    6.5187  -13.2501   26.8402 C   0  0  0  0  0  0  0  0  0  0  0  0
    6.9493  -11.9764   27.1701 C   0  0  0  0  0  0  0  0  0  0  0  0
    8.2996  -11.7228   27.0740 C   0  0  0  0  0  0  0  0  0  0  0  0
    9.2169  -12.6721   26.6696 C   0  0  0  0  0  0  0  0  0  0  0  0
    8.7606  -13.9252   26.3493 C   0  0  0  0  0  0  0  0  0  0  0  0
    7.3992  -14.2295   26.4316 C   0  0  0  0  0  0  0  0  0  0  0  0
    7.5003  -16.9454   23.3452 C   0  0  0  0  0  0  0  0  0  0  0  0
    8.2004  -17.9142   22.9755 O   0  0  0  0  0  0  0  0  0  0  0  0
    6.7664  -12.5597   20.3005 C   0  0  0  0  0  0  0  0  0  0  0  0
    7.0598  -14.0435   20.3781 C   0  0  0  0  0  0  0  0  0  0  0  0
    8.4676  -14.1912   20.9022 C   0  0  2  0  0  0  0  0  0  0  0  0
    9.4384  -14.1214   19.7571 C   0  0  0  0  0  0  0  0  0  0  0  0
    8.6665  -15.5074   21.6356 C   0  0  2  0  0  0  0  0  0  0  0  0
    7.6972  -15.7072   22.6838 N   0  0  0  0  0  0  0  0  0  0  0  0
   10.0645  -15.6313   22.1514 C   0  0  0  0  0  0  0  0  0  0  0  0
   10.3713  -15.1198   23.2586 O   0  0  0  0  0  0  0  0  0  0  0  0
   11.0570  -16.3333   21.3843 N   0  0  0  0  0  0  0  0  0  0  0  0
   12.3334  -16.5365   22.0018 C   0  0  0  0  0  0  0  0  0  0  0  0
   13.2784  -17.2941   21.1913 C   0  0  0  0  0  0  0  0  0  0  0  0
   12.9706  -18.4174   20.7421 O   0  0  0  0  0  0  0  0  0  0  0  0
   14.5264  -16.7820   20.9083 O   0  0  0  0  0  0  0  0  0  0  0  0
  2  1  1  1
  3  2  1  0
  4  3  1  0
  4  5  2  0
  6  5  1  0
  7  6  1  0
  8  7  2  0
  9  8  1  0
 10  9  2  0
 10 11  1  0
 11 12  2  0
 12  7  1  0
 12  4  1  0
 13  2  1  0
 14 13  2  0
 16 15  1  0
 17 16  1  0
 17 18  1  6
 19 17  1  0
 19 20  1  1
 20 13  1  0
 21 19  1  0
 22 21  2  0
 23 21  1  0
 24 23  1  0
 25 24  1  0
 25 27  1  0
 26 25  2  0
M  END
$$$$
