PMC.pdb
     RDKit          3D

 22 22  0  0  1  0  0  0  0  0999 V2000
   27.1745  -20.9060  -15.4816 N   0  0  0  0  0  0  0  0  0  0  0  0
   27.8467  -20.7861  -16.7836 C   0  0  0  0  0  0  0  0  0  0  0  0
   27.5023  -19.3414  -17.1326 C   0  0  0  0  0  0  0  0  0  0  0  0
   27.6153  -18.6159  -15.8069 C   0  0  0  0  0  0  0  0  0  0  0  0
   27.7199  -19.7239  -14.8009 C   0  0  1  0  0  0  0  0  0  0  0  0
   26.9662  -19.4797  -13.5719 C   0  0  0  0  0  0  0  0  0  0  0  0
   27.1689  -18.4264  -12.9244 O   0  0  0  0  0  0  0  0  0  0  0  0
   21.6207  -22.1547  -13.1435 C   0  0  0  0  0  0  0  0  0  0  0  0
   21.2855  -21.2055  -11.6338 S   0  0  0  0  0  0  0  0  0  0  0  0
   22.8327  -20.3188  -11.2198 C   0  0  0  0  0  0  0  0  0  0  0  0
   23.8314  -20.6647  -12.2689 C   0  0  0  0  0  0  0  0  0  0  0  0
   25.1619  -19.9853  -11.9623 C   0  0  2  0  0  0  0  0  0  0  0  0
   26.0139  -20.4089  -13.1008 N   0  0  0  0  0  0  0  0  0  0  0  0
   25.7594  -20.4625  -10.7003 C   0  0  0  0  0  0  0  0  0  0  0  0
   25.9792  -21.6976  -10.5422 O   0  0  0  0  0  0  0  0  0  0  0  0
   26.1301  -19.6400   -9.6067 N   0  0  0  0  0  0  0  0  0  0  0  0
   26.5044  -20.1983   -8.3225 C   0  0  1  0  0  0  0  0  0  0  0  0
   27.1534  -19.0801   -7.5303 C   0  0  0  0  0  0  0  0  0  0  0  0
   27.5963  -19.6536   -5.8636 S   0  0  0  0  0  0  0  0  0  0  0  0
   25.3457  -20.7225   -7.5799 C   0  0  0  0  0  0  0  0  0  0  0  0
   25.5503  -21.7553   -6.6824 O   0  0  0  0  0  0  0  0  0  0  0  0
   24.2213  -20.2410   -7.7643 O   0  0  0  0  0  0  0  0  0  0  0  0
  1  5  1  0
  1  2  1  0
  2  3  1  0
  4  3  1  0
  5  4  1  0
  5  6  1  1
  6 13  1  0
  7  6  2  0
  8  9  1  0
 10  9  1  0
 11 10  1  0
 12 11  1  6
 12 13  1  0
 12 14  1  0
 14 15  2  0
 14 16  1  0
 16 17  1  0
 17 18  1  1
 17 20  1  0
 18 19  1  0
 20 21  1  0
 22 20  2  0
M  END
$$$$
