PMC.pdb
     RDKit          3D

 22 22  0  0  1  0  0  0  0  0999 V2000
   27.3186  -19.1375  -15.6706 N   0  0  0  0  0  0  0  0  0  0  0  0
   28.4161  -18.6487  -16.5178 C   0  0  0  0  0  0  0  0  0  0  0  0
   29.5675  -19.4935  -15.9812 C   0  0  0  0  0  0  0  0  0  0  0  0
   28.9346  -20.8488  -15.7382 C   0  0  0  0  0  0  0  0  0  0  0  0
   27.4637  -20.5855  -15.8719 C   0  0  1  0  0  0  0  0  0  0  0  0
   26.6442  -21.2970  -14.8920 C   0  0  0  0  0  0  0  0  0  0  0  0
   26.6311  -22.5499  -14.8941 O   0  0  0  0  0  0  0  0  0  0  0  0
   25.1049  -20.5639   -8.5863 C   0  0  0  0  0  0  0  0  0  0  0  0
   26.7044  -20.4043   -9.4282 S   0  0  0  0  0  0  0  0  0  0  0  0
   26.5271  -21.2369  -11.0489 C   0  0  0  0  0  0  0  0  0  0  0  0
   25.2761  -20.7229  -11.6723 C   0  0  0  0  0  0  0  0  0  0  0  0
   25.0444  -21.4113  -13.0133 C   0  0  2  0  0  0  0  0  0  0  0  0
   25.8670  -20.5987  -13.9430 N   0  0  0  0  0  0  0  0  0  0  0  0
   23.6317  -21.3579  -13.4362 C   0  0  0  0  0  0  0  0  0  0  0  0
   23.1383  -20.2606  -13.8253 O   0  0  0  0  0  0  0  0  0  0  0  0
   22.7396  -22.4595  -13.4544 N   0  0  0  0  0  0  0  0  0  0  0  0
   21.3574  -22.3174  -13.8672 C   0  0  1  0  0  0  0  0  0  0  0  0
   20.7680  -23.7136  -13.9150 C   0  0  0  0  0  0  0  0  0  0  0  0
   19.0167  -23.6500  -14.3967 S   0  0  0  0  0  0  0  0  0  0  0  0
   20.5776  -21.4829  -12.9376 C   0  0  0  0  0  0  0  0  0  0  0  0
   19.6094  -20.6434  -13.4589 O   0  0  0  0  0  0  0  0  0  0  0  0
   20.7939  -21.5413  -11.7210 O   0  0  0  0  0  0  0  0  0  0  0  0
  1  5  1  0
  1  2  1  0
  2  3  1  0
  4  3  1  0
  5  4  1  0
  5  6  1  1
  6 13  1  0
  7  6  2  0
  8  9  1  0
 10  9  1  0
 11 10  1  0
 12 11  1  1
 12 13  1  0
 12 14  1  0
 14 15  2  0
 14 16  1  0
 16 17  1  0
 17 18  1  1
 17 20  1  0
 18 19  1  0
 20 21  1  0
 22 20  2  0
M  END
$$$$
