PMC.pdb
     RDKit          3D

 22 22  0  0  1  0  0  0  0  0999 V2000
   26.9400  -18.9889  -15.0027 N   0  0  0  0  0  0  0  0  0  0  0  0
   28.1685  -18.5178  -15.6585 C   0  0  0  0  0  0  0  0  0  0  0  0
   29.2057  -19.3657  -14.9286 C   0  0  0  0  0  0  0  0  0  0  0  0
   28.5282  -20.7134  -14.7826 C   0  0  0  0  0  0  0  0  0  0  0  0
   27.1031  -20.4401  -15.1633 C   0  0  1  0  0  0  0  0  0  0  0  0
   26.1244  -21.1347  -14.3281 C   0  0  0  0  0  0  0  0  0  0  0  0
   26.1018  -22.3874  -14.3185 O   0  0  0  0  0  0  0  0  0  0  0  0
   24.4852  -20.6406   -8.3202 C   0  0  0  0  0  0  0  0  0  0  0  0
   26.1032  -20.6408   -9.1415 S   0  0  0  0  0  0  0  0  0  0  0  0
   25.8298  -21.2819  -10.8344 C   0  0  0  0  0  0  0  0  0  0  0  0
   24.5256  -20.7381  -11.3046 C   0  0  0  0  0  0  0  0  0  0  0  0
   24.2463  -21.2169  -12.7255 C   0  0  2  0  0  0  0  0  0  0  0  0
   25.2037  -20.4202  -13.5317 N   0  0  0  0  0  0  0  0  0  0  0  0
   22.8695  -20.9135  -13.1607 C   0  0  0  0  0  0  0  0  0  0  0  0
   22.5028  -19.7089  -13.2755 O   0  0  0  0  0  0  0  0  0  0  0  0
   21.8799  -21.8772  -13.4800 N   0  0  0  0  0  0  0  0  0  0  0  0
   20.5469  -21.4938  -13.9010 C   0  0  1  0  0  0  0  0  0  0  0  0
   20.0365  -22.6004  -14.8033 C   0  0  0  0  0  0  0  0  0  0  0  0
   21.1571  -22.8403  -16.2138 S   0  0  0  0  0  0  0  0  0  0  0  0
   19.6280  -21.3199  -12.7634 C   0  0  0  0  0  0  0  0  0  0  0  0
   18.3773  -20.7793  -13.0029 O   0  0  0  0  0  0  0  0  0  0  0  0
   19.9795  -21.6537  -11.6253 O   0  0  0  0  0  0  0  0  0  0  0  0
  1  5  1  0
  1  2  1  0
  2  3  1  0
  4  3  1  0
  5  4  1  0
  5  6  1  1
  6 13  1  0
  7  6  2  0
  8  9  1  0
 10  9  1  0
 11 10  1  0
 12 11  1  1
 12 13  1  0
 12 14  1  0
 14 15  2  0
 14 16  1  0
 16 17  1  0
 17 18  1  6
 17 20  1  0
 18 19  1  0
 20 21  1  0
 22 20  2  0
M  END
$$$$
