PMC.pdb
     RDKit          3D

 22 22  0  0  1  0  0  0  0  0999 V2000
   31.8473  -22.4125  -12.1277 N   0  0  0  0  0  0  0  0  0  0  0  0
   32.9660  -23.1861  -11.5697 C   0  0  0  0  0  0  0  0  0  0  0  0
   33.0765  -22.5435  -10.1904 C   0  0  0  0  0  0  0  0  0  0  0  0
   31.6343  -22.3160   -9.7847 C   0  0  0  0  0  0  0  0  0  0  0  0
   30.8639  -22.5667  -11.0473 C   0  0  1  0  0  0  0  0  0  0  0  0
   29.7578  -21.6344  -11.2601 C   0  0  0  0  0  0  0  0  0  0  0  0
   28.7587  -21.6820  -10.5056 O   0  0  0  0  0  0  0  0  0  0  0  0
   28.6101  -17.5228  -16.5405 C   0  0  0  0  0  0  0  0  0  0  0  0
   27.3156  -18.7471  -16.1971 S   0  0  0  0  0  0  0  0  0  0  0  0
   27.2676  -18.9609  -14.3795 C   0  0  0  0  0  0  0  0  0  0  0  0
   28.4350  -19.8067  -14.0058 C   0  0  0  0  0  0  0  0  0  0  0  0
   28.5868  -19.8395  -12.4886 C   0  0  2  0  0  0  0  0  0  0  0  0
   29.7942  -20.6810  -12.3002 N   0  0  0  0  0  0  0  0  0  0  0  0
   27.4362  -20.4789  -11.8219 C   0  0  0  0  0  0  0  0  0  0  0  0
   26.9545  -21.5470  -12.2974 O   0  0  0  0  0  0  0  0  0  0  0  0
   26.7954  -19.9977  -10.6525 N   0  0  0  0  0  0  0  0  0  0  0  0
   25.6046  -20.6285  -10.1184 C   0  0  1  0  0  0  0  0  0  0  0  0
   25.4319  -20.1123   -8.7031 C   0  0  0  0  0  0  0  0  0  0  0  0
   23.9730  -20.8653   -7.9237 S   0  0  0  0  0  0  0  0  0  0  0  0
   24.4021  -20.3161  -10.9090 C   0  0  0  0  0  0  0  0  0  0  0  0
   24.3498  -19.1072  -11.5796 O   0  0  0  0  0  0  0  0  0  0  0  0
   23.4680  -21.1251  -10.9634 O   0  0  0  0  0  0  0  0  0  0  0  0
  1  5  1  0
  1  2  1  0
  2  3  1  0
  4  3  1  0
  5  4  1  0
  5  6  1  6
  6 13  1  0
  7  6  2  0
  8  9  1  0
 10  9  1  0
 11 10  1  0
 12 11  1  6
 12 13  1  0
 12 14  1  0
 14 15  2  0
 14 16  1  0
 16 17  1  0
 17 18  1  1
 17 20  1  0
 18 19  1  0
 20 21  1  0
 22 20  2  0
M  END
$$$$
