PMC.pdb
     RDKit          3D

 22 22  0  0  1  0  0  0  0  0999 V2000
   27.4652  -19.2479  -14.9476 N   0  0  0  0  0  0  0  0  0  0  0  0
   28.6139  -19.0285  -15.8385 C   0  0  0  0  0  0  0  0  0  0  0  0
   29.4938  -20.2092  -15.4394 C   0  0  0  0  0  0  0  0  0  0  0  0
   28.5057  -21.3403  -15.2375 C   0  0  0  0  0  0  0  0  0  0  0  0
   27.1711  -20.6553  -15.2492 C   0  0  1  0  0  0  0  0  0  0  0  0
   26.2295  -21.1779  -14.2601 C   0  0  0  0  0  0  0  0  0  0  0  0
   25.7041  -22.3005  -14.4433 O   0  0  0  0  0  0  0  0  0  0  0  0
   26.6289  -19.7280   -8.2285 C   0  0  0  0  0  0  0  0  0  0  0  0
   25.4816  -21.1337   -8.2181 S   0  0  0  0  0  0  0  0  0  0  0  0
   24.4708  -20.9945   -9.7380 C   0  0  0  0  0  0  0  0  0  0  0  0
   25.3645  -20.4846  -10.8147 C   0  0  0  0  0  0  0  0  0  0  0  0
   24.9331  -21.0568  -12.1609 C   0  0  2  0  0  0  0  0  0  0  0  0
   25.9011  -20.4412  -13.1018 N   0  0  0  0  0  0  0  0  0  0  0  0
   23.5641  -20.6502  -12.5321 C   0  0  0  0  0  0  0  0  0  0  0  0
   23.2926  -19.4224  -12.6650 O   0  0  0  0  0  0  0  0  0  0  0  0
   22.4820  -21.5351  -12.7683 N   0  0  0  0  0  0  0  0  0  0  0  0
   21.1805  -21.0562  -13.1898 C   0  0  1  0  0  0  0  0  0  0  0  0
   20.6924  -22.0039  -14.2682 C   0  0  0  0  0  0  0  0  0  0  0  0
   21.8432  -22.0156  -15.6748 S   0  0  0  0  0  0  0  0  0  0  0  0
   20.2095  -21.0241  -12.0831 C   0  0  0  0  0  0  0  0  0  0  0  0
   20.6049  -21.4988  -10.8453 O   0  0  0  0  0  0  0  0  0  0  0  0
   19.0701  -20.5802  -12.2701 O   0  0  0  0  0  0  0  0  0  0  0  0
  1  5  1  0
  1  2  1  0
  2  3  1  0
  4  3  1  0
  5  4  1  0
  5  6  1  1
  6 13  1  0
  7  6  2  0
  8  9  1  0
 10  9  1  0
 11 10  1  0
 12 11  1  1
 12 13  1  0
 12 14  1  0
 14 15  2  0
 14 16  1  0
 16 17  1  0
 17 18  1  6
 17 20  1  0
 18 19  1  0
 20 21  1  0
 22 20  2  0
M  END
$$$$
