PMC.pdb
     RDKit          3D

 22 22  0  0  1  0  0  0  0  0999 V2000
   21.5955  -13.5981  -19.3909 N   0  0  0  0  0  0  0  0  0  0  0  0
   21.0536  -14.7754  -20.0849 C   0  0  0  0  0  0  0  0  0  0  0  0
   20.9427  -15.7498  -18.9162 C   0  0  0  0  0  0  0  0  0  0  0  0
   20.4690  -14.8805  -17.7689 C   0  0  0  0  0  0  0  0  0  0  0  0
   20.6308  -13.4827  -18.2890 C   0  0  1  0  0  0  0  0  0  0  0  0
   21.1382  -12.5372  -17.2957 C   0  0  0  0  0  0  0  0  0  0  0  0
   20.4703  -12.3157  -16.2590 O   0  0  0  0  0  0  0  0  0  0  0  0
   27.1198  -11.7260  -16.0737 C   0  0  0  0  0  0  0  0  0  0  0  0
   26.6825   -9.9957  -15.7464 S   0  0  0  0  0  0  0  0  0  0  0  0
   24.8631   -9.9448  -15.5498 C   0  0  0  0  0  0  0  0  0  0  0  0
   24.2869  -10.8884  -16.5476 C   0  0  0  0  0  0  0  0  0  0  0  0
   22.7651  -10.8833  -16.4474 C   0  0  2  0  0  0  0  0  0  0  0  0
   22.3672  -11.8688  -17.4826 N   0  0  0  0  0  0  0  0  0  0  0  0
   22.1843   -9.5673  -16.7760 C   0  0  0  0  0  0  0  0  0  0  0  0
   22.3707   -9.0726  -17.9247 O   0  0  0  0  0  0  0  0  0  0  0  0
   21.4034   -8.7739  -15.8983 N   0  0  0  0  0  0  0  0  0  0  0  0
   20.8074   -7.5230  -16.3241 C   0  0  1  0  0  0  0  0  0  0  0  0
   19.3176   -7.6363  -16.0650 C   0  0  0  0  0  0  0  0  0  0  0  0
   18.6347   -9.0983  -16.9011 S   0  0  0  0  0  0  0  0  0  0  0  0
   21.3500   -6.3659  -15.5926 C   0  0  0  0  0  0  0  0  0  0  0  0
   20.8553   -5.1081  -15.8881 O   0  0  0  0  0  0  0  0  0  0  0  0
   22.2277   -6.5292  -14.7363 O   0  0  0  0  0  0  0  0  0  0  0  0
  1  5  1  0
  1  2  1  0
  2  3  1  0
  4  3  1  0
  5  4  1  0
  5  6  1  1
  6 13  1  0
  7  6  2  0
  8  9  1  0
 10  9  1  0
 11 10  1  0
 12 11  1  6
 12 13  1  0
 12 14  1  0
 14 15  2  0
 14 16  1  0
 16 17  1  0
 17 18  1  1
 17 20  1  0
 18 19  1  0
 20 21  1  0
 22 20  2  0
M  END
$$$$
