PMC.pdb
     RDKit          3D

 22 22  0  0  1  0  0  0  0  0999 V2000
   27.5498  -17.0772  -18.0183 N   0  0  0  0  0  0  0  0  0  0  0  0
   28.6905  -17.3105  -18.9159 C   0  0  0  0  0  0  0  0  0  0  0  0
   29.6114  -18.0919  -17.9838 C   0  0  0  0  0  0  0  0  0  0  0  0
   28.6638  -18.9892  -17.2134 C   0  0  0  0  0  0  0  0  0  0  0  0
   27.3058  -18.4484  -17.5509 C   0  0  1  0  0  0  0  0  0  0  0  0
   26.3828  -18.4186  -16.4172 C   0  0  0  0  0  0  0  0  0  0  0  0
   26.2875  -17.3765  -15.7282 O   0  0  0  0  0  0  0  0  0  0  0  0
   20.4934  -19.9413  -16.5158 C   0  0  0  0  0  0  0  0  0  0  0  0
   20.8729  -20.7676  -14.9456 S   0  0  0  0  0  0  0  0  0  0  0  0
   22.3919  -19.9800  -14.2945 C   0  0  0  0  0  0  0  0  0  0  0  0
   23.3890  -19.9677  -15.4006 C   0  0  0  0  0  0  0  0  0  0  0  0
   24.7206  -19.4253  -14.8922 C   0  0  2  0  0  0  0  0  0  0  0  0
   25.5964  -19.5423  -16.0841 N   0  0  0  0  0  0  0  0  0  0  0  0
   25.2772  -20.2393  -13.7946 C   0  0  0  0  0  0  0  0  0  0  0  0
   25.7887  -21.3667  -14.0517 O   0  0  0  0  0  0  0  0  0  0  0  0
   25.3001  -19.8654  -12.4273 N   0  0  0  0  0  0  0  0  0  0  0  0
   25.7335  -20.7817  -11.3911 C   0  0  1  0  0  0  0  0  0  0  0  0
   26.8677  -20.1010  -10.6498 C   0  0  0  0  0  0  0  0  0  0  0  0
   27.3647  -21.0837   -9.2041 S   0  0  0  0  0  0  0  0  0  0  0  0
   24.6530  -21.1116  -10.4466 C   0  0  0  0  0  0  0  0  0  0  0  0
   23.4554  -20.4265  -10.5495 O   0  0  0  0  0  0  0  0  0  0  0  0
   24.8258  -21.9833   -9.5860 O   0  0  0  0  0  0  0  0  0  0  0  0
  1  5  1  0
  1  2  1  0
  2  3  1  0
  4  3  1  0
  5  4  1  0
  5  6  1  1
  6 13  1  0
  7  6  2  0
  8  9  1  0
 10  9  1  0
 11 10  1  0
 12 11  1  6
 12 13  1  0
 12 14  1  0
 14 15  2  0
 14 16  1  0
 16 17  1  0
 17 18  1  1
 17 20  1  0
 18 19  1  0
 20 21  1  0
 22 20  2  0
M  END
$$$$
