PMC.pdb
     RDKit          3D

 22 22  0  0  1  0  0  0  0  0999 V2000
   21.0182  -11.7773  -18.9764 N   0  0  0  0  0  0  0  0  0  0  0  0
   20.1799  -12.8128  -19.5981 C   0  0  0  0  0  0  0  0  0  0  0  0
   20.1051  -13.8208  -18.4554 C   0  0  0  0  0  0  0  0  0  0  0  0
   19.9809  -12.9528  -17.2194 C   0  0  0  0  0  0  0  0  0  0  0  0
   20.2838  -11.5717  -17.7207 C   0  0  1  0  0  0  0  0  0  0  0  0
   21.1001  -10.7761  -16.8049 C   0  0  0  0  0  0  0  0  0  0  0  0
   20.6509  -10.4890  -15.6710 O   0  0  0  0  0  0  0  0  0  0  0  0
   27.7184  -10.3955  -15.5634 C   0  0  0  0  0  0  0  0  0  0  0  0
   26.6063  -11.7300  -16.0879 S   0  0  0  0  0  0  0  0  0  0  0  0
   24.9128  -11.2109  -15.6253 C   0  0  0  0  0  0  0  0  0  0  0  0
   24.5899   -9.9993  -16.4287 C   0  0  0  0  0  0  0  0  0  0  0  0
   23.1533   -9.5650  -16.1573 C   0  0  2  0  0  0  0  0  0  0  0  0
   22.3855  -10.3250  -17.1742 N   0  0  0  0  0  0  0  0  0  0  0  0
   22.9527   -8.1191  -16.3728 C   0  0  0  0  0  0  0  0  0  0  0  0
   23.1971   -7.6180  -17.5077 O   0  0  0  0  0  0  0  0  0  0  0  0
   22.4904   -7.2013  -15.3962 N   0  0  0  0  0  0  0  0  0  0  0  0
   22.2234   -5.8132  -15.7170 C   0  0  1  0  0  0  0  0  0  0  0  0
   20.7755   -5.7361  -16.1607 C   0  0  0  0  0  0  0  0  0  0  0  0
   19.6867   -6.4911  -14.9167 S   0  0  0  0  0  0  0  0  0  0  0  0
   22.4360   -4.9207  -14.5651 C   0  0  0  0  0  0  0  0  0  0  0  0
   22.7544   -5.4859  -13.3432 O   0  0  0  0  0  0  0  0  0  0  0  0
   22.3291   -3.6959  -14.7013 O   0  0  0  0  0  0  0  0  0  0  0  0
  1  5  1  0
  1  2  1  0
  2  3  1  0
  4  3  1  0
  5  4  1  0
  5  6  1  1
  6 13  1  0
  7  6  2  0
  8  9  1  0
 10  9  1  0
 11 10  1  0
 12 11  1  6
 12 13  1  0
 12 14  1  0
 14 15  2  0
 14 16  1  0
 16 17  1  0
 17 18  1  1
 17 20  1  0
 18 19  1  0
 20 21  1  0
 22 20  2  0
M  END
$$$$
