PMC.pdb
     RDKit          3D

 22 22  0  0  1  0  0  0  0  0999 V2000
   27.9414  -21.2247  -15.4268 N   0  0  0  0  0  0  0  0  0  0  0  0
   28.7016  -20.3153  -16.2965 C   0  0  0  0  0  0  0  0  0  0  0  0
   27.7533  -19.1207  -16.3318 C   0  0  0  0  0  0  0  0  0  0  0  0
   27.2243  -19.0413  -14.9140 C   0  0  0  0  0  0  0  0  0  0  0  0
   27.6728  -20.3308  -14.2923 C   0  0  1  0  0  0  0  0  0  0  0  0
   26.6751  -20.9434  -13.4163 C   0  0  0  0  0  0  0  0  0  0  0  0
   26.0125  -21.9235  -13.8288 O   0  0  0  0  0  0  0  0  0  0  0  0
   26.9495  -19.0701   -7.4645 C   0  0  0  0  0  0  0  0  0  0  0  0
   26.5890  -20.8450   -7.5758 S   0  0  0  0  0  0  0  0  0  0  0  0
   26.5632  -21.2622   -9.3581 C   0  0  0  0  0  0  0  0  0  0  0  0
   25.4640  -20.4717   -9.9784 C   0  0  0  0  0  0  0  0  0  0  0  0
   25.2326  -20.9409  -11.4110 C   0  0  2  0  0  0  0  0  0  0  0  0
   26.4440  -20.4511  -12.1138 N   0  0  0  0  0  0  0  0  0  0  0  0
   24.0346  -20.3286  -12.0167 C   0  0  0  0  0  0  0  0  0  0  0  0
   24.1693  -19.3928  -12.8564 O   0  0  0  0  0  0  0  0  0  0  0  0
   22.6951  -20.7039  -11.7430 N   0  0  0  0  0  0  0  0  0  0  0  0
   21.6818  -20.7315  -12.7791 C   0  0  1  0  0  0  0  0  0  0  0  0
   22.1187  -21.7712  -13.7926 C   0  0  0  0  0  0  0  0  0  0  0  0
   20.8567  -21.9713  -15.0850 S   0  0  0  0  0  0  0  0  0  0  0  0
   20.3517  -21.0819  -12.2532 C   0  0  0  0  0  0  0  0  0  0  0  0
   19.2477  -20.4170  -12.7563 O   0  0  0  0  0  0  0  0  0  0  0  0
   20.2388  -21.9525  -11.3817 O   0  0  0  0  0  0  0  0  0  0  0  0
  1  5  1  0
  1  2  1  0
  2  3  1  0
  4  3  1  0
  5  4  1  0
  5  6  1  1
  6 13  1  0
  7  6  2  0
  8  9  1  0
 10  9  1  0
 11 10  1  0
 12 11  1  1
 12 13  1  0
 12 14  1  0
 14 15  2  0
 14 16  1  0
 16 17  1  0
 17 18  1  6
 17 20  1  0
 18 19  1  0
 20 21  1  0
 22 20  2  0
M  END
$$$$
