PMC.pdb
     RDKit          3D

 22 22  0  0  1  0  0  0  0  0999 V2000
   35.4092  -26.3544  -15.0403 N   0  0  0  0  0  0  0  0  0  0  0  0
   35.7388  -25.4524  -13.9271 C   0  0  0  0  0  0  0  0  0  0  0  0
   35.9740  -26.4708  -12.8158 C   0  0  0  0  0  0  0  0  0  0  0  0
   36.6968  -27.6042  -13.5156 C   0  0  0  0  0  0  0  0  0  0  0  0
   36.5519  -27.2751  -14.9721 C   0  0  1  0  0  0  0  0  0  0  0  0
   36.2899  -28.4387  -15.8179 C   0  0  0  0  0  0  0  0  0  0  0  0
   35.1405  -28.6142  -16.2847 O   0  0  0  0  0  0  0  0  0  0  0  0
   38.7751  -32.6291  -21.6074 C   0  0  0  0  0  0  0  0  0  0  0  0
   38.9571  -31.2212  -20.4772 S   0  0  0  0  0  0  0  0  0  0  0  0
   37.7976  -31.5109  -19.0906 C   0  0  0  0  0  0  0  0  0  0  0  0
   37.9655  -30.3816  -18.1343 C   0  0  0  0  0  0  0  0  0  0  0  0
   36.9475  -30.5027  -17.0052 C   0  0  2  0  0  0  0  0  0  0  0  0
   37.3080  -29.3689  -16.1187 N   0  0  0  0  0  0  0  0  0  0  0  0
   37.0826  -31.7687  -16.2595 C   0  0  0  0  0  0  0  0  0  0  0  0
   37.7260  -31.7858  -15.1711 O   0  0  0  0  0  0  0  0  0  0  0  0
   36.5369  -33.0157  -16.6560 N   0  0  0  0  0  0  0  0  0  0  0  0
   36.6731  -34.2047  -15.8383 C   0  0  1  0  0  0  0  0  0  0  0  0
   35.9771  -33.9146  -14.5228 C   0  0  0  0  0  0  0  0  0  0  0  0
   35.9352  -35.4038  -13.4819 S   0  0  0  0  0  0  0  0  0  0  0  0
   36.0669  -35.3902  -16.4676 C   0  0  0  0  0  0  0  0  0  0  0  0
   36.6052  -36.6334  -16.1867 O   0  0  0  0  0  0  0  0  0  0  0  0
   35.0993  -35.2628  -17.2275 O   0  0  0  0  0  0  0  0  0  0  0  0
  1  5  1  0
  1  2  1  0
  2  3  1  0
  4  3  1  0
  5  4  1  0
  5  6  1  6
  6 13  1  0
  7  6  2  0
  8  9  1  0
 10  9  1  0
 11 10  1  0
 12 11  1  6
 12 13  1  0
 12 14  1  0
 14 15  2  0
 14 16  1  0
 16 17  1  0
 17 18  1  1
 17 20  1  0
 18 19  1  0
 20 21  1  0
 22 20  2  0
M  END
$$$$
