PMC.pdb
     RDKit          3D

 22 22  0  0  1  0  0  0  0  0999 V2000
   27.1016  -18.7934  -15.0971 N   0  0  0  0  0  0  0  0  0  0  0  0
   28.3001  -18.2852  -15.7803 C   0  0  0  0  0  0  0  0  0  0  0  0
   29.3717  -19.1499  -15.1235 C   0  0  0  0  0  0  0  0  0  0  0  0
   28.7119  -20.5089  -15.0040 C   0  0  0  0  0  0  0  0  0  0  0  0
   27.2710  -20.2356  -15.3196 C   0  0  1  0  0  0  0  0  0  0  0  0
   26.3309  -20.9715  -14.4753 C   0  0  0  0  0  0  0  0  0  0  0  0
   26.3177  -22.2237  -14.5152 O   0  0  0  0  0  0  0  0  0  0  0  0
   24.8429  -20.6417   -8.2876 C   0  0  0  0  0  0  0  0  0  0  0  0
   26.3941  -20.4387   -9.2069 S   0  0  0  0  0  0  0  0  0  0  0  0
   26.1141  -21.1540  -10.8687 C   0  0  0  0  0  0  0  0  0  0  0  0
   24.8218  -20.6089  -11.3694 C   0  0  0  0  0  0  0  0  0  0  0  0
   24.5470  -21.1347  -12.7744 C   0  0  2  0  0  0  0  0  0  0  0  0
   25.4373  -20.2973  -13.6155 N   0  0  0  0  0  0  0  0  0  0  0  0
   23.1460  -20.9275  -13.1884 C   0  0  0  0  0  0  0  0  0  0  0  0
   22.7167  -19.7522  -13.3700 O   0  0  0  0  0  0  0  0  0  0  0  0
   22.1980  -21.9568  -13.4162 N   0  0  0  0  0  0  0  0  0  0  0  0
   20.8358  -21.6665  -13.8178 C   0  0  1  0  0  0  0  0  0  0  0  0
   20.4050  -22.7842  -14.7475 C   0  0  0  0  0  0  0  0  0  0  0  0
   18.6504  -22.6070  -15.1868 S   0  0  0  0  0  0  0  0  0  0  0  0
   19.9160  -21.5958  -12.6700 C   0  0  0  0  0  0  0  0  0  0  0  0
   18.9181  -20.6376  -12.6830 O   0  0  0  0  0  0  0  0  0  0  0  0
   20.0441  -22.3811  -11.7229 O   0  0  0  0  0  0  0  0  0  0  0  0
  1  5  1  0
  1  2  1  0
  2  3  1  0
  4  3  1  0
  5  4  1  0
  5  6  1  1
  6 13  1  0
  7  6  2  0
  8  9  1  0
 10  9  1  0
 11 10  1  0
 12 11  1  1
 12 13  1  0
 12 14  1  0
 14 15  2  0
 14 16  1  0
 16 17  1  0
 17 18  1  6
 17 20  1  0
 18 19  1  0
 20 21  1  0
 22 20  2  0
M  END
$$$$
