PMC.pdb
     RDKit          3D

 22 22  0  0  1  0  0  0  0  0999 V2000
   26.7784  -17.9011  -15.1587 N   0  0  0  0  0  0  0  0  0  0  0  0
   27.9061  -17.2000  -15.7896 C   0  0  0  0  0  0  0  0  0  0  0  0
   29.0571  -18.1100  -15.3715 C   0  0  0  0  0  0  0  0  0  0  0  0
   28.4724  -19.5033  -15.4874 C   0  0  0  0  0  0  0  0  0  0  0  0
   27.0032  -19.2605  -15.6686 C   0  0  1  0  0  0  0  0  0  0  0  0
   26.1540  -20.2003  -14.9380 C   0  0  0  0  0  0  0  0  0  0  0  0
   26.0729  -21.3881  -15.3282 O   0  0  0  0  0  0  0  0  0  0  0  0
   25.0617  -20.5664   -8.7522 C   0  0  0  0  0  0  0  0  0  0  0  0
   26.6558  -20.8882   -9.5570 S   0  0  0  0  0  0  0  0  0  0  0  0
   26.2910  -21.2437  -11.3154 C   0  0  0  0  0  0  0  0  0  0  0  0
   24.9896  -20.5936  -11.6341 C   0  0  0  0  0  0  0  0  0  0  0  0
   24.6339  -20.8353  -13.0974 C   0  0  2  0  0  0  0  0  0  0  0  0
   25.4234  -19.7944  -13.8007 N   0  0  0  0  0  0  0  0  0  0  0  0
   23.1986  -20.6274  -13.3690 C   0  0  0  0  0  0  0  0  0  0  0  0
   22.7063  -19.4671  -13.2675 O   0  0  0  0  0  0  0  0  0  0  0  0
   22.2821  -21.6389  -13.7522 N   0  0  0  0  0  0  0  0  0  0  0  0
   20.8789  -21.3539  -13.9775 C   0  0  1  0  0  0  0  0  0  0  0  0
   20.4423  -22.2032  -15.1553 C   0  0  0  0  0  0  0  0  0  0  0  0
   21.5180  -21.9050  -16.5895 S   0  0  0  0  0  0  0  0  0  0  0  0
   20.0472  -21.6706  -12.8042 C   0  0  0  0  0  0  0  0  0  0  0  0
   18.7076  -21.3261  -12.8334 O   0  0  0  0  0  0  0  0  0  0  0  0
   20.5478  -22.2317  -11.8220 O   0  0  0  0  0  0  0  0  0  0  0  0
  1  5  1  0
  1  2  1  0
  2  3  1  0
  4  3  1  0
  5  4  1  0
  5  6  1  1
  6 13  1  0
  7  6  2  0
  8  9  1  0
 10  9  1  0
 11 10  1  0
 12 11  1  1
 12 13  1  0
 12 14  1  0
 14 15  2  0
 14 16  1  0
 16 17  1  0
 17 18  1  6
 17 20  1  0
 18 19  1  0
 20 21  1  0
 22 20  2  0
M  END
$$$$
