DLE.pdb
     RDKit          3D

 26 25  0  0  1  0  0  0  0  0999 V2000
   18.0619  -11.1140  -18.3360 N   0  0  0  0  0  0  0  0  0  0  0  0
   19.2432  -10.3911  -18.7266 C   0  0  1  0  0  0  0  0  0  0  0  0
   18.8060   -9.1199  -19.4282 C   0  0  0  0  0  0  0  0  0  0  0  0
   18.0990   -9.4105  -20.6914 C   0  0  0  0  0  0  0  0  0  0  0  0
   18.3680  -10.3911  -21.4256 O   0  0  0  0  0  0  0  0  0  0  0  0
   20.0696   -9.9801  -17.5622 C   0  0  0  0  0  0  0  0  0  0  0  0
   19.4517   -9.6618  -16.4849 O   0  0  0  0  0  0  0  0  0  0  0  0
   17.0705   -8.5233  -21.0694 O   0  0  0  0  0  0  0  0  0  0  0  0
   25.8523  -10.2968  -15.5147 C   0  0  0  0  0  0  0  0  0  0  0  0
   24.4950   -9.5991  -15.3228 C   0  0  2  0  0  0  0  0  0  0  0  0
   24.0494   -9.9633  -13.9298 C   0  0  0  0  0  0  0  0  0  0  0  0
   23.6066  -10.0758  -16.3910 C   0  0  0  0  0  0  0  0  0  0  0  0
   22.2552   -9.4895  -16.5002 C   0  0  2  0  0  0  0  0  0  0  0  0
   21.4885   -9.9392  -17.6314 N   0  0  0  0  0  0  0  0  0  0  0  0
   22.2328   -7.9858  -16.4500 C   0  0  0  0  0  0  0  0  0  0  0  0
   22.6808   -7.3327  -17.4292 O   0  0  0  0  0  0  0  0  0  0  0  0
   21.7287   -7.2727  -15.3510 N   0  0  0  0  0  0  0  0  0  0  0  0
   21.7199   -5.7839  -15.2929 C   0  0  1  0  0  0  0  0  0  0  0  0
   20.3645   -5.2664  -15.5551 C   0  0  0  0  0  0  0  0  0  0  0  0
   20.2960   -3.7774  -15.4391 C   0  0  0  0  0  0  0  0  0  0  0  0
   18.9057   -3.2756  -15.7068 C   0  0  0  0  0  0  0  0  0  0  0  0
   17.9452   -4.0502  -15.9626 O   0  0  0  0  0  0  0  0  0  0  0  0
   22.2306   -5.3552  -13.9723 C   0  0  0  0  0  0  0  0  0  0  0  0
   22.7243   -4.0320  -13.8425 O   0  0  0  0  0  0  0  0  0  0  0  0
   18.6455   -1.9051  -15.6732 O   0  0  0  0  0  0  0  0  0  0  0  0
   22.2799   -6.0308  -12.9352 O   0  0  0  0  0  0  0  0  0  0  0  0
  2  1  1  1
  2  3  1  0
  4  8  1  0
  4  3  1  0
  5  4  2  0
  6  7  2  0
  6  2  1  0
 10  9  1  6
 10 11  1  0
 10 12  1  0
 13 12  1  6
 13 14  1  0
 14  6  1  0
 15 16  2  0
 15 13  1  0
 17 15  1  0
 18 19  1  1
 18 17  1  0
 20 19  1  0
 20 21  1  0
 21 22  2  0
 23 18  1  0
 24 23  1  0
 25 21  1  0
 26 23  2  0
M  END
$$$$
