DLE.pdb
     RDKit          3D

 26 25  0  0  1  0  0  0  0  0999 V2000
   19.5948  -13.2858  -16.5387 N   0  0  0  0  0  0  0  0  0  0  0  0
   20.1343  -12.1749  -17.2772 C   0  0  1  0  0  0  0  0  0  0  0  0
   19.0069  -11.1974  -17.5467 C   0  0  0  0  0  0  0  0  0  0  0  0
   17.9273  -11.8167  -18.3411 C   0  0  0  0  0  0  0  0  0  0  0  0
   18.1332  -12.6264  -19.2765 O   0  0  0  0  0  0  0  0  0  0  0  0
   21.1742  -11.4363  -16.5149 C   0  0  0  0  0  0  0  0  0  0  0  0
   20.9398  -11.2003  -15.2767 O   0  0  0  0  0  0  0  0  0  0  0  0
   16.6035  -11.4625  -18.0100 O   0  0  0  0  0  0  0  0  0  0  0  0
   27.1556  -10.7780  -16.2345 C   0  0  0  0  0  0  0  0  0  0  0  0
   25.8384  -10.1070  -15.8094 C   0  0  2  0  0  0  0  0  0  0  0  0
   25.8123  -10.1905  -14.3048 C   0  0  0  0  0  0  0  0  0  0  0  0
   24.7477  -10.8279  -16.4788 C   0  0  0  0  0  0  0  0  0  0  0  0
   23.3727  -10.3025  -16.3547 C   0  0  2  0  0  0  0  0  0  0  0  0
   22.3828  -11.0057  -17.1261 N   0  0  0  0  0  0  0  0  0  0  0  0
   23.2538   -8.8261  -16.6199 C   0  0  0  0  0  0  0  0  0  0  0  0
   23.4182   -8.3985  -17.7930 O   0  0  0  0  0  0  0  0  0  0  0  0
   22.9636   -7.8965  -15.6090 N   0  0  0  0  0  0  0  0  0  0  0  0
   22.7132   -6.4547  -15.8889 C   0  0  1  0  0  0  0  0  0  0  0  0
   21.4934   -6.2922  -16.7010 C   0  0  0  0  0  0  0  0  0  0  0  0
   20.2676   -6.7487  -15.9770 C   0  0  0  0  0  0  0  0  0  0  0  0
   19.0369   -6.5509  -16.8153 C   0  0  0  0  0  0  0  0  0  0  0  0
   18.4862   -5.4258  -16.9523 O   0  0  0  0  0  0  0  0  0  0  0  0
   22.6236   -5.7279  -14.6034 C   0  0  0  0  0  0  0  0  0  0  0  0
   22.5547   -4.3117  -14.6382 O   0  0  0  0  0  0  0  0  0  0  0  0
   18.4677   -7.6392  -17.4777 O   0  0  0  0  0  0  0  0  0  0  0  0
   22.5997   -6.2202  -13.4671 O   0  0  0  0  0  0  0  0  0  0  0  0
  2  1  1  1
  2  3  1  0
  4  8  1  0
  4  3  1  0
  5  4  2  0
  6  7  2  0
  6  2  1  0
 10  9  1  6
 10 11  1  0
 10 12  1  0
 13 12  1  6
 13 14  1  0
 14  6  1  0
 15 16  2  0
 15 13  1  0
 17 15  1  0
 18 19  1  1
 18 17  1  0
 20 19  1  0
 20 21  1  0
 21 22  2  0
 23 18  1  0
 24 23  1  0
 25 21  1  0
 26 23  2  0
M  END
$$$$
