DLE.pdb
     RDKit          3D

 26 25  0  0  1  0  0  0  0  0999 V2000
   26.9853  -22.5426  -16.8462 N   0  0  0  0  0  0  0  0  0  0  0  0
   27.2194  -21.4915  -15.8917 C   0  0  1  0  0  0  0  0  0  0  0  0
   26.9497  -20.1657  -16.5765 C   0  0  0  0  0  0  0  0  0  0  0  0
   28.0601  -19.7779  -17.4690 C   0  0  0  0  0  0  0  0  0  0  0  0
   29.0553  -20.5075  -17.6931 O   0  0  0  0  0  0  0  0  0  0  0  0
   26.3039  -21.5692  -14.7239 C   0  0  0  0  0  0  0  0  0  0  0  0
   25.1843  -22.1707  -14.8927 O   0  0  0  0  0  0  0  0  0  0  0  0
   27.9723  -18.5155  -18.0905 O   0  0  0  0  0  0  0  0  0  0  0  0
   26.1025  -19.8340   -8.7803 C   0  0  0  0  0  0  0  0  0  0  0  0
   25.3059  -20.4335   -9.9517 C   0  0  2  0  0  0  0  0  0  0  0  0
   24.7520  -21.7367   -9.4356 C   0  0  0  0  0  0  0  0  0  0  0  0
   26.2329  -20.5705  -11.0826 C   0  0  0  0  0  0  0  0  0  0  0  0
   25.6945  -20.9990  -12.3897 C   0  0  2  0  0  0  0  0  0  0  0  0
   26.6481  -21.0026  -13.4668 N   0  0  0  0  0  0  0  0  0  0  0  0
   24.4609  -20.2523  -12.8197 C   0  0  0  0  0  0  0  0  0  0  0  0
   24.5687  -19.0556  -13.1970 O   0  0  0  0  0  0  0  0  0  0  0  0
   23.1845  -20.8363  -12.8204 N   0  0  0  0  0  0  0  0  0  0  0  0
   21.9655  -20.1064  -13.2692 C   0  0  1  0  0  0  0  0  0  0  0  0
   21.8701  -20.1193  -14.7404 C   0  0  0  0  0  0  0  0  0  0  0  0
   20.6611  -19.3917  -15.2345 C   0  0  0  0  0  0  0  0  0  0  0  0
   20.3617  -19.7444  -16.6636 C   0  0  0  0  0  0  0  0  0  0  0  0
   20.8067  -20.7895  -17.2092 O   0  0  0  0  0  0  0  0  0  0  0  0
   20.7802  -20.7206  -12.6318 C   0  0  0  0  0  0  0  0  0  0  0  0
   19.6034  -19.9381  -12.5118 O   0  0  0  0  0  0  0  0  0  0  0  0
   19.5610  -18.8992  -17.4326 O   0  0  0  0  0  0  0  0  0  0  0  0
   20.6873  -21.8693  -12.1778 O   0  0  0  0  0  0  0  0  0  0  0  0
  2  1  1  6
  2  3  1  0
  4  8  1  0
  4  3  1  0
  5  4  2  0
  6  7  2  0
  6  2  1  0
 10  9  1  1
 10 11  1  0
 10 12  1  0
 13 12  1  1
 13 14  1  0
 14  6  1  0
 15 16  2  0
 15 13  1  0
 17 15  1  0
 18 19  1  6
 18 17  1  0
 20 19  1  0
 20 21  1  0
 21 22  2  0
 23 18  1  0
 24 23  1  0
 25 21  1  0
 26 23  2  0
M  END
$$$$
