DLE.pdb
     RDKit          3D

 26 25  0  0  1  0  0  0  0  0999 V2000
   43.3838   -7.4467   -5.3895 N   0  0  0  0  0  0  0  0  0  0  0  0
   42.0816   -6.8487   -5.5212 C   0  0  1  0  0  0  0  0  0  0  0  0
   42.2586   -5.3437   -5.5755 C   0  0  0  0  0  0  0  0  0  0  0  0
   42.6250   -4.7905   -4.2565 C   0  0  0  0  0  0  0  0  0  0  0  0
   43.2759   -3.7289   -4.1076 O   0  0  0  0  0  0  0  0  0  0  0  0
   41.3962   -7.2491   -6.7774 C   0  0  0  0  0  0  0  0  0  0  0  0
   42.0790   -7.2010   -7.8615 O   0  0  0  0  0  0  0  0  0  0  0  0
   42.2086   -5.5133   -3.1198 O   0  0  0  0  0  0  0  0  0  0  0  0
   39.7491  -11.1901   -8.3868 C   0  0  0  0  0  0  0  0  0  0  0  0
   38.9126  -10.5036   -7.2936 C   0  0  2  0  0  0  0  0  0  0  0  0
   37.8097  -11.4758   -6.9619 C   0  0  0  0  0  0  0  0  0  0  0  0
   38.4505   -9.2214   -7.8410 C   0  0  0  0  0  0  0  0  0  0  0  0
   39.4311   -8.1290   -8.0058 C   0  0  2  0  0  0  0  0  0  0  0  0
   40.0389   -7.6703   -6.7853 N   0  0  0  0  0  0  0  0  0  0  0  0
   38.9090   -6.9470   -8.7767 C   0  0  0  0  0  0  0  0  0  0  0  0
   38.0932   -6.1645   -8.2215 O   0  0  0  0  0  0  0  0  0  0  0  0
   39.2957   -6.6746  -10.0983 N   0  0  0  0  0  0  0  0  0  0  0  0
   38.7910   -5.4966  -10.8583 C   0  0  1  0  0  0  0  0  0  0  0  0
   39.7944   -5.0501  -11.8419 C   0  0  0  0  0  0  0  0  0  0  0  0
   39.3601   -3.8208  -12.5737 C   0  0  0  0  0  0  0  0  0  0  0  0
   40.3845   -3.4040  -13.5902 C   0  0  0  0  0  0  0  0  0  0  0  0
   41.6100   -3.3055  -13.3135 O   0  0  0  0  0  0  0  0  0  0  0  0
   37.5080   -5.8574  -11.5005 C   0  0  0  0  0  0  0  0  0  0  0  0
   37.2169   -7.2325  -11.6892 O   0  0  0  0  0  0  0  0  0  0  0  0
   39.9866   -3.1133  -14.8956 O   0  0  0  0  0  0  0  0  0  0  0  0
   36.6308   -5.0817  -11.9045 O   0  0  0  0  0  0  0  0  0  0  0  0
  2  1  1  6
  2  3  1  0
  4  8  1  0
  4  3  1  0
  5  4  2  0
  6  7  2  0
  6  2  1  0
 10  9  1  6
 10 11  1  0
 10 12  1  0
 13 12  1  1
 13 14  1  0
 14  6  1  0
 15 16  2  0
 15 13  1  0
 17 15  1  0
 18 19  1  6
 18 17  1  0
 20 19  1  0
 20 21  1  0
 21 22  2  0
 23 18  1  0
 24 23  1  0
 25 21  1  0
 26 23  2  0
M  END
$$$$
