DLE.pdb
     RDKit          3D

 26 25  0  0  1  0  0  0  0  0999 V2000
   20.7497  -13.0673  -18.0681 N   0  0  0  0  0  0  0  0  0  0  0  0
   20.4465  -12.3833  -16.8390 C   0  0  1  0  0  0  0  0  0  0  0  0
   20.1554  -13.4278  -15.7790 C   0  0  0  0  0  0  0  0  0  0  0  0
   18.7527  -13.8850  -15.8356 C   0  0  0  0  0  0  0  0  0  0  0  0
   18.1347  -14.3472  -14.8470 O   0  0  0  0  0  0  0  0  0  0  0  0
   21.5878  -11.5708  -16.3436 C   0  0  0  0  0  0  0  0  0  0  0  0
   21.4616  -11.0182  -15.1937 O   0  0  0  0  0  0  0  0  0  0  0  0
   18.0955  -13.7856  -17.0790 O   0  0  0  0  0  0  0  0  0  0  0  0
   27.6169  -11.1685  -16.7958 C   0  0  0  0  0  0  0  0  0  0  0  0
   26.3645  -10.3919  -16.3550 C   0  0  2  0  0  0  0  0  0  0  0  0
   26.5193  -10.1898  -14.8695 C   0  0  0  0  0  0  0  0  0  0  0  0
   25.1970  -11.1944  -16.7424 C   0  0  0  0  0  0  0  0  0  0  0  0
   23.8526  -10.5977  -16.6057 C   0  0  2  0  0  0  0  0  0  0  0  0
   22.7753  -11.4084  -17.1074 N   0  0  0  0  0  0  0  0  0  0  0  0
   23.7369   -9.2092  -17.1739 C   0  0  0  0  0  0  0  0  0  0  0  0
   23.5717   -9.0659  -18.4141 O   0  0  0  0  0  0  0  0  0  0  0  0
   23.8040   -8.0567  -16.3754 N   0  0  0  0  0  0  0  0  0  0  0  0
   23.7421   -6.6800  -16.9421 C   0  0  1  0  0  0  0  0  0  0  0  0
   23.4465   -5.6995  -15.8815 C   0  0  0  0  0  0  0  0  0  0  0  0
   22.0774   -5.8820  -15.3092 C   0  0  0  0  0  0  0  0  0  0  0  0
   21.8638   -4.9915  -14.1184 C   0  0  0  0  0  0  0  0  0  0  0  0
   21.3441   -3.8476  -14.2146 O   0  0  0  0  0  0  0  0  0  0  0  0
   25.0212   -6.3878  -17.6256 C   0  0  0  0  0  0  0  0  0  0  0  0
   24.9929   -5.5512  -18.7705 O   0  0  0  0  0  0  0  0  0  0  0  0
   22.2450   -5.4286  -12.8493 O   0  0  0  0  0  0  0  0  0  0  0  0
   26.1472   -6.7960  -17.3098 O   0  0  0  0  0  0  0  0  0  0  0  0
  2  1  1  6
  2  3  1  0
  4  8  1  0
  4  3  1  0
  5  4  2  0
  6  7  2  0
  6  2  1  0
 10  9  1  1
 10 11  1  0
 10 12  1  0
 13 12  1  6
 13 14  1  0
 14  6  1  0
 15 16  2  0
 15 13  1  0
 17 15  1  0
 18 19  1  1
 18 17  1  0
 20 19  1  0
 20 21  1  0
 21 22  2  0
 23 18  1  0
 24 23  1  0
 25 21  1  0
 26 23  2  0
M  END
$$$$
