DLE.pdb
     RDKit          3D

 26 25  0  0  1  0  0  0  0  0999 V2000
   27.4034  -21.0924  -17.5108 N   0  0  0  0  0  0  0  0  0  0  0  0
   26.5085  -22.1103  -17.0275 C   0  0  1  0  0  0  0  0  0  0  0  0
   27.2156  -23.4475  -17.1344 C   0  0  0  0  0  0  0  0  0  0  0  0
   27.7714  -23.6632  -18.4852 C   0  0  0  0  0  0  0  0  0  0  0  0
   29.0007  -23.6822  -18.7331 O   0  0  0  0  0  0  0  0  0  0  0  0
   26.1526  -21.9225  -15.5971 C   0  0  0  0  0  0  0  0  0  0  0  0
   25.3959  -22.8058  -15.0579 O   0  0  0  0  0  0  0  0  0  0  0  0
   26.8497  -23.8559  -19.5346 O   0  0  0  0  0  0  0  0  0  0  0  0
   28.3752  -21.7117  -11.6024 C   0  0  0  0  0  0  0  0  0  0  0  0
   28.4996  -20.4479  -12.4703 C   0  0  2  0  0  0  0  0  0  0  0  0
   29.4612  -19.5493  -11.7360 C   0  0  0  0  0  0  0  0  0  0  0  0
   27.1482  -19.8947  -12.6284 C   0  0  0  0  0  0  0  0  0  0  0  0
   26.1888  -20.6099  -13.4945 C   0  0  2  0  0  0  0  0  0  0  0  0
   26.6283  -20.8114  -14.8495 N   0  0  0  0  0  0  0  0  0  0  0  0
   24.8073  -20.0137  -13.5029 C   0  0  0  0  0  0  0  0  0  0  0  0
   24.6044  -18.9449  -14.1374 O   0  0  0  0  0  0  0  0  0  0  0  0
   23.7250  -20.6023  -12.8303 N   0  0  0  0  0  0  0  0  0  0  0  0
   22.3060  -20.2843  -13.1553 C   0  0  1  0  0  0  0  0  0  0  0  0
   22.0487  -20.4890  -14.5926 C   0  0  0  0  0  0  0  0  0  0  0  0
   20.6436  -20.1443  -14.9696 C   0  0  0  0  0  0  0  0  0  0  0  0
   20.0874  -21.1340  -15.9533 C   0  0  0  0  0  0  0  0  0  0  0  0
   20.7547  -21.5606  -16.9334 O   0  0  0  0  0  0  0  0  0  0  0  0
   21.4245  -21.1195  -12.3104 C   0  0  0  0  0  0  0  0  0  0  0  0
   20.1420  -20.6144  -11.9765 O   0  0  0  0  0  0  0  0  0  0  0  0
   18.7870  -21.6139  -15.7929 O   0  0  0  0  0  0  0  0  0  0  0  0
   21.6772  -22.2398  -11.8463 O   0  0  0  0  0  0  0  0  0  0  0  0
  2  1  1  1
  2  3  1  0
  4  8  1  0
  4  3  1  0
  5  4  2  0
  6  7  2  0
  6  2  1  0
 10  9  1  1
 10 11  1  0
 10 12  1  0
 13 12  1  6
 13 14  1  0
 14  6  1  0
 15 16  2  0
 15 13  1  0
 17 15  1  0
 18 19  1  6
 18 17  1  0
 20 19  1  0
 20 21  1  0
 21 22  2  0
 23 18  1  0
 24 23  1  0
 25 21  1  0
 26 23  2  0
M  END
$$$$
