DLE.pdb
     RDKit          3D

 26 25  0  0  1  0  0  0  0  0999 V2000
   18.2649  -24.8731   -7.3910 N   0  0  0  0  0  0  0  0  0  0  0  0
   18.8226  -24.9565   -8.7148 C   0  0  1  0  0  0  0  0  0  0  0  0
   18.0161  -25.9713   -9.5018 C   0  0  0  0  0  0  0  0  0  0  0  0
   18.2267  -27.3431   -8.9980 C   0  0  0  0  0  0  0  0  0  0  0  0
   19.3604  -27.8524   -8.8296 O   0  0  0  0  0  0  0  0  0  0  0  0
   18.7343  -23.6690   -9.4515 C   0  0  0  0  0  0  0  0  0  0  0  0
   17.6236  -23.0315   -9.3916 O   0  0  0  0  0  0  0  0  0  0  0  0
   17.0756  -28.0996   -8.6974 O   0  0  0  0  0  0  0  0  0  0  0  0
   20.9441  -19.6194   -9.4092 C   0  0  0  0  0  0  0  0  0  0  0  0
   21.7472  -20.7463  -10.0809 C   0  0  2  0  0  0  0  0  0  0  0  0
   23.0701  -20.1288  -10.4552 C   0  0  0  0  0  0  0  0  0  0  0  0
   20.9541  -21.2254  -11.2204 C   0  0  0  0  0  0  0  0  0  0  0  0
   19.6908  -21.9420  -10.9506 C   0  0  2  0  0  0  0  0  0  0  0  0
   19.8326  -23.1576  -10.1944 N   0  0  0  0  0  0  0  0  0  0  0  0
   18.8650  -22.2134  -12.1788 C   0  0  0  0  0  0  0  0  0  0  0  0
   19.0927  -23.2520  -12.8538 O   0  0  0  0  0  0  0  0  0  0  0  0
   17.8421  -21.3535  -12.6083 N   0  0  0  0  0  0  0  0  0  0  0  0
   17.0803  -21.5754  -13.8694 C   0  0  1  0  0  0  0  0  0  0  0  0
   15.6537  -21.2606  -13.6713 C   0  0  0  0  0  0  0  0  0  0  0  0
   14.8511  -21.4690  -14.9154 C   0  0  0  0  0  0  0  0  0  0  0  0
   13.4069  -21.1200  -14.6944 C   0  0  0  0  0  0  0  0  0  0  0  0
   12.9770  -20.6886  -13.5912 O   0  0  0  0  0  0  0  0  0  0  0  0
   17.6847  -20.7554  -14.9422 C   0  0  0  0  0  0  0  0  0  0  0  0
   17.8003  -21.3248  -16.2360 O   0  0  0  0  0  0  0  0  0  0  0  0
   12.4910  -21.2686  -15.7366 O   0  0  0  0  0  0  0  0  0  0  0  0
   18.1137  -19.5974  -14.8455 O   0  0  0  0  0  0  0  0  0  0  0  0
  2  1  1  1
  2  3  1  0
  4  8  1  0
  4  3  1  0
  5  4  2  0
  6  7  2  0
  6  2  1  0
 10  9  1  6
 10 11  1  0
 10 12  1  0
 13 12  1  6
 13 14  1  0
 14  6  1  0
 15 16  2  0
 15 13  1  0
 17 15  1  0
 18 19  1  1
 18 17  1  0
 20 19  1  0
 20 21  1  0
 21 22  2  0
 23 18  1  0
 24 23  1  0
 25 21  1  0
 26 23  2  0
M  END
$$$$
