DLE.pdb
     RDKit          3D

 26 25  0  0  1  0  0  0  0  0999 V2000
   18.8127  -11.8944  -18.3419 N   0  0  0  0  0  0  0  0  0  0  0  0
   19.6667  -10.8256  -18.7881 C   0  0  1  0  0  0  0  0  0  0  0  0
   18.7863   -9.7061  -19.3084 C   0  0  0  0  0  0  0  0  0  0  0  0
   18.1925  -10.0437  -20.6174 C   0  0  0  0  0  0  0  0  0  0  0  0
   18.8191  -10.6321  -21.5307 O   0  0  0  0  0  0  0  0  0  0  0  0
   20.4864  -10.2553  -17.6877 C   0  0  0  0  0  0  0  0  0  0  0  0
   19.8644   -9.8262  -16.6520 O   0  0  0  0  0  0  0  0  0  0  0  0
   16.8480   -9.6744  -20.8261 O   0  0  0  0  0  0  0  0  0  0  0  0
   26.2762  -10.3853  -15.6533 C   0  0  0  0  0  0  0  0  0  0  0  0
   24.9075   -9.7038  -15.4850 C   0  0  2  0  0  0  0  0  0  0  0  0
   24.4712  -10.0209  -14.0777 C   0  0  0  0  0  0  0  0  0  0  0  0
   24.0252  -10.2366  -16.5314 C   0  0  0  0  0  0  0  0  0  0  0  0
   22.6686   -9.6685  -16.6686 C   0  0  2  0  0  0  0  0  0  0  0  0
   21.9033  -10.1852  -17.7717 N   0  0  0  0  0  0  0  0  0  0  0  0
   22.6335   -8.1645  -16.6997 C   0  0  0  0  0  0  0  0  0  0  0  0
   23.0774   -7.5616  -17.7124 O   0  0  0  0  0  0  0  0  0  0  0  0
   22.1219   -7.3974  -15.6414 N   0  0  0  0  0  0  0  0  0  0  0  0
   22.1079   -5.9075  -15.6605 C   0  0  1  0  0  0  0  0  0  0  0  0
   20.7466   -5.4089  -15.9287 C   0  0  0  0  0  0  0  0  0  0  0  0
   20.6887   -3.9154  -15.9637 C   0  0  0  0  0  0  0  0  0  0  0  0
   19.2950   -3.4328  -16.2489 C   0  0  0  0  0  0  0  0  0  0  0  0
   18.3216   -4.2212  -16.3858 O   0  0  0  0  0  0  0  0  0  0  0  0
   22.6364   -5.4091  -14.3717 C   0  0  0  0  0  0  0  0  0  0  0  0
   23.2445   -4.1281  -14.3477 O   0  0  0  0  0  0  0  0  0  0  0  0
   19.0463   -2.0649  -16.3677 O   0  0  0  0  0  0  0  0  0  0  0  0
   22.6107   -5.9912  -13.2786 O   0  0  0  0  0  0  0  0  0  0  0  0
  2  1  1  1
  2  3  1  0
  4  8  1  0
  4  3  1  0
  5  4  2  0
  6  7  2  0
  6  2  1  0
 10  9  1  6
 10 11  1  0
 10 12  1  0
 13 12  1  6
 13 14  1  0
 14  6  1  0
 15 16  2  0
 15 13  1  0
 17 15  1  0
 18 19  1  1
 18 17  1  0
 20 19  1  0
 20 21  1  0
 21 22  2  0
 23 18  1  0
 24 23  1  0
 25 21  1  0
 26 23  2  0
M  END
$$$$
