DLE.pdb
     RDKit          3D

 26 25  0  0  1  0  0  0  0  0999 V2000
   27.7937  -37.7971   -5.0347 N   0  0  0  0  0  0  0  0  0  0  0  0
   28.5831  -36.6558   -5.4154 C   0  0  1  0  0  0  0  0  0  0  0  0
   29.1956  -36.9396   -6.7733 C   0  0  0  0  0  0  0  0  0  0  0  0
   30.2832  -37.9341   -6.6830 C   0  0  0  0  0  0  0  0  0  0  0  0
   30.6228  -38.4935   -5.6131 O   0  0  0  0  0  0  0  0  0  0  0  0
   27.7674  -35.4221   -5.5583 C   0  0  0  0  0  0  0  0  0  0  0  0
   28.1896  -34.3656   -4.9671 O   0  0  0  0  0  0  0  0  0  0  0  0
   30.9598  -38.2546   -7.8777 O   0  0  0  0  0  0  0  0  0  0  0  0
   27.2868  -32.6546   -8.5820 C   0  0  0  0  0  0  0  0  0  0  0  0
   26.3367  -33.8332   -8.8539 C   0  0  2  0  0  0  0  0  0  0  0  0
   25.7662  -33.5810  -10.2259 C   0  0  0  0  0  0  0  0  0  0  0  0
   25.3419  -33.8476   -7.7734 C   0  0  0  0  0  0  0  0  0  0  0  0
   25.7853  -34.2007   -6.4094 C   0  0  2  0  0  0  0  0  0  0  0  0
   26.5667  -35.4052   -6.3183 N   0  0  0  0  0  0  0  0  0  0  0  0
   24.6736  -34.2509   -5.3965 C   0  0  0  0  0  0  0  0  0  0  0  0
   23.7188  -35.0529   -5.5732 O   0  0  0  0  0  0  0  0  0  0  0  0
   24.6545  -33.4374   -4.2528 N   0  0  0  0  0  0  0  0  0  0  0  0
   23.7539  -33.6977   -3.0947 C   0  0  1  0  0  0  0  0  0  0  0  0
   23.8923  -35.0928   -2.6383 C   0  0  0  0  0  0  0  0  0  0  0  0
   22.9889  -35.4032   -1.4882 C   0  0  0  0  0  0  0  0  0  0  0  0
   23.2026  -36.8053   -0.9932 C   0  0  0  0  0  0  0  0  0  0  0  0
   24.3411  -37.2451   -0.6797 O   0  0  0  0  0  0  0  0  0  0  0  0
   24.0665  -32.7299   -2.0204 C   0  0  0  0  0  0  0  0  0  0  0  0
   23.1443  -32.5948   -0.9514 O   0  0  0  0  0  0  0  0  0  0  0  0
   22.1137  -37.6684   -0.8656 O   0  0  0  0  0  0  0  0  0  0  0  0
   25.0656  -32.0024   -1.9380 O   0  0  0  0  0  0  0  0  0  0  0  0
  2  1  1  6
  2  3  1  0
  4  8  1  0
  4  3  1  0
  5  4  2  0
  6  7  2  0
  6  2  1  0
 10  9  1  1
 10 11  1  0
 10 12  1  0
 13 12  1  6
 13 14  1  0
 14  6  1  0
 15 16  2  0
 15 13  1  0
 17 15  1  0
 18 19  1  1
 18 17  1  0
 20 19  1  0
 20 21  1  0
 21 22  2  0
 23 18  1  0
 24 23  1  0
 25 21  1  0
 26 23  2  0
M  END
$$$$
