GGD.pdb
     RDKit          3D

 17 16  0  0  1  0  0  0  0  0999 V2000
   12.8872   -8.7759   -6.8073 N   0  0  0  0  0  0  0  0  0  0  0  0
   14.2451   -8.8019   -7.2647 C   0  0  0  0  0  0  0  0  0  0  0  0
   14.3606   -8.2425   -8.6347 C   0  0  0  0  0  0  0  0  0  0  0  0
   13.3027   -7.8129   -9.1671 O   0  0  0  0  0  0  0  0  0  0  0  0
   15.5967   -8.1855   -9.3288 N   0  0  0  0  0  0  0  0  0  0  0  0
   15.6438   -7.5392  -10.6102 C   0  0  0  0  0  0  0  0  0  0  0  0
   17.0145   -7.6210  -11.2092 C   0  0  0  0  0  0  0  0  0  0  0  0
   18.0098   -7.8508  -10.4825 O   0  0  0  0  0  0  0  0  0  0  0  0
   17.2374   -7.4448  -12.5971 N   0  0  0  0  0  0  0  0  0  0  0  0
   18.5532   -7.5177  -13.1969 C   0  0  1  0  0  0  0  0  0  0  0  0
   18.5655   -8.3727  -14.4356 C   0  0  0  0  0  0  0  0  0  0  0  0
   17.9535   -9.6906  -14.2677 C   0  0  0  0  0  0  0  0  0  0  0  0
   18.5475  -10.5841  -13.6245 O   0  0  0  0  0  0  0  0  0  0  0  0
   19.0592   -6.1654  -13.4073 C   0  0  0  0  0  0  0  0  0  0  0  0
   20.2616   -5.8856  -13.6702 O   0  0  0  0  0  0  0  0  0  0  0  0
   16.7167  -10.0051  -14.7998 O   0  0  0  0  0  0  0  0  0  0  0  0
   18.1837   -5.0974  -13.3184 O   0  0  0  0  0  0  0  0  0  0  0  0
  1  2  1  0
  3  2  1  0
  3  4  2  0
  5  6  1  0
  5  3  1  0
  7  8  2  0
  7  6  1  0
  9  7  1  0
 10  9  1  0
 10 14  1  0
 10 11  1  6
 12 16  1  0
 12 11  1  0
 13 12  2  0
 14 17  1  0
 15 14  2  0
M  END
$$$$
