GGD.pdb
     RDKit          3D

 17 16  0  0  1  0  0  0  0  0999 V2000
   12.4463   -9.9729   -8.4635 N   0  0  0  0  0  0  0  0  0  0  0  0
   13.8034   -9.8343   -8.9028 C   0  0  0  0  0  0  0  0  0  0  0  0
   14.2374   -8.4153   -8.8641 C   0  0  0  0  0  0  0  0  0  0  0  0
   13.3777   -7.5647   -8.5112 O   0  0  0  0  0  0  0  0  0  0  0  0
   15.5554   -8.0159   -9.2053 N   0  0  0  0  0  0  0  0  0  0  0  0
   15.9897   -6.6909   -8.8621 C   0  0  0  0  0  0  0  0  0  0  0  0
   17.3565   -6.4097   -9.4070 C   0  0  0  0  0  0  0  0  0  0  0  0
   18.3721   -6.6010   -8.6974 O   0  0  0  0  0  0  0  0  0  0  0  0
   17.5532   -5.9244  -10.7233 N   0  0  0  0  0  0  0  0  0  0  0  0
   18.8301   -5.9907  -11.4025 C   0  0  1  0  0  0  0  0  0  0  0  0
   19.2112   -7.4027  -11.7581 C   0  0  0  0  0  0  0  0  0  0  0  0
   20.4546   -7.5208  -12.5192 C   0  0  0  0  0  0  0  0  0  0  0  0
   20.6107   -6.8703  -13.5763 O   0  0  0  0  0  0  0  0  0  0  0  0
   18.8149   -5.0782  -12.5410 C   0  0  0  0  0  0  0  0  0  0  0  0
   17.7748   -4.7391  -13.1707 O   0  0  0  0  0  0  0  0  0  0  0  0
   21.4941   -8.3387  -12.1161 O   0  0  0  0  0  0  0  0  0  0  0  0
   20.0075   -4.5322  -12.9823 O   0  0  0  0  0  0  0  0  0  0  0  0
  1  2  1  0
  3  2  1  0
  3  4  2  0
  5  6  1  0
  5  3  1  0
  7  8  2  0
  7  6  1  0
  9  7  1  0
 10  9  1  0
 10 14  1  0
 10 11  1  6
 12 16  1  0
 12 11  1  0
 13 12  2  0
 14 17  1  0
 15 14  2  0
M  END
$$$$
