GGD.pdb
     RDKit          3D

 17 16  0  0  1  0  0  0  0  0999 V2000
   19.7302  -11.4362  -16.3807 N   0  0  0  0  0  0  0  0  0  0  0  0
   20.1936  -10.1801  -16.8918 C   0  0  0  0  0  0  0  0  0  0  0  0
   21.2356   -9.5944  -16.0118 C   0  0  0  0  0  0  0  0  0  0  0  0
   22.4257   -9.9516  -16.2201 O   0  0  0  0  0  0  0  0  0  0  0  0
   20.9252   -8.6733  -14.9782 N   0  0  0  0  0  0  0  0  0  0  0  0
   21.9939   -8.1351  -14.1844 C   0  0  0  0  0  0  0  0  0  0  0  0
   22.3538   -6.7498  -14.6265 C   0  0  0  0  0  0  0  0  0  0  0  0
   23.4572   -6.5287  -15.1791 O   0  0  0  0  0  0  0  0  0  0  0  0
   21.4771   -5.6525  -14.4412 N   0  0  0  0  0  0  0  0  0  0  0  0
   21.7607   -4.3260  -14.9475 C   0  0  1  0  0  0  0  0  0  0  0  0
   20.6107   -3.7627  -15.7385 C   0  0  0  0  0  0  0  0  0  0  0  0
   20.3218   -4.4790  -16.9806 C   0  0  0  0  0  0  0  0  0  0  0  0
   21.1535   -4.4810  -17.9152 O   0  0  0  0  0  0  0  0  0  0  0  0
   22.1924   -3.4744  -13.8441 C   0  0  0  0  0  0  0  0  0  0  0  0
   22.5872   -2.2825  -13.9741 O   0  0  0  0  0  0  0  0  0  0  0  0
   19.1421   -5.1729  -17.1773 O   0  0  0  0  0  0  0  0  0  0  0  0
   22.1784   -3.9817  -12.5567 O   0  0  0  0  0  0  0  0  0  0  0  0
  1  2  1  0
  3  2  1  0
  3  4  2  0
  5  6  1  0
  5  3  1  0
  7  8  2  0
  7  6  1  0
  9  7  1  0
 10  9  1  0
 10 14  1  0
 10 11  1  1
 12 16  1  0
 12 11  1  0
 13 12  2  0
 14 17  1  0
 15 14  2  0
M  END
$$$$
