GGD.pdb
     RDKit          3D

 17 16  0  0  1  0  0  0  0  0999 V2000
   18.9509  -15.2770  -17.0846 N   0  0  0  0  0  0  0  0  0  0  0  0
   19.2738  -13.9924  -17.6315 C   0  0  0  0  0  0  0  0  0  0  0  0
   19.8940  -13.1141  -16.6082 C   0  0  0  0  0  0  0  0  0  0  0  0
   19.5963  -13.3407  -15.4052 O   0  0  0  0  0  0  0  0  0  0  0  0
   20.7834  -12.0627  -16.9496 N   0  0  0  0  0  0  0  0  0  0  0  0
   21.2175  -11.1596  -15.9211 C   0  0  0  0  0  0  0  0  0  0  0  0
   20.6948   -9.7759  -16.1578 C   0  0  0  0  0  0  0  0  0  0  0  0
   20.5791   -9.3344  -17.3255 O   0  0  0  0  0  0  0  0  0  0  0  0
   20.3165   -8.9249  -15.0903 N   0  0  0  0  0  0  0  0  0  0  0  0
   19.9155   -7.5477  -15.2875 C   0  0  1  0  0  0  0  0  0  0  0  0
   18.7313   -7.1741  -14.4369 C   0  0  0  0  0  0  0  0  0  0  0  0
   17.4958   -7.8801  -14.7756 C   0  0  0  0  0  0  0  0  0  0  0  0
   17.1509   -8.0087  -15.9713 O   0  0  0  0  0  0  0  0  0  0  0  0
   21.0739   -6.6803  -15.1015 C   0  0  0  0  0  0  0  0  0  0  0  0
   22.2230   -7.0844  -14.7707 O   0  0  0  0  0  0  0  0  0  0  0  0
   16.6683   -8.4270  -13.8124 O   0  0  0  0  0  0  0  0  0  0  0  0
   20.9323   -5.3172  -15.2940 O   0  0  0  0  0  0  0  0  0  0  0  0
  1  2  1  0
  3  2  1  0
  3  4  2  0
  5  6  1  0
  5  3  1  0
  7  8  2  0
  7  6  1  0
  9  7  1  0
 10  9  1  0
 10 14  1  0
 10 11  1  1
 12 16  1  0
 12 11  1  0
 13 12  2  0
 14 17  1  0
 15 14  2  0
M  END
$$$$
