GGD.pdb
     RDKit          3D

 17 16  0  0  1  0  0  0  0  0999 V2000
   19.7507  -14.7683  -18.4630 N   0  0  0  0  0  0  0  0  0  0  0  0
   20.8261  -13.9582  -17.9720 C   0  0  0  0  0  0  0  0  0  0  0  0
   20.6165  -12.5276  -18.3077 C   0  0  0  0  0  0  0  0  0  0  0  0
   20.4732  -12.2421  -19.5264 O   0  0  0  0  0  0  0  0  0  0  0  0
   20.5764  -11.5139  -17.3158 N   0  0  0  0  0  0  0  0  0  0  0  0
   20.3088  -10.1612  -17.7165 C   0  0  0  0  0  0  0  0  0  0  0  0
   20.4321   -9.2179  -16.5593 C   0  0  0  0  0  0  0  0  0  0  0  0
   20.2079   -9.6160  -15.3919 O   0  0  0  0  0  0  0  0  0  0  0  0
   20.8006   -7.8613  -16.7344 N   0  0  0  0  0  0  0  0  0  0  0  0
   20.8637   -6.9166  -15.6390 C   0  0  1  0  0  0  0  0  0  0  0  0
   22.2774   -6.5073  -15.3234 C   0  0  0  0  0  0  0  0  0  0  0  0
   22.3934   -5.4780  -14.2906 C   0  0  0  0  0  0  0  0  0  0  0  0
   21.8662   -5.6483  -13.1690 O   0  0  0  0  0  0  0  0  0  0  0  0
   19.9731   -5.7958  -15.9212 C   0  0  0  0  0  0  0  0  0  0  0  0
   19.5838   -4.9587  -15.0604 O   0  0  0  0  0  0  0  0  0  0  0  0
   23.0759   -4.2938  -14.4996 O   0  0  0  0  0  0  0  0  0  0  0  0
   19.5078   -5.6138  -17.2117 O   0  0  0  0  0  0  0  0  0  0  0  0
  1  2  1  0
  3  2  1  0
  3  4  2  0
  5  6  1  0
  5  3  1  0
  7  8  2  0
  7  6  1  0
  9  7  1  0
 10  9  1  0
 10 14  1  0
 10 11  1  6
 12 16  1  0
 12 11  1  0
 13 12  2  0
 14 17  1  0
 15 14  2  0
M  END
$$$$
