GGD.pdb
     RDKit          3D

 17 16  0  0  1  0  0  0  0  0999 V2000
   33.9755  -33.5105   -7.3793 N   0  0  0  0  0  0  0  0  0  0  0  0
   33.3911  -34.0876   -6.2049 C   0  0  0  0  0  0  0  0  0  0  0  0
   32.0612  -33.4930   -5.9199 C   0  0  0  0  0  0  0  0  0  0  0  0
   31.6947  -32.5361   -6.6527 O   0  0  0  0  0  0  0  0  0  0  0  0
   31.2270  -33.9670   -4.8747 N   0  0  0  0  0  0  0  0  0  0  0  0
   30.0095  -33.2628   -4.5853 C   0  0  0  0  0  0  0  0  0  0  0  0
   29.2607  -33.9124   -3.4621 C   0  0  0  0  0  0  0  0  0  0  0  0
   28.2029  -33.3993   -3.0267 O   0  0  0  0  0  0  0  0  0  0  0  0
   29.7099  -35.1120   -2.8570 N   0  0  0  0  0  0  0  0  0  0  0  0
   28.9631  -35.7981   -1.8237 C   0  0  1  0  0  0  0  0  0  0  0  0
   28.3912  -37.1033   -2.3085 C   0  0  0  0  0  0  0  0  0  0  0  0
   27.0810  -36.9895   -2.9488 C   0  0  0  0  0  0  0  0  0  0  0  0
   26.4874  -38.0127   -3.3559 O   0  0  0  0  0  0  0  0  0  0  0  0
   29.7976  -35.9245   -0.6334 C   0  0  0  0  0  0  0  0  0  0  0  0
   30.9994  -35.5456   -0.5603 O   0  0  0  0  0  0  0  0  0  0  0  0
   26.4496  -35.7729   -3.1308 O   0  0  0  0  0  0  0  0  0  0  0  0
   29.2611  -36.4947    0.5077 O   0  0  0  0  0  0  0  0  0  0  0  0
  1  2  1  0
  3  2  1  0
  3  4  2  0
  5  6  1  0
  5  3  1  0
  7  8  2  0
  7  6  1  0
  9  7  1  0
 10  9  1  0
 10 14  1  0
 10 11  1  6
 12 16  1  0
 12 11  1  0
 13 12  2  0
 14 17  1  0
 15 14  2  0
M  END
$$$$
