GGD.pdb
     RDKit          3D

 17 16  0  0  1  0  0  0  0  0999 V2000
   17.5042  -14.4687  -16.2166 N   0  0  0  0  0  0  0  0  0  0  0  0
   17.8220  -13.3534  -15.3747 C   0  0  0  0  0  0  0  0  0  0  0  0
   17.6886  -12.0710  -16.1101 C   0  0  0  0  0  0  0  0  0  0  0  0
   16.5254  -11.6043  -16.2377 O   0  0  0  0  0  0  0  0  0  0  0  0
   18.8078  -11.3874  -16.6515 N   0  0  0  0  0  0  0  0  0  0  0  0
   18.6031  -10.1174  -17.2896 C   0  0  0  0  0  0  0  0  0  0  0  0
   18.7593   -8.9895  -16.3162 C   0  0  0  0  0  0  0  0  0  0  0  0
   17.9605   -8.8656  -15.3580 O   0  0  0  0  0  0  0  0  0  0  0  0
   19.7981   -8.0339  -16.4370 N   0  0  0  0  0  0  0  0  0  0  0  0
   19.9886   -6.9564  -15.4888 C   0  0  1  0  0  0  0  0  0  0  0  0
   21.3130   -7.0519  -14.7799 C   0  0  0  0  0  0  0  0  0  0  0  0
   21.4297   -8.1877  -13.8656 C   0  0  0  0  0  0  0  0  0  0  0  0
   21.9750   -9.2481  -14.2442 O   0  0  0  0  0  0  0  0  0  0  0  0
   19.7698   -5.6810  -16.1628 C   0  0  0  0  0  0  0  0  0  0  0  0
   19.7822   -4.5576  -15.5873 O   0  0  0  0  0  0  0  0  0  0  0  0
   20.9539   -8.1450  -12.5681 O   0  0  0  0  0  0  0  0  0  0  0  0
   19.5300   -5.6720  -17.5257 O   0  0  0  0  0  0  0  0  0  0  0  0
  1  2  1  0
  3  2  1  0
  3  4  2  0
  5  6  1  0
  5  3  1  0
  7  8  2  0
  7  6  1  0
  9  7  1  0
 10  9  1  0
 10 14  1  0
 10 11  1  6
 12 16  1  0
 12 11  1  0
 13 12  2  0
 14 17  1  0
 15 14  2  0
M  END
$$$$
