GGD.pdb
     RDKit          3D

 17 16  0  0  1  0  0  0  0  0999 V2000
   17.7595  -12.2483  -15.6362 N   0  0  0  0  0  0  0  0  0  0  0  0
   18.8979  -11.4328  -15.9411 C   0  0  0  0  0  0  0  0  0  0  0  0
   18.6518  -10.0131  -15.5842 C   0  0  0  0  0  0  0  0  0  0  0  0
   18.4491   -9.2122  -16.5353 O   0  0  0  0  0  0  0  0  0  0  0  0
   18.6414   -9.5600  -14.2397 N   0  0  0  0  0  0  0  0  0  0  0  0
   18.3607   -8.1768  -13.9758 C   0  0  0  0  0  0  0  0  0  0  0  0
   19.5975   -7.4422  -13.5576 C   0  0  0  0  0  0  0  0  0  0  0  0
   20.0382   -7.5590  -12.3898 O   0  0  0  0  0  0  0  0  0  0  0  0
   20.3067   -6.6003  -14.4494 N   0  0  0  0  0  0  0  0  0  0  0  0
   21.5893   -6.0133  -14.1232 C   0  0  1  0  0  0  0  0  0  0  0  0
   22.5584   -6.0926  -15.2721 C   0  0  0  0  0  0  0  0  0  0  0  0
   22.7595   -7.4408  -15.8026 C   0  0  0  0  0  0  0  0  0  0  0  0
   22.5738   -7.6743  -17.0175 O   0  0  0  0  0  0  0  0  0  0  0  0
   21.3821   -4.6604  -13.6173 C   0  0  0  0  0  0  0  0  0  0  0  0
   22.2813   -3.9504  -13.0876 O   0  0  0  0  0  0  0  0  0  0  0  0
   23.1555   -8.4983  -15.0047 O   0  0  0  0  0  0  0  0  0  0  0  0
   20.1240   -4.0917  -13.7114 O   0  0  0  0  0  0  0  0  0  0  0  0
  1  2  1  0
  3  2  1  0
  3  4  2  0
  5  6  1  0
  5  3  1  0
  7  8  2  0
  7  6  1  0
  9  7  1  0
 10  9  1  0
 10 14  1  0
 10 11  1  6
 12 16  1  0
 12 11  1  0
 13 12  2  0
 14 17  1  0
 15 14  2  0
M  END
$$$$
