GGD.pdb
     RDKit          3D

 17 16  0  0  1  0  0  0  0  0999 V2000
   20.9318  -10.9120  -17.8820 N   0  0  0  0  0  0  0  0  0  0  0  0
   22.2481  -10.9137  -17.3153 C   0  0  0  0  0  0  0  0  0  0  0  0
   22.2135  -10.5492  -15.8769 C   0  0  0  0  0  0  0  0  0  0  0  0
   21.2843  -11.0438  -15.1848 O   0  0  0  0  0  0  0  0  0  0  0  0
   23.1738   -9.6851  -15.2903 N   0  0  0  0  0  0  0  0  0  0  0  0
   23.0255   -9.3181  -13.9100 C   0  0  0  0  0  0  0  0  0  0  0  0
   22.2563   -8.0405  -13.7677 C   0  0  0  0  0  0  0  0  0  0  0  0
   22.0821   -7.5296  -12.6362 O   0  0  0  0  0  0  0  0  0  0  0  0
   21.7043   -7.3696  -14.8866 N   0  0  0  0  0  0  0  0  0  0  0  0
   20.9289   -6.1525  -14.7690 C   0  0  1  0  0  0  0  0  0  0  0  0
   21.3482   -5.1132  -15.7737 C   0  0  0  0  0  0  0  0  0  0  0  0
   20.5920   -3.8631  -15.7032 C   0  0  0  0  0  0  0  0  0  0  0  0
   19.6719   -3.6362  -16.5199 O   0  0  0  0  0  0  0  0  0  0  0  0
   19.5086   -6.4829  -14.8184 C   0  0  0  0  0  0  0  0  0  0  0  0
   19.0338   -7.5134  -15.3715 O   0  0  0  0  0  0  0  0  0  0  0  0
   20.8516   -2.8940  -14.7518 O   0  0  0  0  0  0  0  0  0  0  0  0
   18.5970   -5.6262  -14.2268 O   0  0  0  0  0  0  0  0  0  0  0  0
  1  2  1  0
  3  2  1  0
  3  4  2  0
  5  6  1  0
  5  3  1  0
  7  8  2  0
  7  6  1  0
  9  7  1  0
 10  9  1  0
 10 14  1  0
 10 11  1  6
 12 16  1  0
 12 11  1  0
 13 12  2  0
 14 17  1  0
 15 14  2  0
M  END
$$$$
