GGD.pdb
     RDKit          3D

 17 16  0  0  1  0  0  0  0  0999 V2000
   26.6003  -11.3992  -16.0576 N   0  0  0  0  0  0  0  0  0  0  0  0
   25.4548  -12.1883  -15.7125 C   0  0  0  0  0  0  0  0  0  0  0  0
   24.2343  -11.6887  -16.3938 C   0  0  0  0  0  0  0  0  0  0  0  0
   23.1820  -12.3660  -16.2494 O   0  0  0  0  0  0  0  0  0  0  0  0
   24.2333  -10.5049  -17.1760 N   0  0  0  0  0  0  0  0  0  0  0  0
   23.0183  -10.1056  -17.8288 C   0  0  0  0  0  0  0  0  0  0  0  0
   22.6232   -8.7149  -17.4365 C   0  0  0  0  0  0  0  0  0  0  0  0
   21.5372   -8.2301  -17.8331 O   0  0  0  0  0  0  0  0  0  0  0  0
   23.4465   -7.9054  -16.6157 N   0  0  0  0  0  0  0  0  0  0  0  0
   23.0869   -6.5573  -16.2286 C   0  0  1  0  0  0  0  0  0  0  0  0
   22.3306   -6.5232  -14.9277 C   0  0  0  0  0  0  0  0  0  0  0  0
   22.0312   -5.1783  -14.4366 C   0  0  0  0  0  0  0  0  0  0  0  0
   21.4072   -4.3685  -15.1577 O   0  0  0  0  0  0  0  0  0  0  0  0
   24.2826   -5.7210  -16.2391 C   0  0  0  0  0  0  0  0  0  0  0  0
   25.4270   -6.1155  -16.5969 O   0  0  0  0  0  0  0  0  0  0  0  0
   22.4147   -4.7469  -13.1802 O   0  0  0  0  0  0  0  0  0  0  0  0
   24.1848   -4.4013  -15.8344 O   0  0  0  0  0  0  0  0  0  0  0  0
  1  2  1  0
  3  2  1  0
  3  4  2  0
  5  6  1  0
  5  3  1  0
  7  8  2  0
  7  6  1  0
  9  7  1  0
 10  9  1  0
 10 14  1  0
 10 11  1  1
 12 16  1  0
 12 11  1  0
 13 12  2  0
 14 17  1  0
 15 14  2  0
M  END
$$$$
