VSH.pdb
     RDKit          3D

 24 24  0  0  1  0  0  0  0  0999 V2000
    7.9743  -12.4970   18.6890 C   0  0  0  0  0  0  0  0  0  0  0  0
    7.8977  -13.2432   20.0064 C   0  0  2  0  0  0  0  0  0  0  0  0
    8.7277  -12.5235   21.0190 C   0  0  0  0  0  0  0  0  0  0  0  0
    8.3512  -14.6568   19.7522 C   0  0  2  0  0  0  0  0  0  0  0  0
    7.6170  -15.1830   18.6425 N   0  0  0  0  0  0  0  0  0  0  0  0
    8.2392  -15.5046   20.9666 C   0  0  0  0  0  0  0  0  0  0  0  0
    7.1309  -15.8913   21.3678 O   0  0  0  0  0  0  0  0  0  0  0  0
   11.6168  -17.4764   22.2775 O   0  0  0  0  0  0  0  0  0  0  0  0
   10.3584  -17.9565   22.6199 C   0  0  0  0  0  0  0  0  0  0  0  0
    9.3741  -16.8224   22.8055 C   0  0  2  0  0  0  0  0  0  0  0  0
    9.3882  -15.8988   21.7048 N   0  0  0  0  0  0  0  0  0  0  0  0
    9.6184  -16.1173   24.0677 C   0  0  0  0  0  0  0  0  0  0  0  0
   10.5504  -15.2734   24.1288 O   0  0  0  0  0  0  0  0  0  0  0  0
    8.8291  -16.3579   25.2371 N   0  0  0  0  0  0  0  0  0  0  0  0
    9.1336  -15.6862   26.4834 C   0  0  1  0  0  0  0  0  0  0  0  0
    7.8625  -15.2619   27.1946 C   0  0  0  0  0  0  0  0  0  0  0  0
    7.3006  -14.0237   26.5784 C   0  0  0  0  0  0  0  0  0  0  0  0
    7.9236  -13.2270   25.6413 C   0  0  0  0  0  0  0  0  0  0  0  0
    7.1087  -12.2075   25.3273 N   0  0  0  0  0  0  0  0  0  0  0  0
    5.9773  -12.3353   26.0441 C   0  0  0  0  0  0  0  0  0  0  0  0
    6.1153  -13.4502   26.8010 N   0  0  0  0  0  0  0  0  0  0  0  0
    9.9785  -16.5384   27.3311 C   0  0  0  0  0  0  0  0  0  0  0  0
   10.4060  -16.1622   28.4433 O   0  0  0  0  0  0  0  0  0  0  0  0
   10.3163  -17.8053   26.8866 O   0  0  0  0  0  0  0  0  0  0  0  0
  2  1  1  6
  2  4  1  0
  3  2  1  0
  4  6  1  0
  4  5  1  6
  6  7  2  0
  9  8  1  0
 10  9  1  6
 10 12  1  0
 11 10  1  0
 11  6  1  0
 12 13  2  0
 14 12  1  0
 14 15  1  0
 15 22  1  0
 15 16  1  1
 17 21  1  0
 17 16  1  0
 18 17  2  0
 19 18  1  0
 19 20  1  0
 20 21  2  0
 22 23  2  0
 22 24  1  0
M  END
$$$$
