VSH.pdb
     RDKit          3D

 24 24  0  0  1  0  0  0  0  0999 V2000
    7.9905  -12.2258   18.3696 C   0  0  0  0  0  0  0  0  0  0  0  0
    8.4762  -13.4114   19.1800 C   0  0  2  0  0  0  0  0  0  0  0  0
    9.4442  -12.9290   20.2107 C   0  0  0  0  0  0  0  0  0  0  0  0
    9.0696  -14.4051   18.2162 C   0  0  2  0  0  0  0  0  0  0  0  0
    8.1315  -14.6399   17.1616 N   0  0  0  0  0  0  0  0  0  0  0  0
    9.4920  -15.6564   18.8958 C   0  0  0  0  0  0  0  0  0  0  0  0
    8.6590  -16.5251   19.1960 O   0  0  0  0  0  0  0  0  0  0  0  0
   13.4683  -16.7078   18.9571 O   0  0  0  0  0  0  0  0  0  0  0  0
   12.5455  -17.6702   19.3488 C   0  0  0  0  0  0  0  0  0  0  0  0
   11.3236  -17.0320   19.9726 C   0  0  2  0  0  0  0  0  0  0  0  0
   10.8538  -15.8996   19.2231 N   0  0  0  0  0  0  0  0  0  0  0  0
   11.5835  -16.6515   21.3646 C   0  0  0  0  0  0  0  0  0  0  0  0
   12.2792  -15.6296   21.6018 O   0  0  0  0  0  0  0  0  0  0  0  0
   11.0704  -17.4067   22.4668 N   0  0  0  0  0  0  0  0  0  0  0  0
   11.2871  -16.9641   23.8285 C   0  0  1  0  0  0  0  0  0  0  0  0
    9.9799  -16.9160   24.5969 C   0  0  0  0  0  0  0  0  0  0  0  0
    9.0820  -15.8582   24.0460 C   0  0  0  0  0  0  0  0  0  0  0  0
    9.3655  -15.0212   22.9877 C   0  0  0  0  0  0  0  0  0  0  0  0
    8.3181  -14.2062   22.7858 N   0  0  0  0  0  0  0  0  0  0  0  0
    7.3703  -14.5044   23.6930 C   0  0  0  0  0  0  0  0  0  0  0  0
    7.8569  -15.5152   24.4521 N   0  0  0  0  0  0  0  0  0  0  0  0
   12.2825  -17.8174   24.4918 C   0  0  0  0  0  0  0  0  0  0  0  0
   12.7515  -18.8422   23.9523 O   0  0  0  0  0  0  0  0  0  0  0  0
   12.7202  -17.4784   25.7607 O   0  0  0  0  0  0  0  0  0  0  0  0
  2  1  1  6
  2  4  1  0
  3  2  1  0
  4  6  1  0
  4  5  1  6
  6  7  2  0
  9  8  1  0
 10  9  1  6
 10 12  1  0
 11 10  1  0
 11  6  1  0
 12 13  2  0
 14 12  1  0
 14 15  1  0
 15 22  1  0
 15 16  1  1
 17 21  1  0
 17 16  1  0
 18 17  2  0
 19 18  1  0
 19 20  1  0
 20 21  2  0
 22 23  2  0
 22 24  1  0
M  END
$$$$
