VSH.pdb
     RDKit          3D

 24 24  0  0  1  0  0  0  0  0999 V2000
   12.8918  -21.7198   17.1659 C   0  0  0  0  0  0  0  0  0  0  0  0
   11.4107  -21.7686   16.8465 C   0  0  2  0  0  0  0  0  0  0  0  0
   11.2182  -22.4910   15.5530 C   0  0  0  0  0  0  0  0  0  0  0  0
   10.9063  -20.3495   16.8235 C   0  0  2  0  0  0  0  0  0  0  0  0
   11.3886  -19.7090   15.6384 N   0  0  0  0  0  0  0  0  0  0  0  0
   11.2658  -19.6104   18.0607 C   0  0  0  0  0  0  0  0  0  0  0  0
   12.3251  -18.9686   18.1285 O   0  0  0  0  0  0  0  0  0  0  0  0
    8.3816  -19.1183   21.0620 O   0  0  0  0  0  0  0  0  0  0  0  0
    9.4365  -18.2190   20.9635 C   0  0  0  0  0  0  0  0  0  0  0  0
   10.6762  -18.8907   20.4145 C   0  0  2  0  0  0  0  0  0  0  0  0
   10.4157  -19.6130   19.2000 N   0  0  0  0  0  0  0  0  0  0  0  0
   11.2806  -19.7750   21.4158 C   0  0  0  0  0  0  0  0  0  0  0  0
   10.9433  -20.9874   21.4473 O   0  0  0  0  0  0  0  0  0  0  0  0
   12.2451  -19.3034   22.3622 N   0  0  0  0  0  0  0  0  0  0  0  0
   12.7428  -20.1762   23.4050 C   0  0  1  0  0  0  0  0  0  0  0  0
   14.0800  -19.6868   23.9286 C   0  0  0  0  0  0  0  0  0  0  0  0
   15.1426  -20.7108   23.7026 C   0  0  0  0  0  0  0  0  0  0  0  0
   14.9594  -21.9681   23.1674 C   0  0  0  0  0  0  0  0  0  0  0  0
   16.1444  -22.5972   23.1208 N   0  0  0  0  0  0  0  0  0  0  0  0
   17.0819  -21.7683   23.6151 C   0  0  0  0  0  0  0  0  0  0  0  0
   16.4491  -20.6227   23.9643 N   0  0  0  0  0  0  0  0  0  0  0  0
   11.7487  -20.3098   24.4787 C   0  0  0  0  0  0  0  0  0  0  0  0
   10.7048  -19.6241   24.5133 O   0  0  0  0  0  0  0  0  0  0  0  0
   11.9717  -21.2270   25.4914 O   0  0  0  0  0  0  0  0  0  0  0  0
  2  1  1  6
  2  4  1  0
  3  2  1  0
  4  6  1  0
  4  5  1  6
  6  7  2  0
  9  8  1  0
 10  9  1  1
 10 12  1  0
 11 10  1  0
 11  6  1  0
 12 13  2  0
 14 12  1  0
 14 15  1  0
 15 22  1  0
 15 16  1  1
 17 21  1  0
 17 16  1  0
 18 17  2  0
 19 18  1  0
 19 20  1  0
 20 21  2  0
 22 23  2  0
 22 24  1  0
M  END
$$$$
