VSH.pdb
     RDKit          3D

 24 24  0  0  1  0  0  0  0  0999 V2000
    9.1775  -12.4059   19.7992 C   0  0  0  0  0  0  0  0  0  0  0  0
    8.7734  -13.4370   18.7639 C   0  0  2  0  0  0  0  0  0  0  0  0
    7.8891  -12.7851   17.7514 C   0  0  0  0  0  0  0  0  0  0  0  0
    8.1127  -14.5763   19.4946 C   0  0  2  0  0  0  0  0  0  0  0  0
    6.9259  -14.0897   20.1286 N   0  0  0  0  0  0  0  0  0  0  0  0
    9.0398  -15.2396   20.4468 C   0  0  0  0  0  0  0  0  0  0  0  0
    9.1323  -14.8437   21.6188 O   0  0  0  0  0  0  0  0  0  0  0  0
   10.4426  -19.0139   19.5094 O   0  0  0  0  0  0  0  0  0  0  0  0
   10.4140  -18.5948   20.8341 C   0  0  0  0  0  0  0  0  0  0  0  0
   10.6739  -17.1081   20.9414 C   0  0  2  0  0  0  0  0  0  0  0  0
    9.8461  -16.3415   20.0516 N   0  0  0  0  0  0  0  0  0  0  0  0
   12.0898  -16.8053   20.7107 C   0  0  0  0  0  0  0  0  0  0  0  0
   12.4412  -16.3198   19.6037 O   0  0  0  0  0  0  0  0  0  0  0  0
   13.0896  -17.0443   21.7066 N   0  0  0  0  0  0  0  0  0  0  0  0
   14.4612  -16.6346   21.4879 C   0  0  1  0  0  0  0  0  0  0  0  0
   14.5608  -15.1269   21.3509 C   0  0  0  0  0  0  0  0  0  0  0  0
   14.6738  -14.7333   19.9153 C   0  0  0  0  0  0  0  0  0  0  0  0
   14.4969  -15.5629   18.8283 C   0  0  0  0  0  0  0  0  0  0  0  0
   14.6791  -14.8514   17.7047 N   0  0  0  0  0  0  0  0  0  0  0  0
   14.9689  -13.5837   18.0502 C   0  0  0  0  0  0  0  0  0  0  0  0
   14.9605  -13.5335   19.4038 N   0  0  0  0  0  0  0  0  0  0  0  0
   15.3257  -17.1465   22.5599 C   0  0  0  0  0  0  0  0  0  0  0  0
   14.8748  -17.7782   23.5391 O   0  0  0  0  0  0  0  0  0  0  0  0
   16.6902  -16.9238   22.4877 O   0  0  0  0  0  0  0  0  0  0  0  0
  2  1  1  1
  2  4  1  0
  3  2  1  0
  4  6  1  0
  4  5  1  1
  6  7  2  0
  9  8  1  0
 10  9  1  6
 10 12  1  0
 11 10  1  0
 11  6  1  0
 12 13  2  0
 14 12  1  0
 14 15  1  0
 15 22  1  0
 15 16  1  1
 17 21  1  0
 17 16  1  0
 18 17  2  0
 19 18  1  0
 19 20  1  0
 20 21  2  0
 22 23  2  0
 22 24  1  0
M  END
$$$$
