VSH.pdb
     RDKit          3D

 24 24  0  0  1  0  0  0  0  0999 V2000
   13.6620  -21.6728   10.2534 C   0  0  0  0  0  0  0  0  0  0  0  0
   12.3459  -22.1115    9.6423 C   0  0  2  0  0  0  0  0  0  0  0  0
   12.5109  -22.2148    8.1610 C   0  0  0  0  0  0  0  0  0  0  0  0
   11.2979  -21.1146   10.0625 C   0  0  2  0  0  0  0  0  0  0  0  0
   11.4927  -19.9039    9.3252 N   0  0  0  0  0  0  0  0  0  0  0  0
   11.2943  -20.8960   11.5316 C   0  0  0  0  0  0  0  0  0  0  0  0
   11.8292  -19.8902   12.0225 O   0  0  0  0  0  0  0  0  0  0  0  0
    9.2900  -21.8605   15.8069 O   0  0  0  0  0  0  0  0  0  0  0  0
    9.3471  -22.1488   14.4486 C   0  0  0  0  0  0  0  0  0  0  0  0
   10.6588  -21.6915   13.8489 C   0  0  2  0  0  0  0  0  0  0  0  0
   10.6830  -21.8238   12.4183 N   0  0  0  0  0  0  0  0  0  0  0  0
   11.7880  -22.4098   14.4479 C   0  0  0  0  0  0  0  0  0  0  0  0
   12.1622  -23.4987   13.9389 O   0  0  0  0  0  0  0  0  0  0  0  0
   12.4816  -21.9119   15.5966 N   0  0  0  0  0  0  0  0  0  0  0  0
   13.5284  -22.6930   16.2220 C   0  0  1  0  0  0  0  0  0  0  0  0
   14.8565  -21.9618   16.1664 C   0  0  0  0  0  0  0  0  0  0  0  0
   15.4561  -22.0585   14.8027 C   0  0  0  0  0  0  0  0  0  0  0  0
   15.2873  -21.1557   13.7744 C   0  0  0  0  0  0  0  0  0  0  0  0
   15.9793  -21.5804   12.7055 N   0  0  0  0  0  0  0  0  0  0  0  0
   16.5875  -22.7364   13.0286 C   0  0  0  0  0  0  0  0  0  0  0  0
   16.2549  -23.0099   14.3128 N   0  0  0  0  0  0  0  0  0  0  0  0
   13.1524  -23.0442   17.5982 C   0  0  0  0  0  0  0  0  0  0  0  0
   12.4167  -22.3156   18.2977 O   0  0  0  0  0  0  0  0  0  0  0  0
   13.6275  -24.2239   18.1451 O   0  0  0  0  0  0  0  0  0  0  0  0
  2  1  1  1
  2  4  1  0
  3  2  1  0
  4  6  1  0
  4  5  1  6
  6  7  2  0
  9  8  1  0
 10  9  1  1
 10 12  1  0
 11 10  1  0
 11  6  1  0
 12 13  2  0
 14 12  1  0
 14 15  1  0
 15 22  1  0
 15 16  1  1
 17 21  1  0
 17 16  1  0
 18 17  2  0
 19 18  1  0
 19 20  1  0
 20 21  2  0
 22 23  2  0
 22 24  1  0
M  END
$$$$
