VSH.pdb
     RDKit          3D

 24 24  0  0  1  0  0  0  0  0999 V2000
    9.9376  -12.5272   19.5042 C   0  0  0  0  0  0  0  0  0  0  0  0
    8.8711  -13.0071   18.5396 C   0  0  2  0  0  0  0  0  0  0  0  0
    7.5607  -13.0613   19.2551 C   0  0  0  0  0  0  0  0  0  0  0  0
    9.3170  -14.3406   17.9997 C   0  0  2  0  0  0  0  0  0  0  0  0
    8.4803  -14.6923   16.8936 N   0  0  0  0  0  0  0  0  0  0  0  0
    9.3435  -15.3874   19.0532 C   0  0  0  0  0  0  0  0  0  0  0  0
    8.3271  -16.0495   19.3124 O   0  0  0  0  0  0  0  0  0  0  0  0
   13.0862  -16.8333   20.3075 O   0  0  0  0  0  0  0  0  0  0  0  0
   11.9397  -17.6160   20.2423 C   0  0  0  0  0  0  0  0  0  0  0  0
   10.7128  -16.8191   20.6285 C   0  0  2  0  0  0  0  0  0  0  0  0
   10.5245  -15.6643   19.7944 N   0  0  0  0  0  0  0  0  0  0  0  0
   10.7652  -16.4269   22.0404 C   0  0  0  0  0  0  0  0  0  0  0  0
   11.3319  -15.3485   22.3571 O   0  0  0  0  0  0  0  0  0  0  0  0
   10.1910  -17.2330   23.0743 N   0  0  0  0  0  0  0  0  0  0  0  0
   10.3452  -16.8663   24.4667 C   0  0  1  0  0  0  0  0  0  0  0  0
    8.9940  -16.6655   25.1268 C   0  0  0  0  0  0  0  0  0  0  0  0
    8.2471  -15.5505   24.4728 C   0  0  0  0  0  0  0  0  0  0  0  0
    8.2990  -14.2191   24.8273 C   0  0  0  0  0  0  0  0  0  0  0  0
    7.4936  -13.5208   24.0115 N   0  0  0  0  0  0  0  0  0  0  0  0
    6.9275  -14.3778   23.1423 C   0  0  0  0  0  0  0  0  0  0  0  0
    7.4010  -15.6111   23.4414 N   0  0  0  0  0  0  0  0  0  0  0  0
   11.1576  -17.8665   25.1726 C   0  0  0  0  0  0  0  0  0  0  0  0
   11.5737  -18.9048   24.6158 O   0  0  0  0  0  0  0  0  0  0  0  0
   11.4767  -17.6561   26.5033 O   0  0  0  0  0  0  0  0  0  0  0  0
  2  1  1  1
  2  4  1  0
  3  2  1  0
  4  6  1  0
  4  5  1  6
  6  7  2  0
  9  8  1  0
 10  9  1  6
 10 12  1  0
 11 10  1  0
 11  6  1  0
 12 13  2  0
 14 12  1  0
 14 15  1  0
 15 22  1  0
 15 16  1  1
 17 21  1  0
 17 16  1  0
 18 17  2  0
 19 18  1  0
 19 20  1  0
 20 21  2  0
 22 23  2  0
 22 24  1  0
M  END
$$$$
