VSH.pdb
     RDKit          3D

 24 24  0  0  1  0  0  0  0  0999 V2000
    6.8609  -14.3596   17.7899 C   0  0  0  0  0  0  0  0  0  0  0  0
    7.6255  -14.8008   19.0224 C   0  0  2  0  0  0  0  0  0  0  0  0
    6.8771  -15.9117   19.6841 C   0  0  0  0  0  0  0  0  0  0  0  0
    7.8049  -13.5901   19.9003 C   0  0  2  0  0  0  0  0  0  0  0  0
    8.4021  -12.5451   19.1266 N   0  0  0  0  0  0  0  0  0  0  0  0
    8.5756  -13.9036   21.1307 C   0  0  0  0  0  0  0  0  0  0  0  0
    9.8016  -14.0857   21.0797 O   0  0  0  0  0  0  0  0  0  0  0  0
    6.5493  -14.4127   24.8359 O   0  0  0  0  0  0  0  0  0  0  0  0
    7.8357  -13.8870   24.8453 C   0  0  0  0  0  0  0  0  0  0  0  0
    8.6143  -14.3289   23.6255 C   0  0  2  0  0  0  0  0  0  0  0  0
    7.9405  -14.0050   22.3984 N   0  0  0  0  0  0  0  0  0  0  0  0
    8.9093  -15.7640   23.6832 C   0  0  0  0  0  0  0  0  0  0  0  0
    8.0731  -16.5817   23.2178 O   0  0  0  0  0  0  0  0  0  0  0  0
   10.1216  -16.2677   24.2536 N   0  0  0  0  0  0  0  0  0  0  0  0
   10.2789  -17.6824   24.5203 C   0  0  1  0  0  0  0  0  0  0  0  0
   10.1084  -18.4951   23.2505 C   0  0  0  0  0  0  0  0  0  0  0  0
   11.0090  -17.9875   22.1735 C   0  0  0  0  0  0  0  0  0  0  0  0
   11.8263  -16.8798   22.2519 C   0  0  0  0  0  0  0  0  0  0  0  0
   12.4827  -16.7413   21.0892 N   0  0  0  0  0  0  0  0  0  0  0  0
   12.1024  -17.7374   20.2685 C   0  0  0  0  0  0  0  0  0  0  0  0
   11.2027  -18.4863   20.9500 N   0  0  0  0  0  0  0  0  0  0  0  0
   11.5724  -17.9405   25.1675 C   0  0  0  0  0  0  0  0  0  0  0  0
   12.3827  -17.0269   25.4320 O   0  0  0  0  0  0  0  0  0  0  0  0
   11.9111  -19.2415   25.4985 O   0  0  0  0  0  0  0  0  0  0  0  0
  2  1  1  6
  2  4  1  0
  3  2  1  0
  4  6  1  0
  4  5  1  6
  6  7  2  0
  9  8  1  0
 10  9  1  1
 10 12  1  0
 11 10  1  0
 11  6  1  0
 12 13  2  0
 14 12  1  0
 14 15  1  0
 15 22  1  0
 15 16  1  6
 17 21  1  0
 17 16  1  0
 18 17  2  0
 19 18  1  0
 19 20  1  0
 20 21  2  0
 22 23  2  0
 22 24  1  0
M  END
$$$$
