VSH.pdb
     RDKit          3D

 24 24  0  0  1  0  0  0  0  0999 V2000
    7.2582  -13.1709   20.4374 C   0  0  0  0  0  0  0  0  0  0  0  0
    8.7012  -13.1172   19.9757 C   0  0  2  0  0  0  0  0  0  0  0  0
    8.8668  -11.9654   19.0386 C   0  0  0  0  0  0  0  0  0  0  0  0
    9.0267  -14.4498   19.3539 C   0  0  2  0  0  0  0  0  0  0  0  0
    8.3035  -14.5733   18.1255 N   0  0  0  0  0  0  0  0  0  0  0  0
    8.7689  -15.5772   20.2859 C   0  0  0  0  0  0  0  0  0  0  0  0
    7.7162  -16.2293   20.2136 O   0  0  0  0  0  0  0  0  0  0  0  0
   11.7952  -17.7963   21.8695 O   0  0  0  0  0  0  0  0  0  0  0  0
   10.4655  -18.2002   21.8821 C   0  0  0  0  0  0  0  0  0  0  0  0
    9.5465  -17.0407   22.1990 C   0  0  2  0  0  0  0  0  0  0  0  0
    9.7116  -15.9448   21.2845 N   0  0  0  0  0  0  0  0  0  0  0  0
    9.7330  -16.5861   23.5805 C   0  0  0  0  0  0  0  0  0  0  0  0
   10.5469  -15.6551   23.8157 O   0  0  0  0  0  0  0  0  0  0  0  0
    9.0173  -17.1684   24.6747 N   0  0  0  0  0  0  0  0  0  0  0  0
    9.2784  -16.7458   26.0350 C   0  0  1  0  0  0  0  0  0  0  0  0
    7.9874  -16.3939   26.7500 C   0  0  0  0  0  0  0  0  0  0  0  0
    7.4159  -15.1233   26.2137 C   0  0  0  0  0  0  0  0  0  0  0  0
    8.1067  -13.9508   25.9921 C   0  0  0  0  0  0  0  0  0  0  0  0
    7.2576  -13.0316   25.5063 N   0  0  0  0  0  0  0  0  0  0  0  0
    6.0378  -13.5917   25.4124 C   0  0  0  0  0  0  0  0  0  0  0  0
    6.1568  -14.8683   25.8492 N   0  0  0  0  0  0  0  0  0  0  0  0
   10.0406  -17.7758   26.7537 C   0  0  0  0  0  0  0  0  0  0  0  0
   10.2990  -18.8901   26.2510 O   0  0  0  0  0  0  0  0  0  0  0  0
   10.4914  -17.5076   28.0350 O   0  0  0  0  0  0  0  0  0  0  0  0
  2  1  1  6
  2  4  1  0
  3  2  1  0
  4  6  1  0
  4  5  1  6
  6  7  2  0
  9  8  1  0
 10  9  1  6
 10 12  1  0
 11 10  1  0
 11  6  1  0
 12 13  2  0
 14 12  1  0
 14 15  1  0
 15 22  1  0
 15 16  1  1
 17 21  1  0
 17 16  1  0
 18 17  2  0
 19 18  1  0
 19 20  1  0
 20 21  2  0
 22 23  2  0
 22 24  1  0
M  END
$$$$
