VSH.pdb
     RDKit          3D

 24 24  0  0  1  0  0  0  0  0999 V2000
    7.3014  -12.6910   18.6109 C   0  0  0  0  0  0  0  0  0  0  0  0
    8.5270  -13.2935   19.2689 C   0  0  2  0  0  0  0  0  0  0  0  0
    9.4109  -12.1886   19.7488 C   0  0  0  0  0  0  0  0  0  0  0  0
    9.1860  -14.1946   18.2578 C   0  0  2  0  0  0  0  0  0  0  0  0
    8.1917  -15.0511   17.6877 N   0  0  0  0  0  0  0  0  0  0  0  0
   10.3245  -14.9486   18.8421 C   0  0  0  0  0  0  0  0  0  0  0  0
   10.1242  -15.9381   19.5628 O   0  0  0  0  0  0  0  0  0  0  0  0
   14.2380  -14.7434   17.3482 O   0  0  0  0  0  0  0  0  0  0  0  0
   14.1202  -14.5824   18.7235 C   0  0  0  0  0  0  0  0  0  0  0  0
   12.8167  -15.1598   19.2304 C   0  0  2  0  0  0  0  0  0  0  0  0
   11.6715  -14.5657   18.5977 N   0  0  0  0  0  0  0  0  0  0  0  0
   12.7186  -15.0332   20.6878 C   0  0  0  0  0  0  0  0  0  0  0  0
   11.9096  -14.2030   21.1787 O   0  0  0  0  0  0  0  0  0  0  0  0
   13.5155  -15.8254   21.5743 N   0  0  0  0  0  0  0  0  0  0  0  0
   12.9360  -16.4044   22.7685 C   0  0  1  0  0  0  0  0  0  0  0  0
   11.7158  -17.2393   22.4283 C   0  0  0  0  0  0  0  0  0  0  0  0
   10.4631  -16.4572   22.6462 C   0  0  0  0  0  0  0  0  0  0  0  0
   10.3859  -15.1441   23.0596 C   0  0  0  0  0  0  0  0  0  0  0  0
    9.0937  -14.7897   23.1413 N   0  0  0  0  0  0  0  0  0  0  0  0
    8.3425  -15.8489   22.7888 C   0  0  0  0  0  0  0  0  0  0  0  0
    9.1981  -16.8557   22.4905 N   0  0  0  0  0  0  0  0  0  0  0  0
   13.9447  -17.1804   23.5026 C   0  0  0  0  0  0  0  0  0  0  0  0
   14.7198  -17.9783   22.9336 O   0  0  0  0  0  0  0  0  0  0  0  0
   14.0446  -17.0260   24.8748 O   0  0  0  0  0  0  0  0  0  0  0  0
  2  1  1  6
  2  4  1  0
  3  2  1  0
  4  6  1  0
  4  5  1  1
  6  7  2  0
  9  8  1  0
 10  9  1  6
 10 12  1  0
 11 10  1  0
 11  6  1  0
 12 13  2  0
 14 12  1  0
 14 15  1  0
 15 22  1  0
 15 16  1  6
 17 21  1  0
 17 16  1  0
 18 17  2  0
 19 18  1  0
 19 20  1  0
 20 21  2  0
 22 23  2  0
 22 24  1  0
M  END
$$$$
