VSH.pdb
     RDKit          3D

 24 24  0  0  1  0  0  0  0  0999 V2000
    7.9183  -12.3077   18.5690 C   0  0  0  0  0  0  0  0  0  0  0  0
    7.8732  -13.2634   19.7449 C   0  0  2  0  0  0  0  0  0  0  0  0
    8.7455  -12.7310   20.8348 C   0  0  0  0  0  0  0  0  0  0  0  0
    8.2978  -14.6184   19.2427 C   0  0  2  0  0  0  0  0  0  0  0  0
    7.4866  -14.9668   18.1167 N   0  0  0  0  0  0  0  0  0  0  0  0
    8.2616  -15.6461   20.3145 C   0  0  0  0  0  0  0  0  0  0  0  0
    7.1816  -16.0155   20.8000 O   0  0  0  0  0  0  0  0  0  0  0  0
   11.5699  -18.1114   21.1123 O   0  0  0  0  0  0  0  0  0  0  0  0
   10.2829  -18.4320   21.5273 C   0  0  0  0  0  0  0  0  0  0  0  0
    9.5021  -17.1884   21.8921 C   0  0  2  0  0  0  0  0  0  0  0  0
    9.4531  -16.2368   20.8165 N   0  0  0  0  0  0  0  0  0  0  0  0
   10.0454  -16.5642   23.1025 C   0  0  0  0  0  0  0  0  0  0  0  0
   11.0177  -15.7713   23.0006 O   0  0  0  0  0  0  0  0  0  0  0  0
    9.5047  -16.8279   24.4012 N   0  0  0  0  0  0  0  0  0  0  0  0
   10.0490  -16.1744   25.5732 C   0  0  1  0  0  0  0  0  0  0  0  0
    8.9422  -15.5900   26.4307 C   0  0  0  0  0  0  0  0  0  0  0  0
    9.5017  -14.9861   27.6760 C   0  0  0  0  0  0  0  0  0  0  0  0
    9.4080  -15.5111   28.9474 C   0  0  0  0  0  0  0  0  0  0  0  0
   10.0311  -14.6870   29.8046 N   0  0  0  0  0  0  0  0  0  0  0  0
   10.5214  -13.6456   29.1079 C   0  0  0  0  0  0  0  0  0  0  0  0
   10.1872  -13.8480   27.8110 N   0  0  0  0  0  0  0  0  0  0  0  0
   10.8968  -17.1049   26.3309 C   0  0  0  0  0  0  0  0  0  0  0  0
   10.6964  -18.3382   26.3384 O   0  0  0  0  0  0  0  0  0  0  0  0
   11.9577  -16.6026   27.0649 O   0  0  0  0  0  0  0  0  0  0  0  0
  2  1  1  6
  2  4  1  0
  3  2  1  0
  4  6  1  0
  4  5  1  6
  6  7  2  0
  9  8  1  0
 10  9  1  6
 10 12  1  0
 11 10  1  0
 11  6  1  0
 12 13  2  0
 14 12  1  0
 14 15  1  0
 15 22  1  0
 15 16  1  1
 17 21  1  0
 17 16  1  0
 18 17  2  0
 19 18  1  0
 19 20  1  0
 20 21  2  0
 22 23  2  0
 22 24  1  0
M  END
$$$$
