VSH.pdb
     RDKit          3D

 24 24  0  0  1  0  0  0  0  0999 V2000
    7.6472  -12.8052   20.9954 C   0  0  0  0  0  0  0  0  0  0  0  0
    8.6517  -13.2369   19.9453 C   0  0  2  0  0  0  0  0  0  0  0  0
    8.4405  -12.4231   18.7103 C   0  0  0  0  0  0  0  0  0  0  0  0
    8.4714  -14.7165   19.7286 C   0  0  2  0  0  0  0  0  0  0  0  0
    7.2744  -14.9284   18.9739 N   0  0  0  0  0  0  0  0  0  0  0  0
    8.4837  -15.4723   21.0071 C   0  0  0  0  0  0  0  0  0  0  0  0
    7.4902  -15.4744   21.7499 O   0  0  0  0  0  0  0  0  0  0  0  0
   12.0630  -17.3834   22.5762 O   0  0  0  0  0  0  0  0  0  0  0  0
   10.8202  -18.0049   22.5915 C   0  0  0  0  0  0  0  0  0  0  0  0
    9.7017  -16.9865   22.6288 C   0  0  2  0  0  0  0  0  0  0  0  0
    9.6244  -16.2130   21.4203 N   0  0  0  0  0  0  0  0  0  0  0  0
    9.8342  -16.1045   23.7926 C   0  0  0  0  0  0  0  0  0  0  0  0
    9.8184  -14.8574   23.6226 O   0  0  0  0  0  0  0  0  0  0  0  0
    9.9813  -16.6169   25.1209 N   0  0  0  0  0  0  0  0  0  0  0  0
    9.3099  -15.9810   26.2352 C   0  0  1  0  0  0  0  0  0  0  0  0
    7.8168  -15.8842   25.9841 C   0  0  0  0  0  0  0  0  0  0  0  0
    7.3319  -14.4908   26.2127 C   0  0  0  0  0  0  0  0  0  0  0  0
    8.1077  -13.4083   26.5695 C   0  0  0  0  0  0  0  0  0  0  0  0
    7.3194  -12.3276   26.6827 N   0  0  0  0  0  0  0  0  0  0  0  0
    6.0554  -12.6963   26.4057 C   0  0  0  0  0  0  0  0  0  0  0  0
    6.0855  -14.0204   26.1216 N   0  0  0  0  0  0  0  0  0  0  0  0
    9.6110  -16.6897   27.4865 C   0  0  0  0  0  0  0  0  0  0  0  0
    9.4983  -17.9291   27.5976 O   0  0  0  0  0  0  0  0  0  0  0  0
   10.0356  -15.9629   28.5857 O   0  0  0  0  0  0  0  0  0  0  0  0
  2  1  1  1
  2  4  1  0
  3  2  1  0
  4  6  1  0
  4  5  1  1
  6  7  2  0
  9  8  1  0
 10  9  1  6
 10 12  1  0
 11 10  1  0
 11  6  1  0
 12 13  2  0
 14 12  1  0
 14 15  1  0
 15 22  1  0
 15 16  1  6
 17 21  1  0
 17 16  1  0
 18 17  2  0
 19 18  1  0
 19 20  1  0
 20 21  2  0
 22 23  2  0
 22 24  1  0
M  END
$$$$
