VSH.pdb
     RDKit          3D

 24 24  0  0  1  0  0  0  0  0999 V2000
    7.0246  -13.1697   20.8140 C   0  0  0  0  0  0  0  0  0  0  0  0
    8.4052  -13.0655   20.1966 C   0  0  2  0  0  0  0  0  0  0  0  0
    8.3894  -11.9953   19.1541 C   0  0  0  0  0  0  0  0  0  0  0  0
    8.7627  -14.4254   19.6568 C   0  0  2  0  0  0  0  0  0  0  0  0
    7.9364  -14.7018   18.5219 N   0  0  0  0  0  0  0  0  0  0  0  0
    8.6745  -15.4794   20.6996 C   0  0  0  0  0  0  0  0  0  0  0  0
    7.6351  -16.1409   20.8437 O   0  0  0  0  0  0  0  0  0  0  0  0
   10.9340  -18.8721   23.1209 O   0  0  0  0  0  0  0  0  0  0  0  0
   10.9407  -17.8150   22.2189 C   0  0  0  0  0  0  0  0  0  0  0  0
    9.8077  -16.8520   22.4991 C   0  0  2  0  0  0  0  0  0  0  0  0
    9.7687  -15.7640   21.5613 N   0  0  0  0  0  0  0  0  0  0  0  0
    9.8807  -16.3416   23.8717 C   0  0  0  0  0  0  0  0  0  0  0  0
   10.6120  -15.3472   24.1186 O   0  0  0  0  0  0  0  0  0  0  0  0
    9.1449  -16.9389   24.9442 N   0  0  0  0  0  0  0  0  0  0  0  0
    9.3611  -16.5159   26.3122 C   0  0  1  0  0  0  0  0  0  0  0  0
    8.0451  -16.1874   26.9919 C   0  0  0  0  0  0  0  0  0  0  0  0
    7.4903  -14.9013   26.4753 C   0  0  0  0  0  0  0  0  0  0  0  0
    8.1602  -13.6985   26.4005 C   0  0  0  0  0  0  0  0  0  0  0  0
    7.3362  -12.7739   25.8829 N   0  0  0  0  0  0  0  0  0  0  0  0
    6.1529  -13.3601   25.6250 C   0  0  0  0  0  0  0  0  0  0  0  0
    6.2686  -14.6582   25.9939 N   0  0  0  0  0  0  0  0  0  0  0  0
   10.1200  -17.5352   27.0494 C   0  0  0  0  0  0  0  0  0  0  0  0
   10.4255  -18.6370   26.5455 O   0  0  0  0  0  0  0  0  0  0  0  0
   10.5137  -17.2708   28.3501 O   0  0  0  0  0  0  0  0  0  0  0  0
  2  1  1  6
  2  4  1  0
  3  2  1  0
  4  6  1  0
  4  5  1  6
  6  7  2  0
  9  8  1  0
 10  9  1  6
 10 12  1  0
 11 10  1  0
 11  6  1  0
 12 13  2  0
 14 12  1  0
 14 15  1  0
 15 22  1  0
 15 16  1  1
 17 21  1  0
 17 16  1  0
 18 17  2  0
 19 18  1  0
 19 20  1  0
 20 21  2  0
 22 23  2  0
 22 24  1  0
M  END
$$$$
