VSH.pdb
     RDKit          3D

 24 24  0  0  1  0  0  0  0  0999 V2000
    7.6956  -12.3215   18.6726 C   0  0  0  0  0  0  0  0  0  0  0  0
    7.9579  -13.2484   19.8432 C   0  0  2  0  0  0  0  0  0  0  0  0
    8.8342  -12.5467   20.8290 C   0  0  0  0  0  0  0  0  0  0  0  0
    8.5646  -14.5120   19.2921 C   0  0  2  0  0  0  0  0  0  0  0  0
    7.7251  -15.0065   18.2442 N   0  0  0  0  0  0  0  0  0  0  0  0
    8.8098  -15.5213   20.3538 C   0  0  0  0  0  0  0  0  0  0  0  0
    7.8617  -16.0836   20.9228 O   0  0  0  0  0  0  0  0  0  0  0  0
   12.6669  -16.5648   20.9845 O   0  0  0  0  0  0  0  0  0  0  0  0
   11.8101  -17.3685   21.7269 C   0  0  0  0  0  0  0  0  0  0  0  0
   10.4441  -16.7316   21.8606 C   0  0  2  0  0  0  0  0  0  0  0  0
   10.1280  -15.8748   20.7513 N   0  0  0  0  0  0  0  0  0  0  0  0
   10.3299  -15.9958   23.1237 C   0  0  0  0  0  0  0  0  0  0  0  0
   10.2254  -14.7417   23.0961 O   0  0  0  0  0  0  0  0  0  0  0  0
   10.3333  -16.6591   24.3920 N   0  0  0  0  0  0  0  0  0  0  0  0
    9.5408  -16.1507   25.4922 C   0  0  1  0  0  0  0  0  0  0  0  0
    8.0997  -15.9376   25.0686 C   0  0  0  0  0  0  0  0  0  0  0  0
    7.6049  -14.6066   25.5295 C   0  0  0  0  0  0  0  0  0  0  0  0
    8.3364  -13.6601   26.2152 C   0  0  0  0  0  0  0  0  0  0  0  0
    7.5536  -12.5965   26.4555 N   0  0  0  0  0  0  0  0  0  0  0  0
    6.3363  -12.8428   25.9378 C   0  0  0  0  0  0  0  0  0  0  0  0
    6.3895  -14.0748   25.3774 N   0  0  0  0  0  0  0  0  0  0  0  0
    9.6449  -17.0441   26.6539 C   0  0  0  0  0  0  0  0  0  0  0  0
    9.3434  -18.2553   26.5960 O   0  0  0  0  0  0  0  0  0  0  0  0
   10.0926  -16.5308   27.8592 O   0  0  0  0  0  0  0  0  0  0  0  0
  2  1  1  6
  2  4  1  0
  3  2  1  0
  4  6  1  0
  4  5  1  6
  6  7  2  0
  9  8  1  0
 10  9  1  6
 10 12  1  0
 11 10  1  0
 11  6  1  0
 12 13  2  0
 14 12  1  0
 14 15  1  0
 15 22  1  0
 15 16  1  6
 17 21  1  0
 17 16  1  0
 18 17  2  0
 19 18  1  0
 19 20  1  0
 20 21  2  0
 22 23  2  0
 22 24  1  0
M  END
$$$$
