VSH.pdb
     RDKit          3D

 24 24  0  0  1  0  0  0  0  0999 V2000
    7.8737  -12.8647   21.5456 C   0  0  0  0  0  0  0  0  0  0  0  0
    8.5828  -13.2381   20.2588 C   0  0  2  0  0  0  0  0  0  0  0  0
    8.2537  -12.2233   19.2130 C   0  0  0  0  0  0  0  0  0  0  0  0
    8.1547  -14.6359   19.8961 C   0  0  2  0  0  0  0  0  0  0  0  0
    6.7934  -14.6009   19.4571 N   0  0  0  0  0  0  0  0  0  0  0  0
    8.3722  -15.5922   21.0116 C   0  0  0  0  0  0  0  0  0  0  0  0
    7.5276  -15.7164   21.9117 O   0  0  0  0  0  0  0  0  0  0  0  0
   12.1846  -17.5307   21.6563 O   0  0  0  0  0  0  0  0  0  0  0  0
   10.9934  -18.2255   21.8285 C   0  0  0  0  0  0  0  0  0  0  0  0
    9.8576  -17.2849   22.1669 C   0  0  2  0  0  0  0  0  0  0  0  0
    9.5455  -16.3913   21.0859 N   0  0  0  0  0  0  0  0  0  0  0  0
   10.1499  -16.5277   23.3880 C   0  0  0  0  0  0  0  0  0  0  0  0
   10.1859  -15.2704   23.3367 O   0  0  0  0  0  0  0  0  0  0  0  0
   10.3967  -17.1734   24.6413 N   0  0  0  0  0  0  0  0  0  0  0  0
    9.6778  -16.7712   25.8322 C   0  0  1  0  0  0  0  0  0  0  0  0
    8.1792  -16.8066   25.5980 C   0  0  0  0  0  0  0  0  0  0  0  0
    7.6253  -15.4229   25.5115 C   0  0  0  0  0  0  0  0  0  0  0  0
    8.3497  -14.2516   25.5762 C   0  0  0  0  0  0  0  0  0  0  0  0
    7.5071  -13.2130   25.4618 N   0  0  0  0  0  0  0  0  0  0  0  0
    6.2585  -13.6955   25.3253 C   0  0  0  0  0  0  0  0  0  0  0  0
    6.3533  -15.0463   25.3583 N   0  0  0  0  0  0  0  0  0  0  0  0
   10.0744  -17.6044   26.9755 C   0  0  0  0  0  0  0  0  0  0  0  0
    9.9035  -18.8420   26.9929 O   0  0  0  0  0  0  0  0  0  0  0  0
   10.6590  -17.0018   28.0763 O   0  0  0  0  0  0  0  0  0  0  0  0
  2  1  1  1
  2  4  1  0
  3  2  1  0
  4  6  1  0
  4  5  1  1
  6  7  2  0
  9  8  1  0
 10  9  1  6
 10 12  1  0
 11 10  1  0
 11  6  1  0
 12 13  2  0
 14 12  1  0
 14 15  1  0
 15 22  1  0
 15 16  1  6
 17 21  1  0
 17 16  1  0
 18 17  2  0
 19 18  1  0
 19 20  1  0
 20 21  2  0
 22 23  2  0
 22 24  1  0
M  END
$$$$
