VSH.pdb
     RDKit          3D

 24 24  0  0  1  0  0  0  0  0999 V2000
    7.6070  -13.4279   17.2036 C   0  0  0  0  0  0  0  0  0  0  0  0
    8.3868  -13.3584   18.5018 C   0  0  2  0  0  0  0  0  0  0  0  0
    9.7966  -13.7798   18.2424 C   0  0  0  0  0  0  0  0  0  0  0  0
    7.6742  -14.2278   19.5042 C   0  0  2  0  0  0  0  0  0  0  0  0
    6.2903  -13.8648   19.5267 N   0  0  0  0  0  0  0  0  0  0  0  0
    8.3054  -14.1618   20.8471 C   0  0  0  0  0  0  0  0  0  0  0  0
    8.0411  -13.2323   21.6250 O   0  0  0  0  0  0  0  0  0  0  0  0
    8.3853  -16.7676   23.4748 O   0  0  0  0  0  0  0  0  0  0  0  0
    8.9640  -15.5232   23.6934 C   0  0  0  0  0  0  0  0  0  0  0  0
    9.8901  -15.1455   22.5580 C   0  0  2  0  0  0  0  0  0  0  0  0
    9.2262  -15.1528   21.2837 N   0  0  0  0  0  0  0  0  0  0  0  0
   11.0659  -16.0211   22.5270 C   0  0  0  0  0  0  0  0  0  0  0  0
   10.9410  -17.2015   22.1081 O   0  0  0  0  0  0  0  0  0  0  0  0
   12.3558  -15.5761   22.9590 N   0  0  0  0  0  0  0  0  0  0  0  0
   13.4952  -16.4689   22.9195 C   0  0  1  0  0  0  0  0  0  0  0  0
   14.7764  -15.7006   22.6544 C   0  0  0  0  0  0  0  0  0  0  0  0
   14.7906  -15.1614   21.2624 C   0  0  0  0  0  0  0  0  0  0  0  0
   13.8875  -15.4619   20.2648 C   0  0  0  0  0  0  0  0  0  0  0  0
   14.2255  -14.7863   19.1552 N   0  0  0  0  0  0  0  0  0  0  0  0
   15.3261  -14.0598   19.4221 C   0  0  0  0  0  0  0  0  0  0  0  0
   15.6542  -14.3034   20.7135 N   0  0  0  0  0  0  0  0  0  0  0  0
   13.5730  -17.2549   24.1584 C   0  0  0  0  0  0  0  0  0  0  0  0
   12.7999  -17.0647   25.1213 O   0  0  0  0  0  0  0  0  0  0  0  0
   14.5359  -18.2435   24.2683 O   0  0  0  0  0  0  0  0  0  0  0  0
  2  1  1  6
  2  4  1  0
  3  2  1  0
  4  6  1  0
  4  5  1  1
  6  7  2  0
  9  8  1  0
 10  9  1  1
 10 12  1  0
 11 10  1  0
 11  6  1  0
 12 13  2  0
 14 12  1  0
 14 15  1  0
 15 22  1  0
 15 16  1  1
 17 21  1  0
 17 16  1  0
 18 17  2  0
 19 18  1  0
 19 20  1  0
 20 21  2  0
 22 23  2  0
 22 24  1  0
M  END
$$$$
