VSH.pdb
     RDKit          3D

 24 24  0  0  1  0  0  0  0  0999 V2000
   10.0188  -14.3647   17.1459 C   0  0  0  0  0  0  0  0  0  0  0  0
    8.5522  -14.7016   17.3302 C   0  0  2  0  0  0  0  0  0  0  0  0
    7.8917  -14.7361   15.9906 C   0  0  0  0  0  0  0  0  0  0  0  0
    7.9663  -13.6746   18.2632 C   0  0  2  0  0  0  0  0  0  0  0  0
    8.1661  -12.3744   17.7003 N   0  0  0  0  0  0  0  0  0  0  0  0
    8.5153  -13.7937   19.6382 C   0  0  0  0  0  0  0  0  0  0  0  0
    9.4385  -13.0566   20.0165 O   0  0  0  0  0  0  0  0  0  0  0  0
    6.5857  -16.2346   22.5393 O   0  0  0  0  0  0  0  0  0  0  0  0
    7.3621  -15.1379   22.8940 C   0  0  0  0  0  0  0  0  0  0  0  0
    8.4855  -14.9220   21.9037 C   0  0  2  0  0  0  0  0  0  0  0  0
    8.0060  -14.7482   20.5604 N   0  0  0  0  0  0  0  0  0  0  0  0
    9.4547  -16.0208   21.9624 C   0  0  0  0  0  0  0  0  0  0  0  0
    9.2430  -17.0626   21.2884 O   0  0  0  0  0  0  0  0  0  0  0  0
   10.6382  -15.9475   22.7640 N   0  0  0  0  0  0  0  0  0  0  0  0
   11.5325  -17.0820   22.8641 C   0  0  1  0  0  0  0  0  0  0  0  0
   12.0577  -17.4799   21.4975 C   0  0  0  0  0  0  0  0  0  0  0  0
   12.8497  -16.3687   20.8920 C   0  0  0  0  0  0  0  0  0  0  0  0
   12.3613  -15.1385   20.5062 C   0  0  0  0  0  0  0  0  0  0  0  0
   13.3703  -14.4079   20.0063 N   0  0  0  0  0  0  0  0  0  0  0  0
   14.4943  -15.1452   20.0641 C   0  0  0  0  0  0  0  0  0  0  0  0
   14.1542  -16.3383   20.6079 N   0  0  0  0  0  0  0  0  0  0  0  0
   12.6211  -16.7941   23.8079 C   0  0  0  0  0  0  0  0  0  0  0  0
   12.7260  -15.6955   24.3937 O   0  0  0  0  0  0  0  0  0  0  0  0
   13.5678  -17.7720   24.0612 O   0  0  0  0  0  0  0  0  0  0  0  0
  2  1  1  6
  2  4  1  0
  3  2  1  0
  4  6  1  0
  4  5  1  6
  6  7  2  0
  9  8  1  0
 10  9  1  1
 10 12  1  0
 11 10  1  0
 11  6  1  0
 12 13  2  0
 14 12  1  0
 14 15  1  0
 15 22  1  0
 15 16  1  6
 17 21  1  0
 17 16  1  0
 18 17  2  0
 19 18  1  0
 19 20  1  0
 20 21  2  0
 22 23  2  0
 22 24  1  0
M  END
$$$$
