VSH.pdb
     RDKit          3D

 24 24  0  0  1  0  0  0  0  0999 V2000
    7.9828  -16.0599   19.9247 C   0  0  0  0  0  0  0  0  0  0  0  0
    6.8735  -15.0619   20.1926 C   0  0  2  0  0  0  0  0  0  0  0  0
    6.0805  -14.8724   18.9407 C   0  0  0  0  0  0  0  0  0  0  0  0
    7.5163  -13.7957   20.6946 C   0  0  2  0  0  0  0  0  0  0  0  0
    8.3398  -13.2549   19.6569 N   0  0  0  0  0  0  0  0  0  0  0  0
    8.2606  -14.0132   21.9615 C   0  0  0  0  0  0  0  0  0  0  0  0
    9.4764  -14.2591   21.9463 O   0  0  0  0  0  0  0  0  0  0  0  0
    6.1533  -13.9478   25.5916 O   0  0  0  0  0  0  0  0  0  0  0  0
    7.4620  -13.4816   25.6269 C   0  0  0  0  0  0  0  0  0  0  0  0
    8.2780  -14.0609   24.4920 C   0  0  2  0  0  0  0  0  0  0  0  0
    7.6112  -13.9477   23.2242 N   0  0  0  0  0  0  0  0  0  0  0  0
    8.6319  -15.4583   24.7605 C   0  0  0  0  0  0  0  0  0  0  0  0
    7.8259  -16.3688   24.4352 O   0  0  0  0  0  0  0  0  0  0  0  0
    9.8683  -15.8225   25.3828 N   0  0  0  0  0  0  0  0  0  0  0  0
   10.1420  -17.2020   25.7275 C   0  0  1  0  0  0  0  0  0  0  0  0
   11.5824  -17.5625   25.4161 C   0  0  0  0  0  0  0  0  0  0  0  0
   11.8344  -17.5088   23.9456 C   0  0  0  0  0  0  0  0  0  0  0  0
   10.8979  -17.7033   22.9526 C   0  0  0  0  0  0  0  0  0  0  0  0
   11.4983  -17.5771   21.7587 N   0  0  0  0  0  0  0  0  0  0  0  0
   12.7996  -17.3057   21.9672 C   0  0  0  0  0  0  0  0  0  0  0  0
   12.9832  -17.2685   23.3087 N   0  0  0  0  0  0  0  0  0  0  0  0
    9.8051  -17.4545   27.1351 C   0  0  0  0  0  0  0  0  0  0  0  0
    9.4448  -16.5437   27.9109 O   0  0  0  0  0  0  0  0  0  0  0  0
    9.8882  -18.7466   27.6253 O   0  0  0  0  0  0  0  0  0  0  0  0
  2  1  1  6
  2  4  1  0
  3  2  1  0
  4  6  1  0
  4  5  1  6
  6  7  2  0
  9  8  1  0
 10  9  1  1
 10 12  1  0
 11 10  1  0
 11  6  1  0
 12 13  2  0
 14 12  1  0
 14 15  1  0
 15 22  1  0
 15 16  1  1
 17 21  1  0
 17 16  1  0
 18 17  2  0
 19 18  1  0
 19 20  1  0
 20 21  2  0
 22 23  2  0
 22 24  1  0
M  END
$$$$
