HVK.pdb
     RDKit          3D

 27 27  0  0  1  0  0  0  0  0999 V2000
    9.9876  -17.6945   16.5931 N   0  0  0  0  0  0  0  0  0  0  0  0
    8.7692  -17.4543   17.3439 C   0  0  1  0  0  0  0  0  0  0  0  0
    8.1798  -18.8098   17.6752 C   0  0  0  0  0  0  0  0  0  0  0  0
    7.7262  -19.4961   16.4379 C   0  0  0  0  0  0  0  0  0  0  0  0
    6.9487  -18.9158   15.4570 C   0  0  0  0  0  0  0  0  0  0  0  0
    6.7084  -19.7894   14.4705 N   0  0  0  0  0  0  0  0  0  0  0  0
    7.3379  -20.9251   14.8324 C   0  0  0  0  0  0  0  0  0  0  0  0
    7.9561  -20.7437   16.0294 N   0  0  0  0  0  0  0  0  0  0  0  0
    9.0557  -16.7253   18.6110 C   0  0  0  0  0  0  0  0  0  0  0  0
   10.0390  -17.0349   19.3225 O   0  0  0  0  0  0  0  0  0  0  0  0
    8.0347  -13.0326   21.7386 C   0  0  0  0  0  0  0  0  0  0  0  0
    7.6557  -13.6692   20.4083 C   0  0  1  0  0  0  0  0  0  0  0  0
    7.6401  -12.6944   19.3031 C   0  0  0  0  0  0  0  0  0  0  0  0
    8.4436  -14.9118   20.2510 C   0  0  2  0  0  0  0  0  0  0  0  0
    8.2145  -15.6598   19.0382 N   0  0  0  0  0  0  0  0  0  0  0  0
    8.5611  -15.7512   21.4694 C   0  0  0  0  0  0  0  0  0  0  0  0
    7.5567  -16.4418   21.7775 O   0  0  0  0  0  0  0  0  0  0  0  0
    9.6962  -15.8380   22.3088 N   0  0  0  0  0  0  0  0  0  0  0  0
    9.7095  -16.7417   23.4776 C   0  0  1  0  0  0  0  0  0  0  0  0
   10.4841  -17.9666   23.1255 C   0  0  0  0  0  0  0  0  0  0  0  0
   11.9643  -17.6979   22.9599 C   0  0  0  0  0  0  0  0  0  0  0  0
   12.7123  -18.8960   22.4748 C   0  0  0  0  0  0  0  0  0  0  0  0
   14.1624  -18.6325   22.2125 C   0  0  0  0  0  0  0  0  0  0  0  0
   14.7857  -19.9267   21.9014 N   0  0  0  0  0  0  0  0  0  0  0  0
   10.4154  -15.9996   24.5553 C   0  0  0  0  0  0  0  0  0  0  0  0
   10.4967  -16.4971   25.7080 O   0  0  0  0  0  0  0  0  0  0  0  0
   11.0079  -14.7582   24.3679 O   0  0  0  0  0  0  0  0  0  0  0  0
  2  3  1  0
  2  1  1  1
  4  3  1  0
  5  4  2  0
  6  5  1  0
  7  6  1  0
  7  8  2  0
  8  4  1  0
  9  2  1  0
 10  9  2  0
 12 11  1  1
 12 14  1  0
 13 12  1  0
 14 15  1  6
 15  9  1  0
 16 17  2  0
 16 14  1  0
 18 16  1  0
 19 20  1  6
 19 18  1  0
 20 21  1  0
 21 22  1  0
 23 22  1  0
 24 23  1  0
 25 27  1  0
 25 19  1  0
 26 25  2  0
M  END
$$$$
