HVK.pdb
     RDKit          3D

 27 27  0  0  1  0  0  0  0  0999 V2000
   10.1796  -14.8598   21.7075 N   0  0  0  0  0  0  0  0  0  0  0  0
    9.0238  -14.1756   22.2567 C   0  0  1  0  0  0  0  0  0  0  0  0
    7.7961  -14.8433   21.6724 C   0  0  0  0  0  0  0  0  0  0  0  0
    7.6130  -14.4442   20.2529 C   0  0  0  0  0  0  0  0  0  0  0  0
    8.5160  -13.6990   19.5231 C   0  0  0  0  0  0  0  0  0  0  0  0
    8.0658  -13.5053   18.2765 N   0  0  0  0  0  0  0  0  0  0  0  0
    6.8734  -14.1318   18.2217 C   0  0  0  0  0  0  0  0  0  0  0  0
    6.6007  -14.7018   19.4252 N   0  0  0  0  0  0  0  0  0  0  0  0
    8.9842  -14.2975   23.7408 C   0  0  0  0  0  0  0  0  0  0  0  0
    9.8180  -15.0063   24.3500 O   0  0  0  0  0  0  0  0  0  0  0  0
    7.6155  -11.2484   26.1917 C   0  0  0  0  0  0  0  0  0  0  0  0
    7.0838  -12.6209   26.5817 C   0  0  1  0  0  0  0  0  0  0  0  0
    5.6209  -12.7197   26.4329 C   0  0  0  0  0  0  0  0  0  0  0  0
    7.9360  -13.6452   25.9383 C   0  0  2  0  0  0  0  0  0  0  0  0
    7.9947  -13.6083   24.4967 N   0  0  0  0  0  0  0  0  0  0  0  0
    7.8302  -15.0120   26.5072 C   0  0  0  0  0  0  0  0  0  0  0  0
    7.9212  -15.1113   27.7571 O   0  0  0  0  0  0  0  0  0  0  0  0
    7.6403  -16.2036   25.7691 N   0  0  0  0  0  0  0  0  0  0  0  0
    7.5797  -17.5153   26.4464 C   0  0  1  0  0  0  0  0  0  0  0  0
    7.0698  -18.5293   25.4788 C   0  0  0  0  0  0  0  0  0  0  0  0
    7.1161  -19.9392   26.0268 C   0  0  0  0  0  0  0  0  0  0  0  0
    6.6698  -20.9560   25.0281 C   0  0  0  0  0  0  0  0  0  0  0  0
    6.6380  -22.3524   25.5666 C   0  0  0  0  0  0  0  0  0  0  0  0
    5.9866  -23.1909   24.5504 N   0  0  0  0  0  0  0  0  0  0  0  0
    8.9810  -17.8439   26.8188 C   0  0  0  0  0  0  0  0  0  0  0  0
    9.9332  -17.3983   26.1277 O   0  0  0  0  0  0  0  0  0  0  0  0
    9.3176  -18.6329   27.9103 O   0  0  0  0  0  0  0  0  0  0  0  0
  2  3  1  0
  2  1  1  6
  4  3  1  0
  5  4  2  0
  6  5  1  0
  7  6  1  0
  7  8  2  0
  8  4  1  0
  9  2  1  0
 10  9  2  0
 12 11  1  6
 12 14  1  0
 13 12  1  0
 14 15  1  6
 15  9  1  0
 16 17  2  0
 16 14  1  0
 18 16  1  0
 19 20  1  6
 19 18  1  0
 20 21  1  0
 21 22  1  0
 23 22  1  0
 24 23  1  0
 25 27  1  0
 25 19  1  0
 26 25  2  0
M  END
$$$$
