HVK.pdb
     RDKit          3D

 27 27  0  0  1  0  0  0  0  0999 V2000
   11.3873  -17.1616   17.7050 N   0  0  0  0  0  0  0  0  0  0  0  0
   10.0435  -17.2748   18.2407 C   0  0  1  0  0  0  0  0  0  0  0  0
    9.8351  -18.7295   18.6076 C   0  0  0  0  0  0  0  0  0  0  0  0
    9.6884  -19.5588   17.3835 C   0  0  0  0  0  0  0  0  0  0  0  0
   10.6520  -20.4167   16.8950 C   0  0  0  0  0  0  0  0  0  0  0  0
   10.2215  -21.0196   15.7791 N   0  0  0  0  0  0  0  0  0  0  0  0
    8.9807  -20.5386   15.5643 C   0  0  0  0  0  0  0  0  0  0  0  0
    8.6592  -19.6504   16.5417 N   0  0  0  0  0  0  0  0  0  0  0  0
    9.8811  -16.4369   19.4615 C   0  0  0  0  0  0  0  0  0  0  0  0
   10.8146  -16.3173   20.2880 O   0  0  0  0  0  0  0  0  0  0  0  0
    7.1852  -13.3898   22.2537 C   0  0  0  0  0  0  0  0  0  0  0  0
    7.4165  -13.9328   20.8500 C   0  0  1  0  0  0  0  0  0  0  0  0
    7.6541  -12.8622   19.8655 C   0  0  0  0  0  0  0  0  0  0  0  0
    8.3875  -15.0456   20.9404 C   0  0  2  0  0  0  0  0  0  0  0  0
    8.6578  -15.7541   19.7125 N   0  0  0  0  0  0  0  0  0  0  0  0
    8.2434  -15.9230   22.1289 C   0  0  0  0  0  0  0  0  0  0  0  0
    7.4325  -16.8785   22.0294 O   0  0  0  0  0  0  0  0  0  0  0  0
    8.9326  -15.7757   23.3553 N   0  0  0  0  0  0  0  0  0  0  0  0
    8.7267  -16.7324   24.4621 C   0  0  1  0  0  0  0  0  0  0  0  0
    9.8061  -16.5339   25.4720 C   0  0  0  0  0  0  0  0  0  0  0  0
    9.6997  -17.4893   26.6408 C   0  0  0  0  0  0  0  0  0  0  0  0
   10.8104  -17.3162   27.6241 C   0  0  0  0  0  0  0  0  0  0  0  0
   10.8598  -18.3877   28.6683 C   0  0  0  0  0  0  0  0  0  0  0  0
   12.0532  -18.1349   29.4882 N   0  0  0  0  0  0  0  0  0  0  0  0
    7.4131  -16.3803   25.0627 C   0  0  0  0  0  0  0  0  0  0  0  0
    7.0098  -15.1890   25.0316 O   0  0  0  0  0  0  0  0  0  0  0  0
    6.5781  -17.3063   25.6731 O   0  0  0  0  0  0  0  0  0  0  0  0
  2  3  1  0
  2  1  1  1
  4  3  1  0
  5  4  2  0
  6  5  1  0
  7  6  1  0
  7  8  2  0
  8  4  1  0
  9  2  1  0
 10  9  2  0
 12 11  1  1
 12 14  1  0
 13 12  1  0
 14 15  1  6
 15  9  1  0
 16 17  2  0
 16 14  1  0
 18 16  1  0
 19 20  1  1
 19 18  1  0
 20 21  1  0
 21 22  1  0
 23 22  1  0
 24 23  1  0
 25 27  1  0
 25 19  1  0
 26 25  2  0
M  END
$$$$
