HVK.pdb
     RDKit          3D

 27 27  0  0  1  0  0  0  0  0999 V2000
    9.3905  -15.4789   20.7513 N   0  0  0  0  0  0  0  0  0  0  0  0
    8.1456  -15.3490   21.4856 C   0  0  1  0  0  0  0  0  0  0  0  0
    7.4616  -16.6997   21.4381 C   0  0  0  0  0  0  0  0  0  0  0  0
    7.1039  -17.0526   20.0398 C   0  0  0  0  0  0  0  0  0  0  0  0
    7.4207  -16.2939   18.9319 C   0  0  0  0  0  0  0  0  0  0  0  0
    6.9612  -16.8768   17.8169 N   0  0  0  0  0  0  0  0  0  0  0  0
    6.3521  -18.0079   18.2252 C   0  0  0  0  0  0  0  0  0  0  0  0
    6.4405  -18.1121   19.5776 N   0  0  0  0  0  0  0  0  0  0  0  0
    8.3978  -14.9809   22.9068 C   0  0  0  0  0  0  0  0  0  0  0  0
    9.4273  -15.3767   23.5003 O   0  0  0  0  0  0  0  0  0  0  0  0
    7.1287  -12.5211   26.9936 C   0  0  0  0  0  0  0  0  0  0  0  0
    6.7908  -12.7343   25.5242 C   0  0  1  0  0  0  0  0  0  0  0  0
    6.7778  -11.4731   24.7620 C   0  0  0  0  0  0  0  0  0  0  0  0
    7.6076  -13.8615   25.0224 C   0  0  2  0  0  0  0  0  0  0  0  0
    7.4703  -14.1699   23.6192 N   0  0  0  0  0  0  0  0  0  0  0  0
    7.6591  -15.0542   25.9042 C   0  0  0  0  0  0  0  0  0  0  0  0
    6.6931  -15.8550   25.8268 O   0  0  0  0  0  0  0  0  0  0  0  0
    8.6925  -15.3633   26.8193 N   0  0  0  0  0  0  0  0  0  0  0  0
    8.8030  -16.7116   27.4135 C   0  0  1  0  0  0  0  0  0  0  0  0
    9.5219  -17.5988   26.4541 C   0  0  0  0  0  0  0  0  0  0  0  0
    9.8680  -18.9472   27.0475 C   0  0  0  0  0  0  0  0  0  0  0  0
   10.6657  -19.7958   26.1128 C   0  0  0  0  0  0  0  0  0  0  0  0
   11.0272  -21.1342   26.6776 C   0  0  0  0  0  0  0  0  0  0  0  0
   11.5915  -21.9278   25.5767 N   0  0  0  0  0  0  0  0  0  0  0  0
    9.6192  -16.5458   28.6449 C   0  0  0  0  0  0  0  0  0  0  0  0
    9.7918  -17.5235   29.4177 O   0  0  0  0  0  0  0  0  0  0  0  0
   10.2209  -15.3488   29.0086 O   0  0  0  0  0  0  0  0  0  0  0  0
  2  3  1  0
  2  1  1  6
  4  3  1  0
  5  4  2  0
  6  5  1  0
  7  6  1  0
  7  8  2  0
  8  4  1  0
  9  2  1  0
 10  9  2  0
 12 11  1  1
 12 14  1  0
 13 12  1  0
 14 15  1  6
 15  9  1  0
 16 17  2  0
 16 14  1  0
 18 16  1  0
 19 20  1  6
 19 18  1  0
 20 21  1  0
 21 22  1  0
 23 22  1  0
 24 23  1  0
 25 27  1  0
 25 19  1  0
 26 25  2  0
M  END
$$$$
