HVK.pdb
     RDKit          3D

 27 27  0  0  1  0  0  0  0  0999 V2000
    5.8518  -15.7988   25.9197 N   0  0  0  0  0  0  0  0  0  0  0  0
    6.4128  -14.7842   25.0472 C   0  0  1  0  0  0  0  0  0  0  0  0
    7.3587  -13.9520   25.8880 C   0  0  0  0  0  0  0  0  0  0  0  0
    6.6194  -12.8656   26.5813 C   0  0  0  0  0  0  0  0  0  0  0  0
    5.2716  -12.6120   26.4314 C   0  0  0  0  0  0  0  0  0  0  0  0
    4.9032  -11.5694   27.1873 N   0  0  0  0  0  0  0  0  0  0  0  0
    6.0249  -11.1648   27.8161 C   0  0  0  0  0  0  0  0  0  0  0  0
    7.0670  -11.9550   27.4456 N   0  0  0  0  0  0  0  0  0  0  0  0
    7.1742  -15.4029   23.9263 C   0  0  0  0  0  0  0  0  0  0  0  0
    7.6231  -16.5685   24.0204 O   0  0  0  0  0  0  0  0  0  0  0  0
    8.5262  -13.0844   20.5281 C   0  0  0  0  0  0  0  0  0  0  0  0
    7.9877  -14.4934   20.3193 C   0  0  1  0  0  0  0  0  0  0  0  0
    8.5019  -15.1143   19.0856 C   0  0  0  0  0  0  0  0  0  0  0  0
    8.1183  -15.2306   21.5956 C   0  0  2  0  0  0  0  0  0  0  0  0
    7.4066  -14.6788   22.7234 N   0  0  0  0  0  0  0  0  0  0  0  0
    9.4846  -15.7133   21.9165 C   0  0  0  0  0  0  0  0  0  0  0  0
   10.2478  -14.9007   22.4977 O   0  0  0  0  0  0  0  0  0  0  0  0
    9.9987  -16.9982   21.6243 N   0  0  0  0  0  0  0  0  0  0  0  0
   11.3924  -17.3538   21.9622 C   0  0  1  0  0  0  0  0  0  0  0  0
   11.4236  -18.7689   22.4324 C   0  0  0  0  0  0  0  0  0  0  0  0
   10.8978  -18.9309   23.8423 C   0  0  0  0  0  0  0  0  0  0  0  0
   10.9463  -20.3479   24.3115 C   0  0  0  0  0  0  0  0  0  0  0  0
   10.6354  -20.5091   25.7670 C   0  0  0  0  0  0  0  0  0  0  0  0
   10.5537  -21.9523   26.0323 N   0  0  0  0  0  0  0  0  0  0  0  0
   12.1597  -17.2341   20.6945 C   0  0  0  0  0  0  0  0  0  0  0  0
   13.4002  -17.0273   20.7309 O   0  0  0  0  0  0  0  0  0  0  0  0
   11.5808  -17.3383   19.4371 O   0  0  0  0  0  0  0  0  0  0  0  0
  2  3  1  0
  2  1  1  1
  4  3  1  0
  5  4  2  0
  6  5  1  0
  7  6  1  0
  7  8  2  0
  8  4  1  0
  9  2  1  0
 10  9  2  0
 12 11  1  1
 12 14  1  0
 13 12  1  0
 14 15  1  1
 15  9  1  0
 16 17  2  0
 16 14  1  0
 18 16  1  0
 19 20  1  6
 19 18  1  0
 20 21  1  0
 21 22  1  0
 23 22  1  0
 24 23  1  0
 25 27  1  0
 25 19  1  0
 26 25  2  0
M  END
$$$$
