HVK.pdb
     RDKit          3D

 27 27  0  0  1  0  0  0  0  0999 V2000
    9.4936  -17.2291   16.4930 N   0  0  0  0  0  0  0  0  0  0  0  0
    8.4448  -17.0217   17.4743 C   0  0  1  0  0  0  0  0  0  0  0  0
    7.8973  -18.3881   17.8314 C   0  0  0  0  0  0  0  0  0  0  0  0
    7.0395  -18.9074   16.7350 C   0  0  0  0  0  0  0  0  0  0  0  0
    7.5071  -19.3630   15.5197 C   0  0  0  0  0  0  0  0  0  0  0  0
    6.4900  -19.7644   14.7460 N   0  0  0  0  0  0  0  0  0  0  0  0
    5.3768  -19.5603   15.4782 C   0  0  0  0  0  0  0  0  0  0  0  0
    5.7141  -19.0390   16.6874 N   0  0  0  0  0  0  0  0  0  0  0  0
    8.9823  -16.3760   18.7044 C   0  0  0  0  0  0  0  0  0  0  0  0
   10.1646  -16.5714   19.0688 O   0  0  0  0  0  0  0  0  0  0  0  0
    7.8490  -12.7174   19.9819 C   0  0  0  0  0  0  0  0  0  0  0  0
    7.8696  -13.6979   21.1467 C   0  0  1  0  0  0  0  0  0  0  0  0
    6.5435  -13.8586   21.7694 C   0  0  0  0  0  0  0  0  0  0  0  0
    8.6065  -14.9074   20.7182 C   0  0  2  0  0  0  0  0  0  0  0  0
    8.1594  -15.5220   19.4913 N   0  0  0  0  0  0  0  0  0  0  0  0
    8.9312  -15.8726   21.7979 C   0  0  0  0  0  0  0  0  0  0  0  0
    8.1281  -16.8257   21.9627 O   0  0  0  0  0  0  0  0  0  0  0  0
   10.0564  -15.8109   22.6528 N   0  0  0  0  0  0  0  0  0  0  0  0
   10.2536  -16.8108   23.7225 C   0  0  1  0  0  0  0  0  0  0  0  0
   11.4814  -17.6006   23.4176 C   0  0  0  0  0  0  0  0  0  0  0  0
   11.7595  -18.6746   24.4469 C   0  0  0  0  0  0  0  0  0  0  0  0
   13.0093  -19.4378   24.1539 C   0  0  0  0  0  0  0  0  0  0  0  0
   13.2951  -20.5240   25.1436 C   0  0  0  0  0  0  0  0  0  0  0  0
   14.5088  -21.2149   24.6858 N   0  0  0  0  0  0  0  0  0  0  0  0
   10.4608  -16.0319   24.9718 C   0  0  0  0  0  0  0  0  0  0  0  0
   10.6853  -14.7956   24.9085 O   0  0  0  0  0  0  0  0  0  0  0  0
   10.4218  -16.5953   26.2399 O   0  0  0  0  0  0  0  0  0  0  0  0
  2  3  1  0
  2  1  1  6
  4  3  1  0
  5  4  2  0
  6  5  1  0
  7  6  1  0
  7  8  2  0
  8  4  1  0
  9  2  1  0
 10  9  2  0
 12 11  1  6
 12 14  1  0
 13 12  1  0
 14 15  1  6
 15  9  1  0
 16 17  2  0
 16 14  1  0
 18 16  1  0
 19 20  1  6
 19 18  1  0
 20 21  1  0
 21 22  1  0
 23 22  1  0
 24 23  1  0
 25 27  1  0
 25 19  1  0
 26 25  2  0
M  END
$$$$
