HVK.pdb
     RDKit          3D

 27 27  0  0  1  0  0  0  0  0999 V2000
   10.0804  -15.2992   21.1575 N   0  0  0  0  0  0  0  0  0  0  0  0
    8.9815  -14.5730   21.7662 C   0  0  1  0  0  0  0  0  0  0  0  0
    7.7012  -15.1590   21.2078 C   0  0  0  0  0  0  0  0  0  0  0  0
    7.4269  -14.6132   19.8533 C   0  0  0  0  0  0  0  0  0  0  0  0
    8.2465  -13.7306   19.1806 C   0  0  0  0  0  0  0  0  0  0  0  0
    7.7267  -13.4261   17.9843 N   0  0  0  0  0  0  0  0  0  0  0  0
    6.5742  -14.1206   17.9038 C   0  0  0  0  0  0  0  0  0  0  0  0
    6.3945  -14.8417   19.0420 N   0  0  0  0  0  0  0  0  0  0  0  0
    8.9863  -14.7365   23.2468 C   0  0  0  0  0  0  0  0  0  0  0  0
    9.6457  -15.6522   23.7903 O   0  0  0  0  0  0  0  0  0  0  0  0
    6.0014  -13.1160   25.9362 C   0  0  0  0  0  0  0  0  0  0  0  0
    7.4774  -12.8771   26.2241 C   0  0  1  0  0  0  0  0  0  0  0  0
    7.7401  -12.6443   27.6555 C   0  0  0  0  0  0  0  0  0  0  0  0
    8.2590  -13.9150   25.5161 C   0  0  2  0  0  0  0  0  0  0  0  0
    8.2389  -13.8521   24.0744 N   0  0  0  0  0  0  0  0  0  0  0  0
    8.1406  -15.2886   26.0659 C   0  0  0  0  0  0  0  0  0  0  0  0
    7.0335  -15.8640   25.9125 O   0  0  0  0  0  0  0  0  0  0  0  0
    9.1579  -15.9991   26.7449 N   0  0  0  0  0  0  0  0  0  0  0  0
    8.8987  -17.3370   27.3157 C   0  0  1  0  0  0  0  0  0  0  0  0
    9.6328  -18.3520   26.5062 C   0  0  0  0  0  0  0  0  0  0  0  0
    9.5193  -19.7501   27.0743 C   0  0  0  0  0  0  0  0  0  0  0  0
   10.2210  -20.7671   26.2354 C   0  0  0  0  0  0  0  0  0  0  0  0
   10.1162  -22.1615   26.7698 C   0  0  0  0  0  0  0  0  0  0  0  0
   10.9276  -23.0198   25.8951 N   0  0  0  0  0  0  0  0  0  0  0  0
    9.4545  -17.3039   28.6942 C   0  0  0  0  0  0  0  0  0  0  0  0
    9.3331  -18.3081   29.4423 O   0  0  0  0  0  0  0  0  0  0  0  0
   10.1178  -16.2062   29.2255 O   0  0  0  0  0  0  0  0  0  0  0  0
  2  3  1  0
  2  1  1  6
  4  3  1  0
  5  4  2  0
  6  5  1  0
  7  6  1  0
  7  8  2  0
  8  4  1  0
  9  2  1  0
 10  9  2  0
 12 11  1  1
 12 14  1  0
 13 12  1  0
 14 15  1  6
 15  9  1  0
 16 17  2  0
 16 14  1  0
 18 16  1  0
 19 20  1  6
 19 18  1  0
 20 21  1  0
 21 22  1  0
 23 22  1  0
 24 23  1  0
 25 27  1  0
 25 19  1  0
 26 25  2  0
M  END
$$$$
