HVK.pdb
     RDKit          3D

 27 27  0  0  1  0  0  0  0  0999 V2000
    9.3061  -16.2940   19.6751 N   0  0  0  0  0  0  0  0  0  0  0  0
    8.1998  -16.1495   20.6029 C   0  0  1  0  0  0  0  0  0  0  0  0
    7.5281  -17.5033   20.7042 C   0  0  0  0  0  0  0  0  0  0  0  0
    6.8304  -17.8339   19.4347 C   0  0  0  0  0  0  0  0  0  0  0  0
    6.8072  -17.0257   18.3168 C   0  0  0  0  0  0  0  0  0  0  0  0
    6.0972  -17.6000   17.3370 N   0  0  0  0  0  0  0  0  0  0  0  0
    5.6713  -18.7756   17.8408 C   0  0  0  0  0  0  0  0  0  0  0  0
    6.1188  -18.9151   19.1168 N   0  0  0  0  0  0  0  0  0  0  0  0
    8.6821  -15.7434   21.9525 C   0  0  0  0  0  0  0  0  0  0  0  0
    9.7782  -16.1577   22.3950 O   0  0  0  0  0  0  0  0  0  0  0  0
    6.0726  -13.6331   24.6944 C   0  0  0  0  0  0  0  0  0  0  0  0
    7.5717  -13.3662   24.7084 C   0  0  1  0  0  0  0  0  0  0  0  0
    8.0374  -12.8443   26.0056 C   0  0  0  0  0  0  0  0  0  0  0  0
    8.2548  -14.5431   24.1274 C   0  0  2  0  0  0  0  0  0  0  0  0
    7.9038  -14.8739   22.7672 N   0  0  0  0  0  0  0  0  0  0  0  0
    8.3766  -15.7180   25.0261 C   0  0  0  0  0  0  0  0  0  0  0  0
    7.3675  -16.4615   25.1224 O   0  0  0  0  0  0  0  0  0  0  0  0
    9.5209  -16.0687   25.7801 N   0  0  0  0  0  0  0  0  0  0  0  0
    9.5524  -17.3103   26.5802 C   0  0  1  0  0  0  0  0  0  0  0  0
   10.4587  -18.2872   25.9103 C   0  0  0  0  0  0  0  0  0  0  0  0
   10.6385  -19.5622   26.7055 C   0  0  0  0  0  0  0  0  0  0  0  0
   11.5195  -20.5491   26.0126 C   0  0  0  0  0  0  0  0  0  0  0  0
   11.6914  -21.8320   26.7648 C   0  0  0  0  0  0  0  0  0  0  0  0
   12.5724  -22.6888   25.9587 N   0  0  0  0  0  0  0  0  0  0  0  0
   10.1215  -16.9278   27.8993 C   0  0  0  0  0  0  0  0  0  0  0  0
   10.7398  -15.8390   28.0222 O   0  0  0  0  0  0  0  0  0  0  0  0
   10.0124  -17.7156   29.0371 O   0  0  0  0  0  0  0  0  0  0  0  0
  2  3  1  0
  2  1  1  6
  4  3  1  0
  5  4  2  0
  6  5  1  0
  7  6  1  0
  7  8  2  0
  8  4  1  0
  9  2  1  0
 10  9  2  0
 12 11  1  1
 12 14  1  0
 13 12  1  0
 14 15  1  6
 15  9  1  0
 16 17  2  0
 16 14  1  0
 18 16  1  0
 19 20  1  6
 19 18  1  0
 20 21  1  0
 21 22  1  0
 23 22  1  0
 24 23  1  0
 25 27  1  0
 25 19  1  0
 26 25  2  0
M  END
$$$$
