HVK.pdb
     RDKit          3D

 27 27  0  0  1  0  0  0  0  0999 V2000
   12.3517  -14.6907   17.5558 N   0  0  0  0  0  0  0  0  0  0  0  0
   13.0389  -15.1961   18.7297 C   0  0  1  0  0  0  0  0  0  0  0  0
   13.9241  -14.0776   19.2394 C   0  0  0  0  0  0  0  0  0  0  0  0
   15.2474  -14.1133   18.5648 C   0  0  0  0  0  0  0  0  0  0  0  0
   15.6337  -15.0625   17.6412 C   0  0  0  0  0  0  0  0  0  0  0  0
   16.8812  -14.8235   17.2162 N   0  0  0  0  0  0  0  0  0  0  0  0
   17.2821  -13.7184   17.8758 C   0  0  0  0  0  0  0  0  0  0  0  0
   16.2863  -13.2886   18.6953 N   0  0  0  0  0  0  0  0  0  0  0  0
   12.0701  -15.5745   19.7961 C   0  0  0  0  0  0  0  0  0  0  0  0
   11.0175  -14.9184   19.9706 O   0  0  0  0  0  0  0  0  0  0  0  0
   10.0635  -18.5563   20.2745 C   0  0  0  0  0  0  0  0  0  0  0  0
   10.8751  -18.4829   21.5608 C   0  0  1  0  0  0  0  0  0  0  0  0
   11.7909  -19.6275   21.7134 C   0  0  0  0  0  0  0  0  0  0  0  0
   11.4205  -17.1130   21.6841 C   0  0  2  0  0  0  0  0  0  0  0  0
   12.3234  -16.6924   20.6396 N   0  0  0  0  0  0  0  0  0  0  0  0
   11.8445  -16.7157   23.0499 C   0  0  0  0  0  0  0  0  0  0  0  0
   13.0807  -16.5960   23.2442 O   0  0  0  0  0  0  0  0  0  0  0  0
   10.9837  -16.4651   24.1440 N   0  0  0  0  0  0  0  0  0  0  0  0
   11.5250  -16.2339   25.4991 C   0  0  1  0  0  0  0  0  0  0  0  0
   10.4411  -15.6743   26.3573 C   0  0  0  0  0  0  0  0  0  0  0  0
   10.8576  -15.5213   27.8042 C   0  0  0  0  0  0  0  0  0  0  0  0
    9.7742  -14.9416   28.6530 C   0  0  0  0  0  0  0  0  0  0  0  0
   10.1461  -14.8158   30.0976 C   0  0  0  0  0  0  0  0  0  0  0  0
    9.0179  -14.1638   30.7773 N   0  0  0  0  0  0  0  0  0  0  0  0
   11.9228  -17.5721   26.0101 C   0  0  0  0  0  0  0  0  0  0  0  0
   11.2366  -18.5843   25.7144 O   0  0  0  0  0  0  0  0  0  0  0  0
   13.0336  -17.7844   26.8151 O   0  0  0  0  0  0  0  0  0  0  0  0
  2  3  1  0
  2  1  1  6
  4  3  1  0
  5  4  2  0
  6  5  1  0
  7  6  1  0
  7  8  2  0
  8  4  1  0
  9  2  1  0
 10  9  2  0
 12 11  1  6
 12 14  1  0
 13 12  1  0
 14 15  1  6
 15  9  1  0
 16 17  2  0
 16 14  1  0
 18 16  1  0
 19 20  1  1
 19 18  1  0
 20 21  1  0
 21 22  1  0
 23 22  1  0
 24 23  1  0
 25 27  1  0
 25 19  1  0
 26 25  2  0
M  END
$$$$
