HVK.pdb
     RDKit          3D

 27 27  0  0  1  0  0  0  0  0999 V2000
    9.8656  -13.5332   20.7362 N   0  0  0  0  0  0  0  0  0  0  0  0
    8.5940  -13.7106   21.4124 C   0  0  1  0  0  0  0  0  0  0  0  0
    7.9115  -14.8982   20.7656 C   0  0  0  0  0  0  0  0  0  0  0  0
    7.5623  -14.5921   19.3542 C   0  0  0  0  0  0  0  0  0  0  0  0
    7.9153  -13.4355   18.6901 C   0  0  0  0  0  0  0  0  0  0  0  0
    7.4541  -13.4568   17.4328 N   0  0  0  0  0  0  0  0  0  0  0  0
    6.8076  -14.6327   17.3050 C   0  0  0  0  0  0  0  0  0  0  0  0
    6.8751  -15.3210   18.4752 N   0  0  0  0  0  0  0  0  0  0  0  0
    8.7926  -13.9933   22.8614 C   0  0  0  0  0  0  0  0  0  0  0  0
    9.7553  -14.6919   23.2540 O   0  0  0  0  0  0  0  0  0  0  0  0
    5.7355  -13.2493   25.8799 C   0  0  0  0  0  0  0  0  0  0  0  0
    7.1877  -12.8655   26.1303 C   0  0  1  0  0  0  0  0  0  0  0  0
    7.5104  -12.7944   27.5665 C   0  0  0  0  0  0  0  0  0  0  0  0
    8.0414  -13.6919   25.2485 C   0  0  2  0  0  0  0  0  0  0  0  0
    7.8892  -13.4729   23.8301 N   0  0  0  0  0  0  0  0  0  0  0  0
    8.1616  -15.1204   25.6331 C   0  0  0  0  0  0  0  0  0  0  0  0
    7.1967  -15.8683   25.3331 O   0  0  0  0  0  0  0  0  0  0  0  0
    9.2589  -15.7073   26.3057 N   0  0  0  0  0  0  0  0  0  0  0  0
    9.2243  -17.1239   26.7237 C   0  0  1  0  0  0  0  0  0  0  0  0
   10.2303  -17.8822   25.9254 C   0  0  0  0  0  0  0  0  0  0  0  0
   10.3195  -19.3392   26.3246 C   0  0  0  0  0  0  0  0  0  0  0  0
   11.2872  -20.1046   25.4832 C   0  0  0  0  0  0  0  0  0  0  0  0
   11.3216  -21.5694   25.7900 C   0  0  0  0  0  0  0  0  0  0  0  0
   12.2758  -22.1827   24.8554 N   0  0  0  0  0  0  0  0  0  0  0  0
    9.6180  -17.1329   28.1573 C   0  0  0  0  0  0  0  0  0  0  0  0
   10.1696  -16.1206   28.6612 O   0  0  0  0  0  0  0  0  0  0  0  0
    9.4110  -18.2159   29.0008 O   0  0  0  0  0  0  0  0  0  0  0  0
  2  3  1  0
  2  1  1  6
  4  3  1  0
  5  4  2  0
  6  5  1  0
  7  6  1  0
  7  8  2  0
  8  4  1  0
  9  2  1  0
 10  9  2  0
 12 11  1  1
 12 14  1  0
 13 12  1  0
 14 15  1  6
 15  9  1  0
 16 17  2  0
 16 14  1  0
 18 16  1  0
 19 20  1  6
 19 18  1  0
 20 21  1  0
 21 22  1  0
 23 22  1  0
 24 23  1  0
 25 27  1  0
 25 19  1  0
 26 25  2  0
M  END
$$$$
