HVK.pdb
     RDKit          3D

 27 27  0  0  1  0  0  0  0  0999 V2000
    8.7362  -15.5775   20.8130 N   0  0  0  0  0  0  0  0  0  0  0  0
    7.7457  -15.6792   21.8686 C   0  0  1  0  0  0  0  0  0  0  0  0
    7.4334  -17.1513   22.0412 C   0  0  0  0  0  0  0  0  0  0  0  0
    6.7777  -17.6903   20.8218 C   0  0  0  0  0  0  0  0  0  0  0  0
    6.5235  -16.9614   19.6784 C   0  0  0  0  0  0  0  0  0  0  0  0
    5.9236  -17.7268   18.7574 N   0  0  0  0  0  0  0  0  0  0  0  0
    5.7995  -18.9436   19.3240 C   0  0  0  0  0  0  0  0  0  0  0  0
    6.3199  -18.9184   20.5796 N   0  0  0  0  0  0  0  0  0  0  0  0
    8.2740  -15.1399   23.1527 C   0  0  0  0  0  0  0  0  0  0  0  0
    9.5042  -15.1304   23.3883 O   0  0  0  0  0  0  0  0  0  0  0  0
    7.5946  -12.8391   27.4556 C   0  0  0  0  0  0  0  0  0  0  0  0
    6.9967  -13.1397   26.0878 C   0  0  1  0  0  0  0  0  0  0  0  0
    6.6751  -11.9149   25.3338 C   0  0  0  0  0  0  0  0  0  0  0  0
    7.8282  -14.1777   25.4393 C   0  0  2  0  0  0  0  0  0  0  0  0
    7.3877  -14.6236   24.1393 N   0  0  0  0  0  0  0  0  0  0  0  0
    8.2951  -15.2694   26.3299 C   0  0  0  0  0  0  0  0  0  0  0  0
    7.4180  -16.0607   26.7598 O   0  0  0  0  0  0  0  0  0  0  0  0
    9.6317  -15.4923   26.7358 N   0  0  0  0  0  0  0  0  0  0  0  0
    9.9713  -16.5935   27.6604 C   0  0  1  0  0  0  0  0  0  0  0  0
   11.1382  -17.3393   27.1066 C   0  0  0  0  0  0  0  0  0  0  0  0
   10.8696  -17.9134   25.7324 C   0  0  0  0  0  0  0  0  0  0  0  0
   12.0557  -18.6236   25.1673 C   0  0  0  0  0  0  0  0  0  0  0  0
   11.8286  -19.1712   23.7927 C   0  0  0  0  0  0  0  0  0  0  0  0
   13.0781  -19.8245   23.3779 N   0  0  0  0  0  0  0  0  0  0  0  0
   10.3587  -15.9431   28.9399 C   0  0  0  0  0  0  0  0  0  0  0  0
   10.5699  -14.7033   28.9729 O   0  0  0  0  0  0  0  0  0  0  0  0
   10.5069  -16.6337   30.1350 O   0  0  0  0  0  0  0  0  0  0  0  0
  2  3  1  0
  2  1  1  6
  4  3  1  0
  5  4  2  0
  6  5  1  0
  7  6  1  0
  7  8  2  0
  8  4  1  0
  9  2  1  0
 10  9  2  0
 12 11  1  1
 12 14  1  0
 13 12  1  0
 14 15  1  6
 15  9  1  0
 16 17  2  0
 16 14  1  0
 18 16  1  0
 19 20  1  6
 19 18  1  0
 20 21  1  0
 21 22  1  0
 23 22  1  0
 24 23  1  0
 25 27  1  0
 25 19  1  0
 26 25  2  0
M  END
$$$$
