VKN.pdb
     RDKit          3D

 25 24  0  0  1  0  0  0  0  0999 V2000
    8.1487  -12.2839   19.2992 C   0  0  0  0  0  0  0  0  0  0  0  0
    8.3655  -13.2262   20.4362 C   0  0  1  0  0  0  0  0  0  0  0  0
    7.5239  -12.8104   21.6153 C   0  0  0  0  0  0  0  0  0  0  0  0
    8.1505  -14.6747   20.0688 C   0  0  2  0  0  0  0  0  0  0  0  0
    6.8587  -14.8408   19.4324 N   0  0  0  0  0  0  0  0  0  0  0  0
    8.3240  -15.5989   21.2117 C   0  0  0  0  0  0  0  0  0  0  0  0
    7.3320  -15.8617   21.9686 O   0  0  0  0  0  0  0  0  0  0  0  0
    9.5394  -16.2285   21.5343 N   0  0  0  0  0  0  0  0  0  0  0  0
    9.7015  -17.1071   22.7353 C   0  0  1  0  0  0  0  0  0  0  0  0
   10.6135  -18.1664   22.2229 C   0  0  0  0  0  0  0  0  0  0  0  0
   11.1317  -19.2100   23.1305 C   0  0  0  0  0  0  0  0  0  0  0  0
   12.0899  -20.1270   22.4498 C   0  0  0  0  0  0  0  0  0  0  0  0
   12.5410  -21.1898   23.4460 C   0  0  0  0  0  0  0  0  0  0  0  0
   13.4621  -22.0450   22.6834 N   0  0  0  0  0  0  0  0  0  0  0  0
   10.0797  -16.3623   23.8888 C   0  0  0  0  0  0  0  0  0  0  0  0
   10.7636  -15.2810   23.7632 O   0  0  0  0  0  0  0  0  0  0  0  0
   10.6696  -13.1334   27.7353 N   0  0  0  0  0  0  0  0  0  0  0  0
    9.5343  -13.9830   27.8123 C   0  0  0  0  0  0  0  0  0  0  0  0
    8.8810  -13.9667   28.9064 O   0  0  0  0  0  0  0  0  0  0  0  0
    9.1369  -14.8338   26.6853 C   0  0  0  0  0  0  0  0  0  0  0  0
   10.2344  -15.8412   26.3445 C   0  0  2  0  0  0  0  0  0  0  0  0
    9.7633  -16.6756   25.2681 N   0  0  0  0  0  0  0  0  0  0  0  0
   10.5803  -16.6236   27.5566 C   0  0  0  0  0  0  0  0  0  0  0  0
   11.4085  -16.2225   28.5641 O   0  0  0  0  0  0  0  0  0  0  0  0
   10.0440  -17.7789   27.6531 O   0  0  0  0  0  0  0  0  0  0  0  0
  2  1  1  6
  2  4  1  0
  3  2  1  0
  4  5  1  1
  6  4  1  0
  6  7  2  0
  8  6  1  0
  9  8  1  0
  9 10  1  6
 11 10  1  0
 12 11  1  0
 13 12  1  0
 13 14  1  0
 15  9  1  0
 16 15  2  0
 18 17  1  0
 18 20  1  0
 19 18  2  0
 21 20  1  1
 21 22  1  0
 22 15  1  0
 23 21  1  0
 24 23  1  0
 25 23  2  0
M  END
$$$$
