VKN.pdb
     RDKit          3D

 25 24  0  0  1  0  0  0  0  0999 V2000
    9.7293  -13.7527   18.0170 C   0  0  0  0  0  0  0  0  0  0  0  0
    9.0558  -14.2702   19.2443 C   0  0  1  0  0  0  0  0  0  0  0  0
    9.4877  -13.4671   20.4443 C   0  0  0  0  0  0  0  0  0  0  0  0
    7.5529  -14.3438   19.1224 C   0  0  2  0  0  0  0  0  0  0  0  0
    7.0190  -13.0480   18.7517 N   0  0  0  0  0  0  0  0  0  0  0  0
    6.8946  -14.8846   20.3327 C   0  0  0  0  0  0  0  0  0  0  0  0
    6.7074  -14.1282   21.3420 O   0  0  0  0  0  0  0  0  0  0  0  0
    6.4462  -16.2118   20.4553 N   0  0  0  0  0  0  0  0  0  0  0  0
    5.8606  -16.7540   21.7217 C   0  0  1  0  0  0  0  0  0  0  0  0
    4.8545  -17.7234   21.2072 C   0  0  0  0  0  0  0  0  0  0  0  0
    4.0836  -18.5678   22.1422 C   0  0  0  0  0  0  0  0  0  0  0  0
    3.0601  -19.3964   21.4437 C   0  0  0  0  0  0  0  0  0  0  0  0
    2.2617  -20.1696   22.4876 C   0  0  0  0  0  0  0  0  0  0  0  0
    1.3188  -20.9824   21.7055 N   0  0  0  0  0  0  0  0  0  0  0  0
    6.8689  -17.2088   22.6189 C   0  0  0  0  0  0  0  0  0  0  0  0
    7.7258  -18.0869   22.2352 O   0  0  0  0  0  0  0  0  0  0  0  0
   10.0137  -14.4787   24.0962 N   0  0  0  0  0  0  0  0  0  0  0  0
    9.8632  -15.8738   24.3144 C   0  0  0  0  0  0  0  0  0  0  0  0
   10.5152  -16.6475   23.5395 O   0  0  0  0  0  0  0  0  0  0  0  0
    9.0003  -16.3932   25.3809 C   0  0  0  0  0  0  0  0  0  0  0  0
    8.0279  -17.4403   24.8390 C   0  0  2  0  0  0  0  0  0  0  0  0
    7.0761  -16.7744   23.9861 N   0  0  0  0  0  0  0  0  0  0  0  0
    7.3771  -18.1431   25.9720 C   0  0  0  0  0  0  0  0  0  0  0  0
    6.0380  -18.1854   26.2302 O   0  0  0  0  0  0  0  0  0  0  0  0
    8.1561  -18.7634   26.7719 O   0  0  0  0  0  0  0  0  0  0  0  0
  2  1  1  6
  2  4  1  0
  3  2  1  0
  4  5  1  1
  6  4  1  0
  6  7  2  0
  8  6  1  0
  9  8  1  0
  9 10  1  6
 11 10  1  0
 12 11  1  0
 13 12  1  0
 13 14  1  0
 15  9  1  0
 16 15  2  0
 18 17  1  0
 18 20  1  0
 19 18  2  0
 21 20  1  1
 21 22  1  0
 22 15  1  0
 23 21  1  0
 24 23  1  0
 25 23  2  0
M  END
$$$$
