VKN.pdb
     RDKit          3D

 25 24  0  0  1  0  0  0  0  0999 V2000
    8.0852  -12.0047   18.6654 C   0  0  0  0  0  0  0  0  0  0  0  0
    8.3249  -12.9864   19.7637 C   0  0  1  0  0  0  0  0  0  0  0  0
    7.0147  -13.5730   20.2230 C   0  0  0  0  0  0  0  0  0  0  0  0
    9.3311  -14.0546   19.4094 C   0  0  2  0  0  0  0  0  0  0  0  0
    8.9558  -14.7001   18.1669 N   0  0  0  0  0  0  0  0  0  0  0  0
    9.5481  -15.0359   20.4959 C   0  0  0  0  0  0  0  0  0  0  0  0
    9.8330  -14.6271   21.6696 O   0  0  0  0  0  0  0  0  0  0  0  0
    9.4599  -16.4289   20.3242 N   0  0  0  0  0  0  0  0  0  0  0  0
    9.7526  -17.3998   21.4253 C   0  0  1  0  0  0  0  0  0  0  0  0
    8.9652  -18.5912   21.0047 C   0  0  0  0  0  0  0  0  0  0  0  0
    7.4964  -18.5085   20.8736 C   0  0  0  0  0  0  0  0  0  0  0  0
    6.8895  -19.8108   20.4765 C   0  0  0  0  0  0  0  0  0  0  0  0
    5.3742  -19.6484   20.4245 C   0  0  0  0  0  0  0  0  0  0  0  0
    4.8759  -20.9602   19.9862 N   0  0  0  0  0  0  0  0  0  0  0  0
   11.1519  -17.5360   21.6527 C   0  0  0  0  0  0  0  0  0  0  0  0
   11.9171  -17.9801   20.7201 O   0  0  0  0  0  0  0  0  0  0  0  0
   14.8452  -14.5390   20.2264 N   0  0  0  0  0  0  0  0  0  0  0  0
   14.1117  -15.6271   20.7691 C   0  0  0  0  0  0  0  0  0  0  0  0
   14.2833  -16.7636   20.2185 O   0  0  0  0  0  0  0  0  0  0  0  0
   13.2043  -15.4469   21.9074 C   0  0  0  0  0  0  0  0  0  0  0  0
   13.2107  -16.6769   22.8144 C   0  0  2  0  0  0  0  0  0  0  0  0
   11.8714  -17.2064   22.8671 N   0  0  0  0  0  0  0  0  0  0  0  0
   13.7226  -16.2995   24.1547 C   0  0  0  0  0  0  0  0  0  0  0  0
   13.0140  -15.6771   25.1408 O   0  0  0  0  0  0  0  0  0  0  0  0
   14.9427  -16.5919   24.3943 O   0  0  0  0  0  0  0  0  0  0  0  0
  2  1  1  6
  2  4  1  0
  3  2  1  0
  4  5  1  6
  6  4  1  0
  6  7  2  0
  8  6  1  0
  9  8  1  0
  9 10  1  6
 11 10  1  0
 12 11  1  0
 13 12  1  0
 13 14  1  0
 15  9  1  0
 16 15  2  0
 18 17  1  0
 18 20  1  0
 19 18  2  0
 21 20  1  6
 21 22  1  0
 22 15  1  0
 23 21  1  0
 24 23  1  0
 25 23  2  0
M  END
$$$$
