VKN.pdb
     RDKit          3D

 25 24  0  0  1  0  0  0  0  0999 V2000
    6.7627  -19.3235   25.1421 C   0  0  0  0  0  0  0  0  0  0  0  0
    6.5092  -20.2398   23.9916 C   0  0  1  0  0  0  0  0  0  0  0  0
    5.5469  -21.3248   24.4016 C   0  0  0  0  0  0  0  0  0  0  0  0
    6.0591  -19.5261   22.7396 C   0  0  2  0  0  0  0  0  0  0  0  0
    5.7750  -20.4878   21.6928 N   0  0  0  0  0  0  0  0  0  0  0  0
    7.0089  -18.4849   22.2875 C   0  0  0  0  0  0  0  0  0  0  0  0
    8.1529  -18.8246   21.8385 O   0  0  0  0  0  0  0  0  0  0  0  0
    6.7340  -17.1060   22.3172 N   0  0  0  0  0  0  0  0  0  0  0  0
    7.7305  -16.0733   21.8913 C   0  0  1  0  0  0  0  0  0  0  0  0
    6.8745  -14.8661   21.7286 C   0  0  0  0  0  0  0  0  0  0  0  0
    7.4060  -13.6561   21.0690 C   0  0  0  0  0  0  0  0  0  0  0  0
    7.6081  -13.8522   19.6051 C   0  0  0  0  0  0  0  0  0  0  0  0
    8.1216  -12.5485   19.0036 C   0  0  0  0  0  0  0  0  0  0  0  0
    8.3632  -12.8636   17.5881 N   0  0  0  0  0  0  0  0  0  0  0  0
    8.8474  -16.0200   22.7734 C   0  0  0  0  0  0  0  0  0  0  0  0
    8.6819  -16.1986   24.0356 O   0  0  0  0  0  0  0  0  0  0  0  0
   12.3982  -17.8019   25.7931 N   0  0  0  0  0  0  0  0  0  0  0  0
   12.2765  -18.1453   24.4206 C   0  0  0  0  0  0  0  0  0  0  0  0
   13.1883  -18.8914   23.9346 O   0  0  0  0  0  0  0  0  0  0  0  0
   11.1545  -17.6637   23.6074 C   0  0  0  0  0  0  0  0  0  0  0  0
   11.3032  -16.1754   23.2937 C   0  0  2  0  0  0  0  0  0  0  0  0
   10.2317  -15.7907   22.4101 N   0  0  0  0  0  0  0  0  0  0  0  0
   12.6408  -15.9265   22.7023 C   0  0  0  0  0  0  0  0  0  0  0  0
   13.8053  -15.7510   23.3913 O   0  0  0  0  0  0  0  0  0  0  0  0
   12.6919  -15.8756   21.4270 O   0  0  0  0  0  0  0  0  0  0  0  0
  2  1  1  1
  2  4  1  0
  3  2  1  0
  4  5  1  6
  6  4  1  0
  6  7  2  0
  8  6  1  0
  9  8  1  0
  9 10  1  1
 11 10  1  0
 12 11  1  0
 13 12  1  0
 13 14  1  0
 15  9  1  0
 16 15  2  0
 18 17  1  0
 18 20  1  0
 19 18  2  0
 21 20  1  6
 21 22  1  0
 22 15  1  0
 23 21  1  0
 24 23  1  0
 25 23  2  0
M  END
$$$$
