VKN.pdb
     RDKit          3D

 25 24  0  0  1  0  0  0  0  0999 V2000
    8.4682  -12.2936   18.2453 C   0  0  0  0  0  0  0  0  0  0  0  0
    8.0341  -12.8513   19.5599 C   0  0  1  0  0  0  0  0  0  0  0  0
    6.5458  -13.0890   19.5506 C   0  0  0  0  0  0  0  0  0  0  0  0
    8.8022  -14.0825   19.9763 C   0  0  2  0  0  0  0  0  0  0  0  0
    8.7346  -15.0880   18.9343 N   0  0  0  0  0  0  0  0  0  0  0  0
    8.3774  -14.6199   21.2882 C   0  0  0  0  0  0  0  0  0  0  0  0
    8.3434  -13.8516   22.3053 O   0  0  0  0  0  0  0  0  0  0  0  0
    7.9961  -15.9565   21.5024 N   0  0  0  0  0  0  0  0  0  0  0  0
    7.5607  -16.4691   22.8397 C   0  0  1  0  0  0  0  0  0  0  0  0
    7.0772  -17.8366   22.5044 C   0  0  0  0  0  0  0  0  0  0  0  0
    5.7652  -18.0270   21.8533 C   0  0  0  0  0  0  0  0  0  0  0  0
    5.4294  -19.4675   21.6675 C   0  0  0  0  0  0  0  0  0  0  0  0
    4.1063  -19.5680   20.9161 C   0  0  0  0  0  0  0  0  0  0  0  0
    3.8470  -21.0115   20.8143 N   0  0  0  0  0  0  0  0  0  0  0  0
    8.5788  -16.3133   23.8234 C   0  0  0  0  0  0  0  0  0  0  0  0
    9.7828  -16.6864   23.5707 O   0  0  0  0  0  0  0  0  0  0  0  0
    8.0787  -12.6981   27.8774 N   0  0  0  0  0  0  0  0  0  0  0  0
    8.2676  -13.9372   27.2099 C   0  0  0  0  0  0  0  0  0  0  0  0
    7.2317  -14.6606   27.0432 O   0  0  0  0  0  0  0  0  0  0  0  0
    9.5908  -14.3581   26.7368 C   0  0  0  0  0  0  0  0  0  0  0  0
    9.5261  -15.7369   26.0809 C   0  0  2  0  0  0  0  0  0  0  0  0
    8.4286  -15.7418   25.1469 N   0  0  0  0  0  0  0  0  0  0  0  0
    9.3808  -16.7762   27.1295 C   0  0  0  0  0  0  0  0  0  0  0  0
   10.2534  -17.0166   28.1506 O   0  0  0  0  0  0  0  0  0  0  0  0
    8.3352  -17.5063   27.0576 O   0  0  0  0  0  0  0  0  0  0  0  0
  2  1  1  6
  2  4  1  0
  3  2  1  0
  4  5  1  6
  6  4  1  0
  6  7  2  0
  8  6  1  0
  9  8  1  0
  9 10  1  6
 11 10  1  0
 12 11  1  0
 13 12  1  0
 13 14  1  0
 15  9  1  0
 16 15  2  0
 18 17  1  0
 18 20  1  0
 19 18  2  0
 21 20  1  1
 21 22  1  0
 22 15  1  0
 23 21  1  0
 24 23  1  0
 25 23  2  0
M  END
$$$$
