VKN.pdb
     RDKit          3D

 25 24  0  0  1  0  0  0  0  0999 V2000
    9.6030  -12.1855   19.3850 C   0  0  0  0  0  0  0  0  0  0  0  0
    8.3943  -13.0608   19.4032 C   0  0  1  0  0  0  0  0  0  0  0  0
    7.1701  -12.2530   19.0563 C   0  0  0  0  0  0  0  0  0  0  0  0
    8.5265  -14.2902   18.5369 C   0  0  2  0  0  0  0  0  0  0  0  0
    7.3065  -15.0712   18.5909 N   0  0  0  0  0  0  0  0  0  0  0  0
    9.7177  -15.1070   18.8603 C   0  0  0  0  0  0  0  0  0  0  0  0
    9.6572  -15.9704   19.7965 O   0  0  0  0  0  0  0  0  0  0  0  0
   10.9493  -14.9979   18.1901 N   0  0  0  0  0  0  0  0  0  0  0  0
   12.1261  -15.8643   18.5144 C   0  0  1  0  0  0  0  0  0  0  0  0
   12.8147  -15.9564   17.1977 C   0  0  0  0  0  0  0  0  0  0  0  0
   12.3304  -16.8945   16.1648 C   0  0  0  0  0  0  0  0  0  0  0  0
   12.5888  -18.3173   16.5267 C   0  0  0  0  0  0  0  0  0  0  0  0
   12.1032  -19.2074   15.3878 C   0  0  0  0  0  0  0  0  0  0  0  0
   12.3997  -20.5761   15.8352 N   0  0  0  0  0  0  0  0  0  0  0  0
   12.8461  -15.3782   19.6430 C   0  0  0  0  0  0  0  0  0  0  0  0
   13.1393  -14.1298   19.7327 O   0  0  0  0  0  0  0  0  0  0  0  0
   11.4743  -14.9683   22.7964 N   0  0  0  0  0  0  0  0  0  0  0  0
   12.2600  -15.8690   23.5633 C   0  0  0  0  0  0  0  0  0  0  0  0
   11.7184  -16.3503   24.6118 O   0  0  0  0  0  0  0  0  0  0  0  0
   13.6256  -16.2253   23.1635 C   0  0  0  0  0  0  0  0  0  0  0  0
   14.0178  -15.5234   21.8639 C   0  0  2  0  0  0  0  0  0  0  0  0
   13.3071  -16.1516   20.7789 N   0  0  0  0  0  0  0  0  0  0  0  0
   15.4896  -15.5917   21.6904 C   0  0  0  0  0  0  0  0  0  0  0  0
   16.4204  -14.9478   22.4525 O   0  0  0  0  0  0  0  0  0  0  0  0
   15.9103  -16.3271   20.7346 O   0  0  0  0  0  0  0  0  0  0  0  0
  2  1  1  6
  2  4  1  0
  3  2  1  0
  4  5  1  1
  6  4  1  0
  6  7  2  0
  8  6  1  0
  9  8  1  0
  9 10  1  6
 11 10  1  0
 12 11  1  0
 13 12  1  0
 13 14  1  0
 15  9  1  0
 16 15  2  0
 18 17  1  0
 18 20  1  0
 19 18  2  0
 21 20  1  1
 21 22  1  0
 22 15  1  0
 23 21  1  0
 24 23  1  0
 25 23  2  0
M  END
$$$$
