VKN.pdb
     RDKit          3D

 25 24  0  0  1  0  0  0  0  0999 V2000
    7.4184  -16.3278   19.2792 C   0  0  0  0  0  0  0  0  0  0  0  0
    7.8981  -15.1410   18.5117 C   0  0  1  0  0  0  0  0  0  0  0  0
    7.2499  -15.1130   17.1513 C   0  0  0  0  0  0  0  0  0  0  0  0
    7.7248  -13.8351   19.2492 C   0  0  2  0  0  0  0  0  0  0  0  0
    8.2423  -12.7404   18.4523 N   0  0  0  0  0  0  0  0  0  0  0  0
    8.3092  -13.8505   20.6090 C   0  0  0  0  0  0  0  0  0  0  0  0
    9.5762  -13.8576   20.7526 O   0  0  0  0  0  0  0  0  0  0  0  0
    7.5468  -13.8575   21.7906 N   0  0  0  0  0  0  0  0  0  0  0  0
    8.1665  -13.8858   23.1529 C   0  0  1  0  0  0  0  0  0  0  0  0
    7.1649  -13.1405   23.9640 C   0  0  0  0  0  0  0  0  0  0  0  0
    7.3030  -13.0593   25.4323 C   0  0  0  0  0  0  0  0  0  0  0  0
    6.2143  -12.2572   26.0595 C   0  0  0  0  0  0  0  0  0  0  0  0
    6.4655  -12.1823   27.5616 C   0  0  0  0  0  0  0  0  0  0  0  0
    5.3722  -11.3465   28.0788 N   0  0  0  0  0  0  0  0  0  0  0  0
    8.5315  -15.2066   23.5411 C   0  0  0  0  0  0  0  0  0  0  0  0
    7.6893  -16.1704   23.4215 O   0  0  0  0  0  0  0  0  0  0  0  0
   13.3899  -17.0475   24.5718 N   0  0  0  0  0  0  0  0  0  0  0  0
   12.3528  -16.7537   23.6473 C   0  0  0  0  0  0  0  0  0  0  0  0
   12.5301  -15.7432   22.8911 O   0  0  0  0  0  0  0  0  0  0  0  0
   11.1406  -17.5762   23.5695 C   0  0  0  0  0  0  0  0  0  0  0  0
   10.0328  -17.0059   24.4545 C   0  0  2  0  0  0  0  0  0  0  0  0
    9.8104  -15.6343   24.0724 N   0  0  0  0  0  0  0  0  0  0  0  0
   10.4213  -17.1399   25.8800 C   0  0  0  0  0  0  0  0  0  0  0  0
   10.7223  -18.3034   26.5261 O   0  0  0  0  0  0  0  0  0  0  0  0
   10.4760  -16.0557   26.5529 O   0  0  0  0  0  0  0  0  0  0  0  0
  2  1  1  1
  2  4  1  0
  3  2  1  0
  4  5  1  6
  6  4  1  0
  6  7  2  0
  8  6  1  0
  9  8  1  0
  9 10  1  1
 11 10  1  0
 12 11  1  0
 13 12  1  0
 13 14  1  0
 15  9  1  0
 16 15  2  0
 18 17  1  0
 18 20  1  0
 19 18  2  0
 21 20  1  6
 21 22  1  0
 22 15  1  0
 23 21  1  0
 24 23  1  0
 25 23  2  0
M  END
$$$$
