VKN.pdb
     RDKit          3D

 25 24  0  0  1  0  0  0  0  0999 V2000
    6.6705  -11.0153   26.7218 C   0  0  0  0  0  0  0  0  0  0  0  0
    7.2522  -12.2833   26.1912 C   0  0  1  0  0  0  0  0  0  0  0  0
    8.1532  -12.9073   27.2258 C   0  0  0  0  0  0  0  0  0  0  0  0
    6.2159  -13.2556   25.6814 C   0  0  2  0  0  0  0  0  0  0  0  0
    5.3092  -13.6236   26.7509 N   0  0  0  0  0  0  0  0  0  0  0  0
    6.8038  -14.4445   25.0246 C   0  0  0  0  0  0  0  0  0  0  0  0
    6.9191  -15.5345   25.6760 O   0  0  0  0  0  0  0  0  0  0  0  0
    7.2583  -14.4614   23.6938 N   0  0  0  0  0  0  0  0  0  0  0  0
    7.8909  -15.6663   23.0704 C   0  0  1  0  0  0  0  0  0  0  0  0
    7.7144  -15.3917   21.6178 C   0  0  0  0  0  0  0  0  0  0  0  0
    8.2923  -16.3028   20.6091 C   0  0  0  0  0  0  0  0  0  0  0  0
    7.8868  -15.9406   19.2211 C   0  0  0  0  0  0  0  0  0  0  0  0
    8.5903  -16.8782   18.2458 C   0  0  0  0  0  0  0  0  0  0  0  0
    8.3473  -16.2862   16.9223 N   0  0  0  0  0  0  0  0  0  0  0  0
    9.2002  -15.9000   23.5797 C   0  0  0  0  0  0  0  0  0  0  0  0
    9.9534  -14.9095   23.9024 O   0  0  0  0  0  0  0  0  0  0  0  0
    9.5336  -19.1730   26.6678 N   0  0  0  0  0  0  0  0  0  0  0  0
   10.6824  -18.3989   26.3552 C   0  0  0  0  0  0  0  0  0  0  0  0
   11.0823  -17.5826   27.2485 O   0  0  0  0  0  0  0  0  0  0  0  0
   11.3715  -18.5369   25.0676 C   0  0  0  0  0  0  0  0  0  0  0  0
   11.2056  -17.2770   24.2187 C   0  0  2  0  0  0  0  0  0  0  0  0
    9.8270  -17.1867   23.8087 N   0  0  0  0  0  0  0  0  0  0  0  0
   12.1362  -17.3330   23.0646 C   0  0  0  0  0  0  0  0  0  0  0  0
   13.4878  -17.1518   23.1112 O   0  0  0  0  0  0  0  0  0  0  0  0
   11.6084  -17.5759   21.9270 O   0  0  0  0  0  0  0  0  0  0  0  0
  2  1  1  1
  2  4  1  0
  3  2  1  0
  4  5  1  1
  6  4  1  0
  6  7  2  0
  8  6  1  0
  9  8  1  0
  9 10  1  6
 11 10  1  0
 12 11  1  0
 13 12  1  0
 13 14  1  0
 15  9  1  0
 16 15  2  0
 18 17  1  0
 18 20  1  0
 19 18  2  0
 21 20  1  6
 21 22  1  0
 22 15  1  0
 23 21  1  0
 24 23  1  0
 25 23  2  0
M  END
$$$$
