HFM.pdb
     RDKit          3D

 30 31  0  0  1  0  0  0  0  0999 V2000
   27.9604  -22.3118  -18.0993 N   0  0  0  0  0  0  0  0  0  0  0  0
   27.3548  -21.1741  -17.4482 C   0  0  1  0  0  0  0  0  0  0  0  0
   26.4383  -20.4140  -18.4083 C   0  0  0  0  0  0  0  0  0  0  0  0
   27.3191  -19.6918  -19.3607 C   0  0  0  0  0  0  0  0  0  0  0  0
   27.4137  -19.9726  -20.7245 C   0  0  0  0  0  0  0  0  0  0  0  0
   28.3204  -19.0965  -21.2386 N   0  0  0  0  0  0  0  0  0  0  0  0
   28.7761  -18.3073  -20.2686 C   0  0  0  0  0  0  0  0  0  0  0  0
   28.1677  -18.6705  -19.1327 N   0  0  0  0  0  0  0  0  0  0  0  0
   26.6463  -21.5363  -16.2080 C   0  0  0  0  0  0  0  0  0  0  0  0
   26.0637  -22.6466  -16.1197 O   0  0  0  0  0  0  0  0  0  0  0  0
   26.6409  -20.6139  -15.1380 N   0  0  0  0  0  0  0  0  0  0  0  0
   26.0393  -20.9988  -13.8412 C   0  0  1  0  0  0  0  0  0  0  0  0
   26.7628  -20.2934  -12.7474 C   0  0  0  0  0  0  0  0  0  0  0  0
   26.2464  -20.4220  -11.3955 C   0  0  0  0  0  0  0  0  0  0  0  0
   25.4749  -19.3834  -10.8751 C   0  0  0  0  0  0  0  0  0  0  0  0
   24.9560  -19.5430   -9.6168 C   0  0  0  0  0  0  0  0  0  0  0  0
   25.1559  -20.6782   -8.8350 C   0  0  0  0  0  0  0  0  0  0  0  0
   25.9318  -21.6706   -9.4127 C   0  0  0  0  0  0  0  0  0  0  0  0
   26.4833  -21.5771  -10.6689 C   0  0  0  0  0  0  0  0  0  0  0  0
   24.6345  -20.5642  -13.9302 C   0  0  0  0  0  0  0  0  0  0  0  0
   24.3808  -19.3765  -14.3429 O   0  0  0  0  0  0  0  0  0  0  0  0
   20.4623  -21.9919  -18.4708 C   0  0  0  0  0  0  0  0  0  0  0  0
   20.2282  -22.3571  -16.7120 S   0  0  0  0  0  0  0  0  0  0  0  0
   21.3406  -21.2985  -15.7581 C   0  0  0  0  0  0  0  0  0  0  0  0
   21.2279  -21.6914  -14.2929 C   0  0  0  0  0  0  0  0  0  0  0  0
   22.2136  -20.7764  -13.5379 C   0  0  2  0  0  0  0  0  0  0  0  0
   23.5137  -21.4058  -13.5852 N   0  0  0  0  0  0  0  0  0  0  0  0
   21.7377  -20.6893  -12.1623 C   0  0  0  0  0  0  0  0  0  0  0  0
   20.8519  -19.8955  -11.8126 O   0  0  0  0  0  0  0  0  0  0  0  0
   22.3165  -21.5468  -11.2057 O   0  0  0  0  0  0  0  0  0  0  0  0
  2  1  1  6
  2  3  1  0
  3  4  1  0
  4  5  2  0
  5  6  1  0
  7  6  1  0
  8  4  1  0
  8  7  2  0
  9  2  1  0
  9 11  1  0
 10  9  2  0
 12 11  1  0
 12 13  1  1
 13 14  1  0
 14 15  2  0
 14 19  1  0
 15 16  1  0
 16 17  2  0
 18 17  1  0
 19 18  2  0
 20 12  1  0
 21 20  2  0
 22 23  1  0
 24 23  1  0
 25 24  1  0
 26 25  1  6
 26 27  1  0
 26 28  1  0
 27 20  1  0
 28 30  1  0
 29 28  2  0
M  END
$$$$
