HFM.pdb
     RDKit          3D

 30 31  0  0  1  0  0  0  0  0999 V2000
   28.3024  -21.1475  -15.1190 N   0  0  0  0  0  0  0  0  0  0  0  0
   27.4432  -20.2154  -14.4277 C   0  0  1  0  0  0  0  0  0  0  0  0
   26.7197  -19.2978  -15.4147 C   0  0  0  0  0  0  0  0  0  0  0  0
   27.7669  -18.5217  -16.1256 C   0  0  0  0  0  0  0  0  0  0  0  0
   28.2334  -18.8076  -17.4094 C   0  0  0  0  0  0  0  0  0  0  0  0
   29.1806  -17.8719  -17.6949 N   0  0  0  0  0  0  0  0  0  0  0  0
   29.3117  -17.0421  -16.6626 C   0  0  0  0  0  0  0  0  0  0  0  0
   28.4542  -17.4384  -15.7141 N   0  0  0  0  0  0  0  0  0  0  0  0
   26.4913  -20.8807  -13.5209 C   0  0  0  0  0  0  0  0  0  0  0  0
   25.9695  -21.9752  -13.8523 O   0  0  0  0  0  0  0  0  0  0  0  0
   26.1867  -20.2623  -12.2878 N   0  0  0  0  0  0  0  0  0  0  0  0
   25.1650  -20.8616  -11.3997 C   0  0  1  0  0  0  0  0  0  0  0  0
   25.3465  -20.3205  -10.0243 C   0  0  0  0  0  0  0  0  0  0  0  0
   26.6096  -20.5751   -9.3531 C   0  0  0  0  0  0  0  0  0  0  0  0
   27.4865  -21.5038   -9.9129 C   0  0  0  0  0  0  0  0  0  0  0  0
   28.6935  -21.6954   -9.2929 C   0  0  0  0  0  0  0  0  0  0  0  0
   29.0893  -21.0178   -8.1423 C   0  0  0  0  0  0  0  0  0  0  0  0
   28.1705  -20.1103   -7.6394 C   0  0  0  0  0  0  0  0  0  0  0  0
   26.9427  -19.8685   -8.2095 C   0  0  0  0  0  0  0  0  0  0  0  0
   23.8727  -20.4525  -11.9770 C   0  0  0  0  0  0  0  0  0  0  0  0
   23.8702  -19.6492  -12.9770 O   0  0  0  0  0  0  0  0  0  0  0  0
   19.5172  -23.3996  -16.7836 C   0  0  0  0  0  0  0  0  0  0  0  0
   20.9057  -23.3947  -15.6201 S   0  0  0  0  0  0  0  0  0  0  0  0
   20.6152  -22.0994  -14.3929 C   0  0  0  0  0  0  0  0  0  0  0  0
   21.7827  -22.1000  -13.4180 C   0  0  0  0  0  0  0  0  0  0  0  0
   21.5046  -20.9469  -12.4322 C   0  0  2  0  0  0  0  0  0  0  0  0
   22.5959  -20.9123  -11.4853 N   0  0  0  0  0  0  0  0  0  0  0  0
   20.2517  -21.2634  -11.7568 C   0  0  0  0  0  0  0  0  0  0  0  0
   19.2120  -20.6141  -11.9425 O   0  0  0  0  0  0  0  0  0  0  0  0
   20.2383  -22.3517  -10.8619 O   0  0  0  0  0  0  0  0  0  0  0  0
  2  1  1  6
  2  3  1  0
  3  4  1  0
  4  5  2  0
  5  6  1  0
  7  6  1  0
  8  4  1  0
  8  7  2  0
  9  2  1  0
  9 11  1  0
 10  9  2  0
 12 11  1  0
 12 13  1  1
 13 14  1  0
 14 15  2  0
 14 19  1  0
 15 16  1  0
 16 17  2  0
 18 17  1  0
 19 18  2  0
 20 12  1  0
 21 20  2  0
 22 23  1  0
 24 23  1  0
 25 24  1  0
 26 25  1  6
 26 27  1  0
 26 28  1  0
 27 20  1  0
 28 30  1  0
 29 28  2  0
M  END
$$$$
