HFM.pdb
     RDKit          3D

 30 31  0  0  1  0  0  0  0  0999 V2000
   27.2204  -18.7982  -19.2021 N   0  0  0  0  0  0  0  0  0  0  0  0
   26.1894  -18.7337  -18.1932 C   0  0  1  0  0  0  0  0  0  0  0  0
   24.8083  -18.9846  -18.8007 C   0  0  0  0  0  0  0  0  0  0  0  0
   24.5138  -17.8311  -19.6878 C   0  0  0  0  0  0  0  0  0  0  0  0
   24.1323  -16.5644  -19.2434 C   0  0  0  0  0  0  0  0  0  0  0  0
   23.9588  -15.7992  -20.3562 N   0  0  0  0  0  0  0  0  0  0  0  0
   24.2123  -16.5275  -21.4410 C   0  0  0  0  0  0  0  0  0  0  0  0
   24.5481  -17.7574  -21.0327 N   0  0  0  0  0  0  0  0  0  0  0  0
   26.4451  -19.6365  -17.0571 C   0  0  0  0  0  0  0  0  0  0  0  0
   26.7286  -20.8431  -17.2660 O   0  0  0  0  0  0  0  0  0  0  0  0
   26.3635  -19.1146  -15.7467 N   0  0  0  0  0  0  0  0  0  0  0  0
   26.5620  -20.0124  -14.5864 C   0  0  1  0  0  0  0  0  0  0  0  0
   26.9228  -19.1901  -13.3985 C   0  0  0  0  0  0  0  0  0  0  0  0
   26.9455  -19.8417  -12.1002 C   0  0  0  0  0  0  0  0  0  0  0  0
   28.0610  -20.6050  -11.7569 C   0  0  0  0  0  0  0  0  0  0  0  0
   28.0863  -21.1722  -10.5097 C   0  0  0  0  0  0  0  0  0  0  0  0
   27.0657  -21.0288   -9.5728 C   0  0  0  0  0  0  0  0  0  0  0  0
   25.9878  -20.2584   -9.9792 C   0  0  0  0  0  0  0  0  0  0  0  0
   25.8964  -19.6607  -11.2142 C   0  0  0  0  0  0  0  0  0  0  0  0
   25.2663  -20.6894  -14.4038 C   0  0  0  0  0  0  0  0  0  0  0  0
   24.1895  -20.0012  -14.5138 O   0  0  0  0  0  0  0  0  0  0  0  0
   20.2200  -19.6245  -14.4983 C   0  0  0  0  0  0  0  0  0  0  0  0
   20.2898  -21.1677  -15.4445 S   0  0  0  0  0  0  0  0  0  0  0  0
   21.4650  -22.2783  -14.6362 C   0  0  0  0  0  0  0  0  0  0  0  0
   22.8387  -21.6263  -14.6783 C   0  0  0  0  0  0  0  0  0  0  0  0
   23.7905  -22.6110  -13.9689 C   0  0  2  0  0  0  0  0  0  0  0  0
   25.1336  -22.0971  -14.1133 N   0  0  0  0  0  0  0  0  0  0  0  0
   23.6572  -23.8919  -14.6528 C   0  0  0  0  0  0  0  0  0  0  0  0
   22.6556  -24.6122  -14.5296 O   0  0  0  0  0  0  0  0  0  0  0  0
   24.7156  -24.3133  -15.4820 O   0  0  0  0  0  0  0  0  0  0  0  0
  2  1  1  6
  2  3  1  0
  3  4  1  0
  4  5  2  0
  5  6  1  0
  7  6  1  0
  8  4  1  0
  8  7  2  0
  9  2  1  0
  9 11  1  0
 10  9  2  0
 12 11  1  0
 12 13  1  1
 13 14  1  0
 14 15  2  0
 14 19  1  0
 15 16  1  0
 16 17  2  0
 18 17  1  0
 19 18  2  0
 20 12  1  0
 21 20  2  0
 22 23  1  0
 24 23  1  0
 25 24  1  0
 26 25  1  6
 26 27  1  0
 26 28  1  0
 27 20  1  0
 28 30  1  0
 29 28  2  0
M  END
$$$$
