HFM.pdb
     RDKit          3D

 30 31  0  0  1  0  0  0  0  0999 V2000
   15.3762  -15.3525  -17.0854 N   0  0  0  0  0  0  0  0  0  0  0  0
   15.0713  -13.9422  -17.0310 C   0  0  1  0  0  0  0  0  0  0  0  0
   13.6369  -13.7071  -16.5548 C   0  0  0  0  0  0  0  0  0  0  0  0
   12.7412  -14.2017  -17.6307 C   0  0  0  0  0  0  0  0  0  0  0  0
   12.0338  -15.4037  -17.5854 C   0  0  0  0  0  0  0  0  0  0  0  0
   11.3375  -15.4879  -18.7526 N   0  0  0  0  0  0  0  0  0  0  0  0
   11.5829  -14.4114  -19.4957 C   0  0  0  0  0  0  0  0  0  0  0  0
   12.4333  -13.6345  -18.8135 N   0  0  0  0  0  0  0  0  0  0  0  0
   16.0355  -13.1806  -16.2177 C   0  0  0  0  0  0  0  0  0  0  0  0
   16.2626  -13.5227  -15.0298 O   0  0  0  0  0  0  0  0  0  0  0  0
   16.6869  -12.0718  -16.8029 N   0  0  0  0  0  0  0  0  0  0  0  0
   17.6154  -11.2541  -15.9898 C   0  0  1  0  0  0  0  0  0  0  0  0
   18.9568  -11.2642  -16.6362 C   0  0  0  0  0  0  0  0  0  0  0  0
   19.6603  -12.5322  -16.7260 C   0  0  0  0  0  0  0  0  0  0  0  0
   19.5631  -13.2661  -17.9078 C   0  0  0  0  0  0  0  0  0  0  0  0
   20.2722  -14.4357  -17.9923 C   0  0  0  0  0  0  0  0  0  0  0  0
   21.0792  -14.9278  -16.9693 C   0  0  0  0  0  0  0  0  0  0  0  0
   21.1302  -14.1493  -15.8238 C   0  0  0  0  0  0  0  0  0  0  0  0
   20.4452  -12.9668  -15.6708 C   0  0  0  0  0  0  0  0  0  0  0  0
   17.0266   -9.9036  -15.9840 C   0  0  0  0  0  0  0  0  0  0  0  0
   16.7876   -9.3297  -17.1060 O   0  0  0  0  0  0  0  0  0  0  0  0
   12.4185   -6.4898  -12.5003 C   0  0  0  0  0  0  0  0  0  0  0  0
   12.5257   -6.2630  -14.2943 S   0  0  0  0  0  0  0  0  0  0  0  0
   14.2639   -6.3730  -14.7789 C   0  0  0  0  0  0  0  0  0  0  0  0
   14.7180   -7.8124  -14.5906 C   0  0  0  0  0  0  0  0  0  0  0  0
   16.2204   -7.8256  -14.9391 C   0  0  2  0  0  0  0  0  0  0  0  0
   16.6914   -9.1826  -14.7793 N   0  0  0  0  0  0  0  0  0  0  0  0
   16.8811   -6.9400  -13.9877 C   0  0  0  0  0  0  0  0  0  0  0  0
   16.7651   -5.7065  -14.0340 O   0  0  0  0  0  0  0  0  0  0  0  0
   17.6784   -7.5235  -12.9831 O   0  0  0  0  0  0  0  0  0  0  0  0
  2  1  1  1
  2  3  1  0
  3  4  1  0
  4  5  2  0
  5  6  1  0
  7  6  1  0
  8  4  1  0
  8  7  2  0
  9  2  1  0
  9 11  1  0
 10  9  2  0
 12 11  1  0
 12 13  1  6
 13 14  1  0
 14 15  2  0
 14 19  1  0
 15 16  1  0
 16 17  2  0
 18 17  1  0
 19 18  2  0
 20 12  1  0
 21 20  2  0
 22 23  1  0
 24 23  1  0
 25 24  1  0
 26 25  1  1
 26 27  1  0
 26 28  1  0
 27 20  1  0
 28 30  1  0
 29 28  2  0
M  END
$$$$
