HFM.pdb
     RDKit          3D

 30 31  0  0  1  0  0  0  0  0999 V2000
   27.4474  -21.1881  -13.5005 N   0  0  0  0  0  0  0  0  0  0  0  0
   26.9246  -20.1844  -12.6037 C   0  0  1  0  0  0  0  0  0  0  0  0
   25.6177  -19.5960  -13.1379 C   0  0  0  0  0  0  0  0  0  0  0  0
   25.9656  -18.8036  -14.3443 C   0  0  0  0  0  0  0  0  0  0  0  0
   26.6049  -17.5633  -14.3228 C   0  0  0  0  0  0  0  0  0  0  0  0
   26.7407  -17.1747  -15.6207 N   0  0  0  0  0  0  0  0  0  0  0  0
   26.2228  -18.1044  -16.4201 C   0  0  0  0  0  0  0  0  0  0  0  0
   25.7543  -19.0893  -15.6439 N   0  0  0  0  0  0  0  0  0  0  0  0
   26.7635  -20.6788  -11.2250 C   0  0  0  0  0  0  0  0  0  0  0  0
   26.3682  -21.8547  -11.0223 O   0  0  0  0  0  0  0  0  0  0  0  0
   27.0614  -19.8064  -10.1544 N   0  0  0  0  0  0  0  0  0  0  0  0
   27.0774  -20.3259   -8.7682 C   0  0  1  0  0  0  0  0  0  0  0  0
   28.0715  -19.5504   -7.9757 C   0  0  0  0  0  0  0  0  0  0  0  0
   28.1477  -19.8003   -6.5465 C   0  0  0  0  0  0  0  0  0  0  0  0
   27.6115  -18.8532   -5.6747 C   0  0  0  0  0  0  0  0  0  0  0  0
   27.6490  -19.1283   -4.3328 C   0  0  0  0  0  0  0  0  0  0  0  0
   28.1896  -20.2943   -3.7960 C   0  0  0  0  0  0  0  0  0  0  0  0
   28.7050  -21.1915   -4.7180 C   0  0  0  0  0  0  0  0  0  0  0  0
   28.7008  -20.9801   -6.0767 C   0  0  0  0  0  0  0  0  0  0  0  0
   25.7067  -20.1195   -8.2692 C   0  0  0  0  0  0  0  0  0  0  0  0
   25.0975  -19.0317   -8.5706 O   0  0  0  0  0  0  0  0  0  0  0  0
   19.7715  -21.3293   -9.9516 C   0  0  0  0  0  0  0  0  0  0  0  0
   21.4862  -21.6655  -10.4293 S   0  0  0  0  0  0  0  0  0  0  0  0
   22.4638  -21.8844   -8.9245 C   0  0  0  0  0  0  0  0  0  0  0  0
   22.8587  -20.5079   -8.4117 C   0  0  0  0  0  0  0  0  0  0  0  0
   23.6349  -20.7565   -7.1023 C   0  0  2  0  0  0  0  0  0  0  0  0
   24.9971  -21.0812   -7.4599 N   0  0  0  0  0  0  0  0  0  0  0  0
   22.9959  -21.8890   -6.4427 C   0  0  0  0  0  0  0  0  0  0  0  0
   21.8366  -21.8386   -6.0059 O   0  0  0  0  0  0  0  0  0  0  0  0
   23.7371  -23.0793   -6.3041 O   0  0  0  0  0  0  0  0  0  0  0  0
  2  1  1  6
  2  3  1  0
  3  4  1  0
  4  5  2  0
  5  6  1  0
  7  6  1  0
  8  4  1  0
  8  7  2  0
  9  2  1  0
  9 11  1  0
 10  9  2  0
 12 11  1  0
 12 13  1  1
 13 14  1  0
 14 15  2  0
 14 19  1  0
 15 16  1  0
 16 17  2  0
 18 17  1  0
 19 18  2  0
 20 12  1  0
 21 20  2  0
 22 23  1  0
 24 23  1  0
 25 24  1  0
 26 25  1  6
 26 27  1  0
 26 28  1  0
 27 20  1  0
 28 30  1  0
 29 28  2  0
M  END
$$$$
