HFM.pdb
     RDKit          3D

 30 31  0  0  1  0  0  0  0  0999 V2000
   27.7112  -33.1501   10.4228 N   0  0  0  0  0  0  0  0  0  0  0  0
   27.0221  -32.0905   11.1209 C   0  0  1  0  0  0  0  0  0  0  0  0
   26.8952  -32.4056   12.6123 C   0  0  0  0  0  0  0  0  0  0  0  0
   25.9778  -33.5671   12.7288 C   0  0  0  0  0  0  0  0  0  0  0  0
   26.2116  -34.8234   12.1678 C   0  0  0  0  0  0  0  0  0  0  0  0
   25.1444  -35.6009   12.5000 N   0  0  0  0  0  0  0  0  0  0  0  0
   24.2844  -34.8899   13.2255 C   0  0  0  0  0  0  0  0  0  0  0  0
   24.7922  -33.6588   13.3621 N   0  0  0  0  0  0  0  0  0  0  0  0
   27.6378  -30.7695   10.9046 C   0  0  0  0  0  0  0  0  0  0  0  0
   28.8884  -30.6640   10.8347 O   0  0  0  0  0  0  0  0  0  0  0  0
   26.7949  -29.6425   10.7804 N   0  0  0  0  0  0  0  0  0  0  0  0
   27.3873  -28.3064   10.5440 C   0  0  1  0  0  0  0  0  0  0  0  0
   26.6763  -27.6597    9.4067 C   0  0  0  0  0  0  0  0  0  0  0  0
   26.9422  -26.2552    9.1470 C   0  0  0  0  0  0  0  0  0  0  0  0
   28.1757  -25.9000    8.6020 C   0  0  0  0  0  0  0  0  0  0  0  0
   28.3903  -24.5765    8.3187 C   0  0  0  0  0  0  0  0  0  0  0  0
   27.4502  -23.5739    8.5439 C   0  0  0  0  0  0  0  0  0  0  0  0
   26.2472  -23.9962    9.0871 C   0  0  0  0  0  0  0  0  0  0  0  0
   25.9646  -25.3061    9.3958 C   0  0  0  0  0  0  0  0  0  0  0  0
   27.1787  -27.5701   11.8029 C   0  0  0  0  0  0  0  0  0  0  0  0
   26.0566  -27.6946   12.4119 O   0  0  0  0  0  0  0  0  0  0  0  0
   29.5876  -22.4304   16.8058 C   0  0  0  0  0  0  0  0  0  0  0  0
   30.1624  -24.0715   16.2978 S   0  0  0  0  0  0  0  0  0  0  0  0
   28.7537  -24.9860   15.6289 C   0  0  0  0  0  0  0  0  0  0  0  0
   29.1006  -25.4214   14.2134 C   0  0  0  0  0  0  0  0  0  0  0  0
   27.8238  -26.0821   13.6547 C   0  0  2  0  0  0  0  0  0  0  0  0
   28.1741  -26.7144   12.4031 N   0  0  0  0  0  0  0  0  0  0  0  0
   26.8581  -25.0121   13.4340 C   0  0  0  0  0  0  0  0  0  0  0  0
   26.8269  -24.3479   12.3876 O   0  0  0  0  0  0  0  0  0  0  0  0
   25.9315  -24.7345   14.4585 O   0  0  0  0  0  0  0  0  0  0  0  0
  2  1  1  6
  2  3  1  0
  3  4  1  0
  4  5  2  0
  5  6  1  0
  7  6  1  0
  8  4  1  0
  8  7  2  0
  9  2  1  0
  9 11  1  0
 10  9  2  0
 12 11  1  0
 12 13  1  6
 13 14  1  0
 14 15  2  0
 14 19  1  0
 15 16  1  0
 16 17  2  0
 18 17  1  0
 19 18  2  0
 20 12  1  0
 21 20  2  0
 22 23  1  0
 24 23  1  0
 25 24  1  0
 26 25  1  6
 26 27  1  0
 26 28  1  0
 27 20  1  0
 28 30  1  0
 29 28  2  0
M  END
$$$$
