HFM.pdb
     RDKit          3D

 30 31  0  0  1  0  0  0  0  0999 V2000
   27.2500  -22.8975  -17.8821 N   0  0  0  0  0  0  0  0  0  0  0  0
   26.8670  -21.6896  -17.1898 C   0  0  1  0  0  0  0  0  0  0  0  0
   25.9488  -20.8261  -18.0564 C   0  0  0  0  0  0  0  0  0  0  0  0
   26.8101  -20.1696  -19.0720 C   0  0  0  0  0  0  0  0  0  0  0  0
   27.8137  -19.2437  -18.7836 C   0  0  0  0  0  0  0  0  0  0  0  0
   28.3637  -18.8843  -19.9762 N   0  0  0  0  0  0  0  0  0  0  0  0
   27.7531  -19.5367  -20.9626 C   0  0  0  0  0  0  0  0  0  0  0  0
   26.8129  -20.3142  -20.4116 N   0  0  0  0  0  0  0  0  0  0  0  0
   26.2640  -21.9538  -15.8716 C   0  0  0  0  0  0  0  0  0  0  0  0
   25.6198  -23.0156  -15.6778 O   0  0  0  0  0  0  0  0  0  0  0  0
   26.4281  -20.9939  -14.8480 N   0  0  0  0  0  0  0  0  0  0  0  0
   25.9885  -21.3092  -13.4699 C   0  0  1  0  0  0  0  0  0  0  0  0
   26.7490  -20.4559  -12.5156 C   0  0  0  0  0  0  0  0  0  0  0  0
   26.4045  -20.5358  -11.1064 C   0  0  0  0  0  0  0  0  0  0  0  0
   25.4643  -19.6401  -10.5983 C   0  0  0  0  0  0  0  0  0  0  0  0
   25.1160  -19.7617   -9.2785 C   0  0  0  0  0  0  0  0  0  0  0  0
   25.6460  -20.7246   -8.4231 C   0  0  0  0  0  0  0  0  0  0  0  0
   26.5744  -21.5815   -8.9929 C   0  0  0  0  0  0  0  0  0  0  0  0
   26.9700  -21.5164  -10.3082 C   0  0  0  0  0  0  0  0  0  0  0  0
   24.5491  -20.9955  -13.4492 C   0  0  0  0  0  0  0  0  0  0  0  0
   24.1461  -19.9101  -14.0012 O   0  0  0  0  0  0  0  0  0  0  0  0
   19.6506  -24.9674  -12.3880 C   0  0  0  0  0  0  0  0  0  0  0  0
   18.7409  -23.4143  -12.1833 S   0  0  0  0  0  0  0  0  0  0  0  0
   19.8580  -22.0457  -12.5666 C   0  0  0  0  0  0  0  0  0  0  0  0
   21.2871  -22.5427  -12.4105 C   0  0  0  0  0  0  0  0  0  0  0  0
   22.1872  -21.3777  -12.8704 C   0  0  2  0  0  0  0  0  0  0  0  0
   23.5534  -21.8488  -12.8460 N   0  0  0  0  0  0  0  0  0  0  0  0
   22.0019  -20.2975  -11.9087 C   0  0  0  0  0  0  0  0  0  0  0  0
   22.5553  -20.2905  -10.7993 O   0  0  0  0  0  0  0  0  0  0  0  0
   21.1587  -19.2275  -12.2689 O   0  0  0  0  0  0  0  0  0  0  0  0
  2  1  1  6
  2  3  1  0
  3  4  1  0
  4  5  2  0
  5  6  1  0
  7  6  1  0
  8  4  1  0
  8  7  2  0
  9  2  1  0
  9 11  1  0
 10  9  2  0
 12 11  1  0
 12 13  1  1
 13 14  1  0
 14 15  2  0
 14 19  1  0
 15 16  1  0
 16 17  2  0
 18 17  1  0
 19 18  2  0
 20 12  1  0
 21 20  2  0
 22 23  1  0
 24 23  1  0
 25 24  1  0
 26 25  1  1
 26 27  1  0
 26 28  1  0
 27 20  1  0
 28 30  1  0
 29 28  2  0
M  END
$$$$
