HFM.pdb
     RDKit          3D

 30 31  0  0  1  0  0  0  0  0999 V2000
   27.1995  -24.4145  -19.5652 N   0  0  0  0  0  0  0  0  0  0  0  0
   26.3847  -25.5545  -19.9137 C   0  0  1  0  0  0  0  0  0  0  0  0
   25.2676  -25.1578  -20.8801 C   0  0  0  0  0  0  0  0  0  0  0  0
   25.1273  -23.6824  -20.7913 C   0  0  0  0  0  0  0  0  0  0  0  0
   25.0364  -22.9635  -19.5985 C   0  0  0  0  0  0  0  0  0  0  0  0
   24.9203  -21.6517  -19.9445 N   0  0  0  0  0  0  0  0  0  0  0  0
   24.9359  -21.5381  -21.2705 C   0  0  0  0  0  0  0  0  0  0  0  0
   25.0614  -22.7697  -21.7802 N   0  0  0  0  0  0  0  0  0  0  0  0
   27.1744  -26.6802  -20.4434 C   0  0  0  0  0  0  0  0  0  0  0  0
   28.1687  -26.4576  -21.1793 O   0  0  0  0  0  0  0  0  0  0  0  0
   26.7872  -27.9962  -20.1055 N   0  0  0  0  0  0  0  0  0  0  0  0
   27.6239  -29.1396  -20.5349 C   0  0  1  0  0  0  0  0  0  0  0  0
   28.7793  -29.2662  -19.6042 C   0  0  0  0  0  0  0  0  0  0  0  0
   28.5007  -29.5509  -18.2070 C   0  0  0  0  0  0  0  0  0  0  0  0
   28.1901  -28.4881  -17.3592 C   0  0  0  0  0  0  0  0  0  0  0  0
   27.8828  -28.7806  -16.0561 C   0  0  0  0  0  0  0  0  0  0  0  0
   27.8637  -30.0726  -15.5362 C   0  0  0  0  0  0  0  0  0  0  0  0
   28.1820  -31.0804  -16.4325 C   0  0  0  0  0  0  0  0  0  0  0  0
   28.5002  -30.8591  -17.7519 C   0  0  0  0  0  0  0  0  0  0  0  0
   26.7344  -30.3115  -20.4574 C   0  0  0  0  0  0  0  0  0  0  0  0
   25.8679  -30.3672  -19.5133 O   0  0  0  0  0  0  0  0  0  0  0  0
   23.6975  -34.5408  -25.0075 C   0  0  0  0  0  0  0  0  0  0  0  0
   24.6527  -35.4113  -23.7381 S   0  0  0  0  0  0  0  0  0  0  0  0
   24.7210  -34.3690  -22.2626 C   0  0  0  0  0  0  0  0  0  0  0  0
   25.8778  -33.3947  -22.4241 C   0  0  0  0  0  0  0  0  0  0  0  0
   25.8381  -32.4884  -21.1767 C   0  0  2  0  0  0  0  0  0  0  0  0
   26.7740  -31.4088  -21.3943 N   0  0  0  0  0  0  0  0  0  0  0  0
   26.2580  -33.3087  -20.0467 C   0  0  0  0  0  0  0  0  0  0  0  0
   27.4317  -33.6759  -19.8894 O   0  0  0  0  0  0  0  0  0  0  0  0
   25.2808  -33.6905  -19.1061 O   0  0  0  0  0  0  0  0  0  0  0  0
  2  1  1  6
  2  3  1  0
  3  4  1  0
  4  5  2  0
  5  6  1  0
  7  6  1  0
  8  4  1  0
  8  7  2  0
  9  2  1  0
  9 11  1  0
 10  9  2  0
 12 11  1  0
 12 13  1  1
 13 14  1  0
 14 15  2  0
 14 19  1  0
 15 16  1  0
 16 17  2  0
 18 17  1  0
 19 18  2  0
 20 12  1  0
 21 20  2  0
 22 23  1  0
 24 23  1  0
 25 24  1  0
 26 25  1  6
 26 27  1  0
 26 28  1  0
 27 20  1  0
 28 30  1  0
 29 28  2  0
M  END
$$$$
