HFM.pdb
     RDKit          3D

 30 31  0  0  1  0  0  0  0  0999 V2000
   21.8893  -12.3986  -19.8662 N   0  0  0  0  0  0  0  0  0  0  0  0
   22.5571  -12.6782  -18.6169 C   0  0  1  0  0  0  0  0  0  0  0  0
   23.4524  -13.9127  -18.7356 C   0  0  0  0  0  0  0  0  0  0  0  0
   22.5725  -15.0453  -19.1196 C   0  0  0  0  0  0  0  0  0  0  0  0
   21.5325  -14.9643  -20.0466 C   0  0  0  0  0  0  0  0  0  0  0  0
   20.9764  -16.2054  -20.1146 N   0  0  0  0  0  0  0  0  0  0  0  0
   21.6178  -17.0264  -19.2864 C   0  0  0  0  0  0  0  0  0  0  0  0
   22.5838  -16.3208  -18.6855 N   0  0  0  0  0  0  0  0  0  0  0  0
   23.3088  -11.5212  -18.0998 C   0  0  0  0  0  0  0  0  0  0  0  0
   24.0471  -11.6527  -17.0911 O   0  0  0  0  0  0  0  0  0  0  0  0
   23.1773  -10.2792  -18.7602 N   0  0  0  0  0  0  0  0  0  0  0  0
   23.8709   -9.0864  -18.2236 C   0  0  1  0  0  0  0  0  0  0  0  0
   24.5176   -8.3588  -19.3504 C   0  0  0  0  0  0  0  0  0  0  0  0
   25.0746   -7.0441  -19.0821 C   0  0  0  0  0  0  0  0  0  0  0  0
   24.3682   -5.9207  -19.5108 C   0  0  0  0  0  0  0  0  0  0  0  0
   24.8845   -4.6883  -19.2064 C   0  0  0  0  0  0  0  0  0  0  0  0
   26.0680   -4.4980  -18.4972 C   0  0  0  0  0  0  0  0  0  0  0  0
   26.7186   -5.6561  -18.1021 C   0  0  0  0  0  0  0  0  0  0  0  0
   26.2583   -6.9232  -18.3731 C   0  0  0  0  0  0  0  0  0  0  0  0
   22.8097   -8.2803  -17.5956 C   0  0  0  0  0  0  0  0  0  0  0  0
   21.7692   -7.9851  -18.2852 O   0  0  0  0  0  0  0  0  0  0  0  0
   18.7643   -8.7266  -12.8475 C   0  0  0  0  0  0  0  0  0  0  0  0
   19.5968   -9.8534  -13.9959 S   0  0  0  0  0  0  0  0  0  0  0  0
   21.0427   -9.0073  -14.6755 C   0  0  0  0  0  0  0  0  0  0  0  0
   20.5540   -7.8713  -15.5611 C   0  0  0  0  0  0  0  0  0  0  0  0
   21.7792   -6.9628  -15.7895 C   0  0  2  0  0  0  0  0  0  0  0  0
   22.8669   -7.8042  -16.2342 N   0  0  0  0  0  0  0  0  0  0  0  0
   22.0972   -6.3535  -14.5035 C   0  0  0  0  0  0  0  0  0  0  0  0
   23.1364   -6.6160  -13.8805 O   0  0  0  0  0  0  0  0  0  0  0  0
   21.1783   -5.4330  -13.9615 O   0  0  0  0  0  0  0  0  0  0  0  0
  2  1  1  6
  2  3  1  0
  3  4  1  0
  4  5  2  0
  5  6  1  0
  7  6  1  0
  8  4  1  0
  8  7  2  0
  9  2  1  0
  9 11  1  0
 10  9  2  0
 12 11  1  0
 12 13  1  6
 13 14  1  0
 14 15  2  0
 14 19  1  0
 15 16  1  0
 16 17  2  0
 18 17  1  0
 19 18  2  0
 20 12  1  0
 21 20  2  0
 22 23  1  0
 24 23  1  0
 25 24  1  0
 26 25  1  1
 26 27  1  0
 26 28  1  0
 27 20  1  0
 28 30  1  0
 29 28  2  0
M  END
$$$$
