HFM.pdb
     RDKit          3D

 30 31  0  0  1  0  0  0  0  0999 V2000
   28.6886  -21.4399  -15.1583 N   0  0  0  0  0  0  0  0  0  0  0  0
   27.5573  -20.5762  -14.9152 C   0  0  1  0  0  0  0  0  0  0  0  0
   26.9005  -20.1469  -16.2282 C   0  0  0  0  0  0  0  0  0  0  0  0
   27.9280  -19.4014  -16.9981 C   0  0  0  0  0  0  0  0  0  0  0  0
   28.3649  -19.7440  -18.2785 C   0  0  0  0  0  0  0  0  0  0  0  0
   29.3019  -18.8202  -18.6284 N   0  0  0  0  0  0  0  0  0  0  0  0
   29.4549  -17.9443  -17.6381 C   0  0  0  0  0  0  0  0  0  0  0  0
   28.6214  -18.2992  -16.6524 N   0  0  0  0  0  0  0  0  0  0  0  0
   26.5722  -21.1709  -13.9948 C   0  0  0  0  0  0  0  0  0  0  0  0
   26.0723  -22.2952  -14.2520 O   0  0  0  0  0  0  0  0  0  0  0  0
   26.2115  -20.4520  -12.8334 N   0  0  0  0  0  0  0  0  0  0  0  0
   25.3281  -21.0819  -11.8261 C   0  0  1  0  0  0  0  0  0  0  0  0
   25.5073  -20.3813  -10.5244 C   0  0  0  0  0  0  0  0  0  0  0  0
   26.6626  -20.7309   -9.7158 C   0  0  0  0  0  0  0  0  0  0  0  0
   26.8603  -20.0588   -8.5100 C   0  0  0  0  0  0  0  0  0  0  0  0
   27.9278  -20.4353   -7.7376 C   0  0  0  0  0  0  0  0  0  0  0  0
   28.8197  -21.4458   -8.0889 C   0  0  0  0  0  0  0  0  0  0  0  0
   28.5649  -22.0715   -9.2989 C   0  0  0  0  0  0  0  0  0  0  0  0
   27.5138  -21.7448  -10.1231 C   0  0  0  0  0  0  0  0  0  0  0  0
   23.9640  -20.9052  -12.3535 C   0  0  0  0  0  0  0  0  0  0  0  0
   23.6335  -19.7657  -12.8410 O   0  0  0  0  0  0  0  0  0  0  0  0
   17.0307  -23.6365  -14.7258 C   0  0  0  0  0  0  0  0  0  0  0  0
   18.6150  -24.0885  -13.9726 S   0  0  0  0  0  0  0  0  0  0  0  0
   19.5401  -22.5715  -13.6394 C   0  0  0  0  0  0  0  0  0  0  0  0
   20.9078  -22.9597  -13.0989 C   0  0  0  0  0  0  0  0  0  0  0  0
   21.7031  -21.6427  -12.9893 C   0  0  2  0  0  0  0  0  0  0  0  0
   22.9685  -21.9504  -12.3625 N   0  0  0  0  0  0  0  0  0  0  0  0
   20.9198  -20.7468  -12.1467 C   0  0  0  0  0  0  0  0  0  0  0  0
   20.2674  -19.7988  -12.6079 O   0  0  0  0  0  0  0  0  0  0  0  0
   20.9142  -20.9807  -10.7572 O   0  0  0  0  0  0  0  0  0  0  0  0
  2  1  1  6
  2  3  1  0
  3  4  1  0
  4  5  2  0
  5  6  1  0
  7  6  1  0
  8  4  1  0
  8  7  2  0
  9  2  1  0
  9 11  1  0
 10  9  2  0
 12 11  1  0
 12 13  1  1
 13 14  1  0
 14 15  2  0
 14 19  1  0
 15 16  1  0
 16 17  2  0
 18 17  1  0
 19 18  2  0
 20 12  1  0
 21 20  2  0
 22 23  1  0
 24 23  1  0
 25 24  1  0
 26 25  1  1
 26 27  1  0
 26 28  1  0
 27 20  1  0
 28 30  1  0
 29 28  2  0
M  END
$$$$
