HFM.pdb
     RDKit          3D

 30 31  0  0  1  0  0  0  0  0999 V2000
   27.9433  -22.7877  -16.1791 N   0  0  0  0  0  0  0  0  0  0  0  0
   27.5061  -21.5816  -15.5164 C   0  0  1  0  0  0  0  0  0  0  0  0
   26.8123  -20.6352  -16.4974 C   0  0  0  0  0  0  0  0  0  0  0  0
   27.7823  -20.3606  -17.5873 C   0  0  0  0  0  0  0  0  0  0  0  0
   29.0870  -20.8539  -17.6325 C   0  0  0  0  0  0  0  0  0  0  0  0
   29.6417  -20.3780  -18.7813 N   0  0  0  0  0  0  0  0  0  0  0  0
   28.7515  -19.6298  -19.4287 C   0  0  0  0  0  0  0  0  0  0  0  0
   27.6266  -19.6213  -18.7030 N   0  0  0  0  0  0  0  0  0  0  0  0
   26.6568  -21.8508  -14.3428 C   0  0  0  0  0  0  0  0  0  0  0  0
   26.3690  -23.0350  -14.0349 O   0  0  0  0  0  0  0  0  0  0  0  0
   26.1827  -20.7563  -13.5856 N   0  0  0  0  0  0  0  0  0  0  0  0
   25.7670  -20.9626  -12.1797 C   0  0  1  0  0  0  0  0  0  0  0  0
   26.8842  -20.5553  -11.2834 C   0  0  0  0  0  0  0  0  0  0  0  0
   26.6454  -20.5630   -9.8503 C   0  0  0  0  0  0  0  0  0  0  0  0
   27.4371  -19.7515   -9.0383 C   0  0  0  0  0  0  0  0  0  0  0  0
   27.1657  -19.7350   -7.6952 C   0  0  0  0  0  0  0  0  0  0  0  0
   26.1493  -20.4792   -7.1012 C   0  0  0  0  0  0  0  0  0  0  0  0
   25.4019  -21.2634   -7.9655 C   0  0  0  0  0  0  0  0  0  0  0  0
   25.6191  -21.3283   -9.3218 C   0  0  0  0  0  0  0  0  0  0  0  0
   24.5869  -20.0989  -12.0018 C   0  0  0  0  0  0  0  0  0  0  0  0
   24.2246  -19.7863  -10.8117 O   0  0  0  0  0  0  0  0  0  0  0  0
   22.6641  -15.7133  -16.6633 C   0  0  0  0  0  0  0  0  0  0  0  0
   21.6375  -17.0554  -16.0102 S   0  0  0  0  0  0  0  0  0  0  0  0
   22.6045  -17.9667  -14.7844 C   0  0  0  0  0  0  0  0  0  0  0  0
   21.7555  -19.1211  -14.2742 C   0  0  0  0  0  0  0  0  0  0  0  0
   22.3759  -19.5307  -12.9229 C   0  0  2  0  0  0  0  0  0  0  0  0
   23.8100  -19.5708  -13.0977 N   0  0  0  0  0  0  0  0  0  0  0  0
   21.8620  -20.8587  -12.6091 C   0  0  0  0  0  0  0  0  0  0  0  0
   22.3291  -21.8904  -13.1137 O   0  0  0  0  0  0  0  0  0  0  0  0
   20.7937  -20.9567  -11.6955 O   0  0  0  0  0  0  0  0  0  0  0  0
  2  1  1  6
  2  3  1  0
  3  4  1  0
  4  5  2  0
  5  6  1  0
  7  6  1  0
  8  4  1  0
  8  7  2  0
  9  2  1  0
  9 11  1  0
 10  9  2  0
 12 11  1  0
 12 13  1  1
 13 14  1  0
 14 15  2  0
 14 19  1  0
 15 16  1  0
 16 17  2  0
 18 17  1  0
 19 18  2  0
 20 12  1  0
 21 20  2  0
 22 23  1  0
 24 23  1  0
 25 24  1  0
 26 25  1  6
 26 27  1  0
 26 28  1  0
 27 20  1  0
 28 30  1  0
 29 28  2  0
M  END
$$$$
