HFM.pdb
     RDKit          3D

 30 31  0  0  1  0  0  0  0  0999 V2000
   25.9914  -18.8217  -18.9428 N   0  0  0  0  0  0  0  0  0  0  0  0
   25.1854  -18.3496  -17.8418 C   0  0  1  0  0  0  0  0  0  0  0  0
   23.8158  -17.8721  -18.3274 C   0  0  0  0  0  0  0  0  0  0  0  0
   24.0406  -16.6040  -19.0660 C   0  0  0  0  0  0  0  0  0  0  0  0
   23.5878  -16.3481  -20.3610 C   0  0  0  0  0  0  0  0  0  0  0  0
   23.9955  -15.0867  -20.6719 N   0  0  0  0  0  0  0  0  0  0  0  0
   24.6649  -14.5694  -19.6444 C   0  0  0  0  0  0  0  0  0  0  0  0
   24.6904  -15.4908  -18.6737 N   0  0  0  0  0  0  0  0  0  0  0  0
   25.0525  -19.3449  -16.7635 C   0  0  0  0  0  0  0  0  0  0  0  0
   24.7228  -20.5265  -17.0375 O   0  0  0  0  0  0  0  0  0  0  0  0
   25.3022  -18.9389  -15.4335 N   0  0  0  0  0  0  0  0  0  0  0  0
   25.1054  -19.8996  -14.3244 C   0  0  1  0  0  0  0  0  0  0  0  0
   25.8575  -19.4186  -13.1327 C   0  0  0  0  0  0  0  0  0  0  0  0
   25.6662  -20.1230  -11.8764 C   0  0  0  0  0  0  0  0  0  0  0  0
   24.8749  -19.5295  -10.8933 C   0  0  0  0  0  0  0  0  0  0  0  0
   24.6660  -20.2299   -9.7341 C   0  0  0  0  0  0  0  0  0  0  0  0
   25.1970  -21.4933   -9.4862 C   0  0  0  0  0  0  0  0  0  0  0  0
   25.9733  -22.0237  -10.5044 C   0  0  0  0  0  0  0  0  0  0  0  0
   26.2243  -21.3771  -11.6918 C   0  0  0  0  0  0  0  0  0  0  0  0
   23.6523  -19.9070  -14.0817 C   0  0  0  0  0  0  0  0  0  0  0  0
   23.0174  -18.7927  -14.1024 O   0  0  0  0  0  0  0  0  0  0  0  0
   16.6351  -23.1823  -14.1331 C   0  0  0  0  0  0  0  0  0  0  0  0
   18.4100  -23.5449  -14.1248 S   0  0  0  0  0  0  0  0  0  0  0  0
   19.2976  -22.0328  -13.6848 C   0  0  0  0  0  0  0  0  0  0  0  0
   20.7690  -22.2346  -14.0133 C   0  0  0  0  0  0  0  0  0  0  0  0
   21.4786  -20.9405  -13.5652 C   0  0  2  0  0  0  0  0  0  0  0  0
   22.8902  -21.1062  -13.8272 N   0  0  0  0  0  0  0  0  0  0  0  0
   21.2373  -20.8021  -12.1339 C   0  0  0  0  0  0  0  0  0  0  0  0
   20.4922  -19.9290  -11.6650 O   0  0  0  0  0  0  0  0  0  0  0  0
   21.8825  -21.7026  -11.2632 O   0  0  0  0  0  0  0  0  0  0  0  0
  2  1  1  6
  2  3  1  0
  3  4  1  0
  4  5  2  0
  5  6  1  0
  7  6  1  0
  8  4  1  0
  8  7  2  0
  9  2  1  0
  9 11  1  0
 10  9  2  0
 12 11  1  0
 12 13  1  1
 13 14  1  0
 14 15  2  0
 14 19  1  0
 15 16  1  0
 16 17  2  0
 18 17  1  0
 19 18  2  0
 20 12  1  0
 21 20  2  0
 22 23  1  0
 24 23  1  0
 25 24  1  0
 26 25  1  1
 26 27  1  0
 26 28  1  0
 27 20  1  0
 28 30  1  0
 29 28  2  0
M  END
$$$$
