HFM.pdb
     RDKit          3D

 30 31  0  0  1  0  0  0  0  0999 V2000
   19.2008  -10.6494  -16.7840 N   0  0  0  0  0  0  0  0  0  0  0  0
   19.3528   -9.2938  -16.3108 C   0  0  1  0  0  0  0  0  0  0  0  0
   18.2461   -8.3918  -16.8595 C   0  0  0  0  0  0  0  0  0  0  0  0
   18.4486   -8.3093  -18.3280 C   0  0  0  0  0  0  0  0  0  0  0  0
   17.9111   -9.2029  -19.2554 C   0  0  0  0  0  0  0  0  0  0  0  0
   18.3262   -8.7841  -20.4827 N   0  0  0  0  0  0  0  0  0  0  0  0
   19.0793   -7.6947  -20.3500 C   0  0  0  0  0  0  0  0  0  0  0  0
   19.1514   -7.4099  -19.0439 N   0  0  0  0  0  0  0  0  0  0  0  0
   19.4331   -9.2074  -14.8420 C   0  0  0  0  0  0  0  0  0  0  0  0
   18.6938   -9.9325  -14.1295 O   0  0  0  0  0  0  0  0  0  0  0  0
   20.3506   -8.2999  -14.2669 N   0  0  0  0  0  0  0  0  0  0  0  0
   20.4902   -8.2329  -12.7945 C   0  0  1  0  0  0  0  0  0  0  0  0
   21.9364   -8.1365  -12.4528 C   0  0  0  0  0  0  0  0  0  0  0  0
   22.3014   -8.0679  -11.0482 C   0  0  0  0  0  0  0  0  0  0  0  0
   22.4562   -6.8128  -10.4603 C   0  0  0  0  0  0  0  0  0  0  0  0
   22.7530   -6.7672   -9.1232 C   0  0  0  0  0  0  0  0  0  0  0  0
   22.9072   -7.8981   -8.3251 C   0  0  0  0  0  0  0  0  0  0  0  0
   22.7402   -9.1119   -8.9728 C   0  0  0  0  0  0  0  0  0  0  0  0
   22.4423   -9.2313  -10.3099 C   0  0  0  0  0  0  0  0  0  0  0  0
   19.7575   -7.0178  -12.3983 C   0  0  0  0  0  0  0  0  0  0  0  0
   19.9770   -5.9283  -13.0388 O   0  0  0  0  0  0  0  0  0  0  0  0
   13.5431   -5.1979  -10.9687 C   0  0  0  0  0  0  0  0  0  0  0  0
   14.3107   -6.6931  -11.6446 S   0  0  0  0  0  0  0  0  0  0  0  0
   16.0113   -6.7836  -11.0381 C   0  0  0  0  0  0  0  0  0  0  0  0
   16.8066   -5.6621  -11.6888 C   0  0  0  0  0  0  0  0  0  0  0  0
   18.1985   -5.6973  -11.0252 C   0  0  2  0  0  0  0  0  0  0  0  0
   18.7911   -6.9805  -11.3268 N   0  0  0  0  0  0  0  0  0  0  0  0
   17.9841   -5.5581   -9.5897 C   0  0  0  0  0  0  0  0  0  0  0  0
   17.5557   -4.5132   -9.0780 O   0  0  0  0  0  0  0  0  0  0  0  0
   18.2795   -6.6623   -8.7657 O   0  0  0  0  0  0  0  0  0  0  0  0
  2  1  1  1
  2  3  1  0
  3  4  1  0
  4  5  2  0
  5  6  1  0
  7  6  1  0
  8  4  1  0
  8  7  2  0
  9  2  1  0
  9 11  1  0
 10  9  2  0
 12 11  1  0
 12 13  1  6
 13 14  1  0
 14 15  2  0
 14 19  1  0
 15 16  1  0
 16 17  2  0
 18 17  1  0
 19 18  2  0
 20 12  1  0
 21 20  2  0
 22 23  1  0
 24 23  1  0
 25 24  1  0
 26 25  1  6
 26 27  1  0
 26 28  1  0
 27 20  1  0
 28 30  1  0
 29 28  2  0
M  END
$$$$
