MPD.pdb
     RDKit          3D

 24 24  0  0  1  0  0  0  0  0999 V2000
   20.3033  -14.8882  -21.1563 C   0  0  0  0  0  0  0  0  0  0  0  0
   21.1576  -16.4775  -20.9511 S   0  0  0  0  0  0  0  0  0  0  0  0
   21.5892  -16.7685  -19.2169 C   0  0  0  0  0  0  0  0  0  0  0  0
   21.5850  -15.4872  -18.4147 C   0  0  0  0  0  0  0  0  0  0  0  0
   21.8955  -15.8477  -16.9755 C   0  0  2  0  0  0  0  0  0  0  0  0
   20.9573  -16.8283  -16.5503 N   0  0  0  0  0  0  0  0  0  0  0  0
   22.0564  -14.6781  -16.1185 C   0  0  0  0  0  0  0  0  0  0  0  0
   21.0319  -14.3734  -15.4091 O   0  0  0  0  0  0  0  0  0  0  0  0
   23.1903  -13.8547  -15.9807 N   0  0  0  0  0  0  0  0  0  0  0  0
   24.4959  -13.8781  -16.5983 C   0  0  0  0  0  0  0  0  0  0  0  0
   25.3991  -13.6838  -15.3708 C   0  0  0  0  0  0  0  0  0  0  0  0
   24.7025  -12.5121  -14.7109 C   0  0  0  0  0  0  0  0  0  0  0  0
   23.2684  -12.6872  -15.0832 C   0  0  1  0  0  0  0  0  0  0  0  0
   22.6237  -11.5097  -15.6669 C   0  0  0  0  0  0  0  0  0  0  0  0
   22.1321  -11.5982  -16.8335 O   0  0  0  0  0  0  0  0  0  0  0  0
   22.4918  -10.2426  -15.0351 N   0  0  0  0  0  0  0  0  0  0  0  0
   21.5955   -9.2155  -15.5801 C   0  0  1  0  0  0  0  0  0  0  0  0
   20.1844   -9.7578  -15.5487 C   0  0  0  0  0  0  0  0  0  0  0  0
   19.2566   -8.7278  -16.0855 C   0  0  0  0  0  0  0  0  0  0  0  0
   19.1654   -8.4508  -17.3051 O   0  0  0  0  0  0  0  0  0  0  0  0
   21.6491   -7.9829  -14.7692 C   0  0  0  0  0  0  0  0  0  0  0  0
   21.4955   -6.8398  -15.2643 O   0  0  0  0  0  0  0  0  0  0  0  0
   18.4206   -8.0025  -15.2235 O   0  0  0  0  0  0  0  0  0  0  0  0
   21.8759   -8.0868  -13.4153 O   0  0  0  0  0  0  0  0  0  0  0  0
  1  2  1  0
  3  2  1  0
  4  3  1  0
  5  7  1  0
  5  4  1  0
  5  6  1  1
  7  8  2  0
  9 13  1  0
  9  7  1  0
 10 11  1  0
 10  9  1  0
 11 12  1  0
 12 13  1  0
 13 14  1  6
 14 15  2  0
 16 14  1  0
 17 16  1  0
 17 21  1  0
 17 18  1  1
 19 20  2  0
 19 18  1  0
 21 24  1  0
 22 21  2  0
 23 19  1  0
M  END
$$$$
