MPD.pdb
     RDKit          3D

 24 24  0  0  1  0  0  0  0  0999 V2000
   13.8297  -10.6098  -19.7750 C   0  0  0  0  0  0  0  0  0  0  0  0
   14.4259   -9.7829  -18.2722 S   0  0  0  0  0  0  0  0  0  0  0  0
   15.6007  -10.8273  -17.3737 C   0  0  0  0  0  0  0  0  0  0  0  0
   16.2154  -10.0994  -16.1999 C   0  0  0  0  0  0  0  0  0  0  0  0
   17.1780  -11.0546  -15.5227 C   0  0  2  0  0  0  0  0  0  0  0  0
   16.4170  -12.0362  -14.8300 N   0  0  0  0  0  0  0  0  0  0  0  0
   18.2159  -10.3698  -14.7598 C   0  0  0  0  0  0  0  0  0  0  0  0
   17.9849  -10.2521  -13.5033 O   0  0  0  0  0  0  0  0  0  0  0  0
   19.4263   -9.8295  -15.2350 N   0  0  0  0  0  0  0  0  0  0  0  0
   20.0090   -9.7485  -16.5542 C   0  0  0  0  0  0  0  0  0  0  0  0
   21.4461  -10.2071  -16.2633 C   0  0  0  0  0  0  0  0  0  0  0  0
   21.7587   -9.3513  -15.0535 C   0  0  0  0  0  0  0  0  0  0  0  0
   20.4370   -9.1737  -14.3846 C   0  0  1  0  0  0  0  0  0  0  0  0
   20.0714   -7.7903  -14.0755 C   0  0  0  0  0  0  0  0  0  0  0  0
   19.0552   -7.2859  -14.6441 O   0  0  0  0  0  0  0  0  0  0  0  0
   20.7642   -6.9350  -13.1752 N   0  0  0  0  0  0  0  0  0  0  0  0
   20.3883   -5.5230  -13.0330 C   0  0  1  0  0  0  0  0  0  0  0  0
   19.2178   -5.4414  -12.0794 C   0  0  0  0  0  0  0  0  0  0  0  0
   19.6036   -6.0592  -10.7835 C   0  0  0  0  0  0  0  0  0  0  0  0
   20.6995   -6.6392  -10.5956 O   0  0  0  0  0  0  0  0  0  0  0  0
   21.5061   -4.7313  -12.4822 C   0  0  0  0  0  0  0  0  0  0  0  0
   22.5678   -5.2567  -12.0674 O   0  0  0  0  0  0  0  0  0  0  0  0
   18.7315   -6.0167   -9.6855 O   0  0  0  0  0  0  0  0  0  0  0  0
   21.3835   -3.3614  -12.4197 O   0  0  0  0  0  0  0  0  0  0  0  0
  1  2  1  0
  3  2  1  0
  4  3  1  0
  5  7  1  0
  5  4  1  0
  5  6  1  1
  7  8  2  0
  9 13  1  0
  9  7  1  0
 10 11  1  0
 10  9  1  0
 11 12  1  0
 12 13  1  0
 13 14  1  6
 14 15  2  0
 16 14  1  0
 17 16  1  0
 17 21  1  0
 17 18  1  1
 19 20  2  0
 19 18  1  0
 21 24  1  0
 22 21  2  0
 23 19  1  0
M  END
$$$$
