MPD.pdb
     RDKit          3D

 24 24  0  0  1  0  0  0  0  0999 V2000
   19.3896  -31.0992  -11.5370 C   0  0  0  0  0  0  0  0  0  0  0  0
   19.5160  -31.4640  -13.3114 S   0  0  0  0  0  0  0  0  0  0  0  0
   20.7026  -32.7960  -13.6220 C   0  0  0  0  0  0  0  0  0  0  0  0
   21.3826  -33.2499  -12.3504 C   0  0  0  0  0  0  0  0  0  0  0  0
   22.3350  -34.3710  -12.7162 C   0  0  2  0  0  0  0  0  0  0  0  0
   21.5720  -35.4473  -13.2471 N   0  0  0  0  0  0  0  0  0  0  0  0
   23.2699  -34.6951  -11.6443 C   0  0  0  0  0  0  0  0  0  0  0  0
   22.8674  -35.5900  -10.8179 O   0  0  0  0  0  0  0  0  0  0  0  0
   24.5464  -34.1474  -11.4131 N   0  0  0  0  0  0  0  0  0  0  0  0
   25.3182  -33.1415  -12.1053 C   0  0  0  0  0  0  0  0  0  0  0  0
   26.6885  -33.8318  -12.1823 C   0  0  0  0  0  0  0  0  0  0  0  0
   26.8349  -34.2933  -10.7473 C   0  0  0  0  0  0  0  0  0  0  0  0
   25.4326  -34.5391  -10.3013 C   0  0  1  0  0  0  0  0  0  0  0  0
   25.0501  -33.8884   -9.0471 C   0  0  0  0  0  0  0  0  0  0  0  0
   24.3833  -32.8099   -9.0976 O   0  0  0  0  0  0  0  0  0  0  0  0
   25.3623  -34.3616   -7.7430 N   0  0  0  0  0  0  0  0  0  0  0  0
   24.8892  -33.6524   -6.5478 C   0  0  1  0  0  0  0  0  0  0  0  0
   24.0455  -34.6091   -5.7361 C   0  0  0  0  0  0  0  0  0  0  0  0
   23.6023  -33.9287   -4.4908 C   0  0  0  0  0  0  0  0  0  0  0  0
   23.8370  -32.7219   -4.2440 O   0  0  0  0  0  0  0  0  0  0  0  0
   26.0235  -33.1983   -5.7190 C   0  0  0  0  0  0  0  0  0  0  0  0
   27.2061  -33.5602   -5.9334 O   0  0  0  0  0  0  0  0  0  0  0  0
   22.8819  -34.6302   -3.5126 O   0  0  0  0  0  0  0  0  0  0  0  0
   25.7789  -32.3432   -4.6681 O   0  0  0  0  0  0  0  0  0  0  0  0
  1  2  1  0
  3  2  1  0
  4  3  1  0
  5  7  1  0
  5  4  1  0
  5  6  1  1
  7  8  2  0
  9 13  1  0
  9  7  1  0
 10 11  1  0
 10  9  1  0
 11 12  1  0
 12 13  1  0
 13 14  1  1
 14 15  2  0
 16 14  1  0
 17 16  1  0
 17 21  1  0
 17 18  1  1
 19 20  2  0
 19 18  1  0
 21 24  1  0
 22 21  2  0
 23 19  1  0
M  END
$$$$
