MPD.pdb
     RDKit          3D

 24 24  0  0  1  0  0  0  0  0999 V2000
   22.5914  -12.3846    7.6543 C   0  0  0  0  0  0  0  0  0  0  0  0
   21.7183  -10.9964    8.4341 S   0  0  0  0  0  0  0  0  0  0  0  0
   20.0691  -10.7771    7.7196 C   0  0  0  0  0  0  0  0  0  0  0  0
   19.3463  -12.0953    7.5607 C   0  0  0  0  0  0  0  0  0  0  0  0
   17.9829  -11.8007    6.9673 C   0  0  2  0  0  0  0  0  0  0  0  0
   17.2693  -10.9761    7.8802 N   0  0  0  0  0  0  0  0  0  0  0  0
   17.2990  -12.9984    6.4919 C   0  0  0  0  0  0  0  0  0  0  0  0
   16.3472  -13.4200    7.2418 O   0  0  0  0  0  0  0  0  0  0  0  0
   17.5579  -13.7368    5.3213 N   0  0  0  0  0  0  0  0  0  0  0  0
   18.5978  -13.6517    4.3222 C   0  0  0  0  0  0  0  0  0  0  0  0
   17.7663  -13.7321    3.0329 C   0  0  0  0  0  0  0  0  0  0  0  0
   16.8838  -14.9188    3.3592 C   0  0  0  0  0  0  0  0  0  0  0  0
   16.7275  -14.8570    4.8416 C   0  0  1  0  0  0  0  0  0  0  0  0
   17.0264  -16.0992    5.5561 C   0  0  0  0  0  0  0  0  0  0  0  0
   18.2220  -16.3229    5.9177 O   0  0  0  0  0  0  0  0  0  0  0  0
   16.0801  -17.1057    5.8930 N   0  0  0  0  0  0  0  0  0  0  0  0
   16.4852  -18.3070    6.6334 C   0  0  1  0  0  0  0  0  0  0  0  0
   15.4132  -18.6143    7.6544 C   0  0  0  0  0  0  0  0  0  0  0  0
   14.0960  -18.6847    6.9688 C   0  0  0  0  0  0  0  0  0  0  0  0
   13.9512  -18.5145    5.7349 O   0  0  0  0  0  0  0  0  0  0  0  0
   16.6244  -19.4644    5.7274 C   0  0  0  0  0  0  0  0  0  0  0  0
   16.3119  -19.4147    4.5128 O   0  0  0  0  0  0  0  0  0  0  0  0
   12.9269  -18.9528    7.6964 O   0  0  0  0  0  0  0  0  0  0  0  0
   17.1167  -20.6476    6.2307 O   0  0  0  0  0  0  0  0  0  0  0  0
  1  2  1  0
  3  2  1  0
  4  3  1  0
  5  7  1  0
  5  4  1  0
  5  6  1  1
  7  8  2  0
  9 13  1  0
  9  7  1  0
 10 11  1  0
 10  9  1  0
 11 12  1  0
 12 13  1  0
 13 14  1  1
 14 15  2  0
 16 14  1  0
 17 16  1  0
 17 21  1  0
 17 18  1  1
 19 20  2  0
 19 18  1  0
 21 24  1  0
 22 21  2  0
 23 19  1  0
M  END
$$$$
