MPD.pdb
     RDKit          3D

 24 24  0  0  1  0  0  0  0  0999 V2000
   24.8644  -22.7556  -16.5537 C   0  0  0  0  0  0  0  0  0  0  0  0
   25.0554  -24.1682  -15.4288 S   0  0  0  0  0  0  0  0  0  0  0  0
   25.7464  -23.6482  -13.8380 C   0  0  0  0  0  0  0  0  0  0  0  0
   24.8802  -22.6097  -13.1622 C   0  0  0  0  0  0  0  0  0  0  0  0
   25.8000  -21.5495  -12.5896 C   0  0  2  0  0  0  0  0  0  0  0  0
   25.7520  -21.6383  -11.1710 N   0  0  0  0  0  0  0  0  0  0  0  0
   25.5795  -20.2306  -13.1726 C   0  0  0  0  0  0  0  0  0  0  0  0
   24.6992  -19.5096  -12.5800 O   0  0  0  0  0  0  0  0  0  0  0  0
   26.2117  -19.6632  -14.2957 N   0  0  0  0  0  0  0  0  0  0  0  0
   27.2224  -20.1575  -15.2017 C   0  0  0  0  0  0  0  0  0  0  0  0
   28.1700  -18.9498  -15.2633 C   0  0  0  0  0  0  0  0  0  0  0  0
   27.1692  -17.8384  -15.5019 C   0  0  0  0  0  0  0  0  0  0  0  0
   25.9320  -18.3118  -14.8155 C   0  0  1  0  0  0  0  0  0  0  0  0
   24.7144  -18.2838  -15.6275 C   0  0  0  0  0  0  0  0  0  0  0  0
   24.3988  -19.3188  -16.2904 O   0  0  0  0  0  0  0  0  0  0  0  0
   23.8277  -17.1785  -15.7476 N   0  0  0  0  0  0  0  0  0  0  0  0
   22.5388  -17.3146  -16.4372 C   0  0  1  0  0  0  0  0  0  0  0  0
   21.4839  -16.6231  -15.6036 C   0  0  0  0  0  0  0  0  0  0  0  0
   20.1660  -16.7594  -16.2780 C   0  0  0  0  0  0  0  0  0  0  0  0
   20.0046  -17.3781  -17.3567 O   0  0  0  0  0  0  0  0  0  0  0  0
   22.5827  -16.6806  -17.7698 C   0  0  0  0  0  0  0  0  0  0  0  0
   23.4995  -15.8965  -18.1164 O   0  0  0  0  0  0  0  0  0  0  0  0
   19.0155  -16.1843  -15.7180 O   0  0  0  0  0  0  0  0  0  0  0  0
   21.5801  -16.9579  -18.6716 O   0  0  0  0  0  0  0  0  0  0  0  0
  1  2  1  0
  3  2  1  0
  4  3  1  0
  5  7  1  0
  5  4  1  0
  5  6  1  1
  7  8  2  0
  9 13  1  0
  9  7  1  0
 10 11  1  0
 10  9  1  0
 11 12  1  0
 12 13  1  0
 13 14  1  6
 14 15  2  0
 16 14  1  0
 17 16  1  0
 17 21  1  0
 17 18  1  1
 19 20  2  0
 19 18  1  0
 21 24  1  0
 22 21  2  0
 23 19  1  0
M  END
$$$$
