MPD.pdb
     RDKit          3D

 24 24  0  0  1  0  0  0  0  0999 V2000
   20.7263  -25.8687  -14.9460 C   0  0  0  0  0  0  0  0  0  0  0  0
   19.2815  -25.0719  -14.1877 S   0  0  0  0  0  0  0  0  0  0  0  0
   19.7756  -23.6696  -13.1544 C   0  0  0  0  0  0  0  0  0  0  0  0
   20.7878  -22.7885  -13.8504 C   0  0  0  0  0  0  0  0  0  0  0  0
   21.2983  -21.7869  -12.8335 C   0  0  2  0  0  0  0  0  0  0  0  0
   20.1984  -20.9997  -12.3939 N   0  0  0  0  0  0  0  0  0  0  0  0
   22.4809  -21.0653  -13.2905 C   0  0  0  0  0  0  0  0  0  0  0  0
   22.2946  -19.8261  -13.5656 O   0  0  0  0  0  0  0  0  0  0  0  0
   23.7866  -21.5633  -13.4631 N   0  0  0  0  0  0  0  0  0  0  0  0
   24.3802  -22.8565  -13.2139 C   0  0  0  0  0  0  0  0  0  0  0  0
   25.6693  -22.4466  -12.4855 C   0  0  0  0  0  0  0  0  0  0  0  0
   26.1651  -21.3583  -13.4147 C   0  0  0  0  0  0  0  0  0  0  0  0
   24.9171  -20.7745  -13.9870 C   0  0  1  0  0  0  0  0  0  0  0  0
   24.8818  -20.6787  -15.4472 C   0  0  0  0  0  0  0  0  0  0  0  0
   24.6421  -21.7264  -16.1221 O   0  0  0  0  0  0  0  0  0  0  0  0
   25.0956  -19.4927  -16.2021 N   0  0  0  0  0  0  0  0  0  0  0  0
   24.9944  -19.4999  -17.6666 C   0  0  1  0  0  0  0  0  0  0  0  0
   24.2394  -18.2610  -18.0922 C   0  0  0  0  0  0  0  0  0  0  0  0
   22.8624  -18.3164  -17.5346 C   0  0  0  0  0  0  0  0  0  0  0  0
   22.2212  -19.3839  -17.3865 O   0  0  0  0  0  0  0  0  0  0  0  0
   26.3330  -19.4780  -18.2891 C   0  0  0  0  0  0  0  0  0  0  0  0
   26.5243  -19.7745  -19.4937 O   0  0  0  0  0  0  0  0  0  0  0  0
   22.2052  -17.1417  -17.1396 O   0  0  0  0  0  0  0  0  0  0  0  0
   27.4177  -19.1182  -17.5214 O   0  0  0  0  0  0  0  0  0  0  0  0
  1  2  1  0
  3  2  1  0
  4  3  1  0
  5  7  1  0
  5  4  1  0
  5  6  1  6
  7  8  2  0
  9 13  1  0
  9  7  1  0
 10 11  1  0
 10  9  1  0
 11 12  1  0
 12 13  1  0
 13 14  1  6
 14 15  2  0
 16 14  1  0
 17 16  1  0
 17 21  1  0
 17 18  1  6
 19 20  2  0
 19 18  1  0
 21 24  1  0
 22 21  2  0
 23 19  1  0
M  END
$$$$
