MPD.pdb
     RDKit          3D

 24 24  0  0  1  0  0  0  0  0999 V2000
   27.2334  -16.0791  -14.6794 C   0  0  0  0  0  0  0  0  0  0  0  0
   26.9965  -16.9653  -16.2466 S   0  0  0  0  0  0  0  0  0  0  0  0
   26.9968  -18.7578  -15.9904 C   0  0  0  0  0  0  0  0  0  0  0  0
   28.0224  -19.1778  -14.9623 C   0  0  0  0  0  0  0  0  0  0  0  0
   27.8986  -20.6775  -14.7790 C   0  0  2  0  0  0  0  0  0  0  0  0
   28.2693  -21.3067  -15.9994 N   0  0  0  0  0  0  0  0  0  0  0  0
   26.6215  -21.0755  -14.1968 C   0  0  0  0  0  0  0  0  0  0  0  0
   25.8620  -21.7690  -14.9636 O   0  0  0  0  0  0  0  0  0  0  0  0
   26.1310  -20.7910  -12.9079 N   0  0  0  0  0  0  0  0  0  0  0  0
   26.6566  -20.0094  -11.8127 C   0  0  0  0  0  0  0  0  0  0  0  0
   26.4297  -20.9716  -10.6367 C   0  0  0  0  0  0  0  0  0  0  0  0
   24.9902  -21.3675  -10.8910 C   0  0  0  0  0  0  0  0  0  0  0  0
   24.8503  -21.2910  -12.3744 C   0  0  1  0  0  0  0  0  0  0  0  0
   23.7159  -20.5021  -12.8576 C   0  0  0  0  0  0  0  0  0  0  0  0
   23.9427  -19.3851  -13.4156 O   0  0  0  0  0  0  0  0  0  0  0  0
   22.3479  -20.8774  -12.7592 N   0  0  0  0  0  0  0  0  0  0  0  0
   21.3638  -20.4140  -13.7452 C   0  0  1  0  0  0  0  0  0  0  0  0
   21.8144  -20.8760  -15.1125 C   0  0  0  0  0  0  0  0  0  0  0  0
   20.8242  -20.4279  -16.1268 C   0  0  0  0  0  0  0  0  0  0  0  0
   20.6624  -19.2266  -16.4483 O   0  0  0  0  0  0  0  0  0  0  0  0
   20.0295  -20.9818  -13.4674 C   0  0  0  0  0  0  0  0  0  0  0  0
   18.9685  -20.3348  -13.6438 O   0  0  0  0  0  0  0  0  0  0  0  0
   20.0066  -21.3586  -16.7851 O   0  0  0  0  0  0  0  0  0  0  0  0
   19.9409  -22.2724  -12.9963 O   0  0  0  0  0  0  0  0  0  0  0  0
  1  2  1  0
  3  2  1  0
  4  3  1  0
  5  7  1  0
  5  4  1  0
  5  6  1  6
  7  8  2  0
  9 13  1  0
  9  7  1  0
 10 11  1  0
 10  9  1  0
 11 12  1  0
 12 13  1  0
 13 14  1  1
 14 15  2  0
 16 14  1  0
 17 16  1  0
 17 21  1  0
 17 18  1  6
 19 20  2  0
 19 18  1  0
 21 24  1  0
 22 21  2  0
 23 19  1  0
M  END
$$$$
