MPD.pdb
     RDKit          3D

 24 24  0  0  1  0  0  0  0  0999 V2000
   21.0896  -20.4098   -8.7059 C   0  0  0  0  0  0  0  0  0  0  0  0
   22.1528  -21.7281   -8.0507 S   0  0  0  0  0  0  0  0  0  0  0  0
   23.8917  -21.4274   -8.4558 C   0  0  0  0  0  0  0  0  0  0  0  0
   24.0574  -20.9016   -9.8635 C   0  0  0  0  0  0  0  0  0  0  0  0
   25.5179  -20.5396  -10.0475 C   0  0  2  0  0  0  0  0  0  0  0  0
   25.9034  -19.6879   -8.9757 N   0  0  0  0  0  0  0  0  0  0  0  0
   25.8230  -20.0761  -11.3966 C   0  0  0  0  0  0  0  0  0  0  0  0
   25.7738  -18.8050  -11.5637 O   0  0  0  0  0  0  0  0  0  0  0  0
   26.1608  -20.8507  -12.5230 N   0  0  0  0  0  0  0  0  0  0  0  0
   26.3231  -22.2727  -12.7180 C   0  0  0  0  0  0  0  0  0  0  0  0
   27.6456  -22.3076  -13.4990 C   0  0  0  0  0  0  0  0  0  0  0  0
   27.3639  -21.2505  -14.5464 C   0  0  0  0  0  0  0  0  0  0  0  0
   26.4434  -20.2976  -13.8605 C   0  0  1  0  0  0  0  0  0  0  0  0
   25.2133  -19.9805  -14.5879 C   0  0  0  0  0  0  0  0  0  0  0  0
   24.2154  -20.7550  -14.4664 O   0  0  0  0  0  0  0  0  0  0  0  0
   25.0243  -18.8578  -15.4399 N   0  0  0  0  0  0  0  0  0  0  0  0
   23.7281  -18.6051  -16.0814 C   0  0  1  0  0  0  0  0  0  0  0  0
   23.5363  -17.1087  -16.1810 C   0  0  0  0  0  0  0  0  0  0  0  0
   22.2667  -16.8291  -16.9022 C   0  0  0  0  0  0  0  0  0  0  0  0
   21.4866  -17.7276  -17.2979 O   0  0  0  0  0  0  0  0  0  0  0  0
   23.6898  -19.1807  -17.4405 C   0  0  0  0  0  0  0  0  0  0  0  0
   24.7084  -19.2640  -18.1692 O   0  0  0  0  0  0  0  0  0  0  0  0
   21.8786  -15.5094  -17.1773 O   0  0  0  0  0  0  0  0  0  0  0  0
   22.4910  -19.6464  -17.9319 O   0  0  0  0  0  0  0  0  0  0  0  0
  1  2  1  0
  3  2  1  0
  4  3  1  0
  5  7  1  0
  5  4  1  0
  5  6  1  1
  7  8  2  0
  9 13  1  0
  9  7  1  0
 10 11  1  0
 10  9  1  0
 11 12  1  0
 12 13  1  0
 13 14  1  6
 14 15  2  0
 16 14  1  0
 17 16  1  0
 17 21  1  0
 17 18  1  6
 19 20  2  0
 19 18  1  0
 21 24  1  0
 22 21  2  0
 23 19  1  0
M  END
$$$$
