MPD.pdb
     RDKit          3D

 24 24  0  0  1  0  0  0  0  0999 V2000
   26.6252  -16.6810  -17.1119 C   0  0  0  0  0  0  0  0  0  0  0  0
   28.0495  -16.7269  -15.9864 S   0  0  0  0  0  0  0  0  0  0  0  0
   28.2617  -18.3751  -15.2675 C   0  0  0  0  0  0  0  0  0  0  0  0
   26.9513  -18.9456  -14.7748 C   0  0  0  0  0  0  0  0  0  0  0  0
   27.2111  -20.3720  -14.3324 C   0  0  2  0  0  0  0  0  0  0  0  0
   27.6994  -21.1025  -15.4507 N   0  0  0  0  0  0  0  0  0  0  0  0
   26.0881  -20.9556  -13.6067 C   0  0  0  0  0  0  0  0  0  0  0  0
   25.3768  -21.7881  -14.2752 O   0  0  0  0  0  0  0  0  0  0  0  0
   25.6981  -20.7150  -12.2753 N   0  0  0  0  0  0  0  0  0  0  0  0
   26.3325  -20.0150  -11.1825 C   0  0  0  0  0  0  0  0  0  0  0  0
   26.1366  -21.0244  -10.0410 C   0  0  0  0  0  0  0  0  0  0  0  0
   24.6657  -21.3405  -10.2150 C   0  0  0  0  0  0  0  0  0  0  0  0
   24.4324  -21.1823  -11.6801 C   0  0  1  0  0  0  0  0  0  0  0  0
   23.3087  -20.3186  -12.0465 C   0  0  0  0  0  0  0  0  0  0  0  0
   23.5519  -19.2004  -12.5951 O   0  0  0  0  0  0  0  0  0  0  0  0
   21.9344  -20.6206  -11.8414 N   0  0  0  0  0  0  0  0  0  0  0  0
   20.9190  -20.2302  -12.8273 C   0  0  1  0  0  0  0  0  0  0  0  0
   21.2752  -20.8724  -14.1490 C   0  0  0  0  0  0  0  0  0  0  0  0
   20.2869  -20.4495  -15.1759 C   0  0  0  0  0  0  0  0  0  0  0  0
   19.4915  -21.2419  -15.7344 O   0  0  0  0  0  0  0  0  0  0  0  0
   19.5789  -20.6957  -12.4185 C   0  0  0  0  0  0  0  0  0  0  0  0
   19.3006  -21.9105  -12.2692 O   0  0  0  0  0  0  0  0  0  0  0  0
   20.2015  -19.1068  -15.5732 O   0  0  0  0  0  0  0  0  0  0  0  0
   18.5919  -19.7633  -12.1906 O   0  0  0  0  0  0  0  0  0  0  0  0
  1  2  1  0
  3  2  1  0
  4  3  1  0
  5  7  1  0
  5  4  1  0
  5  6  1  6
  7  8  2  0
  9 13  1  0
  9  7  1  0
 10 11  1  0
 10  9  1  0
 11 12  1  0
 12 13  1  0
 13 14  1  1
 14 15  2  0
 16 14  1  0
 17 16  1  0
 17 21  1  0
 17 18  1  6
 19 20  2  0
 19 18  1  0
 21 24  1  0
 22 21  2  0
 23 19  1  0
M  END
$$$$
