MPD.pdb
     RDKit          3D

 24 24  0  0  1  0  0  0  0  0999 V2000
   22.7741   -9.6466  -21.4152 C   0  0  0  0  0  0  0  0  0  0  0  0
   21.7935  -11.1497  -21.6917 S   0  0  0  0  0  0  0  0  0  0  0  0
   21.3854  -11.9613  -20.1254 C   0  0  0  0  0  0  0  0  0  0  0  0
   21.0464  -10.9591  -19.0455 C   0  0  0  0  0  0  0  0  0  0  0  0
   20.7357  -11.7362  -17.7817 C   0  0  2  0  0  0  0  0  0  0  0  0
   19.5188  -12.4443  -17.9828 N   0  0  0  0  0  0  0  0  0  0  0  0
   20.8290  -10.9208  -16.5756 C   0  0  0  0  0  0  0  0  0  0  0  0
   19.7116  -10.4827  -16.1224 O   0  0  0  0  0  0  0  0  0  0  0  0
   21.9874  -10.5626  -15.8596 N   0  0  0  0  0  0  0  0  0  0  0  0
   23.3821  -10.9005  -16.0251 C   0  0  0  0  0  0  0  0  0  0  0  0
   23.7666  -11.2537  -14.5802 C   0  0  0  0  0  0  0  0  0  0  0  0
   23.1771  -10.0649  -13.8500 C   0  0  0  0  0  0  0  0  0  0  0  0
   21.9975   -9.6799  -14.6783 C   0  0  1  0  0  0  0  0  0  0  0  0
   21.9303   -8.2672  -15.0556 C   0  0  0  0  0  0  0  0  0  0  0  0
   22.3451   -7.9216  -16.2041 O   0  0  0  0  0  0  0  0  0  0  0  0
   21.4312   -7.2170  -14.2369 N   0  0  0  0  0  0  0  0  0  0  0  0
   21.4031   -5.8306  -14.7189 C   0  0  1  0  0  0  0  0  0  0  0  0
   19.9705   -5.3485  -14.6816 C   0  0  0  0  0  0  0  0  0  0  0  0
   19.9119   -3.9599  -15.2092 C   0  0  0  0  0  0  0  0  0  0  0  0
   20.8110   -3.4553  -15.9231 O   0  0  0  0  0  0  0  0  0  0  0  0
   22.2219   -4.9547  -13.8575 C   0  0  0  0  0  0  0  0  0  0  0  0
   22.5159   -5.2525  -12.6741 O   0  0  0  0  0  0  0  0  0  0  0  0
   18.8157   -3.1333  -14.9211 O   0  0  0  0  0  0  0  0  0  0  0  0
   22.6841   -3.7629  -14.3688 O   0  0  0  0  0  0  0  0  0  0  0  0
  1  2  1  0
  3  2  1  0
  4  3  1  0
  5  7  1  0
  5  4  1  0
  5  6  1  6
  7  8  2  0
  9 13  1  0
  9  7  1  0
 10 11  1  0
 10  9  1  0
 11 12  1  0
 12 13  1  0
 13 14  1  6
 14 15  2  0
 16 14  1  0
 17 16  1  0
 17 21  1  0
 17 18  1  1
 19 20  2  0
 19 18  1  0
 21 24  1  0
 22 21  2  0
 23 19  1  0
M  END
$$$$
