MPD.pdb
     RDKit          3D

 24 24  0  0  1  0  0  0  0  0999 V2000
   22.3312  -11.2158  -21.8566 C   0  0  0  0  0  0  0  0  0  0  0  0
   21.3908  -12.6162  -21.1843 S   0  0  0  0  0  0  0  0  0  0  0  0
   21.6827  -12.8068  -19.4075 C   0  0  0  0  0  0  0  0  0  0  0  0
   21.3701  -11.5376  -18.6479 C   0  0  0  0  0  0  0  0  0  0  0  0
   20.6212  -11.9302  -17.3899 C   0  0  2  0  0  0  0  0  0  0  0  0
   19.2944  -12.2887  -17.7558 N   0  0  0  0  0  0  0  0  0  0  0  0
   20.7647  -10.9544  -16.3150 C   0  0  0  0  0  0  0  0  0  0  0  0
   19.7267  -10.2367  -16.0841 O   0  0  0  0  0  0  0  0  0  0  0  0
   21.8950  -10.7109  -15.5114 N   0  0  0  0  0  0  0  0  0  0  0  0
   23.2070  -11.3134  -15.4617 C   0  0  0  0  0  0  0  0  0  0  0  0
   23.3726  -11.5193  -13.9483 C   0  0  0  0  0  0  0  0  0  0  0  0
   22.9567  -10.1521  -13.4468 C   0  0  0  0  0  0  0  0  0  0  0  0
   21.9608   -9.6845  -14.4545 C   0  0  1  0  0  0  0  0  0  0  0  0
   22.2063   -8.3513  -15.0070 C   0  0  0  0  0  0  0  0  0  0  0  0
   22.5726   -8.2502  -16.2178 O   0  0  0  0  0  0  0  0  0  0  0  0
   22.0697   -7.1261  -14.2981 N   0  0  0  0  0  0  0  0  0  0  0  0
   22.1991   -5.8359  -14.9864 C   0  0  1  0  0  0  0  0  0  0  0  0
   21.1345   -5.7654  -16.0578 C   0  0  0  0  0  0  0  0  0  0  0  0
   21.1841   -4.4274  -16.7039 C   0  0  0  0  0  0  0  0  0  0  0  0
   22.2539   -3.8308  -16.9722 O   0  0  0  0  0  0  0  0  0  0  0  0
   22.0031   -4.7137  -14.0472 C   0  0  0  0  0  0  0  0  0  0  0  0
   21.2906   -4.8088  -13.0182 O   0  0  0  0  0  0  0  0  0  0  0  0
   20.0006   -3.7583  -17.0499 O   0  0  0  0  0  0  0  0  0  0  0  0
   22.6254   -3.5132  -14.3062 O   0  0  0  0  0  0  0  0  0  0  0  0
  1  2  1  0
  3  2  1  0
  4  3  1  0
  5  7  1  0
  5  4  1  0
  5  6  1  6
  7  8  2  0
  9 13  1  0
  9  7  1  0
 10 11  1  0
 10  9  1  0
 11 12  1  0
 12 13  1  0
 13 14  1  6
 14 15  2  0
 16 14  1  0
 17 16  1  0
 17 21  1  0
 17 18  1  6
 19 20  2  0
 19 18  1  0
 21 24  1  0
 22 21  2  0
 23 19  1  0
M  END
$$$$
