MPD.pdb
     RDKit          3D

 24 24  0  0  1  0  0  0  0  0999 V2000
   25.5726  -14.2817  -15.7954 C   0  0  0  0  0  0  0  0  0  0  0  0
   27.2180  -14.6366  -15.1140 S   0  0  0  0  0  0  0  0  0  0  0  0
   27.6634  -16.3752  -15.3531 C   0  0  0  0  0  0  0  0  0  0  0  0
   26.4944  -17.2960  -15.0868 C   0  0  0  0  0  0  0  0  0  0  0  0
   26.9592  -18.7140  -15.3533 C   0  0  2  0  0  0  0  0  0  0  0  0
   27.3536  -18.8039  -16.7168 N   0  0  0  0  0  0  0  0  0  0  0  0
   26.0177  -19.7203  -14.8747 C   0  0  0  0  0  0  0  0  0  0  0  0
   25.2409  -20.2134  -15.7688 O   0  0  0  0  0  0  0  0  0  0  0  0
   25.8633  -20.2076  -13.5626 N   0  0  0  0  0  0  0  0  0  0  0  0
   26.5118  -19.8772  -12.3148 C   0  0  0  0  0  0  0  0  0  0  0  0
   26.8176  -21.2801  -11.7684 C   0  0  0  0  0  0  0  0  0  0  0  0
   25.4712  -21.9435  -11.9706 C   0  0  0  0  0  0  0  0  0  0  0  0
   24.9080  -21.2608  -13.1716 C   0  0  1  0  0  0  0  0  0  0  0  0
   23.5519  -20.7325  -13.0144 C   0  0  0  0  0  0  0  0  0  0  0  0
   23.3686  -19.7406  -12.2443 O   0  0  0  0  0  0  0  0  0  0  0  0
   22.3895  -21.2375  -13.6593 N   0  0  0  0  0  0  0  0  0  0  0  0
   21.0875  -20.5793  -13.4953 C   0  0  1  0  0  0  0  0  0  0  0  0
   20.9274  -19.5690  -14.6088 C   0  0  0  0  0  0  0  0  0  0  0  0
   19.6497  -18.8337  -14.4170 C   0  0  0  0  0  0  0  0  0  0  0  0
   18.9489  -18.9282  -13.3814 O   0  0  0  0  0  0  0  0  0  0  0  0
   19.9857  -21.5584  -13.5799 C   0  0  0  0  0  0  0  0  0  0  0  0
   20.0618  -22.6051  -14.2685 O   0  0  0  0  0  0  0  0  0  0  0  0
   19.1620  -17.9787  -15.4165 O   0  0  0  0  0  0  0  0  0  0  0  0
   18.8268  -21.3180  -12.8766 O   0  0  0  0  0  0  0  0  0  0  0  0
  1  2  1  0
  3  2  1  0
  4  3  1  0
  5  7  1  0
  5  4  1  0
  5  6  1  6
  7  8  2  0
  9 13  1  0
  9  7  1  0
 10 11  1  0
 10  9  1  0
 11 12  1  0
 12 13  1  0
 13 14  1  1
 14 15  2  0
 16 14  1  0
 17 16  1  0
 17 21  1  0
 17 18  1  6
 19 20  2  0
 19 18  1  0
 21 24  1  0
 22 21  2  0
 23 19  1  0
M  END
$$$$
