KNK.pdb
     RDKit          3D

 27 26  0  0  1  0  0  0  0  0999 V2000
   19.3588  -21.2192  -11.9811 N   0  0  0  0  0  0  0  0  0  0  0  0
   20.1015  -21.9722  -12.9878 C   0  0  1  0  0  0  0  0  0  0  0  0
   19.2846  -22.2968  -14.1737 C   0  0  0  0  0  0  0  0  0  0  0  0
   18.2718  -23.3580  -14.1217 C   0  0  0  0  0  0  0  0  0  0  0  0
   18.5474  -24.6575  -13.5040 C   0  0  0  0  0  0  0  0  0  0  0  0
   17.4502  -25.6477  -13.4682 C   0  0  0  0  0  0  0  0  0  0  0  0
   17.7641  -26.8455  -12.7063 N   0  0  0  0  0  0  0  0  0  0  0  0
   21.2071  -21.0338  -13.5184 C   0  0  0  0  0  0  0  0  0  0  0  0
   20.9211  -19.8291  -13.5056 O   0  0  0  0  0  0  0  0  0  0  0  0
   25.7908  -19.4800  -15.2562 N   0  0  0  0  0  0  0  0  0  0  0  0
   25.9823  -20.8421  -14.9467 C   0  0  0  0  0  0  0  0  0  0  0  0
   27.1155  -21.3458  -15.0488 O   0  0  0  0  0  0  0  0  0  0  0  0
   24.8420  -21.6581  -14.5055 C   0  0  0  0  0  0  0  0  0  0  0  0
   23.5255  -20.8636  -14.4814 C   0  0  2  0  0  0  0  0  0  0  0  0
   22.4172  -21.5846  -13.9638 N   0  0  0  0  0  0  0  0  0  0  0  0
   23.2925  -20.3377  -15.8260 C   0  0  0  0  0  0  0  0  0  0  0  0
   22.7510  -21.0511  -16.7434 O   0  0  0  0  0  0  0  0  0  0  0  0
   23.6400  -19.0186  -16.2213 N   0  0  0  0  0  0  0  0  0  0  0  0
   23.2958  -18.5181  -17.5317 C   0  0  1  0  0  0  0  0  0  0  0  0
   22.8392  -17.0809  -17.4783 C   0  0  0  0  0  0  0  0  0  0  0  0
   22.3907  -16.5421  -18.7891 C   0  0  0  0  0  0  0  0  0  0  0  0
   22.0813  -15.0677  -18.7578 C   0  0  0  0  0  0  0  0  0  0  0  0
   21.6320  -14.5924  -20.1338 C   0  0  0  0  0  0  0  0  0  0  0  0
   21.5413  -13.1672  -20.2186 N   0  0  0  0  0  0  0  0  0  0  0  0
   24.4077  -18.7415  -18.4489 C   0  0  0  0  0  0  0  0  0  0  0  0
   25.5673  -18.3861  -18.1225 O   0  0  0  0  0  0  0  0  0  0  0  0
   24.2809  -19.3414  -19.7072 O   0  0  0  0  0  0  0  0  0  0  0  0
  2  1  1  1
  3  2  1  0
  4  3  1  0
  5  4  1  0
  5  6  1  0
  7  6  1  0
  8  9  2  0
  8  2  1  0
 10 11  1  0
 11 13  1  0
 12 11  2  0
 14 13  1  6
 14 15  1  0
 15  8  1  0
 16 14  1  0
 17 16  2  0
 18 16  1  0
 19 25  1  0
 19 18  1  0
 20 21  1  0
 19 20  1  1
 22 23  1  0
 22 21  1  0
 23 24  1  0
 25 27  1  0
 26 25  2  0
M  END
$$$$
