KNK.pdb
     RDKit          3D

 27 26  0  0  1  0  0  0  0  0999 V2000
   26.3068  -21.9160  -11.8234 N   0  0  0  0  0  0  0  0  0  0  0  0
   25.1026  -21.1066  -11.6593 C   0  0  1  0  0  0  0  0  0  0  0  0
   25.1407  -20.2691  -10.4443 C   0  0  0  0  0  0  0  0  0  0  0  0
   23.9861  -20.2024   -9.5404 C   0  0  0  0  0  0  0  0  0  0  0  0
   23.2830  -21.4087   -9.0970 C   0  0  0  0  0  0  0  0  0  0  0  0
   22.1615  -21.2409   -8.1485 C   0  0  0  0  0  0  0  0  0  0  0  0
   21.5459  -22.4927   -7.7389 N   0  0  0  0  0  0  0  0  0  0  0  0
   25.0817  -20.0992  -12.8293 C   0  0  0  0  0  0  0  0  0  0  0  0
   24.0880  -19.3613  -12.8663 O   0  0  0  0  0  0  0  0  0  0  0  0
   28.2167  -16.8576  -16.3267 N   0  0  0  0  0  0  0  0  0  0  0  0
   27.8548  -18.2049  -16.5305 C   0  0  0  0  0  0  0  0  0  0  0  0
   27.6325  -18.6176  -17.6831 O   0  0  0  0  0  0  0  0  0  0  0  0
   27.7426  -19.1131  -15.3801 C   0  0  0  0  0  0  0  0  0  0  0  0
   26.3098  -19.1850  -14.8261 C   0  0  2  0  0  0  0  0  0  0  0  0
   26.1478  -20.0850  -13.7399 N   0  0  0  0  0  0  0  0  0  0  0  0
   25.4086  -19.4639  -15.9437 C   0  0  0  0  0  0  0  0  0  0  0  0
   25.3023  -20.6387  -16.4458 O   0  0  0  0  0  0  0  0  0  0  0  0
   24.5918  -18.4761  -16.5553 N   0  0  0  0  0  0  0  0  0  0  0  0
   23.5258  -18.8445  -17.4576 C   0  0  1  0  0  0  0  0  0  0  0  0
   22.1694  -18.6711  -16.8198 C   0  0  0  0  0  0  0  0  0  0  0  0
   21.0339  -19.0133  -17.7162 C   0  0  0  0  0  0  0  0  0  0  0  0
   19.6850  -18.8532  -17.0640 C   0  0  0  0  0  0  0  0  0  0  0  0
   18.5790  -19.2568  -18.0310 C   0  0  0  0  0  0  0  0  0  0  0  0
   17.2894  -19.2742  -17.4121 N   0  0  0  0  0  0  0  0  0  0  0  0
   23.6749  -18.1187  -18.7140 C   0  0  0  0  0  0  0  0  0  0  0  0
   24.2393  -16.9967  -18.7236 O   0  0  0  0  0  0  0  0  0  0  0  0
   23.2240  -18.5897  -19.9525 O   0  0  0  0  0  0  0  0  0  0  0  0
  2  1  1  6
  3  2  1  0
  4  3  1  0
  5  4  1  0
  5  6  1  0
  7  6  1  0
  8  9  2  0
  8  2  1  0
 10 11  1  0
 11 13  1  0
 12 11  2  0
 14 13  1  6
 14 15  1  0
 15  8  1  0
 16 14  1  0
 17 16  2  0
 18 16  1  0
 19 25  1  0
 19 18  1  0
 20 21  1  0
 19 20  1  1
 22 23  1  0
 22 21  1  0
 23 24  1  0
 25 27  1  0
 26 25  2  0
M  END
$$$$
