KNK.pdb
     RDKit          3D

 27 26  0  0  1  0  0  0  0  0999 V2000
   24.4500  -22.1569  -15.0280 N   0  0  0  0  0  0  0  0  0  0  0  0
   24.9813  -21.4170  -13.8868 C   0  0  1  0  0  0  0  0  0  0  0  0
   25.7559  -20.2270  -14.2904 C   0  0  0  0  0  0  0  0  0  0  0  0
   26.4633  -20.1906  -15.5761 C   0  0  0  0  0  0  0  0  0  0  0  0
   27.4660  -21.1970  -15.9334 C   0  0  0  0  0  0  0  0  0  0  0  0
   28.2260  -20.9955  -17.1854 C   0  0  0  0  0  0  0  0  0  0  0  0
   29.1577  -22.0701  -17.4869 N   0  0  0  0  0  0  0  0  0  0  0  0
   23.7665  -20.8520  -13.1191 C   0  0  0  0  0  0  0  0  0  0  0  0
   24.0449  -20.0549  -12.2134 O   0  0  0  0  0  0  0  0  0  0  0  0
   19.0465  -20.4582  -15.7889 N   0  0  0  0  0  0  0  0  0  0  0  0
   20.3079  -20.4009  -15.1619 C   0  0  0  0  0  0  0  0  0  0  0  0
   21.3226  -20.7717  -15.7794 O   0  0  0  0  0  0  0  0  0  0  0  0
   20.4161  -19.9035  -13.7829 C   0  0  0  0  0  0  0  0  0  0  0  0
   21.2609  -20.8274  -12.8898 C   0  0  2  0  0  0  0  0  0  0  0  0
   22.4758  -21.2620  -13.4824 N   0  0  0  0  0  0  0  0  0  0  0  0
   20.4081  -21.9312  -12.4500 C   0  0  0  0  0  0  0  0  0  0  0  0
   20.2927  -23.0076  -13.1368 O   0  0  0  0  0  0  0  0  0  0  0  0
   19.6504  -21.9040  -11.2491 N   0  0  0  0  0  0  0  0  0  0  0  0
   18.8466  -23.0353  -10.8492 C   0  0  1  0  0  0  0  0  0  0  0  0
   18.9523  -23.2995   -9.3673 C   0  0  0  0  0  0  0  0  0  0  0  0
   18.0930  -24.4153   -8.8913 C   0  0  0  0  0  0  0  0  0  0  0  0
   18.2547  -24.7130   -7.4231 C   0  0  0  0  0  0  0  0  0  0  0  0
   17.3305  -25.8515   -7.0097 C   0  0  0  0  0  0  0  0  0  0  0  0
   17.3611  -26.0981   -5.6008 N   0  0  0  0  0  0  0  0  0  0  0  0
   17.4754  -22.8494  -11.3105 C   0  0  0  0  0  0  0  0  0  0  0  0
   16.7790  -23.8487  -11.6171 O   0  0  0  0  0  0  0  0  0  0  0  0
   16.8523  -21.6030  -11.4427 O   0  0  0  0  0  0  0  0  0  0  0  0
  2  1  1  6
  3  2  1  0
  4  3  1  0
  5  4  1  0
  5  6  1  0
  7  6  1  0
  8  9  2  0
  8  2  1  0
 10 11  1  0
 11 13  1  0
 12 11  2  0
 14 13  1  6
 14 15  1  0
 15  8  1  0
 16 14  1  0
 17 16  2  0
 18 16  1  0
 19 25  1  0
 19 18  1  0
 20 21  1  0
 19 20  1  1
 22 23  1  0
 22 21  1  0
 23 24  1  0
 25 27  1  0
 26 25  2  0
M  END
$$$$
