KNK.pdb
     RDKit          3D

 27 26  0  0  1  0  0  0  0  0999 V2000
   26.2287  -20.9252  -16.0940 N   0  0  0  0  0  0  0  0  0  0  0  0
   25.7996  -22.3163  -16.2071 C   0  0  1  0  0  0  0  0  0  0  0  0
   26.9100  -23.2714  -16.0230 C   0  0  0  0  0  0  0  0  0  0  0  0
   28.3052  -22.8401  -16.1706 C   0  0  0  0  0  0  0  0  0  0  0  0
   28.9723  -22.8194  -17.4747 C   0  0  0  0  0  0  0  0  0  0  0  0
   30.3792  -22.3672  -17.5198 C   0  0  0  0  0  0  0  0  0  0  0  0
   30.9550  -22.3703  -18.8547 N   0  0  0  0  0  0  0  0  0  0  0  0
   24.8498  -22.5861  -15.0199 C   0  0  0  0  0  0  0  0  0  0  0  0
   24.5217  -23.7708  -14.8714 O   0  0  0  0  0  0  0  0  0  0  0  0
   25.6011  -22.5898  -11.6882 N   0  0  0  0  0  0  0  0  0  0  0  0
   25.0214  -21.4056  -11.1889 C   0  0  0  0  0  0  0  0  0  0  0  0
   25.4664  -20.8912  -10.1470 O   0  0  0  0  0  0  0  0  0  0  0  0
   23.8951  -20.7866  -11.9025 C   0  0  0  0  0  0  0  0  0  0  0  0
   23.4907  -21.5758  -13.1588 C   0  0  2  0  0  0  0  0  0  0  0  0
   24.4353  -21.5138  -14.2171 N   0  0  0  0  0  0  0  0  0  0  0  0
   22.1531  -21.1366  -13.5551 C   0  0  0  0  0  0  0  0  0  0  0  0
   21.9510  -19.9850  -14.0812 O   0  0  0  0  0  0  0  0  0  0  0  0
   20.9883  -21.9327  -13.3931 N   0  0  0  0  0  0  0  0  0  0  0  0
   19.6956  -21.4602  -13.8311 C   0  0  1  0  0  0  0  0  0  0  0  0
   18.9801  -22.4895  -14.6710 C   0  0  0  0  0  0  0  0  0  0  0  0
   17.6085  -22.0866  -15.0787 C   0  0  0  0  0  0  0  0  0  0  0  0
   16.8968  -23.1286  -15.9024 C   0  0  0  0  0  0  0  0  0  0  0  0
   15.5896  -22.5683  -16.4488 C   0  0  0  0  0  0  0  0  0  0  0  0
   14.7856  -23.5694  -17.0796 N   0  0  0  0  0  0  0  0  0  0  0  0
   18.9225  -21.0100  -12.6791 C   0  0  0  0  0  0  0  0  0  0  0  0
   19.0777  -21.5702  -11.5658 O   0  0  0  0  0  0  0  0  0  0  0  0
   17.9897  -19.9672  -12.7169 O   0  0  0  0  0  0  0  0  0  0  0  0
  2  1  1  1
  3  2  1  0
  4  3  1  0
  5  4  1  0
  5  6  1  0
  7  6  1  0
  8  9  2  0
  8  2  1  0
 10 11  1  0
 11 13  1  0
 12 11  2  0
 14 13  1  1
 14 15  1  0
 15  8  1  0
 16 14  1  0
 17 16  2  0
 18 16  1  0
 19 25  1  0
 19 18  1  0
 20 21  1  0
 19 20  1  1
 22 23  1  0
 22 21  1  0
 23 24  1  0
 25 27  1  0
 26 25  2  0
M  END
$$$$
