KNK.pdb
     RDKit          3D

 27 26  0  0  1  0  0  0  0  0999 V2000
   26.9496  -21.8004  -11.2397 N   0  0  0  0  0  0  0  0  0  0  0  0
   25.6233  -21.2824  -11.5632 C   0  0  1  0  0  0  0  0  0  0  0  0
   25.0165  -20.5328  -10.4456 C   0  0  0  0  0  0  0  0  0  0  0  0
   23.5633  -20.3404  -10.3704 C   0  0  0  0  0  0  0  0  0  0  0  0
   22.6309  -21.2221  -11.0771 C   0  0  0  0  0  0  0  0  0  0  0  0
   21.1885  -20.9106  -10.9872 C   0  0  0  0  0  0  0  0  0  0  0  0
   20.3321  -21.9078  -11.6083 N   0  0  0  0  0  0  0  0  0  0  0  0
   25.8164  -20.2332  -12.6797 C   0  0  0  0  0  0  0  0  0  0  0  0
   25.7669  -19.0544  -12.3038 O   0  0  0  0  0  0  0  0  0  0  0  0
   28.6069  -18.2352  -16.9472 N   0  0  0  0  0  0  0  0  0  0  0  0
   27.7073  -19.3111  -17.0914 C   0  0  0  0  0  0  0  0  0  0  0  0
   27.1111  -19.4779  -18.1708 O   0  0  0  0  0  0  0  0  0  0  0  0
   27.4796  -20.2286  -15.9658 C   0  0  0  0  0  0  0  0  0  0  0  0
   26.2536  -19.8343  -15.1253 C   0  0  2  0  0  0  0  0  0  0  0  0
   26.0270  -20.6657  -13.9967 N   0  0  0  0  0  0  0  0  0  0  0  0
   25.1006  -19.7538  -16.0214 C   0  0  0  0  0  0  0  0  0  0  0  0
   24.4652  -20.8022  -16.3966 O   0  0  0  0  0  0  0  0  0  0  0  0
   24.5980  -18.5317  -16.5417 N   0  0  0  0  0  0  0  0  0  0  0  0
   23.4336  -18.5080  -17.3959 C   0  0  1  0  0  0  0  0  0  0  0  0
   22.5823  -17.2875  -17.1458 C   0  0  0  0  0  0  0  0  0  0  0  0
   21.3461  -17.2360  -17.9698 C   0  0  0  0  0  0  0  0  0  0  0  0
   20.5369  -15.9823  -17.7601 C   0  0  0  0  0  0  0  0  0  0  0  0
   19.2375  -16.0531  -18.5525 C   0  0  0  0  0  0  0  0  0  0  0  0
   18.3998  -14.9142  -18.3340 N   0  0  0  0  0  0  0  0  0  0  0  0
   23.8441  -18.6557  -18.7877 C   0  0  0  0  0  0  0  0  0  0  0  0
   24.7525  -17.9229  -19.2517 O   0  0  0  0  0  0  0  0  0  0  0  0
   23.2872  -19.5813  -19.6779 O   0  0  0  0  0  0  0  0  0  0  0  0
  2  1  1  1
  3  2  1  0
  4  3  1  0
  5  4  1  0
  5  6  1  0
  7  6  1  0
  8  9  2  0
  8  2  1  0
 10 11  1  0
 11 13  1  0
 12 11  2  0
 14 13  1  6
 14 15  1  0
 15  8  1  0
 16 14  1  0
 17 16  2  0
 18 16  1  0
 19 25  1  0
 19 18  1  0
 20 21  1  0
 19 20  1  6
 22 23  1  0
 22 21  1  0
 23 24  1  0
 25 27  1  0
 26 25  2  0
M  END
$$$$
