KNK.pdb
     RDKit          3D

 27 26  0  0  1  0  0  0  0  0999 V2000
   20.9601  -20.8494  -11.1802 N   0  0  0  0  0  0  0  0  0  0  0  0
   21.7981  -21.4000  -12.2417 C   0  0  1  0  0  0  0  0  0  0  0  0
   21.1678  -21.3028  -13.5730 C   0  0  0  0  0  0  0  0  0  0  0  0
   19.7819  -21.7386  -13.7825 C   0  0  0  0  0  0  0  0  0  0  0  0
   19.4321  -23.1537  -13.9283 C   0  0  0  0  0  0  0  0  0  0  0  0
   18.0105  -23.4902  -14.1557 C   0  0  0  0  0  0  0  0  0  0  0  0
   17.7566  -24.9164  -14.2788 N   0  0  0  0  0  0  0  0  0  0  0  0
   23.0484  -20.4984  -12.3333 C   0  0  0  0  0  0  0  0  0  0  0  0
   22.8139  -19.2843  -12.3992 O   0  0  0  0  0  0  0  0  0  0  0  0
   25.4633  -22.3201  -10.7694 N   0  0  0  0  0  0  0  0  0  0  0  0
   26.5747  -21.4535  -10.8091 C   0  0  0  0  0  0  0  0  0  0  0  0
   27.4653  -21.5506   -9.9456 O   0  0  0  0  0  0  0  0  0  0  0  0
   26.6739  -20.4411  -11.8702 C   0  0  0  0  0  0  0  0  0  0  0  0
   25.5069  -20.5202  -12.8685 C   0  0  2  0  0  0  0  0  0  0  0  0
   24.3200  -21.0892  -12.3361 N   0  0  0  0  0  0  0  0  0  0  0  0
   25.9862  -21.2066  -14.0678 C   0  0  0  0  0  0  0  0  0  0  0  0
   25.8573  -22.4736  -14.2151 O   0  0  0  0  0  0  0  0  0  0  0  0
   26.6229  -20.5406  -15.1485 N   0  0  0  0  0  0  0  0  0  0  0  0
   26.9816  -21.2505  -16.3541 C   0  0  1  0  0  0  0  0  0  0  0  0
   27.1467  -20.3139  -17.5255 C   0  0  0  0  0  0  0  0  0  0  0  0
   25.8879  -19.6413  -17.9413 C   0  0  0  0  0  0  0  0  0  0  0  0
   26.0540  -18.7460  -19.1419 C   0  0  0  0  0  0  0  0  0  0  0  0
   24.7164  -18.1284  -19.5300 C   0  0  0  0  0  0  0  0  0  0  0  0
   24.8342  -17.2033  -20.6148 N   0  0  0  0  0  0  0  0  0  0  0  0
   28.1545  -22.0805  -16.1032 C   0  0  0  0  0  0  0  0  0  0  0  0
   29.0918  -21.6384  -15.3935 O   0  0  0  0  0  0  0  0  0  0  0  0
   28.3242  -23.3752  -16.6073 O   0  0  0  0  0  0  0  0  0  0  0  0
  2  1  1  1
  3  2  1  0
  4  3  1  0
  5  4  1  0
  5  6  1  0
  7  6  1  0
  8  9  2  0
  8  2  1  0
 10 11  1  0
 11 13  1  0
 12 11  2  0
 14 13  1  1
 14 15  1  0
 15  8  1  0
 16 14  1  0
 17 16  2  0
 18 16  1  0
 19 25  1  0
 19 18  1  0
 20 21  1  0
 19 20  1  6
 22 23  1  0
 22 21  1  0
 23 24  1  0
 25 27  1  0
 26 25  2  0
M  END
$$$$
