KNK.pdb
     RDKit          3D

 27 26  0  0  1  0  0  0  0  0999 V2000
   23.6150  -22.7631  -15.8617 N   0  0  0  0  0  0  0  0  0  0  0  0
   22.8234  -22.8432  -17.0860 C   0  0  1  0  0  0  0  0  0  0  0  0
   22.2118  -24.1723  -17.2826 C   0  0  0  0  0  0  0  0  0  0  0  0
   22.6259  -25.3190  -16.4652 C   0  0  0  0  0  0  0  0  0  0  0  0
   23.2979  -26.4813  -17.0512 C   0  0  0  0  0  0  0  0  0  0  0  0
   22.6943  -27.8115  -16.8230 C   0  0  0  0  0  0  0  0  0  0  0  0
   23.3421  -28.8850  -17.5588 N   0  0  0  0  0  0  0  0  0  0  0  0
   21.6267  -21.8842  -16.9048 C   0  0  0  0  0  0  0  0  0  0  0  0
   21.1192  -21.4765  -17.9580 O   0  0  0  0  0  0  0  0  0  0  0  0
   19.2271  -23.2874  -13.0219 N   0  0  0  0  0  0  0  0  0  0  0  0
   18.7649  -22.2326  -13.8352 C   0  0  0  0  0  0  0  0  0  0  0  0
   17.7265  -22.3780  -14.5052 O   0  0  0  0  0  0  0  0  0  0  0  0
   19.5129  -20.9682  -13.8865 C   0  0  0  0  0  0  0  0  0  0  0  0
   20.1199  -20.7006  -15.2739 C   0  0  2  0  0  0  0  0  0  0  0  0
   21.2078  -21.5491  -15.6093 N   0  0  0  0  0  0  0  0  0  0  0  0
   20.4536  -19.2789  -15.3525 C   0  0  0  0  0  0  0  0  0  0  0  0
   21.1071  -18.6882  -14.4210 O   0  0  0  0  0  0  0  0  0  0  0  0
   20.0886  -18.4489  -16.4456 N   0  0  0  0  0  0  0  0  0  0  0  0
   20.5315  -17.0762  -16.5197 C   0  0  1  0  0  0  0  0  0  0  0  0
   21.7233  -16.9225  -17.4323 C   0  0  0  0  0  0  0  0  0  0  0  0
   22.1433  -15.5120  -17.6425 C   0  0  0  0  0  0  0  0  0  0  0  0
   23.1661  -15.3471  -18.7366 C   0  0  0  0  0  0  0  0  0  0  0  0
   23.5350  -13.8777  -18.8983 C   0  0  0  0  0  0  0  0  0  0  0  0
   24.3219  -13.6359  -20.0682 N   0  0  0  0  0  0  0  0  0  0  0  0
   19.4085  -16.2179  -16.8799 C   0  0  0  0  0  0  0  0  0  0  0  0
   18.5066  -16.6549  -17.6369 O   0  0  0  0  0  0  0  0  0  0  0  0
   19.2503  -14.9009  -16.4332 O   0  0  0  0  0  0  0  0  0  0  0  0
  2  1  1  1
  3  2  1  0
  4  3  1  0
  5  4  1  0
  5  6  1  0
  7  6  1  0
  8  9  2  0
  8  2  1  0
 10 11  1  0
 11 13  1  0
 12 11  2  0
 14 13  1  1
 14 15  1  0
 15  8  1  0
 16 14  1  0
 17 16  2  0
 18 16  1  0
 19 25  1  0
 19 18  1  0
 20 21  1  0
 19 20  1  6
 22 23  1  0
 22 21  1  0
 23 24  1  0
 25 27  1  0
 26 25  2  0
M  END
$$$$
