KNK.pdb
     RDKit          3D

 27 26  0  0  1  0  0  0  0  0999 V2000
   25.2986  -22.3725  -14.5884 N   0  0  0  0  0  0  0  0  0  0  0  0
   25.7528  -20.9866  -14.6595 C   0  0  1  0  0  0  0  0  0  0  0  0
   26.1611  -20.5903  -16.0217 C   0  0  0  0  0  0  0  0  0  0  0  0
   27.3130  -21.2231  -16.6754 C   0  0  0  0  0  0  0  0  0  0  0  0
   27.5425  -22.6682  -16.6040 C   0  0  0  0  0  0  0  0  0  0  0  0
   28.7661  -23.2018  -17.2394 C   0  0  0  0  0  0  0  0  0  0  0  0
   28.9842  -24.6186  -16.9970 N   0  0  0  0  0  0  0  0  0  0  0  0
   24.5277  -20.1009  -14.3445 C   0  0  0  0  0  0  0  0  0  0  0  0
   24.7113  -18.8846  -14.4867 O   0  0  0  0  0  0  0  0  0  0  0  0
   20.2531  -17.3613  -14.3166 N   0  0  0  0  0  0  0  0  0  0  0  0
   20.2660  -18.6858  -14.7994 C   0  0  0  0  0  0  0  0  0  0  0  0
   19.1919  -19.2707  -15.0287 O   0  0  0  0  0  0  0  0  0  0  0  0
   21.5482  -19.3671  -15.0287 C   0  0  0  0  0  0  0  0  0  0  0  0
   22.0800  -20.0596  -13.7628 C   0  0  2  0  0  0  0  0  0  0  0  0
   23.3321  -20.7071  -13.9332 N   0  0  0  0  0  0  0  0  0  0  0  0
   21.0339  -20.9521  -13.2647 C   0  0  0  0  0  0  0  0  0  0  0  0
   20.2939  -20.6317  -12.2680 O   0  0  0  0  0  0  0  0  0  0  0  0
   20.7555  -22.2241  -13.8316 N   0  0  0  0  0  0  0  0  0  0  0  0
   19.6375  -23.0157  -13.3738 C   0  0  1  0  0  0  0  0  0  0  0  0
   18.3440  -22.2409  -13.4314 C   0  0  0  0  0  0  0  0  0  0  0  0
   17.1495  -23.0323  -13.0354 C   0  0  0  0  0  0  0  0  0  0  0  0
   15.8638  -22.2487  -13.0947 C   0  0  0  0  0  0  0  0  0  0  0  0
   14.6878  -23.1316  -12.6961 C   0  0  0  0  0  0  0  0  0  0  0  0
   13.4800  -22.3866  -12.5149 N   0  0  0  0  0  0  0  0  0  0  0  0
   19.5948  -24.2745  -14.1094 C   0  0  0  0  0  0  0  0  0  0  0  0
   20.0543  -24.3312  -15.2769 O   0  0  0  0  0  0  0  0  0  0  0  0
   19.0646  -25.4655  -13.5999 O   0  0  0  0  0  0  0  0  0  0  0  0
  2  1  1  6
  3  2  1  0
  4  3  1  0
  5  4  1  0
  5  6  1  0
  7  6  1  0
  8  9  2  0
  8  2  1  0
 10 11  1  0
 11 13  1  0
 12 11  2  0
 14 13  1  6
 14 15  1  0
 15  8  1  0
 16 14  1  0
 17 16  2  0
 18 16  1  0
 19 25  1  0
 19 18  1  0
 20 21  1  0
 19 20  1  6
 22 23  1  0
 22 21  1  0
 23 24  1  0
 25 27  1  0
 26 25  2  0
M  END
$$$$
