KNK.pdb
     RDKit          3D

 27 26  0  0  1  0  0  0  0  0999 V2000
   27.6761  -19.9614  -13.9490 N   0  0  0  0  0  0  0  0  0  0  0  0
   26.6177  -19.8586  -14.9496 C   0  0  1  0  0  0  0  0  0  0  0  0
   26.8627  -20.7140  -16.1275 C   0  0  0  0  0  0  0  0  0  0  0  0
   27.7870  -20.2896  -17.1859 C   0  0  0  0  0  0  0  0  0  0  0  0
   27.5563  -19.0734  -17.9694 C   0  0  0  0  0  0  0  0  0  0  0  0
   28.4888  -18.7840  -19.0795 C   0  0  0  0  0  0  0  0  0  0  0  0
   28.1750  -17.5658  -19.8082 N   0  0  0  0  0  0  0  0  0  0  0  0
   25.3391  -20.4364  -14.3048 C   0  0  0  0  0  0  0  0  0  0  0  0
   24.5384  -20.9480  -15.0988 O   0  0  0  0  0  0  0  0  0  0  0  0
   26.1870  -20.9822   -9.1625 N   0  0  0  0  0  0  0  0  0  0  0  0
   25.3564  -21.4941  -10.1803 C   0  0  0  0  0  0  0  0  0  0  0  0
   25.5992  -22.6104  -10.6733 O   0  0  0  0  0  0  0  0  0  0  0  0
   24.2091  -20.7055  -10.6523 C   0  0  0  0  0  0  0  0  0  0  0  0
   24.0366  -20.7752  -12.1788 C   0  0  2  0  0  0  0  0  0  0  0  0
   25.1729  -20.3481  -12.9153 N   0  0  0  0  0  0  0  0  0  0  0  0
   22.8175  -20.0465  -12.5277 C   0  0  0  0  0  0  0  0  0  0  0  0
   22.7790  -18.7650  -12.5387 O   0  0  0  0  0  0  0  0  0  0  0  0
   21.5974  -20.6843  -12.8762 N   0  0  0  0  0  0  0  0  0  0  0  0
   20.4375  -19.9148  -13.2615 C   0  0  1  0  0  0  0  0  0  0  0  0
   20.2934  -19.8348  -14.7614 C   0  0  0  0  0  0  0  0  0  0  0  0
   19.0827  -19.0993  -15.2120 C   0  0  0  0  0  0  0  0  0  0  0  0
   18.9529  -19.0183  -16.7111 C   0  0  0  0  0  0  0  0  0  0  0  0
   17.6878  -18.2596  -17.0920 C   0  0  0  0  0  0  0  0  0  0  0  0
   17.4562  -18.2542  -18.5037 N   0  0  0  0  0  0  0  0  0  0  0  0
   19.2547  -20.4427  -12.5908 C   0  0  0  0  0  0  0  0  0  0  0  0
   19.1654  -21.6740  -12.3600 O   0  0  0  0  0  0  0  0  0  0  0  0
   18.1742  -19.6591  -12.1692 O   0  0  0  0  0  0  0  0  0  0  0  0
  2  1  1  1
  3  2  1  0
  4  3  1  0
  5  4  1  0
  5  6  1  0
  7  6  1  0
  8  9  2  0
  8  2  1  0
 10 11  1  0
 11 13  1  0
 12 11  2  0
 14 13  1  1
 14 15  1  0
 15  8  1  0
 16 14  1  0
 17 16  2  0
 18 16  1  0
 19 25  1  0
 19 18  1  0
 20 21  1  0
 19 20  1  6
 22 23  1  0
 22 21  1  0
 23 24  1  0
 25 27  1  0
 26 25  2  0
M  END
$$$$
