KNK.pdb
     RDKit          3D

 27 26  0  0  1  0  0  0  0  0999 V2000
   18.5689  -26.4138   -9.5773 N   0  0  0  0  0  0  0  0  0  0  0  0
   18.9557  -25.5525   -8.4634 C   0  0  1  0  0  0  0  0  0  0  0  0
   18.7764  -24.1183   -8.7637 C   0  0  0  0  0  0  0  0  0  0  0  0
   17.7865  -23.6751   -9.7527 C   0  0  0  0  0  0  0  0  0  0  0  0
   18.1773  -22.9468  -10.9622 C   0  0  0  0  0  0  0  0  0  0  0  0
   17.1268  -22.6633  -11.9632 C   0  0  0  0  0  0  0  0  0  0  0  0
   17.6096  -21.9550  -13.1374 N   0  0  0  0  0  0  0  0  0  0  0  0
   17.9640  -25.8393   -7.3150 C   0  0  0  0  0  0  0  0  0  0  0  0
   16.8053  -26.0873   -7.6743 O   0  0  0  0  0  0  0  0  0  0  0  0
   16.2013  -26.6955   -2.5623 N   0  0  0  0  0  0  0  0  0  0  0  0
   17.6037  -26.6880   -2.4179 C   0  0  0  0  0  0  0  0  0  0  0  0
   18.1143  -26.9950   -1.3255 O   0  0  0  0  0  0  0  0  0  0  0  0
   18.4534  -26.3176   -3.5588 C   0  0  0  0  0  0  0  0  0  0  0  0
   17.6365  -26.0172   -4.8265 C   0  0  2  0  0  0  0  0  0  0  0  0
   18.4213  -25.8016   -5.9900 N   0  0  0  0  0  0  0  0  0  0  0  0
   16.7338  -24.9061   -4.5275 C   0  0  0  0  0  0  0  0  0  0  0  0
   17.1517  -23.6953   -4.4725 O   0  0  0  0  0  0  0  0  0  0  0  0
   15.3456  -25.0715   -4.2771 N   0  0  0  0  0  0  0  0  0  0  0  0
   14.4913  -23.9328   -4.0330 C   0  0  1  0  0  0  0  0  0  0  0  0
   13.1537  -24.0818   -4.7150 C   0  0  0  0  0  0  0  0  0  0  0  0
   13.1893  -23.8132   -6.1767 C   0  0  0  0  0  0  0  0  0  0  0  0
   13.2798  -22.3478   -6.5156 C   0  0  0  0  0  0  0  0  0  0  0  0
   13.1555  -22.1445   -8.0204 C   0  0  0  0  0  0  0  0  0  0  0  0
   13.0908  -20.7622   -8.3831 N   0  0  0  0  0  0  0  0  0  0  0  0
   14.3892  -23.6960   -2.5974 C   0  0  0  0  0  0  0  0  0  0  0  0
   14.7831  -24.5740   -1.7904 O   0  0  0  0  0  0  0  0  0  0  0  0
   13.8695  -22.5277   -2.0280 O   0  0  0  0  0  0  0  0  0  0  0  0
  2  1  1  6
  3  2  1  0
  4  3  1  0
  5  4  1  0
  5  6  1  0
  7  6  1  0
  8  9  2  0
  8  2  1  0
 10 11  1  0
 11 13  1  0
 12 11  2  0
 14 13  1  1
 14 15  1  0
 15  8  1  0
 16 14  1  0
 17 16  2  0
 18 16  1  0
 19 25  1  0
 19 18  1  0
 20 21  1  0
 19 20  1  1
 22 23  1  0
 22 21  1  0
 23 24  1  0
 25 27  1  0
 26 25  2  0
M  END
$$$$
