KNK.pdb
     RDKit          3D

 27 26  0  0  1  0  0  0  0  0999 V2000
   19.8561  -19.5243  -15.5462 N   0  0  0  0  0  0  0  0  0  0  0  0
   20.6595  -18.3823  -15.9733 C   0  0  1  0  0  0  0  0  0  0  0  0
   21.6664  -18.7430  -16.9908 C   0  0  0  0  0  0  0  0  0  0  0  0
   22.8369  -19.5545  -16.6358 C   0  0  0  0  0  0  0  0  0  0  0  0
   23.3531  -19.6057  -15.2658 C   0  0  0  0  0  0  0  0  0  0  0  0
   24.5131  -20.4832  -15.0010 C   0  0  0  0  0  0  0  0  0  0  0  0
   24.1552  -21.8679  -14.7400 N   0  0  0  0  0  0  0  0  0  0  0  0
   19.7016  -17.4111  -16.6969 C   0  0  0  0  0  0  0  0  0  0  0  0
   19.1110  -17.8902  -17.6741 O   0  0  0  0  0  0  0  0  0  0  0  0
   15.8703  -16.8500  -15.4383 N   0  0  0  0  0  0  0  0  0  0  0  0
   16.4942  -16.1232  -16.4728 C   0  0  0  0  0  0  0  0  0  0  0  0
   16.3155  -16.4577  -17.6579 O   0  0  0  0  0  0  0  0  0  0  0  0
   17.3517  -14.9753  -16.1445 C   0  0  0  0  0  0  0  0  0  0  0  0
   18.7478  -15.0842  -16.7800 C   0  0  2  0  0  0  0  0  0  0  0  0
   19.5672  -16.0994  -16.2199 N   0  0  0  0  0  0  0  0  0  0  0  0
   19.3653  -13.7590  -16.7398 C   0  0  0  0  0  0  0  0  0  0  0  0
   19.7436  -13.2258  -15.6370 O   0  0  0  0  0  0  0  0  0  0  0  0
   19.5927  -12.9665  -17.8962 N   0  0  0  0  0  0  0  0  0  0  0  0
   20.1846  -11.6529  -17.7949 C   0  0  1  0  0  0  0  0  0  0  0  0
   20.6479  -11.1442  -19.1378 C   0  0  0  0  0  0  0  0  0  0  0  0
   21.3870   -9.8560  -19.0719 C   0  0  0  0  0  0  0  0  0  0  0  0
   21.9830   -9.4379  -20.3912 C   0  0  0  0  0  0  0  0  0  0  0  0
   22.7478   -8.1295  -20.2348 C   0  0  0  0  0  0  0  0  0  0  0  0
   23.3357   -7.6883  -21.4621 N   0  0  0  0  0  0  0  0  0  0  0  0
   19.2604  -10.7500  -17.1181 C   0  0  0  0  0  0  0  0  0  0  0  0
   18.0261  -10.8468  -17.3293 O   0  0  0  0  0  0  0  0  0  0  0  0
   19.6531   -9.7502  -16.2207 O   0  0  0  0  0  0  0  0  0  0  0  0
  2  1  1  6
  3  2  1  0
  4  3  1  0
  5  4  1  0
  5  6  1  0
  7  6  1  0
  8  9  2  0
  8  2  1  0
 10 11  1  0
 11 13  1  0
 12 11  2  0
 14 13  1  1
 14 15  1  0
 15  8  1  0
 16 14  1  0
 17 16  2  0
 18 16  1  0
 19 25  1  0
 19 18  1  0
 20 21  1  0
 19 20  1  6
 22 23  1  0
 22 21  1  0
 23 24  1  0
 25 27  1  0
 26 25  2  0
M  END
$$$$
