KNK.pdb
     RDKit          3D

 27 26  0  0  1  0  0  0  0  0999 V2000
   26.9022  -22.0054  -10.7661 N   0  0  0  0  0  0  0  0  0  0  0  0
   25.7827  -21.0736  -10.8692 C   0  0  1  0  0  0  0  0  0  0  0  0
   25.9379  -19.8977   -9.9903 C   0  0  0  0  0  0  0  0  0  0  0  0
   25.5613  -19.9631   -8.5731 C   0  0  0  0  0  0  0  0  0  0  0  0
   24.6693  -21.0056   -8.0595 C   0  0  0  0  0  0  0  0  0  0  0  0
   24.2460  -20.9126   -6.6460 C   0  0  0  0  0  0  0  0  0  0  0  0
   22.8136  -20.7346   -6.4719 N   0  0  0  0  0  0  0  0  0  0  0  0
   25.8138  -20.4987  -12.3020 C   0  0  0  0  0  0  0  0  0  0  0  0
   25.5397  -19.2943  -12.3883 O   0  0  0  0  0  0  0  0  0  0  0  0
   26.7229  -20.1468  -17.3349 N   0  0  0  0  0  0  0  0  0  0  0  0
   27.4854  -21.2469  -16.8921 C   0  0  0  0  0  0  0  0  0  0  0  0
   28.3207  -21.7667  -17.6538 O   0  0  0  0  0  0  0  0  0  0  0  0
   27.2883  -21.7726  -15.5335 C   0  0  0  0  0  0  0  0  0  0  0  0
   26.2513  -20.9646  -14.7357 C   0  0  2  0  0  0  0  0  0  0  0  0
   26.1375  -21.3446  -13.3724 N   0  0  0  0  0  0  0  0  0  0  0  0
   24.9809  -21.0253  -15.4578 C   0  0  0  0  0  0  0  0  0  0  0  0
   24.3171  -22.1172  -15.5615 O   0  0  0  0  0  0  0  0  0  0  0  0
   24.3877  -19.9022  -16.0931 N   0  0  0  0  0  0  0  0  0  0  0  0
   23.0342  -19.9580  -16.5941 C   0  0  1  0  0  0  0  0  0  0  0  0
   22.4405  -18.5800  -16.7534 C   0  0  0  0  0  0  0  0  0  0  0  0
   21.0298  -18.5822  -17.2224 C   0  0  0  0  0  0  0  0  0  0  0  0
   20.4340  -17.2031  -17.3392 C   0  0  0  0  0  0  0  0  0  0  0  0
   18.9550  -17.2944  -17.6932 C   0  0  0  0  0  0  0  0  0  0  0  0
   18.3506  -16.0083  -17.8584 N   0  0  0  0  0  0  0  0  0  0  0  0
   22.9970  -20.7523  -17.8169 C   0  0  0  0  0  0  0  0  0  0  0  0
   22.1317  -21.6528  -17.9502 O   0  0  0  0  0  0  0  0  0  0  0  0
   23.8790  -20.5847  -18.8907 O   0  0  0  0  0  0  0  0  0  0  0  0
  2  1  1  6
  3  2  1  0
  4  3  1  0
  5  4  1  0
  5  6  1  0
  7  6  1  0
  8  9  2  0
  8  2  1  0
 10 11  1  0
 11 13  1  0
 12 11  2  0
 14 13  1  6
 14 15  1  0
 15  8  1  0
 16 14  1  0
 17 16  2  0
 18 16  1  0
 19 25  1  0
 19 18  1  0
 20 21  1  0
 19 20  1  6
 22 23  1  0
 22 21  1  0
 23 24  1  0
 25 27  1  0
 26 25  2  0
M  END
$$$$
