NLM.pdb
     RDKit          3D

 25 24  0  0  1  0  0  0  0  0999 V2000
    9.5614  -18.4199   17.8862 N   0  0  0  0  0  0  0  0  0  0  0  0
    8.5580  -17.6085   18.4466 C   0  0  0  0  0  0  0  0  0  0  0  0
    7.3774  -17.7370   18.0800 O   0  0  0  0  0  0  0  0  0  0  0  0
    8.9068  -16.6071   19.4675 C   0  0  0  0  0  0  0  0  0  0  0  0
    8.8461  -17.1484   20.8744 C   0  0  2  0  0  0  0  0  0  0  0  0
    7.5230  -17.6305   21.2129 N   0  0  0  0  0  0  0  0  0  0  0  0
    9.2162  -16.1158   21.8788 C   0  0  0  0  0  0  0  0  0  0  0  0
   10.3501  -15.5249   21.8316 O   0  0  0  0  0  0  0  0  0  0  0  0
    7.4640  -12.0301   24.9799 C   0  0  0  0  0  0  0  0  0  0  0  0
    6.7220  -13.2818   24.6914 C   0  0  2  0  0  0  0  0  0  0  0  0
    5.6657  -13.4376   25.8132 C   0  0  0  0  0  0  0  0  0  0  0  0
    7.5234  -14.4966   24.7002 C   0  0  0  0  0  0  0  0  0  0  0  0
    8.7751  -14.6340   23.8943 C   0  0  2  0  0  0  0  0  0  0  0  0
    8.3740  -15.7208   22.9271 N   0  0  0  0  0  0  0  0  0  0  0  0
    9.8904  -15.2229   24.6222 C   0  0  0  0  0  0  0  0  0  0  0  0
   10.9711  -14.5341   24.7381 O   0  0  0  0  0  0  0  0  0  0  0  0
   12.3878  -13.7056   29.3131 C   0  0  0  0  0  0  0  0  0  0  0  0
   10.8565  -14.5079   29.7950 S   0  0  0  0  0  0  0  0  0  0  0  0
   10.6007  -16.0812   28.9651 C   0  0  0  0  0  0  0  0  0  0  0  0
    9.9015  -15.9824   27.6491 C   0  0  0  0  0  0  0  0  0  0  0  0
   10.6546  -16.6676   26.5070 C   0  0  2  0  0  0  0  0  0  0  0  0
    9.9553  -16.4909   25.2596 N   0  0  0  0  0  0  0  0  0  0  0  0
   10.7508  -18.0808   26.8883 C   0  0  0  0  0  0  0  0  0  0  0  0
   11.3937  -18.4456   27.9289 O   0  0  0  0  0  0  0  0  0  0  0  0
   10.1565  -19.0676   26.1486 O   0  0  0  0  0  0  0  0  0  0  0  0
  1  2  1  0
  2  3  2  0
  2  4  1  0
  5  6  1  1
  5  4  1  0
  7  5  1  0
  8  7  2  0
 10  9  1  1
 10 12  1  0
 11 10  1  0
 13 12  1  1
 13 14  1  0
 14  7  1  0
 15 13  1  0
 15 16  2  0
 18 17  1  0
 19 20  1  0
 19 18  1  0
 21 20  1  1
 21 22  1  0
 22 15  1  0
 23 21  1  0
 24 23  2  0
 25 23  1  0
M  END
$$$$
