NLM.pdb
     RDKit          3D

 25 24  0  0  1  0  0  0  0  0999 V2000
   10.0107  -16.7408   17.5443 N   0  0  0  0  0  0  0  0  0  0  0  0
    8.8716  -16.5722   18.3524 C   0  0  0  0  0  0  0  0  0  0  0  0
    7.7830  -17.0591   18.0023 O   0  0  0  0  0  0  0  0  0  0  0  0
    8.9694  -15.8188   19.6132 C   0  0  0  0  0  0  0  0  0  0  0  0
    8.9617  -16.7036   20.8351 C   0  0  2  0  0  0  0  0  0  0  0  0
    7.6557  -17.2808   21.0780 N   0  0  0  0  0  0  0  0  0  0  0  0
    9.3549  -15.9563   22.0594 C   0  0  0  0  0  0  0  0  0  0  0  0
   10.4755  -15.3423   22.1271 O   0  0  0  0  0  0  0  0  0  0  0  0
    8.0210  -12.2235   24.8930 C   0  0  0  0  0  0  0  0  0  0  0  0
    7.1025  -13.3748   24.7158 C   0  0  2  0  0  0  0  0  0  0  0  0
    5.9465  -13.1774   25.7272 C   0  0  0  0  0  0  0  0  0  0  0  0
    7.6812  -14.6812   24.9922 C   0  0  0  0  0  0  0  0  0  0  0  0
    8.9979  -15.1078   24.4269 C   0  0  2  0  0  0  0  0  0  0  0  0
    8.5500  -15.8692   23.2034 N   0  0  0  0  0  0  0  0  0  0  0  0
    9.6878  -16.1158   25.2196 C   0  0  0  0  0  0  0  0  0  0  0  0
    9.6948  -17.3279   24.7876 O   0  0  0  0  0  0  0  0  0  0  0  0
   10.2685  -13.5736   28.8554 C   0  0  0  0  0  0  0  0  0  0  0  0
   10.9276  -14.7281   30.0610 S   0  0  0  0  0  0  0  0  0  0  0  0
   11.1238  -16.3890   29.4034 C   0  0  0  0  0  0  0  0  0  0  0  0
   12.0033  -16.4801   28.1998 C   0  0  0  0  0  0  0  0  0  0  0  0
   11.2722  -16.9688   26.9477 C   0  0  2  0  0  0  0  0  0  0  0  0
   10.3935  -15.9453   26.4408 N   0  0  0  0  0  0  0  0  0  0  0  0
   10.5374  -18.1690   27.3617 C   0  0  0  0  0  0  0  0  0  0  0  0
    9.2613  -18.1966   27.3696 O   0  0  0  0  0  0  0  0  0  0  0  0
   11.1850  -19.3091   27.7553 O   0  0  0  0  0  0  0  0  0  0  0  0
  1  2  1  0
  2  3  2  0
  2  4  1  0
  5  6  1  1
  5  4  1  0
  7  5  1  0
  8  7  2  0
 10  9  1  1
 10 12  1  0
 11 10  1  0
 13 12  1  1
 13 14  1  0
 14  7  1  0
 15 13  1  0
 15 16  2  0
 18 17  1  0
 19 20  1  0
 19 18  1  0
 21 20  1  1
 21 22  1  0
 22 15  1  0
 23 21  1  0
 24 23  2  0
 25 23  1  0
M  END
$$$$
