NLM.pdb
     RDKit          3D

 25 24  0  0  1  0  0  0  0  0999 V2000
    8.8668  -18.3012   18.1468 N   0  0  0  0  0  0  0  0  0  0  0  0
    8.8754  -16.8972   18.0593 C   0  0  0  0  0  0  0  0  0  0  0  0
    8.8546  -16.3433   16.9469 O   0  0  0  0  0  0  0  0  0  0  0  0
    8.9090  -16.0841   19.2859 C   0  0  0  0  0  0  0  0  0  0  0  0
    9.0654  -16.9083   20.5398 C   0  0  2  0  0  0  0  0  0  0  0  0
    7.8707  -17.6700   20.8401 N   0  0  0  0  0  0  0  0  0  0  0  0
    9.3637  -16.0592   21.7239 C   0  0  0  0  0  0  0  0  0  0  0  0
   10.3862  -15.2901   21.7446 O   0  0  0  0  0  0  0  0  0  0  0  0
    7.7064  -12.3732   24.6416 C   0  0  0  0  0  0  0  0  0  0  0  0
    6.8573  -13.5623   24.3856 C   0  0  2  0  0  0  0  0  0  0  0  0
    5.7003  -13.5083   25.4136 C   0  0  0  0  0  0  0  0  0  0  0  0
    7.5157  -14.8477   24.5644 C   0  0  0  0  0  0  0  0  0  0  0  0
    8.8872  -15.1233   24.0368 C   0  0  2  0  0  0  0  0  0  0  0  0
    8.5692  -16.0365   22.8783 N   0  0  0  0  0  0  0  0  0  0  0  0
    9.7048  -15.9546   24.9091 C   0  0  0  0  0  0  0  0  0  0  0  0
    9.9690  -17.1557   24.5303 O   0  0  0  0  0  0  0  0  0  0  0  0
   10.0563  -14.0711   30.5537 C   0  0  0  0  0  0  0  0  0  0  0  0
   11.1966  -15.4325   30.8131 S   0  0  0  0  0  0  0  0  0  0  0  0
   11.2918  -16.5426   29.4031 C   0  0  0  0  0  0  0  0  0  0  0  0
   11.7102  -15.8901   28.1265 C   0  0  0  0  0  0  0  0  0  0  0  0
   11.1117  -16.5487   26.8819 C   0  0  2  0  0  0  0  0  0  0  0  0
   10.2871  -15.6136   26.1593 N   0  0  0  0  0  0  0  0  0  0  0  0
   10.3410  -17.6961   27.3733 C   0  0  0  0  0  0  0  0  0  0  0  0
    9.0670  -17.7212   27.2989 O   0  0  0  0  0  0  0  0  0  0  0  0
   10.9516  -18.7875   27.9302 O   0  0  0  0  0  0  0  0  0  0  0  0
  1  2  1  0
  2  3  2  0
  2  4  1  0
  5  6  1  1
  5  4  1  0
  7  5  1  0
  8  7  2  0
 10  9  1  1
 10 12  1  0
 11 10  1  0
 13 12  1  1
 13 14  1  0
 14  7  1  0
 15 13  1  0
 15 16  2  0
 18 17  1  0
 19 20  1  0
 19 18  1  0
 21 20  1  1
 21 22  1  0
 22 15  1  0
 23 21  1  0
 24 23  2  0
 25 23  1  0
M  END
$$$$
