NLM.pdb
     RDKit          3D

 25 24  0  0  1  0  0  0  0  0999 V2000
    8.5817  -19.8959   18.6940 N   0  0  0  0  0  0  0  0  0  0  0  0
    8.0563  -19.5359   19.9484 C   0  0  0  0  0  0  0  0  0  0  0  0
    7.0057  -20.0600   20.3562 O   0  0  0  0  0  0  0  0  0  0  0  0
    8.7514  -18.5382   20.7780 C   0  0  0  0  0  0  0  0  0  0  0  0
    7.8917  -17.3456   21.1165 C   0  0  2  0  0  0  0  0  0  0  0  0
    7.3901  -16.6848   19.9293 N   0  0  0  0  0  0  0  0  0  0  0  0
    8.6401  -16.3338   21.9090 C   0  0  0  0  0  0  0  0  0  0  0  0
    9.7850  -15.9097   21.5260 O   0  0  0  0  0  0  0  0  0  0  0  0
    7.5242  -11.9268   24.1645 C   0  0  0  0  0  0  0  0  0  0  0  0
    6.9579  -13.2523   24.5150 C   0  0  2  0  0  0  0  0  0  0  0  0
    6.0832  -13.0397   25.7751 C   0  0  0  0  0  0  0  0  0  0  0  0
    7.9346  -14.2771   24.8520 C   0  0  0  0  0  0  0  0  0  0  0  0
    8.9593  -14.7569   23.8747 C   0  0  2  0  0  0  0  0  0  0  0  0
    8.1620  -15.7812   23.1050 N   0  0  0  0  0  0  0  0  0  0  0  0
   10.0311  -15.5408   24.4723 C   0  0  0  0  0  0  0  0  0  0  0  0
   11.2396  -15.1204   24.3356 O   0  0  0  0  0  0  0  0  0  0  0  0
    9.7688  -13.6220   29.4809 C   0  0  0  0  0  0  0  0  0  0  0  0
   10.6834  -15.0388   30.0948 S   0  0  0  0  0  0  0  0  0  0  0  0
   10.9133  -16.3148   28.8504 C   0  0  0  0  0  0  0  0  0  0  0  0
   10.2523  -16.0316   27.5415 C   0  0  0  0  0  0  0  0  0  0  0  0
   10.7215  -16.9503   26.4115 C   0  0  2  0  0  0  0  0  0  0  0  0
    9.9303  -16.7412   25.2254 N   0  0  0  0  0  0  0  0  0  0  0  0
   10.5856  -18.3159   26.9297 C   0  0  0  0  0  0  0  0  0  0  0  0
    9.7103  -19.1192   26.4629 O   0  0  0  0  0  0  0  0  0  0  0  0
   11.3893  -18.7883   27.9322 O   0  0  0  0  0  0  0  0  0  0  0  0
  1  2  1  0
  2  3  2  0
  2  4  1  0
  5  6  1  6
  5  4  1  0
  7  5  1  0
  8  7  2  0
 10  9  1  1
 10 12  1  0
 11 10  1  0
 13 12  1  1
 13 14  1  0
 14  7  1  0
 15 13  1  0
 15 16  2  0
 18 17  1  0
 19 20  1  0
 19 18  1  0
 21 20  1  1
 21 22  1  0
 22 15  1  0
 23 21  1  0
 24 23  2  0
 25 23  1  0
M  END
$$$$
