NLM.pdb
     RDKit          3D

 25 24  0  0  1  0  0  0  0  0999 V2000
    7.5294  -19.1600   19.2819 N   0  0  0  0  0  0  0  0  0  0  0  0
    7.2169  -17.8017   19.0909 C   0  0  0  0  0  0  0  0  0  0  0  0
    6.7415  -17.4193   18.0081 O   0  0  0  0  0  0  0  0  0  0  0  0
    7.4530  -16.8333   20.1740 C   0  0  0  0  0  0  0  0  0  0  0  0
    8.1411  -17.4394   21.3720 C   0  0  2  0  0  0  0  0  0  0  0  0
    7.1995  -18.0586   22.2819 N   0  0  0  0  0  0  0  0  0  0  0  0
    8.9044  -16.4219   22.1427 C   0  0  0  0  0  0  0  0  0  0  0  0
   10.0560  -16.0241   21.7517 O   0  0  0  0  0  0  0  0  0  0  0  0
    7.2130  -12.1910   23.6493 C   0  0  0  0  0  0  0  0  0  0  0  0
    6.9398  -13.4692   24.3506 C   0  0  2  0  0  0  0  0  0  0  0  0
    6.0381  -13.1247   25.5616 C   0  0  0  0  0  0  0  0  0  0  0  0
    8.1109  -14.1505   24.8820 C   0  0  0  0  0  0  0  0  0  0  0  0
    9.1798  -14.7094   23.9985 C   0  0  2  0  0  0  0  0  0  0  0  0
    8.4339  -15.8355   23.3256 N   0  0  0  0  0  0  0  0  0  0  0  0
   10.2485  -15.3912   24.7150 C   0  0  0  0  0  0  0  0  0  0  0  0
   11.3348  -14.7416   24.9466 O   0  0  0  0  0  0  0  0  0  0  0  0
    9.5994  -14.1563   29.7608 C   0  0  0  0  0  0  0  0  0  0  0  0
   10.5643  -15.5732   30.2918 S   0  0  0  0  0  0  0  0  0  0  0  0
   11.0338  -16.6487   28.9308 C   0  0  0  0  0  0  0  0  0  0  0  0
   10.3283  -16.3667   27.6450 C   0  0  0  0  0  0  0  0  0  0  0  0
   10.9733  -17.0462   26.4353 C   0  0  2  0  0  0  0  0  0  0  0  0
   10.2602  -16.7162   25.2274 N   0  0  0  0  0  0  0  0  0  0  0  0
   10.9340  -18.4843   26.7218 C   0  0  0  0  0  0  0  0  0  0  0  0
   10.1908  -19.2752   26.0499 O   0  0  0  0  0  0  0  0  0  0  0  0
   11.6908  -19.0405   27.7179 O   0  0  0  0  0  0  0  0  0  0  0  0
  1  2  1  0
  2  3  2  0
  2  4  1  0
  5  6  1  1
  5  4  1  0
  7  5  1  0
  8  7  2  0
 10  9  1  1
 10 12  1  0
 11 10  1  0
 13 12  1  1
 13 14  1  0
 14  7  1  0
 15 13  1  0
 15 16  2  0
 18 17  1  0
 19 20  1  0
 19 18  1  0
 21 20  1  1
 21 22  1  0
 22 15  1  0
 23 21  1  0
 24 23  2  0
 25 23  1  0
M  END
$$$$
