NLM.pdb
     RDKit          3D

 25 24  0  0  1  0  0  0  0  0999 V2000
    9.0399  -21.1317   19.3285 N   0  0  0  0  0  0  0  0  0  0  0  0
    9.3070  -20.1761   18.3311 C   0  0  0  0  0  0  0  0  0  0  0  0
    9.3117  -20.5111   17.1343 O   0  0  0  0  0  0  0  0  0  0  0  0
    9.5810  -18.7791   18.7056 C   0  0  0  0  0  0  0  0  0  0  0  0
    9.5288  -18.5430   20.1947 C   0  0  2  0  0  0  0  0  0  0  0  0
    8.2161  -18.8183   20.7413 N   0  0  0  0  0  0  0  0  0  0  0  0
    9.8723  -17.1384   20.5425 C   0  0  0  0  0  0  0  0  0  0  0  0
   10.9799  -16.6174   20.1693 O   0  0  0  0  0  0  0  0  0  0  0  0
    8.5909  -12.8088   19.2505 C   0  0  0  0  0  0  0  0  0  0  0  0
    7.7192  -13.8094   19.9134 C   0  0  2  0  0  0  0  0  0  0  0  0
    6.3112  -13.1723   20.0120 C   0  0  0  0  0  0  0  0  0  0  0  0
    8.1086  -14.1745   21.2673 C   0  0  0  0  0  0  0  0  0  0  0  0
    9.4009  -14.8632   21.5690 C   0  0  2  0  0  0  0  0  0  0  0  0
    9.0319  -16.2989   21.2864 N   0  0  0  0  0  0  0  0  0  0  0  0
    9.7534  -14.8756   22.9818 C   0  0  0  0  0  0  0  0  0  0  0  0
   10.2281  -13.7970   23.4985 O   0  0  0  0  0  0  0  0  0  0  0  0
    6.2479  -12.4518   26.4590 C   0  0  0  0  0  0  0  0  0  0  0  0
    7.4871  -13.1262   27.5683 S   0  0  0  0  0  0  0  0  0  0  0  0
    7.9932  -14.7915   27.1209 C   0  0  0  0  0  0  0  0  0  0  0  0
    8.2026  -15.0047   25.6577 C   0  0  0  0  0  0  0  0  0  0  0  0
    9.5269  -15.6959   25.3269 C   0  0  2  0  0  0  0  0  0  0  0  0
    9.6309  -15.9431   23.9111 N   0  0  0  0  0  0  0  0  0  0  0  0
    9.5289  -16.9399   26.1041 C   0  0  0  0  0  0  0  0  0  0  0  0
    9.4388  -18.0788   25.5348 O   0  0  0  0  0  0  0  0  0  0  0  0
    9.6283  -16.9351   27.4695 O   0  0  0  0  0  0  0  0  0  0  0  0
  1  2  1  0
  2  3  2  0
  2  4  1  0
  5  6  1  6
  5  4  1  0
  7  5  1  0
  8  7  2  0
 10  9  1  1
 10 12  1  0
 11 10  1  0
 13 12  1  1
 13 14  1  0
 14  7  1  0
 15 13  1  0
 15 16  2  0
 18 17  1  0
 19 20  1  0
 19 18  1  0
 21 20  1  6
 21 22  1  0
 22 15  1  0
 23 21  1  0
 24 23  2  0
 25 23  1  0
M  END
$$$$
