NLM.pdb
     RDKit          3D

 25 24  0  0  1  0  0  0  0  0999 V2000
    8.1044  -17.8441   18.0558 N   0  0  0  0  0  0  0  0  0  0  0  0
    8.1390  -16.4393   18.1231 C   0  0  0  0  0  0  0  0  0  0  0  0
    8.1610  -15.7670   17.0781 O   0  0  0  0  0  0  0  0  0  0  0  0
    8.1492  -15.7659   19.4320 C   0  0  0  0  0  0  0  0  0  0  0  0
    8.2719  -16.7237   20.5911 C   0  0  2  0  0  0  0  0  0  0  0  0
    6.9929  -17.2942   20.9604 N   0  0  0  0  0  0  0  0  0  0  0  0
    8.8305  -16.0592   21.7986 C   0  0  0  0  0  0  0  0  0  0  0  0
    9.9808  -15.4994   21.7720 O   0  0  0  0  0  0  0  0  0  0  0  0
    7.5492  -12.4396   24.7317 C   0  0  0  0  0  0  0  0  0  0  0  0
    6.7867  -13.7094   24.6492 C   0  0  2  0  0  0  0  0  0  0  0  0
    5.6418  -13.6052   25.6868 C   0  0  0  0  0  0  0  0  0  0  0  0
    7.5402  -14.9104   24.9773 C   0  0  0  0  0  0  0  0  0  0  0  0
    8.7684  -15.3135   24.2261 C   0  0  2  0  0  0  0  0  0  0  0  0
    8.1581  -15.9965   23.0268 N   0  0  0  0  0  0  0  0  0  0  0  0
    9.5364  -16.3729   24.8651 C   0  0  0  0  0  0  0  0  0  0  0  0
    8.9061  -17.4171   25.2750 O   0  0  0  0  0  0  0  0  0  0  0  0
   10.6671  -12.7630   28.8834 C   0  0  0  0  0  0  0  0  0  0  0  0
   11.5083  -14.1042   29.7286 S   0  0  0  0  0  0  0  0  0  0  0  0
   11.6907  -15.5699   28.7049 C   0  0  0  0  0  0  0  0  0  0  0  0
   11.1707  -15.4233   27.3126 C   0  0  0  0  0  0  0  0  0  0  0  0
   11.4692  -16.6306   26.4213 C   0  0  2  0  0  0  0  0  0  0  0  0
   10.9368  -16.4285   25.0976 N   0  0  0  0  0  0  0  0  0  0  0  0
   10.8527  -17.7799   27.0926 C   0  0  0  0  0  0  0  0  0  0  0  0
   11.5566  -18.6325   27.7305 O   0  0  0  0  0  0  0  0  0  0  0  0
    9.4998  -17.9879   27.0661 O   0  0  0  0  0  0  0  0  0  0  0  0
  1  2  1  0
  2  3  2  0
  2  4  1  0
  5  6  1  1
  5  4  1  0
  7  5  1  0
  8  7  2  0
 10  9  1  1
 10 12  1  0
 11 10  1  0
 13 12  1  1
 13 14  1  0
 14  7  1  0
 15 13  1  0
 15 16  2  0
 18 17  1  0
 19 20  1  0
 19 18  1  0
 21 20  1  1
 21 22  1  0
 22 15  1  0
 23 21  1  0
 24 23  2  0
 25 23  1  0
M  END
$$$$
