NLM.pdb
     RDKit          3D

 25 24  0  0  1  0  0  0  0  0999 V2000
    8.5204  -18.1051   17.6800 N   0  0  0  0  0  0  0  0  0  0  0  0
    9.0466  -18.5270   18.9146 C   0  0  0  0  0  0  0  0  0  0  0  0
    8.8766  -19.6977   19.2957 O   0  0  0  0  0  0  0  0  0  0  0  0
    9.7988  -17.5812   19.7552 C   0  0  0  0  0  0  0  0  0  0  0  0
    9.4592  -17.6907   21.2210 C   0  0  2  0  0  0  0  0  0  0  0  0
    8.1231  -18.2091   21.4304 N   0  0  0  0  0  0  0  0  0  0  0  0
    9.5398  -16.3727   21.9054 C   0  0  0  0  0  0  0  0  0  0  0  0
   10.5033  -15.5642   21.6705 O   0  0  0  0  0  0  0  0  0  0  0  0
    8.0189  -12.3026   25.1588 C   0  0  0  0  0  0  0  0  0  0  0  0
    6.9144  -13.2091   24.7604 C   0  0  2  0  0  0  0  0  0  0  0  0
    6.2595  -13.7102   26.0713 C   0  0  0  0  0  0  0  0  0  0  0  0
    7.3181  -14.3926   24.0159 C   0  0  0  0  0  0  0  0  0  0  0  0
    8.7064  -14.5711   23.4904 C   0  0  2  0  0  0  0  0  0  0  0  0
    8.5918  -15.9262   22.8362 N   0  0  0  0  0  0  0  0  0  0  0  0
    9.7121  -14.7773   24.5231 C   0  0  0  0  0  0  0  0  0  0  0  0
   10.1242  -13.7520   25.1825 O   0  0  0  0  0  0  0  0  0  0  0  0
   10.4813  -14.3936   31.1054 C   0  0  0  0  0  0  0  0  0  0  0  0
   10.4524  -14.4770   29.3129 S   0  0  0  0  0  0  0  0  0  0  0  0
   10.0030  -16.1041   28.6963 C   0  0  0  0  0  0  0  0  0  0  0  0
    9.5881  -16.1315   27.2618 C   0  0  0  0  0  0  0  0  0  0  0  0
   10.7671  -16.1896   26.2884 C   0  0  2  0  0  0  0  0  0  0  0  0
   10.3168  -15.9956   24.9334 N   0  0  0  0  0  0  0  0  0  0  0  0
   11.3754  -17.5103   26.4821 C   0  0  0  0  0  0  0  0  0  0  0  0
   11.9426  -17.8254   27.5813 O   0  0  0  0  0  0  0  0  0  0  0  0
   11.3607  -18.4607   25.4968 O   0  0  0  0  0  0  0  0  0  0  0  0
  1  2  1  0
  2  3  2  0
  2  4  1  0
  5  6  1  6
  5  4  1  0
  7  5  1  0
  8  7  2  0
 10  9  1  1
 10 12  1  0
 11 10  1  0
 13 12  1  1
 13 14  1  0
 14  7  1  0
 15 13  1  0
 15 16  2  0
 18 17  1  0
 19 20  1  0
 19 18  1  0
 21 20  1  1
 21 22  1  0
 22 15  1  0
 23 21  1  0
 24 23  2  0
 25 23  1  0
M  END
$$$$
