NLM.pdb
     RDKit          3D

 25 24  0  0  1  0  0  0  0  0999 V2000
   10.0666  -18.2863   19.0080 N   0  0  0  0  0  0  0  0  0  0  0  0
   10.3509  -16.9092   18.9664 C   0  0  0  0  0  0  0  0  0  0  0  0
   10.8556  -16.4089   17.9468 O   0  0  0  0  0  0  0  0  0  0  0  0
   10.0503  -16.0608   20.1312 C   0  0  0  0  0  0  0  0  0  0  0  0
    9.5337  -16.8400   21.3151 C   0  0  2  0  0  0  0  0  0  0  0  0
    8.1254  -17.1527   21.1852 N   0  0  0  0  0  0  0  0  0  0  0  0
    9.7097  -16.0905   22.5876 C   0  0  0  0  0  0  0  0  0  0  0  0
   10.7444  -15.3654   22.7895 O   0  0  0  0  0  0  0  0  0  0  0  0
    7.6236  -12.6440   24.9593 C   0  0  0  0  0  0  0  0  0  0  0  0
    6.9796  -13.9714   24.8051 C   0  0  2  0  0  0  0  0  0  0  0  0
    5.6118  -13.8851   25.5262 C   0  0  0  0  0  0  0  0  0  0  0  0
    7.6986  -15.0856   25.4046 C   0  0  0  0  0  0  0  0  0  0  0  0
    9.0747  -15.4757   24.9691 C   0  0  2  0  0  0  0  0  0  0  0  0
    8.7805  -16.1199   23.6365 N   0  0  0  0  0  0  0  0  0  0  0  0
    9.6609  -16.5582   25.7468 C   0  0  0  0  0  0  0  0  0  0  0  0
    9.6546  -17.7415   25.2412 O   0  0  0  0  0  0  0  0  0  0  0  0
   10.6409  -13.0790   28.7156 C   0  0  0  0  0  0  0  0  0  0  0  0
   10.8088  -14.7137   29.4371 S   0  0  0  0  0  0  0  0  0  0  0  0
   12.1590  -15.6585   28.7203 C   0  0  0  0  0  0  0  0  0  0  0  0
   11.9388  -17.1355   28.6962 C   0  0  0  0  0  0  0  0  0  0  0  0
   11.0362  -17.5974   27.5503 C   0  0  2  0  0  0  0  0  0  0  0  0
   10.2751  -16.4918   27.0262 N   0  0  0  0  0  0  0  0  0  0  0  0
   10.1736  -18.6377   28.1209 C   0  0  0  0  0  0  0  0  0  0  0  0
    8.9152  -18.4630   28.2440 O   0  0  0  0  0  0  0  0  0  0  0  0
   10.6776  -19.8382   28.5438 O   0  0  0  0  0  0  0  0  0  0  0  0
  1  2  1  0
  2  3  2  0
  2  4  1  0
  5  6  1  6
  5  4  1  0
  7  5  1  0
  8  7  2  0
 10  9  1  1
 10 12  1  0
 11 10  1  0
 13 12  1  1
 13 14  1  0
 14  7  1  0
 15 13  1  0
 15 16  2  0
 18 17  1  0
 19 20  1  0
 19 18  1  0
 21 20  1  1
 21 22  1  0
 22 15  1  0
 23 21  1  0
 24 23  2  0
 25 23  1  0
M  END
$$$$
