NLM.pdb
     RDKit          3D

 25 24  0  0  1  0  0  0  0  0999 V2000
   10.6346  -20.8188   17.3918 N   0  0  0  0  0  0  0  0  0  0  0  0
    9.6431  -19.8655   17.6875 C   0  0  0  0  0  0  0  0  0  0  0  0
    8.4475  -20.1228   17.4665 O   0  0  0  0  0  0  0  0  0  0  0  0
   10.0223  -18.5630   18.2589 C   0  0  0  0  0  0  0  0  0  0  0  0
    9.7340  -18.4567   19.7359 C   0  0  2  0  0  0  0  0  0  0  0  0
    8.3367  -18.6948   20.0337 N   0  0  0  0  0  0  0  0  0  0  0  0
   10.0823  -17.1132   20.2702 C   0  0  0  0  0  0  0  0  0  0  0  0
   11.2925  -16.6975   20.2748 O   0  0  0  0  0  0  0  0  0  0  0  0
    8.7067  -12.5983   19.1504 C   0  0  0  0  0  0  0  0  0  0  0  0
    7.8315  -13.6249   19.7674 C   0  0  2  0  0  0  0  0  0  0  0  0
    6.4443  -12.9643   19.9606 C   0  0  0  0  0  0  0  0  0  0  0  0
    8.2550  -14.0985   21.0767 C   0  0  0  0  0  0  0  0  0  0  0  0
    9.5322  -14.8484   21.2806 C   0  0  2  0  0  0  0  0  0  0  0  0
    9.1371  -16.2221   20.7965 N   0  0  0  0  0  0  0  0  0  0  0  0
    9.8772  -15.0679   22.6782 C   0  0  0  0  0  0  0  0  0  0  0  0
   10.6847  -14.2393   23.2415 O   0  0  0  0  0  0  0  0  0  0  0  0
    6.8952  -11.9073   27.0856 C   0  0  0  0  0  0  0  0  0  0  0  0
    6.1152  -13.4057   26.4798 S   0  0  0  0  0  0  0  0  0  0  0  0
    7.2565  -14.7887   26.3607 C   0  0  0  0  0  0  0  0  0  0  0  0
    7.6982  -15.1110   24.9709 C   0  0  0  0  0  0  0  0  0  0  0  0
    9.0552  -15.8154   24.9119 C   0  0  2  0  0  0  0  0  0  0  0  0
    9.4227  -16.0959   23.5470 N   0  0  0  0  0  0  0  0  0  0  0  0
    8.8995  -17.0411   25.7025 C   0  0  0  0  0  0  0  0  0  0  0  0
    8.9575  -18.1943   25.1583 O   0  0  0  0  0  0  0  0  0  0  0  0
    8.6871  -17.0031   27.0544 O   0  0  0  0  0  0  0  0  0  0  0  0
  1  2  1  0
  2  3  2  0
  2  4  1  0
  5  6  1  6
  5  4  1  0
  7  5  1  0
  8  7  2  0
 10  9  1  1
 10 12  1  0
 11 10  1  0
 13 12  1  1
 13 14  1  0
 14  7  1  0
 15 13  1  0
 15 16  2  0
 18 17  1  0
 19 20  1  0
 19 18  1  0
 21 20  1  6
 21 22  1  0
 22 15  1  0
 23 21  1  0
 24 23  2  0
 25 23  1  0
M  END
$$$$
