NLM.pdb
     RDKit          3D

 25 24  0  0  1  0  0  0  0  0999 V2000
    9.5345  -19.0963   18.7067 N   0  0  0  0  0  0  0  0  0  0  0  0
    9.0622  -17.8236   18.3375 C   0  0  0  0  0  0  0  0  0  0  0  0
    9.0301  -17.4956   17.1392 O   0  0  0  0  0  0  0  0  0  0  0  0
    8.6058  -16.8802   19.3713 C   0  0  0  0  0  0  0  0  0  0  0  0
    8.8044  -17.3966   20.7748 C   0  0  2  0  0  0  0  0  0  0  0  0
    7.6229  -18.0665   21.2779 N   0  0  0  0  0  0  0  0  0  0  0  0
    9.1350  -16.3003   21.7239 C   0  0  0  0  0  0  0  0  0  0  0  0
   10.2846  -15.7386   21.7097 O   0  0  0  0  0  0  0  0  0  0  0  0
    5.8416  -13.5796   26.0963 C   0  0  0  0  0  0  0  0  0  0  0  0
    7.1497  -13.5208   25.3991 C   0  0  2  0  0  0  0  0  0  0  0  0
    7.3130  -12.0679   24.8883 C   0  0  0  0  0  0  0  0  0  0  0  0
    7.2758  -14.3888   24.2378 C   0  0  0  0  0  0  0  0  0  0  0  0
    8.5876  -14.6386   23.5655 C   0  0  2  0  0  0  0  0  0  0  0  0
    8.2368  -15.8106   22.6820 N   0  0  0  0  0  0  0  0  0  0  0  0
    9.6158  -15.1741   24.4466 C   0  0  0  0  0  0  0  0  0  0  0  0
   10.6731  -14.4681   24.6454 O   0  0  0  0  0  0  0  0  0  0  0  0
    9.8241  -13.5643   30.3992 C   0  0  0  0  0  0  0  0  0  0  0  0
   11.2300  -14.2822   29.5455 S   0  0  0  0  0  0  0  0  0  0  0  0
   10.8235  -15.8109   28.6927 C   0  0  0  0  0  0  0  0  0  0  0  0
   10.0371  -15.6305   27.4359 C   0  0  0  0  0  0  0  0  0  0  0  0
   10.4402  -16.5984   26.3217 C   0  0  2  0  0  0  0  0  0  0  0  0
    9.6141  -16.4045   25.1570 N   0  0  0  0  0  0  0  0  0  0  0  0
   10.2842  -17.9420   26.8891 C   0  0  0  0  0  0  0  0  0  0  0  0
    9.3771  -18.7376   26.4726 O   0  0  0  0  0  0  0  0  0  0  0  0
   11.1023  -18.4015   27.8861 O   0  0  0  0  0  0  0  0  0  0  0  0
  1  2  1  0
  2  3  2  0
  2  4  1  0
  5  6  1  1
  5  4  1  0
  7  5  1  0
  8  7  2  0
 10  9  1  6
 10 12  1  0
 11 10  1  0
 13 12  1  1
 13 14  1  0
 14  7  1  0
 15 13  1  0
 15 16  2  0
 18 17  1  0
 19 20  1  0
 19 18  1  0
 21 20  1  1
 21 22  1  0
 22 15  1  0
 23 21  1  0
 24 23  2  0
 25 23  1  0
M  END
$$$$
