NLM.pdb
     RDKit          3D

 25 24  0  0  1  0  0  0  0  0999 V2000
    8.5751  -19.6320   19.1907 N   0  0  0  0  0  0  0  0  0  0  0  0
    8.7645  -18.3463   18.6520 C   0  0  0  0  0  0  0  0  0  0  0  0
    8.7714  -18.1832   17.4199 O   0  0  0  0  0  0  0  0  0  0  0  0
    8.9544  -17.1941   19.5481 C   0  0  0  0  0  0  0  0  0  0  0  0
    9.0967  -17.5872   20.9977 C   0  0  2  0  0  0  0  0  0  0  0  0
    7.8786  -18.1680   21.5237 N   0  0  0  0  0  0  0  0  0  0  0  0
    9.4420  -16.4210   21.8537 C   0  0  0  0  0  0  0  0  0  0  0  0
   10.4788  -15.7102   21.6149 O   0  0  0  0  0  0  0  0  0  0  0  0
    6.3234  -13.5045   26.2148 C   0  0  0  0  0  0  0  0  0  0  0  0
    7.6549  -13.5748   25.5648 C   0  0  2  0  0  0  0  0  0  0  0  0
    7.9378  -12.1673   24.9841 C   0  0  0  0  0  0  0  0  0  0  0  0
    7.7580  -14.5126   24.4567 C   0  0  0  0  0  0  0  0  0  0  0  0
    9.0591  -14.8175   23.7863 C   0  0  2  0  0  0  0  0  0  0  0  0
    8.6788  -16.0211   22.9591 N   0  0  0  0  0  0  0  0  0  0  0  0
   10.0846  -15.3326   24.6827 C   0  0  0  0  0  0  0  0  0  0  0  0
   11.1662  -14.6501   24.8238 O   0  0  0  0  0  0  0  0  0  0  0  0
    9.9849  -13.1877   28.7547 C   0  0  0  0  0  0  0  0  0  0  0  0
   10.4588  -14.8424   29.2628 S   0  0  0  0  0  0  0  0  0  0  0  0
    9.6860  -16.1262   28.2707 C   0  0  0  0  0  0  0  0  0  0  0  0
   10.6288  -17.1617   27.7518 C   0  0  0  0  0  0  0  0  0  0  0  0
   11.1458  -16.8626   26.3431 C   0  0  2  0  0  0  0  0  0  0  0  0
   10.0564  -16.5182   25.4649 N   0  0  0  0  0  0  0  0  0  0  0  0
   11.8383  -18.0806   25.9089 C   0  0  0  0  0  0  0  0  0  0  0  0
   12.9171  -18.4674   26.4711 O   0  0  0  0  0  0  0  0  0  0  0  0
   11.3596  -18.8547   24.8862 O   0  0  0  0  0  0  0  0  0  0  0  0
  1  2  1  0
  2  3  2  0
  2  4  1  0
  5  6  1  1
  5  4  1  0
  7  5  1  0
  8  7  2  0
 10  9  1  6
 10 12  1  0
 11 10  1  0
 13 12  1  1
 13 14  1  0
 14  7  1  0
 15 13  1  0
 15 16  2  0
 18 17  1  0
 19 20  1  0
 19 18  1  0
 21 20  1  1
 21 22  1  0
 22 15  1  0
 23 21  1  0
 24 23  2  0
 25 23  1  0
M  END
$$$$
