NLM.pdb
     RDKit          3D

 25 24  0  0  1  0  0  0  0  0999 V2000
   13.8367  -19.3907   17.7270 N   0  0  0  0  0  0  0  0  0  0  0  0
   12.4644  -19.1456   17.9161 C   0  0  0  0  0  0  0  0  0  0  0  0
   11.6272  -19.9967   17.5707 O   0  0  0  0  0  0  0  0  0  0  0  0
   12.0202  -17.8804   18.5233 C   0  0  0  0  0  0  0  0  0  0  0  0
   11.4867  -18.0499   19.9243 C   0  0  2  0  0  0  0  0  0  0  0  0
   10.3436  -18.9384   19.9650 N   0  0  0  0  0  0  0  0  0  0  0  0
   11.0651  -16.7516   20.5145 C   0  0  0  0  0  0  0  0  0  0  0  0
   11.8682  -15.7567   20.5643 O   0  0  0  0  0  0  0  0  0  0  0  0
    6.2154  -13.5220   20.1219 C   0  0  0  0  0  0  0  0  0  0  0  0
    7.4174  -13.6482   20.9819 C   0  0  2  0  0  0  0  0  0  0  0  0
    8.3388  -12.4539   20.6312 C   0  0  0  0  0  0  0  0  0  0  0  0
    8.2036  -14.8561   20.7795 C   0  0  0  0  0  0  0  0  0  0  0  0
    9.4002  -15.1801   21.6152 C   0  0  2  0  0  0  0  0  0  0  0  0
    9.7892  -16.5233   21.0479 N   0  0  0  0  0  0  0  0  0  0  0  0
    9.0920  -15.4764   23.0071 C   0  0  0  0  0  0  0  0  0  0  0  0
    8.3144  -16.4704   23.2585 O   0  0  0  0  0  0  0  0  0  0  0  0
    6.2654  -10.8323   26.8649 C   0  0  0  0  0  0  0  0  0  0  0  0
    6.5564  -12.5998   26.9752 S   0  0  0  0  0  0  0  0  0  0  0  0
    7.2491  -13.2894   25.4671 C   0  0  0  0  0  0  0  0  0  0  0  0
    7.5177  -14.7574   25.5221 C   0  0  0  0  0  0  0  0  0  0  0  0
    9.0068  -15.1057   25.4728 C   0  0  2  0  0  0  0  0  0  0  0  0
    9.5547  -14.8097   24.1732 N   0  0  0  0  0  0  0  0  0  0  0  0
    9.0896  -16.5351   25.7920 C   0  0  0  0  0  0  0  0  0  0  0  0
    8.8739  -16.9650   26.9744 O   0  0  0  0  0  0  0  0  0  0  0  0
    9.3992  -17.4683   24.8394 O   0  0  0  0  0  0  0  0  0  0  0  0
  1  2  1  0
  2  3  2  0
  2  4  1  0
  5  6  1  6
  5  4  1  0
  7  5  1  0
  8  7  2  0
 10  9  1  6
 10 12  1  0
 11 10  1  0
 13 12  1  6
 13 14  1  0
 14  7  1  0
 15 13  1  0
 15 16  2  0
 18 17  1  0
 19 20  1  0
 19 18  1  0
 21 20  1  6
 21 22  1  0
 22 15  1  0
 23 21  1  0
 24 23  2  0
 25 23  1  0
M  END
$$$$
