NLM.pdb
     RDKit          3D

 25 24  0  0  1  0  0  0  0  0999 V2000
    9.1678  -20.4602   18.2122 N   0  0  0  0  0  0  0  0  0  0  0  0
    8.9558  -19.2640   17.5027 C   0  0  0  0  0  0  0  0  0  0  0  0
    8.7861  -19.2928   16.2718 O   0  0  0  0  0  0  0  0  0  0  0  0
    8.9350  -17.9781   18.2188 C   0  0  0  0  0  0  0  0  0  0  0  0
    9.0665  -18.1296   19.7140 C   0  0  2  0  0  0  0  0  0  0  0  0
    7.8010  -18.4545   20.3391 N   0  0  0  0  0  0  0  0  0  0  0  0
    9.5738  -16.8854   20.3516 C   0  0  0  0  0  0  0  0  0  0  0  0
   10.8012  -16.5405   20.2430 O   0  0  0  0  0  0  0  0  0  0  0  0
    8.9518  -12.8028   18.9921 C   0  0  0  0  0  0  0  0  0  0  0  0
    7.9470  -13.5737   19.7644 C   0  0  2  0  0  0  0  0  0  0  0  0
    6.6265  -12.7673   19.6998 C   0  0  0  0  0  0  0  0  0  0  0  0
    8.2546  -13.7597   21.1746 C   0  0  0  0  0  0  0  0  0  0  0  0
    9.3040  -14.7155   21.6444 C   0  0  2  0  0  0  0  0  0  0  0  0
    8.7680  -16.0174   21.1011 N   0  0  0  0  0  0  0  0  0  0  0  0
    9.3140  -14.9279   23.0850 C   0  0  0  0  0  0  0  0  0  0  0  0
    9.8110  -14.0050   23.8313 O   0  0  0  0  0  0  0  0  0  0  0  0
    6.5233  -11.2707   26.7033 C   0  0  0  0  0  0  0  0  0  0  0  0
    6.3089  -13.0501   26.6091 S   0  0  0  0  0  0  0  0  0  0  0  0
    7.7574  -13.8952   25.9633 C   0  0  0  0  0  0  0  0  0  0  0  0
    7.6021  -15.3739   25.8228 C   0  0  0  0  0  0  0  0  0  0  0  0
    8.8437  -16.0648   25.2552 C   0  0  2  0  0  0  0  0  0  0  0  0
    8.8227  -16.0435   23.8145 N   0  0  0  0  0  0  0  0  0  0  0  0
    8.8128  -17.4321   25.7856 C   0  0  0  0  0  0  0  0  0  0  0  0
    8.8065  -17.6571   27.0420 O   0  0  0  0  0  0  0  0  0  0  0  0
    8.7881  -18.5238   24.9598 O   0  0  0  0  0  0  0  0  0  0  0  0
  1  2  1  0
  2  3  2  0
  2  4  1  0
  5  6  1  1
  5  4  1  0
  7  5  1  0
  8  7  2  0
 10  9  1  6
 10 12  1  0
 11 10  1  0
 13 12  1  1
 13 14  1  0
 14  7  1  0
 15 13  1  0
 15 16  2  0
 18 17  1  0
 19 20  1  0
 19 18  1  0
 21 20  1  1
 21 22  1  0
 22 15  1  0
 23 21  1  0
 24 23  2  0
 25 23  1  0
M  END
$$$$
