INT.pdb
     RDKit          3D

 24 23  0  0  1  0  0  0  0  0999 V2000
    8.2518  -12.0363   20.9010 C   0  0  0  0  0  0  0  0  0  0  0  0
    7.6735  -13.0871   19.9980 C   0  0  0  0  0  0  0  0  0  0  0  0
    8.6927  -14.1691   19.7846 C   0  0  2  0  0  0  0  0  0  0  0  0
    9.9832  -13.6295   19.1999 C   0  0  0  0  0  0  0  0  0  0  0  0
    8.2001  -15.2354   18.8318 C   0  0  2  0  0  0  0  0  0  0  0  0
    6.8770  -15.6655   19.2436 N   0  0  0  0  0  0  0  0  0  0  0  0
    9.1253  -16.3696   18.7067 C   0  0  0  0  0  0  0  0  0  0  0  0
    8.9080  -17.4030   19.3824 O   0  0  0  0  0  0  0  0  0  0  0  0
   11.1473  -16.1295   14.5238 N   0  0  0  0  0  0  0  0  0  0  0  0
   11.0183  -17.3261   15.2618 C   0  0  0  0  0  0  0  0  0  0  0  0
   10.1659  -18.1597   14.8978 O   0  0  0  0  0  0  0  0  0  0  0  0
   11.8639  -17.5686   16.4156 C   0  0  0  0  0  0  0  0  0  0  0  0
   11.1745  -17.4836   17.7375 C   0  0  2  0  0  0  0  0  0  0  0  0
   10.2720  -16.3765   17.8559 N   0  0  0  0  0  0  0  0  0  0  0  0
   12.2518  -17.4199   18.7911 C   0  0  0  0  0  0  0  0  0  0  0  0
   13.1785  -18.2697   18.8032 O   0  0  0  0  0  0  0  0  0  0  0  0
   14.8021  -14.9789   19.4874 C   0  0  0  0  0  0  0  0  0  0  0  0
   14.0111  -15.0051   20.7750 C   0  0  1  0  0  0  0  0  0  0  0  0
   13.1354  -13.9202   20.7768 O   0  0  0  0  0  0  0  0  0  0  0  0
   13.2644  -16.3225   20.8298 C   0  0  2  0  0  0  0  0  0  0  0  0
   12.2604  -16.4136   19.7936 N   0  0  0  0  0  0  0  0  0  0  0  0
   12.6266  -16.3838   22.1925 C   0  0  0  0  0  0  0  0  0  0  0  0
   11.3579  -16.3663   22.2639 O   0  0  0  0  0  0  0  0  0  0  0  0
   13.3415  -16.4578   23.3585 O   0  0  0  0  0  0  0  0  0  0  0  0
  1  2  1  0
  3  2  1  0
  3  5  1  0
  3  4  1  6
  5  7  1  0
  5  6  1  1
  7  8  2  0
  9 10  1  0
 10 12  1  0
 11 10  2  0
 13 12  1  6
 14 13  1  0
 14  7  1  0
 15 21  1  0
 15 13  1  0
 16 15  2  0
 18 17  1  6
 19 18  1  0
 20 18  1  0
 20 21  1  6
 22 24  1  0
 22 20  1  0
 23 22  2  0
M  END
$$$$
