INT.pdb
     RDKit          3D

 24 23  0  0  1  0  0  0  0  0999 V2000
    6.9880  -11.3456   27.4076 C   0  0  0  0  0  0  0  0  0  0  0  0
    7.0320  -12.8423   27.5170 C   0  0  0  0  0  0  0  0  0  0  0  0
    7.4315  -13.4220   26.1905 C   0  0  2  0  0  0  0  0  0  0  0  0
    6.4336  -13.0888   25.0989 C   0  0  0  0  0  0  0  0  0  0  0  0
    7.5336  -14.9302   26.2359 C   0  0  2  0  0  0  0  0  0  0  0  0
    8.3919  -15.3150   27.3407 N   0  0  0  0  0  0  0  0  0  0  0  0
    7.9860  -15.5165   24.9672 C   0  0  0  0  0  0  0  0  0  0  0  0
    9.2061  -15.4717   24.6829 O   0  0  0  0  0  0  0  0  0  0  0  0
    4.7264  -18.3835   21.8150 N   0  0  0  0  0  0  0  0  0  0  0  0
    5.6678  -18.3402   22.8662 C   0  0  0  0  0  0  0  0  0  0  0  0
    5.2600  -18.4853   24.0353 O   0  0  0  0  0  0  0  0  0  0  0  0
    7.0747  -18.1309   22.5801 C   0  0  0  0  0  0  0  0  0  0  0  0
    7.5664  -16.7375   22.7963 C   0  0  2  0  0  0  0  0  0  0  0  0
    7.1190  -16.1433   24.0215 N   0  0  0  0  0  0  0  0  0  0  0  0
    7.1217  -15.9253   21.6058 C   0  0  0  0  0  0  0  0  0  0  0  0
    5.9260  -15.5496   21.5050 O   0  0  0  0  0  0  0  0  0  0  0  0
    7.8321  -12.6081   20.1948 C   0  0  0  0  0  0  0  0  0  0  0  0
    8.3506  -13.5805   19.1606 C   0  0  1  0  0  0  0  0  0  0  0  0
    9.7243  -13.7306   19.3459 O   0  0  0  0  0  0  0  0  0  0  0  0
    7.6170  -14.8923   19.3534 C   0  0  2  0  0  0  0  0  0  0  0  0
    8.0223  -15.5599   20.5699 N   0  0  0  0  0  0  0  0  0  0  0  0
    7.9478  -15.7357   18.1506 C   0  0  0  0  0  0  0  0  0  0  0  0
    8.7067  -16.7422   18.3123 O   0  0  0  0  0  0  0  0  0  0  0  0
    7.4738  -15.4756   16.8921 O   0  0  0  0  0  0  0  0  0  0  0  0
  1  2  1  0
  3  2  1  0
  3  5  1  0
  3  4  1  6
  5  7  1  0
  5  6  1  1
  7  8  2  0
  9 10  1  0
 10 12  1  0
 11 10  2  0
 13 12  1  6
 14 13  1  0
 14  7  1  0
 15 21  1  0
 15 13  1  0
 16 15  2  0
 18 17  1  1
 19 18  1  0
 20 18  1  0
 20 21  1  1
 22 24  1  0
 22 20  1  0
 23 22  2  0
M  END
$$$$
