INT.pdb
     RDKit          3D

 24 23  0  0  1  0  0  0  0  0999 V2000
    5.9558  -11.3389   26.8506 C   0  0  0  0  0  0  0  0  0  0  0  0
    5.6361  -12.5643   26.0442 C   0  0  0  0  0  0  0  0  0  0  0  0
    6.8737  -13.4046   25.9127 C   0  0  2  0  0  0  0  0  0  0  0  0
    7.9920  -12.6656   25.2044 C   0  0  0  0  0  0  0  0  0  0  0  0
    6.6222  -14.6682   25.1206 C   0  0  2  0  0  0  0  0  0  0  0  0
    5.4441  -15.3319   25.6467 N   0  0  0  0  0  0  0  0  0  0  0  0
    7.7827  -15.5684   25.0862 C   0  0  0  0  0  0  0  0  0  0  0  0
    7.8976  -16.4391   25.9808 O   0  0  0  0  0  0  0  0  0  0  0  0
   13.0300  -16.9315   22.0844 N   0  0  0  0  0  0  0  0  0  0  0  0
   11.8017  -17.2926   22.6794 C   0  0  0  0  0  0  0  0  0  0  0  0
   11.6643  -18.4589   23.0975 O   0  0  0  0  0  0  0  0  0  0  0  0
   10.7315  -16.3200   22.7959 C   0  0  0  0  0  0  0  0  0  0  0  0
    9.9310  -16.4039   24.0538 C   0  0  2  0  0  0  0  0  0  0  0  0
    8.8039  -15.5193   24.0894 N   0  0  0  0  0  0  0  0  0  0  0  0
   10.8763  -16.1239   25.1952 C   0  0  0  0  0  0  0  0  0  0  0  0
   11.8514  -15.3463   25.0352 O   0  0  0  0  0  0  0  0  0  0  0  0
   10.7287  -14.1122   27.9122 C   0  0  0  0  0  0  0  0  0  0  0  0
   10.8175  -15.4659   28.5783 C   0  0  1  0  0  0  0  0  0  0  0  0
    9.5245  -15.9034   28.8622 O   0  0  0  0  0  0  0  0  0  0  0  0
   11.5245  -16.4043   27.6215 C   0  0  2  0  0  0  0  0  0  0  0  0
   10.7038  -16.7185   26.4736 N   0  0  0  0  0  0  0  0  0  0  0  0
   11.8319  -17.6499   28.4100 C   0  0  0  0  0  0  0  0  0  0  0  0
   11.2564  -18.7318   28.0735 O   0  0  0  0  0  0  0  0  0  0  0  0
   12.6988  -17.6781   29.4700 O   0  0  0  0  0  0  0  0  0  0  0  0
  1  2  1  0
  3  2  1  0
  3  5  1  0
  3  4  1  6
  5  7  1  0
  5  6  1  1
  7  8  2  0
  9 10  1  0
 10 12  1  0
 11 10  2  0
 13 12  1  6
 14 13  1  0
 14  7  1  0
 15 21  1  0
 15 13  1  0
 16 15  2  0
 18 17  1  6
 19 18  1  0
 20 18  1  0
 20 21  1  6
 22 24  1  0
 22 20  1  0
 23 22  2  0
M  END
$$$$
