INT.pdb
     RDKit          3D

 24 23  0  0  1  0  0  0  0  0999 V2000
    7.0042  -11.4655   26.8110 C   0  0  0  0  0  0  0  0  0  0  0  0
    6.3558  -12.8167   26.7211 C   0  0  0  0  0  0  0  0  0  0  0  0
    7.2622  -13.7494   25.9702 C   0  0  2  0  0  0  0  0  0  0  0  0
    7.6418  -13.2021   24.6083 C   0  0  0  0  0  0  0  0  0  0  0  0
    6.6193  -15.0970   25.7298 C   0  0  2  0  0  0  0  0  0  0  0  0
    5.8781  -15.4877   26.9144 N   0  0  0  0  0  0  0  0  0  0  0  0
    7.5810  -16.1313   25.3254 C   0  0  0  0  0  0  0  0  0  0  0  0
    8.7812  -16.0052   25.6649 O   0  0  0  0  0  0  0  0  0  0  0  0
    9.2886  -21.2697   24.6794 N   0  0  0  0  0  0  0  0  0  0  0  0
    8.4516  -20.7343   23.6765 C   0  0  0  0  0  0  0  0  0  0  0  0
    8.5255  -21.2078   22.5256 O   0  0  0  0  0  0  0  0  0  0  0  0
    7.5307  -19.6579   23.9900 C   0  0  0  0  0  0  0  0  0  0  0  0
    8.1653  -18.3257   24.2196 C   0  0  2  0  0  0  0  0  0  0  0  0
    7.2380  -17.2876   24.5611 N   0  0  0  0  0  0  0  0  0  0  0  0
    8.9277  -17.9805   22.9649 C   0  0  0  0  0  0  0  0  0  0  0  0
    9.8103  -18.7601   22.5240 O   0  0  0  0  0  0  0  0  0  0  0  0
    7.1086  -15.7710   20.1214 C   0  0  0  0  0  0  0  0  0  0  0  0
    8.5560  -15.3566   20.2533 C   0  0  1  0  0  0  0  0  0  0  0  0
    8.6094  -14.1629   20.9717 O   0  0  0  0  0  0  0  0  0  0  0  0
    9.2904  -16.4709   20.9710 C   0  0  2  0  0  0  0  0  0  0  0  0
    8.6815  -16.7810   22.2451 N   0  0  0  0  0  0  0  0  0  0  0  0
   10.7022  -15.9838   21.1630 C   0  0  0  0  0  0  0  0  0  0  0  0
   11.1392  -15.8594   22.3498 O   0  0  0  0  0  0  0  0  0  0  0  0
   11.5399  -15.6682   20.1263 O   0  0  0  0  0  0  0  0  0  0  0  0
  1  2  1  0
  3  2  1  0
  3  5  1  0
  3  4  1  6
  5  7  1  0
  5  6  1  1
  7  8  2  0
  9 10  1  0
 10 12  1  0
 11 10  2  0
 13 12  1  6
 14 13  1  0
 14  7  1  0
 15 21  1  0
 15 13  1  0
 16 15  2  0
 18 17  1  1
 19 18  1  0
 20 18  1  0
 20 21  1  1
 22 24  1  0
 22 20  1  0
 23 22  2  0
M  END
$$$$
