INT.pdb
     RDKit          3D

 24 23  0  0  1  0  0  0  0  0999 V2000
    7.3910  -12.0651   26.0231 C   0  0  0  0  0  0  0  0  0  0  0  0
    7.8815  -13.1143   25.0677 C   0  0  0  0  0  0  0  0  0  0  0  0
    6.8191  -14.1620   24.8981 C   0  0  2  0  0  0  0  0  0  0  0  0
    6.5274  -14.8931   26.1938 C   0  0  0  0  0  0  0  0  0  0  0  0
    7.2148  -15.2157   23.8879 C   0  0  2  0  0  0  0  0  0  0  0  0
    6.0707  -16.0653   23.6150 N   0  0  0  0  0  0  0  0  0  0  0  0
    8.3869  -15.9993   24.3004 C   0  0  0  0  0  0  0  0  0  0  0  0
    8.2224  -16.9645   25.0832 O   0  0  0  0  0  0  0  0  0  0  0  0
   11.4177  -18.0719   21.5618 N   0  0  0  0  0  0  0  0  0  0  0  0
   11.7033  -16.7410   21.9362 C   0  0  0  0  0  0  0  0  0  0  0  0
   11.6813  -15.8585   21.0561 O   0  0  0  0  0  0  0  0  0  0  0  0
   12.0137  -16.4201   23.3167 C   0  0  0  0  0  0  0  0  0  0  0  0
   10.8614  -16.5043   24.2629 C   0  0  2  0  0  0  0  0  0  0  0  0
    9.7205  -15.7337   23.8646 N   0  0  0  0  0  0  0  0  0  0  0  0
   11.3690  -16.0632   25.6130 C   0  0  0  0  0  0  0  0  0  0  0  0
   11.8537  -14.9128   25.7638 O   0  0  0  0  0  0  0  0  0  0  0  0
   10.8527  -14.2051   27.5926 C   0  0  0  0  0  0  0  0  0  0  0  0
   10.6598  -15.3721   28.5332 C   0  0  1  0  0  0  0  0  0  0  0  0
    9.3276  -15.7777   28.4656 O   0  0  0  0  0  0  0  0  0  0  0  0
   11.6002  -16.4766   28.0952 C   0  0  2  0  0  0  0  0  0  0  0  0
   11.3196  -16.9170   26.7471 N   0  0  0  0  0  0  0  0  0  0  0  0
   11.4027  -17.6046   29.0731 C   0  0  0  0  0  0  0  0  0  0  0  0
   10.8527  -18.6720   28.6567 O   0  0  0  0  0  0  0  0  0  0  0  0
   11.7845  -17.5409   30.3869 O   0  0  0  0  0  0  0  0  0  0  0  0
  1  2  1  0
  3  2  1  0
  3  5  1  0
  3  4  1  1
  5  7  1  0
  5  6  1  1
  7  8  2  0
  9 10  1  0
 10 12  1  0
 11 10  2  0
 13 12  1  6
 14 13  1  0
 14  7  1  0
 15 21  1  0
 15 13  1  0
 16 15  2  0
 18 17  1  6
 19 18  1  0
 20 18  1  0
 20 21  1  6
 22 24  1  0
 22 20  1  0
 23 22  2  0
M  END
$$$$
