INT.pdb
     RDKit          3D

 24 23  0  0  1  0  0  0  0  0999 V2000
    7.5656  -11.8708   18.6095 C   0  0  0  0  0  0  0  0  0  0  0  0
    8.1070  -13.1970   18.1598 C   0  0  0  0  0  0  0  0  0  0  0  0
    8.4130  -14.0389   19.3650 C   0  0  2  0  0  0  0  0  0  0  0  0
    9.4158  -13.3726   20.2863 C   0  0  0  0  0  0  0  0  0  0  0  0
    8.9991  -15.3811   18.9879 C   0  0  2  0  0  0  0  0  0  0  0  0
    8.1271  -16.0262   18.0241 N   0  0  0  0  0  0  0  0  0  0  0  0
    9.2585  -16.2442   20.1481 C   0  0  0  0  0  0  0  0  0  0  0  0
    8.3075  -16.8967   20.6394 O   0  0  0  0  0  0  0  0  0  0  0  0
   13.4402  -18.6148   19.7740 N   0  0  0  0  0  0  0  0  0  0  0  0
   12.3933  -18.8398   20.6940 C   0  0  0  0  0  0  0  0  0  0  0  0
   11.6732  -19.8457   20.5404 O   0  0  0  0  0  0  0  0  0  0  0  0
   12.1705  -17.9145   21.7891 C   0  0  0  0  0  0  0  0  0  0  0  0
   10.8087  -17.3035   21.8374 C   0  0  2  0  0  0  0  0  0  0  0  0
   10.5381  -16.3933   20.7639 N   0  0  0  0  0  0  0  0  0  0  0  0
   10.6826  -16.6176   23.1747 C   0  0  0  0  0  0  0  0  0  0  0  0
   11.6296  -15.9224   23.6231 O   0  0  0  0  0  0  0  0  0  0  0  0
    7.5138  -14.6626   24.6777 C   0  0  0  0  0  0  0  0  0  0  0  0
    7.9225  -15.7978   25.5878 C   0  0  1  0  0  0  0  0  0  0  0  0
    7.0779  -16.8809   25.3486 O   0  0  0  0  0  0  0  0  0  0  0  0
    9.3660  -16.1392   25.2780 C   0  0  2  0  0  0  0  0  0  0  0  0
    9.5080  -16.7290   23.9657 N   0  0  0  0  0  0  0  0  0  0  0  0
    9.8034  -17.1081   26.3445 C   0  0  0  0  0  0  0  0  0  0  0  0
   10.0639  -18.3035   26.0007 O   0  0  0  0  0  0  0  0  0  0  0  0
    9.9355  -16.7689   27.6649 O   0  0  0  0  0  0  0  0  0  0  0  0
  1  2  1  0
  3  2  1  0
  3  5  1  0
  3  4  1  1
  5  7  1  0
  5  6  1  6
  7  8  2  0
  9 10  1  0
 10 12  1  0
 11 10  2  0
 13 12  1  6
 14 13  1  0
 14  7  1  0
 15 21  1  0
 15 13  1  0
 16 15  2  0
 18 17  1  6
 19 18  1  0
 20 18  1  0
 20 21  1  6
 22 24  1  0
 22 20  1  0
 23 22  2  0
M  END
$$$$
