INT.pdb
     RDKit          3D

 24 23  0  0  1  0  0  0  0  0999 V2000
    6.3893  -14.0401   18.1815 C   0  0  0  0  0  0  0  0  0  0  0  0
    7.6741  -14.3568   18.8908 C   0  0  0  0  0  0  0  0  0  0  0  0
    8.1163  -13.1523   19.6711 C   0  0  2  0  0  0  0  0  0  0  0  0
    8.4801  -11.9901   18.7682 C   0  0  0  0  0  0  0  0  0  0  0  0
    9.3361  -13.4390   20.5179 C   0  0  2  0  0  0  0  0  0  0  0  0
   10.3515  -14.0646   19.6916 N   0  0  0  0  0  0  0  0  0  0  0  0
    9.0351  -14.2430   21.7100 C   0  0  0  0  0  0  0  0  0  0  0  0
    8.0462  -13.9309   22.4145 O   0  0  0  0  0  0  0  0  0  0  0  0
    9.5407  -17.8471   21.0926 N   0  0  0  0  0  0  0  0  0  0  0  0
   10.2607  -18.2536   22.2369 C   0  0  0  0  0  0  0  0  0  0  0  0
   10.8492  -19.3522   22.2093 O   0  0  0  0  0  0  0  0  0  0  0  0
   10.3074  -17.4037   23.4118 C   0  0  0  0  0  0  0  0  0  0  0  0
    9.5264  -16.1350   23.3095 C   0  0  2  0  0  0  0  0  0  0  0  0
    9.8026  -15.3723   22.1280 N   0  0  0  0  0  0  0  0  0  0  0  0
    9.8237  -15.3351   24.5531 C   0  0  0  0  0  0  0  0  0  0  0  0
   10.9020  -14.6962   24.6539 O   0  0  0  0  0  0  0  0  0  0  0  0
    7.8040  -12.5200   26.0253 C   0  0  0  0  0  0  0  0  0  0  0  0
    7.8843  -13.5867   27.0929 C   0  0  1  0  0  0  0  0  0  0  0  0
    6.7129  -14.3417   27.0510 O   0  0  0  0  0  0  0  0  0  0  0  0
    9.1046  -14.4371   26.8031 C   0  0  2  0  0  0  0  0  0  0  0  0
    8.9114  -15.2740   25.6402 N   0  0  0  0  0  0  0  0  0  0  0  0
    9.3268  -15.2796   28.0313 C   0  0  0  0  0  0  0  0  0  0  0  0
    9.2301  -16.5418   27.9201 O   0  0  0  0  0  0  0  0  0  0  0  0
    9.6279  -14.7573   29.2612 O   0  0  0  0  0  0  0  0  0  0  0  0
  1  2  1  0
  3  2  1  0
  3  5  1  0
  3  4  1  6
  5  7  1  0
  5  6  1  6
  7  8  2  0
  9 10  1  0
 10 12  1  0
 11 10  2  0
 13 12  1  6
 14 13  1  0
 14  7  1  0
 15 21  1  0
 15 13  1  0
 16 15  2  0
 18 17  1  6
 19 18  1  0
 20 18  1  0
 20 21  1  6
 22 24  1  0
 22 20  1  0
 23 22  2  0
M  END
$$$$
