INT.pdb
     RDKit          3D

 24 23  0  0  1  0  0  0  0  0999 V2000
    7.1529  -11.8447   19.5651 C   0  0  0  0  0  0  0  0  0  0  0  0
    7.6463  -13.1048   18.9149 C   0  0  0  0  0  0  0  0  0  0  0  0
    7.9992  -14.1034   19.9795 C   0  0  2  0  0  0  0  0  0  0  0  0
    9.0645  -13.5791   20.9223 C   0  0  0  0  0  0  0  0  0  0  0  0
    8.5354  -15.3917   19.3963 C   0  0  2  0  0  0  0  0  0  0  0  0
    7.5827  -15.9090   18.4319 N   0  0  0  0  0  0  0  0  0  0  0  0
    8.8711  -16.3921   20.4184 C   0  0  0  0  0  0  0  0  0  0  0  0
    7.9419  -17.0341   20.9625 O   0  0  0  0  0  0  0  0  0  0  0  0
   11.0204  -19.5919   20.0565 N   0  0  0  0  0  0  0  0  0  0  0  0
   12.1062  -19.1372   20.8358 C   0  0  0  0  0  0  0  0  0  0  0  0
   13.2367  -19.6140   20.6153 O   0  0  0  0  0  0  0  0  0  0  0  0
   11.8987  -18.1376   21.8667 C   0  0  0  0  0  0  0  0  0  0  0  0
   10.5205  -17.5657   21.9287 C   0  0  2  0  0  0  0  0  0  0  0  0
   10.2024  -16.6883   20.8411 N   0  0  0  0  0  0  0  0  0  0  0  0
   10.4000  -16.8536   23.2529 C   0  0  0  0  0  0  0  0  0  0  0  0
   11.1792  -15.9091   23.5386 O   0  0  0  0  0  0  0  0  0  0  0  0
    7.8298  -14.7638   24.7132 C   0  0  0  0  0  0  0  0  0  0  0  0
    7.9072  -15.9390   25.6603 C   0  0  1  0  0  0  0  0  0  0  0  0
    6.8876  -16.8335   25.3375 O   0  0  0  0  0  0  0  0  0  0  0  0
    9.2743  -16.5720   25.4977 C   0  0  2  0  0  0  0  0  0  0  0  0
    9.4173  -17.2172   24.2119 N   0  0  0  0  0  0  0  0  0  0  0  0
    9.4039  -17.5765   26.6120 C   0  0  0  0  0  0  0  0  0  0  0  0
    9.4531  -18.8093   26.3075 O   0  0  0  0  0  0  0  0  0  0  0  0
    9.4717  -17.2316   27.9358 O   0  0  0  0  0  0  0  0  0  0  0  0
  1  2  1  0
  3  2  1  0
  3  5  1  0
  3  4  1  1
  5  7  1  0
  5  6  1  6
  7  8  2  0
  9 10  1  0
 10 12  1  0
 11 10  2  0
 13 12  1  6
 14 13  1  0
 14  7  1  0
 15 21  1  0
 15 13  1  0
 16 15  2  0
 18 17  1  6
 19 18  1  0
 20 18  1  0
 20 21  1  6
 22 24  1  0
 22 20  1  0
 23 22  2  0
M  END
$$$$
