INT.pdb
     RDKit          3D

 24 23  0  0  1  0  0  0  0  0999 V2000
    5.8078  -11.9177   26.8730 C   0  0  0  0  0  0  0  0  0  0  0  0
    5.6114  -13.1318   26.0119 C   0  0  0  0  0  0  0  0  0  0  0  0
    6.9071  -13.8853   25.9192 C   0  0  2  0  0  0  0  0  0  0  0  0
    8.0305  -13.0233   25.3777 C   0  0  0  0  0  0  0  0  0  0  0  0
    6.8039  -15.0847   25.0038 C   0  0  2  0  0  0  0  0  0  0  0  0
    5.7062  -15.9252   25.4443 N   0  0  0  0  0  0  0  0  0  0  0  0
    8.0589  -15.8410   24.8997 C   0  0  0  0  0  0  0  0  0  0  0  0
    8.1678  -16.9192   25.5300 O   0  0  0  0  0  0  0  0  0  0  0  0
   12.2951  -17.7025   21.7893 N   0  0  0  0  0  0  0  0  0  0  0  0
   12.4219  -16.5322   22.5688 C   0  0  0  0  0  0  0  0  0  0  0  0
   13.5486  -16.2307   23.0089 O   0  0  0  0  0  0  0  0  0  0  0  0
   11.2604  -15.7076   22.8444 C   0  0  0  0  0  0  0  0  0  0  0  0
   10.3474  -16.2303   23.9043 C   0  0  2  0  0  0  0  0  0  0  0  0
    9.1802  -15.4267   24.1186 N   0  0  0  0  0  0  0  0  0  0  0  0
   11.1634  -16.3488   25.1672 C   0  0  0  0  0  0  0  0  0  0  0  0
   12.2124  -17.0418   25.1821 O   0  0  0  0  0  0  0  0  0  0  0  0
   11.7215  -13.5071   28.0960 C   0  0  0  0  0  0  0  0  0  0  0  0
   11.1212  -14.7900   28.6231 C   0  0  1  0  0  0  0  0  0  0  0  0
    9.7444  -14.6124   28.7519 O   0  0  0  0  0  0  0  0  0  0  0  0
   11.4499  -15.8917   27.6360 C   0  0  2  0  0  0  0  0  0  0  0  0
   10.7838  -15.6926   26.3684 N   0  0  0  0  0  0  0  0  0  0  0  0
   10.9951  -17.1758   28.2777 C   0  0  0  0  0  0  0  0  0  0  0  0
   11.6039  -17.5763   29.3188 O   0  0  0  0  0  0  0  0  0  0  0  0
    9.9601  -17.9344   27.7986 O   0  0  0  0  0  0  0  0  0  0  0  0
  1  2  1  0
  3  2  1  0
  3  5  1  0
  3  4  1  6
  5  7  1  0
  5  6  1  1
  7  8  2  0
  9 10  1  0
 10 12  1  0
 11 10  2  0
 13 12  1  6
 14 13  1  0
 14  7  1  0
 15 21  1  0
 15 13  1  0
 16 15  2  0
 18 17  1  6
 19 18  1  0
 20 18  1  0
 20 21  1  6
 22 24  1  0
 22 20  1  0
 23 22  2  0
M  END
$$$$
