INT.pdb
     RDKit          3D

 24 23  0  0  1  0  0  0  0  0999 V2000
    5.7746  -12.0885   26.9905 C   0  0  0  0  0  0  0  0  0  0  0  0
    5.7141  -13.1241   25.9052 C   0  0  0  0  0  0  0  0  0  0  0  0
    7.0023  -13.8958   25.8878 C   0  0  2  0  0  0  0  0  0  0  0  0
    8.1942  -13.0090   25.5858 C   0  0  0  0  0  0  0  0  0  0  0  0
    6.9988  -14.9858   24.8394 C   0  0  2  0  0  0  0  0  0  0  0  0
    5.7308  -15.6894   24.8900 N   0  0  0  0  0  0  0  0  0  0  0  0
    8.1363  -15.9073   24.9611 C   0  0  0  0  0  0  0  0  0  0  0  0
    8.0982  -16.8002   25.8402 O   0  0  0  0  0  0  0  0  0  0  0  0
    9.8540  -17.7028   21.6790 N   0  0  0  0  0  0  0  0  0  0  0  0
   10.8999  -16.7797   21.8958 C   0  0  0  0  0  0  0  0  0  0  0  0
   11.3288  -16.1285   20.9232 O   0  0  0  0  0  0  0  0  0  0  0  0
   11.4548  -16.6019   23.2245 C   0  0  0  0  0  0  0  0  0  0  0  0
   10.4643  -16.6654   24.3403 C   0  0  2  0  0  0  0  0  0  0  0  0
    9.2998  -15.8555   24.1349 N   0  0  0  0  0  0  0  0  0  0  0  0
   11.1923  -16.2593   25.5972 C   0  0  0  0  0  0  0  0  0  0  0  0
   11.7940  -15.1567   25.6538 O   0  0  0  0  0  0  0  0  0  0  0  0
   10.8729  -14.4088   27.7071 C   0  0  0  0  0  0  0  0  0  0  0  0
   10.8791  -15.5890   28.6511 C   0  0  1  0  0  0  0  0  0  0  0  0
    9.5647  -16.0190   28.8284 O   0  0  0  0  0  0  0  0  0  0  0  0
   11.7391  -16.6709   28.0298 C   0  0  2  0  0  0  0  0  0  0  0  0
   11.2253  -17.0937   26.7463 N   0  0  0  0  0  0  0  0  0  0  0  0
   11.7359  -17.8178   29.0057 C   0  0  0  0  0  0  0  0  0  0  0  0
   11.0887  -18.8673   28.6980 O   0  0  0  0  0  0  0  0  0  0  0  0
   12.3937  -17.7894   30.2067 O   0  0  0  0  0  0  0  0  0  0  0  0
  1  2  1  0
  3  2  1  0
  3  5  1  0
  3  4  1  6
  5  7  1  0
  5  6  1  1
  7  8  2  0
  9 10  1  0
 10 12  1  0
 11 10  2  0
 13 12  1  6
 14 13  1  0
 14  7  1  0
 15 21  1  0
 15 13  1  0
 16 15  2  0
 18 17  1  6
 19 18  1  0
 20 18  1  0
 20 21  1  6
 22 24  1  0
 22 20  1  0
 23 22  2  0
M  END
$$$$
