INT.pdb
     RDKit          3D

 24 23  0  0  1  0  0  0  0  0999 V2000
    7.6441  -11.9407   20.1817 C   0  0  0  0  0  0  0  0  0  0  0  0
    7.6827  -13.4198   19.9270 C   0  0  0  0  0  0  0  0  0  0  0  0
    8.8171  -13.7297   18.9930 C   0  0  2  0  0  0  0  0  0  0  0  0
    8.6763  -13.0096   17.6663 C   0  0  0  0  0  0  0  0  0  0  0  0
    8.9059  -15.2057   18.6754 C   0  0  2  0  0  0  0  0  0  0  0  0
    7.6708  -15.6306   18.0435 N   0  0  0  0  0  0  0  0  0  0  0  0
    9.2274  -16.0300   19.8481 C   0  0  0  0  0  0  0  0  0  0  0  0
    8.2996  -16.6413   20.4287 O   0  0  0  0  0  0  0  0  0  0  0  0
   11.4411  -19.0920   19.5967 N   0  0  0  0  0  0  0  0  0  0  0  0
   12.5117  -18.5849   20.3647 C   0  0  0  0  0  0  0  0  0  0  0  0
   13.6629  -18.9992   20.1257 O   0  0  0  0  0  0  0  0  0  0  0  0
   12.2653  -17.6045   21.4054 C   0  0  0  0  0  0  0  0  0  0  0  0
   10.8715  -17.0710   21.4583 C   0  0  2  0  0  0  0  0  0  0  0  0
   10.5433  -16.1855   20.3802 N   0  0  0  0  0  0  0  0  0  0  0  0
   10.7151  -16.3833   22.7915 C   0  0  0  0  0  0  0  0  0  0  0  0
   11.3965  -15.3619   23.0624 O   0  0  0  0  0  0  0  0  0  0  0  0
    7.8129  -14.6351   24.2610 C   0  0  0  0  0  0  0  0  0  0  0  0
    8.0888  -15.8062   25.1757 C   0  0  1  0  0  0  0  0  0  0  0  0
    7.2553  -16.8607   24.8056 O   0  0  0  0  0  0  0  0  0  0  0  0
    9.5510  -16.1737   25.0247 C   0  0  2  0  0  0  0  0  0  0  0  0
    9.8066  -16.8558   23.7759 N   0  0  0  0  0  0  0  0  0  0  0  0
    9.8795  -17.0657   26.1926 C   0  0  0  0  0  0  0  0  0  0  0  0
   10.0688  -18.3025   25.9699 O   0  0  0  0  0  0  0  0  0  0  0  0
    9.9851  -16.6144   27.4814 O   0  0  0  0  0  0  0  0  0  0  0  0
  1  2  1  0
  3  2  1  0
  3  5  1  0
  3  4  1  6
  5  7  1  0
  5  6  1  1
  7  8  2  0
  9 10  1  0
 10 12  1  0
 11 10  2  0
 13 12  1  6
 14 13  1  0
 14  7  1  0
 15 21  1  0
 15 13  1  0
 16 15  2  0
 18 17  1  6
 19 18  1  0
 20 18  1  0
 20 21  1  6
 22 24  1  0
 22 20  1  0
 23 22  2  0
M  END
$$$$
