INT.pdb
     RDKit          3D

 24 23  0  0  1  0  0  0  0  0999 V2000
    7.2686  -12.1273   19.5573 C   0  0  0  0  0  0  0  0  0  0  0  0
    7.6712  -13.5715   19.4788 C   0  0  0  0  0  0  0  0  0  0  0  0
    7.9695  -14.0761   20.8614 C   0  0  2  0  0  0  0  0  0  0  0  0
    9.0290  -13.2434   21.5559 C   0  0  0  0  0  0  0  0  0  0  0  0
    8.4787  -15.5001   20.8501 C   0  0  2  0  0  0  0  0  0  0  0  0
    7.5168  -16.3429   20.1648 N   0  0  0  0  0  0  0  0  0  0  0  0
    8.7907  -16.0121   22.1913 C   0  0  0  0  0  0  0  0  0  0  0  0
    7.8453  -16.2851   22.9679 O   0  0  0  0  0  0  0  0  0  0  0  0
   12.3835  -18.7640   21.9118 N   0  0  0  0  0  0  0  0  0  0  0  0
   11.6148  -18.7713   23.0959 C   0  0  0  0  0  0  0  0  0  0  0  0
   10.9202  -19.7755   23.3472 O   0  0  0  0  0  0  0  0  0  0  0  0
   11.6409  -17.6305   23.9919 C   0  0  0  0  0  0  0  0  0  0  0  0
   10.4172  -16.7748   23.9667 C   0  0  2  0  0  0  0  0  0  0  0  0
   10.1162  -16.2233   22.6785 N   0  0  0  0  0  0  0  0  0  0  0  0
   10.6226  -15.6847   24.9886 C   0  0  0  0  0  0  0  0  0  0  0  0
   11.3396  -14.6879   24.7176 O   0  0  0  0  0  0  0  0  0  0  0  0
    8.8854  -12.9789   26.1975 C   0  0  0  0  0  0  0  0  0  0  0  0
    8.9714  -13.8512   27.4286 C   0  0  1  0  0  0  0  0  0  0  0  0
    7.8074  -14.6143   27.5106 O   0  0  0  0  0  0  0  0  0  0  0  0
   10.2008  -14.7257   27.2882 C   0  0  2  0  0  0  0  0  0  0  0  0
   10.0236  -15.7419   26.2752 N   0  0  0  0  0  0  0  0  0  0  0  0
   10.4207  -15.3558   28.6381 C   0  0  0  0  0  0  0  0  0  0  0  0
   10.2452  -16.6093   28.7523 O   0  0  0  0  0  0  0  0  0  0  0  0
   10.7998  -14.6495   29.7487 O   0  0  0  0  0  0  0  0  0  0  0  0
  1  2  1  0
  3  2  1  0
  3  5  1  0
  3  4  1  6
  5  7  1  0
  5  6  1  1
  7  8  2  0
  9 10  1  0
 10 12  1  0
 11 10  2  0
 13 12  1  6
 14 13  1  0
 14  7  1  0
 15 21  1  0
 15 13  1  0
 16 15  2  0
 18 17  1  6
 19 18  1  0
 20 18  1  0
 20 21  1  6
 22 24  1  0
 22 20  1  0
 23 22  2  0
M  END
$$$$
