INT.pdb
     RDKit          3D

 24 23  0  0  1  0  0  0  0  0999 V2000
    7.5938  -11.9211   19.8308 C   0  0  0  0  0  0  0  0  0  0  0  0
    7.6072  -13.4184   19.7212 C   0  0  0  0  0  0  0  0  0  0  0  0
    7.6363  -14.0133   21.0998 C   0  0  2  0  0  0  0  0  0  0  0  0
    8.8104  -13.5072   21.9145 C   0  0  0  0  0  0  0  0  0  0  0  0
    7.7520  -15.5209   21.0668 C   0  0  2  0  0  0  0  0  0  0  0  0
    6.6566  -16.0643   20.2856 N   0  0  0  0  0  0  0  0  0  0  0  0
    7.8163  -16.1242   22.4047 C   0  0  0  0  0  0  0  0  0  0  0  0
    6.7631  -16.2099   23.0792 O   0  0  0  0  0  0  0  0  0  0  0  0
   11.3084  -17.7385   22.7495 N   0  0  0  0  0  0  0  0  0  0  0  0
   10.8071  -18.7430   23.6054 C   0  0  0  0  0  0  0  0  0  0  0  0
   11.3489  -19.8656   23.5854 O   0  0  0  0  0  0  0  0  0  0  0  0
    9.6866  -18.4634   24.4837 C   0  0  0  0  0  0  0  0  0  0  0  0
    9.1005  -17.0964   24.3502 C   0  0  2  0  0  0  0  0  0  0  0  0
    9.0133  -16.6274   22.9987 N   0  0  0  0  0  0  0  0  0  0  0  0
    9.9454  -16.1725   25.1912 C   0  0  0  0  0  0  0  0  0  0  0  0
   11.0489  -15.7523   24.7590 O   0  0  0  0  0  0  0  0  0  0  0  0
    9.0719  -12.7959   26.7066 C   0  0  0  0  0  0  0  0  0  0  0  0
    9.4157  -13.7188   27.8530 C   0  0  1  0  0  0  0  0  0  0  0  0
    8.2291  -14.2178   28.3886 O   0  0  0  0  0  0  0  0  0  0  0  0
   10.2884  -14.8293   27.3041 C   0  0  2  0  0  0  0  0  0  0  0  0
    9.5333  -15.7488   26.4828 N   0  0  0  0  0  0  0  0  0  0  0  0
   10.8635  -15.5382   28.5017 C   0  0  0  0  0  0  0  0  0  0  0  0
   10.5735  -16.7637   28.6716 O   0  0  0  0  0  0  0  0  0  0  0  0
   11.6826  -14.9319   29.4169 O   0  0  0  0  0  0  0  0  0  0  0  0
  1  2  1  0
  3  2  1  0
  3  5  1  0
  3  4  1  1
  5  7  1  0
  5  6  1  1
  7  8  2  0
  9 10  1  0
 10 12  1  0
 11 10  2  0
 13 12  1  6
 14 13  1  0
 14  7  1  0
 15 21  1  0
 15 13  1  0
 16 15  2  0
 18 17  1  6
 19 18  1  0
 20 18  1  0
 20 21  1  1
 22 24  1  0
 22 20  1  0
 23 22  2  0
M  END
$$$$
