TDL.pdb
     RDKit          3D

 24 23  0  0  1  0  0  0  0  0999 V2000
    8.2321  -12.5071   18.5197 C   0  0  0  0  0  0  0  0  0  0  0  0
    8.5423  -13.3640   19.7253 C   0  0  1  0  0  0  0  0  0  0  0  0
    7.9659  -12.7603   20.8422 O   0  0  0  0  0  0  0  0  0  0  0  0
    7.9632  -14.7531   19.5580 C   0  0  2  0  0  0  0  0  0  0  0  0
    6.5425  -14.6476   19.3486 N   0  0  0  0  0  0  0  0  0  0  0  0
    8.1897  -15.5471   20.7928 C   0  0  0  0  0  0  0  0  0  0  0  0
    7.2244  -15.7061   21.5610 O   0  0  0  0  0  0  0  0  0  0  0  0
    9.4453  -16.1194   21.1201 N   0  0  0  0  0  0  0  0  0  0  0  0
    9.7143  -16.7777   22.3819 C   0  0  1  0  0  0  0  0  0  0  0  0
   10.8969  -17.6907   22.3226 C   0  0  0  0  0  0  0  0  0  0  0  0
   11.0780  -18.5509   23.4748 C   0  0  0  0  0  0  0  0  0  0  0  0
   10.2366  -18.5538   24.3988 O   0  0  0  0  0  0  0  0  0  0  0  0
    9.7777  -15.8105   23.5090 C   0  0  0  0  0  0  0  0  0  0  0  0
   10.7245  -14.9890   23.6496 O   0  0  0  0  0  0  0  0  0  0  0  0
   12.1710  -19.3831   23.5866 O   0  0  0  0  0  0  0  0  0  0  0  0
    5.6952  -12.6787   26.5601 C   0  0  0  0  0  0  0  0  0  0  0  0
    7.1627  -13.1291   26.6545 C   0  0  2  0  0  0  0  0  0  0  0  0
    8.0008  -11.9061   26.5646 C   0  0  0  0  0  0  0  0  0  0  0  0
    7.3694  -14.1629   25.6110 C   0  0  0  0  0  0  0  0  0  0  0  0
    8.6997  -14.8193   25.5615 C   0  0  2  0  0  0  0  0  0  0  0  0
    8.7543  -15.7680   24.4972 N   0  0  0  0  0  0  0  0  0  0  0  0
    8.8635  -15.5537   26.8687 C   0  0  0  0  0  0  0  0  0  0  0  0
    8.3452  -16.6765   27.0837 O   0  0  0  0  0  0  0  0  0  0  0  0
    9.6120  -14.9837   27.8856 O   0  0  0  0  0  0  0  0  0  0  0  0
  2  1  1  6
  2  4  1  0
  3  2  1  0
  4  6  1  0
  4  5  1  1
  6  7  2  0
  8  6  1  0
  8  9  1  0
  9 13  1  0
  9 10  1  6
 10 11  1  0
 11 12  2  0
 11 15  1  0
 13 14  2  0
 17 16  1  6
 17 18  1  0
 19 17  1  0
 20 19  1  1
 20 22  1  0
 21 13  1  0
 21 20  1  0
 22 24  1  0
 23 22  2  0
M  END
$$$$
