TDL.pdb
     RDKit          3D

 24 23  0  0  1  0  0  0  0  0999 V2000
    9.3500  -12.5716   19.5196 C   0  0  0  0  0  0  0  0  0  0  0  0
    8.2434  -13.2322   18.7301 C   0  0  1  0  0  0  0  0  0  0  0  0
    8.2518  -12.6936   17.4440 O   0  0  0  0  0  0  0  0  0  0  0  0
    8.4670  -14.7274   18.6432 C   0  0  2  0  0  0  0  0  0  0  0  0
    7.4140  -15.3148   17.8564 N   0  0  0  0  0  0  0  0  0  0  0  0
    8.4163  -15.3255   20.0019 C   0  0  0  0  0  0  0  0  0  0  0  0
    7.2995  -15.4500   20.5355 O   0  0  0  0  0  0  0  0  0  0  0  0
    9.5755  -15.7518   20.6988 N   0  0  0  0  0  0  0  0  0  0  0  0
    9.5356  -16.3487   22.0179 C   0  0  1  0  0  0  0  0  0  0  0  0
   10.5456  -17.4368   22.1962 C   0  0  0  0  0  0  0  0  0  0  0  0
   10.5738  -18.0516   23.5082 C   0  0  0  0  0  0  0  0  0  0  0  0
   11.4786  -17.7637   24.3208 O   0  0  0  0  0  0  0  0  0  0  0  0
    9.5853  -15.3225   23.0922 C   0  0  0  0  0  0  0  0  0  0  0  0
   10.4349  -14.3903   23.1054 O   0  0  0  0  0  0  0  0  0  0  0  0
    9.6150  -18.9623   23.8968 O   0  0  0  0  0  0  0  0  0  0  0  0
    7.5150  -13.0496   27.5152 C   0  0  0  0  0  0  0  0  0  0  0  0
    7.1287  -12.5199   26.1240 C   0  0  2  0  0  0  0  0  0  0  0  0
    5.7640  -11.9452   26.2397 C   0  0  0  0  0  0  0  0  0  0  0  0
    7.3071  -13.6387   25.1666 C   0  0  0  0  0  0  0  0  0  0  0  0
    8.6007  -14.3655   25.2069 C   0  0  2  0  0  0  0  0  0  0  0  0
    8.6597  -15.3471   24.1732 N   0  0  0  0  0  0  0  0  0  0  0  0
    8.6554  -15.0681   26.5404 C   0  0  0  0  0  0  0  0  0  0  0  0
    7.9467  -16.0690   26.8076 O   0  0  0  0  0  0  0  0  0  0  0  0
    9.5155  -14.6062   27.5232 O   0  0  0  0  0  0  0  0  0  0  0  0
  2  1  1  1
  2  4  1  0
  3  2  1  0
  4  6  1  0
  4  5  1  6
  6  7  2  0
  8  6  1  0
  8  9  1  0
  9 13  1  0
  9 10  1  1
 10 11  1  0
 11 12  2  0
 11 15  1  0
 13 14  2  0
 17 16  1  1
 17 18  1  0
 19 17  1  0
 20 19  1  1
 20 22  1  0
 21 13  1  0
 21 20  1  0
 22 24  1  0
 23 22  2  0
M  END
$$$$
