TDL.pdb
     RDKit          3D

 24 23  0  0  1  0  0  0  0  0999 V2000
    8.8602  -11.8484   18.8155 C   0  0  0  0  0  0  0  0  0  0  0  0
    8.6949  -12.9070   19.8814 C   0  0  1  0  0  0  0  0  0  0  0  0
    7.4179  -12.7742   20.4253 O   0  0  0  0  0  0  0  0  0  0  0  0
    8.8392  -14.2922   19.2869 C   0  0  2  0  0  0  0  0  0  0  0  0
    7.7926  -14.4999   18.3201 N   0  0  0  0  0  0  0  0  0  0  0  0
    8.6931  -15.3169   20.3522 C   0  0  0  0  0  0  0  0  0  0  0  0
    7.6530  -15.9992   20.3569 O   0  0  0  0  0  0  0  0  0  0  0  0
    9.6801  -15.5401   21.3458 N   0  0  0  0  0  0  0  0  0  0  0  0
    9.5214  -16.4944   22.4238 C   0  0  1  0  0  0  0  0  0  0  0  0
   10.3103  -17.7472   22.2141 C   0  0  0  0  0  0  0  0  0  0  0  0
   10.1853  -18.7441   23.2586 C   0  0  0  0  0  0  0  0  0  0  0  0
    9.3585  -19.6746   23.1474 O   0  0  0  0  0  0  0  0  0  0  0  0
    9.7542  -15.8721   23.7535 C   0  0  0  0  0  0  0  0  0  0  0  0
   10.8820  -15.4379   24.1147 O   0  0  0  0  0  0  0  0  0  0  0  0
   10.9651  -18.6980   24.3941 O   0  0  0  0  0  0  0  0  0  0  0  0
    8.0373  -12.1715   25.6684 C   0  0  0  0  0  0  0  0  0  0  0  0
    7.0182  -13.3125   25.5112 C   0  0  2  0  0  0  0  0  0  0  0  0
    5.6853  -12.7580   25.8605 C   0  0  0  0  0  0  0  0  0  0  0  0
    7.5075  -14.4496   26.3286 C   0  0  0  0  0  0  0  0  0  0  0  0
    8.8078  -15.0521   25.9420 C   0  0  2  0  0  0  0  0  0  0  0  0
    8.6954  -15.7362   24.6950 N   0  0  0  0  0  0  0  0  0  0  0  0
    9.1486  -16.0580   27.0129 C   0  0  0  0  0  0  0  0  0  0  0  0
    9.5149  -15.7216   28.1654 O   0  0  0  0  0  0  0  0  0  0  0  0
    9.0604  -17.4120   26.7340 O   0  0  0  0  0  0  0  0  0  0  0  0
  2  1  1  6
  2  4  1  0
  3  2  1  0
  4  6  1  0
  4  5  1  6
  6  7  2  0
  8  6  1  0
  8  9  1  0
  9 13  1  0
  9 10  1  6
 10 11  1  0
 11 12  2  0
 11 15  1  0
 13 14  2  0
 17 16  1  1
 17 18  1  0
 19 17  1  0
 20 19  1  1
 20 22  1  0
 21 13  1  0
 21 20  1  0
 22 24  1  0
 23 22  2  0
M  END
$$$$
