TDL.pdb
     RDKit          3D

 24 23  0  0  1  0  0  0  0  0999 V2000
    8.9623  -12.3557   20.8100 C   0  0  0  0  0  0  0  0  0  0  0  0
    7.8401  -12.9854   20.0174 C   0  0  1  0  0  0  0  0  0  0  0  0
    7.7497  -12.3194   18.7957 O   0  0  0  0  0  0  0  0  0  0  0  0
    8.1212  -14.4515   19.7635 C   0  0  2  0  0  0  0  0  0  0  0  0
    7.0273  -15.0172   19.0173 N   0  0  0  0  0  0  0  0  0  0  0  0
    8.2227  -15.1775   21.0554 C   0  0  0  0  0  0  0  0  0  0  0  0
    7.2094  -15.7727   21.4631 O   0  0  0  0  0  0  0  0  0  0  0  0
    9.4128  -15.2148   21.8257 N   0  0  0  0  0  0  0  0  0  0  0  0
    9.7805  -16.3351   22.6670 C   0  0  1  0  0  0  0  0  0  0  0  0
   11.0804  -16.9591   22.2715 C   0  0  0  0  0  0  0  0  0  0  0  0
   11.5248  -18.0559   23.1080 C   0  0  0  0  0  0  0  0  0  0  0  0
   10.7575  -19.0103   23.3578 O   0  0  0  0  0  0  0  0  0  0  0  0
    9.7128  -15.9892   24.1111 C   0  0  0  0  0  0  0  0  0  0  0  0
    9.9947  -16.8135   25.0232 O   0  0  0  0  0  0  0  0  0  0  0  0
   12.7926  -18.0810   23.6481 O   0  0  0  0  0  0  0  0  0  0  0  0
    5.6141  -12.9063   26.4424 C   0  0  0  0  0  0  0  0  0  0  0  0
    7.1495  -12.8207   26.4665 C   0  0  2  0  0  0  0  0  0  0  0  0
    7.5416  -11.7498   25.5150 C   0  0  0  0  0  0  0  0  0  0  0  0
    7.6663  -14.1840   26.1932 C   0  0  0  0  0  0  0  0  0  0  0  0
    9.1150  -14.3128   25.8970 C   0  0  2  0  0  0  0  0  0  0  0  0
    9.3197  -14.6889   24.5360 N   0  0  0  0  0  0  0  0  0  0  0  0
    9.6368  -15.4155   26.7840 C   0  0  0  0  0  0  0  0  0  0  0  0
    9.7409  -15.2908   28.0287 O   0  0  0  0  0  0  0  0  0  0  0  0
   10.0219  -16.6219   26.2225 O   0  0  0  0  0  0  0  0  0  0  0  0
  2  1  1  1
  2  4  1  0
  3  2  1  0
  4  6  1  0
  4  5  1  6
  6  7  2  0
  8  6  1  0
  8  9  1  0
  9 13  1  0
  9 10  1  6
 10 11  1  0
 11 12  2  0
 11 15  1  0
 13 14  2  0
 17 16  1  6
 17 18  1  0
 19 17  1  0
 20 19  1  6
 20 22  1  0
 21 13  1  0
 21 20  1  0
 22 24  1  0
 23 22  2  0
M  END
$$$$
