TDL.pdb
     RDKit          3D

 24 23  0  0  1  0  0  0  0  0999 V2000
    7.8704  -12.5208   18.0429 C   0  0  0  0  0  0  0  0  0  0  0  0
    7.7914  -13.5976   19.1004 C   0  0  1  0  0  0  0  0  0  0  0  0
    8.0398  -14.8240   18.4851 O   0  0  0  0  0  0  0  0  0  0  0  0
    8.8279  -13.3651   20.1795 C   0  0  2  0  0  0  0  0  0  0  0  0
   10.1413  -13.4486   19.5952 N   0  0  0  0  0  0  0  0  0  0  0  0
    8.7184  -14.4188   21.2207 C   0  0  0  0  0  0  0  0  0  0  0  0
    7.6414  -14.5110   21.8363 O   0  0  0  0  0  0  0  0  0  0  0  0
    9.7795  -15.3069   21.5313 N   0  0  0  0  0  0  0  0  0  0  0  0
    9.6794  -16.3441   22.5374 C   0  0  1  0  0  0  0  0  0  0  0  0
   10.6331  -17.4727   22.3081 C   0  0  0  0  0  0  0  0  0  0  0  0
   10.6195  -18.0382   20.9739 C   0  0  0  0  0  0  0  0  0  0  0  0
    9.6364  -18.7014   20.5794 O   0  0  0  0  0  0  0  0  0  0  0  0
    9.7502  -15.7889   23.9145 C   0  0  0  0  0  0  0  0  0  0  0  0
   10.7106  -15.0749   24.3129 O   0  0  0  0  0  0  0  0  0  0  0  0
   11.6778  -17.8646   20.1081 O   0  0  0  0  0  0  0  0  0  0  0  0
    8.3247  -12.6939   26.8120 C   0  0  0  0  0  0  0  0  0  0  0  0
    7.2870  -13.5968   26.1241 C   0  0  2  0  0  0  0  0  0  0  0  0
    5.9522  -12.9941   26.3717 C   0  0  0  0  0  0  0  0  0  0  0  0
    7.5055  -14.9746   26.6283 C   0  0  0  0  0  0  0  0  0  0  0  0
    8.7668  -15.6492   26.2320 C   0  0  2  0  0  0  0  0  0  0  0  0
    8.7186  -16.0432   24.8616 N   0  0  0  0  0  0  0  0  0  0  0  0
    8.8756  -16.8885   27.0848 C   0  0  0  0  0  0  0  0  0  0  0  0
    8.5650  -18.0294   26.6634 O   0  0  0  0  0  0  0  0  0  0  0  0
    9.3342  -16.7853   28.3879 O   0  0  0  0  0  0  0  0  0  0  0  0
  2  1  1  6
  2  4  1  0
  3  2  1  0
  4  6  1  0
  4  5  1  6
  6  7  2  0
  8  6  1  0
  8  9  1  0
  9 13  1  0
  9 10  1  6
 10 11  1  0
 11 12  2  0
 11 15  1  0
 13 14  2  0
 17 16  1  1
 17 18  1  0
 19 17  1  0
 20 19  1  1
 20 22  1  0
 21 13  1  0
 21 20  1  0
 22 24  1  0
 23 22  2  0
M  END
$$$$
