TDL.pdb
     RDKit          3D

 24 23  0  0  1  0  0  0  0  0999 V2000
    7.8776  -12.4025   19.0119 C   0  0  0  0  0  0  0  0  0  0  0  0
    8.2095  -13.3621   20.1314 C   0  0  1  0  0  0  0  0  0  0  0  0
    7.0245  -13.6728   20.7973 O   0  0  0  0  0  0  0  0  0  0  0  0
    8.8184  -14.6352   19.5822 C   0  0  2  0  0  0  0  0  0  0  0  0
    7.9804  -15.1387   18.5251 N   0  0  0  0  0  0  0  0  0  0  0  0
    8.8831  -15.6657   20.6500 C   0  0  0  0  0  0  0  0  0  0  0  0
    8.6323  -16.8418   20.3319 O   0  0  0  0  0  0  0  0  0  0  0  0
    9.2150  -15.3607   21.9947 N   0  0  0  0  0  0  0  0  0  0  0  0
    9.3894  -16.3699   23.0190 C   0  0  1  0  0  0  0  0  0  0  0  0
   10.2965  -17.4803   22.5948 C   0  0  0  0  0  0  0  0  0  0  0  0
   10.5364  -18.5040   23.5921 C   0  0  0  0  0  0  0  0  0  0  0  0
    9.5884  -18.9671   24.2619 O   0  0  0  0  0  0  0  0  0  0  0  0
    9.7675  -15.7726   24.3266 C   0  0  0  0  0  0  0  0  0  0  0  0
   10.9408  -15.3898   24.5871 O   0  0  0  0  0  0  0  0  0  0  0  0
   11.8026  -18.9934   23.8306 O   0  0  0  0  0  0  0  0  0  0  0  0
    8.3537  -12.0183   25.9658 C   0  0  0  0  0  0  0  0  0  0  0  0
    7.3074  -13.1414   26.0613 C   0  0  2  0  0  0  0  0  0  0  0  0
    6.0144  -12.5037   26.4184 C   0  0  0  0  0  0  0  0  0  0  0  0
    7.8398  -14.1541   27.0054 C   0  0  0  0  0  0  0  0  0  0  0  0
    9.0474  -14.9064   26.5824 C   0  0  2  0  0  0  0  0  0  0  0  0
    8.8049  -15.6034   25.3612 N   0  0  0  0  0  0  0  0  0  0  0  0
    9.3230  -15.9181   27.6665 C   0  0  0  0  0  0  0  0  0  0  0  0
    9.1396  -17.1494   27.5056 O   0  0  0  0  0  0  0  0  0  0  0  0
    9.7978  -15.4922   28.8962 O   0  0  0  0  0  0  0  0  0  0  0  0
  2  1  1  6
  2  4  1  0
  3  2  1  0
  4  6  1  0
  4  5  1  6
  6  7  2  0
  8  6  1  0
  8  9  1  0
  9 13  1  0
  9 10  1  6
 10 11  1  0
 11 12  2  0
 11 15  1  0
 13 14  2  0
 17 16  1  1
 17 18  1  0
 19 17  1  0
 20 19  1  1
 20 22  1  0
 21 13  1  0
 21 20  1  0
 22 24  1  0
 23 22  2  0
M  END
$$$$
