TDL.pdb
     RDKit          3D

 24 23  0  0  1  0  0  0  0  0999 V2000
    8.3482  -12.6147   21.1939 C   0  0  0  0  0  0  0  0  0  0  0  0
    7.2189  -13.4980   20.7159 C   0  0  1  0  0  0  0  0  0  0  0  0
    6.6130  -12.8708   19.6279 O   0  0  0  0  0  0  0  0  0  0  0  0
    7.7444  -14.8496   20.2798 C   0  0  2  0  0  0  0  0  0  0  0  0
    6.6432  -15.6564   19.8220 N   0  0  0  0  0  0  0  0  0  0  0  0
    8.3758  -15.5420   21.4323 C   0  0  0  0  0  0  0  0  0  0  0  0
    7.7349  -16.4598   21.9748 O   0  0  0  0  0  0  0  0  0  0  0  0
    9.6602  -15.1992   21.9264 N   0  0  0  0  0  0  0  0  0  0  0  0
   10.4359  -16.0639   22.7916 C   0  0  1  0  0  0  0  0  0  0  0  0
   11.8995  -16.0318   22.4872 C   0  0  0  0  0  0  0  0  0  0  0  0
   12.7175  -16.9404   23.2653 C   0  0  0  0  0  0  0  0  0  0  0  0
   13.7423  -16.5256   23.8481 O   0  0  0  0  0  0  0  0  0  0  0  0
   10.1316  -15.8284   24.2274 C   0  0  0  0  0  0  0  0  0  0  0  0
   10.9225  -16.1548   25.1541 O   0  0  0  0  0  0  0  0  0  0  0  0
   12.3950  -18.2750   23.3858 O   0  0  0  0  0  0  0  0  0  0  0  0
    6.2556  -12.5800   24.9062 C   0  0  0  0  0  0  0  0  0  0  0  0
    6.9868  -13.1046   26.1533 C   0  0  2  0  0  0  0  0  0  0  0  0
    8.2708  -12.3641   26.2497 C   0  0  0  0  0  0  0  0  0  0  0  0
    7.0707  -14.5796   26.0212 C   0  0  0  0  0  0  0  0  0  0  0  0
    8.4274  -15.1793   25.9687 C   0  0  2  0  0  0  0  0  0  0  0  0
    8.9120  -15.2130   24.6271 N   0  0  0  0  0  0  0  0  0  0  0  0
    8.2884  -16.5967   26.4651 C   0  0  0  0  0  0  0  0  0  0  0  0
    8.1082  -17.5697   25.6927 O   0  0  0  0  0  0  0  0  0  0  0  0
    8.3593  -16.8568   27.8239 O   0  0  0  0  0  0  0  0  0  0  0  0
  2  1  1  6
  2  4  1  0
  3  2  1  0
  4  6  1  0
  4  5  1  1
  6  7  2  0
  8  6  1  0
  8  9  1  0
  9 13  1  0
  9 10  1  1
 10 11  1  0
 11 12  2  0
 11 15  1  0
 13 14  2  0
 17 16  1  6
 17 18  1  0
 19 17  1  0
 20 19  1  6
 20 22  1  0
 21 13  1  0
 21 20  1  0
 22 24  1  0
 23 22  2  0
M  END
$$$$
