TDL.pdb
     RDKit          3D

 24 23  0  0  1  0  0  0  0  0999 V2000
    8.8540  -12.7665   20.7719 C   0  0  0  0  0  0  0  0  0  0  0  0
    7.6867  -13.4061   20.0561 C   0  0  1  0  0  0  0  0  0  0  0  0
    7.5727  -12.8100   18.8007 O   0  0  0  0  0  0  0  0  0  0  0  0
    7.9159  -14.8926   19.8804 C   0  0  2  0  0  0  0  0  0  0  0  0
    6.7741  -15.4690   19.2191 N   0  0  0  0  0  0  0  0  0  0  0  0
    8.0564  -15.5425   21.2087 C   0  0  0  0  0  0  0  0  0  0  0  0
    7.0142  -15.8069   21.8341 O   0  0  0  0  0  0  0  0  0  0  0  0
    9.3145  -15.8659   21.7779 N   0  0  0  0  0  0  0  0  0  0  0  0
    9.4611  -16.5373   23.0529 C   0  0  1  0  0  0  0  0  0  0  0  0
   10.5035  -17.6091   23.0308 C   0  0  0  0  0  0  0  0  0  0  0  0
   11.7396  -17.2619   22.3588 C   0  0  0  0  0  0  0  0  0  0  0  0
   11.7422  -17.0023   21.1363 O   0  0  0  0  0  0  0  0  0  0  0  0
    9.6375  -15.5726   24.1700 C   0  0  0  0  0  0  0  0  0  0  0  0
   10.5491  -14.7009   24.1802 O   0  0  0  0  0  0  0  0  0  0  0  0
   12.9373  -17.2077   23.0386 O   0  0  0  0  0  0  0  0  0  0  0  0
    8.4554  -11.8032   26.1289 C   0  0  0  0  0  0  0  0  0  0  0  0
    7.3916  -12.8873   25.8873 C   0  0  2  0  0  0  0  0  0  0  0  0
    6.0651  -12.2466   26.0773 C   0  0  0  0  0  0  0  0  0  0  0  0
    7.7205  -14.0269   26.7779 C   0  0  0  0  0  0  0  0  0  0  0  0
    8.9523  -14.7952   26.4686 C   0  0  2  0  0  0  0  0  0  0  0  0
    8.7698  -15.5904   25.2981 N   0  0  0  0  0  0  0  0  0  0  0  0
    9.1896  -15.7136   27.6412 C   0  0  0  0  0  0  0  0  0  0  0  0
    9.4863  -15.2887   28.7845 O   0  0  0  0  0  0  0  0  0  0  0  0
    9.0807  -17.0841   27.4710 O   0  0  0  0  0  0  0  0  0  0  0  0
  2  1  1  6
  2  4  1  0
  3  2  1  0
  4  6  1  0
  4  5  1  1
  6  7  2  0
  8  6  1  0
  8  9  1  0
  9 13  1  0
  9 10  1  6
 10 11  1  0
 11 12  2  0
 11 15  1  0
 13 14  2  0
 17 16  1  1
 17 18  1  0
 19 17  1  0
 20 19  1  1
 20 22  1  0
 21 13  1  0
 21 20  1  0
 22 24  1  0
 23 22  2  0
M  END
$$$$
