TDL.pdb
     RDKit          3D

 24 23  0  0  1  0  0  0  0  0999 V2000
    9.2994  -12.6309   20.1582 C   0  0  0  0  0  0  0  0  0  0  0  0
    8.0262  -13.2364   19.6136 C   0  0  1  0  0  0  0  0  0  0  0  0
    7.8241  -12.7309   18.3300 O   0  0  0  0  0  0  0  0  0  0  0  0
    8.1393  -14.7446   19.5407 C   0  0  2  0  0  0  0  0  0  0  0  0
    6.9155  -15.2821   19.0053 N   0  0  0  0  0  0  0  0  0  0  0  0
    8.3311  -15.3033   20.9036 C   0  0  0  0  0  0  0  0  0  0  0  0
    7.3389  -15.3491   21.6526 O   0  0  0  0  0  0  0  0  0  0  0  0
    9.5830  -15.7775   21.3718 N   0  0  0  0  0  0  0  0  0  0  0  0
    9.7458  -16.4916   22.6214 C   0  0  1  0  0  0  0  0  0  0  0  0
   10.9077  -17.4326   22.6079 C   0  0  0  0  0  0  0  0  0  0  0  0
   10.9412  -18.3649   21.4988 C   0  0  0  0  0  0  0  0  0  0  0  0
   11.8337  -18.2783   20.6282 O   0  0  0  0  0  0  0  0  0  0  0  0
    9.7517  -15.5713   23.7887 C   0  0  0  0  0  0  0  0  0  0  0  0
   10.6492  -14.7034   23.9677 O   0  0  0  0  0  0  0  0  0  0  0  0
   10.0011  -19.3645   21.3706 O   0  0  0  0  0  0  0  0  0  0  0  0
    8.2148  -12.0644   25.9910 C   0  0  0  0  0  0  0  0  0  0  0  0
    7.1298  -13.1007   25.6529 C   0  0  2  0  0  0  0  0  0  0  0  0
    5.8195  -12.4831   25.9813 C   0  0  0  0  0  0  0  0  0  0  0  0
    7.4818  -14.3503   26.3704 C   0  0  0  0  0  0  0  0  0  0  0  0
    8.7866  -14.9765   26.0409 C   0  0  2  0  0  0  0  0  0  0  0  0
    8.7263  -15.6301   24.7741 N   0  0  0  0  0  0  0  0  0  0  0  0
    9.0444  -16.0138   27.1050 C   0  0  0  0  0  0  0  0  0  0  0  0
    8.8842  -17.2426   26.9052 O   0  0  0  0  0  0  0  0  0  0  0  0
    9.4756  -15.6155   28.3597 O   0  0  0  0  0  0  0  0  0  0  0  0
  2  1  1  6
  2  4  1  0
  3  2  1  0
  4  6  1  0
  4  5  1  1
  6  7  2  0
  8  6  1  0
  8  9  1  0
  9 13  1  0
  9 10  1  6
 10 11  1  0
 11 12  2  0
 11 15  1  0
 13 14  2  0
 17 16  1  1
 17 18  1  0
 19 17  1  0
 20 19  1  1
 20 22  1  0
 21 13  1  0
 21 20  1  0
 22 24  1  0
 23 22  2  0
M  END
$$$$
