TDL.pdb
     RDKit          3D

 24 23  0  0  1  0  0  0  0  0999 V2000
    7.9155  -12.6252   17.6535 C   0  0  0  0  0  0  0  0  0  0  0  0
    7.9014  -13.7760   18.6331 C   0  0  1  0  0  0  0  0  0  0  0  0
    8.3986  -14.9032   17.9799 O   0  0  0  0  0  0  0  0  0  0  0  0
    8.7763  -13.4704   19.8306 C   0  0  2  0  0  0  0  0  0  0  0  0
   10.1451  -13.3624   19.3970 N   0  0  0  0  0  0  0  0  0  0  0  0
    8.6904  -14.5793   20.8152 C   0  0  0  0  0  0  0  0  0  0  0  0
    7.5850  -14.7978   21.3421 O   0  0  0  0  0  0  0  0  0  0  0  0
    9.8045  -15.3825   21.1687 N   0  0  0  0  0  0  0  0  0  0  0  0
    9.7796  -16.3439   22.2518 C   0  0  1  0  0  0  0  0  0  0  0  0
   10.7973  -17.4278   22.0925 C   0  0  0  0  0  0  0  0  0  0  0  0
   10.8628  -18.0321   20.7769 C   0  0  0  0  0  0  0  0  0  0  0  0
    9.9391  -18.7721   20.3755 O   0  0  0  0  0  0  0  0  0  0  0  0
    9.8332  -15.6819   23.5816 C   0  0  0  0  0  0  0  0  0  0  0  0
   10.9182  -15.4139   24.1663 O   0  0  0  0  0  0  0  0  0  0  0  0
   11.9330  -17.8125   19.9368 O   0  0  0  0  0  0  0  0  0  0  0  0
    5.8107  -12.4297   26.8756 C   0  0  0  0  0  0  0  0  0  0  0  0
    7.1841  -13.1177   26.9500 C   0  0  2  0  0  0  0  0  0  0  0  0
    8.1780  -12.0706   27.2993 C   0  0  0  0  0  0  0  0  0  0  0  0
    7.3843  -13.8315   25.6653 C   0  0  0  0  0  0  0  0  0  0  0  0
    8.6075  -14.6621   25.5349 C   0  0  2  0  0  0  0  0  0  0  0  0
    8.6407  -15.3147   24.2665 N   0  0  0  0  0  0  0  0  0  0  0  0
    8.5282  -15.7129   26.6139 C   0  0  0  0  0  0  0  0  0  0  0  0
    8.8380  -15.4814   27.8081 O   0  0  0  0  0  0  0  0  0  0  0  0
    8.0990  -16.9909   26.2953 O   0  0  0  0  0  0  0  0  0  0  0  0
  2  1  1  6
  2  4  1  0
  3  2  1  0
  4  6  1  0
  4  5  1  6
  6  7  2  0
  8  6  1  0
  8  9  1  0
  9 13  1  0
  9 10  1  6
 10 11  1  0
 11 12  2  0
 11 15  1  0
 13 14  2  0
 17 16  1  6
 17 18  1  0
 19 17  1  0
 20 19  1  6
 20 22  1  0
 21 13  1  0
 21 20  1  0
 22 24  1  0
 23 22  2  0
M  END
$$$$
