TDL.pdb
     RDKit          3D

 24 23  0  0  1  0  0  0  0  0999 V2000
    7.1855  -13.0454   17.9983 C   0  0  0  0  0  0  0  0  0  0  0  0
    7.5261  -14.1760   18.9416 C   0  0  1  0  0  0  0  0  0  0  0  0
    8.4187  -15.0261   18.2898 O   0  0  0  0  0  0  0  0  0  0  0  0
    8.1772  -13.6444   20.2012 C   0  0  2  0  0  0  0  0  0  0  0  0
    9.4207  -13.0068   19.8540 N   0  0  0  0  0  0  0  0  0  0  0  0
    8.4769  -14.7665   21.1271 C   0  0  0  0  0  0  0  0  0  0  0  0
    7.5177  -15.4344   21.5529 O   0  0  0  0  0  0  0  0  0  0  0  0
    9.7944  -15.0966   21.5351 N   0  0  0  0  0  0  0  0  0  0  0  0
   10.0980  -16.1939   22.4304 C   0  0  1  0  0  0  0  0  0  0  0  0
   11.4799  -16.7335   22.2435 C   0  0  0  0  0  0  0  0  0  0  0  0
   11.7859  -17.2140   20.9109 C   0  0  0  0  0  0  0  0  0  0  0  0
   11.0971  -18.1188   20.3925 O   0  0  0  0  0  0  0  0  0  0  0  0
    9.7877  -15.8572   23.8446 C   0  0  0  0  0  0  0  0  0  0  0  0
   10.1163  -16.5998   24.8098 O   0  0  0  0  0  0  0  0  0  0  0  0
   12.8338  -16.6944   20.1818 O   0  0  0  0  0  0  0  0  0  0  0  0
    5.6413  -12.1439   26.3919 C   0  0  0  0  0  0  0  0  0  0  0  0
    6.8993  -12.9653   26.7206 C   0  0  2  0  0  0  0  0  0  0  0  0
    7.7603  -12.1175   27.5843 C   0  0  0  0  0  0  0  0  0  0  0  0
    7.4769  -13.4133   25.4299 C   0  0  0  0  0  0  0  0  0  0  0  0
    8.6450  -14.3271   25.4909 C   0  0  2  0  0  0  0  0  0  0  0  0
    9.0933  -14.6603   24.1781 N   0  0  0  0  0  0  0  0  0  0  0  0
    8.1680  -15.5866   26.1699 C   0  0  0  0  0  0  0  0  0  0  0  0
    8.5394  -15.9163   27.3227 O   0  0  0  0  0  0  0  0  0  0  0  0
    7.2846  -16.4269   25.5122 O   0  0  0  0  0  0  0  0  0  0  0  0
  2  1  1  6
  2  4  1  0
  3  2  1  0
  4  6  1  0
  4  5  1  6
  6  7  2  0
  8  6  1  0
  8  9  1  0
  9 13  1  0
  9 10  1  1
 10 11  1  0
 11 12  2  0
 11 15  1  0
 13 14  2  0
 17 16  1  6
 17 18  1  0
 19 17  1  0
 20 19  1  6
 20 22  1  0
 21 13  1  0
 21 20  1  0
 22 24  1  0
 23 22  2  0
M  END
$$$$
