TDL.pdb
     RDKit          3D

 24 23  0  0  1  0  0  0  0  0999 V2000
    8.4323  -12.4268   17.5609 C   0  0  0  0  0  0  0  0  0  0  0  0
    8.1068  -13.5556   18.5116 C   0  0  1  0  0  0  0  0  0  0  0  0
    8.3002  -14.7585   17.8336 O   0  0  0  0  0  0  0  0  0  0  0  0
    9.0170  -13.5160   19.7211 C   0  0  2  0  0  0  0  0  0  0  0  0
   10.3705  -13.7672   19.2989 N   0  0  0  0  0  0  0  0  0  0  0  0
    8.6281  -14.5807   20.6811 C   0  0  0  0  0  0  0  0  0  0  0  0
    7.4784  -14.5385   21.1540 O   0  0  0  0  0  0  0  0  0  0  0  0
    9.5061  -15.6244   21.0699 N   0  0  0  0  0  0  0  0  0  0  0  0
    9.2268  -16.5322   22.1635 C   0  0  1  0  0  0  0  0  0  0  0  0
   10.0090  -17.8038   22.0796 C   0  0  0  0  0  0  0  0  0  0  0  0
   11.2917  -17.7032   21.4129 C   0  0  0  0  0  0  0  0  0  0  0  0
   11.4204  -16.9875   20.3964 O   0  0  0  0  0  0  0  0  0  0  0  0
    9.3421  -15.8604   23.4845 C   0  0  0  0  0  0  0  0  0  0  0  0
   10.4216  -15.3594   23.9024 O   0  0  0  0  0  0  0  0  0  0  0  0
   12.3973  -18.3854   21.8732 O   0  0  0  0  0  0  0  0  0  0  0  0
    5.6526  -12.5701   26.8858 C   0  0  0  0  0  0  0  0  0  0  0  0
    6.9966  -13.3154   26.9452 C   0  0  2  0  0  0  0  0  0  0  0  0
    8.0491  -12.2974   27.1942 C   0  0  0  0  0  0  0  0  0  0  0  0
    7.1111  -14.1079   25.6966 C   0  0  0  0  0  0  0  0  0  0  0  0
    8.2333  -15.0754   25.6086 C   0  0  2  0  0  0  0  0  0  0  0  0
    8.2189  -15.7509   24.3519 N   0  0  0  0  0  0  0  0  0  0  0  0
    8.0104  -16.0901   26.7020 C   0  0  0  0  0  0  0  0  0  0  0  0
    7.1452  -16.9958   26.6188 O   0  0  0  0  0  0  0  0  0  0  0  0
    8.7805  -16.0380   27.8523 O   0  0  0  0  0  0  0  0  0  0  0  0
  2  1  1  6
  2  4  1  0
  3  2  1  0
  4  6  1  0
  4  5  1  6
  6  7  2  0
  8  6  1  0
  8  9  1  0
  9 13  1  0
  9 10  1  1
 10 11  1  0
 11 12  2  0
 11 15  1  0
 13 14  2  0
 17 16  1  6
 17 18  1  0
 19 17  1  0
 20 19  1  6
 20 22  1  0
 21 13  1  0
 21 20  1  0
 22 24  1  0
 23 22  2  0
M  END
$$$$
