WAC.pdb
     RDKit          3D

 26 27  0  0  1  0  0  0  0  0999 V2000
    6.2048  -17.8144   23.3888 N   0  0  0  0  0  0  0  0  0  0  0  0
    6.5666  -16.4120   23.2444 C   0  0  1  0  0  0  0  0  0  0  0  0
    7.5819  -16.0105   24.3017 C   0  0  0  0  0  0  0  0  0  0  0  0
    6.9335  -15.2838   25.4215 C   0  0  0  0  0  0  0  0  0  0  0  0
    6.0035  -15.7937   26.3284 C   0  0  0  0  0  0  0  0  0  0  0  0
    5.6806  -14.7957   27.1692 N   0  0  0  0  0  0  0  0  0  0  0  0
    6.3604  -13.6749   26.8412 C   0  0  0  0  0  0  0  0  0  0  0  0
    6.3899  -12.4019   27.3748 C   0  0  0  0  0  0  0  0  0  0  0  0
    7.2137  -11.4421   26.7989 C   0  0  0  0  0  0  0  0  0  0  0  0
    8.0052  -11.7178   25.7094 C   0  0  0  0  0  0  0  0  0  0  0  0
    7.9766  -12.9884   25.1758 C   0  0  0  0  0  0  0  0  0  0  0  0
    7.1487  -13.9489   25.7563 C   0  0  0  0  0  0  0  0  0  0  0  0
    7.1511  -16.1437   21.9063 C   0  0  0  0  0  0  0  0  0  0  0  0
    7.5096  -17.1105   21.2117 O   0  0  0  0  0  0  0  0  0  0  0  0
    7.7185  -13.1935   19.6880 C   0  0  0  0  0  0  0  0  0  0  0  0
    7.8361  -14.6693   20.0253 C   0  0  2  0  0  0  0  0  0  0  0  0
    7.3263  -14.8425   21.3694 N   0  0  0  0  0  0  0  0  0  0  0  0
    9.2689  -15.1055   19.9679 C   0  0  0  0  0  0  0  0  0  0  0  0
    9.9437  -14.9315   18.9327 O   0  0  0  0  0  0  0  0  0  0  0  0
    9.8981  -15.7236   21.0765 N   0  0  0  0  0  0  0  0  0  0  0  0
   11.2203  -16.2469   21.0859 C   0  0  1  0  0  0  0  0  0  0  0  0
   11.9124  -16.1233   22.4219 C   0  0  0  0  0  0  0  0  0  0  0  0
   11.5367  -14.5615   23.2379 S   0  0  0  0  0  0  0  0  0  0  0  0
   11.1778  -17.6870   20.7375 C   0  0  0  0  0  0  0  0  0  0  0  0
   10.0813  -18.3058   20.6039 O   0  0  0  0  0  0  0  0  0  0  0  0
   12.3508  -18.3817   20.5517 O   0  0  0  0  0  0  0  0  0  0  0  0
  2  1  1  6
  2 13  1  0
  3  4  1  0
  3  2  1  0
  4 12  1  0
  5  4  2  0
  5  6  1  0
  6  7  1  0
  7  8  1  0
  8  9  2  0
 10  9  1  0
 11 10  2  0
 12  7  2  0
 12 11  1  0
 13 14  2  0
 16 15  1  1
 16 18  1  0
 17 13  1  0
 17 16  1  0
 18 20  1  0
 18 19  2  0
 20 21  1  0
 21 24  1  0
 21 22  1  1
 22 23  1  0
 24 25  2  0
 24 26  1  0
M  END
$$$$
