WAC.pdb
     RDKit          3D

 26 27  0  0  1  0  0  0  0  0999 V2000
    6.6319  -18.5045   24.6207 N   0  0  0  0  0  0  0  0  0  0  0  0
    6.7763  -17.0988   24.2723 C   0  0  1  0  0  0  0  0  0  0  0  0
    7.6617  -16.3864   25.2814 C   0  0  0  0  0  0  0  0  0  0  0  0
    6.9670  -15.2171   25.8755 C   0  0  0  0  0  0  0  0  0  0  0  0
    5.6604  -15.1742   26.3638 C   0  0  0  0  0  0  0  0  0  0  0  0
    5.4428  -13.9233   26.8056 N   0  0  0  0  0  0  0  0  0  0  0  0
    6.5481  -13.1679   26.6222 C   0  0  0  0  0  0  0  0  0  0  0  0
    6.8420  -11.8474   26.8979 C   0  0  0  0  0  0  0  0  0  0  0  0
    8.1014  -11.3510   26.5832 C   0  0  0  0  0  0  0  0  0  0  0  0
    9.0709  -12.1341   26.0031 C   0  0  0  0  0  0  0  0  0  0  0  0
    8.7786  -13.4527   25.7274 C   0  0  0  0  0  0  0  0  0  0  0  0
    7.5138  -13.9472   26.0446 C   0  0  0  0  0  0  0  0  0  0  0  0
    7.3782  -16.9392   22.9245 C   0  0  0  0  0  0  0  0  0  0  0  0
    7.9921  -17.9016   22.4321 O   0  0  0  0  0  0  0  0  0  0  0  0
    7.4927  -14.3674   20.2219 C   0  0  0  0  0  0  0  0  0  0  0  0
    7.9657  -15.6510   20.8808 C   0  0  2  0  0  0  0  0  0  0  0  0
    7.2943  -15.7473   22.1601 N   0  0  0  0  0  0  0  0  0  0  0  0
    9.4494  -15.6145   21.0900 C   0  0  0  0  0  0  0  0  0  0  0  0
   10.2237  -15.4912   20.1192 O   0  0  0  0  0  0  0  0  0  0  0  0
   10.0159  -15.7178   22.3843 N   0  0  0  0  0  0  0  0  0  0  0  0
   11.4052  -15.6584   22.6817 C   0  0  1  0  0  0  0  0  0  0  0  0
   11.7053  -15.2191   24.0945 C   0  0  0  0  0  0  0  0  0  0  0  0
   10.7615  -16.1558   25.3104 S   0  0  0  0  0  0  0  0  0  0  0  0
   12.0018  -17.0027   22.4968 C   0  0  0  0  0  0  0  0  0  0  0  0
   11.2841  -18.0246   22.2877 O   0  0  0  0  0  0  0  0  0  0  0  0
   13.3676  -17.1593   22.5511 O   0  0  0  0  0  0  0  0  0  0  0  0
  2  1  1  1
  2 13  1  0
  3  4  1  0
  3  2  1  0
  4 12  1  0
  5  4  2  0
  5  6  1  0
  6  7  1  0
  7  8  1  0
  8  9  2  0
 10  9  1  0
 11 10  2  0
 12  7  2  0
 12 11  1  0
 13 14  2  0
 16 15  1  1
 16 18  1  0
 17 13  1  0
 17 16  1  0
 18 20  1  0
 18 19  2  0
 20 21  1  0
 21 24  1  0
 21 22  1  1
 22 23  1  0
 24 25  2  0
 24 26  1  0
M  END
$$$$
