WAC.pdb
     RDKit          3D

 26 27  0  0  1  0  0  0  0  0999 V2000
    6.1465  -18.3890   24.1259 N   0  0  0  0  0  0  0  0  0  0  0  0
    6.4393  -16.9786   23.9179 C   0  0  1  0  0  0  0  0  0  0  0  0
    7.3198  -16.4451   25.0359 C   0  0  0  0  0  0  0  0  0  0  0  0
    6.6729  -15.3055   25.7328 C   0  0  0  0  0  0  0  0  0  0  0  0
    5.3804  -15.2648   26.2572 C   0  0  0  0  0  0  0  0  0  0  0  0
    5.2088  -14.0450   26.7957 N   0  0  0  0  0  0  0  0  0  0  0  0
    6.3300  -13.3073   26.6392 C   0  0  0  0  0  0  0  0  0  0  0  0
    6.6676  -12.0191   27.0037 C   0  0  0  0  0  0  0  0  0  0  0  0
    7.9323  -11.5338   26.6932 C   0  0  0  0  0  0  0  0  0  0  0  0
    8.8650  -12.2966   26.0315 C   0  0  0  0  0  0  0  0  0  0  0  0
    8.5291  -13.5829   25.6672 C   0  0  0  0  0  0  0  0  0  0  0  0
    7.2590  -14.0664   25.9805 C   0  0  0  0  0  0  0  0  0  0  0  0
    7.1372  -16.7603   22.6258 C   0  0  0  0  0  0  0  0  0  0  0  0
    7.6707  -17.7352   22.0686 O   0  0  0  0  0  0  0  0  0  0  0  0
    7.5677  -13.9915   20.1638 C   0  0  0  0  0  0  0  0  0  0  0  0
    7.8714  -15.3827   20.6908 C   0  0  2  0  0  0  0  0  0  0  0  0
    7.2326  -15.4984   21.9850 N   0  0  0  0  0  0  0  0  0  0  0  0
    9.3507  -15.5737   20.8382 C   0  0  0  0  0  0  0  0  0  0  0  0
   10.1075  -15.4479   19.8540 O   0  0  0  0  0  0  0  0  0  0  0  0
    9.9326  -15.9003   22.0878 N   0  0  0  0  0  0  0  0  0  0  0  0
   11.3201  -16.1079   22.3204 C   0  0  1  0  0  0  0  0  0  0  0  0
   11.7031  -16.0700   23.7802 C   0  0  0  0  0  0  0  0  0  0  0  0
   11.1625  -14.5506   24.5835 S   0  0  0  0  0  0  0  0  0  0  0  0
   11.7103  -17.4365   21.7916 C   0  0  0  0  0  0  0  0  0  0  0  0
   12.9138  -17.8295   21.8059 O   0  0  0  0  0  0  0  0  0  0  0  0
   10.7520  -18.2742   21.2692 O   0  0  0  0  0  0  0  0  0  0  0  0
  2  1  1  1
  2 13  1  0
  3  4  1  0
  3  2  1  0
  4 12  1  0
  5  4  2  0
  5  6  1  0
  6  7  1  0
  7  8  1  0
  8  9  2  0
 10  9  1  0
 11 10  2  0
 12  7  2  0
 12 11  1  0
 13 14  2  0
 16 15  1  1
 16 18  1  0
 17 13  1  0
 17 16  1  0
 18 20  1  0
 18 19  2  0
 20 21  1  0
 21 24  1  0
 21 22  1  1
 22 23  1  0
 24 25  2  0
 24 26  1  0
M  END
$$$$
