WAC.pdb
     RDKit          3D

 26 27  0  0  1  0  0  0  0  0999 V2000
    6.5486  -18.0733   24.1499 N   0  0  0  0  0  0  0  0  0  0  0  0
    6.8298  -16.6858   23.8123 C   0  0  1  0  0  0  0  0  0  0  0  0
    7.7176  -16.0482   24.8683 C   0  0  0  0  0  0  0  0  0  0  0  0
    6.9496  -15.1043   25.7180 C   0  0  0  0  0  0  0  0  0  0  0  0
    5.7850  -15.3768   26.4370 C   0  0  0  0  0  0  0  0  0  0  0  0
    5.4292  -14.2407   27.0615 N   0  0  0  0  0  0  0  0  0  0  0  0
    6.3114  -13.2582   26.7747 C   0  0  0  0  0  0  0  0  0  0  0  0
    6.4003  -11.9333   27.1529 C   0  0  0  0  0  0  0  0  0  0  0  0
    7.4528  -11.1598   26.6782 C   0  0  0  0  0  0  0  0  0  0  0  0
    8.4147  -11.6711   25.8398 C   0  0  0  0  0  0  0  0  0  0  0  0
    8.3269  -12.9938   25.4616 C   0  0  0  0  0  0  0  0  0  0  0  0
    7.2693  -13.7668   25.9399 C   0  0  0  0  0  0  0  0  0  0  0  0
    7.5137  -16.5813   22.4986 C   0  0  0  0  0  0  0  0  0  0  0  0
    8.2254  -17.5294   22.1242 O   0  0  0  0  0  0  0  0  0  0  0  0
    7.6354  -14.2071   19.6194 C   0  0  0  0  0  0  0  0  0  0  0  0
    8.1250  -15.4235   20.3851 C   0  0  2  0  0  0  0  0  0  0  0  0
    7.4033  -15.4578   21.6398 N   0  0  0  0  0  0  0  0  0  0  0  0
    9.5962  -15.3158   20.6508 C   0  0  0  0  0  0  0  0  0  0  0  0
   10.1874  -14.2257   20.5120 O   0  0  0  0  0  0  0  0  0  0  0  0
   10.3563  -16.4374   21.0645 N   0  0  0  0  0  0  0  0  0  0  0  0
   11.7220  -16.4055   21.4595 C   0  0  1  0  0  0  0  0  0  0  0  0
   11.9727  -15.6022   22.7130 C   0  0  0  0  0  0  0  0  0  0  0  0
   11.1211  -16.2934   24.1425 S   0  0  0  0  0  0  0  0  0  0  0  0
   12.1884  -17.7889   21.7161 C   0  0  0  0  0  0  0  0  0  0  0  0
   11.3849  -18.7671   21.7383 O   0  0  0  0  0  0  0  0  0  0  0  0
   13.5246  -18.0313   21.9374 O   0  0  0  0  0  0  0  0  0  0  0  0
  2  1  1  1
  2 13  1  0
  3  4  1  0
  3  2  1  0
  4 12  1  0
  5  4  2  0
  5  6  1  0
  6  7  1  0
  7  8  1  0
  8  9  2  0
 10  9  1  0
 11 10  2  0
 12  7  2  0
 12 11  1  0
 13 14  2  0
 16 15  1  6
 16 18  1  0
 17 13  1  0
 17 16  1  0
 18 20  1  0
 18 19  2  0
 20 21  1  0
 21 24  1  0
 21 22  1  1
 22 23  1  0
 24 25  2  0
 24 26  1  0
M  END
$$$$
