WAC.pdb
     RDKit          3D

 26 27  0  0  1  0  0  0  0  0999 V2000
    7.7144  -18.1082   25.5783 N   0  0  0  0  0  0  0  0  0  0  0  0
    7.2033  -17.1292   24.6305 C   0  0  1  0  0  0  0  0  0  0  0  0
    8.1292  -15.9265   24.5529 C   0  0  0  0  0  0  0  0  0  0  0  0
    8.1534  -15.1826   25.8369 C   0  0  0  0  0  0  0  0  0  0  0  0
    8.7896  -15.5652   27.0185 C   0  0  0  0  0  0  0  0  0  0  0  0
    8.5529  -14.6024   27.9264 N   0  0  0  0  0  0  0  0  0  0  0  0
    7.7966  -13.6253   27.3795 C   0  0  0  0  0  0  0  0  0  0  0  0
    7.2869  -12.4414   27.8743 C   0  0  0  0  0  0  0  0  0  0  0  0
    6.5255  -11.6287   27.0428 C   0  0  0  0  0  0  0  0  0  0  0  0
    6.2603  -11.9648   25.7366 C   0  0  0  0  0  0  0  0  0  0  0  0
    6.7687  -13.1466   25.2415 C   0  0  0  0  0  0  0  0  0  0  0  0
    7.5323  -13.9595   26.0788 C   0  0  0  0  0  0  0  0  0  0  0  0
    7.0773  -17.7132   23.2713 C   0  0  0  0  0  0  0  0  0  0  0  0
    7.8774  -18.6021   22.9320 O   0  0  0  0  0  0  0  0  0  0  0  0
    4.6675  -17.6219   20.4401 C   0  0  0  0  0  0  0  0  0  0  0  0
    6.0291  -17.9459   21.0289 C   0  0  2  0  0  0  0  0  0  0  0  0
    6.0928  -17.3153   22.3308 N   0  0  0  0  0  0  0  0  0  0  0  0
    7.1187  -17.4068   20.1522 C   0  0  0  0  0  0  0  0  0  0  0  0
    7.4453  -18.0045   19.1066 O   0  0  0  0  0  0  0  0  0  0  0  0
    7.8069  -16.2124   20.4788 N   0  0  0  0  0  0  0  0  0  0  0  0
    8.8632  -15.6375   19.7199 C   0  0  1  0  0  0  0  0  0  0  0  0
    8.9291  -14.1322   19.8145 C   0  0  0  0  0  0  0  0  0  0  0  0
    7.3430  -13.3601   19.4477 S   0  0  0  0  0  0  0  0  0  0  0  0
   10.1585  -16.1715   20.2037 C   0  0  0  0  0  0  0  0  0  0  0  0
   10.2263  -16.9419   21.2062 O   0  0  0  0  0  0  0  0  0  0  0  0
   11.3243  -15.8304   19.5575 O   0  0  0  0  0  0  0  0  0  0  0  0
  2  1  1  1
  2 13  1  0
  3  4  1  0
  3  2  1  0
  4 12  1  0
  5  4  2  0
  5  6  1  0
  6  7  1  0
  7  8  1  0
  8  9  2  0
 10  9  1  0
 11 10  2  0
 12  7  2  0
 12 11  1  0
 13 14  2  0
 16 15  1  6
 16 18  1  0
 17 13  1  0
 17 16  1  0
 18 20  1  0
 18 19  2  0
 20 21  1  0
 21 24  1  0
 21 22  1  1
 22 23  1  0
 24 25  2  0
 24 26  1  0
M  END
$$$$
