WAC.pdb
     RDKit          3D

 26 27  0  0  1  0  0  0  0  0999 V2000
    7.0747  -17.8302   24.1186 N   0  0  0  0  0  0  0  0  0  0  0  0
    7.9445  -16.6708   23.9862 C   0  0  1  0  0  0  0  0  0  0  0  0
    8.1200  -15.9785   25.3278 C   0  0  0  0  0  0  0  0  0  0  0  0
    6.9518  -15.1206   25.6472 C   0  0  0  0  0  0  0  0  0  0  0  0
    5.6866  -15.5418   26.0586 C   0  0  0  0  0  0  0  0  0  0  0  0
    4.9386  -14.4386   26.2340 N   0  0  0  0  0  0  0  0  0  0  0  0
    5.6669  -13.3354   25.9542 C   0  0  0  0  0  0  0  0  0  0  0  0
    5.3769  -11.9857   25.9759 C   0  0  0  0  0  0  0  0  0  0  0  0
    6.3641  -11.0723   25.6257 C   0  0  0  0  0  0  0  0  0  0  0  0
    7.6274  -11.4684   25.2558 C   0  0  0  0  0  0  0  0  0  0  0  0
    7.9180  -12.8157   25.2337 C   0  0  0  0  0  0  0  0  0  0  0  0
    6.9249  -13.7293   25.5858 C   0  0  0  0  0  0  0  0  0  0  0  0
    9.2848  -17.0605   23.4801 C   0  0  0  0  0  0  0  0  0  0  0  0
    9.6698  -18.2286   23.6615 O   0  0  0  0  0  0  0  0  0  0  0  0
   12.0327  -15.5482   21.4595 C   0  0  0  0  0  0  0  0  0  0  0  0
   11.4649  -16.6246   22.3674 C   0  0  2  0  0  0  0  0  0  0  0  0
   10.1577  -16.1747   22.7980 N   0  0  0  0  0  0  0  0  0  0  0  0
   12.3502  -16.8217   23.5607 C   0  0  0  0  0  0  0  0  0  0  0  0
   13.5461  -17.1473   23.4160 O   0  0  0  0  0  0  0  0  0  0  0  0
   11.8629  -16.6463   24.8792 N   0  0  0  0  0  0  0  0  0  0  0  0
   12.6371  -16.7685   26.0657 C   0  0  1  0  0  0  0  0  0  0  0  0
   11.9329  -16.2690   27.3042 C   0  0  0  0  0  0  0  0  0  0  0  0
   11.5415  -14.5134   27.1996 S   0  0  0  0  0  0  0  0  0  0  0  0
   12.9691  -18.1961   26.2871 C   0  0  0  0  0  0  0  0  0  0  0  0
   12.5802  -19.0996   25.4898 O   0  0  0  0  0  0  0  0  0  0  0  0
   13.7175  -18.5636   27.3815 O   0  0  0  0  0  0  0  0  0  0  0  0
  2  1  1  1
  2 13  1  0
  3  4  1  0
  3  2  1  0
  4 12  1  0
  5  4  2  0
  5  6  1  0
  6  7  1  0
  7  8  1  0
  8  9  2  0
 10  9  1  0
 11 10  2  0
 12  7  2  0
 12 11  1  0
 13 14  2  0
 16 15  1  6
 16 18  1  0
 17 13  1  0
 17 16  1  0
 18 20  1  0
 18 19  2  0
 20 21  1  0
 21 24  1  0
 21 22  1  1
 22 23  1  0
 24 25  2  0
 24 26  1  0
M  END
$$$$
