WAC.pdb
     RDKit          3D

 26 27  0  0  1  0  0  0  0  0999 V2000
    6.8001  -17.6062   24.1818 N   0  0  0  0  0  0  0  0  0  0  0  0
    7.7659  -16.5224   24.0783 C   0  0  1  0  0  0  0  0  0  0  0  0
    7.9935  -15.8780   25.4359 C   0  0  0  0  0  0  0  0  0  0  0  0
    6.9144  -14.9123   25.7606 C   0  0  0  0  0  0  0  0  0  0  0  0
    5.6198  -15.2104   26.1880 C   0  0  0  0  0  0  0  0  0  0  0  0
    4.9803  -14.0409   26.3627 N   0  0  0  0  0  0  0  0  0  0  0  0
    5.8056  -13.0126   26.0671 C   0  0  0  0  0  0  0  0  0  0  0  0
    5.6435  -11.6416   26.0816 C   0  0  0  0  0  0  0  0  0  0  0  0
    6.7080  -10.8271   25.7143 C   0  0  0  0  0  0  0  0  0  0  0  0
    7.9246  -11.3422   25.3346 C   0  0  0  0  0  0  0  0  0  0  0  0
    8.0876  -12.7109   25.3198 C   0  0  0  0  0  0  0  0  0  0  0  0
    7.0171  -13.5251   25.6890 C   0  0  0  0  0  0  0  0  0  0  0  0
    9.0705  -17.0131   23.5669 C   0  0  0  0  0  0  0  0  0  0  0  0
    9.4027  -18.1844   23.8187 O   0  0  0  0  0  0  0  0  0  0  0  0
   11.8303  -15.8258   21.3654 C   0  0  0  0  0  0  0  0  0  0  0  0
   11.2728  -16.7334   22.4476 C   0  0  2  0  0  0  0  0  0  0  0  0
    9.9661  -16.2211   22.8037 N   0  0  0  0  0  0  0  0  0  0  0  0
   12.1660  -16.7207   23.6511 C   0  0  0  0  0  0  0  0  0  0  0  0
   13.3521  -17.0986   23.5643 O   0  0  0  0  0  0  0  0  0  0  0  0
   11.6974  -16.2833   24.9144 N   0  0  0  0  0  0  0  0  0  0  0  0
   12.4470  -16.3051   26.1227 C   0  0  1  0  0  0  0  0  0  0  0  0
   11.8421  -15.4725   27.2272 C   0  0  0  0  0  0  0  0  0  0  0  0
   11.2303  -13.8885   26.6245 S   0  0  0  0  0  0  0  0  0  0  0  0
   12.5384  -17.7001   26.6153 C   0  0  0  0  0  0  0  0  0  0  0  0
   11.9878  -18.6593   25.9991 O   0  0  0  0  0  0  0  0  0  0  0  0
   13.2355  -17.9747   27.7693 O   0  0  0  0  0  0  0  0  0  0  0  0
  2  1  1  1
  2 13  1  0
  3  4  1  0
  3  2  1  0
  4 12  1  0
  5  4  2  0
  5  6  1  0
  6  7  1  0
  7  8  1  0
  8  9  2  0
 10  9  1  0
 11 10  2  0
 12  7  2  0
 12 11  1  0
 13 14  2  0
 16 15  1  6
 16 18  1  0
 17 13  1  0
 17 16  1  0
 18 20  1  0
 18 19  2  0
 20 21  1  0
 21 24  1  0
 21 22  1  1
 22 23  1  0
 24 25  2  0
 24 26  1  0
M  END
$$$$
