WAC.pdb
     RDKit          3D

 26 27  0  0  1  0  0  0  0  0999 V2000
    6.0413  -18.1188   24.4283 N   0  0  0  0  0  0  0  0  0  0  0  0
    6.6049  -16.7945   24.2119 C   0  0  1  0  0  0  0  0  0  0  0  0
    7.7872  -16.5591   25.1375 C   0  0  0  0  0  0  0  0  0  0  0  0
    7.4150  -15.6776   26.2719 C   0  0  0  0  0  0  0  0  0  0  0  0
    7.1463  -16.0654   27.5852 C   0  0  0  0  0  0  0  0  0  0  0  0
    6.8509  -14.9504   28.2758 N   0  0  0  0  0  0  0  0  0  0  0  0
    6.9187  -13.8715   27.4652 C   0  0  0  0  0  0  0  0  0  0  0  0
    6.7110  -12.5226   27.6743 C   0  0  0  0  0  0  0  0  0  0  0  0
    6.8616  -11.6388   26.6125 C   0  0  0  0  0  0  0  0  0  0  0  0
    7.2123  -12.0634   25.3530 C   0  0  0  0  0  0  0  0  0  0  0  0
    7.4199  -13.4098   25.1430 C   0  0  0  0  0  0  0  0  0  0  0  0
    7.2679  -14.2938   26.2110 C   0  0  0  0  0  0  0  0  0  0  0  0
    7.0660  -16.6302   22.8102 C   0  0  0  0  0  0  0  0  0  0  0  0
    7.5031  -17.6270   22.2096 O   0  0  0  0  0  0  0  0  0  0  0  0
    7.1137  -13.9643   20.2021 C   0  0  0  0  0  0  0  0  0  0  0  0
    7.5368  -15.3141   20.7541 C   0  0  2  0  0  0  0  0  0  0  0  0
    7.0377  -15.3964   22.1108 N   0  0  0  0  0  0  0  0  0  0  0  0
    9.0310  -15.4319   20.7570 C   0  0  0  0  0  0  0  0  0  0  0  0
    9.6733  -15.3777   19.6885 O   0  0  0  0  0  0  0  0  0  0  0  0
    9.7559  -15.6070   21.9614 N   0  0  0  0  0  0  0  0  0  0  0  0
   11.1686  -15.7367   22.0601 C   0  0  1  0  0  0  0  0  0  0  0  0
   11.6819  -15.7194   23.4798 C   0  0  0  0  0  0  0  0  0  0  0  0
   10.6318  -14.7402   24.5683 S   0  0  0  0  0  0  0  0  0  0  0  0
   11.5845  -17.0227   21.4515 C   0  0  0  0  0  0  0  0  0  0  0  0
   10.7378  -17.8444   20.9922 O   0  0  0  0  0  0  0  0  0  0  0  0
   12.9200  -17.3450   21.3769 O   0  0  0  0  0  0  0  0  0  0  0  0
  2  1  1  6
  2 13  1  0
  3  4  1  0
  3  2  1  0
  4 12  1  0
  5  4  2  0
  5  6  1  0
  6  7  1  0
  7  8  1  0
  8  9  2  0
 10  9  1  0
 11 10  2  0
 12  7  2  0
 12 11  1  0
 13 14  2  0
 16 15  1  1
 16 18  1  0
 17 13  1  0
 17 16  1  0
 18 20  1  0
 18 19  2  0
 20 21  1  0
 21 24  1  0
 21 22  1  1
 22 23  1  0
 24 25  2  0
 24 26  1  0
M  END
$$$$
