WAC.pdb
     RDKit          3D

 26 27  0  0  1  0  0  0  0  0999 V2000
    7.8012  -17.7947   25.8831 N   0  0  0  0  0  0  0  0  0  0  0  0
    7.1761  -16.8858   24.9336 C   0  0  1  0  0  0  0  0  0  0  0  0
    8.0494  -15.6621   24.7108 C   0  0  0  0  0  0  0  0  0  0  0  0
    8.1969  -14.8722   25.9585 C   0  0  0  0  0  0  0  0  0  0  0  0
    8.9567  -15.2062   27.0804 C   0  0  0  0  0  0  0  0  0  0  0  0
    8.8031  -14.2134   27.9737 N   0  0  0  0  0  0  0  0  0  0  0  0
    7.9820  -13.2635   27.4745 C   0  0  0  0  0  0  0  0  0  0  0  0
    7.5114  -12.0671   27.9778 C   0  0  0  0  0  0  0  0  0  0  0  0
    6.6578  -11.2918   27.2020 C   0  0  0  0  0  0  0  0  0  0  0  0
    6.2632  -11.6771   25.9429 C   0  0  0  0  0  0  0  0  0  0  0  0
    6.7325  -12.8714   25.4394 C   0  0  0  0  0  0  0  0  0  0  0  0
    7.5888  -13.6467   26.2208 C   0  0  0  0  0  0  0  0  0  0  0  0
    6.9531  -17.5483   23.6237 C   0  0  0  0  0  0  0  0  0  0  0  0
    7.7068  -18.4811   23.2958 O   0  0  0  0  0  0  0  0  0  0  0  0
    4.4131  -17.5440   20.9077 C   0  0  0  0  0  0  0  0  0  0  0  0
    5.8019  -17.8485   21.4407 C   0  0  2  0  0  0  0  0  0  0  0  0
    5.9256  -17.1787   22.7184 N   0  0  0  0  0  0  0  0  0  0  0  0
    6.8473  -17.3351   20.4973 C   0  0  0  0  0  0  0  0  0  0  0  0
    6.9529  -17.8103   19.3483 O   0  0  0  0  0  0  0  0  0  0  0  0
    7.7413  -16.3033   20.8757 N   0  0  0  0  0  0  0  0  0  0  0  0
    8.7205  -15.7121   20.0308 C   0  0  1  0  0  0  0  0  0  0  0  0
    8.7110  -14.2026   20.0546 C   0  0  0  0  0  0  0  0  0  0  0  0
    7.0848  -13.5290   19.6699 S   0  0  0  0  0  0  0  0  0  0  0  0
   10.0680  -16.1561   20.4602 C   0  0  0  0  0  0  0  0  0  0  0  0
   10.2330  -16.8803   21.4856 O   0  0  0  0  0  0  0  0  0  0  0  0
   11.1760  -15.7799   19.7366 O   0  0  0  0  0  0  0  0  0  0  0  0
  2  1  1  1
  2 13  1  0
  3  4  1  0
  3  2  1  0
  4 12  1  0
  5  4  2  0
  5  6  1  0
  6  7  1  0
  7  8  1  0
  8  9  2  0
 10  9  1  0
 11 10  2  0
 12  7  2  0
 12 11  1  0
 13 14  2  0
 16 15  1  6
 16 18  1  0
 17 13  1  0
 17 16  1  0
 18 20  1  0
 18 19  2  0
 20 21  1  0
 21 24  1  0
 21 22  1  1
 22 23  1  0
 24 25  2  0
 24 26  1  0
M  END
$$$$
