WAC.pdb
     RDKit          3D

 26 27  0  0  1  0  0  0  0  0999 V2000
    6.6218  -18.5150   24.9280 N   0  0  0  0  0  0  0  0  0  0  0  0
    6.7351  -17.0969   24.6210 C   0  0  1  0  0  0  0  0  0  0  0  0
    7.3963  -16.3526   25.7693 C   0  0  0  0  0  0  0  0  0  0  0  0
    6.5966  -15.1700   26.1751 C   0  0  0  0  0  0  0  0  0  0  0  0
    5.2384  -15.1427   26.4945 C   0  0  0  0  0  0  0  0  0  0  0  0
    4.9284  -13.8711   26.8014 N   0  0  0  0  0  0  0  0  0  0  0  0
    6.0240  -13.0876   26.6927 C   0  0  0  0  0  0  0  0  0  0  0  0
    6.2399  -11.7386   26.8921 C   0  0  0  0  0  0  0  0  0  0  0  0
    7.5127  -11.2171   26.6939 C   0  0  0  0  0  0  0  0  0  0  0  0
    8.5711  -12.0026   26.3036 C   0  0  0  0  0  0  0  0  0  0  0  0
    8.3567  -13.3496   26.1042 C   0  0  0  0  0  0  0  0  0  0  0  0
    7.0781  -13.8694   26.3041 C   0  0  0  0  0  0  0  0  0  0  0  0
    7.5401  -16.8764   23.3931 C   0  0  0  0  0  0  0  0  0  0  0  0
    8.5358  -17.5955   23.2005 O   0  0  0  0  0  0  0  0  0  0  0  0
    7.5810  -14.4918   20.5146 C   0  0  0  0  0  0  0  0  0  0  0  0
    8.1444  -15.6526   21.3151 C   0  0  2  0  0  0  0  0  0  0  0  0
    7.2397  -15.8883   22.4207 N   0  0  0  0  0  0  0  0  0  0  0  0
    9.5065  -15.3124   21.8400 C   0  0  0  0  0  0  0  0  0  0  0  0
    9.7541  -14.1654   22.2647 O   0  0  0  0  0  0  0  0  0  0  0  0
   10.5475  -16.2727   21.8709 N   0  0  0  0  0  0  0  0  0  0  0  0
   11.8483  -16.0594   22.4043 C   0  0  1  0  0  0  0  0  0  0  0  0
   11.8537  -15.7296   23.8775 C   0  0  0  0  0  0  0  0  0  0  0  0
   11.1418  -17.0535   24.8709 S   0  0  0  0  0  0  0  0  0  0  0  0
   12.6590  -17.2865   22.2194 C   0  0  0  0  0  0  0  0  0  0  0  0
   13.8993  -17.3074   22.4731 O   0  0  0  0  0  0  0  0  0  0  0  0
   12.0628  -18.4388   21.7615 O   0  0  0  0  0  0  0  0  0  0  0  0
  2  1  1  1
  2 13  1  0
  3  4  1  0
  3  2  1  0
  4 12  1  0
  5  4  2  0
  5  6  1  0
  6  7  1  0
  7  8  1  0
  8  9  2  0
 10  9  1  0
 11 10  2  0
 12  7  2  0
 12 11  1  0
 13 14  2  0
 16 15  1  1
 16 18  1  0
 17 13  1  0
 17 16  1  0
 18 20  1  0
 18 19  2  0
 20 21  1  0
 21 24  1  0
 21 22  1  1
 22 23  1  0
 24 25  2  0
 24 26  1  0
M  END
$$$$
