MNH.pdb
     RDKit          3D

 27 27  0  0  1  0  0  0  0  0999 V2000
   31.0025  -21.7226   -8.0751 C   0  0  0  0  0  0  0  0  0  0  0  0
   31.8089  -22.6652   -9.3868 S   0  0  0  0  0  0  0  0  0  0  0  0
   32.1246  -21.5570  -10.8141 C   0  0  0  0  0  0  0  0  0  0  0  0
   30.8140  -20.9128  -11.1425 C   0  0  0  0  0  0  0  0  0  0  0  0
   30.0988  -21.5106  -12.3285 C   0  0  2  0  0  0  0  0  0  0  0  0
   31.0917  -21.5618  -13.3968 N   0  0  0  0  0  0  0  0  0  0  0  0
   28.9575  -20.6617  -12.6817 C   0  0  0  0  0  0  0  0  0  0  0  0
   29.0465  -19.4104  -12.6305 O   0  0  0  0  0  0  0  0  0  0  0  0
   26.0255  -20.1166  -16.9896 N   0  0  0  0  0  0  0  0  0  0  0  0
   27.3145  -20.6060  -16.7927 C   0  0  0  0  0  0  0  0  0  0  0  0
   28.0507  -20.7284  -17.8304 O   0  0  0  0  0  0  0  0  0  0  0  0
   27.9303  -21.0005  -15.5220 C   0  0  0  0  0  0  0  0  0  0  0  0
   27.0775  -20.7687  -14.3200 C   0  0  2  0  0  0  0  0  0  0  0  0
   27.6887  -21.2044  -13.1007 N   0  0  0  0  0  0  0  0  0  0  0  0
   25.7353  -21.3828  -14.5321 C   0  0  0  0  0  0  0  0  0  0  0  0
   25.7114  -22.5731  -14.9342 O   0  0  0  0  0  0  0  0  0  0  0  0
   24.5283  -20.6824  -14.2996 N   0  0  0  0  0  0  0  0  0  0  0  0
   23.7991  -20.7774  -13.0068 C   0  0  1  0  0  0  0  0  0  0  0  0
   24.7501  -20.6765  -11.8763 C   0  0  0  0  0  0  0  0  0  0  0  0
   24.2183  -20.6963  -10.5190 C   0  0  0  0  0  0  0  0  0  0  0  0
   24.0719  -19.7460   -9.5647 C   0  0  0  0  0  0  0  0  0  0  0  0
   23.4507  -20.3269   -8.5141 N   0  0  0  0  0  0  0  0  0  0  0  0
   23.2161  -21.6135   -8.8146 C   0  0  0  0  0  0  0  0  0  0  0  0
   23.6716  -21.8659  -10.0270 N   0  0  0  0  0  0  0  0  0  0  0  0
   22.8335  -19.6382  -12.9904 C   0  0  0  0  0  0  0  0  0  0  0  0
   21.6890  -19.7603  -12.5759 O   0  0  0  0  0  0  0  0  0  0  0  0
   23.1975  -18.3581  -13.4553 O   0  0  0  0  0  0  0  0  0  0  0  0
  2  1  1  0
  3  2  1  0
  4  3  1  0
  4  5  1  0
  5  6  1  6
  7  5  1  0
  7  8  2  0
 10 12  1  0
 10  9  1  0
 11 10  2  0
 13 12  1  6
 13 14  1  0
 14  7  1  0
 15 13  1  0
 16 15  2  0
 17 15  1  0
 18 25  1  0
 18 17  1  0
 18 19  1  1
 20 19  1  0
 21 20  2  0
 22 23  1  0
 22 21  1  0
 23 24  2  0
 24 20  1  0
 25 27  1  0
 26 25  2  0
M  END
$$$$
