MNH.pdb
     RDKit          3D

 27 27  0  0  1  0  0  0  0  0999 V2000
   27.4687  -16.2302  -15.0178 C   0  0  0  0  0  0  0  0  0  0  0  0
   26.0056  -15.2127  -15.3070 S   0  0  0  0  0  0  0  0  0  0  0  0
   25.1715  -15.7835  -16.8377 C   0  0  0  0  0  0  0  0  0  0  0  0
   24.0745  -14.8016  -17.1083 C   0  0  0  0  0  0  0  0  0  0  0  0
   23.3796  -14.2791  -15.8757 C   0  0  2  0  0  0  0  0  0  0  0  0
   22.7212  -15.4370  -15.2794 N   0  0  0  0  0  0  0  0  0  0  0  0
   22.4189  -13.2435  -16.2660 C   0  0  0  0  0  0  0  0  0  0  0  0
   22.7929  -12.2234  -16.8951 O   0  0  0  0  0  0  0  0  0  0  0  0
   18.5060  -12.6950  -18.7651 N   0  0  0  0  0  0  0  0  0  0  0  0
   17.9855  -12.8706  -17.4853 C   0  0  0  0  0  0  0  0  0  0  0  0
   16.7680  -13.2515  -17.4041 O   0  0  0  0  0  0  0  0  0  0  0  0
   18.6781  -12.6674  -16.2092 C   0  0  0  0  0  0  0  0  0  0  0  0
   20.1148  -12.2861  -16.3360 C   0  0  2  0  0  0  0  0  0  0  0  0
   21.0134  -13.3339  -15.9556 N   0  0  0  0  0  0  0  0  0  0  0  0
   20.3662  -11.0232  -15.5842 C   0  0  0  0  0  0  0  0  0  0  0  0
   20.4780  -11.1168  -14.3360 O   0  0  0  0  0  0  0  0  0  0  0  0
   20.4785   -9.7642  -16.2196 N   0  0  0  0  0  0  0  0  0  0  0  0
   20.7956   -8.5247  -15.4613 C   0  0  1  0  0  0  0  0  0  0  0  0
   21.2867   -7.4747  -16.3828 C   0  0  0  0  0  0  0  0  0  0  0  0
   21.5265   -6.1398  -15.8481 C   0  0  0  0  0  0  0  0  0  0  0  0
   21.6473   -5.6506  -14.5906 C   0  0  0  0  0  0  0  0  0  0  0  0
   21.9344   -4.3343  -14.6997 N   0  0  0  0  0  0  0  0  0  0  0  0
   21.9914   -4.0159  -16.0020 C   0  0  0  0  0  0  0  0  0  0  0  0
   21.7479   -5.0938  -16.7231 N   0  0  0  0  0  0  0  0  0  0  0  0
   19.5218   -8.1016  -14.8063 C   0  0  0  0  0  0  0  0  0  0  0  0
   18.4372   -8.2069  -15.3623 O   0  0  0  0  0  0  0  0  0  0  0  0
   19.5084   -7.5566  -13.5063 O   0  0  0  0  0  0  0  0  0  0  0  0
  2  1  1  0
  3  2  1  0
  4  3  1  0
  4  5  1  0
  5  6  1  6
  7  5  1  0
  7  8  2  0
 10 12  1  0
 10  9  1  0
 11 10  2  0
 13 12  1  1
 13 14  1  0
 14  7  1  0
 15 13  1  0
 16 15  2  0
 17 15  1  0
 18 25  1  0
 18 17  1  0
 18 19  1  6
 20 19  1  0
 21 20  2  0
 22 23  1  0
 22 21  1  0
 23 24  2  0
 24 20  1  0
 25 27  1  0
 26 25  2  0
M  END
$$$$
