MNH.pdb
     RDKit          3D

 27 27  0  0  1  0  0  0  0  0999 V2000
   30.6528  -21.4056  -10.2425 C   0  0  0  0  0  0  0  0  0  0  0  0
   31.2254  -21.7148  -11.9265 S   0  0  0  0  0  0  0  0  0  0  0  0
   30.1587  -20.7941  -13.1009 C   0  0  0  0  0  0  0  0  0  0  0  0
   28.7528  -21.2187  -12.8115 C   0  0  0  0  0  0  0  0  0  0  0  0
   27.6969  -20.4646  -13.5808 C   0  0  2  0  0  0  0  0  0  0  0  0
   27.9593  -19.0528  -13.3209 N   0  0  0  0  0  0  0  0  0  0  0  0
   26.3714  -20.8718  -13.1063 C   0  0  0  0  0  0  0  0  0  0  0  0
   25.8789  -21.9764  -13.4431 O   0  0  0  0  0  0  0  0  0  0  0  0
   26.3430  -21.7931   -9.9854 N   0  0  0  0  0  0  0  0  0  0  0  0
   25.3281  -20.9792   -9.4882 C   0  0  0  0  0  0  0  0  0  0  0  0
   25.3619  -20.7120   -8.2387 O   0  0  0  0  0  0  0  0  0  0  0  0
   24.2157  -20.3881  -10.2384 C   0  0  0  0  0  0  0  0  0  0  0  0
   24.3252  -20.5220  -11.7202 C   0  0  2  0  0  0  0  0  0  0  0  0
   25.5698  -20.0422  -12.2406 N   0  0  0  0  0  0  0  0  0  0  0  0
   23.1510  -19.8720  -12.3701 C   0  0  0  0  0  0  0  0  0  0  0  0
   23.2531  -18.6481  -12.6359 O   0  0  0  0  0  0  0  0  0  0  0  0
   21.9644  -20.5754  -12.6845 N   0  0  0  0  0  0  0  0  0  0  0  0
   21.0897  -20.1765  -13.8192 C   0  0  1  0  0  0  0  0  0  0  0  0
   21.8503  -20.2192  -15.0890 C   0  0  0  0  0  0  0  0  0  0  0  0
   21.1500  -19.9028  -16.3278 C   0  0  0  0  0  0  0  0  0  0  0  0
   19.9025  -19.4504  -16.6002 C   0  0  0  0  0  0  0  0  0  0  0  0
   19.8249  -19.2727  -17.9379 N   0  0  0  0  0  0  0  0  0  0  0  0
   21.0045  -19.6081  -18.4825 C   0  0  0  0  0  0  0  0  0  0  0  0
   21.8290  -19.9945  -17.5276 N   0  0  0  0  0  0  0  0  0  0  0  0
   19.9652  -21.1591  -13.8417 C   0  0  0  0  0  0  0  0  0  0  0  0
   20.1415  -22.3552  -13.6551 O   0  0  0  0  0  0  0  0  0  0  0  0
   18.6369  -20.7521  -14.0808 O   0  0  0  0  0  0  0  0  0  0  0  0
  2  1  1  0
  3  2  1  0
  4  3  1  0
  4  5  1  0
  5  6  1  1
  7  5  1  0
  7  8  2  0
 10 12  1  0
 10  9  1  0
 11 10  2  0
 13 12  1  1
 13 14  1  0
 14  7  1  0
 15 13  1  0
 16 15  2  0
 17 15  1  0
 18 25  1  0
 18 17  1  0
 18 19  1  6
 20 19  1  0
 21 20  2  0
 22 23  1  0
 22 21  1  0
 23 24  2  0
 24 20  1  0
 25 27  1  0
 26 25  2  0
M  END
$$$$
