MNH.pdb
     RDKit          3D

 27 27  0  0  1  0  0  0  0  0999 V2000
   26.0048  -18.2099  -20.7597 C   0  0  0  0  0  0  0  0  0  0  0  0
   26.3280  -16.6129  -19.9822 S   0  0  0  0  0  0  0  0  0  0  0  0
   24.8482  -16.1009  -19.0268 C   0  0  0  0  0  0  0  0  0  0  0  0
   25.1659  -14.7564  -18.4505 C   0  0  0  0  0  0  0  0  0  0  0  0
   24.3737  -14.3969  -17.2182 C   0  0  2  0  0  0  0  0  0  0  0  0
   22.9727  -14.4779  -17.6186 N   0  0  0  0  0  0  0  0  0  0  0  0
   24.7423  -13.0463  -16.7848 C   0  0  0  0  0  0  0  0  0  0  0  0
   25.8292  -12.8350  -16.1929 O   0  0  0  0  0  0  0  0  0  0  0  0
   26.8813  -10.9137  -15.2118 N   0  0  0  0  0  0  0  0  0  0  0  0
   26.8026  -10.3585  -16.4866 C   0  0  0  0  0  0  0  0  0  0  0  0
   27.8972   -9.9562  -17.0101 O   0  0  0  0  0  0  0  0  0  0  0  0
   25.5994  -10.1804  -17.3052 C   0  0  0  0  0  0  0  0  0  0  0  0
   24.3287  -10.5891  -16.6388 C   0  0  2  0  0  0  0  0  0  0  0  0
   23.8935  -11.9021  -17.0086 N   0  0  0  0  0  0  0  0  0  0  0  0
   23.2813   -9.5557  -16.8806 C   0  0  0  0  0  0  0  0  0  0  0  0
   23.1586   -9.1348  -18.0583 O   0  0  0  0  0  0  0  0  0  0  0  0
   22.4497   -9.0542  -15.8518 N   0  0  0  0  0  0  0  0  0  0  0  0
   21.2856   -8.1742  -16.1388 C   0  0  1  0  0  0  0  0  0  0  0  0
   20.0213   -8.9098  -15.9081 C   0  0  0  0  0  0  0  0  0  0  0  0
   18.7706   -8.1610  -15.9240 C   0  0  0  0  0  0  0  0  0  0  0  0
   18.4648   -6.8688  -16.1922 C   0  0  0  0  0  0  0  0  0  0  0  0
   17.1203   -6.7522  -16.1169 N   0  0  0  0  0  0  0  0  0  0  0  0
   16.6040   -7.9520  -15.8090 C   0  0  0  0  0  0  0  0  0  0  0  0
   17.5838   -8.8272  -15.6861 N   0  0  0  0  0  0  0  0  0  0  0  0
   21.4019   -7.0145  -15.2050 C   0  0  0  0  0  0  0  0  0  0  0  0
   20.6585   -6.0454  -15.2741 O   0  0  0  0  0  0  0  0  0  0  0  0
   22.3813   -6.9810  -14.1916 O   0  0  0  0  0  0  0  0  0  0  0  0
  2  1  1  0
  3  2  1  0
  4  3  1  0
  4  5  1  0
  5  6  1  6
  7  5  1  0
  7  8  2  0
 10 12  1  0
 10  9  1  0
 11 10  2  0
 13 12  1  6
 13 14  1  0
 14  7  1  0
 15 13  1  0
 16 15  2  0
 17 15  1  0
 18 25  1  0
 18 17  1  0
 18 19  1  1
 20 19  1  0
 21 20  2  0
 22 23  1  0
 22 21  1  0
 23 24  2  0
 24 20  1  0
 25 27  1  0
 26 25  2  0
M  END
$$$$
