MNH.pdb
     RDKit          3D

 27 27  0  0  1  0  0  0  0  0999 V2000
   30.5495  -11.1447  -16.5906 C   0  0  0  0  0  0  0  0  0  0  0  0
   28.9548  -10.3173  -16.4127 S   0  0  0  0  0  0  0  0  0  0  0  0
   27.6245  -11.5797  -16.3821 C   0  0  0  0  0  0  0  0  0  0  0  0
   26.3522  -10.8414  -16.1050 C   0  0  0  0  0  0  0  0  0  0  0  0
   25.1374  -11.7205  -15.9413 C   0  0  2  0  0  0  0  0  0  0  0  0
   25.2905  -12.7841  -16.9287 N   0  0  0  0  0  0  0  0  0  0  0  0
   23.9301  -10.9238  -16.1771 C   0  0  0  0  0  0  0  0  0  0  0  0
   23.5711  -10.6299  -17.3438 O   0  0  0  0  0  0  0  0  0  0  0  0
   20.3127  -12.1124  -15.9160 N   0  0  0  0  0  0  0  0  0  0  0  0
   20.0743  -11.2861  -14.8205 C   0  0  0  0  0  0  0  0  0  0  0  0
   19.1441  -11.6428  -14.0195 O   0  0  0  0  0  0  0  0  0  0  0  0
   20.7725  -10.0436  -14.4764 C   0  0  0  0  0  0  0  0  0  0  0  0
   21.9069   -9.6976  -15.3814 C   0  0  2  0  0  0  0  0  0  0  0  0
   23.0992  -10.4396  -15.1023 N   0  0  0  0  0  0  0  0  0  0  0  0
   22.1371   -8.2245  -15.3554 C   0  0  0  0  0  0  0  0  0  0  0  0
   22.8248   -7.7729  -14.4055 O   0  0  0  0  0  0  0  0  0  0  0  0
   21.6181   -7.3518  -16.3405 N   0  0  0  0  0  0  0  0  0  0  0  0
   21.9221   -5.8959  -16.3420 C   0  0  1  0  0  0  0  0  0  0  0  0
   21.9487   -5.3820  -17.7304 C   0  0  0  0  0  0  0  0  0  0  0  0
   22.0314   -3.9409  -17.9349 C   0  0  0  0  0  0  0  0  0  0  0  0
   21.1181   -2.9416  -17.8849 C   0  0  0  0  0  0  0  0  0  0  0  0
   21.7815   -1.7829  -18.0960 N   0  0  0  0  0  0  0  0  0  0  0  0
   23.0823   -2.0614  -18.2719 C   0  0  0  0  0  0  0  0  0  0  0  0
   23.2634   -3.3651  -18.1789 N   0  0  0  0  0  0  0  0  0  0  0  0
   20.8325   -5.2436  -15.5561 C   0  0  0  0  0  0  0  0  0  0  0  0
   19.7028   -5.7092  -15.4980 O   0  0  0  0  0  0  0  0  0  0  0  0
   21.0556   -4.0510  -14.8381 O   0  0  0  0  0  0  0  0  0  0  0  0
  2  1  1  0
  3  2  1  0
  4  3  1  0
  4  5  1  0
  5  6  1  6
  7  5  1  0
  7  8  2  0
 10 12  1  0
 10  9  1  0
 11 10  2  0
 13 12  1  1
 13 14  1  0
 14  7  1  0
 15 13  1  0
 16 15  2  0
 17 15  1  0
 18 25  1  0
 18 17  1  0
 18 19  1  6
 20 19  1  0
 21 20  2  0
 22 23  1  0
 22 21  1  0
 23 24  2  0
 24 20  1  0
 25 27  1  0
 26 25  2  0
M  END
$$$$
