MNH.pdb
     RDKit          3D

 27 27  0  0  1  0  0  0  0  0999 V2000
   22.8636  -14.6778  -21.5807 C   0  0  0  0  0  0  0  0  0  0  0  0
   22.6796  -15.2480  -19.8777 S   0  0  0  0  0  0  0  0  0  0  0  0
   20.9466  -14.9802  -19.3397 C   0  0  0  0  0  0  0  0  0  0  0  0
   20.7698  -13.4988  -19.2177 C   0  0  0  0  0  0  0  0  0  0  0  0
   21.4986  -12.8718  -18.0553 C   0  0  2  0  0  0  0  0  0  0  0  0
   21.2575  -13.7576  -16.9209 N   0  0  0  0  0  0  0  0  0  0  0  0
   20.9673  -11.5260  -17.8221 C   0  0  0  0  0  0  0  0  0  0  0  0
   21.0355  -10.6442  -18.7132 O   0  0  0  0  0  0  0  0  0  0  0  0
   17.2437  -10.9692  -17.1185 N   0  0  0  0  0  0  0  0  0  0  0  0
   17.4699  -10.3488  -15.8922 C   0  0  0  0  0  0  0  0  0  0  0  0
   16.4852  -10.3013  -15.0786 O   0  0  0  0  0  0  0  0  0  0  0  0
   18.7174   -9.7385  -15.4222 C   0  0  0  0  0  0  0  0  0  0  0  0
   19.8491   -9.8134  -16.3914 C   0  0  2  0  0  0  0  0  0  0  0  0
   20.3465  -11.1430  -16.5779 N   0  0  0  0  0  0  0  0  0  0  0  0
   20.9206   -8.8593  -15.9850 C   0  0  0  0  0  0  0  0  0  0  0  0
   21.6366   -9.1909  -15.0069 O   0  0  0  0  0  0  0  0  0  0  0  0
   21.1441   -7.6313  -16.6508 N   0  0  0  0  0  0  0  0  0  0  0  0
   22.2750   -6.7348  -16.2912 C   0  0  1  0  0  0  0  0  0  0  0  0
   22.9672   -6.2710  -17.5153 C   0  0  0  0  0  0  0  0  0  0  0  0
   24.0419   -5.2957  -17.3768 C   0  0  0  0  0  0  0  0  0  0  0  0
   24.8335   -4.9265  -16.3413 C   0  0  0  0  0  0  0  0  0  0  0  0
   25.7095   -4.0119  -16.8141 N   0  0  0  0  0  0  0  0  0  0  0  0
   25.4643   -3.8205  -18.1195 C   0  0  0  0  0  0  0  0  0  0  0  0
   24.4563   -4.5879  -18.4886 N   0  0  0  0  0  0  0  0  0  0  0  0
   21.6736   -5.5836  -15.5539 C   0  0  0  0  0  0  0  0  0  0  0  0
   20.5280   -5.2061  -15.7581 O   0  0  0  0  0  0  0  0  0  0  0  0
   22.4030   -4.8715  -14.5801 O   0  0  0  0  0  0  0  0  0  0  0  0
  2  1  1  0
  3  2  1  0
  4  3  1  0
  4  5  1  0
  5  6  1  1
  7  5  1  0
  7  8  2  0
 10 12  1  0
 10  9  1  0
 11 10  2  0
 13 12  1  1
 13 14  1  0
 14  7  1  0
 15 13  1  0
 16 15  2  0
 17 15  1  0
 18 25  1  0
 18 17  1  0
 18 19  1  6
 20 19  1  0
 21 20  2  0
 22 23  1  0
 22 21  1  0
 23 24  2  0
 24 20  1  0
 25 27  1  0
 26 25  2  0
M  END
$$$$
