MNH.pdb
     RDKit          3D

 27 27  0  0  1  0  0  0  0  0999 V2000
   19.9907  -17.9919  -17.0966 C   0  0  0  0  0  0  0  0  0  0  0  0
   20.8807  -16.4593  -16.7524 S   0  0  0  0  0  0  0  0  0  0  0  0
   19.6805  -15.0745  -16.6713 C   0  0  0  0  0  0  0  0  0  0  0  0
   18.7528  -15.3896  -15.5397 C   0  0  0  0  0  0  0  0  0  0  0  0
   17.6133  -14.4157  -15.3704 C   0  0  2  0  0  0  0  0  0  0  0  0
   18.2155  -13.2022  -14.8278 N   0  0  0  0  0  0  0  0  0  0  0  0
   16.6199  -14.9893  -14.4582 C   0  0  0  0  0  0  0  0  0  0  0  0
   16.7407  -14.8645  -13.2148 O   0  0  0  0  0  0  0  0  0  0  0  0
   13.3748  -13.5958  -13.6670 N   0  0  0  0  0  0  0  0  0  0  0  0
   12.6467  -14.6658  -14.1814 C   0  0  0  0  0  0  0  0  0  0  0  0
   11.4377  -14.4304  -14.5236 O   0  0  0  0  0  0  0  0  0  0  0  0
   13.1100  -16.0428  -14.3778 C   0  0  0  0  0  0  0  0  0  0  0  0
   14.5332  -16.2794  -13.9983 C   0  0  2  0  0  0  0  0  0  0  0  0
   15.4668  -15.7176  -14.9272 N   0  0  0  0  0  0  0  0  0  0  0  0
   14.7580  -17.7374  -13.7807 C   0  0  0  0  0  0  0  0  0  0  0  0
   15.1389  -18.4085  -14.7725 O   0  0  0  0  0  0  0  0  0  0  0  0
   14.5599  -18.3631  -12.5274 N   0  0  0  0  0  0  0  0  0  0  0  0
   14.9124  -19.7891  -12.2947 C   0  0  1  0  0  0  0  0  0  0  0  0
   15.9374  -19.8940  -11.2311 C   0  0  0  0  0  0  0  0  0  0  0  0
   17.2879  -19.4279  -11.5213 C   0  0  0  0  0  0  0  0  0  0  0  0
   17.8608  -18.8597  -12.6095 C   0  0  0  0  0  0  0  0  0  0  0  0
   19.1407  -18.5724  -12.2832 N   0  0  0  0  0  0  0  0  0  0  0  0
   19.3545  -18.9551  -11.0149 C   0  0  0  0  0  0  0  0  0  0  0  0
   18.2458  -19.4781  -10.5268 N   0  0  0  0  0  0  0  0  0  0  0  0
   13.6477  -20.4670  -11.8806 C   0  0  0  0  0  0  0  0  0  0  0  0
   12.5976  -19.8559  -11.7382 O   0  0  0  0  0  0  0  0  0  0  0  0
   13.6034  -21.8540  -11.6322 O   0  0  0  0  0  0  0  0  0  0  0  0
  2  1  1  0
  3  2  1  0
  4  3  1  0
  4  5  1  0
  5  6  1  1
  7  5  1  0
  7  8  2  0
 10 12  1  0
 10  9  1  0
 11 10  2  0
 13 12  1  6
 13 14  1  0
 14  7  1  0
 15 13  1  0
 16 15  2  0
 17 15  1  0
 18 25  1  0
 18 17  1  0
 18 19  1  1
 20 19  1  0
 21 20  2  0
 22 23  1  0
 22 21  1  0
 23 24  2  0
 24 20  1  0
 25 27  1  0
 26 25  2  0
M  END
$$$$
