MNH.pdb
     RDKit          3D

 27 27  0  0  1  0  0  0  0  0999 V2000
   28.0938  -15.2726  -14.9862 C   0  0  0  0  0  0  0  0  0  0  0  0
   26.9474  -13.9968  -15.5494 S   0  0  0  0  0  0  0  0  0  0  0  0
   25.9665  -14.6503  -16.9548 C   0  0  0  0  0  0  0  0  0  0  0  0
   25.0617  -13.5390  -17.3872 C   0  0  0  0  0  0  0  0  0  0  0  0
   24.3820  -12.8055  -16.2578 C   0  0  2  0  0  0  0  0  0  0  0  0
   23.5941  -13.8142  -15.5567 N   0  0  0  0  0  0  0  0  0  0  0  0
   23.5408  -11.7407  -16.8113 C   0  0  0  0  0  0  0  0  0  0  0  0
   24.0148  -10.8965  -17.6108 O   0  0  0  0  0  0  0  0  0  0  0  0
   20.3105  -12.2041  -19.0553 N   0  0  0  0  0  0  0  0  0  0  0  0
   19.5043  -11.6240  -18.0789 C   0  0  0  0  0  0  0  0  0  0  0  0
   18.2562  -11.8964  -18.1237 O   0  0  0  0  0  0  0  0  0  0  0  0
   19.9248  -10.7293  -16.9962 C   0  0  0  0  0  0  0  0  0  0  0  0
   21.3935  -10.4742  -16.9364 C   0  0  2  0  0  0  0  0  0  0  0  0
   22.1449  -11.6027  -16.4760 N   0  0  0  0  0  0  0  0  0  0  0  0
   21.6568   -9.2498  -16.1270 C   0  0  0  0  0  0  0  0  0  0  0  0
   21.9248   -9.4185  -14.9109 O   0  0  0  0  0  0  0  0  0  0  0  0
   21.6140   -7.9465  -16.6756 N   0  0  0  0  0  0  0  0  0  0  0  0
   21.8162   -6.7331  -15.8398 C   0  0  1  0  0  0  0  0  0  0  0  0
   21.9350   -5.5345  -16.7012 C   0  0  0  0  0  0  0  0  0  0  0  0
   22.0860   -4.2332  -16.0616 C   0  0  0  0  0  0  0  0  0  0  0  0
   22.2638   -3.8450  -14.7759 C   0  0  0  0  0  0  0  0  0  0  0  0
   22.4090   -2.5011  -14.7806 N   0  0  0  0  0  0  0  0  0  0  0  0
   22.3239   -2.0666  -16.0474 C   0  0  0  0  0  0  0  0  0  0  0  0
   22.1280   -3.0975  -16.8473 N   0  0  0  0  0  0  0  0  0  0  0  0
   20.6167   -6.6336  -14.9557 C   0  0  0  0  0  0  0  0  0  0  0  0
   19.4781   -6.7550  -15.3864 O   0  0  0  0  0  0  0  0  0  0  0  0
   20.7401   -6.3932  -13.5721 O   0  0  0  0  0  0  0  0  0  0  0  0
  2  1  1  0
  3  2  1  0
  4  3  1  0
  4  5  1  0
  5  6  1  6
  7  5  1  0
  7  8  2  0
 10 12  1  0
 10  9  1  0
 11 10  2  0
 13 12  1  1
 13 14  1  0
 14  7  1  0
 15 13  1  0
 16 15  2  0
 17 15  1  0
 18 25  1  0
 18 17  1  0
 18 19  1  6
 20 19  1  0
 21 20  2  0
 22 23  1  0
 22 21  1  0
 23 24  2  0
 24 20  1  0
 25 27  1  0
 26 25  2  0
M  END
$$$$
