KLT.pdb
     RDKit          3D

 25 24  0  0  1  0  0  0  0  0999 V2000
    9.4085  -15.7164   19.9213 N   0  0  0  0  0  0  0  0  0  0  0  0
    8.2055  -15.7129   20.7361 C   0  0  1  0  0  0  0  0  0  0  0  0
    7.4493  -16.9937   20.7000 C   0  0  0  0  0  0  0  0  0  0  0  0
    7.4094  -17.6098   19.3254 C   0  0  0  0  0  0  0  0  0  0  0  0
    6.6256  -18.8940   19.2862 C   0  0  0  0  0  0  0  0  0  0  0  0
    6.4223  -19.3538   17.8619 C   0  0  0  0  0  0  0  0  0  0  0  0
    5.5568  -20.5300   17.8205 N   0  0  0  0  0  0  0  0  0  0  0  0
    8.5656  -15.2322   22.0831 C   0  0  0  0  0  0  0  0  0  0  0  0
    9.6796  -15.4381   22.6237 O   0  0  0  0  0  0  0  0  0  0  0  0
    8.0679  -12.1892   26.5661 C   0  0  0  0  0  0  0  0  0  0  0  0
    6.7908  -13.0130   26.2797 C   0  0  1  0  0  0  0  0  0  0  0  0
    5.6608  -12.1892   26.7946 C   0  0  0  0  0  0  0  0  0  0  0  0
    6.8002  -13.2758   24.8206 C   0  0  0  0  0  0  0  0  0  0  0  0
    7.7704  -14.2493   24.2729 C   0  0  2  0  0  0  0  0  0  0  0  0
    7.6082  -14.4703   22.8690 N   0  0  0  0  0  0  0  0  0  0  0  0
    7.9178  -15.4871   25.0796 C   0  0  0  0  0  0  0  0  0  0  0  0
    6.9052  -16.1489   25.3439 O   0  0  0  0  0  0  0  0  0  0  0  0
    9.5796  -18.7615   24.2087 C   0  0  0  0  0  0  0  0  0  0  0  0
   10.2238  -18.1803   25.4479 C   0  0  1  0  0  0  0  0  0  0  0  0
   11.5138  -17.6727   25.1250 O   0  0  0  0  0  0  0  0  0  0  0  0
    9.4077  -17.1983   26.1809 C   0  0  2  0  0  0  0  0  0  0  0  0
    9.1636  -15.9329   25.5571 N   0  0  0  0  0  0  0  0  0  0  0  0
   10.0834  -16.9982   27.5273 C   0  0  0  0  0  0  0  0  0  0  0  0
   10.5007  -15.8878   27.8475 O   0  0  0  0  0  0  0  0  0  0  0  0
   10.2005  -18.0878   28.3412 O   0  0  0  0  0  0  0  0  0  0  0  0
  2  1  1  6
  2  8  1  0
  3  2  1  0
  4  5  1  0
  4  3  1  0
  6  7  1  0
  6  5  1  0
  8  9  2  0
 11 10  1  6
 11 13  1  0
 12 11  1  0
 14 13  1  1
 15  8  1  0
 15 14  1  0
 16 17  2  0
 16 14  1  0
 19 18  1  6
 19 21  1  0
 20 19  1  0
 21 22  1  6
 22 16  1  0
 23 25  1  0
 23 21  1  0
 24 23  2  0
M  END
$$$$
