KLT.pdb
     RDKit          3D

 25 24  0  0  1  0  0  0  0  0999 V2000
    6.7947  -15.4820   21.1982 N   0  0  0  0  0  0  0  0  0  0  0  0
    8.1206  -14.9025   21.3296 C   0  0  1  0  0  0  0  0  0  0  0  0
    8.2807  -13.5991   20.6303 C   0  0  0  0  0  0  0  0  0  0  0  0
    7.8073  -13.6414   19.2003 C   0  0  0  0  0  0  0  0  0  0  0  0
    8.8099  -13.0632   18.2384 C   0  0  0  0  0  0  0  0  0  0  0  0
    8.2675  -13.0743   16.8288 C   0  0  0  0  0  0  0  0  0  0  0  0
    9.1717  -12.3674   15.9250 N   0  0  0  0  0  0  0  0  0  0  0  0
    8.4791  -14.8976   22.7602 C   0  0  0  0  0  0  0  0  0  0  0  0
    9.6567  -14.8061   23.1850 O   0  0  0  0  0  0  0  0  0  0  0  0
    5.7207  -12.1519   26.7135 C   0  0  0  0  0  0  0  0  0  0  0  0
    6.8362  -12.7040   25.7957 C   0  0  1  0  0  0  0  0  0  0  0  0
    8.0853  -12.0152   26.2272 C   0  0  0  0  0  0  0  0  0  0  0  0
    6.8060  -14.1765   25.9665 C   0  0  0  0  0  0  0  0  0  0  0  0
    7.7374  -15.0100   25.1749 C   0  0  2  0  0  0  0  0  0  0  0  0
    7.4429  -15.0014   23.7751 N   0  0  0  0  0  0  0  0  0  0  0  0
    7.9881  -16.3581   25.7446 C   0  0  0  0  0  0  0  0  0  0  0  0
    7.0280  -17.0077   26.1799 O   0  0  0  0  0  0  0  0  0  0  0  0
    9.5789  -19.5293   24.0920 C   0  0  0  0  0  0  0  0  0  0  0  0
   10.3181  -19.1325   25.3508 C   0  0  1  0  0  0  0  0  0  0  0  0
   11.5965  -18.6070   25.0111 O   0  0  0  0  0  0  0  0  0  0  0  0
    9.5775  -18.2461   26.2637 C   0  0  2  0  0  0  0  0  0  0  0  0
    9.2750  -16.9220   25.8110 N   0  0  0  0  0  0  0  0  0  0  0  0
   10.3805  -18.1897   27.5527 C   0  0  0  0  0  0  0  0  0  0  0  0
   10.5792  -19.2154   28.1994 O   0  0  0  0  0  0  0  0  0  0  0  0
   10.8565  -16.9721   27.9453 O   0  0  0  0  0  0  0  0  0  0  0  0
  2  1  1  1
  2  8  1  0
  3  2  1  0
  4  5  1  0
  4  3  1  0
  6  7  1  0
  6  5  1  0
  8  9  2  0
 11 10  1  1
 11 13  1  0
 12 11  1  0
 14 13  1  1
 15  8  1  0
 15 14  1  0
 16 17  2  0
 16 14  1  0
 19 18  1  6
 19 21  1  0
 20 19  1  0
 21 22  1  6
 22 16  1  0
 23 25  1  0
 23 21  1  0
 24 23  2  0
M  END
$$$$
