KLT.pdb
     RDKit          3D

 25 24  0  0  1  0  0  0  0  0999 V2000
    7.3113  -16.6947   21.5037 N   0  0  0  0  0  0  0  0  0  0  0  0
    8.5697  -15.9783   21.3833 C   0  0  1  0  0  0  0  0  0  0  0  0
    8.7497  -15.2915   20.0759 C   0  0  0  0  0  0  0  0  0  0  0  0
    7.4420  -14.9816   19.3941 C   0  0  0  0  0  0  0  0  0  0  0  0
    7.4448  -13.6394   18.7135 C   0  0  0  0  0  0  0  0  0  0  0  0
    8.3060  -13.6700   17.4730 C   0  0  0  0  0  0  0  0  0  0  0  0
    8.3259  -12.3589   16.8290 N   0  0  0  0  0  0  0  0  0  0  0  0
    8.7236  -15.1191   22.5721 C   0  0  0  0  0  0  0  0  0  0  0  0
    9.7449  -14.4282   22.8073 O   0  0  0  0  0  0  0  0  0  0  0  0
    7.8139  -11.6464   26.2567 C   0  0  0  0  0  0  0  0  0  0  0  0
    6.7407  -12.7436   26.4463 C   0  0  1  0  0  0  0  0  0  0  0  0
    5.4948  -12.0212   26.8295 C   0  0  0  0  0  0  0  0  0  0  0  0
    6.6989  -13.4913   25.1667 C   0  0  0  0  0  0  0  0  0  0  0  0
    7.8278  -14.3821   24.8189 C   0  0  2  0  0  0  0  0  0  0  0  0
    7.6571  -15.0336   23.5569 N   0  0  0  0  0  0  0  0  0  0  0  0
    8.2646  -15.2762   25.9209 C   0  0  0  0  0  0  0  0  0  0  0  0
    8.2928  -14.8278   27.0748 O   0  0  0  0  0  0  0  0  0  0  0  0
    6.6314  -18.8784   26.4840 C   0  0  0  0  0  0  0  0  0  0  0  0
    8.1437  -18.9099   26.5048 C   0  0  1  0  0  0  0  0  0  0  0  0
    8.6260  -19.5691   25.3392 O   0  0  0  0  0  0  0  0  0  0  0  0
    8.7982  -17.6085   26.7183 C   0  0  2  0  0  0  0  0  0  0  0  0
    8.6505  -16.6110   25.7020 N   0  0  0  0  0  0  0  0  0  0  0  0
   10.2702  -17.9023   26.9556 C   0  0  0  0  0  0  0  0  0  0  0  0
   11.1235  -17.3959   26.2309 O   0  0  0  0  0  0  0  0  0  0  0  0
   10.5873  -18.7369   27.9881 O   0  0  0  0  0  0  0  0  0  0  0  0
  2  1  1  6
  2  8  1  0
  3  2  1  0
  4  5  1  0
  4  3  1  0
  6  7  1  0
  6  5  1  0
  8  9  2  0
 11 10  1  6
 11 13  1  0
 12 11  1  0
 14 13  1  1
 15  8  1  0
 15 14  1  0
 16 17  2  0
 16 14  1  0
 19 18  1  6
 19 21  1  0
 20 19  1  0
 21 22  1  6
 22 16  1  0
 23 25  1  0
 23 21  1  0
 24 23  2  0
M  END
$$$$
