KLT.pdb
     RDKit          3D

 25 24  0  0  1  0  0  0  0  0999 V2000
    7.0709  -15.6673   20.6251 N   0  0  0  0  0  0  0  0  0  0  0  0
    8.4802  -15.3275   20.7236 C   0  0  1  0  0  0  0  0  0  0  0  0
    8.9233  -14.3028   19.7401 C   0  0  0  0  0  0  0  0  0  0  0  0
    8.1008  -14.3109   18.4775 C   0  0  0  0  0  0  0  0  0  0  0  0
    8.6992  -13.4625   17.3881 C   0  0  0  0  0  0  0  0  0  0  0  0
    7.7584  -13.3609   16.2109 C   0  0  0  0  0  0  0  0  0  0  0  0
    8.2831  -12.4321   15.2127 N   0  0  0  0  0  0  0  0  0  0  0  0
    8.7795  -15.0172   22.1340 C   0  0  0  0  0  0  0  0  0  0  0  0
    9.9350  -14.7931   22.5701 O   0  0  0  0  0  0  0  0  0  0  0  0
    6.1447  -11.7352   26.3058 C   0  0  0  0  0  0  0  0  0  0  0  0
    7.3933  -12.5906   25.9883 C   0  0  1  0  0  0  0  0  0  0  0  0
    7.8304  -13.1590   27.2948 C   0  0  0  0  0  0  0  0  0  0  0  0
    6.9616  -13.5666   24.9592 C   0  0  0  0  0  0  0  0  0  0  0  0
    7.9305  -14.5740   24.4742 C   0  0  2  0  0  0  0  0  0  0  0  0
    7.7066  -14.9549   23.1137 N   0  0  0  0  0  0  0  0  0  0  0  0
    8.1507  -15.7098   25.4049 C   0  0  0  0  0  0  0  0  0  0  0  0
    7.1714  -16.2126   25.9720 O   0  0  0  0  0  0  0  0  0  0  0  0
    9.7905  -19.1259   24.4933 C   0  0  0  0  0  0  0  0  0  0  0  0
   10.4762  -18.4890   25.6819 C   0  0  1  0  0  0  0  0  0  0  0  0
   11.7685  -18.0300   25.3009 O   0  0  0  0  0  0  0  0  0  0  0  0
    9.6988  -17.4484   26.3749 C   0  0  2  0  0  0  0  0  0  0  0  0
    9.4296  -16.2327   25.6683 N   0  0  0  0  0  0  0  0  0  0  0  0
   10.4379  -17.1509   27.6691 C   0  0  0  0  0  0  0  0  0  0  0  0
   10.8674  -16.0205   27.8866 O   0  0  0  0  0  0  0  0  0  0  0  0
   10.5967  -18.1780   28.5540 O   0  0  0  0  0  0  0  0  0  0  0  0
  2  1  1  1
  2  8  1  0
  3  2  1  0
  4  5  1  0
  4  3  1  0
  6  7  1  0
  6  5  1  0
  8  9  2  0
 11 10  1  1
 11 13  1  0
 12 11  1  0
 14 13  1  1
 15  8  1  0
 15 14  1  0
 16 17  2  0
 16 14  1  0
 19 18  1  6
 19 21  1  0
 20 19  1  0
 21 22  1  6
 22 16  1  0
 23 25  1  0
 23 21  1  0
 24 23  2  0
M  END
$$$$
