KLT.pdb
     RDKit          3D

 25 24  0  0  1  0  0  0  0  0999 V2000
    6.6638  -17.6053   20.2512 N   0  0  0  0  0  0  0  0  0  0  0  0
    7.9867  -17.1315   19.8814 C   0  0  1  0  0  0  0  0  0  0  0  0
    8.0417  -16.4794   18.5453 C   0  0  0  0  0  0  0  0  0  0  0  0
    7.2848  -17.2444   17.4904 C   0  0  0  0  0  0  0  0  0  0  0  0
    7.5620  -16.7445   16.0982 C   0  0  0  0  0  0  0  0  0  0  0  0
    6.7941  -17.5503   15.0773 C   0  0  0  0  0  0  0  0  0  0  0  0
    7.1193  -17.1078   13.7236 N   0  0  0  0  0  0  0  0  0  0  0  0
    8.5132  -16.3246   20.9979 C   0  0  0  0  0  0  0  0  0  0  0  0
    9.6674  -15.8316   21.0201 O   0  0  0  0  0  0  0  0  0  0  0  0
    7.9961  -12.4600   24.7994 C   0  0  0  0  0  0  0  0  0  0  0  0
    7.4262  -13.8320   25.2288 C   0  0  1  0  0  0  0  0  0  0  0  0
    6.2770  -13.5236   26.1262 C   0  0  0  0  0  0  0  0  0  0  0  0
    7.1030  -14.5454   23.9700 C   0  0  0  0  0  0  0  0  0  0  0  0
    8.1638  -15.3241   23.2938 C   0  0  2  0  0  0  0  0  0  0  0  0
    7.6844  -16.0562   22.1623 N   0  0  0  0  0  0  0  0  0  0  0  0
    9.0302  -16.1053   24.2123 C   0  0  0  0  0  0  0  0  0  0  0  0
    8.5235  -16.6085   25.2238 O   0  0  0  0  0  0  0  0  0  0  0  0
   10.4769  -19.3942   23.3923 C   0  0  0  0  0  0  0  0  0  0  0  0
   11.6063  -18.4585   23.7633 C   0  0  1  0  0  0  0  0  0  0  0  0
   12.3154  -18.0737   22.5907 O   0  0  0  0  0  0  0  0  0  0  0  0
   11.2202  -17.2994   24.5848 C   0  0  2  0  0  0  0  0  0  0  0  0
   10.4046  -16.2913   23.9777 N   0  0  0  0  0  0  0  0  0  0  0  0
   12.5130  -16.6888   25.1000 C   0  0  0  0  0  0  0  0  0  0  0  0
   13.2464  -17.3367   25.8430 O   0  0  0  0  0  0  0  0  0  0  0  0
   12.8093  -15.4160   24.7057 O   0  0  0  0  0  0  0  0  0  0  0  0
  2  1  1  1
  2  8  1  0
  3  2  1  0
  4  5  1  0
  4  3  1  0
  6  7  1  0
  6  5  1  0
  8  9  2  0
 11 10  1  6
 11 13  1  0
 12 11  1  0
 14 13  1  1
 15  8  1  0
 15 14  1  0
 16 17  2  0
 16 14  1  0
 19 18  1  6
 19 21  1  0
 20 19  1  0
 21 22  1  6
 22 16  1  0
 23 25  1  0
 23 21  1  0
 24 23  2  0
M  END
$$$$
