KLT.pdb
     RDKit          3D

 25 24  0  0  1  0  0  0  0  0999 V2000
    7.2575  -15.7734   20.6364 N   0  0  0  0  0  0  0  0  0  0  0  0
    8.6070  -15.2492   20.7603 C   0  0  1  0  0  0  0  0  0  0  0  0
    8.9337  -14.1861   19.7721 C   0  0  0  0  0  0  0  0  0  0  0  0
    8.7900  -14.6504   18.3457 C   0  0  0  0  0  0  0  0  0  0  0  0
    8.3774  -13.5440   17.4128 C   0  0  0  0  0  0  0  0  0  0  0  0
    8.2500  -14.0565   15.9977 C   0  0  0  0  0  0  0  0  0  0  0  0
    7.8126  -12.9885   15.1020 N   0  0  0  0  0  0  0  0  0  0  0  0
    8.8299  -14.8862   22.1723 C   0  0  0  0  0  0  0  0  0  0  0  0
    9.9572  -14.6187   22.6553 O   0  0  0  0  0  0  0  0  0  0  0  0
    8.1230  -12.1135   26.5254 C   0  0  0  0  0  0  0  0  0  0  0  0
    6.9287  -13.0859   26.3855 C   0  0  1  0  0  0  0  0  0  0  0  0
    5.7412  -12.3332   26.8798 C   0  0  0  0  0  0  0  0  0  0  0  0
    6.9031  -13.4894   24.9591 C   0  0  0  0  0  0  0  0  0  0  0  0
    7.8745  -14.4977   24.4809 C   0  0  2  0  0  0  0  0  0  0  0  0
    7.7097  -14.8201   23.0971 N   0  0  0  0  0  0  0  0  0  0  0  0
    8.0268  -15.6735   25.3747 C   0  0  0  0  0  0  0  0  0  0  0  0
    7.0104  -16.1857   25.8623 O   0  0  0  0  0  0  0  0  0  0  0  0
    9.3877  -19.0564   24.3046 C   0  0  0  0  0  0  0  0  0  0  0  0
   10.1751  -18.5366   25.4871 C   0  0  1  0  0  0  0  0  0  0  0  0
   11.4669  -18.1208   25.0579 O   0  0  0  0  0  0  0  0  0  0  0  0
    9.4980  -17.5056   26.2910 C   0  0  2  0  0  0  0  0  0  0  0  0
    9.2822  -16.2240   25.6904 N   0  0  0  0  0  0  0  0  0  0  0  0
   10.3076  -17.3571   27.5685 C   0  0  0  0  0  0  0  0  0  0  0  0
   10.4538  -18.3183   28.3197 O   0  0  0  0  0  0  0  0  0  0  0  0
   10.8492  -16.1322   27.8319 O   0  0  0  0  0  0  0  0  0  0  0  0
  2  1  1  1
  2  8  1  0
  3  2  1  0
  4  5  1  0
  4  3  1  0
  6  7  1  0
  6  5  1  0
  8  9  2  0
 11 10  1  6
 11 13  1  0
 12 11  1  0
 14 13  1  1
 15  8  1  0
 15 14  1  0
 16 17  2  0
 16 14  1  0
 19 18  1  6
 19 21  1  0
 20 19  1  0
 21 22  1  6
 22 16  1  0
 23 25  1  0
 23 21  1  0
 24 23  2  0
M  END
$$$$
