KLT.pdb
     RDKit          3D

 25 24  0  0  1  0  0  0  0  0999 V2000
    7.2398  -15.0270   21.3076 N   0  0  0  0  0  0  0  0  0  0  0  0
    8.6363  -14.6534   21.4548 C   0  0  1  0  0  0  0  0  0  0  0  0
    9.0511  -13.5180   20.5875 C   0  0  0  0  0  0  0  0  0  0  0  0
    8.1605  -13.3464   19.3841 C   0  0  0  0  0  0  0  0  0  0  0  0
    8.8410  -13.7291   18.0976 C   0  0  0  0  0  0  0  0  0  0  0  0
    7.9262  -13.4970   16.9184 C   0  0  0  0  0  0  0  0  0  0  0  0
    8.5522  -13.9624   15.6832 N   0  0  0  0  0  0  0  0  0  0  0  0
    8.9158  -14.4821   22.8927 C   0  0  0  0  0  0  0  0  0  0  0  0
   10.0461  -14.1917   23.3549 O   0  0  0  0  0  0  0  0  0  0  0  0
    5.6474  -12.0841   26.7219 C   0  0  0  0  0  0  0  0  0  0  0  0
    6.8712  -12.4753   25.8612 C   0  0  1  0  0  0  0  0  0  0  0  0
    7.9891  -11.6156   26.3430 C   0  0  0  0  0  0  0  0  0  0  0  0
    7.0412  -13.9368   26.0440 C   0  0  0  0  0  0  0  0  0  0  0  0
    8.0964  -14.6377   25.2797 C   0  0  2  0  0  0  0  0  0  0  0  0
    7.8522  -14.6480   23.8704 N   0  0  0  0  0  0  0  0  0  0  0  0
    8.4935  -15.9512   25.8469 C   0  0  0  0  0  0  0  0  0  0  0  0
    8.4826  -16.0959   27.0766 O   0  0  0  0  0  0  0  0  0  0  0  0
    7.5758  -19.8706   24.5116 C   0  0  0  0  0  0  0  0  0  0  0  0
    9.0319  -19.4885   24.6610 C   0  0  1  0  0  0  0  0  0  0  0  0
    9.6269  -19.3538   23.3750 O   0  0  0  0  0  0  0  0  0  0  0  0
    9.2922  -18.3208   25.5189 C   0  0  2  0  0  0  0  0  0  0  0  0
    8.8846  -17.0347   25.0397 N   0  0  0  0  0  0  0  0  0  0  0  0
   10.7842  -18.3247   25.8080 C   0  0  0  0  0  0  0  0  0  0  0  0
   11.4878  -17.3932   25.4247 O   0  0  0  0  0  0  0  0  0  0  0  0
   11.2893  -19.3893   26.4970 O   0  0  0  0  0  0  0  0  0  0  0  0
  2  1  1  1
  2  8  1  0
  3  2  1  0
  4  5  1  0
  4  3  1  0
  6  7  1  0
  6  5  1  0
  8  9  2  0
 11 10  1  1
 11 13  1  0
 12 11  1  0
 14 13  1  1
 15  8  1  0
 15 14  1  0
 16 17  2  0
 16 14  1  0
 19 18  1  6
 19 21  1  0
 20 19  1  0
 21 22  1  6
 22 16  1  0
 23 25  1  0
 23 21  1  0
 24 23  2  0
M  END
$$$$
