KLT.pdb
     RDKit          3D

 25 24  0  0  1  0  0  0  0  0999 V2000
    9.5544  -14.8650   20.5361 N   0  0  0  0  0  0  0  0  0  0  0  0
    8.3777  -15.2409   21.3011 C   0  0  1  0  0  0  0  0  0  0  0  0
    7.8153  -16.5671   20.9292 C   0  0  0  0  0  0  0  0  0  0  0  0
    7.5509  -16.6958   19.4512 C   0  0  0  0  0  0  0  0  0  0  0  0
    6.8065  -17.9560   19.1011 C   0  0  0  0  0  0  0  0  0  0  0  0
    6.6566  -18.0909   17.6042 C   0  0  0  0  0  0  0  0  0  0  0  0
    7.7351  -18.9066   17.0515 N   0  0  0  0  0  0  0  0  0  0  0  0
    8.6869  -15.0673   22.7326 C   0  0  0  0  0  0  0  0  0  0  0  0
    9.8335  -15.2125   23.2223 O   0  0  0  0  0  0  0  0  0  0  0  0
    5.5610  -12.0046   26.4619 C   0  0  0  0  0  0  0  0  0  0  0  0
    6.7877  -12.4987   25.6602 C   0  0  1  0  0  0  0  0  0  0  0  0
    7.9522  -11.7488   26.2102 C   0  0  0  0  0  0  0  0  0  0  0  0
    6.8145  -13.9711   25.8323 C   0  0  0  0  0  0  0  0  0  0  0  0
    7.8188  -14.7624   25.0879 C   0  0  2  0  0  0  0  0  0  0  0  0
    7.6358  -14.7059   23.6704 N   0  0  0  0  0  0  0  0  0  0  0  0
    8.0453  -16.1272   25.6271 C   0  0  0  0  0  0  0  0  0  0  0  0
    7.0751  -16.8865   25.7508 O   0  0  0  0  0  0  0  0  0  0  0  0
    9.7554  -19.1071   24.1568 C   0  0  0  0  0  0  0  0  0  0  0  0
   10.4421  -18.7371   25.4529 C   0  0  1  0  0  0  0  0  0  0  0  0
   11.7022  -18.1368   25.1738 O   0  0  0  0  0  0  0  0  0  0  0  0
    9.6368  -17.9309   26.3851 C   0  0  2  0  0  0  0  0  0  0  0  0
    9.3196  -16.5874   26.0053 N   0  0  0  0  0  0  0  0  0  0  0  0
   10.3781  -17.9404   27.7117 C   0  0  0  0  0  0  0  0  0  0  0  0
   10.5858  -19.0027   28.2930 O   0  0  0  0  0  0  0  0  0  0  0  0
   10.7898  -16.7388   28.2116 O   0  0  0  0  0  0  0  0  0  0  0  0
  2  1  1  6
  2  8  1  0
  3  2  1  0
  4  5  1  0
  4  3  1  0
  6  7  1  0
  6  5  1  0
  8  9  2  0
 11 10  1  1
 11 13  1  0
 12 11  1  0
 14 13  1  1
 15  8  1  0
 15 14  1  0
 16 17  2  0
 16 14  1  0
 19 18  1  6
 19 21  1  0
 20 19  1  0
 21 22  1  6
 22 16  1  0
 23 25  1  0
 23 21  1  0
 24 23  2  0
M  END
$$$$
