KLT.pdb
     RDKit          3D

 25 24  0  0  1  0  0  0  0  0999 V2000
    9.3685  -18.4126   19.8609 N   0  0  0  0  0  0  0  0  0  0  0  0
   10.5756  -17.6097   19.7633 C   0  0  1  0  0  0  0  0  0  0  0  0
   11.1068  -17.4859   18.3791 C   0  0  0  0  0  0  0  0  0  0  0  0
   10.0452  -17.1113   17.3773 C   0  0  0  0  0  0  0  0  0  0  0  0
   10.5711  -17.0489   15.9686 C   0  0  0  0  0  0  0  0  0  0  0  0
    9.4559  -16.7544   14.9934 C   0  0  0  0  0  0  0  0  0  0  0  0
    9.9862  -16.5843   13.6429 N   0  0  0  0  0  0  0  0  0  0  0  0
   10.3347  -16.3332   20.4615 C   0  0  0  0  0  0  0  0  0  0  0  0
   11.2375  -15.5047   20.7341 O   0  0  0  0  0  0  0  0  0  0  0  0
    6.2846  -12.6603   19.7660 C   0  0  0  0  0  0  0  0  0  0  0  0
    7.6670  -13.3201   19.9791 C   0  0  1  0  0  0  0  0  0  0  0  0
    8.6555  -12.2070   19.9092 C   0  0  0  0  0  0  0  0  0  0  0  0
    7.5757  -14.0367   21.2738 C   0  0  0  0  0  0  0  0  0  0  0  0
    8.7263  -14.8485   21.7275 C   0  0  2  0  0  0  0  0  0  0  0  0
    8.9898  -15.9683   20.8774 N   0  0  0  0  0  0  0  0  0  0  0  0
    8.7197  -15.1632   23.1786 C   0  0  0  0  0  0  0  0  0  0  0  0
    8.4528  -14.2595   23.9820 O   0  0  0  0  0  0  0  0  0  0  0  0
    6.3945  -16.8213   25.4147 C   0  0  0  0  0  0  0  0  0  0  0  0
    7.6856  -17.6094   25.4303 C   0  0  1  0  0  0  0  0  0  0  0  0
    7.5290  -18.8021   24.6696 O   0  0  0  0  0  0  0  0  0  0  0  0
    8.8888  -16.8556   25.0407 C   0  0  2  0  0  0  0  0  0  0  0  0
    9.0088  -16.4477   23.6736 N   0  0  0  0  0  0  0  0  0  0  0  0
   10.0795  -17.7115   25.4397 C   0  0  0  0  0  0  0  0  0  0  0  0
   10.8998  -18.0577   24.5930 O   0  0  0  0  0  0  0  0  0  0  0  0
   10.1872  -18.0675   26.7530 O   0  0  0  0  0  0  0  0  0  0  0  0
  2  1  1  6
  2  8  1  0
  3  2  1  0
  4  5  1  0
  4  3  1  0
  6  7  1  0
  6  5  1  0
  8  9  2  0
 11 10  1  1
 11 13  1  0
 12 11  1  0
 14 13  1  6
 15  8  1  0
 15 14  1  0
 16 17  2  0
 16 14  1  0
 19 18  1  6
 19 21  1  0
 20 19  1  0
 21 22  1  6
 22 16  1  0
 23 25  1  0
 23 21  1  0
 24 23  2  0
M  END
$$$$
