KLT.pdb
     RDKit          3D

 25 24  0  0  1  0  0  0  0  0999 V2000
    9.7313  -15.5877   20.1852 N   0  0  0  0  0  0  0  0  0  0  0  0
    8.5632  -15.7479   21.0344 C   0  0  1  0  0  0  0  0  0  0  0  0
    7.9715  -17.1123   20.9945 C   0  0  0  0  0  0  0  0  0  0  0  0
    8.0586  -17.7471   19.6305 C   0  0  0  0  0  0  0  0  0  0  0  0
    7.4712  -19.1322   19.5951 C   0  0  0  0  0  0  0  0  0  0  0  0
    7.4547  -19.6708   18.1841 C   0  0  0  0  0  0  0  0  0  0  0  0
    6.7923  -20.9721   18.1388 N   0  0  0  0  0  0  0  0  0  0  0  0
    8.9027  -15.2480   22.3798 C   0  0  0  0  0  0  0  0  0  0  0  0
   10.0616  -15.2700   22.8614 O   0  0  0  0  0  0  0  0  0  0  0  0
    6.3468  -11.4887   26.5087 C   0  0  0  0  0  0  0  0  0  0  0  0
    7.4721  -12.5356   26.3371 C   0  0  1  0  0  0  0  0  0  0  0  0
    7.3805  -13.4196   27.5334 C   0  0  0  0  0  0  0  0  0  0  0  0
    7.2260  -13.1796   25.0246 C   0  0  0  0  0  0  0  0  0  0  0  0
    8.1286  -14.2626   24.5761 C   0  0  2  0  0  0  0  0  0  0  0  0
    7.8689  -14.6870   23.2349 N   0  0  0  0  0  0  0  0  0  0  0  0
    8.2907  -15.3689   25.5530 C   0  0  0  0  0  0  0  0  0  0  0  0
    7.2761  -15.9074   26.0155 O   0  0  0  0  0  0  0  0  0  0  0  0
   10.1431  -18.7236   24.9027 C   0  0  0  0  0  0  0  0  0  0  0  0
   10.6795  -18.0361   26.1388 C   0  0  1  0  0  0  0  0  0  0  0  0
   11.9832  -17.5281   25.8776 O   0  0  0  0  0  0  0  0  0  0  0  0
    9.7941  -17.0180   26.7280 C   0  0  2  0  0  0  0  0  0  0  0  0
    9.5529  -15.8247   25.9746 N   0  0  0  0  0  0  0  0  0  0  0  0
   10.3822  -16.6718   28.0859 C   0  0  0  0  0  0  0  0  0  0  0  0
   10.7232  -15.5174   28.3326 O   0  0  0  0  0  0  0  0  0  0  0  0
   10.5096  -17.6834   28.9934 O   0  0  0  0  0  0  0  0  0  0  0  0
  2  1  1  6
  2  8  1  0
  3  2  1  0
  4  5  1  0
  4  3  1  0
  6  7  1  0
  6  5  1  0
  8  9  2  0
 11 10  1  1
 11 13  1  0
 12 11  1  0
 14 13  1  1
 15  8  1  0
 15 14  1  0
 16 17  2  0
 16 14  1  0
 19 18  1  6
 19 21  1  0
 20 19  1  0
 21 22  1  6
 22 16  1  0
 23 25  1  0
 23 21  1  0
 24 23  2  0
M  END
$$$$
