KLT.pdb
     RDKit          3D

 25 24  0  0  1  0  0  0  0  0999 V2000
    7.1387  -15.8669   21.3718 N   0  0  0  0  0  0  0  0  0  0  0  0
    8.5314  -15.4568   21.4293 C   0  0  1  0  0  0  0  0  0  0  0  0
    8.8964  -14.4203   20.4264 C   0  0  0  0  0  0  0  0  0  0  0  0
    7.6939  -13.7329   19.8328 C   0  0  0  0  0  0  0  0  0  0  0  0
    8.0322  -12.9206   18.6118 C   0  0  0  0  0  0  0  0  0  0  0  0
    8.2553  -13.8174   17.4171 C   0  0  0  0  0  0  0  0  0  0  0  0
    8.4331  -13.0226   16.2043 N   0  0  0  0  0  0  0  0  0  0  0  0
    8.8526  -15.1196   22.8286 C   0  0  0  0  0  0  0  0  0  0  0  0
    9.9913  -14.7621   23.2174 O   0  0  0  0  0  0  0  0  0  0  0  0
    5.6616  -12.2058   26.3857 C   0  0  0  0  0  0  0  0  0  0  0  0
    6.9029  -12.6911   25.6012 C   0  0  1  0  0  0  0  0  0  0  0  0
    8.0293  -11.8333   26.0663 C   0  0  0  0  0  0  0  0  0  0  0  0
    7.0195  -14.1408   25.8890 C   0  0  0  0  0  0  0  0  0  0  0  0
    8.0928  -14.9188   25.2320 C   0  0  2  0  0  0  0  0  0  0  0  0
    7.8232  -15.1892   23.8535 N   0  0  0  0  0  0  0  0  0  0  0  0
    8.5631  -16.0923   26.0106 C   0  0  0  0  0  0  0  0  0  0  0  0
    7.9819  -16.3774   27.0662 O   0  0  0  0  0  0  0  0  0  0  0  0
    8.3361  -19.7377   24.9192 C   0  0  0  0  0  0  0  0  0  0  0  0
    9.7714  -19.3382   25.1812 C   0  0  1  0  0  0  0  0  0  0  0  0
   10.4506  -19.1507   23.9445 O   0  0  0  0  0  0  0  0  0  0  0  0
    9.9514  -18.1962   26.0928 C   0  0  2  0  0  0  0  0  0  0  0  0
    9.6456  -16.8889   25.5955 N   0  0  0  0  0  0  0  0  0  0  0  0
   11.3927  -18.2520   26.5713 C   0  0  0  0  0  0  0  0  0  0  0  0
   11.7825  -19.2057   27.2408 O   0  0  0  0  0  0  0  0  0  0  0  0
   12.2106  -17.2142   26.2287 O   0  0  0  0  0  0  0  0  0  0  0  0
  2  1  1  1
  2  8  1  0
  3  2  1  0
  4  5  1  0
  4  3  1  0
  6  7  1  0
  6  5  1  0
  8  9  2  0
 11 10  1  1
 11 13  1  0
 12 11  1  0
 14 13  1  1
 15  8  1  0
 15 14  1  0
 16 17  2  0
 16 14  1  0
 19 18  1  6
 19 21  1  0
 20 19  1  0
 21 22  1  6
 22 16  1  0
 23 25  1  0
 23 21  1  0
 24 23  2  0
M  END
$$$$
