KLT.pdb
     RDKit          3D

 25 24  0  0  1  0  0  0  0  0999 V2000
    7.3875  -15.6333   21.0834 N   0  0  0  0  0  0  0  0  0  0  0  0
    8.6458  -14.9078   21.1256 C   0  0  1  0  0  0  0  0  0  0  0  0
    8.7519  -13.8257   20.1101 C   0  0  0  0  0  0  0  0  0  0  0  0
    7.9959  -14.1365   18.8441 C   0  0  0  0  0  0  0  0  0  0  0  0
    8.7348  -13.7074   17.6053 C   0  0  0  0  0  0  0  0  0  0  0  0
    7.9341  -14.0295   16.3658 C   0  0  0  0  0  0  0  0  0  0  0  0
    8.6875  -13.6831   15.1631 N   0  0  0  0  0  0  0  0  0  0  0  0
    8.8871  -14.4893   22.5190 C   0  0  0  0  0  0  0  0  0  0  0  0
   10.0252  -14.2416   22.9870 O   0  0  0  0  0  0  0  0  0  0  0  0
    7.8949  -11.4967   26.8296 C   0  0  0  0  0  0  0  0  0  0  0  0
    6.9233  -12.6979   26.7605 C   0  0  1  0  0  0  0  0  0  0  0  0
    5.6398  -12.2067   27.3369 C   0  0  0  0  0  0  0  0  0  0  0  0
    6.8894  -13.1067   25.3358 C   0  0  0  0  0  0  0  0  0  0  0  0
    7.9573  -13.9892   24.8167 C   0  0  2  0  0  0  0  0  0  0  0  0
    7.7735  -14.3400   23.4422 N   0  0  0  0  0  0  0  0  0  0  0  0
    8.2948  -15.1301   25.7050 C   0  0  0  0  0  0  0  0  0  0  0  0
    8.5318  -14.9043   26.8992 O   0  0  0  0  0  0  0  0  0  0  0  0
    6.3831  -18.8606   25.5622 C   0  0  0  0  0  0  0  0  0  0  0  0
    7.8950  -18.8711   25.6113 C   0  0  1  0  0  0  0  0  0  0  0  0
    8.4126  -19.3098   24.3601 O   0  0  0  0  0  0  0  0  0  0  0  0
    8.5197  -17.6166   26.0622 C   0  0  2  0  0  0  0  0  0  0  0  0
    8.3586  -16.4559   25.2395 N   0  0  0  0  0  0  0  0  0  0  0  0
    9.9957  -17.9190   26.2603 C   0  0  0  0  0  0  0  0  0  0  0  0
   10.3465  -18.7589   27.0856 O   0  0  0  0  0  0  0  0  0  0  0  0
   10.8887  -17.2267   25.4944 O   0  0  0  0  0  0  0  0  0  0  0  0
  2  1  1  1
  2  8  1  0
  3  2  1  0
  4  5  1  0
  4  3  1  0
  6  7  1  0
  6  5  1  0
  8  9  2  0
 11 10  1  6
 11 13  1  0
 12 11  1  0
 14 13  1  1
 15  8  1  0
 15 14  1  0
 16 17  2  0
 16 14  1  0
 19 18  1  6
 19 21  1  0
 20 19  1  0
 21 22  1  6
 22 16  1  0
 23 25  1  0
 23 21  1  0
 24 23  2  0
M  END
$$$$
