KLT.pdb
     RDKit          3D

 25 24  0  0  1  0  0  0  0  0999 V2000
    9.1628  -16.3268   20.3228 N   0  0  0  0  0  0  0  0  0  0  0  0
    7.9605  -16.2187   21.1315 C   0  0  1  0  0  0  0  0  0  0  0  0
    7.0878  -17.4225   21.0778 C   0  0  0  0  0  0  0  0  0  0  0  0
    7.2686  -18.2190   19.8114 C   0  0  0  0  0  0  0  0  0  0  0  0
    6.3886  -19.4388   19.7609 C   0  0  0  0  0  0  0  0  0  0  0  0
    6.6050  -20.2022   18.4757 C   0  0  0  0  0  0  0  0  0  0  0  0
    7.9808  -20.6862   18.3913 N   0  0  0  0  0  0  0  0  0  0  0  0
    8.3559  -15.7878   22.4854 C   0  0  0  0  0  0  0  0  0  0  0  0
    9.5108  -15.9329   22.9553 O   0  0  0  0  0  0  0  0  0  0  0  0
    6.3091  -11.7634   26.6234 C   0  0  0  0  0  0  0  0  0  0  0  0
    7.4919  -12.5956   26.0756 C   0  0  1  0  0  0  0  0  0  0  0  0
    8.1834  -13.1446   27.2761 C   0  0  0  0  0  0  0  0  0  0  0  0
    6.8921  -13.5883   25.1521 C   0  0  0  0  0  0  0  0  0  0  0  0
    7.7153  -14.7273   24.6896 C   0  0  2  0  0  0  0  0  0  0  0  0
    7.3869  -15.1520   23.3637 N   0  0  0  0  0  0  0  0  0  0  0  0
    7.8456  -15.8293   25.6761 C   0  0  0  0  0  0  0  0  0  0  0  0
    6.8161  -16.3478   26.1282 O   0  0  0  0  0  0  0  0  0  0  0  0
    8.7373  -19.2089   25.0269 C   0  0  0  0  0  0  0  0  0  0  0  0
    9.7420  -18.7029   26.0384 C   0  0  1  0  0  0  0  0  0  0  0  0
   10.9988  -18.4952   25.4035 O   0  0  0  0  0  0  0  0  0  0  0  0
    9.3137  -17.5312   26.8201 C   0  0  2  0  0  0  0  0  0  0  0  0
    9.0942  -16.3028   26.1181 N   0  0  0  0  0  0  0  0  0  0  0  0
   10.3578  -17.3354   27.9069 C   0  0  0  0  0  0  0  0  0  0  0  0
   11.0095  -16.2949   27.9540 O   0  0  0  0  0  0  0  0  0  0  0  0
   10.5304  -18.3494   28.8043 O   0  0  0  0  0  0  0  0  0  0  0  0
  2  1  1  6
  2  8  1  0
  3  2  1  0
  4  5  1  0
  4  3  1  0
  6  7  1  0
  6  5  1  0
  8  9  2  0
 11 10  1  1
 11 13  1  0
 12 11  1  0
 14 13  1  1
 15  8  1  0
 15 14  1  0
 16 17  2  0
 16 14  1  0
 19 18  1  6
 19 21  1  0
 20 19  1  0
 21 22  1  6
 22 16  1  0
 23 25  1  0
 23 21  1  0
 24 23  2  0
M  END
$$$$
