RIY.pdb
     RDKit          3D

 32 32  0  0  1  0  0  0  0  0999 V2000
    9.7746  -13.5543   18.0365 N   0  0  0  0  0  0  0  0  0  0  0  0
    8.4917  -13.5288   17.4296 C   0  0  0  0  0  0  0  0  0  0  0  0
    8.4105  -13.3785   16.1615 N   0  0  0  0  0  0  0  0  0  0  0  0
    7.3517  -13.6713   18.2706 N   0  0  0  0  0  0  0  0  0  0  0  0
    7.4921  -14.3642   19.5299 C   0  0  0  0  0  0  0  0  0  0  0  0
    6.9400  -15.7447   19.4502 C   0  0  0  0  0  0  0  0  0  0  0  0
    6.1454  -16.1263   20.7066 C   0  0  0  0  0  0  0  0  0  0  0  0
    7.1669  -16.6158   21.6873 C   0  0  2  0  0  0  0  0  0  0  0  0
    6.5450  -17.5871   22.5615 N   0  0  0  0  0  0  0  0  0  0  0  0
    7.8715  -15.5355   22.4257 C   0  0  0  0  0  0  0  0  0  0  0  0
    8.6554  -14.7562   21.8176 O   0  0  0  0  0  0  0  0  0  0  0  0
    7.4811  -13.2821   15.7096 C   0  0  0  0  0  0  0  0  0  0  0  0
    5.2565  -13.0614   26.6059 C   0  0  0  0  0  0  0  0  0  0  0  0
    6.0416  -13.3550   25.3359 C   0  0  2  0  0  0  0  0  0  0  0  0
    7.3989  -13.8849   25.7493 C   0  0  0  0  0  0  0  0  0  0  0  0
    8.0573  -12.8373   26.5875 C   0  0  2  0  0  0  0  0  0  0  0  0
    8.2072  -14.3789   24.6125 N   0  0  0  0  0  0  0  0  0  0  0  0
    7.6297  -15.4239   23.8225 C   0  0  0  0  0  0  0  0  0  0  0  0
    9.5327  -14.8562   25.1678 O   0  0  0  0  0  0  0  0  0  0  0  0
   10.1352  -14.1648   26.0308 O   0  0  0  0  0  0  0  0  0  0  0  0
   11.7865  -14.1829   31.4596 C   0  0  0  0  0  0  0  0  0  0  0  0
   11.3873  -14.8708   30.3308 C   0  0  0  0  0  0  0  0  0  0  0  0
   10.7425  -14.2256   29.2937 C   0  0  0  0  0  0  0  0  0  0  0  0
   10.3581  -14.9413   28.1828 C   0  0  0  0  0  0  0  0  0  0  0  0
   10.6129  -16.2875   28.1052 C   0  0  0  0  0  0  0  0  0  0  0  0
   10.1946  -17.0435   26.9183 C   0  0  2  0  0  0  0  0  0  0  0  0
   11.0339  -16.7595   25.7034 N   0  0  0  0  0  0  0  0  0  0  0  0
   10.1374  -16.0701   24.7530 C   0  0  0  0  0  0  0  0  0  0  0  0
   11.5262  -18.0299   25.1328 O   0  0  0  0  0  0  0  0  0  0  0  0
   10.9588  -18.4402   24.0622 C   0  0  0  0  0  0  0  0  0  0  0  0
   11.2600  -16.9364   29.1453 C   0  0  0  0  0  0  0  0  0  0  0  0
   11.6395  -16.2183   30.2466 O   0  0  0  0  0  0  0  0  0  0  0  0
  2  1  1  0
  2  3  2  0
  4  2  1  0
  5  4  1  0
  6  5  1  0
  7  6  1  0
  8  9  1  1
  8  7  1  0
 10  8  1  0
 11 10  2  0
 13 12  1  0
 14 13  1  0
 14 16  1  0
 14 15  1  1
 16 18  1  0
 16 17  1  6
 17 10  1  0
 18 27  1  0
 19 18  2  0
 21 22  2  0
 21 20  1  0
 23 22  1  0
 24 23  2  0
 25 24  1  0
 26 25  1  1
 27 26  1  0
 28 26  1  0
 28 32  1  0
 29 28  2  0
 30 24  1  0
 30 31  2  0
 31 21  1  0
M  END
$$$$
