RIY.pdb
     RDKit          3D

 32 32  0  0  1  0  0  0  0  0999 V2000
    7.2677  -20.9257   17.0633 N   0  0  0  0  0  0  0  0  0  0  0  0
    8.1812  -20.9780   18.1484 C   0  0  0  0  0  0  0  0  0  0  0  0
    8.8938  -22.0290   18.3066 N   0  0  0  0  0  0  0  0  0  0  0  0
    8.2570  -19.8494   19.0131 N   0  0  0  0  0  0  0  0  0  0  0  0
    9.1535  -18.7682   18.6773 C   0  0  0  0  0  0  0  0  0  0  0  0
    8.4022  -17.5186   18.3761 C   0  0  0  0  0  0  0  0  0  0  0  0
    8.9147  -16.3220   19.1892 C   0  0  0  0  0  0  0  0  0  0  0  0
    8.0863  -16.3080   20.4376 C   0  0  2  0  0  0  0  0  0  0  0  0
    6.7162  -16.0042   20.0838 N   0  0  0  0  0  0  0  0  0  0  0  0
    8.6176  -15.4308   21.5133 C   0  0  0  0  0  0  0  0  0  0  0  0
    9.7913  -14.9740   21.4399 O   0  0  0  0  0  0  0  0  0  0  0  0
    9.6809  -22.0243   18.9832 C   0  0  0  0  0  0  0  0  0  0  0  0
    6.3649  -12.1143   26.2157 C   0  0  0  0  0  0  0  0  0  0  0  0
    7.5851  -12.6702   25.4963 C   0  0  2  0  0  0  0  0  0  0  0  0
    7.1079  -13.7659   24.5659 C   0  0  0  0  0  0  0  0  0  0  0  0
    6.3887  -14.7810   25.3940 C   0  0  2  0  0  0  0  0  0  0  0  0
    8.1779  -14.3070   23.6988 N   0  0  0  0  0  0  0  0  0  0  0  0
    7.7610  -15.1377   22.6099 C   0  0  0  0  0  0  0  0  0  0  0  0
    9.1278  -15.0904   24.5805 O   0  0  0  0  0  0  0  0  0  0  0  0
    8.9033  -16.3068   24.8165 O   0  0  0  0  0  0  0  0  0  0  0  0
   11.1636  -17.1996   32.0968 C   0  0  0  0  0  0  0  0  0  0  0  0
   11.2558  -16.5509   30.8814 C   0  0  0  0  0  0  0  0  0  0  0  0
   11.9266  -17.1219   29.8177 C   0  0  0  0  0  0  0  0  0  0  0  0
   11.9995  -16.4481   28.6199 C   0  0  0  0  0  0  0  0  0  0  0  0
   11.4101  -15.2165   28.4823 C   0  0  0  0  0  0  0  0  0  0  0  0
   11.4974  -14.5031   27.2022 C   0  0  1  0  0  0  0  0  0  0  0  0
   11.1344  -15.3556   26.0179 N   0  0  0  0  0  0  0  0  0  0  0  0
   10.2811  -14.5055   25.1626 C   0  0  0  0  0  0  0  0  0  0  0  0
   10.3948  -16.5498   26.4747 O   0  0  0  0  0  0  0  0  0  0  0  0
    9.1618  -16.3859   26.7737 C   0  0  0  0  0  0  0  0  0  0  0  0
   10.7364  -14.6421   29.5491 C   0  0  0  0  0  0  0  0  0  0  0  0
   10.6678  -15.3180   30.7368 O   0  0  0  0  0  0  0  0  0  0  0  0
  2  1  1  0
  2  3  2  0
  4  2  1  0
  5  4  1  0
  6  5  1  0
  7  6  1  0
  8  9  1  6
  8  7  1  0
 10  8  1  0
 11 10  2  0
 13 12  1  0
 14 13  1  0
 14 16  1  0
 14 15  1  6
 16 18  1  0
 16 17  1  1
 17 10  1  0
 18 27  1  0
 19 18  2  0
 21 22  2  0
 21 20  1  0
 23 22  1  0
 24 23  2  0
 25 24  1  0
 26 25  1  6
 27 26  1  0
 28 26  1  0
 28 32  1  0
 29 28  2  0
 30 24  1  0
 30 31  2  0
 31 21  1  0
M  END
$$$$
