RIY.pdb
     RDKit          3D

 32 32  0  0  1  0  0  0  0  0999 V2000
    9.5233  -14.0876   16.5054 N   0  0  0  0  0  0  0  0  0  0  0  0
    8.1625  -13.9178   16.8717 C   0  0  0  0  0  0  0  0  0  0  0  0
    7.3986  -13.2294   16.1102 N   0  0  0  0  0  0  0  0  0  0  0  0
    7.7144  -14.5260   18.0785 N   0  0  0  0  0  0  0  0  0  0  0  0
    8.3563  -15.7372   18.5331 C   0  0  0  0  0  0  0  0  0  0  0  0
    7.3529  -16.7609   18.9354 C   0  0  0  0  0  0  0  0  0  0  0  0
    6.5122  -16.3098   20.1377 C   0  0  0  0  0  0  0  0  0  0  0  0
    7.3916  -16.5121   21.3337 C   0  0  2  0  0  0  0  0  0  0  0  0
    6.7285  -17.4127   22.2521 N   0  0  0  0  0  0  0  0  0  0  0  0
    7.8443  -15.2521   21.9790 C   0  0  0  0  0  0  0  0  0  0  0  0
    8.4836  -14.3912   21.3144 O   0  0  0  0  0  0  0  0  0  0  0  0
    6.4256  -13.0202   16.4048 C   0  0  0  0  0  0  0  0  0  0  0  0
    6.5209  -11.7834   26.8804 C   0  0  0  0  0  0  0  0  0  0  0  0
    7.4182  -12.0504   25.6809 C   0  0  2  0  0  0  0  0  0  0  0  0
    6.9767  -13.3603   25.0617 C   0  0  0  0  0  0  0  0  0  0  0  0
    6.6283  -14.2928   26.1764 C   0  0  2  0  0  0  0  0  0  0  0  0
    7.9384  -13.8956   24.0727 N   0  0  0  0  0  0  0  0  0  0  0  0
    7.5332  -15.0656   23.3540 C   0  0  0  0  0  0  0  0  0  0  0  0
    9.2306  -14.1903   24.8053 O   0  0  0  0  0  0  0  0  0  0  0  0
    9.4731  -13.6189   25.9010 O   0  0  0  0  0  0  0  0  0  0  0  0
   10.1228  -15.2185   31.5175 C   0  0  0  0  0  0  0  0  0  0  0  0
   10.1438  -15.5904   30.1880 C   0  0  0  0  0  0  0  0  0  0  0  0
   10.4543  -16.8833   29.8143 C   0  0  0  0  0  0  0  0  0  0  0  0
   10.4660  -17.2204   28.4800 C   0  0  0  0  0  0  0  0  0  0  0  0
   10.1718  -16.2788   27.5262 C   0  0  0  0  0  0  0  0  0  0  0  0
   10.1918  -16.6467   26.1050 C   0  0  2  0  0  0  0  0  0  0  0  0
   11.0873  -15.7701   25.2741 N   0  0  0  0  0  0  0  0  0  0  0  0
   10.1978  -15.0985   24.3045 C   0  0  0  0  0  0  0  0  0  0  0  0
   12.0889  -16.6029   24.5776 O   0  0  0  0  0  0  0  0  0  0  0  0
   13.0355  -17.0846   25.2906 C   0  0  0  0  0  0  0  0  0  0  0  0
    9.8600  -14.9808   27.8997 C   0  0  0  0  0  0  0  0  0  0  0  0
    9.8500  -14.6528   29.2282 O   0  0  0  0  0  0  0  0  0  0  0  0
  2  1  1  0
  2  3  2  0
  4  2  1  0
  5  4  1  0
  6  5  1  0
  7  6  1  0
  8  9  1  1
  8  7  1  0
 10  8  1  0
 11 10  2  0
 13 12  1  0
 14 13  1  0
 14 16  1  0
 14 15  1  6
 16 18  1  0
 16 17  1  1
 17 10  1  0
 18 27  1  0
 19 18  2  0
 21 22  2  0
 21 20  1  0
 23 22  1  0
 24 23  2  0
 25 24  1  0
 26 25  1  1
 27 26  1  0
 28 26  1  0
 28 32  1  0
 29 28  2  0
 30 24  1  0
 30 31  2  0
 31 21  1  0
M  END
$$$$
