RIY.pdb
     RDKit          3D

 32 32  0  0  1  0  0  0  0  0999 V2000
    9.6317  -13.9324   16.7477 N   0  0  0  0  0  0  0  0  0  0  0  0
    8.2426  -13.9127   16.4569 C   0  0  0  0  0  0  0  0  0  0  0  0
    7.8674  -13.7863   15.2400 N   0  0  0  0  0  0  0  0  0  0  0  0
    7.3306  -14.0339   17.5434 N   0  0  0  0  0  0  0  0  0  0  0  0
    7.8279  -13.9069   18.8933 C   0  0  0  0  0  0  0  0  0  0  0  0
    8.6927  -15.0619   19.2602 C   0  0  0  0  0  0  0  0  0  0  0  0
    9.3768  -14.8669   20.6203 C   0  0  0  0  0  0  0  0  0  0  0  0
    8.4518  -15.4892   21.6212 C   0  0  2  0  0  0  0  0  0  0  0  0
    7.0900  -15.1421   21.2754 N   0  0  0  0  0  0  0  0  0  0  0  0
    8.7885  -15.1840   23.0363 C   0  0  0  0  0  0  0  0  0  0  0  0
    9.9831  -15.2558   23.4355 O   0  0  0  0  0  0  0  0  0  0  0  0
    6.8557  -13.7604   15.0098 C   0  0  0  0  0  0  0  0  0  0  0  0
    5.7251  -11.3356   25.4345 C   0  0  0  0  0  0  0  0  0  0  0  0
    6.8570  -12.1844   24.8744 C   0  0  2  0  0  0  0  0  0  0  0  0
    7.0363  -13.3734   25.7954 C   0  0  0  0  0  0  0  0  0  0  0  0
    7.3987  -12.8481   27.1468 C   0  0  2  0  0  0  0  0  0  0  0  0
    7.9530  -14.4015   25.2549 N   0  0  0  0  0  0  0  0  0  0  0  0
    7.7235  -14.8177   23.9044 C   0  0  0  0  0  0  0  0  0  0  0  0
    7.8707  -15.6101   26.1636 O   0  0  0  0  0  0  0  0  0  0  0  0
    6.7730  -16.2098   26.3095 O   0  0  0  0  0  0  0  0  0  0  0  0
    8.1225  -23.6672   28.3148 C   0  0  0  0  0  0  0  0  0  0  0  0
    8.2651  -22.3767   27.8451 C   0  0  0  0  0  0  0  0  0  0  0  0
    9.4066  -21.9845   27.1737 C   0  0  0  0  0  0  0  0  0  0  0  0
    9.5162  -20.6903   26.7186 C   0  0  0  0  0  0  0  0  0  0  0  0
    8.4987  -19.7942   26.9305 C   0  0  0  0  0  0  0  0  0  0  0  0
    8.6269  -18.4144   26.4457 C   0  0  1  0  0  0  0  0  0  0  0  0
    8.8689  -17.4160   27.5437 N   0  0  0  0  0  0  0  0  0  0  0  0
    8.9951  -16.1072   26.8705 C   0  0  0  0  0  0  0  0  0  0  0  0
   10.1139  -17.7594   28.2606 O   0  0  0  0  0  0  0  0  0  0  0  0
   11.2084  -17.3332   27.7535 C   0  0  0  0  0  0  0  0  0  0  0  0
    7.3524  -20.1864   27.6042 C   0  0  0  0  0  0  0  0  0  0  0  0
    7.2503  -21.4748   28.0535 O   0  0  0  0  0  0  0  0  0  0  0  0
  2  1  1  0
  2  3  2  0
  4  2  1  0
  5  4  1  0
  6  5  1  0
  7  6  1  0
  8  9  1  6
  8  7  1  0
 10  8  1  0
 11 10  2  0
 13 12  1  0
 14 13  1  0
 14 16  1  0
 14 15  1  6
 16 18  1  0
 16 17  1  6
 17 10  1  0
 18 27  1  0
 19 18  2  0
 21 22  2  0
 21 20  1  0
 23 22  1  0
 24 23  2  0
 25 24  1  0
 26 25  1  1
 27 26  1  0
 28 26  1  0
 28 32  1  0
 29 28  2  0
 30 24  1  0
 30 31  2  0
 31 21  1  0
M  END
$$$$
