RIY.pdb
     RDKit          3D

 32 32  0  0  1  0  0  0  0  0999 V2000
   10.6118  -19.0731   18.6557 N   0  0  0  0  0  0  0  0  0  0  0  0
   10.3920  -19.6296   19.9428 C   0  0  0  0  0  0  0  0  0  0  0  0
   11.3304  -20.3030   20.4937 N   0  0  0  0  0  0  0  0  0  0  0  0
    9.1275  -19.4095   20.5590 N   0  0  0  0  0  0  0  0  0  0  0  0
    8.0822  -18.7617   19.8017 C   0  0  0  0  0  0  0  0  0  0  0  0
    8.0513  -17.2973   20.0687 C   0  0  0  0  0  0  0  0  0  0  0  0
    7.6078  -16.9772   21.5028 C   0  0  0  0  0  0  0  0  0  0  0  0
    7.5207  -15.4828   21.5657 C   0  0  2  0  0  0  0  0  0  0  0  0
    7.9832  -14.9362   20.3080 N   0  0  0  0  0  0  0  0  0  0  0  0
    8.1957  -14.8808   22.7451 C   0  0  0  0  0  0  0  0  0  0  0  0
    9.4545  -14.8111   22.7905 O   0  0  0  0  0  0  0  0  0  0  0  0
   11.1929  -20.7042   21.4409 C   0  0  0  0  0  0  0  0  0  0  0  0
    5.2691  -11.3601   25.9813 C   0  0  0  0  0  0  0  0  0  0  0  0
    6.4130  -11.8895   25.1288 C   0  0  2  0  0  0  0  0  0  0  0  0
    7.0211  -13.0683   25.8601 C   0  0  0  0  0  0  0  0  0  0  0  0
    7.6265  -12.5523   27.1252 C   0  0  2  0  0  0  0  0  0  0  0  0
    7.9263  -13.8792   25.0159 N   0  0  0  0  0  0  0  0  0  0  0  0
    7.3746  -14.3992   23.8015 C   0  0  0  0  0  0  0  0  0  0  0  0
    8.4297  -15.0306   25.8610 O   0  0  0  0  0  0  0  0  0  0  0  0
    7.6889  -16.0286   26.0641 O   0  0  0  0  0  0  0  0  0  0  0  0
   13.5930  -20.8640   29.7665 C   0  0  0  0  0  0  0  0  0  0  0  0
   13.0691  -19.8170   29.0345 C   0  0  0  0  0  0  0  0  0  0  0  0
   13.5232  -18.5249   29.2130 C   0  0  0  0  0  0  0  0  0  0  0  0
   12.9792  -17.5046   28.4666 C   0  0  0  0  0  0  0  0  0  0  0  0
   11.9917  -17.7681   27.5510 C   0  0  0  0  0  0  0  0  0  0  0  0
   11.4140  -16.6723   26.7630 C   0  0  1  0  0  0  0  0  0  0  0  0
   10.0947  -16.1854   27.2951 N   0  0  0  0  0  0  0  0  0  0  0  0
    9.7222  -15.0367   26.4443 C   0  0  0  0  0  0  0  0  0  0  0  0
   10.2520  -15.7664   28.7028 O   0  0  0  0  0  0  0  0  0  0  0  0
   10.4989  -14.5288   28.9126 C   0  0  0  0  0  0  0  0  0  0  0  0
   11.5350  -19.0645   27.3707 C   0  0  0  0  0  0  0  0  0  0  0  0
   12.0806  -20.0739   28.1160 O   0  0  0  0  0  0  0  0  0  0  0  0
  2  1  1  0
  2  3  2  0
  4  2  1  0
  5  4  1  0
  6  5  1  0
  7  6  1  0
  8  9  1  6
  8  7  1  0
 10  8  1  0
 11 10  2  0
 13 12  1  0
 14 13  1  0
 14 16  1  0
 14 15  1  6
 16 18  1  0
 16 17  1  6
 17 10  1  0
 18 27  1  0
 19 18  2  0
 21 22  2  0
 21 20  1  0
 23 22  1  0
 24 23  2  0
 25 24  1  0
 26 25  1  6
 27 26  1  0
 28 26  1  0
 28 32  1  0
 29 28  2  0
 30 24  1  0
 30 31  2  0
 31 21  1  0
M  END
$$$$
