RIY.pdb
     RDKit          3D

 32 32  0  0  1  0  0  0  0  0999 V2000
    8.2131  -21.1270   14.9744 N   0  0  0  0  0  0  0  0  0  0  0  0
    6.9691  -20.4487   15.0593 C   0  0  0  0  0  0  0  0  0  0  0  0
    6.5604  -19.7781   14.0490 N   0  0  0  0  0  0  0  0  0  0  0  0
    6.2349  -20.5489   16.2750 N   0  0  0  0  0  0  0  0  0  0  0  0
    6.8626  -21.1570   17.4247 C   0  0  0  0  0  0  0  0  0  0  0  0
    8.1692  -20.5116   17.7299 C   0  0  0  0  0  0  0  0  0  0  0  0
    8.0906  -19.5911   18.9555 C   0  0  0  0  0  0  0  0  0  0  0  0
    8.2874  -18.2047   18.4224 C   0  0  2  0  0  0  0  0  0  0  0  0
    8.9956  -18.2865   17.1630 N   0  0  0  0  0  0  0  0  0  0  0  0
    8.9183  -17.2642   19.3848 C   0  0  0  0  0  0  0  0  0  0  0  0
   10.1272  -17.4084   19.7153 O   0  0  0  0  0  0  0  0  0  0  0  0
    5.6733  -19.2424   14.1072 C   0  0  0  0  0  0  0  0  0  0  0  0
    6.7766  -12.0695   20.0510 C   0  0  0  0  0  0  0  0  0  0  0  0
    7.7826  -13.1839   19.8030 C   0  0  2  0  0  0  0  0  0  0  0  0
    7.8379  -14.0370   21.0533 C   0  0  0  0  0  0  0  0  0  0  0  0
    8.2927  -13.1634   22.1772 C   0  0  2  0  0  0  0  0  0  0  0  0
    8.6104  -15.2868   20.8773 N   0  0  0  0  0  0  0  0  0  0  0  0
    8.1125  -16.2163   19.9089 C   0  0  0  0  0  0  0  0  0  0  0  0
    8.6838  -15.9721   22.2258 O   0  0  0  0  0  0  0  0  0  0  0  0
    7.7012  -16.6406   22.6424 O   0  0  0  0  0  0  0  0  0  0  0  0
    4.7752  -20.3262   23.2775 C   0  0  0  0  0  0  0  0  0  0  0  0
    6.0219  -19.7686   23.4807 C   0  0  0  0  0  0  0  0  0  0  0  0
    6.4462  -19.4133   24.7462 C   0  0  0  0  0  0  0  0  0  0  0  0
    7.6951  -18.8597   24.9134 C   0  0  0  0  0  0  0  0  0  0  0  0
    8.5142  -18.6613   23.8304 C   0  0  0  0  0  0  0  0  0  0  0  0
    9.8428  -18.0656   24.0181 C   0  0  2  0  0  0  0  0  0  0  0  0
    9.7981  -16.6004   24.3532 N   0  0  0  0  0  0  0  0  0  0  0  0
    9.8309  -15.8946   23.0560 C   0  0  0  0  0  0  0  0  0  0  0  0
   10.9729  -16.2435   25.1745 O   0  0  0  0  0  0  0  0  0  0  0  0
   11.0584  -16.7900   26.3280 C   0  0  0  0  0  0  0  0  0  0  0  0
    8.0897  -19.0175   22.5597 C   0  0  0  0  0  0  0  0  0  0  0  0
    6.8469  -19.5675   22.4011 O   0  0  0  0  0  0  0  0  0  0  0  0
  2  1  1  0
  2  3  2  0
  4  2  1  0
  5  4  1  0
  6  5  1  0
  7  6  1  0
  8  9  1  6
  8  7  1  0
 10  8  1  0
 11 10  2  0
 13 12  1  0
 14 13  1  0
 14 16  1  0
 14 15  1  1
 16 18  1  0
 16 17  1  6
 17 10  1  0
 18 27  1  0
 19 18  2  0
 21 22  2  0
 21 20  1  0
 23 22  1  0
 24 23  2  0
 25 24  1  0
 26 25  1  6
 27 26  1  0
 28 26  1  0
 28 32  1  0
 29 28  2  0
 30 24  1  0
 30 31  2  0
 31 21  1  0
M  END
$$$$
