RIY.pdb
     RDKit          3D

 32 32  0  0  1  0  0  0  0  0999 V2000
    8.0646  -19.8267   17.1421 N   0  0  0  0  0  0  0  0  0  0  0  0
    7.0962  -19.0450   16.4595 C   0  0  0  0  0  0  0  0  0  0  0  0
    5.8908  -19.4699   16.3972 N   0  0  0  0  0  0  0  0  0  0  0  0
    7.5200  -17.8188   15.8731 N   0  0  0  0  0  0  0  0  0  0  0  0
    7.9856  -16.7552   16.7320 C   0  0  0  0  0  0  0  0  0  0  0  0
    7.0626  -16.5474   17.8816 C   0  0  0  0  0  0  0  0  0  0  0  0
    7.5123  -15.3924   18.7867 C   0  0  0  0  0  0  0  0  0  0  0  0
    7.9485  -16.0389   20.0660 C   0  0  2  0  0  0  0  0  0  0  0  0
    6.9034  -16.9334   20.5154 N   0  0  0  0  0  0  0  0  0  0  0  0
    8.3866  -15.0820   21.1154 C   0  0  0  0  0  0  0  0  0  0  0  0
    9.2586  -14.2082   20.8554 O   0  0  0  0  0  0  0  0  0  0  0  0
    5.1577  -18.8853   15.9523 C   0  0  0  0  0  0  0  0  0  0  0  0
    6.4987  -12.2652   26.1142 C   0  0  0  0  0  0  0  0  0  0  0  0
    7.7028  -12.8361   25.3796 C   0  0  2  0  0  0  0  0  0  0  0  0
    7.1958  -13.8974   24.4255 C   0  0  0  0  0  0  0  0  0  0  0  0
    6.4862  -14.9329   25.2365 C   0  0  2  0  0  0  0  0  0  0  0  0
    8.2417  -14.4188   23.5179 N   0  0  0  0  0  0  0  0  0  0  0  0
    7.7924  -15.1956   22.4024 C   0  0  0  0  0  0  0  0  0  0  0  0
    9.1926  -15.2544   24.3491 O   0  0  0  0  0  0  0  0  0  0  0  0
    9.0305  -16.5011   24.4215 O   0  0  0  0  0  0  0  0  0  0  0  0
   10.3432  -15.9405   32.0699 C   0  0  0  0  0  0  0  0  0  0  0  0
   10.7301  -15.6656   30.7733 C   0  0  0  0  0  0  0  0  0  0  0  0
   11.5014  -16.5583   30.0551 C   0  0  0  0  0  0  0  0  0  0  0  0
   11.8695  -16.2530   28.7646 C   0  0  0  0  0  0  0  0  0  0  0  0
   11.4737  -15.0694   28.1942 C   0  0  0  0  0  0  0  0  0  0  0  0
   11.8755  -14.7504   26.8186 C   0  0  1  0  0  0  0  0  0  0  0  0
   11.1887  -15.5985   25.7843 N   0  0  0  0  0  0  0  0  0  0  0  0
   10.2786  -14.6860   25.0623 C   0  0  0  0  0  0  0  0  0  0  0  0
   10.4303  -16.6766   26.4510 O   0  0  0  0  0  0  0  0  0  0  0  0
   11.0521  -17.7747   26.6617 C   0  0  0  0  0  0  0  0  0  0  0  0
   10.6995  -14.1724   28.9137 C   0  0  0  0  0  0  0  0  0  0  0  0
   10.3371  -14.4827   30.1962 O   0  0  0  0  0  0  0  0  0  0  0  0
  2  1  1  0
  2  3  2  0
  4  2  1  0
  5  4  1  0
  6  5  1  0
  7  6  1  0
  8  9  1  1
  8  7  1  0
 10  8  1  0
 11 10  2  0
 13 12  1  0
 14 13  1  0
 14 16  1  0
 14 15  1  6
 16 18  1  0
 16 17  1  1
 17 10  1  0
 18 27  1  0
 19 18  2  0
 21 22  2  0
 21 20  1  0
 23 22  1  0
 24 23  2  0
 25 24  1  0
 26 25  1  6
 27 26  1  0
 28 26  1  0
 28 32  1  0
 29 28  2  0
 30 24  1  0
 30 31  2  0
 31 21  1  0
M  END
$$$$
