HGF.pdb
     RDKit          3D

 26 27  0  0  1  0  0  0  0  0999 V2000
    7.3800  -18.3277   21.1147 N   0  0  0  0  0  0  0  0  0  0  0  0
    8.0774  -17.7807   19.9658 C   0  0  1  0  0  0  0  0  0  0  0  0
    7.1194  -17.0676   19.0348 C   0  0  0  0  0  0  0  0  0  0  0  0
    6.0917  -18.0091   18.5892 C   0  0  0  0  0  0  0  0  0  0  0  0
    6.1222  -18.8085   17.4763 C   0  0  0  0  0  0  0  0  0  0  0  0
    4.9522  -19.5006   17.4922 N   0  0  0  0  0  0  0  0  0  0  0  0
    4.2471  -19.1292   18.5743 C   0  0  0  0  0  0  0  0  0  0  0  0
    4.9296  -18.2035   19.2758 N   0  0  0  0  0  0  0  0  0  0  0  0
    9.0006  -16.7258   20.4725 C   0  0  0  0  0  0  0  0  0  0  0  0
    9.6503  -16.0738   19.6151 O   0  0  0  0  0  0  0  0  0  0  0  0
    9.1456  -16.4628   21.8577 N   0  0  0  0  0  0  0  0  0  0  0  0
   10.0931  -15.4997   22.3126 C   0  0  0  0  0  0  0  0  0  0  0  0
   10.1240  -15.4057   23.8107 C   0  0  0  0  0  0  0  0  0  0  0  0
   11.0619  -14.8135   24.4105 O   0  0  0  0  0  0  0  0  0  0  0  0
    9.0980  -15.9797   24.6060 N   0  0  0  0  0  0  0  0  0  0  0  0
    9.1053  -16.0284   26.0308 C   0  0  1  0  0  0  0  0  0  0  0  0
    7.7504  -15.7127   26.6371 C   0  0  0  0  0  0  0  0  0  0  0  0
    7.4100  -14.2862   26.4769 C   0  0  0  0  0  0  0  0  0  0  0  0
    7.9962  -13.2816   27.2031 C   0  0  0  0  0  0  0  0  0  0  0  0
    7.6379  -11.9569   27.0062 C   0  0  0  0  0  0  0  0  0  0  0  0
    6.6817  -11.6272   26.0724 C   0  0  0  0  0  0  0  0  0  0  0  0
    6.0835  -12.6223   25.3354 C   0  0  0  0  0  0  0  0  0  0  0  0
    6.4563  -13.9358   25.5487 C   0  0  0  0  0  0  0  0  0  0  0  0
    9.6659  -17.2867   26.5730 C   0  0  0  0  0  0  0  0  0  0  0  0
   10.0281  -18.3323   25.7178 O   0  0  0  0  0  0  0  0  0  0  0  0
    9.8425  -17.4798   27.8011 O   0  0  0  0  0  0  0  0  0  0  0  0
  2  9  1  0
  2  1  1  1
  3  2  1  0
  4  8  1  0
  4  3  1  0
  5  4  2  0
  6  5  1  0
  6  7  1  0
  7  8  2  0
  9 11  1  0
 10  9  2  0
 11 12  1  0
 13 12  1  0
 13 14  2  0
 15 13  1  0
 16 15  1  0
 16 24  1  0
 16 17  1  6
 18 23  1  0
 18 17  1  0
 19 18  2  0
 20 21  2  0
 20 19  1  0
 21 22  1  0
 22 23  2  0
 24 26  2  0
 24 25  1  0
M  END
$$$$
