HGF.pdb
     RDKit          3D

 26 27  0  0  1  0  0  0  0  0999 V2000
    7.4459  -15.9072   20.3500 N   0  0  0  0  0  0  0  0  0  0  0  0
    8.8119  -15.4425   20.5035 C   0  0  1  0  0  0  0  0  0  0  0  0
    8.9228  -13.9638   20.1966 C   0  0  0  0  0  0  0  0  0  0  0  0
    8.5443  -13.7325   18.8022 C   0  0  0  0  0  0  0  0  0  0  0  0
    7.5466  -12.9169   18.3355 C   0  0  0  0  0  0  0  0  0  0  0  0
    7.5850  -13.0321   16.9814 N   0  0  0  0  0  0  0  0  0  0  0  0
    8.5689  -13.8851   16.6497 C   0  0  0  0  0  0  0  0  0  0  0  0
    9.1833  -14.3370   17.7602 N   0  0  0  0  0  0  0  0  0  0  0  0
    9.1634  -15.5780   21.9458 C   0  0  0  0  0  0  0  0  0  0  0  0
   10.3451  -15.3002   22.2753 O   0  0  0  0  0  0  0  0  0  0  0  0
    8.2136  -16.0005   22.9094 N   0  0  0  0  0  0  0  0  0  0  0  0
    8.6202  -16.7946   24.0213 C   0  0  0  0  0  0  0  0  0  0  0  0
    9.3929  -15.9952   25.0303 C   0  0  0  0  0  0  0  0  0  0  0  0
   10.2921  -15.1858   24.6748 O   0  0  0  0  0  0  0  0  0  0  0  0
    9.1384  -16.1213   26.4209 N   0  0  0  0  0  0  0  0  0  0  0  0
    9.9153  -15.5096   27.4480 C   0  0  1  0  0  0  0  0  0  0  0  0
    9.0932  -14.6056   28.3480 C   0  0  0  0  0  0  0  0  0  0  0  0
    8.2405  -13.6956   27.5599 C   0  0  0  0  0  0  0  0  0  0  0  0
    8.6396  -12.4496   27.1493 C   0  0  0  0  0  0  0  0  0  0  0  0
    7.7950  -11.6391   26.4067 C   0  0  0  0  0  0  0  0  0  0  0  0
    6.5342  -12.0752   26.0674 C   0  0  0  0  0  0  0  0  0  0  0  0
    6.1177  -13.3222   26.4711 C   0  0  0  0  0  0  0  0  0  0  0  0
    6.9765  -14.1129   27.2106 C   0  0  0  0  0  0  0  0  0  0  0  0
   10.7182  -16.4756   28.2316 C   0  0  0  0  0  0  0  0  0  0  0  0
   10.6173  -17.8490   27.9885 O   0  0  0  0  0  0  0  0  0  0  0  0
   11.5147  -16.1231   29.1361 O   0  0  0  0  0  0  0  0  0  0  0  0
  2  9  1  0
  2  1  1  1
  3  2  1  0
  4  8  1  0
  4  3  1  0
  5  4  2  0
  6  5  1  0
  6  7  1  0
  7  8  2  0
  9 11  1  0
 10  9  2  0
 11 12  1  0
 13 12  1  0
 13 14  2  0
 15 13  1  0
 16 15  1  0
 16 24  1  0
 16 17  1  1
 18 23  1  0
 18 17  1  0
 19 18  2  0
 20 21  2  0
 20 19  1  0
 21 22  1  0
 22 23  2  0
 24 26  2  0
 24 25  1  0
M  END
$$$$
