HGF.pdb
     RDKit          3D

 26 27  0  0  1  0  0  0  0  0999 V2000
    7.7613  -17.9557   20.7629 N   0  0  0  0  0  0  0  0  0  0  0  0
    9.1734  -18.0045   20.4327 C   0  0  1  0  0  0  0  0  0  0  0  0
    9.3950  -17.7857   18.9508 C   0  0  0  0  0  0  0  0  0  0  0  0
    8.7279  -18.8515   18.2024 C   0  0  0  0  0  0  0  0  0  0  0  0
    8.6415  -20.1769   18.5407 C   0  0  0  0  0  0  0  0  0  0  0  0
    7.9275  -20.7621   17.5428 N   0  0  0  0  0  0  0  0  0  0  0  0
    7.5988  -19.8222   16.6404 C   0  0  0  0  0  0  0  0  0  0  0  0
    8.0822  -18.6244   17.0231 N   0  0  0  0  0  0  0  0  0  0  0  0
    9.8237  -16.8459   21.1086 C   0  0  0  0  0  0  0  0  0  0  0  0
   11.0639  -16.7115   20.9470 O   0  0  0  0  0  0  0  0  0  0  0  0
    9.0842  -15.9317   21.9000 N   0  0  0  0  0  0  0  0  0  0  0  0
    9.7327  -14.8178   22.5090 C   0  0  0  0  0  0  0  0  0  0  0  0
    9.8257  -14.9678   24.0000 C   0  0  0  0  0  0  0  0  0  0  0  0
   10.5873  -14.2332   24.6858 O   0  0  0  0  0  0  0  0  0  0  0  0
    9.0589  -15.9416   24.6915 N   0  0  0  0  0  0  0  0  0  0  0  0
    9.0914  -16.1506   26.1014 C   0  0  1  0  0  0  0  0  0  0  0  0
    7.7925  -15.7625   26.7836 C   0  0  0  0  0  0  0  0  0  0  0  0
    7.4949  -14.3298   26.5957 C   0  0  0  0  0  0  0  0  0  0  0  0
    8.1860  -13.3244   27.2215 C   0  0  0  0  0  0  0  0  0  0  0  0
    7.8632  -11.9940   27.0030 C   0  0  0  0  0  0  0  0  0  0  0  0
    6.8369  -11.6593   26.1487 C   0  0  0  0  0  0  0  0  0  0  0  0
    6.1333  -12.6552   25.5128 C   0  0  0  0  0  0  0  0  0  0  0  0
    6.4726  -13.9743   25.7458 C   0  0  0  0  0  0  0  0  0  0  0  0
    9.5221  -17.5145   26.4836 C   0  0  0  0  0  0  0  0  0  0  0  0
    9.9074  -17.7982   27.7977 O   0  0  0  0  0  0  0  0  0  0  0  0
    9.5643  -18.4685   25.6682 O   0  0  0  0  0  0  0  0  0  0  0  0
  2  9  1  0
  2  1  1  6
  3  2  1  0
  4  8  1  0
  4  3  1  0
  5  4  2  0
  6  5  1  0
  6  7  1  0
  7  8  2  0
  9 11  1  0
 10  9  2  0
 11 12  1  0
 13 12  1  0
 13 14  2  0
 15 13  1  0
 16 15  1  0
 16 24  1  0
 16 17  1  6
 18 23  1  0
 18 17  1  0
 19 18  2  0
 20 21  2  0
 20 19  1  0
 21 22  1  0
 22 23  2  0
 24 26  2  0
 24 25  1  0
M  END
$$$$
