HGF.pdb
     RDKit          3D

 26 27  0  0  1  0  0  0  0  0999 V2000
    9.4098  -15.2806   19.7517 N   0  0  0  0  0  0  0  0  0  0  0  0
    8.3572  -14.4432   20.2962 C   0  0  1  0  0  0  0  0  0  0  0  0
    7.1732  -14.3740   19.3548 C   0  0  0  0  0  0  0  0  0  0  0  0
    7.6410  -13.9959   18.0209 C   0  0  0  0  0  0  0  0  0  0  0  0
    8.1506  -12.7849   17.6304 C   0  0  0  0  0  0  0  0  0  0  0  0
    8.4442  -12.9215   16.3101 N   0  0  0  0  0  0  0  0  0  0  0  0
    8.1221  -14.1678   15.9242 C   0  0  0  0  0  0  0  0  0  0  0  0
    7.6205  -14.8594   16.9658 N   0  0  0  0  0  0  0  0  0  0  0  0
    7.8506  -15.1168   21.5256 C   0  0  0  0  0  0  0  0  0  0  0  0
    6.9836  -14.5024   22.1988 O   0  0  0  0  0  0  0  0  0  0  0  0
    8.3199  -16.3932   21.9251 N   0  0  0  0  0  0  0  0  0  0  0  0
    7.9201  -16.9485   23.1758 C   0  0  0  0  0  0  0  0  0  0  0  0
    8.6969  -16.3686   24.3222 C   0  0  0  0  0  0  0  0  0  0  0  0
    9.7546  -15.7095   24.1298 O   0  0  0  0  0  0  0  0  0  0  0  0
    8.2683  -16.5410   25.6643 N   0  0  0  0  0  0  0  0  0  0  0  0
    8.9753  -16.0714   26.8099 C   0  0  1  0  0  0  0  0  0  0  0  0
    8.1151  -15.2168   27.7224 C   0  0  0  0  0  0  0  0  0  0  0  0
    7.7300  -13.9522   27.0675 C   0  0  0  0  0  0  0  0  0  0  0  0
    8.6175  -12.9471   26.7806 C   0  0  0  0  0  0  0  0  0  0  0  0
    8.1976  -11.7808   26.1598 C   0  0  0  0  0  0  0  0  0  0  0  0
    6.8744  -11.6124   25.8194 C   0  0  0  0  0  0  0  0  0  0  0  0
    5.9708  -12.6104   26.1000 C   0  0  0  0  0  0  0  0  0  0  0  0
    6.4119  -13.7643   26.7193 C   0  0  0  0  0  0  0  0  0  0  0  0
    9.6624  -17.1481   27.5585 C   0  0  0  0  0  0  0  0  0  0  0  0
   10.6544  -16.8431   28.4959 O   0  0  0  0  0  0  0  0  0  0  0  0
    9.3987  -18.3650   27.3965 O   0  0  0  0  0  0  0  0  0  0  0  0
  2  9  1  0
  2  1  1  6
  3  2  1  0
  4  8  1  0
  4  3  1  0
  5  4  2  0
  6  5  1  0
  6  7  1  0
  7  8  2  0
  9 11  1  0
 10  9  2  0
 11 12  1  0
 13 12  1  0
 13 14  2  0
 15 13  1  0
 16 15  1  0
 16 24  1  0
 16 17  1  1
 18 23  1  0
 18 17  1  0
 19 18  2  0
 20 21  2  0
 20 19  1  0
 21 22  1  0
 22 23  2  0
 24 26  2  0
 24 25  1  0
M  END
$$$$
