HGF.pdb
     RDKit          3D

 26 27  0  0  1  0  0  0  0  0999 V2000
    9.2740  -15.4703   19.4375 N   0  0  0  0  0  0  0  0  0  0  0  0
    8.4052  -14.4637   20.0184 C   0  0  1  0  0  0  0  0  0  0  0  0
    7.1686  -14.2549   19.1698 C   0  0  0  0  0  0  0  0  0  0  0  0
    7.5699  -14.0495   17.7776 C   0  0  0  0  0  0  0  0  0  0  0  0
    8.0395  -12.8942   17.2091 C   0  0  0  0  0  0  0  0  0  0  0  0
    8.2768  -13.1994   15.9058 N   0  0  0  0  0  0  0  0  0  0  0  0
    7.9607  -14.4895   15.7014 C   0  0  0  0  0  0  0  0  0  0  0  0
    7.5185  -15.0444   16.8465 N   0  0  0  0  0  0  0  0  0  0  0  0
    7.9114  -15.0046   21.3166 C   0  0  0  0  0  0  0  0  0  0  0  0
    7.1887  -14.2475   22.0143 O   0  0  0  0  0  0  0  0  0  0  0  0
    8.2373  -16.3133   21.7528 N   0  0  0  0  0  0  0  0  0  0  0  0
    7.8351  -16.7630   23.0444 C   0  0  0  0  0  0  0  0  0  0  0  0
    8.7394  -16.2469   24.1260 C   0  0  0  0  0  0  0  0  0  0  0  0
    9.8921  -15.8091   23.8623 O   0  0  0  0  0  0  0  0  0  0  0  0
    8.3289  -16.2326   25.4847 N   0  0  0  0  0  0  0  0  0  0  0  0
    9.1435  -15.8090   26.5754 C   0  0  1  0  0  0  0  0  0  0  0  0
    8.3842  -14.9677   27.5846 C   0  0  0  0  0  0  0  0  0  0  0  0
    7.7189  -13.8219   26.9359 C   0  0  0  0  0  0  0  0  0  0  0  0
    6.4517  -13.8776   26.4149 C   0  0  0  0  0  0  0  0  0  0  0  0
    5.8761  -12.7660   25.8193 C   0  0  0  0  0  0  0  0  0  0  0  0
    6.5721  -11.5809   25.7411 C   0  0  0  0  0  0  0  0  0  0  0  0
    7.8442  -11.5074   26.2585 C   0  0  0  0  0  0  0  0  0  0  0  0
    8.3979  -12.6282   26.8476 C   0  0  0  0  0  0  0  0  0  0  0  0
    9.8736  -16.9186   27.2292 C   0  0  0  0  0  0  0  0  0  0  0  0
   10.8931  -16.6562   28.1498 O   0  0  0  0  0  0  0  0  0  0  0  0
    9.6237  -18.1273   26.9983 O   0  0  0  0  0  0  0  0  0  0  0  0
  2  9  1  0
  2  1  1  6
  3  2  1  0
  4  8  1  0
  4  3  1  0
  5  4  2  0
  6  5  1  0
  6  7  1  0
  7  8  2  0
  9 11  1  0
 10  9  2  0
 11 12  1  0
 13 12  1  0
 13 14  2  0
 15 13  1  0
 16 15  1  0
 16 24  1  0
 16 17  1  1
 18 23  1  0
 18 17  1  0
 19 18  2  0
 20 21  2  0
 20 19  1  0
 21 22  1  0
 22 23  2  0
 24 26  2  0
 24 25  1  0
M  END
$$$$
