HGF.pdb
     RDKit          3D

 26 27  0  0  1  0  0  0  0  0999 V2000
    9.7484  -15.8860   20.2843 N   0  0  0  0  0  0  0  0  0  0  0  0
    8.9408  -14.9966   21.0980 C   0  0  1  0  0  0  0  0  0  0  0  0
    7.6096  -14.7094   20.4358 C   0  0  0  0  0  0  0  0  0  0  0  0
    7.8458  -14.1422   19.1077 C   0  0  0  0  0  0  0  0  0  0  0  0
    8.2607  -12.8708   18.8080 C   0  0  0  0  0  0  0  0  0  0  0  0
    8.3374  -12.8225   17.4516 N   0  0  0  0  0  0  0  0  0  0  0  0
    7.9813  -14.0204   16.9574 C   0  0  0  0  0  0  0  0  0  0  0  0
    7.6704  -14.8616   17.9627 N   0  0  0  0  0  0  0  0  0  0  0  0
    8.6116  -15.7273   22.3549 C   0  0  0  0  0  0  0  0  0  0  0  0
    7.8625  -15.1413   23.1781 O   0  0  0  0  0  0  0  0  0  0  0  0
    9.1164  -17.0253   22.6181 N   0  0  0  0  0  0  0  0  0  0  0  0
    8.9669  -17.6077   23.9106 C   0  0  0  0  0  0  0  0  0  0  0  0
   10.0107  -17.1177   24.8721 C   0  0  0  0  0  0  0  0  0  0  0  0
   11.2111  -16.9690   24.5156 O   0  0  0  0  0  0  0  0  0  0  0  0
    9.6838  -16.8035   26.2170 N   0  0  0  0  0  0  0  0  0  0  0  0
   10.6095  -16.3173   27.1862 C   0  0  1  0  0  0  0  0  0  0  0  0
   10.7591  -14.8075   27.1512 C   0  0  0  0  0  0  0  0  0  0  0  0
    9.4589  -14.1350   27.3349 C   0  0  0  0  0  0  0  0  0  0  0  0
    8.4654  -14.1366   26.3899 C   0  0  0  0  0  0  0  0  0  0  0  0
    7.2612  -13.4895   26.6203 C   0  0  0  0  0  0  0  0  0  0  0  0
    7.0425  -12.8310   27.8093 C   0  0  0  0  0  0  0  0  0  0  0  0
    8.0284  -12.8194   28.7681 C   0  0  0  0  0  0  0  0  0  0  0  0
    9.2208  -13.4711   28.5166 C   0  0  0  0  0  0  0  0  0  0  0  0
   10.3371  -16.8071   28.5565 C   0  0  0  0  0  0  0  0  0  0  0  0
    9.2360  -17.6300   28.8135 O   0  0  0  0  0  0  0  0  0  0  0  0
   11.0624  -16.5172   29.5397 O   0  0  0  0  0  0  0  0  0  0  0  0
  2  9  1  0
  2  1  1  6
  3  2  1  0
  4  8  1  0
  4  3  1  0
  5  4  2  0
  6  5  1  0
  6  7  1  0
  7  8  2  0
  9 11  1  0
 10  9  2  0
 11 12  1  0
 13 12  1  0
 13 14  2  0
 15 13  1  0
 16 15  1  0
 16 24  1  0
 16 17  1  1
 18 23  1  0
 18 17  1  0
 19 18  2  0
 20 21  2  0
 20 19  1  0
 21 22  1  0
 22 23  2  0
 24 26  2  0
 24 25  1  0
M  END
$$$$
