HGF.pdb
     RDKit          3D

 26 27  0  0  1  0  0  0  0  0999 V2000
    8.1121  -17.2365   19.9791 N   0  0  0  0  0  0  0  0  0  0  0  0
    9.3906  -17.2549   19.2930 C   0  0  1  0  0  0  0  0  0  0  0  0
    9.2916  -16.5880   17.9371 C   0  0  0  0  0  0  0  0  0  0  0  0
    8.5377  -17.4535   17.0295 C   0  0  0  0  0  0  0  0  0  0  0  0
    8.5006  -18.8236   17.0259 C   0  0  0  0  0  0  0  0  0  0  0  0
    7.6662  -19.1630   16.0076 N   0  0  0  0  0  0  0  0  0  0  0  0
    7.2207  -18.0380   15.4231 C   0  0  0  0  0  0  0  0  0  0  0  0
    7.7448  -16.9591   16.0364 N   0  0  0  0  0  0  0  0  0  0  0  0
   10.3278  -16.4095   20.0860 C   0  0  0  0  0  0  0  0  0  0  0  0
   11.5358  -16.4109   19.7354 O   0  0  0  0  0  0  0  0  0  0  0  0
    9.8851  -15.6352   21.1876 N   0  0  0  0  0  0  0  0  0  0  0  0
   10.8271  -14.9654   22.0220 C   0  0  0  0  0  0  0  0  0  0  0  0
   10.5648  -15.2154   23.4790 C   0  0  0  0  0  0  0  0  0  0  0  0
   11.3503  -14.7888   24.3684 O   0  0  0  0  0  0  0  0  0  0  0  0
    9.4226  -15.9406   23.9079 N   0  0  0  0  0  0  0  0  0  0  0  0
    9.0556  -16.1477   25.2699 C   0  0  1  0  0  0  0  0  0  0  0  0
    7.5821  -15.8916   25.5275 C   0  0  0  0  0  0  0  0  0  0  0  0
    7.2971  -14.4473   25.6229 C   0  0  0  0  0  0  0  0  0  0  0  0
    8.2561  -13.4760   25.4926 C   0  0  0  0  0  0  0  0  0  0  0  0
    7.9279  -12.1325   25.5883 C   0  0  0  0  0  0  0  0  0  0  0  0
    6.6255  -11.7499   25.8172 C   0  0  0  0  0  0  0  0  0  0  0  0
    5.6510  -12.7112   25.9505 C   0  0  0  0  0  0  0  0  0  0  0  0
    6.0013  -14.0443   25.8515 C   0  0  0  0  0  0  0  0  0  0  0  0
    9.4817  -17.4627   25.7999 C   0  0  0  0  0  0  0  0  0  0  0  0
    9.4046  -17.7383   27.1688 O   0  0  0  0  0  0  0  0  0  0  0  0
    9.9253  -18.3807   25.0670 O   0  0  0  0  0  0  0  0  0  0  0  0
  2  9  1  0
  2  1  1  1
  3  2  1  0
  4  8  1  0
  4  3  1  0
  5  4  2  0
  6  5  1  0
  6  7  1  0
  7  8  2  0
  9 11  1  0
 10  9  2  0
 11 12  1  0
 13 12  1  0
 13 14  2  0
 15 13  1  0
 16 15  1  0
 16 24  1  0
 16 17  1  6
 18 23  1  0
 18 17  1  0
 19 18  2  0
 20 21  2  0
 20 19  1  0
 21 22  1  0
 22 23  2  0
 24 26  2  0
 24 25  1  0
M  END
$$$$
