HGF.pdb
     RDKit          3D

 26 27  0  0  1  0  0  0  0  0999 V2000
    5.6027  -18.3078   22.3693 N   0  0  0  0  0  0  0  0  0  0  0  0
    5.7278  -17.8243   21.0069 C   0  0  1  0  0  0  0  0  0  0  0  0
    4.4945  -17.0528   20.5864 C   0  0  0  0  0  0  0  0  0  0  0  0
    3.3367  -17.9473   20.6097 C   0  0  0  0  0  0  0  0  0  0  0  0
    3.3306  -19.2933   20.8680 C   0  0  0  0  0  0  0  0  0  0  0  0
    2.0292  -19.6760   20.7778 N   0  0  0  0  0  0  0  0  0  0  0  0
    1.2838  -18.5992   20.4764 C   0  0  0  0  0  0  0  0  0  0  0  0
    2.0685  -17.5097   20.3657 N   0  0  0  0  0  0  0  0  0  0  0  0
    6.8420  -16.8343   20.9918 C   0  0  0  0  0  0  0  0  0  0  0  0
    7.1345  -16.3187   19.8823 O   0  0  0  0  0  0  0  0  0  0  0  0
    7.5458  -16.4839   22.1712 N   0  0  0  0  0  0  0  0  0  0  0  0
    8.6334  -15.5641   22.1145 C   0  0  0  0  0  0  0  0  0  0  0  0
    9.2545  -15.3442   23.4635 C   0  0  0  0  0  0  0  0  0  0  0  0
   10.2219  -14.5501   23.6175 O   0  0  0  0  0  0  0  0  0  0  0  0
    8.7745  -16.0219   24.6146 N   0  0  0  0  0  0  0  0  0  0  0  0
    9.3674  -15.9456   25.9089 C   0  0  1  0  0  0  0  0  0  0  0  0
    8.3580  -15.6452   27.0016 C   0  0  0  0  0  0  0  0  0  0  0  0
    7.5633  -14.4439   26.6826 C   0  0  0  0  0  0  0  0  0  0  0  0
    6.3337  -14.4880   26.0774 C   0  0  0  0  0  0  0  0  0  0  0  0
    5.6308  -13.3245   25.8052 C   0  0  0  0  0  0  0  0  0  0  0  0
    6.1596  -12.0986   26.1405 C   0  0  0  0  0  0  0  0  0  0  0  0
    7.3919  -12.0361   26.7480 C   0  0  0  0  0  0  0  0  0  0  0  0
    8.0746  -13.2088   27.0096 C   0  0  0  0  0  0  0  0  0  0  0  0
   10.2003  -17.1227   26.2441 C   0  0  0  0  0  0  0  0  0  0  0  0
   10.9762  -17.1388   27.4075 O   0  0  0  0  0  0  0  0  0  0  0  0
   10.2547  -18.1467   25.5193 O   0  0  0  0  0  0  0  0  0  0  0  0
  2  9  1  0
  2  1  1  1
  3  2  1  0
  4  8  1  0
  4  3  1  0
  5  4  2  0
  6  5  1  0
  6  7  1  0
  7  8  2  0
  9 11  1  0
 10  9  2  0
 11 12  1  0
 13 12  1  0
 13 14  2  0
 15 13  1  0
 16 15  1  0
 16 24  1  0
 16 17  1  1
 18 23  1  0
 18 17  1  0
 19 18  2  0
 20 21  2  0
 20 19  1  0
 21 22  1  0
 22 23  2  0
 24 26  2  0
 24 25  1  0
M  END
$$$$
