HGF.pdb
     RDKit          3D

 26 27  0  0  1  0  0  0  0  0999 V2000
    7.9243  -14.9253   22.2875 N   0  0  0  0  0  0  0  0  0  0  0  0
    6.6630  -15.2745   21.6608 C   0  0  1  0  0  0  0  0  0  0  0  0
    6.8540  -15.5985   20.1940 C   0  0  0  0  0  0  0  0  0  0  0  0
    7.5727  -14.4993   19.5485 C   0  0  0  0  0  0  0  0  0  0  0  0
    7.1036  -13.2380   19.2882 C   0  0  0  0  0  0  0  0  0  0  0  0
    8.1314  -12.5840   18.6850 N   0  0  0  0  0  0  0  0  0  0  0  0
    9.1770  -13.4225   18.5873 C   0  0  0  0  0  0  0  0  0  0  0  0
    8.8600  -14.6206   19.1157 N   0  0  0  0  0  0  0  0  0  0  0  0
    6.1942  -16.5413   22.2913 C   0  0  0  0  0  0  0  0  0  0  0  0
    5.6312  -17.3796   21.5412 O   0  0  0  0  0  0  0  0  0  0  0  0
    6.3712  -16.7973   23.6741 N   0  0  0  0  0  0  0  0  0  0  0  0
    6.9552  -18.0223   24.1106 C   0  0  0  0  0  0  0  0  0  0  0  0
    8.0091  -17.8012   25.1568 C   0  0  0  0  0  0  0  0  0  0  0  0
    8.6426  -18.7671   25.6625 O   0  0  0  0  0  0  0  0  0  0  0  0
    8.3309  -16.4965   25.6138 N   0  0  0  0  0  0  0  0  0  0  0  0
    9.5447  -16.1424   26.2725 C   0  0  1  0  0  0  0  0  0  0  0  0
    9.8285  -14.6525   26.2218 C   0  0  0  0  0  0  0  0  0  0  0  0
    8.5919  -13.8648   26.3855 C   0  0  0  0  0  0  0  0  0  0  0  0
    7.6731  -13.6809   25.3845 C   0  0  0  0  0  0  0  0  0  0  0  0
    6.5258  -12.9325   25.5982 C   0  0  0  0  0  0  0  0  0  0  0  0
    6.2895  -12.3585   26.8269 C   0  0  0  0  0  0  0  0  0  0  0  0
    7.2007  -12.5328   27.8422 C   0  0  0  0  0  0  0  0  0  0  0  0
    8.3372  -13.2827   27.6063 C   0  0  0  0  0  0  0  0  0  0  0  0
    9.6395  -16.6693   27.6528 C   0  0  0  0  0  0  0  0  0  0  0  0
    8.5769  -17.3810   28.2185 O   0  0  0  0  0  0  0  0  0  0  0  0
   10.6549  -16.5097   28.3740 O   0  0  0  0  0  0  0  0  0  0  0  0
  2  9  1  0
  2  1  1  1
  3  2  1  0
  4  8  1  0
  4  3  1  0
  5  4  2  0
  6  5  1  0
  6  7  1  0
  7  8  2  0
  9 11  1  0
 10  9  2  0
 11 12  1  0
 13 12  1  0
 13 14  2  0
 15 13  1  0
 16 15  1  0
 16 24  1  0
 16 17  1  1
 18 23  1  0
 18 17  1  0
 19 18  2  0
 20 21  2  0
 20 19  1  0
 21 22  1  0
 22 23  2  0
 24 26  2  0
 24 25  1  0
M  END
$$$$
