HGF.pdb
     RDKit          3D

 26 27  0  0  1  0  0  0  0  0999 V2000
    7.4296  -19.6028   19.5028 N   0  0  0  0  0  0  0  0  0  0  0  0
    7.7050  -18.2591   19.9763 C   0  0  1  0  0  0  0  0  0  0  0  0
    7.5138  -17.2415   18.8714 C   0  0  0  0  0  0  0  0  0  0  0  0
    8.5873  -17.3918   17.8884 C   0  0  0  0  0  0  0  0  0  0  0  0
    9.9325  -17.2288   18.0943 C   0  0  0  0  0  0  0  0  0  0  0  0
   10.5180  -17.4768   16.8927 N   0  0  0  0  0  0  0  0  0  0  0  0
    9.5590  -17.7767   16.0004 C   0  0  0  0  0  0  0  0  0  0  0  0
    8.3484  -17.7321   16.5898 N   0  0  0  0  0  0  0  0  0  0  0  0
    6.6729  -17.9336   21.0014 C   0  0  0  0  0  0  0  0  0  0  0  0
    5.4687  -18.0174   20.6477 O   0  0  0  0  0  0  0  0  0  0  0  0
    7.0249  -17.5460   22.3186 N   0  0  0  0  0  0  0  0  0  0  0  0
    6.0121  -17.2861   23.2876 C   0  0  0  0  0  0  0  0  0  0  0  0
    6.5927  -16.9226   24.6237 C   0  0  0  0  0  0  0  0  0  0  0  0
    5.8629  -16.5032   25.5626 O   0  0  0  0  0  0  0  0  0  0  0  0
    7.9842  -17.0386   24.8782 N   0  0  0  0  0  0  0  0  0  0  0  0
    8.8532  -15.9436   25.1582 C   0  0  1  0  0  0  0  0  0  0  0  0
    8.5520  -15.2788   26.4887 C   0  0  0  0  0  0  0  0  0  0  0  0
    7.7600  -14.0476   26.3063 C   0  0  0  0  0  0  0  0  0  0  0  0
    7.9828  -13.1465   25.2971 C   0  0  0  0  0  0  0  0  0  0  0  0
    7.2028  -12.0071   25.1735 C   0  0  0  0  0  0  0  0  0  0  0  0
    6.1856  -11.7609   26.0678 C   0  0  0  0  0  0  0  0  0  0  0  0
    5.9484  -12.6543   27.0861 C   0  0  0  0  0  0  0  0  0  0  0  0
    6.7386  -13.7832   27.1899 C   0  0  0  0  0  0  0  0  0  0  0  0
   10.2882  -16.2849   25.0312 C   0  0  0  0  0  0  0  0  0  0  0  0
   10.6856  -17.5882   24.7164 O   0  0  0  0  0  0  0  0  0  0  0  0
   11.2053  -15.4431   25.1956 O   0  0  0  0  0  0  0  0  0  0  0  0
  2  9  1  0
  2  1  1  6
  3  2  1  0
  4  8  1  0
  4  3  1  0
  5  4  2  0
  6  5  1  0
  6  7  1  0
  7  8  2  0
  9 11  1  0
 10  9  2  0
 11 12  1  0
 13 12  1  0
 13 14  2  0
 15 13  1  0
 16 15  1  0
 16 24  1  0
 16 17  1  1
 18 23  1  0
 18 17  1  0
 19 18  2  0
 20 21  2  0
 20 19  1  0
 21 22  1  0
 22 23  2  0
 24 26  2  0
 24 25  1  0
M  END
$$$$
