HGF.pdb
     RDKit          3D

 26 27  0  0  1  0  0  0  0  0999 V2000
    9.1486  -16.4477   19.1155 N   0  0  0  0  0  0  0  0  0  0  0  0
    8.3296  -15.5475   19.9057 C   0  0  1  0  0  0  0  0  0  0  0  0
    7.1925  -14.9800   19.0824 C   0  0  0  0  0  0  0  0  0  0  0  0
    7.7359  -14.3682   17.8693 C   0  0  0  0  0  0  0  0  0  0  0  0
    8.5134  -13.2428   17.7818 C   0  0  0  0  0  0  0  0  0  0  0  0
    8.7676  -13.0774   16.4566 N   0  0  0  0  0  0  0  0  0  0  0  0
    8.1645  -14.0667   15.7759 C   0  0  0  0  0  0  0  0  0  0  0  0
    7.5154  -14.8849   16.6268 N   0  0  0  0  0  0  0  0  0  0  0  0
    7.6818  -16.3632   20.9719 C   0  0  0  0  0  0  0  0  0  0  0  0
    7.6416  -17.6080   20.7952 O   0  0  0  0  0  0  0  0  0  0  0  0
    7.1330  -15.7700   22.1364 N   0  0  0  0  0  0  0  0  0  0  0  0
    6.9463  -16.5437   23.3191 C   0  0  0  0  0  0  0  0  0  0  0  0
    8.0184  -16.2819   24.3370 C   0  0  0  0  0  0  0  0  0  0  0  0
    9.2102  -16.0596   23.9905 O   0  0  0  0  0  0  0  0  0  0  0  0
    7.7286  -16.2746   25.7265 N   0  0  0  0  0  0  0  0  0  0  0  0
    8.6716  -15.9707   26.7517 C   0  0  1  0  0  0  0  0  0  0  0  0
    8.1327  -14.9866   27.7736 C   0  0  0  0  0  0  0  0  0  0  0  0
    7.5750  -13.7868   27.1210 C   0  0  0  0  0  0  0  0  0  0  0  0
    8.3447  -12.7555   26.6475 C   0  0  0  0  0  0  0  0  0  0  0  0
    7.7640  -11.6534   26.0391 C   0  0  0  0  0  0  0  0  0  0  0  0
    6.3966  -11.5766   25.8999 C   0  0  0  0  0  0  0  0  0  0  0  0
    5.6096  -12.6021   26.3692 C   0  0  0  0  0  0  0  0  0  0  0  0
    6.2103  -13.6908   26.9723 C   0  0  0  0  0  0  0  0  0  0  0  0
    9.2425  -17.1728   27.4002 C   0  0  0  0  0  0  0  0  0  0  0  0
    8.7266  -18.4434   27.1260 O   0  0  0  0  0  0  0  0  0  0  0  0
   10.1984  -17.1189   28.2127 O   0  0  0  0  0  0  0  0  0  0  0  0
  2  9  1  0
  2  1  1  6
  3  2  1  0
  4  8  1  0
  4  3  1  0
  5  4  2  0
  6  5  1  0
  6  7  1  0
  7  8  2  0
  9 11  1  0
 10  9  2  0
 11 12  1  0
 13 12  1  0
 13 14  2  0
 15 13  1  0
 16 15  1  0
 16 24  1  0
 16 17  1  1
 18 23  1  0
 18 17  1  0
 19 18  2  0
 20 21  2  0
 20 19  1  0
 21 22  1  0
 22 23  2  0
 24 26  2  0
 24 25  1  0
M  END
$$$$
