HGF.pdb
     RDKit          3D

 26 27  0  0  1  0  0  0  0  0999 V2000
    6.6178  -18.5946   19.9564 N   0  0  0  0  0  0  0  0  0  0  0  0
    7.1334  -18.6632   21.3110 C   0  0  1  0  0  0  0  0  0  0  0  0
    7.6902  -20.0384   21.6138 C   0  0  0  0  0  0  0  0  0  0  0  0
    6.6787  -21.0471   21.2967 C   0  0  0  0  0  0  0  0  0  0  0  0
    5.4879  -21.2620   21.9404 C   0  0  0  0  0  0  0  0  0  0  0  0
    4.8994  -22.2961   21.2829 N   0  0  0  0  0  0  0  0  0  0  0  0
    5.7078  -22.6862   20.2828 C   0  0  0  0  0  0  0  0  0  0  0  0
    6.8215  -21.9284   20.2660 N   0  0  0  0  0  0  0  0  0  0  0  0
    8.2981  -17.7359   21.3861 C   0  0  0  0  0  0  0  0  0  0  0  0
    8.9763  -17.5830   20.3378 O   0  0  0  0  0  0  0  0  0  0  0  0
    8.6331  -17.0529   22.5821 N   0  0  0  0  0  0  0  0  0  0  0  0
    9.6851  -16.0910   22.5916 C   0  0  0  0  0  0  0  0  0  0  0  0
    9.9177  -15.5260   23.9630 C   0  0  0  0  0  0  0  0  0  0  0  0
   10.8485  -14.7043   24.1835 O   0  0  0  0  0  0  0  0  0  0  0  0
    9.0977  -15.8959   25.0608 N   0  0  0  0  0  0  0  0  0  0  0  0
    9.4091  -15.6441   26.4290 C   0  0  1  0  0  0  0  0  0  0  0  0
    8.1921  -15.2526   27.2468 C   0  0  0  0  0  0  0  0  0  0  0  0
    7.5278  -14.0617   26.6839 C   0  0  0  0  0  0  0  0  0  0  0  0
    8.0435  -12.7943   26.7720 C   0  0  0  0  0  0  0  0  0  0  0  0
    7.3751  -11.7125   26.2199 C   0  0  0  0  0  0  0  0  0  0  0  0
    6.1753  -11.8950   25.5702 C   0  0  0  0  0  0  0  0  0  0  0  0
    5.6436  -13.1595   25.4727 C   0  0  0  0  0  0  0  0  0  0  0  0
    6.3273  -14.2230   26.0306 C   0  0  0  0  0  0  0  0  0  0  0  0
   10.1676  -16.7417   27.0707 C   0  0  0  0  0  0  0  0  0  0  0  0
   10.4321  -17.9263   26.3761 O   0  0  0  0  0  0  0  0  0  0  0  0
   10.6045  -16.6709   28.2458 O   0  0  0  0  0  0  0  0  0  0  0  0
  2  9  1  0
  2  1  1  6
  3  2  1  0
  4  8  1  0
  4  3  1  0
  5  4  2  0
  6  5  1  0
  6  7  1  0
  7  8  2  0
  9 11  1  0
 10  9  2  0
 11 12  1  0
 13 12  1  0
 13 14  2  0
 15 13  1  0
 16 15  1  0
 16 24  1  0
 16 17  1  1
 18 23  1  0
 18 17  1  0
 19 18  2  0
 20 21  2  0
 20 19  1  0
 21 22  1  0
 22 23  2  0
 24 26  2  0
 24 25  1  0
M  END
$$$$
