KHW.pdb
     RDKit          3D

 34 36  0  0  1  0  0  0  0  0999 V2000
   11.2395  -18.8372   17.4841 N   0  0  0  0  0  0  0  0  0  0  0  0
   10.3586  -19.1972   18.6129 C   0  0  1  0  0  0  0  0  0  0  0  0
   10.9068  -20.3654   19.3506 C   0  0  0  0  0  0  0  0  0  0  0  0
   11.4791  -21.4347   18.5290 C   0  0  0  0  0  0  0  0  0  0  0  0
   12.0716  -22.6549   19.0787 C   0  0  0  0  0  0  0  0  0  0  0  0
   12.6584  -23.6810   18.1781 C   0  0  0  0  0  0  0  0  0  0  0  0
   13.2054  -24.7238   19.0967 N   0  0  0  0  0  0  0  0  0  0  0  0
   10.2950  -17.9958   19.5378 C   0  0  0  0  0  0  0  0  0  0  0  0
   11.2939  -17.2456   19.6061 O   0  0  0  0  0  0  0  0  0  0  0  0
    9.1514  -17.6983   20.3191 N   0  0  0  0  0  0  0  0  0  0  0  0
    8.9924  -16.4749   21.0505 C   0  0  1  0  0  0  0  0  0  0  0  0
    7.6843  -15.7792   20.7602 C   0  0  0  0  0  0  0  0  0  0  0  0
    7.4805  -14.5466   21.5550 C   0  0  0  0  0  0  0  0  0  0  0  0
    8.0031  -13.3415   21.1370 C   0  0  0  0  0  0  0  0  0  0  0  0
    7.6582  -12.4196   22.0502 N   0  0  0  0  0  0  0  0  0  0  0  0
    6.9424  -13.0281   23.0096 C   0  0  0  0  0  0  0  0  0  0  0  0
    6.8450  -14.3265   22.6890 N   0  0  0  0  0  0  0  0  0  0  0  0
    9.1965  -16.6572   22.5173 C   0  0  0  0  0  0  0  0  0  0  0  0
    8.4611  -17.4046   23.2056 O   0  0  0  0  0  0  0  0  0  0  0  0
   10.2409  -15.9946   23.2338 N   0  0  0  0  0  0  0  0  0  0  0  0
   10.4635  -16.0199   24.6279 C   0  0  1  0  0  0  0  0  0  0  0  0
    9.9586  -14.8934   25.4436 C   0  0  0  0  0  0  0  0  0  0  0  0
    8.4959  -14.7425   25.5008 C   0  0  0  0  0  0  0  0  0  0  0  0
    7.4881  -15.6763   25.4102 C   0  0  0  0  0  0  0  0  0  0  0  0
    6.2947  -15.0434   25.5122 N   0  0  0  0  0  0  0  0  0  0  0  0
    6.4869  -13.7216   25.6673 C   0  0  0  0  0  0  0  0  0  0  0  0
    5.6493  -12.6351   25.8160 C   0  0  0  0  0  0  0  0  0  0  0  0
    6.1189  -11.3413   25.9612 C   0  0  0  0  0  0  0  0  0  0  0  0
    7.4979  -11.1630   25.9529 C   0  0  0  0  0  0  0  0  0  0  0  0
    8.3221  -12.2377   25.8060 C   0  0  0  0  0  0  0  0  0  0  0  0
    7.8558  -13.5325   25.6603 C   0  0  0  0  0  0  0  0  0  0  0  0
   10.0305  -17.2820   25.2825 C   0  0  0  0  0  0  0  0  0  0  0  0
   10.1406  -17.3908   26.5177 O   0  0  0  0  0  0  0  0  0  0  0  0
    9.5213  -18.3083   24.5380 O   0  0  0  0  0  0  0  0  0  0  0  0
  2  1  1  6
  3  2  1  0
  4  3  1  0
  5  4  1  0
  6  5  1  0
  6  7  1  0
  8  9  2  0
  8  2  1  0
 10  8  1  0
 11 10  1  0
 11 12  1  1
 12 13  1  0
 13 17  1  0
 13 14  2  0
 14 15  1  0
 16 15  1  0
 17 16  2  0
 18 20  1  0
 18 11  1  0
 19 18  2  0
 21 22  1  1
 21 20  1  0
 22 23  1  0
 23 31  1  0
 24 23  2  0
 24 25  1  0
 25 26  1  0
 26 27  2  0
 27 28  1  0
 29 28  2  0
 30 29  1  0
 31 30  2  0
 31 26  1  0
 32 21  1  0
 32 34  1  0
 33 32  2  0
M  END
$$$$
