KHW.pdb
     RDKit          3D

 34 36  0  0  1  0  0  0  0  0999 V2000
    9.8213  -14.8094   18.8650 N   0  0  0  0  0  0  0  0  0  0  0  0
    9.2907  -14.0432   20.0100 C   0  0  1  0  0  0  0  0  0  0  0  0
    7.9825  -13.4279   19.6649 C   0  0  0  0  0  0  0  0  0  0  0  0
    7.4307  -13.7810   18.3547 C   0  0  0  0  0  0  0  0  0  0  0  0
    7.8243  -13.1310   17.1038 C   0  0  0  0  0  0  0  0  0  0  0  0
    7.1170  -13.4446   15.8350 C   0  0  0  0  0  0  0  0  0  0  0  0
    7.7415  -12.5446   14.8200 N   0  0  0  0  0  0  0  0  0  0  0  0
    9.1075  -15.0168   21.1595 C   0  0  0  0  0  0  0  0  0  0  0  0
    8.5466  -14.6078   22.2003 O   0  0  0  0  0  0  0  0  0  0  0  0
    9.5466  -16.3620   21.0929 N   0  0  0  0  0  0  0  0  0  0  0  0
    9.3682  -17.3036   22.1600 C   0  0  1  0  0  0  0  0  0  0  0  0
    9.7388  -18.7144   21.7707 C   0  0  0  0  0  0  0  0  0  0  0  0
    9.4670  -19.7116   22.8309 C   0  0  0  0  0  0  0  0  0  0  0  0
    8.1949  -20.2043   23.0286 C   0  0  0  0  0  0  0  0  0  0  0  0
    8.2599  -21.0788   24.0454 N   0  0  0  0  0  0  0  0  0  0  0  0
    9.5323  -21.1321   24.4709 C   0  0  0  0  0  0  0  0  0  0  0  0
   10.2538  -20.2901   23.7167 N   0  0  0  0  0  0  0  0  0  0  0  0
   10.0645  -16.8851   23.4116 C   0  0  0  0  0  0  0  0  0  0  0  0
   11.2090  -16.3721   23.3990 O   0  0  0  0  0  0  0  0  0  0  0  0
    9.4753  -17.0400   24.7047 N   0  0  0  0  0  0  0  0  0  0  0  0
   10.0482  -16.6902   25.9470 C   0  0  1  0  0  0  0  0  0  0  0  0
    9.2162  -15.9562   26.9259 C   0  0  0  0  0  0  0  0  0  0  0  0
    7.9564  -15.3964   26.4112 C   0  0  0  0  0  0  0  0  0  0  0  0
    6.8521  -16.0113   25.8651 C   0  0  0  0  0  0  0  0  0  0  0  0
    5.9438  -15.0633   25.5314 N   0  0  0  0  0  0  0  0  0  0  0  0
    6.4169  -13.8435   25.8415 C   0  0  0  0  0  0  0  0  0  0  0  0
    5.9270  -12.5589   25.7227 C   0  0  0  0  0  0  0  0  0  0  0  0
    6.6388  -11.4446   26.1313 C   0  0  0  0  0  0  0  0  0  0  0  0
    7.8974  -11.6631   26.6807 C   0  0  0  0  0  0  0  0  0  0  0  0
    8.3782  -12.9325   26.7967 C   0  0  0  0  0  0  0  0  0  0  0  0
    7.6691  -14.0487   26.3889 C   0  0  0  0  0  0  0  0  0  0  0  0
   10.6832  -17.8304   26.6579 C   0  0  0  0  0  0  0  0  0  0  0  0
   10.5289  -18.9822   26.2118 O   0  0  0  0  0  0  0  0  0  0  0  0
   11.4236  -17.6166   27.7863 O   0  0  0  0  0  0  0  0  0  0  0  0
  2  1  1  6
  3  2  1  0
  4  3  1  0
  5  4  1  0
  6  5  1  0
  6  7  1  0
  8  9  2  0
  8  2  1  0
 10  8  1  0
 11 10  1  0
 11 12  1  6
 12 13  1  0
 13 17  1  0
 13 14  2  0
 14 15  1  0
 16 15  1  0
 17 16  2  0
 18 20  1  0
 18 11  1  0
 19 18  2  0
 21 22  1  1
 21 20  1  0
 22 23  1  0
 23 31  1  0
 24 23  2  0
 24 25  1  0
 25 26  1  0
 26 27  2  0
 27 28  1  0
 29 28  2  0
 30 29  1  0
 31 30  2  0
 31 26  1  0
 32 21  1  0
 32 34  1  0
 33 32  2  0
M  END
$$$$
