KHW.pdb
     RDKit          3D

 34 36  0  0  1  0  0  0  0  0999 V2000
   11.9669  -16.2746   18.7254 N   0  0  0  0  0  0  0  0  0  0  0  0
   10.8388  -15.3234   18.6753 C   0  0  1  0  0  0  0  0  0  0  0  0
   10.1881  -15.3555   17.3393 C   0  0  0  0  0  0  0  0  0  0  0  0
    9.0466  -14.4557   17.1574 C   0  0  0  0  0  0  0  0  0  0  0  0
    8.2298  -14.4124   15.9437 C   0  0  0  0  0  0  0  0  0  0  0  0
    7.0951  -13.4594   15.8312 C   0  0  0  0  0  0  0  0  0  0  0  0
    6.4473  -13.7930   14.5275 N   0  0  0  0  0  0  0  0  0  0  0  0
    9.8416  -15.7484   19.7372 C   0  0  0  0  0  0  0  0  0  0  0  0
    8.6980  -15.2417   19.7145 O   0  0  0  0  0  0  0  0  0  0  0  0
   10.1604  -16.6924   20.7442 N   0  0  0  0  0  0  0  0  0  0  0  0
    9.2523  -17.0685   21.7887 C   0  0  1  0  0  0  0  0  0  0  0  0
    8.4883  -18.3334   21.4799 C   0  0  0  0  0  0  0  0  0  0  0  0
    7.6417  -18.8021   22.6006 C   0  0  0  0  0  0  0  0  0  0  0  0
    6.4477  -18.1786   22.8933 C   0  0  0  0  0  0  0  0  0  0  0  0
    5.9122  -18.8175   23.9458 N   0  0  0  0  0  0  0  0  0  0  0  0
    6.7444  -19.8096   24.3009 C   0  0  0  0  0  0  0  0  0  0  0  0
    7.7946  -19.7836   23.4675 N   0  0  0  0  0  0  0  0  0  0  0  0
    9.9183  -17.1481   23.1216 C   0  0  0  0  0  0  0  0  0  0  0  0
   10.7379  -18.0543   23.4049 O   0  0  0  0  0  0  0  0  0  0  0  0
    9.6676  -16.1999   24.1613 N   0  0  0  0  0  0  0  0  0  0  0  0
   10.2282  -16.1919   25.4573 C   0  0  1  0  0  0  0  0  0  0  0  0
    9.6996  -15.2291   26.4487 C   0  0  0  0  0  0  0  0  0  0  0  0
    8.2661  -14.9142   26.3421 C   0  0  0  0  0  0  0  0  0  0  0  0
    7.1620  -15.7361   26.3034 C   0  0  0  0  0  0  0  0  0  0  0  0
    6.0503  -14.9702   26.1909 N   0  0  0  0  0  0  0  0  0  0  0  0
    6.3894  -13.6696   26.1545 C   0  0  0  0  0  0  0  0  0  0  0  0
    5.6814  -12.4897   26.0507 C   0  0  0  0  0  0  0  0  0  0  0  0
    6.2925  -11.2480   26.0354 C   0  0  0  0  0  0  0  0  0  0  0  0
    7.6795  -11.2231   26.1305 C   0  0  0  0  0  0  0  0  0  0  0  0
    8.3756  -12.3897   26.2329 C   0  0  0  0  0  0  0  0  0  0  0  0
    7.7677  -13.6328   26.2483 C   0  0  0  0  0  0  0  0  0  0  0  0
   10.2678  -17.5300   26.1029 C   0  0  0  0  0  0  0  0  0  0  0  0
    9.6335  -18.4688   25.5873 O   0  0  0  0  0  0  0  0  0  0  0  0
   10.9885  -17.7252   27.2473 O   0  0  0  0  0  0  0  0  0  0  0  0
  2  1  1  6
  3  2  1  0
  4  3  1  0
  5  4  1  0
  6  5  1  0
  6  7  1  0
  8  9  2  0
  8  2  1  0
 10  8  1  0
 11 10  1  0
 11 12  1  6
 12 13  1  0
 13 17  1  0
 13 14  2  0
 14 15  1  0
 16 15  1  0
 17 16  2  0
 18 20  1  0
 18 11  1  0
 19 18  2  0
 21 22  1  1
 21 20  1  0
 22 23  1  0
 23 31  1  0
 24 23  2  0
 24 25  1  0
 25 26  1  0
 26 27  2  0
 27 28  1  0
 29 28  2  0
 30 29  1  0
 31 30  2  0
 31 26  1  0
 32 21  1  0
 32 34  1  0
 33 32  2  0
M  END
$$$$
