KHW.pdb
     RDKit          3D

 34 36  0  0  1  0  0  0  0  0999 V2000
    8.1345  -16.7321   18.5067 N   0  0  0  0  0  0  0  0  0  0  0  0
    8.8432  -15.8571   19.4616 C   0  0  1  0  0  0  0  0  0  0  0  0
    8.0904  -14.5924   19.6683 C   0  0  0  0  0  0  0  0  0  0  0  0
    8.3216  -13.5366   18.6794 C   0  0  0  0  0  0  0  0  0  0  0  0
    7.8314  -13.5907   17.3014 C   0  0  0  0  0  0  0  0  0  0  0  0
    8.1693  -12.5116   16.3371 C   0  0  0  0  0  0  0  0  0  0  0  0
    7.4776  -12.9026   15.0726 N   0  0  0  0  0  0  0  0  0  0  0  0
    8.9439  -16.6097   20.7755 C   0  0  0  0  0  0  0  0  0  0  0  0
    7.9033  -17.1158   21.2510 O   0  0  0  0  0  0  0  0  0  0  0  0
   10.1671  -16.7570   21.4747 N   0  0  0  0  0  0  0  0  0  0  0  0
   10.3104  -17.5636   22.6519 C   0  0  1  0  0  0  0  0  0  0  0  0
   11.1820  -18.7768   22.4340 C   0  0  0  0  0  0  0  0  0  0  0  0
   10.5711  -19.7929   21.5470 C   0  0  0  0  0  0  0  0  0  0  0  0
   10.8554  -19.8167   20.1985 C   0  0  0  0  0  0  0  0  0  0  0  0
   10.1632  -20.8352   19.6633 N   0  0  0  0  0  0  0  0  0  0  0  0
    9.4675  -21.4303   20.6457 C   0  0  0  0  0  0  0  0  0  0  0  0
    9.7300  -20.7792   21.7882 N   0  0  0  0  0  0  0  0  0  0  0  0
   10.7659  -16.7728   23.8325 C   0  0  0  0  0  0  0  0  0  0  0  0
   11.9213  -16.2905   23.9071 O   0  0  0  0  0  0  0  0  0  0  0  0
    9.9185  -16.5127   24.9538 N   0  0  0  0  0  0  0  0  0  0  0  0
   10.3153  -16.0674   26.2337 C   0  0  1  0  0  0  0  0  0  0  0  0
    9.6972  -14.8372   26.7757 C   0  0  0  0  0  0  0  0  0  0  0  0
    8.3079  -14.5782   26.3657 C   0  0  0  0  0  0  0  0  0  0  0  0
    7.3015  -15.4404   25.9919 C   0  0  0  0  0  0  0  0  0  0  0  0
    6.1948  -14.7182   25.6941 N   0  0  0  0  0  0  0  0  0  0  0  0
    6.4425  -13.4071   25.8607 C   0  0  0  0  0  0  0  0  0  0  0  0
    5.6971  -12.2563   25.7050 C   0  0  0  0  0  0  0  0  0  0  0  0
    6.2080  -10.9937   25.9503 C   0  0  0  0  0  0  0  0  0  0  0  0
    7.5314  -10.9162   26.3702 C   0  0  0  0  0  0  0  0  0  0  0  0
    8.2645  -12.0542   26.5230 C   0  0  0  0  0  0  0  0  0  0  0  0
    7.7568  -13.3180   26.2784 C   0  0  0  0  0  0  0  0  0  0  0  0
   10.2359  -17.1146   27.2853 C   0  0  0  0  0  0  0  0  0  0  0  0
    9.6559  -18.1858   27.0290 O   0  0  0  0  0  0  0  0  0  0  0  0
   10.7900  -16.9027   28.5162 O   0  0  0  0  0  0  0  0  0  0  0  0
  2  1  1  6
  3  2  1  0
  4  3  1  0
  5  4  1  0
  6  5  1  0
  6  7  1  0
  8  9  2  0
  8  2  1  0
 10  8  1  0
 11 10  1  0
 11 12  1  6
 12 13  1  0
 13 17  1  0
 13 14  2  0
 14 15  1  0
 16 15  1  0
 17 16  2  0
 18 20  1  0
 18 11  1  0
 19 18  2  0
 21 22  1  1
 21 20  1  0
 22 23  1  0
 23 31  1  0
 24 23  2  0
 24 25  1  0
 25 26  1  0
 26 27  2  0
 27 28  1  0
 29 28  2  0
 30 29  1  0
 31 30  2  0
 31 26  1  0
 32 21  1  0
 32 34  1  0
 33 32  2  0
M  END
$$$$
