KHW.pdb
     RDKit          3D

 34 36  0  0  1  0  0  0  0  0999 V2000
    7.8783  -16.9561   18.8855 N   0  0  0  0  0  0  0  0  0  0  0  0
    8.9593  -16.1993   19.5476 C   0  0  1  0  0  0  0  0  0  0  0  0
    8.5311  -14.8006   19.8115 C   0  0  0  0  0  0  0  0  0  0  0  0
    7.8126  -14.1314   18.7244 C   0  0  0  0  0  0  0  0  0  0  0  0
    8.4544  -13.6476   17.5013 C   0  0  0  0  0  0  0  0  0  0  0  0
    7.6566  -12.9653   16.4494 C   0  0  0  0  0  0  0  0  0  0  0  0
    8.6325  -12.6876   15.3534 N   0  0  0  0  0  0  0  0  0  0  0  0
    9.2595  -16.8959   20.8619 C   0  0  0  0  0  0  0  0  0  0  0  0
    8.3530  -17.5731   21.3955 O   0  0  0  0  0  0  0  0  0  0  0  0
   10.5218  -16.8055   21.4986 N   0  0  0  0  0  0  0  0  0  0  0  0
   10.8703  -17.5573   22.6692 C   0  0  1  0  0  0  0  0  0  0  0  0
   12.0537  -18.4698   22.4543 C   0  0  0  0  0  0  0  0  0  0  0  0
   11.7601  -19.6219   21.5717 C   0  0  0  0  0  0  0  0  0  0  0  0
   10.4903  -19.8271   21.0762 C   0  0  0  0  0  0  0  0  0  0  0  0
   10.5328  -20.9346   20.3181 N   0  0  0  0  0  0  0  0  0  0  0  0
   11.7892  -21.4078   20.3384 C   0  0  0  0  0  0  0  0  0  0  0  0
   12.5234  -20.5924   21.1093 N   0  0  0  0  0  0  0  0  0  0  0  0
   11.0647  -16.6891   23.8671 C   0  0  0  0  0  0  0  0  0  0  0  0
   11.7280  -15.6255   23.8199 O   0  0  0  0  0  0  0  0  0  0  0  0
   10.5096  -17.0102   25.1444 N   0  0  0  0  0  0  0  0  0  0  0  0
   10.5569  -16.2210   26.3143 C   0  0  1  0  0  0  0  0  0  0  0  0
    9.9130  -14.8890   26.2934 C   0  0  0  0  0  0  0  0  0  0  0  0
    8.4501  -14.8817   26.1339 C   0  0  0  0  0  0  0  0  0  0  0  0
    7.5610  -15.9099   25.9146 C   0  0  0  0  0  0  0  0  0  0  0  0
    6.3104  -15.3962   25.8297 N   0  0  0  0  0  0  0  0  0  0  0  0
    6.3497  -14.0614   25.9867 C   0  0  0  0  0  0  0  0  0  0  0  0
    5.3989  -13.0613   25.9915 C   0  0  0  0  0  0  0  0  0  0  0  0
    5.7155  -11.7272   26.1797 C   0  0  0  0  0  0  0  0  0  0  0  0
    7.0572  -11.4150   26.3693 C   0  0  0  0  0  0  0  0  0  0  0  0
    7.9934  -12.4046   26.3640 C   0  0  0  0  0  0  0  0  0  0  0  0
    7.6802  -13.7394   26.1759 C   0  0  0  0  0  0  0  0  0  0  0  0
   10.0921  -16.9289   27.5357 C   0  0  0  0  0  0  0  0  0  0  0  0
   10.2102  -16.3685   28.6409 O   0  0  0  0  0  0  0  0  0  0  0  0
    9.5452  -18.1779   27.4457 O   0  0  0  0  0  0  0  0  0  0  0  0
  2  1  1  1
  3  2  1  0
  4  3  1  0
  5  4  1  0
  6  5  1  0
  6  7  1  0
  8  9  2  0
  8  2  1  0
 10  8  1  0
 11 10  1  0
 11 12  1  6
 12 13  1  0
 13 17  1  0
 13 14  2  0
 14 15  1  0
 16 15  1  0
 17 16  2  0
 18 20  1  0
 18 11  1  0
 19 18  2  0
 21 22  1  6
 21 20  1  0
 22 23  1  0
 23 31  1  0
 24 23  2  0
 24 25  1  0
 25 26  1  0
 26 27  2  0
 27 28  1  0
 29 28  2  0
 30 29  1  0
 31 30  2  0
 31 26  1  0
 32 21  1  0
 32 34  1  0
 33 32  2  0
M  END
$$$$
