KHW.pdb
     RDKit          3D

 34 36  0  0  1  0  0  0  0  0999 V2000
    8.4317  -18.6625   20.1177 N   0  0  0  0  0  0  0  0  0  0  0  0
    9.8684  -18.3519   19.9782 C   0  0  1  0  0  0  0  0  0  0  0  0
   10.2622  -18.3367   18.5451 C   0  0  0  0  0  0  0  0  0  0  0  0
    9.8082  -19.4736   17.7406 C   0  0  0  0  0  0  0  0  0  0  0  0
   10.1871  -20.8620   18.0069 C   0  0  0  0  0  0  0  0  0  0  0  0
    9.8353  -21.9383   17.0445 C   0  0  0  0  0  0  0  0  0  0  0  0
   10.4310  -23.1777   17.6270 N   0  0  0  0  0  0  0  0  0  0  0  0
   10.0947  -16.9785   20.5826 C   0  0  0  0  0  0  0  0  0  0  0  0
   11.2067  -16.4311   20.4129 O   0  0  0  0  0  0  0  0  0  0  0  0
    9.0965  -16.3018   21.3259 N   0  0  0  0  0  0  0  0  0  0  0  0
    9.2661  -14.9783   21.8519 C   0  0  1  0  0  0  0  0  0  0  0  0
    8.1684  -14.0308   21.4318 C   0  0  0  0  0  0  0  0  0  0  0  0
    7.9468  -13.9935   19.9683 C   0  0  0  0  0  0  0  0  0  0  0  0
    8.3399  -12.9037   19.2213 C   0  0  0  0  0  0  0  0  0  0  0  0
    8.0114  -13.1567   17.9442 N   0  0  0  0  0  0  0  0  0  0  0  0
    7.4309  -14.3664   17.8931 C   0  0  0  0  0  0  0  0  0  0  0  0
    7.4008  -14.8611   19.1392 N   0  0  0  0  0  0  0  0  0  0  0  0
    9.4508  -14.9729   23.3325 C   0  0  0  0  0  0  0  0  0  0  0  0
    9.5730  -13.9092   23.9859 O   0  0  0  0  0  0  0  0  0  0  0  0
    9.5004  -16.1758   24.1030 N   0  0  0  0  0  0  0  0  0  0  0  0
    9.7375  -16.2871   25.4905 C   0  0  1  0  0  0  0  0  0  0  0  0
    8.5789  -16.4742   26.3915 C   0  0  0  0  0  0  0  0  0  0  0  0
    7.3801  -15.6818   26.0746 C   0  0  0  0  0  0  0  0  0  0  0  0
    6.2129  -16.0287   25.4317 C   0  0  0  0  0  0  0  0  0  0  0  0
    5.4057  -14.9424   25.3739 N   0  0  0  0  0  0  0  0  0  0  0  0
    6.0063  -13.8914   25.9594 C   0  0  0  0  0  0  0  0  0  0  0  0
    5.6521  -12.5758   26.1786 C   0  0  0  0  0  0  0  0  0  0  0  0
    6.4799  -11.6747   26.8253 C   0  0  0  0  0  0  0  0  0  0  0  0
    7.7135  -12.1468   27.2602 C   0  0  0  0  0  0  0  0  0  0  0  0
    8.0601  -13.4461   27.0423 C   0  0  0  0  0  0  0  0  0  0  0  0
    7.2348  -14.3495   26.3959 C   0  0  0  0  0  0  0  0  0  0  0  0
   10.7563  -17.3092   25.8457 C   0  0  0  0  0  0  0  0  0  0  0  0
   11.1718  -18.0809   24.9618 O   0  0  0  0  0  0  0  0  0  0  0  0
   11.2278  -17.4010   27.1249 O   0  0  0  0  0  0  0  0  0  0  0  0
  2  1  1  6
  3  2  1  0
  4  3  1  0
  5  4  1  0
  6  5  1  0
  6  7  1  0
  8  9  2  0
  8  2  1  0
 10  8  1  0
 11 10  1  0
 11 12  1  1
 12 13  1  0
 13 17  1  0
 13 14  2  0
 14 15  1  0
 16 15  1  0
 17 16  2  0
 18 20  1  0
 18 11  1  0
 19 18  2  0
 21 22  1  1
 21 20  1  0
 22 23  1  0
 23 31  1  0
 24 23  2  0
 24 25  1  0
 25 26  1  0
 26 27  2  0
 27 28  1  0
 29 28  2  0
 30 29  1  0
 31 30  2  0
 31 26  1  0
 32 21  1  0
 32 34  1  0
 33 32  2  0
M  END
$$$$
