KHW.pdb
     RDKit          3D

 34 36  0  0  1  0  0  0  0  0999 V2000
    9.7714  -18.7638   19.2260 N   0  0  0  0  0  0  0  0  0  0  0  0
   11.0388  -18.1778   18.7463 C   0  0  1  0  0  0  0  0  0  0  0  0
   11.0361  -18.0706   17.2639 C   0  0  0  0  0  0  0  0  0  0  0  0
   10.4323  -19.1910   16.5386 C   0  0  0  0  0  0  0  0  0  0  0  0
   10.4328  -19.3111   15.0799 C   0  0  0  0  0  0  0  0  0  0  0  0
    9.8384  -20.5028   14.4204 C   0  0  0  0  0  0  0  0  0  0  0  0
   10.0062  -20.2503   12.9581 N   0  0  0  0  0  0  0  0  0  0  0  0
   11.1561  -16.7932   19.3563 C   0  0  0  0  0  0  0  0  0  0  0  0
   12.1671  -16.1083   19.0843 O   0  0  0  0  0  0  0  0  0  0  0  0
   10.1667  -16.2555   20.2157 N   0  0  0  0  0  0  0  0  0  0  0  0
   10.2197  -14.9226   20.7427 C   0  0  1  0  0  0  0  0  0  0  0  0
    8.9208  -14.1708   20.5790 C   0  0  0  0  0  0  0  0  0  0  0  0
    8.4675  -14.0718   19.1729 C   0  0  0  0  0  0  0  0  0  0  0  0
    8.7753  -12.9679   18.4070 C   0  0  0  0  0  0  0  0  0  0  0  0
    8.2359  -13.1623   17.1929 N   0  0  0  0  0  0  0  0  0  0  0  0
    7.6100  -14.3503   17.1984 C   0  0  0  0  0  0  0  0  0  0  0  0
    7.7628  -14.8901   18.4164 N   0  0  0  0  0  0  0  0  0  0  0  0
   10.6926  -14.8876   22.1575 C   0  0  0  0  0  0  0  0  0  0  0  0
   11.4509  -13.9848   22.5855 O   0  0  0  0  0  0  0  0  0  0  0  0
   10.3140  -15.8774   23.1167 N   0  0  0  0  0  0  0  0  0  0  0  0
    9.4106  -15.7186   24.1903 C   0  0  1  0  0  0  0  0  0  0  0  0
    8.0515  -15.2112   23.8996 C   0  0  0  0  0  0  0  0  0  0  0  0
    7.2010  -14.9372   25.0688 C   0  0  0  0  0  0  0  0  0  0  0  0
    6.1874  -15.6737   25.6399 C   0  0  0  0  0  0  0  0  0  0  0  0
    5.6976  -14.9927   26.7035 N   0  0  0  0  0  0  0  0  0  0  0  0
    6.3581  -13.8307   26.8496 C   0  0  0  0  0  0  0  0  0  0  0  0
    6.2765  -12.7789   27.7392 C   0  0  0  0  0  0  0  0  0  0  0  0
    7.0993  -11.6686   27.6642 C   0  0  0  0  0  0  0  0  0  0  0  0
    8.0371  -11.6429   26.6377 C   0  0  0  0  0  0  0  0  0  0  0  0
    8.1151  -12.6829   25.7612 C   0  0  0  0  0  0  0  0  0  0  0  0
    7.2938  -13.7944   25.8333 C   0  0  0  0  0  0  0  0  0  0  0  0
    9.2691  -16.9296   25.0402 C   0  0  0  0  0  0  0  0  0  0  0  0
    8.6104  -16.8549   26.0938 O   0  0  0  0  0  0  0  0  0  0  0  0
    9.8559  -18.1069   24.6706 O   0  0  0  0  0  0  0  0  0  0  0  0
  2  1  1  1
  3  2  1  0
  4  3  1  0
  5  4  1  0
  6  5  1  0
  6  7  1  0
  8  9  2  0
  8  2  1  0
 10  8  1  0
 11 10  1  0
 11 12  1  1
 12 13  1  0
 13 17  1  0
 13 14  2  0
 14 15  1  0
 16 15  1  0
 17 16  2  0
 18 20  1  0
 18 11  1  0
 19 18  2  0
 21 22  1  6
 21 20  1  0
 22 23  1  0
 23 31  1  0
 24 23  2  0
 24 25  1  0
 25 26  1  0
 26 27  2  0
 27 28  1  0
 29 28  2  0
 30 29  1  0
 31 30  2  0
 31 26  1  0
 32 21  1  0
 32 34  1  0
 33 32  2  0
M  END
$$$$
