KHW.pdb
     RDKit          3D

 34 36  0  0  1  0  0  0  0  0999 V2000
    8.3100  -16.4860   19.4953 N   0  0  0  0  0  0  0  0  0  0  0  0
    7.4881  -16.6490   20.7109 C   0  0  1  0  0  0  0  0  0  0  0  0
    6.5190  -17.7630   20.5400 C   0  0  0  0  0  0  0  0  0  0  0  0
    6.3319  -18.2491   19.1709 C   0  0  0  0  0  0  0  0  0  0  0  0
    5.3755  -19.2936   18.8017 C   0  0  0  0  0  0  0  0  0  0  0  0
    5.2089  -19.6967   17.3811 C   0  0  0  0  0  0  0  0  0  0  0  0
    4.1735  -20.7726   17.4109 N   0  0  0  0  0  0  0  0  0  0  0  0
    8.4321  -16.9670   21.8557 C   0  0  0  0  0  0  0  0  0  0  0  0
    7.9862  -17.6103   22.8317 O   0  0  0  0  0  0  0  0  0  0  0  0
    9.7899  -16.5632   21.8551 N   0  0  0  0  0  0  0  0  0  0  0  0
   10.7257  -16.9415   22.8739 C   0  0  1  0  0  0  0  0  0  0  0  0
   12.1630  -16.7287   22.4641 C   0  0  0  0  0  0  0  0  0  0  0  0
   12.6011  -17.6135   21.3606 C   0  0  0  0  0  0  0  0  0  0  0  0
   12.0115  -18.8439   21.1646 C   0  0  0  0  0  0  0  0  0  0  0  0
   12.6106  -19.4084   20.1038 N   0  0  0  0  0  0  0  0  0  0  0  0
   13.5458  -18.5584   19.6500 C   0  0  0  0  0  0  0  0  0  0  0  0
   13.5244  -17.4683   20.4307 N   0  0  0  0  0  0  0  0  0  0  0  0
   10.4334  -16.2929   24.1855 C   0  0  0  0  0  0  0  0  0  0  0  0
   10.5979  -15.0637   24.3734 O   0  0  0  0  0  0  0  0  0  0  0  0
    9.9477  -17.0266   25.3119 N   0  0  0  0  0  0  0  0  0  0  0  0
    9.8070  -16.5563   26.6359 C   0  0  1  0  0  0  0  0  0  0  0  0
    8.4432  -16.3280   27.1623 C   0  0  0  0  0  0  0  0  0  0  0  0
    7.5620  -15.4922   26.3315 C   0  0  0  0  0  0  0  0  0  0  0  0
    6.6867  -15.8285   25.3231 C   0  0  0  0  0  0  0  0  0  0  0  0
    6.1056  -14.6985   24.8534 N   0  0  0  0  0  0  0  0  0  0  0  0
    6.5719  -13.6293   25.5221 C   0  0  0  0  0  0  0  0  0  0  0  0
    6.3324  -12.2717   25.4597 C   0  0  0  0  0  0  0  0  0  0  0  0
    6.9653  -11.3603   26.2869 C   0  0  0  0  0  0  0  0  0  0  0  0
    7.8751  -11.8666   27.2087 C   0  0  0  0  0  0  0  0  0  0  0  0
    8.1092  -13.2073   27.2678 C   0  0  0  0  0  0  0  0  0  0  0  0
    7.4782  -14.1211   26.4421 C   0  0  0  0  0  0  0  0  0  0  0  0
   10.5512  -17.3595   27.6409 C   0  0  0  0  0  0  0  0  0  0  0  0
   11.0880  -18.4249   27.2856 O   0  0  0  0  0  0  0  0  0  0  0  0
   10.6421  -16.9348   28.9364 O   0  0  0  0  0  0  0  0  0  0  0  0
  2  1  1  6
  3  2  1  0
  4  3  1  0
  5  4  1  0
  6  5  1  0
  6  7  1  0
  8  9  2  0
  8  2  1  0
 10  8  1  0
 11 10  1  0
 11 12  1  6
 12 13  1  0
 13 17  1  0
 13 14  2  0
 14 15  1  0
 16 15  1  0
 17 16  2  0
 18 20  1  0
 18 11  1  0
 19 18  2  0
 21 22  1  1
 21 20  1  0
 22 23  1  0
 23 31  1  0
 24 23  2  0
 24 25  1  0
 25 26  1  0
 26 27  2  0
 27 28  1  0
 29 28  2  0
 30 29  1  0
 31 30  2  0
 31 26  1  0
 32 21  1  0
 32 34  1  0
 33 32  2  0
M  END
$$$$
