KHW.pdb
     RDKit          3D

 34 36  0  0  1  0  0  0  0  0999 V2000
    9.4597  -18.2626   18.4767 N   0  0  0  0  0  0  0  0  0  0  0  0
   10.3400  -18.3929   19.6548 C   0  0  1  0  0  0  0  0  0  0  0  0
   11.6857  -18.8766   19.2496 C   0  0  0  0  0  0  0  0  0  0  0  0
   12.1859  -18.3855   17.9633 C   0  0  0  0  0  0  0  0  0  0  0  0
   13.4130  -18.8693   17.3289 C   0  0  0  0  0  0  0  0  0  0  0  0
   13.8527  -18.3207   16.0197 C   0  0  0  0  0  0  0  0  0  0  0  0
   15.1631  -18.9849   15.7509 N   0  0  0  0  0  0  0  0  0  0  0  0
   10.4618  -17.0168   20.2826 C   0  0  0  0  0  0  0  0  0  0  0  0
   11.5312  -16.3862   20.1281 O   0  0  0  0  0  0  0  0  0  0  0  0
    9.4131  -16.4278   21.0310 N   0  0  0  0  0  0  0  0  0  0  0  0
    9.4882  -15.1100   21.5921 C   0  0  1  0  0  0  0  0  0  0  0  0
    8.3345  -14.2269   21.1819 C   0  0  0  0  0  0  0  0  0  0  0  0
    8.1295  -14.1635   19.7169 C   0  0  0  0  0  0  0  0  0  0  0  0
    8.5395  -13.0646   18.9926 C   0  0  0  0  0  0  0  0  0  0  0  0
    8.2233  -13.2936   17.7079 N   0  0  0  0  0  0  0  0  0  0  0  0
    7.6339  -14.4976   17.6302 C   0  0  0  0  0  0  0  0  0  0  0  0
    7.5859  -15.0127   18.8674 N   0  0  0  0  0  0  0  0  0  0  0  0
    9.6558  -15.1305   23.0746 C   0  0  0  0  0  0  0  0  0  0  0  0
    9.7797  -14.0788   23.7468 O   0  0  0  0  0  0  0  0  0  0  0  0
    9.6860  -16.3463   23.8256 N   0  0  0  0  0  0  0  0  0  0  0  0
    9.4719  -16.4933   25.2136 C   0  0  1  0  0  0  0  0  0  0  0  0
    8.2218  -15.9566   25.7954 C   0  0  0  0  0  0  0  0  0  0  0  0
    8.3578  -14.7314   26.5989 C   0  0  0  0  0  0  0  0  0  0  0  0
    9.2403  -14.4046   27.6042 C   0  0  0  0  0  0  0  0  0  0  0  0
    8.9591  -13.1546   28.0440 N   0  0  0  0  0  0  0  0  0  0  0  0
    7.9186  -12.6490   27.3587 C   0  0  0  0  0  0  0  0  0  0  0  0
    7.2312  -11.4529   27.3903 C   0  0  0  0  0  0  0  0  0  0  0  0
    6.1649  -11.1790   26.5516 C   0  0  0  0  0  0  0  0  0  0  0  0
    5.7960  -12.1718   25.6507 C   0  0  0  0  0  0  0  0  0  0  0  0
    6.4767  -13.3515   25.6219 C   0  0  0  0  0  0  0  0  0  0  0  0
    7.5431  -13.6287   26.4592 C   0  0  0  0  0  0  0  0  0  0  0  0
    9.6362  -17.8872   25.7023 C   0  0  0  0  0  0  0  0  0  0  0  0
    8.9306  -18.7872   25.2106 O   0  0  0  0  0  0  0  0  0  0  0  0
   10.5473  -18.1752   26.6790 O   0  0  0  0  0  0  0  0  0  0  0  0
  2  1  1  6
  3  2  1  0
  4  3  1  0
  5  4  1  0
  6  5  1  0
  6  7  1  0
  8  9  2  0
  8  2  1  0
 10  8  1  0
 11 10  1  0
 11 12  1  1
 12 13  1  0
 13 17  1  0
 13 14  2  0
 14 15  1  0
 16 15  1  0
 17 16  2  0
 18 20  1  0
 18 11  1  0
 19 18  2  0
 21 22  1  6
 21 20  1  0
 22 23  1  0
 23 31  1  0
 24 23  2  0
 24 25  1  0
 25 26  1  0
 26 27  2  0
 27 28  1  0
 29 28  2  0
 30 29  1  0
 31 30  2  0
 31 26  1  0
 32 21  1  0
 32 34  1  0
 33 32  2  0
M  END
$$$$
