KHW.pdb
     RDKit          3D

 34 36  0  0  1  0  0  0  0  0999 V2000
    6.4881  -16.9313   20.8573 N   0  0  0  0  0  0  0  0  0  0  0  0
    7.8804  -16.4450   20.9278 C   0  0  1  0  0  0  0  0  0  0  0  0
    7.9104  -14.9637   21.0463 C   0  0  0  0  0  0  0  0  0  0  0  0
    7.5595  -14.2139   19.8378 C   0  0  0  0  0  0  0  0  0  0  0  0
    8.3588  -13.1101   19.3041 C   0  0  0  0  0  0  0  0  0  0  0  0
    7.8783  -12.3256   18.1370 C   0  0  0  0  0  0  0  0  0  0  0  0
    8.8129  -11.1641   18.0499 N   0  0  0  0  0  0  0  0  0  0  0  0
    8.5148  -17.0668   22.1581 C   0  0  0  0  0  0  0  0  0  0  0  0
    7.8142  -17.1955   23.1866 O   0  0  0  0  0  0  0  0  0  0  0  0
    9.8624  -17.5029   22.1797 N   0  0  0  0  0  0  0  0  0  0  0  0
   10.5111  -18.0018   23.3575 C   0  0  1  0  0  0  0  0  0  0  0  0
   11.7627  -18.7894   23.0537 C   0  0  0  0  0  0  0  0  0  0  0  0
   11.5050  -20.0514   22.3232 C   0  0  0  0  0  0  0  0  0  0  0  0
   10.2192  -20.5152   22.1451 C   0  0  0  0  0  0  0  0  0  0  0  0
   10.3022  -21.6645   21.4559 N   0  0  0  0  0  0  0  0  0  0  0  0
   11.5988  -21.9126   21.2103 C   0  0  0  0  0  0  0  0  0  0  0  0
   12.3172  -20.9161   21.7479 N   0  0  0  0  0  0  0  0  0  0  0  0
   10.7750  -16.9290   24.3605 C   0  0  0  0  0  0  0  0  0  0  0  0
   11.1865  -15.7915   24.0285 O   0  0  0  0  0  0  0  0  0  0  0  0
   10.5769  -17.1250   25.7624 N   0  0  0  0  0  0  0  0  0  0  0  0
   10.8402  -16.1992   26.7956 C   0  0  1  0  0  0  0  0  0  0  0  0
   10.1426  -14.8947   26.7687 C   0  0  0  0  0  0  0  0  0  0  0  0
    8.6753  -14.9492   26.6702 C   0  0  0  0  0  0  0  0  0  0  0  0
    7.8215  -16.0152   26.4955 C   0  0  0  0  0  0  0  0  0  0  0  0
    6.5481  -15.5544   26.4592 N   0  0  0  0  0  0  0  0  0  0  0  0
    6.5383  -14.2177   26.6049 C   0  0  0  0  0  0  0  0  0  0  0  0
    5.5477  -13.2578   26.6423 C   0  0  0  0  0  0  0  0  0  0  0  0
    5.8160  -11.9101   26.8076 C   0  0  0  0  0  0  0  0  0  0  0  0
    7.1502  -11.5411   26.9388 C   0  0  0  0  0  0  0  0  0  0  0  0
    8.1258  -12.4912   26.9016 C   0  0  0  0  0  0  0  0  0  0  0  0
    7.8609  -13.8393   26.7362 C   0  0  0  0  0  0  0  0  0  0  0  0
   10.6893  -16.7647   28.1617 C   0  0  0  0  0  0  0  0  0  0  0  0
   10.9654  -16.0525   29.1445 O   0  0  0  0  0  0  0  0  0  0  0  0
   10.2558  -18.0489   28.3351 O   0  0  0  0  0  0  0  0  0  0  0  0
  2  1  1  1
  3  2  1  0
  4  3  1  0
  5  4  1  0
  6  5  1  0
  6  7  1  0
  8  9  2  0
  8  2  1  0
 10  8  1  0
 11 10  1  0
 11 12  1  6
 12 13  1  0
 13 17  1  0
 13 14  2  0
 14 15  1  0
 16 15  1  0
 17 16  2  0
 18 20  1  0
 18 11  1  0
 19 18  2  0
 21 22  1  1
 21 20  1  0
 22 23  1  0
 23 31  1  0
 24 23  2  0
 24 25  1  0
 25 26  1  0
 26 27  2  0
 27 28  1  0
 29 28  2  0
 30 29  1  0
 31 30  2  0
 31 26  1  0
 32 21  1  0
 32 34  1  0
 33 32  2  0
M  END
$$$$
