KHW.pdb
     RDKit          3D

 34 36  0  0  1  0  0  0  0  0999 V2000
    9.1773  -18.6616   19.9994 N   0  0  0  0  0  0  0  0  0  0  0  0
   10.5346  -18.0959   19.8667 C   0  0  1  0  0  0  0  0  0  0  0  0
   10.9137  -17.9799   18.4342 C   0  0  0  0  0  0  0  0  0  0  0  0
    9.9266  -17.3471   17.5562 C   0  0  0  0  0  0  0  0  0  0  0  0
   10.0739  -17.2491   16.1033 C   0  0  0  0  0  0  0  0  0  0  0  0
    9.0176  -16.6063   15.2791 C   0  0  0  0  0  0  0  0  0  0  0  0
    9.4841  -16.7695   13.8698 N   0  0  0  0  0  0  0  0  0  0  0  0
   10.5138  -16.7173   20.5006 C   0  0  0  0  0  0  0  0  0  0  0  0
   11.5392  -16.0065   20.4098 O   0  0  0  0  0  0  0  0  0  0  0  0
    9.3808  -16.2133   21.1855 N   0  0  0  0  0  0  0  0  0  0  0  0
    9.2999  -14.8767   21.6993 C   0  0  1  0  0  0  0  0  0  0  0  0
    8.0614  -14.1431   21.2442 C   0  0  0  0  0  0  0  0  0  0  0  0
    7.8889  -14.1286   19.7737 C   0  0  0  0  0  0  0  0  0  0  0  0
    8.2985  -13.0466   19.0245 C   0  0  0  0  0  0  0  0  0  0  0  0
    8.0151  -13.3206   17.7409 N   0  0  0  0  0  0  0  0  0  0  0  0
    7.4460  -14.5356   17.6881 C   0  0  0  0  0  0  0  0  0  0  0  0
    7.3778  -15.0125   18.9396 N   0  0  0  0  0  0  0  0  0  0  0  0
    9.4459  -14.8268   23.1834 C   0  0  0  0  0  0  0  0  0  0  0  0
    9.5259  -13.7432   23.8101 O   0  0  0  0  0  0  0  0  0  0  0  0
    9.5038  -16.0069   23.9878 N   0  0  0  0  0  0  0  0  0  0  0  0
    9.8841  -16.0925   25.3450 C   0  0  1  0  0  0  0  0  0  0  0  0
    8.8266  -16.2722   26.3641 C   0  0  0  0  0  0  0  0  0  0  0  0
    7.5824  -15.5183   26.1431 C   0  0  0  0  0  0  0  0  0  0  0  0
    6.3677  -15.9124   25.6283 C   0  0  0  0  0  0  0  0  0  0  0  0
    5.5305  -14.8474   25.6181 N   0  0  0  0  0  0  0  0  0  0  0  0
    6.1576  -13.7647   26.1107 C   0  0  0  0  0  0  0  0  0  0  0  0
    5.7922  -12.4513   26.3248 C   0  0  0  0  0  0  0  0  0  0  0  0
    6.6551  -11.5112   26.8604 C   0  0  0  0  0  0  0  0  0  0  0  0
    7.9371  -11.9406   27.1858 C   0  0  0  0  0  0  0  0  0  0  0  0
    8.2947  -13.2378   26.9733 C   0  0  0  0  0  0  0  0  0  0  0  0
    7.4343  -14.1802   26.4378 C   0  0  0  0  0  0  0  0  0  0  0  0
   10.9432  -17.1011   25.6095 C   0  0  0  0  0  0  0  0  0  0  0  0
   11.2823  -17.8753   24.6956 O   0  0  0  0  0  0  0  0  0  0  0  0
   11.5340  -17.1780   26.8392 O   0  0  0  0  0  0  0  0  0  0  0  0
  2  1  1  6
  3  2  1  0
  4  3  1  0
  5  4  1  0
  6  5  1  0
  6  7  1  0
  8  9  2  0
  8  2  1  0
 10  8  1  0
 11 10  1  0
 11 12  1  1
 12 13  1  0
 13 17  1  0
 13 14  2  0
 14 15  1  0
 16 15  1  0
 17 16  2  0
 18 20  1  0
 18 11  1  0
 19 18  2  0
 21 22  1  1
 21 20  1  0
 22 23  1  0
 23 31  1  0
 24 23  2  0
 24 25  1  0
 25 26  1  0
 26 27  2  0
 27 28  1  0
 29 28  2  0
 30 29  1  0
 31 30  2  0
 31 26  1  0
 32 21  1  0
 32 34  1  0
 33 32  2  0
M  END
$$$$
