KHW.pdb
     RDKit          3D

 34 36  0  0  1  0  0  0  0  0999 V2000
    7.4328  -16.6955   18.6258 N   0  0  0  0  0  0  0  0  0  0  0  0
    8.4072  -15.8926   19.3911 C   0  0  1  0  0  0  0  0  0  0  0  0
    7.8322  -14.5669   19.7391 C   0  0  0  0  0  0  0  0  0  0  0  0
    8.0162  -13.5049   18.7470 C   0  0  0  0  0  0  0  0  0  0  0  0
    7.5524  -13.5958   17.3619 C   0  0  0  0  0  0  0  0  0  0  0  0
    7.8611  -12.5148   16.3900 C   0  0  0  0  0  0  0  0  0  0  0  0
    7.2136  -12.9526   15.1174 N   0  0  0  0  0  0  0  0  0  0  0  0
    8.7252  -16.6586   20.6619 C   0  0  0  0  0  0  0  0  0  0  0  0
    7.7752  -17.1385   21.3194 O   0  0  0  0  0  0  0  0  0  0  0  0
   10.0512  -16.8466   21.1238 N   0  0  0  0  0  0  0  0  0  0  0  0
   10.3823  -17.6489   22.2656 C   0  0  1  0  0  0  0  0  0  0  0  0
   11.5616  -18.5602   22.0251 C   0  0  0  0  0  0  0  0  0  0  0  0
   11.9133  -19.3946   23.1966 C   0  0  0  0  0  0  0  0  0  0  0  0
   13.1594  -19.3059   23.7792 C   0  0  0  0  0  0  0  0  0  0  0  0
   13.1819  -20.1714   24.8055 N   0  0  0  0  0  0  0  0  0  0  0  0
   11.9877  -20.7827   24.8637 C   0  0  0  0  0  0  0  0  0  0  0  0
   11.2272  -20.2947   23.8729 N   0  0  0  0  0  0  0  0  0  0  0  0
   10.5700  -16.8325   23.5005 C   0  0  0  0  0  0  0  0  0  0  0  0
   11.1531  -15.7222   23.4842 O   0  0  0  0  0  0  0  0  0  0  0  0
   10.0990  -17.2599   24.7805 N   0  0  0  0  0  0  0  0  0  0  0  0
   10.2482  -16.5826   26.0105 C   0  0  1  0  0  0  0  0  0  0  0  0
    9.8624  -15.1560   26.0817 C   0  0  0  0  0  0  0  0  0  0  0  0
    8.4285  -14.8663   25.9228 C   0  0  0  0  0  0  0  0  0  0  0  0
    7.3735  -15.6863   25.5903 C   0  0  0  0  0  0  0  0  0  0  0  0
    6.2379  -14.9483   25.5618 N   0  0  0  0  0  0  0  0  0  0  0  0
    6.5136  -13.6678   25.8655 C   0  0  0  0  0  0  0  0  0  0  0  0
    5.7585  -12.5185   25.9802 C   0  0  0  0  0  0  0  0  0  0  0  0
    6.3062  -11.2924   26.3152 C   0  0  0  0  0  0  0  0  0  0  0  0
    7.6779  -11.2511   26.5392 C   0  0  0  0  0  0  0  0  0  0  0  0
    8.4205  -12.3874   26.4253 C   0  0  0  0  0  0  0  0  0  0  0  0
    7.8761  -13.6148   26.0904 C   0  0  0  0  0  0  0  0  0  0  0  0
    9.6161  -17.2800   27.1608 C   0  0  0  0  0  0  0  0  0  0  0  0
    9.8119  -16.8476   28.3115 O   0  0  0  0  0  0  0  0  0  0  0  0
    8.8334  -18.3813   26.9571 O   0  0  0  0  0  0  0  0  0  0  0  0
  2  1  1  6
  3  2  1  0
  4  3  1  0
  5  4  1  0
  6  5  1  0
  6  7  1  0
  8  9  2  0
  8  2  1  0
 10  8  1  0
 11 10  1  0
 11 12  1  6
 12 13  1  0
 13 17  1  0
 13 14  2  0
 14 15  1  0
 16 15  1  0
 17 16  2  0
 18 20  1  0
 18 11  1  0
 19 18  2  0
 21 22  1  6
 21 20  1  0
 22 23  1  0
 23 31  1  0
 24 23  2  0
 24 25  1  0
 25 26  1  0
 26 27  2  0
 27 28  1  0
 29 28  2  0
 30 29  1  0
 31 30  2  0
 31 26  1  0
 32 21  1  0
 32 34  1  0
 33 32  2  0
M  END
$$$$
