KHW.pdb
     RDKit          3D

 34 36  0  0  1  0  0  0  0  0999 V2000
    8.6883  -17.5151   19.3351 N   0  0  0  0  0  0  0  0  0  0  0  0
    9.4978  -16.6450   20.2113 C   0  0  1  0  0  0  0  0  0  0  0  0
    8.9015  -15.2859   20.2919 C   0  0  0  0  0  0  0  0  0  0  0  0
    8.7949  -14.5537   19.0276 C   0  0  0  0  0  0  0  0  0  0  0  0
    8.2460  -13.2017   18.9139 C   0  0  0  0  0  0  0  0  0  0  0  0
    8.1441  -12.5374   17.5885 C   0  0  0  0  0  0  0  0  0  0  0  0
    7.3867  -11.2777   17.8528 N   0  0  0  0  0  0  0  0  0  0  0  0
    9.5099  -17.2779   21.5904 C   0  0  0  0  0  0  0  0  0  0  0  0
    8.4272  -17.6867   22.0656 O   0  0  0  0  0  0  0  0  0  0  0  0
   10.6968  -17.4199   22.3506 N   0  0  0  0  0  0  0  0  0  0  0  0
   10.7487  -18.1002   23.6122 C   0  0  1  0  0  0  0  0  0  0  0  0
   11.7997  -19.1831   23.6564 C   0  0  0  0  0  0  0  0  0  0  0  0
   11.6247  -20.2205   22.6145 C   0  0  0  0  0  0  0  0  0  0  0  0
   10.4592  -20.9519   22.5339 C   0  0  0  0  0  0  0  0  0  0  0  0
   10.5936  -21.8034   21.5044 N   0  0  0  0  0  0  0  0  0  0  0  0
   11.8049  -21.6113   20.9577 C   0  0  0  0  0  0  0  0  0  0  0  0
   12.4191  -20.6407   21.6497 N   0  0  0  0  0  0  0  0  0  0  0  0
   10.8901  -17.1592   24.7615 C   0  0  0  0  0  0  0  0  0  0  0  0
   11.7517  -16.2477   24.7757 O   0  0  0  0  0  0  0  0  0  0  0  0
   10.0556  -17.2332   25.9196 N   0  0  0  0  0  0  0  0  0  0  0  0
   10.1769  -16.4747   27.1044 C   0  0  1  0  0  0  0  0  0  0  0  0
    8.9438  -16.0960   27.8291 C   0  0  0  0  0  0  0  0  0  0  0  0
    7.8398  -15.5847   27.0015 C   0  0  0  0  0  0  0  0  0  0  0  0
    6.8244  -16.2430   26.3446 C   0  0  0  0  0  0  0  0  0  0  0  0
    6.0536  -15.3310   25.7050 N   0  0  0  0  0  0  0  0  0  0  0  0
    6.5309  -14.0927   25.9212 C   0  0  0  0  0  0  0  0  0  0  0  0
    6.1494  -12.8276   25.5231 C   0  0  0  0  0  0  0  0  0  0  0  0
    6.8358  -11.6856   25.8971 C   0  0  0  0  0  0  0  0  0  0  0  0
    7.9523  -11.8544   26.7086 C   0  0  0  0  0  0  0  0  0  0  0  0
    8.3263  -13.1046   27.0999 C   0  0  0  0  0  0  0  0  0  0  0  0
    7.6424  -14.2485   26.7276 C   0  0  0  0  0  0  0  0  0  0  0  0
   11.1234  -17.0530   28.0936 C   0  0  0  0  0  0  0  0  0  0  0  0
   11.5916  -18.1883   27.8899 O   0  0  0  0  0  0  0  0  0  0  0  0
   11.4722  -16.3488   29.2114 O   0  0  0  0  0  0  0  0  0  0  0  0
  2  1  1  6
  3  2  1  0
  4  3  1  0
  5  4  1  0
  6  5  1  0
  6  7  1  0
  8  9  2  0
  8  2  1  0
 10  8  1  0
 11 10  1  0
 11 12  1  6
 12 13  1  0
 13 17  1  0
 13 14  2  0
 14 15  1  0
 16 15  1  0
 17 16  2  0
 18 20  1  0
 18 11  1  0
 19 18  2  0
 21 22  1  1
 21 20  1  0
 22 23  1  0
 23 31  1  0
 24 23  2  0
 24 25  1  0
 25 26  1  0
 26 27  2  0
 27 28  1  0
 29 28  2  0
 30 29  1  0
 31 30  2  0
 31 26  1  0
 32 21  1  0
 32 34  1  0
 33 32  2  0
M  END
$$$$
