WVI.pdb
     RDKit          3D

 30 31  0  0  1  0  0  0  0  0999 V2000
    7.2335  -16.1893   21.5981 N   0  0  0  0  0  0  0  0  0  0  0  0
    8.2945  -15.8563   22.5519 C   0  0  1  0  0  0  0  0  0  0  0  0
    7.6748  -15.2735   23.8067 C   0  0  0  0  0  0  0  0  0  0  0  0
    7.2924  -13.8730   23.4866 C   0  0  0  0  0  0  0  0  0  0  0  0
    7.3446  -13.2061   22.2910 C   0  0  0  0  0  0  0  0  0  0  0  0
    6.9172  -11.9615   22.5102 N   0  0  0  0  0  0  0  0  0  0  0  0
    6.5854  -11.8041   23.8156 C   0  0  0  0  0  0  0  0  0  0  0  0
    6.0956  -10.7248   24.5437 C   0  0  0  0  0  0  0  0  0  0  0  0
    5.8305  -10.8433   25.9117 C   0  0  0  0  0  0  0  0  0  0  0  0
    6.0672  -12.0536   26.5177 C   0  0  0  0  0  0  0  0  0  0  0  0
    6.5589  -13.1210   25.7785 C   0  0  0  0  0  0  0  0  0  0  0  0
    6.8131  -12.9905   24.4462 C   0  0  0  0  0  0  0  0  0  0  0  0
    9.0567  -17.1059   22.7843 C   0  0  0  0  0  0  0  0  0  0  0  0
    8.4416  -18.1453   22.9142 O   0  0  0  0  0  0  0  0  0  0  0  0
   12.4380  -18.8769   21.4913 C   0  0  0  0  0  0  0  0  0  0  0  0
   12.6118  -18.2590   22.8549 C   0  0  1  0  0  0  0  0  0  0  0  0
   13.0977  -16.8272   22.5717 C   0  0  0  0  0  0  0  0  0  0  0  0
   11.2812  -18.0649   23.5775 C   0  0  2  0  0  0  0  0  0  0  0  0
   10.4583  -17.1303   22.8465 N   0  0  0  0  0  0  0  0  0  0  0  0
   11.5944  -17.4039   24.8683 C   0  0  0  0  0  0  0  0  0  0  0  0
   12.1045  -16.2254   24.8905 O   0  0  0  0  0  0  0  0  0  0  0  0
   10.3960  -14.0849   28.6786 C   0  0  0  0  0  0  0  0  0  0  0  0
   10.3162  -15.5575   28.8240 C   0  0  0  0  0  0  0  0  0  0  0  0
   10.4230  -16.3872   27.6037 C   0  0  2  0  0  0  0  0  0  0  0  0
    9.1635  -17.2557   27.5303 C   0  0  0  0  0  0  0  0  0  0  0  0
   11.6577  -17.1639   27.3945 C   0  0  2  0  0  0  0  0  0  0  0  0
   11.3759  -17.9630   26.1493 N   0  0  0  0  0  0  0  0  0  0  0  0
   11.9866  -18.1331   28.4224 C   0  0  0  0  0  0  0  0  0  0  0  0
   12.6474  -17.8419   29.4881 O   0  0  0  0  0  0  0  0  0  0  0  0
   11.6119  -19.4801   28.3619 O   0  0  0  0  0  0  0  0  0  0  0  0
  2  1  1  6
  2 13  1  0
  2  3  1  0
  3  4  1  0
  4  5  2  0
  4 12  1  0
  5  6  1  0
  6  7  1  0
  7  8  2  0
  8  9  1  0
 10  9  2  0
 11 10  1  0
 12 11  2  0
 12  7  1  0
 13 19  1  0
 14 13  2  0
 16 15  1  6
 16 18  1  0
 17 16  1  0
 18 20  1  0
 18 19  1  6
 20 21  2  0
 20 27  1  0
 23 22  1  0
 23 24  1  0
 24 26  1  0
 24 25  1  1
 26 28  1  0
 26 27  1  6
 28 30  1  0
 29 28  2  0
M  END
$$$$
