WVI.pdb
     RDKit          3D

 30 31  0  0  1  0  0  0  0  0999 V2000
    5.9960  -17.2494   24.8804 N   0  0  0  0  0  0  0  0  0  0  0  0
    7.1786  -16.4150   24.6534 C   0  0  1  0  0  0  0  0  0  0  0  0
    7.5566  -15.7201   25.9466 C   0  0  0  0  0  0  0  0  0  0  0  0
    6.5914  -14.6050   26.1334 C   0  0  0  0  0  0  0  0  0  0  0  0
    5.3488  -14.6143   26.7103 C   0  0  0  0  0  0  0  0  0  0  0  0
    4.8593  -13.3764   26.6217 N   0  0  0  0  0  0  0  0  0  0  0  0
    5.7530  -12.5631   26.0062 C   0  0  0  0  0  0  0  0  0  0  0  0
    5.7317  -11.2118   25.6765 C   0  0  0  0  0  0  0  0  0  0  0  0
    6.8184  -10.6137   25.0308 C   0  0  0  0  0  0  0  0  0  0  0  0
    7.9073  -11.3959   24.7301 C   0  0  0  0  0  0  0  0  0  0  0  0
    7.9128  -12.7438   25.0628 C   0  0  0  0  0  0  0  0  0  0  0  0
    6.8463  -13.3130   25.6913 C   0  0  0  0  0  0  0  0  0  0  0  0
    8.2316  -17.3147   24.1261 C   0  0  0  0  0  0  0  0  0  0  0  0
    8.3520  -18.4185   24.6186 O   0  0  0  0  0  0  0  0  0  0  0  0
   12.4623  -16.9891   21.3956 C   0  0  0  0  0  0  0  0  0  0  0  0
   11.0566  -16.5468   21.7120 C   0  0  1  0  0  0  0  0  0  0  0  0
   10.2156  -17.0558   20.5287 C   0  0  0  0  0  0  0  0  0  0  0  0
   10.4776  -17.2761   22.9216 C   0  0  2  0  0  0  0  0  0  0  0  0
    9.0815  -16.9407   23.0741 N   0  0  0  0  0  0  0  0  0  0  0  0
   11.1597  -16.7197   24.1160 C   0  0  0  0  0  0  0  0  0  0  0  0
   11.8163  -15.6187   24.0382 O   0  0  0  0  0  0  0  0  0  0  0  0
    9.6709  -13.9304   27.7199 C   0  0  0  0  0  0  0  0  0  0  0  0
   10.5872  -14.7034   26.8487 C   0  0  0  0  0  0  0  0  0  0  0  0
   11.1065  -15.9944   27.3513 C   0  0  2  0  0  0  0  0  0  0  0  0
   11.6664  -15.7462   28.7552 C   0  0  0  0  0  0  0  0  0  0  0  0
   12.0388  -16.7511   26.4970 C   0  0  2  0  0  0  0  0  0  0  0  0
   11.1614  -17.3035   25.4046 N   0  0  0  0  0  0  0  0  0  0  0  0
   12.6807  -17.8988   27.1093 C   0  0  0  0  0  0  0  0  0  0  0  0
   12.1338  -19.0616   27.1861 O   0  0  0  0  0  0  0  0  0  0  0  0
   13.9617  -17.8585   27.6711 O   0  0  0  0  0  0  0  0  0  0  0  0
  2  1  1  1
  2 13  1  0
  2  3  1  0
  3  4  1  0
  4  5  2  0
  4 12  1  0
  5  6  1  0
  6  7  1  0
  7  8  2  0
  8  9  1  0
 10  9  2  0
 11 10  1  0
 12 11  2  0
 12  7  1  0
 13 19  1  0
 14 13  2  0
 16 15  1  6
 16 18  1  0
 17 16  1  0
 18 20  1  0
 18 19  1  1
 20 21  2  0
 20 27  1  0
 23 22  1  0
 23 24  1  0
 24 26  1  0
 24 25  1  1
 26 28  1  0
 26 27  1  6
 28 30  1  0
 29 28  2  0
M  END
$$$$
