WVI.pdb
     RDKit          3D

 30 31  0  0  1  0  0  0  0  0999 V2000
    7.0880  -20.0455   21.8192 N   0  0  0  0  0  0  0  0  0  0  0  0
    6.4715  -18.8450   22.3893 C   0  0  1  0  0  0  0  0  0  0  0  0
    5.6633  -19.2303   23.6127 C   0  0  0  0  0  0  0  0  0  0  0  0
    4.4472  -19.9301   23.1216 C   0  0  0  0  0  0  0  0  0  0  0  0
    3.8513  -21.0732   23.5855 C   0  0  0  0  0  0  0  0  0  0  0  0
    2.7981  -21.3186   22.8043 N   0  0  0  0  0  0  0  0  0  0  0  0
    2.6924  -20.3630   21.8480 C   0  0  0  0  0  0  0  0  0  0  0  0
    1.7890  -20.1590   20.8101 C   0  0  0  0  0  0  0  0  0  0  0  0
    1.9162  -19.0610   19.9536 C   0  0  0  0  0  0  0  0  0  0  0  0
    2.9573  -18.1893   20.1638 C   0  0  0  0  0  0  0  0  0  0  0  0
    3.8527  -18.4075   21.2021 C   0  0  0  0  0  0  0  0  0  0  0  0
    3.7165  -19.4823   22.0284 C   0  0  0  0  0  0  0  0  0  0  0  0
    7.5775  -17.9007   22.6743 C   0  0  0  0  0  0  0  0  0  0  0  0
    8.7126  -18.3314   22.7145 O   0  0  0  0  0  0  0  0  0  0  0  0
    8.6890  -13.0620   23.5785 C   0  0  0  0  0  0  0  0  0  0  0  0
    7.6958  -14.1544   23.2752 C   0  0  1  0  0  0  0  0  0  0  0  0
    7.2530  -13.8832   21.8271 C   0  0  0  0  0  0  0  0  0  0  0  0
    8.3501  -15.5322   23.2130 C   0  0  2  0  0  0  0  0  0  0  0  0
    7.3598  -16.5307   22.8860 N   0  0  0  0  0  0  0  0  0  0  0  0
    8.8020  -15.8472   24.5906 C   0  0  0  0  0  0  0  0  0  0  0  0
    7.9729  -16.2978   25.4618 O   0  0  0  0  0  0  0  0  0  0  0  0
    8.6034  -13.4039   28.5345 C   0  0  0  0  0  0  0  0  0  0  0  0
    8.8450  -14.6070   27.7037 C   0  0  0  0  0  0  0  0  0  0  0  0
   10.2316  -14.8931   27.2743 C   0  0  2  0  0  0  0  0  0  0  0  0
   10.7703  -13.6290   26.5978 C   0  0  0  0  0  0  0  0  0  0  0  0
   10.4784  -16.1086   26.4786 C   0  0  2  0  0  0  0  0  0  0  0  0
   10.1236  -15.6992   25.0733 N   0  0  0  0  0  0  0  0  0  0  0  0
    9.6412  -17.2536   26.7820 C   0  0  0  0  0  0  0  0  0  0  0  0
    9.7580  -17.9546   27.8555 O   0  0  0  0  0  0  0  0  0  0  0  0
    8.6178  -17.7063   25.9417 O   0  0  0  0  0  0  0  0  0  0  0  0
  2  1  1  1
  2 13  1  0
  2  3  1  0
  3  4  1  0
  4  5  2  0
  4 12  1  0
  5  6  1  0
  6  7  1  0
  7  8  2  0
  8  9  1  0
 10  9  2  0
 11 10  1  0
 12 11  2  0
 12  7  1  0
 13 19  1  0
 14 13  2  0
 16 15  1  6
 16 18  1  0
 17 16  1  0
 18 20  1  0
 18 19  1  1
 20 21  2  0
 20 27  1  0
 23 22  1  0
 23 24  1  0
 24 26  1  0
 24 25  1  6
 26 28  1  0
 26 27  1  6
 28 30  1  0
 29 28  2  0
M  END
$$$$
