WVI.pdb
     RDKit          3D

 30 31  0  0  1  0  0  0  0  0999 V2000
    6.1287  -16.3243   24.8628 N   0  0  0  0  0  0  0  0  0  0  0  0
    7.4566  -16.0355   24.3154 C   0  0  1  0  0  0  0  0  0  0  0  0
    7.9035  -14.6645   24.7832 C   0  0  0  0  0  0  0  0  0  0  0  0
    7.1296  -13.6685   23.9964 C   0  0  0  0  0  0  0  0  0  0  0  0
    6.1174  -12.8367   24.3969 C   0  0  0  0  0  0  0  0  0  0  0  0
    5.7244  -12.1437   23.3268 N   0  0  0  0  0  0  0  0  0  0  0  0
    6.4574  -12.5010   22.2433 C   0  0  0  0  0  0  0  0  0  0  0  0
    6.4476  -12.0857   20.9157 C   0  0  0  0  0  0  0  0  0  0  0  0
    7.3382  -12.6323   19.9864 C   0  0  0  0  0  0  0  0  0  0  0  0
    8.2226  -13.5908   20.4189 C   0  0  0  0  0  0  0  0  0  0  0  0
    8.2187  -13.9972   21.7464 C   0  0  0  0  0  0  0  0  0  0  0  0
    7.3445  -13.4560   22.6406 C   0  0  0  0  0  0  0  0  0  0  0  0
    8.3417  -17.1384   24.7588 C   0  0  0  0  0  0  0  0  0  0  0  0
    8.0639  -17.7296   25.7828 O   0  0  0  0  0  0  0  0  0  0  0  0
   12.6010  -19.6220   23.7111 C   0  0  0  0  0  0  0  0  0  0  0  0
   11.5530  -18.5986   23.3562 C   0  0  1  0  0  0  0  0  0  0  0  0
   10.7198  -19.2663   22.2488 C   0  0  0  0  0  0  0  0  0  0  0  0
   10.5549  -18.3737   24.4892 C   0  0  2  0  0  0  0  0  0  0  0  0
    9.4771  -17.5286   24.0323 N   0  0  0  0  0  0  0  0  0  0  0  0
   11.2673  -17.5929   25.5303 C   0  0  0  0  0  0  0  0  0  0  0  0
   12.2507  -16.8298   25.2143 O   0  0  0  0  0  0  0  0  0  0  0  0
    8.9562  -14.4854   29.1159 C   0  0  0  0  0  0  0  0  0  0  0  0
    9.6697  -15.7213   28.7163 C   0  0  0  0  0  0  0  0  0  0  0  0
   11.0193  -15.5891   28.1246 C   0  0  2  0  0  0  0  0  0  0  0  0
   10.8837  -14.7271   26.8659 C   0  0  0  0  0  0  0  0  0  0  0  0
   11.7999  -16.8163   27.8875 C   0  0  2  0  0  0  0  0  0  0  0  0
   10.9595  -17.5966   26.9112 N   0  0  0  0  0  0  0  0  0  0  0  0
   11.9889  -17.6863   29.0327 C   0  0  0  0  0  0  0  0  0  0  0  0
   11.3049  -18.7588   29.2307 O   0  0  0  0  0  0  0  0  0  0  0  0
   12.9389  -17.4508   30.0329 O   0  0  0  0  0  0  0  0  0  0  0  0
  2  1  1  1
  2 13  1  0
  2  3  1  0
  3  4  1  0
  4  5  2  0
  4 12  1  0
  5  6  1  0
  6  7  1  0
  7  8  2  0
  8  9  1  0
 10  9  2  0
 11 10  1  0
 12 11  2  0
 12  7  1  0
 13 19  1  0
 14 13  2  0
 16 15  1  1
 16 18  1  0
 17 16  1  0
 18 20  1  0
 18 19  1  6
 20 21  2  0
 20 27  1  0
 23 22  1  0
 23 24  1  0
 24 26  1  0
 24 25  1  6
 26 28  1  0
 26 27  1  6
 28 30  1  0
 29 28  2  0
M  END
$$$$
