WVI.pdb
     RDKit          3D

 30 31  0  0  1  0  0  0  0  0999 V2000
    5.3719  -17.9211   24.5493 N   0  0  0  0  0  0  0  0  0  0  0  0
    6.1972  -16.7108   24.5590 C   0  0  1  0  0  0  0  0  0  0  0  0
    6.5801  -16.3775   25.9875 C   0  0  0  0  0  0  0  0  0  0  0  0
    6.0175  -15.0331   26.2808 C   0  0  0  0  0  0  0  0  0  0  0  0
    4.7193  -14.6627   26.5143 C   0  0  0  0  0  0  0  0  0  0  0  0
    4.7100  -13.3425   26.7055 N   0  0  0  0  0  0  0  0  0  0  0  0
    5.9683  -12.8467   26.6060 C   0  0  0  0  0  0  0  0  0  0  0  0
    6.4912  -11.5629   26.7219 C   0  0  0  0  0  0  0  0  0  0  0  0
    7.8621  -11.3305   26.5729 C   0  0  0  0  0  0  0  0  0  0  0  0
    8.6788  -12.4034   26.3086 C   0  0  0  0  0  0  0  0  0  0  0  0
    8.1420  -13.6785   26.1929 C   0  0  0  0  0  0  0  0  0  0  0  0
    6.8040  -13.8897   26.3399 C   0  0  0  0  0  0  0  0  0  0  0  0
    7.3555  -16.9860   23.6764 C   0  0  0  0  0  0  0  0  0  0  0  0
    7.9879  -18.0083   23.8506 O   0  0  0  0  0  0  0  0  0  0  0  0
    7.7267  -15.2907   19.9088 C   0  0  0  0  0  0  0  0  0  0  0  0
    8.9334  -15.0944   20.7902 C   0  0  1  0  0  0  0  0  0  0  0  0
    8.6819  -13.7511   21.4965 C   0  0  0  0  0  0  0  0  0  0  0  0
    8.9910  -16.1093   21.9290 C   0  0  2  0  0  0  0  0  0  0  0  0
    7.7364  -16.1157   22.6437 N   0  0  0  0  0  0  0  0  0  0  0  0
   10.0018  -15.6064   22.8917 C   0  0  0  0  0  0  0  0  0  0  0  0
   10.1966  -14.3449   23.0331 O   0  0  0  0  0  0  0  0  0  0  0  0
   10.2030  -13.3386   27.2182 C   0  0  0  0  0  0  0  0  0  0  0  0
   11.1017  -13.8640   26.1634 C   0  0  0  0  0  0  0  0  0  0  0  0
   10.9638  -15.2838   25.7710 C   0  0  2  0  0  0  0  0  0  0  0  0
   11.0980  -16.1247   27.0441 C   0  0  0  0  0  0  0  0  0  0  0  0
   11.8039  -15.7877   24.6701 C   0  0  2  0  0  0  0  0  0  0  0  0
   10.8175  -16.4133   23.7193 N   0  0  0  0  0  0  0  0  0  0  0  0
   12.7461  -16.8364   25.0117 C   0  0  0  0  0  0  0  0  0  0  0  0
   13.8419  -16.6254   25.6536 O   0  0  0  0  0  0  0  0  0  0  0  0
   12.5543  -18.1833   24.6843 O   0  0  0  0  0  0  0  0  0  0  0  0
  2  1  1  1
  2 13  1  0
  2  3  1  0
  3  4  1  0
  4  5  2  0
  4 12  1  0
  5  6  1  0
  6  7  1  0
  7  8  2  0
  8  9  1  0
 10  9  2  0
 11 10  1  0
 12 11  2  0
 12  7  1  0
 13 19  1  0
 14 13  2  0
 16 15  1  6
 16 18  1  0
 17 16  1  0
 18 20  1  0
 18 19  1  1
 20 21  2  0
 20 27  1  0
 23 22  1  0
 23 24  1  0
 24 26  1  0
 24 25  1  1
 26 28  1  0
 26 27  1  6
 28 30  1  0
 29 28  2  0
M  END
$$$$
