WVI.pdb
     RDKit          3D

 30 31  0  0  1  0  0  0  0  0999 V2000
    5.4574  -17.9023   24.3991 N   0  0  0  0  0  0  0  0  0  0  0  0
    6.2533  -16.6729   24.3628 C   0  0  1  0  0  0  0  0  0  0  0  0
    6.7318  -16.3449   25.7634 C   0  0  0  0  0  0  0  0  0  0  0  0
    6.0434  -15.0917   26.1703 C   0  0  0  0  0  0  0  0  0  0  0  0
    4.7223  -14.8778   26.4632 C   0  0  0  0  0  0  0  0  0  0  0  0
    4.5830  -13.5830   26.7527 N   0  0  0  0  0  0  0  0  0  0  0  0
    5.7796  -12.9517   26.6594 C   0  0  0  0  0  0  0  0  0  0  0  0
    6.1707  -11.6316   26.8579 C   0  0  0  0  0  0  0  0  0  0  0  0
    7.5048  -11.2461   26.6927 C   0  0  0  0  0  0  0  0  0  0  0  0
    8.4188  -12.2053   26.3285 C   0  0  0  0  0  0  0  0  0  0  0  0
    8.0129  -13.5182   26.1312 C   0  0  0  0  0  0  0  0  0  0  0  0
    6.7092  -13.8791   26.2953 C   0  0  0  0  0  0  0  0  0  0  0  0
    7.3500  -16.9119   23.3950 C   0  0  0  0  0  0  0  0  0  0  0  0
    7.9134  -17.9878   23.4104 O   0  0  0  0  0  0  0  0  0  0  0  0
    7.5644  -14.4097   20.1726 C   0  0  0  0  0  0  0  0  0  0  0  0
    8.9332  -14.7643   20.6943 C   0  0  1  0  0  0  0  0  0  0  0  0
    9.2977  -13.6081   21.6411 C   0  0  0  0  0  0  0  0  0  0  0  0
    8.9084  -15.9934   21.5993 C   0  0  2  0  0  0  0  0  0  0  0  0
    7.7487  -15.9463   22.4582 N   0  0  0  0  0  0  0  0  0  0  0  0
   10.0826  -15.8788   22.4989 C   0  0  0  0  0  0  0  0  0  0  0  0
   11.2729  -15.8539   22.0175 O   0  0  0  0  0  0  0  0  0  0  0  0
    9.6402  -13.4350   27.4243 C   0  0  0  0  0  0  0  0  0  0  0  0
   10.2316  -13.8530   26.1313 C   0  0  0  0  0  0  0  0  0  0  0  0
   10.8252  -15.2050   26.0387 C   0  0  2  0  0  0  0  0  0  0  0  0
   11.9114  -15.3016   27.1142 C   0  0  0  0  0  0  0  0  0  0  0  0
   11.2914  -15.6730   24.7214 C   0  0  2  0  0  0  0  0  0  0  0  0
   10.0279  -15.7855   23.9095 N   0  0  0  0  0  0  0  0  0  0  0  0
   11.9029  -16.9880   24.6886 C   0  0  0  0  0  0  0  0  0  0  0  0
   11.2292  -18.0850   24.6887 O   0  0  0  0  0  0  0  0  0  0  0  0
   13.2861  -17.1955   24.6461 O   0  0  0  0  0  0  0  0  0  0  0  0
  2  1  1  1
  2 13  1  0
  2  3  1  0
  3  4  1  0
  4  5  2  0
  4 12  1  0
  5  6  1  0
  6  7  1  0
  7  8  2  0
  8  9  1  0
 10  9  2  0
 11 10  1  0
 12 11  2  0
 12  7  1  0
 13 19  1  0
 14 13  2  0
 16 15  1  1
 16 18  1  0
 17 16  1  0
 18 20  1  0
 18 19  1  1
 20 21  2  0
 20 27  1  0
 23 22  1  0
 23 24  1  0
 24 26  1  0
 24 25  1  1
 26 28  1  0
 26 27  1  6
 28 30  1  0
 29 28  2  0
M  END
$$$$
