WVI.pdb
     RDKit          3D

 30 31  0  0  1  0  0  0  0  0999 V2000
    5.9896  -17.3070   24.8718 N   0  0  0  0  0  0  0  0  0  0  0  0
    7.1173  -16.4075   24.6157 C   0  0  1  0  0  0  0  0  0  0  0  0
    7.4907  -15.6947   25.9006 C   0  0  0  0  0  0  0  0  0  0  0  0
    6.4744  -14.6308   26.1129 C   0  0  0  0  0  0  0  0  0  0  0  0
    5.2259  -14.7159   26.6705 C   0  0  0  0  0  0  0  0  0  0  0  0
    4.6829  -13.4984   26.6191 N   0  0  0  0  0  0  0  0  0  0  0  0
    5.5475  -12.6246   26.0464 C   0  0  0  0  0  0  0  0  0  0  0  0
    5.4704  -11.2644   25.7652 C   0  0  0  0  0  0  0  0  0  0  0  0
    6.5379  -10.5958   25.1576 C   0  0  0  0  0  0  0  0  0  0  0  0
    7.6645  -11.3178   24.8452 C   0  0  0  0  0  0  0  0  0  0  0  0
    7.7256  -12.6753   25.1295 C   0  0  0  0  0  0  0  0  0  0  0  0
    6.6773  -13.3136   25.7213 C   0  0  0  0  0  0  0  0  0  0  0  0
    8.2042  -17.2462   24.0576 C   0  0  0  0  0  0  0  0  0  0  0  0
    8.3948  -18.3451   24.5388 O   0  0  0  0  0  0  0  0  0  0  0  0
   11.1310  -14.9681   21.7934 C   0  0  0  0  0  0  0  0  0  0  0  0
   10.8997  -16.4306   21.5121 C   0  0  1  0  0  0  0  0  0  0  0  0
   12.3072  -17.0078   21.2835 C   0  0  0  0  0  0  0  0  0  0  0  0
   10.3831  -17.1820   22.7364 C   0  0  2  0  0  0  0  0  0  0  0  0
    9.0082  -16.8205   22.9892 N   0  0  0  0  0  0  0  0  0  0  0  0
   11.1542  -16.6760   23.8985 C   0  0  0  0  0  0  0  0  0  0  0  0
   11.9655  -15.6897   23.7632 O   0  0  0  0  0  0  0  0  0  0  0  0
   10.0201  -13.8470   27.7442 C   0  0  0  0  0  0  0  0  0  0  0  0
   10.8614  -14.6245   26.8041 C   0  0  0  0  0  0  0  0  0  0  0  0
   11.2978  -15.9780   27.2120 C   0  0  2  0  0  0  0  0  0  0  0  0
   11.9837  -15.8453   28.5751 C   0  0  0  0  0  0  0  0  0  0  0  0
   12.0891  -16.7731   26.2564 C   0  0  2  0  0  0  0  0  0  0  0  0
   11.0850  -17.1907   25.2144 N   0  0  0  0  0  0  0  0  0  0  0  0
   12.6649  -18.0022   26.7682 C   0  0  0  0  0  0  0  0  0  0  0  0
   12.0369  -19.1258   26.7897 O   0  0  0  0  0  0  0  0  0  0  0  0
   13.9631  -18.0910   27.2829 O   0  0  0  0  0  0  0  0  0  0  0  0
  2  1  1  1
  2 13  1  0
  2  3  1  0
  3  4  1  0
  4  5  2  0
  4 12  1  0
  5  6  1  0
  6  7  1  0
  7  8  2  0
  8  9  1  0
 10  9  2  0
 11 10  1  0
 12 11  2  0
 12  7  1  0
 13 19  1  0
 14 13  2  0
 16 15  1  1
 16 18  1  0
 17 16  1  0
 18 20  1  0
 18 19  1  1
 20 21  2  0
 20 27  1  0
 23 22  1  0
 23 24  1  0
 24 26  1  0
 24 25  1  1
 26 28  1  0
 26 27  1  6
 28 30  1  0
 29 28  2  0
M  END
$$$$
