WVI.pdb
     RDKit          3D

 30 31  0  0  1  0  0  0  0  0999 V2000
    6.1105  -17.3608   24.1350 N   0  0  0  0  0  0  0  0  0  0  0  0
    7.2806  -16.4995   24.3230 C   0  0  1  0  0  0  0  0  0  0  0  0
    7.3384  -16.0419   25.7671 C   0  0  0  0  0  0  0  0  0  0  0  0
    6.3214  -14.9683   25.9188 C   0  0  0  0  0  0  0  0  0  0  0  0
    5.0135  -15.0556   26.3172 C   0  0  0  0  0  0  0  0  0  0  0  0
    4.5007  -13.8249   26.2732 N   0  0  0  0  0  0  0  0  0  0  0  0
    5.4422  -12.9404   25.8605 C   0  0  0  0  0  0  0  0  0  0  0  0
    5.4219  -11.5651   25.6528 C   0  0  0  0  0  0  0  0  0  0  0  0
    6.5656  -10.8883   25.2176 C   0  0  0  0  0  0  0  0  0  0  0  0
    7.7097  -11.6175   25.0001 C   0  0  0  0  0  0  0  0  0  0  0  0
    7.7140  -12.9900   25.2090 C   0  0  0  0  0  0  0  0  0  0  0  0
    6.5916  -13.6361   25.6326 C   0  0  0  0  0  0  0  0  0  0  0  0
    8.4579  -17.2931   23.8979 C   0  0  0  0  0  0  0  0  0  0  0  0
    8.4835  -18.4790   24.1591 O   0  0  0  0  0  0  0  0  0  0  0  0
   10.7298  -15.8319   20.9582 C   0  0  0  0  0  0  0  0  0  0  0  0
   11.6270  -16.4676   21.9889 C   0  0  1  0  0  0  0  0  0  0  0  0
   12.1748  -15.2854   22.8067 C   0  0  0  0  0  0  0  0  0  0  0  0
   10.8460  -17.2948   23.0067 C   0  0  2  0  0  0  0  0  0  0  0  0
    9.5326  -16.7256   23.1965 N   0  0  0  0  0  0  0  0  0  0  0  0
   11.5462  -17.1370   24.3052 C   0  0  0  0  0  0  0  0  0  0  0  0
   12.7985  -17.4030   24.4072 O   0  0  0  0  0  0  0  0  0  0  0  0
   10.3728  -13.1474   27.6904 C   0  0  0  0  0  0  0  0  0  0  0  0
   11.0929  -14.2204   26.9648 C   0  0  0  0  0  0  0  0  0  0  0  0
   11.1184  -15.5733   27.5629 C   0  0  2  0  0  0  0  0  0  0  0  0
   11.7081  -15.4395   28.9701 C   0  0  0  0  0  0  0  0  0  0  0  0
   11.7390  -16.6650   26.7918 C   0  0  2  0  0  0  0  0  0  0  0  0
   10.9491  -16.6970   25.5098 N   0  0  0  0  0  0  0  0  0  0  0  0
   11.6271  -17.9948   27.3604 C   0  0  0  0  0  0  0  0  0  0  0  0
   10.5632  -18.7150   27.2792 O   0  0  0  0  0  0  0  0  0  0  0  0
   12.6671  -18.6306   28.0478 O   0  0  0  0  0  0  0  0  0  0  0  0
  2  1  1  1
  2 13  1  0
  2  3  1  0
  3  4  1  0
  4  5  2  0
  4 12  1  0
  5  6  1  0
  6  7  1  0
  7  8  2  0
  8  9  1  0
 10  9  2  0
 11 10  1  0
 12 11  2  0
 12  7  1  0
 13 19  1  0
 14 13  2  0
 16 15  1  6
 16 18  1  0
 17 16  1  0
 18 20  1  0
 18 19  1  1
 20 21  2  0
 20 27  1  0
 23 22  1  0
 23 24  1  0
 24 26  1  0
 24 25  1  1
 26 28  1  0
 26 27  1  6
 28 30  1  0
 29 28  2  0
M  END
$$$$
