WVI.pdb
     RDKit          3D

 30 31  0  0  1  0  0  0  0  0999 V2000
    5.4784  -17.5111   25.1061 N   0  0  0  0  0  0  0  0  0  0  0  0
    6.3192  -16.3272   24.9125 C   0  0  1  0  0  0  0  0  0  0  0  0
    6.7816  -15.8154   26.2625 C   0  0  0  0  0  0  0  0  0  0  0  0
    5.9957  -14.5863   26.5484 C   0  0  0  0  0  0  0  0  0  0  0  0
    4.6698  -14.4530   26.8663 C   0  0  0  0  0  0  0  0  0  0  0  0
    4.4235  -13.1497   27.0092 N   0  0  0  0  0  0  0  0  0  0  0  0
    5.5554  -12.4338   26.7963 C   0  0  0  0  0  0  0  0  0  0  0  0
    5.8322  -11.0709   26.8250 C   0  0  0  0  0  0  0  0  0  0  0  0
    7.1210  -10.5949   26.5638 C   0  0  0  0  0  0  0  0  0  0  0  0
    8.1063  -11.5088   26.2775 C   0  0  0  0  0  0  0  0  0  0  0  0
    7.8142  -12.8658   26.2497 C   0  0  0  0  0  0  0  0  0  0  0  0
    6.5535  -13.3149   26.5057 C   0  0  0  0  0  0  0  0  0  0  0  0
    7.4254  -16.7404   24.0170 C   0  0  0  0  0  0  0  0  0  0  0  0
    8.0511  -17.7444   24.2926 O   0  0  0  0  0  0  0  0  0  0  0  0
    7.5802  -15.3710   20.0703 C   0  0  0  0  0  0  0  0  0  0  0  0
    8.8733  -15.2576   20.8363 C   0  0  1  0  0  0  0  0  0  0  0  0
    8.8221  -13.8599   21.4768 C   0  0  0  0  0  0  0  0  0  0  0  0
    8.9276  -16.2114   22.0269 C   0  0  2  0  0  0  0  0  0  0  0  0
    7.7643  -16.0212   22.8607 N   0  0  0  0  0  0  0  0  0  0  0  0
   10.0882  -15.7924   22.8507 C   0  0  0  0  0  0  0  0  0  0  0  0
   10.3294  -14.5471   23.0517 O   0  0  0  0  0  0  0  0  0  0  0  0
   10.6481  -14.6437   27.3246 C   0  0  0  0  0  0  0  0  0  0  0  0
   10.9821  -14.8452   25.8949 C   0  0  0  0  0  0  0  0  0  0  0  0
   11.8808  -15.9650   25.5380 C   0  0  2  0  0  0  0  0  0  0  0  0
   13.0977  -15.8871   26.4648 C   0  0  0  0  0  0  0  0  0  0  0  0
   12.2579  -16.1327   24.1234 C   0  0  2  0  0  0  0  0  0  0  0  0
   11.0072  -16.6672   23.4764 N   0  0  0  0  0  0  0  0  0  0  0  0
   13.2953  -17.1086   23.8485 C   0  0  0  0  0  0  0  0  0  0  0  0
   13.0626  -18.3625   23.6728 O   0  0  0  0  0  0  0  0  0  0  0  0
   14.6520  -16.7834   23.7394 O   0  0  0  0  0  0  0  0  0  0  0  0
  2  1  1  1
  2 13  1  0
  2  3  1  0
  3  4  1  0
  4  5  2  0
  4 12  1  0
  5  6  1  0
  6  7  1  0
  7  8  2  0
  8  9  1  0
 10  9  2  0
 11 10  1  0
 12 11  2  0
 12  7  1  0
 13 19  1  0
 14 13  2  0
 16 15  1  1
 16 18  1  0
 17 16  1  0
 18 20  1  0
 18 19  1  1
 20 21  2  0
 20 27  1  0
 23 22  1  0
 23 24  1  0
 24 26  1  0
 24 25  1  1
 26 28  1  0
 26 27  1  6
 28 30  1  0
 29 28  2  0
M  END
$$$$
