WVI.pdb
     RDKit          3D

 30 31  0  0  1  0  0  0  0  0999 V2000
    5.7886  -18.2298   25.2287 N   0  0  0  0  0  0  0  0  0  0  0  0
    6.3537  -16.9012   24.9801 C   0  0  1  0  0  0  0  0  0  0  0  0
    6.8728  -16.3262   26.2833 C   0  0  0  0  0  0  0  0  0  0  0  0
    6.0982  -15.0845   26.5439 C   0  0  0  0  0  0  0  0  0  0  0  0
    4.7695  -14.9313   26.8403 C   0  0  0  0  0  0  0  0  0  0  0  0
    4.5374  -13.6236   26.9654 N   0  0  0  0  0  0  0  0  0  0  0  0
    5.6812  -12.9241   26.7619 C   0  0  0  0  0  0  0  0  0  0  0  0
    5.9747  -11.5645   26.7801 C   0  0  0  0  0  0  0  0  0  0  0  0
    7.2730  -11.1074   26.5332 C   0  0  0  0  0  0  0  0  0  0  0  0
    8.2510  -12.0365   26.2717 C   0  0  0  0  0  0  0  0  0  0  0  0
    7.9424  -13.3899   26.2541 C   0  0  0  0  0  0  0  0  0  0  0  0
    6.6724  -13.8206   26.4959 C   0  0  0  0  0  0  0  0  0  0  0  0
    7.3986  -17.0772   23.9440 C   0  0  0  0  0  0  0  0  0  0  0  0
    8.0595  -18.0963   23.9534 O   0  0  0  0  0  0  0  0  0  0  0  0
    8.5182  -13.6107   21.7902 C   0  0  0  0  0  0  0  0  0  0  0  0
    8.5626  -14.9201   21.0451 C   0  0  1  0  0  0  0  0  0  0  0  0
    9.8921  -14.8804   20.2723 C   0  0  0  0  0  0  0  0  0  0  0  0
    8.7117  -16.1158   21.9822 C   0  0  2  0  0  0  0  0  0  0  0  0
    7.6402  -16.1166   22.9501 N   0  0  0  0  0  0  0  0  0  0  0  0
    9.9565  -15.8917   22.7575 C   0  0  0  0  0  0  0  0  0  0  0  0
   10.7660  -14.9489   22.4330 O   0  0  0  0  0  0  0  0  0  0  0  0
   10.5836  -14.1382   28.0385 C   0  0  0  0  0  0  0  0  0  0  0  0
   11.3114  -14.5883   26.8286 C   0  0  0  0  0  0  0  0  0  0  0  0
   10.6658  -15.5963   25.9591 C   0  0  2  0  0  0  0  0  0  0  0  0
   10.1338  -16.7092   26.8671 C   0  0  0  0  0  0  0  0  0  0  0  0
   11.4293  -16.1195   24.8124 C   0  0  2  0  0  0  0  0  0  0  0  0
   10.3687  -16.6457   23.8813 N   0  0  0  0  0  0  0  0  0  0  0  0
   12.3088  -17.2400   25.0862 C   0  0  0  0  0  0  0  0  0  0  0  0
   11.9090  -18.4629   25.1295 O   0  0  0  0  0  0  0  0  0  0  0  0
   13.6813  -17.1044   25.3231 O   0  0  0  0  0  0  0  0  0  0  0  0
  2  1  1  1
  2 13  1  0
  2  3  1  0
  3  4  1  0
  4  5  2  0
  4 12  1  0
  5  6  1  0
  6  7  1  0
  7  8  2  0
  8  9  1  0
 10  9  2  0
 11 10  1  0
 12 11  2  0
 12  7  1  0
 13 19  1  0
 14 13  2  0
 16 15  1  1
 16 18  1  0
 17 16  1  0
 18 20  1  0
 18 19  1  1
 20 21  2  0
 20 27  1  0
 23 22  1  0
 23 24  1  0
 24 26  1  0
 24 25  1  1
 26 28  1  0
 26 27  1  6
 28 30  1  0
 29 28  2  0
M  END
$$$$
