WVI.pdb
     RDKit          3D

 30 31  0  0  1  0  0  0  0  0999 V2000
    8.5834  -16.6194   20.3799 N   0  0  0  0  0  0  0  0  0  0  0  0
    8.4865  -15.9665   21.6878 C   0  0  1  0  0  0  0  0  0  0  0  0
    7.1085  -15.3531   21.8402 C   0  0  0  0  0  0  0  0  0  0  0  0
    7.3041  -13.8859   21.9787 C   0  0  0  0  0  0  0  0  0  0  0  0
    7.6877  -12.9646   21.0401 C   0  0  0  0  0  0  0  0  0  0  0  0
    7.7448  -11.7779   21.6469 N   0  0  0  0  0  0  0  0  0  0  0  0
    7.4047  -11.9040   22.9536 C   0  0  0  0  0  0  0  0  0  0  0  0
    7.3059  -10.9904   23.9979 C   0  0  0  0  0  0  0  0  0  0  0  0
    6.9194  -11.4022   25.2773 C   0  0  0  0  0  0  0  0  0  0  0  0
    6.6404  -12.7329   25.4757 C   0  0  0  0  0  0  0  0  0  0  0  0
    6.7461  -13.6334   24.4244 C   0  0  0  0  0  0  0  0  0  0  0  0
    7.1246  -13.2177   23.1832 C   0  0  0  0  0  0  0  0  0  0  0  0
    8.7958  -17.0050   22.6988 C   0  0  0  0  0  0  0  0  0  0  0  0
    7.8862  -17.6859   23.1284 O   0  0  0  0  0  0  0  0  0  0  0  0
   11.3480  -19.8827   22.6863 C   0  0  0  0  0  0  0  0  0  0  0  0
   11.6869  -18.9544   23.8243 C   0  0  1  0  0  0  0  0  0  0  0  0
   12.6754  -17.9438   23.2177 C   0  0  0  0  0  0  0  0  0  0  0  0
   10.4955  -18.1005   24.2505 C   0  0  2  0  0  0  0  0  0  0  0  0
   10.0992  -17.2352   23.1647 N   0  0  0  0  0  0  0  0  0  0  0  0
   10.9834  -17.2021   25.3257 C   0  0  0  0  0  0  0  0  0  0  0  0
   11.9653  -16.4024   25.1118 O   0  0  0  0  0  0  0  0  0  0  0  0
    8.8666  -13.2320   27.1127 C   0  0  0  0  0  0  0  0  0  0  0  0
    9.8611  -14.3008   26.8580 C   0  0  0  0  0  0  0  0  0  0  0  0
   10.2086  -15.2120   27.9706 C   0  0  2  0  0  0  0  0  0  0  0  0
   10.6531  -14.3429   29.1509 C   0  0  0  0  0  0  0  0  0  0  0  0
   11.1438  -16.3181   27.6998 C   0  0  2  0  0  0  0  0  0  0  0  0
   10.4505  -17.1255   26.6340 N   0  0  0  0  0  0  0  0  0  0  0  0
   11.3866  -17.2348   28.7975 C   0  0  0  0  0  0  0  0  0  0  0  0
   12.4523  -17.2126   29.5192 O   0  0  0  0  0  0  0  0  0  0  0  0
   10.4831  -18.2301   29.1864 O   0  0  0  0  0  0  0  0  0  0  0  0
  2  1  1  6
  2 13  1  0
  2  3  1  0
  3  4  1  0
  4  5  2  0
  4 12  1  0
  5  6  1  0
  6  7  1  0
  7  8  2  0
  8  9  1  0
 10  9  2  0
 11 10  1  0
 12 11  2  0
 12  7  1  0
 13 19  1  0
 14 13  2  0
 16 15  1  6
 16 18  1  0
 17 16  1  0
 18 20  1  0
 18 19  1  6
 20 21  2  0
 20 27  1  0
 23 22  1  0
 23 24  1  0
 24 26  1  0
 24 25  1  1
 26 28  1  0
 26 27  1  6
 28 30  1  0
 29 28  2  0
M  END
$$$$
