EDH.pdb
     RDKit          3D

 28 28  0  0  1  0  0  0  0  0999 V2000
   20.4896  -13.0880  -16.6816 N   0  0  0  0  0  0  0  0  0  0  0  0
   19.4753  -12.0235  -16.6593 C   0  0  1  0  0  0  0  0  0  0  0  0
   18.2169  -12.7195  -16.1978 C   0  0  0  0  0  0  0  0  0  0  0  0
   17.6187  -13.6244  -17.2172 C   0  0  0  0  0  0  0  0  0  0  0  0
   16.3774  -14.2275  -16.6665 C   0  0  0  0  0  0  0  0  0  0  0  0
   16.0077  -14.0058  -15.4942 O   0  0  0  0  0  0  0  0  0  0  0  0
   19.8453  -11.0142  -15.6303 C   0  0  0  0  0  0  0  0  0  0  0  0
   20.2385  -11.3605  -14.5013 O   0  0  0  0  0  0  0  0  0  0  0  0
   15.6241  -15.0529  -17.4870 O   0  0  0  0  0  0  0  0  0  0  0  0
   19.7694   -9.5975  -15.8826 N   0  0  0  0  0  0  0  0  0  0  0  0
   20.0901   -8.6370  -14.8458 C   0  0  1  0  0  0  0  0  0  0  0  0
   20.4944   -7.3285  -15.4698 C   0  0  0  0  0  0  0  0  0  0  0  0
   21.8617   -7.4547  -16.0238 C   0  0  0  0  0  0  0  0  0  0  0  0
   22.1678   -6.9137  -17.1449 O   0  0  0  0  0  0  0  0  0  0  0  0
   18.8366   -8.3877  -14.0513 C   0  0  0  0  0  0  0  0  0  0  0  0
   17.7158   -8.2167  -14.5855 O   0  0  0  0  0  0  0  0  0  0  0  0
   22.9058   -8.1372  -15.4226 O   0  0  0  0  0  0  0  0  0  0  0  0
   18.8746   -8.3345  -12.6246 N   0  0  0  0  0  0  0  0  0  0  0  0
   17.7075   -8.0386  -11.8155 C   0  0  1  0  0  0  0  0  0  0  0  0
   17.9926   -8.2747  -10.3395 C   0  0  0  0  0  0  0  0  0  0  0  0
   16.8014   -7.8263   -9.5926 C   0  0  0  0  0  0  0  0  0  0  0  0
   15.6055   -8.5021   -9.5257 C   0  0  0  0  0  0  0  0  0  0  0  0
   14.8144   -7.7266   -8.7401 N   0  0  0  0  0  0  0  0  0  0  0  0
   15.5058   -6.6500   -8.3630 C   0  0  0  0  0  0  0  0  0  0  0  0
   16.7276   -6.6943   -8.8767 N   0  0  0  0  0  0  0  0  0  0  0  0
   17.3747   -6.5967  -12.0409 C   0  0  0  0  0  0  0  0  0  0  0  0
   16.0523   -6.1682  -12.0279 O   0  0  0  0  0  0  0  0  0  0  0  0
   18.2576   -5.7249  -12.2481 O   0  0  0  0  0  0  0  0  0  0  0  0
  2  1  1  1
  2  3  1  0
  4  5  1  0
  4  3  1  0
  5  6  2  0
  7  2  1  0
  8  7  2  0
  9  5  1  0
 10  7  1  0
 11 10  1  0
 11 12  1  6
 12 13  1  0
 13 17  1  0
 14 13  2  0
 15 16  2  0
 15 11  1  0
 18 15  1  0
 19 18  1  0
 19 20  1  1
 20 21  1  0
 21 22  2  0
 21 25  1  0
 22 23  1  0
 24 23  1  0
 25 24  2  0
 26 19  1  0
 27 26  1  0
 28 26  2  0
M  END
$$$$
