EDH.pdb
     RDKit          3D

 28 28  0  0  1  0  0  0  0  0999 V2000
   20.8032  -14.2707  -16.5769 N   0  0  0  0  0  0  0  0  0  0  0  0
   19.9992  -13.1780  -17.1444 C   0  0  1  0  0  0  0  0  0  0  0  0
   18.6960  -13.2424  -16.3837 C   0  0  0  0  0  0  0  0  0  0  0  0
   17.9270  -14.4970  -16.6083 C   0  0  0  0  0  0  0  0  0  0  0  0
   16.6701  -14.4474  -15.8174 C   0  0  0  0  0  0  0  0  0  0  0  0
   16.3703  -13.4494  -15.1287 O   0  0  0  0  0  0  0  0  0  0  0  0
   20.6494  -11.8765  -16.8317 C   0  0  0  0  0  0  0  0  0  0  0  0
   21.1070  -11.6416  -15.6983 O   0  0  0  0  0  0  0  0  0  0  0  0
   15.8217  -15.5432  -15.8565 O   0  0  0  0  0  0  0  0  0  0  0  0
   20.7829  -10.8299  -17.8131 N   0  0  0  0  0  0  0  0  0  0  0  0
   21.4650   -9.5915  -17.4948 C   0  0  1  0  0  0  0  0  0  0  0  0
   21.9428   -8.9322  -18.7605 C   0  0  0  0  0  0  0  0  0  0  0  0
   23.0726   -9.7097  -19.3184 C   0  0  0  0  0  0  0  0  0  0  0  0
   23.2061   -9.8564  -20.5849 O   0  0  0  0  0  0  0  0  0  0  0  0
   20.4613   -8.6682  -16.8585 C   0  0  0  0  0  0  0  0  0  0  0  0
   19.3453   -9.0595  -16.4434 O   0  0  0  0  0  0  0  0  0  0  0  0
   24.0580  -10.3326  -18.5711 O   0  0  0  0  0  0  0  0  0  0  0  0
   20.7463   -7.2780  -16.6985 N   0  0  0  0  0  0  0  0  0  0  0  0
   20.3027   -6.5093  -15.5511 C   0  0  1  0  0  0  0  0  0  0  0  0
   20.9010   -7.0563  -14.2633 C   0  0  0  0  0  0  0  0  0  0  0  0
   19.8535   -7.8649  -13.6101 C   0  0  0  0  0  0  0  0  0  0  0  0
   18.5568   -7.9900  -14.0509 C   0  0  0  0  0  0  0  0  0  0  0  0
   17.9650   -8.8181  -13.1518 N   0  0  0  0  0  0  0  0  0  0  0  0
   18.8639   -9.1639  -12.2289 C   0  0  0  0  0  0  0  0  0  0  0  0
   20.0288   -8.5882  -12.4941 N   0  0  0  0  0  0  0  0  0  0  0  0
   20.7649   -5.1015  -15.7642 C   0  0  0  0  0  0  0  0  0  0  0  0
   20.0087   -4.0330  -15.2965 O   0  0  0  0  0  0  0  0  0  0  0  0
   21.8361   -4.8265  -16.3637 O   0  0  0  0  0  0  0  0  0  0  0  0
  2  1  1  1
  2  3  1  0
  4  5  1  0
  4  3  1  0
  5  6  2  0
  7  2  1  0
  8  7  2  0
  9  5  1  0
 10  7  1  0
 11 10  1  0
 11 12  1  6
 12 13  1  0
 13 17  1  0
 14 13  2  0
 15 16  2  0
 15 11  1  0
 18 15  1  0
 19 18  1  0
 19 20  1  1
 20 21  1  0
 21 22  2  0
 21 25  1  0
 22 23  1  0
 24 23  1  0
 25 24  2  0
 26 19  1  0
 27 26  1  0
 28 26  2  0
M  END
$$$$
