EDH.pdb
     RDKit          3D

 28 28  0  0  1  0  0  0  0  0999 V2000
   16.6857  -13.4276  -14.8512 N   0  0  0  0  0  0  0  0  0  0  0  0
   17.7711  -13.5720  -15.8328 C   0  0  1  0  0  0  0  0  0  0  0  0
   17.0847  -14.1005  -17.0700 C   0  0  0  0  0  0  0  0  0  0  0  0
   16.5868  -15.4968  -16.9346 C   0  0  0  0  0  0  0  0  0  0  0  0
   16.0217  -15.9418  -18.2347 C   0  0  0  0  0  0  0  0  0  0  0  0
   16.6864  -15.8831  -19.2905 O   0  0  0  0  0  0  0  0  0  0  0  0
   18.3248  -12.2285  -16.1535 C   0  0  0  0  0  0  0  0  0  0  0  0
   19.2150  -12.0875  -17.0120 O   0  0  0  0  0  0  0  0  0  0  0  0
   14.7247  -16.4311  -18.2579 O   0  0  0  0  0  0  0  0  0  0  0  0
   17.8656  -11.0318  -15.4952 N   0  0  0  0  0  0  0  0  0  0  0  0
   18.3909   -9.7314  -15.8599 C   0  0  1  0  0  0  0  0  0  0  0  0
   17.5433   -8.6487  -15.2482 C   0  0  0  0  0  0  0  0  0  0  0  0
   18.0588   -7.3275  -15.6736 C   0  0  0  0  0  0  0  0  0  0  0  0
   18.6398   -6.5495  -14.8367 O   0  0  0  0  0  0  0  0  0  0  0  0
   19.7686   -9.6129  -15.2660 C   0  0  0  0  0  0  0  0  0  0  0  0
   20.0804  -10.1238  -14.1648 O   0  0  0  0  0  0  0  0  0  0  0  0
   17.9730   -6.8135  -16.9565 O   0  0  0  0  0  0  0  0  0  0  0  0
   20.7992   -8.8974  -15.9484 N   0  0  0  0  0  0  0  0  0  0  0  0
   22.1986   -8.9851  -15.5767 C   0  0  1  0  0  0  0  0  0  0  0  0
   22.9323   -9.9949  -16.4470 C   0  0  0  0  0  0  0  0  0  0  0  0
   24.3465   -9.9812  -16.0255 C   0  0  0  0  0  0  0  0  0  0  0  0
   24.8537  -10.6351  -14.9270 C   0  0  0  0  0  0  0  0  0  0  0  0
   26.1800  -10.3427  -14.9333 N   0  0  0  0  0  0  0  0  0  0  0  0
   26.4425   -9.5580  -15.9796 C   0  0  0  0  0  0  0  0  0  0  0  0
   25.3290   -9.3257  -16.6614 N   0  0  0  0  0  0  0  0  0  0  0  0
   22.7888   -7.6240  -15.7759 C   0  0  0  0  0  0  0  0  0  0  0  0
   23.9714   -7.2682  -15.1377 O   0  0  0  0  0  0  0  0  0  0  0  0
   22.2532   -6.7578  -16.5144 O   0  0  0  0  0  0  0  0  0  0  0  0
  2  1  1  1
  2  3  1  0
  4  5  1  0
  4  3  1  0
  5  6  2  0
  7  2  1  0
  8  7  2  0
  9  5  1  0
 10  7  1  0
 11 10  1  0
 11 12  1  1
 12 13  1  0
 13 17  1  0
 14 13  2  0
 15 16  2  0
 15 11  1  0
 18 15  1  0
 19 18  1  0
 19 20  1  6
 20 21  1  0
 21 22  2  0
 21 25  1  0
 22 23  1  0
 24 23  1  0
 25 24  2  0
 26 19  1  0
 27 26  1  0
 28 26  2  0
M  END
$$$$
