EDH.pdb
     RDKit          3D

 28 28  0  0  1  0  0  0  0  0999 V2000
   21.4202  -10.0041  -15.8020 N   0  0  0  0  0  0  0  0  0  0  0  0
   20.2418   -9.1372  -15.6520 C   0  0  1  0  0  0  0  0  0  0  0  0
   19.0689  -10.0810  -15.7734 C   0  0  0  0  0  0  0  0  0  0  0  0
   18.9144  -10.6814  -17.1267 C   0  0  0  0  0  0  0  0  0  0  0  0
   17.7636  -11.6213  -17.1153 C   0  0  0  0  0  0  0  0  0  0  0  0
   17.8269  -12.7385  -17.6702 O   0  0  0  0  0  0  0  0  0  0  0  0
   20.2275   -8.5613  -14.2800 C   0  0  0  0  0  0  0  0  0  0  0  0
   20.4233   -9.2759  -13.2799 O   0  0  0  0  0  0  0  0  0  0  0  0
   16.6003  -11.2327  -16.4690 O   0  0  0  0  0  0  0  0  0  0  0  0
   19.9889   -7.1610  -14.0378 N   0  0  0  0  0  0  0  0  0  0  0  0
   19.8745   -6.6463  -12.6879 C   0  0  1  0  0  0  0  0  0  0  0  0
   20.2721   -5.1952  -12.6595 C   0  0  0  0  0  0  0  0  0  0  0  0
   21.7475   -5.0927  -12.7314 C   0  0  0  0  0  0  0  0  0  0  0  0
   22.4943   -5.9484  -12.1368 O   0  0  0  0  0  0  0  0  0  0  0  0
   18.4246   -6.7227  -12.2919 C   0  0  0  0  0  0  0  0  0  0  0  0
   17.4911   -6.4016  -13.0641 O   0  0  0  0  0  0  0  0  0  0  0  0
   22.4464   -4.1108  -13.4131 O   0  0  0  0  0  0  0  0  0  0  0  0
   18.0455   -7.1742  -10.9911 N   0  0  0  0  0  0  0  0  0  0  0  0
   16.6625   -7.2918  -10.5695 C   0  0  1  0  0  0  0  0  0  0  0  0
   16.5668   -7.8804   -9.1695 C   0  0  0  0  0  0  0  0  0  0  0  0
   15.1372   -8.1328   -8.9040 C   0  0  0  0  0  0  0  0  0  0  0  0
   14.3533   -9.0409   -9.5765 C   0  0  0  0  0  0  0  0  0  0  0  0
   13.1276   -8.9307   -9.0021 N   0  0  0  0  0  0  0  0  0  0  0  0
   13.1842   -8.0069   -8.0415 C   0  0  0  0  0  0  0  0  0  0  0  0
   14.4100   -7.5064   -7.9670 N   0  0  0  0  0  0  0  0  0  0  0  0
   16.0854   -5.9106  -10.5768 C   0  0  0  0  0  0  0  0  0  0  0  0
   14.8002   -5.6862  -11.0570 O   0  0  0  0  0  0  0  0  0  0  0  0
   16.7233   -4.9106  -10.1577 O   0  0  0  0  0  0  0  0  0  0  0  0
  2  1  1  1
  2  3  1  0
  4  5  1  0
  4  3  1  0
  5  6  2  0
  7  2  1  0
  8  7  2  0
  9  5  1  0
 10  7  1  0
 11 10  1  0
 11 12  1  6
 12 13  1  0
 13 17  1  0
 14 13  2  0
 15 16  2  0
 15 11  1  0
 18 15  1  0
 19 18  1  0
 19 20  1  1
 20 21  1  0
 21 22  2  0
 21 25  1  0
 22 23  1  0
 24 23  1  0
 25 24  2  0
 26 19  1  0
 27 26  1  0
 28 26  2  0
M  END
$$$$
