EDH.pdb
     RDKit          3D

 28 28  0  0  1  0  0  0  0  0999 V2000
   21.0756  -12.9733  -16.6441 N   0  0  0  0  0  0  0  0  0  0  0  0
   20.4066  -11.8621  -17.3371 C   0  0  1  0  0  0  0  0  0  0  0  0
   19.0658  -12.4291  -17.7392 C   0  0  0  0  0  0  0  0  0  0  0  0
   19.1423  -13.4578  -18.8125 C   0  0  0  0  0  0  0  0  0  0  0  0
   19.3721  -12.7856  -20.1175 C   0  0  0  0  0  0  0  0  0  0  0  0
   19.0077  -11.6080  -20.3191 O   0  0  0  0  0  0  0  0  0  0  0  0
   20.1662  -10.7552  -16.3721 C   0  0  0  0  0  0  0  0  0  0  0  0
   19.6209  -10.9663  -15.2733 O   0  0  0  0  0  0  0  0  0  0  0  0
   20.0073  -13.4969  -21.1237 O   0  0  0  0  0  0  0  0  0  0  0  0
   20.5475   -9.3946  -16.6543 N   0  0  0  0  0  0  0  0  0  0  0  0
   20.4015   -8.3562  -15.6539 C   0  0  1  0  0  0  0  0  0  0  0  0
   21.6508   -7.5188  -15.6014 C   0  0  0  0  0  0  0  0  0  0  0  0
   21.4665   -6.4298  -14.6152 C   0  0  0  0  0  0  0  0  0  0  0  0
   20.9278   -6.6614  -13.4753 O   0  0  0  0  0  0  0  0  0  0  0  0
   19.2761   -7.4574  -16.0901 C   0  0  0  0  0  0  0  0  0  0  0  0
   19.1987   -6.9765  -17.2450 O   0  0  0  0  0  0  0  0  0  0  0  0
   21.8360   -5.1092  -14.8072 O   0  0  0  0  0  0  0  0  0  0  0  0
   18.2275   -7.1083  -15.1855 N   0  0  0  0  0  0  0  0  0  0  0  0
   17.1237   -6.2425  -15.5545 C   0  0  1  0  0  0  0  0  0  0  0  0
   15.9210   -6.4766  -14.6522 C   0  0  0  0  0  0  0  0  0  0  0  0
   14.8304   -5.6191  -15.1552 C   0  0  0  0  0  0  0  0  0  0  0  0
   14.8777   -4.8682  -16.3064 C   0  0  0  0  0  0  0  0  0  0  0  0
   13.6690   -4.2518  -16.3663 N   0  0  0  0  0  0  0  0  0  0  0  0
   12.9461   -4.6188  -15.3070 C   0  0  0  0  0  0  0  0  0  0  0  0
   13.6429   -5.4578  -14.5526 N   0  0  0  0  0  0  0  0  0  0  0  0
   17.6042   -4.8333  -15.3996 C   0  0  0  0  0  0  0  0  0  0  0  0
   18.7581   -4.5576  -14.6750 O   0  0  0  0  0  0  0  0  0  0  0  0
   16.9987   -3.8543  -15.9071 O   0  0  0  0  0  0  0  0  0  0  0  0
  2  1  1  1
  2  3  1  0
  4  5  1  0
  4  3  1  0
  5  6  2  0
  7  2  1  0
  8  7  2  0
  9  5  1  0
 10  7  1  0
 11 10  1  0
 11 12  1  6
 12 13  1  0
 13 17  1  0
 14 13  2  0
 15 16  2  0
 15 11  1  0
 18 15  1  0
 19 18  1  0
 19 20  1  1
 20 21  1  0
 21 22  2  0
 21 25  1  0
 22 23  1  0
 24 23  1  0
 25 24  2  0
 26 19  1  0
 27 26  1  0
 28 26  2  0
M  END
$$$$
