EDH.pdb
     RDKit          3D

 28 28  0  0  1  0  0  0  0  0999 V2000
   15.8356  -20.7710  -15.8453 N   0  0  0  0  0  0  0  0  0  0  0  0
   16.5591  -19.5068  -15.6427 C   0  0  1  0  0  0  0  0  0  0  0  0
   16.2251  -19.1114  -14.2238 C   0  0  0  0  0  0  0  0  0  0  0  0
   14.8464  -18.5762  -14.0547 C   0  0  0  0  0  0  0  0  0  0  0  0
   13.9637  -19.6550  -13.5400 C   0  0  0  0  0  0  0  0  0  0  0  0
   12.9631  -20.0417  -14.1799 O   0  0  0  0  0  0  0  0  0  0  0  0
   18.0233  -19.7620  -15.7155 C   0  0  0  0  0  0  0  0  0  0  0  0
   18.5005  -20.8674  -15.3997 O   0  0  0  0  0  0  0  0  0  0  0  0
   14.2728  -20.2349  -12.3192 O   0  0  0  0  0  0  0  0  0  0  0  0
   18.9573  -18.7547  -16.1508 N   0  0  0  0  0  0  0  0  0  0  0  0
   20.3427  -19.0869  -16.4163 C   0  0  1  0  0  0  0  0  0  0  0  0
   20.9848  -17.9904  -17.2227 C   0  0  0  0  0  0  0  0  0  0  0  0
   22.3756  -18.3779  -17.5514 C   0  0  0  0  0  0  0  0  0  0  0  0
   22.8690  -19.4797  -17.1202 O   0  0  0  0  0  0  0  0  0  0  0  0
   21.0583  -19.1501  -15.0939 C   0  0  0  0  0  0  0  0  0  0  0  0
   20.7242  -18.4545  -14.1062 O   0  0  0  0  0  0  0  0  0  0  0  0
   23.2511  -17.6300  -18.3205 O   0  0  0  0  0  0  0  0  0  0  0  0
   22.1717  -20.0248  -14.9070 N   0  0  0  0  0  0  0  0  0  0  0  0
   22.9677  -20.0394  -13.6944 C   0  0  1  0  0  0  0  0  0  0  0  0
   22.3623  -20.9717  -12.6553 C   0  0  0  0  0  0  0  0  0  0  0  0
   23.2574  -20.9502  -11.4822 C   0  0  0  0  0  0  0  0  0  0  0  0
   22.9380  -20.4307  -10.2495 C   0  0  0  0  0  0  0  0  0  0  0  0
   24.0492  -20.6273   -9.4937 N   0  0  0  0  0  0  0  0  0  0  0  0
   24.9757  -21.2308  -10.2400 C   0  0  0  0  0  0  0  0  0  0  0  0
   24.5072  -21.4368  -11.4634 N   0  0  0  0  0  0  0  0  0  0  0  0
   24.3319  -20.5248  -14.0741 C   0  0  0  0  0  0  0  0  0  0  0  0
   25.4292  -20.2451  -13.2678 O   0  0  0  0  0  0  0  0  0  0  0  0
   24.5436  -21.1939  -15.1181 O   0  0  0  0  0  0  0  0  0  0  0  0
  2  1  1  1
  2  3  1  0
  4  5  1  0
  4  3  1  0
  5  6  2  0
  7  2  1  0
  8  7  2  0
  9  5  1  0
 10  7  1  0
 11 10  1  0
 11 12  1  6
 12 13  1  0
 13 17  1  0
 14 13  2  0
 15 16  2  0
 15 11  1  0
 18 15  1  0
 19 18  1  0
 19 20  1  1
 20 21  1  0
 21 22  2  0
 21 25  1  0
 22 23  1  0
 24 23  1  0
 25 24  2  0
 26 19  1  0
 27 26  1  0
 28 26  2  0
M  END
$$$$
