EDH.pdb
     RDKit          3D

 28 28  0  0  1  0  0  0  0  0999 V2000
   17.2257  -12.7727  -15.4225 N   0  0  0  0  0  0  0  0  0  0  0  0
   17.3910  -12.2090  -16.7706 C   0  0  1  0  0  0  0  0  0  0  0  0
   16.0918  -12.5321  -17.4698 C   0  0  0  0  0  0  0  0  0  0  0  0
   14.8785  -12.1792  -16.6831 C   0  0  0  0  0  0  0  0  0  0  0  0
   14.1878  -13.4266  -16.2649 C   0  0  0  0  0  0  0  0  0  0  0  0
   14.0452  -13.7220  -15.0597 O   0  0  0  0  0  0  0  0  0  0  0  0
   17.5039  -10.7284  -16.6732 C   0  0  0  0  0  0  0  0  0  0  0  0
   17.7352  -10.0330  -17.6792 O   0  0  0  0  0  0  0  0  0  0  0  0
   13.6963  -14.2707  -17.2488 O   0  0  0  0  0  0  0  0  0  0  0  0
   17.3532  -10.0277  -15.4231 N   0  0  0  0  0  0  0  0  0  0  0  0
   17.4661   -8.5843  -15.3587 C   0  0  1  0  0  0  0  0  0  0  0  0
   16.7043   -8.0654  -14.1690 C   0  0  0  0  0  0  0  0  0  0  0  0
   15.2520   -8.1977  -14.4249 C   0  0  0  0  0  0  0  0  0  0  0  0
   14.7641   -7.9444  -15.5830 O   0  0  0  0  0  0  0  0  0  0  0  0
   18.9175   -8.2494  -15.1438 C   0  0  0  0  0  0  0  0  0  0  0  0
   19.5812   -8.6911  -14.1766 O   0  0  0  0  0  0  0  0  0  0  0  0
   14.3097   -8.5886  -13.4886 O   0  0  0  0  0  0  0  0  0  0  0  0
   19.6126   -7.3957  -16.0536 N   0  0  0  0  0  0  0  0  0  0  0  0
   21.0333   -7.1222  -15.9489 C   0  0  1  0  0  0  0  0  0  0  0  0
   21.6986   -7.1602  -17.3170 C   0  0  0  0  0  0  0  0  0  0  0  0
   23.1041   -6.7532  -17.1250 C   0  0  0  0  0  0  0  0  0  0  0  0
   24.1100   -7.5681  -16.6608 C   0  0  0  0  0  0  0  0  0  0  0  0
   25.2153   -6.7789  -16.6482 N   0  0  0  0  0  0  0  0  0  0  0  0
   24.8803   -5.5627  -17.0817 C   0  0  0  0  0  0  0  0  0  0  0  0
   23.5884   -5.5284  -17.3789 N   0  0  0  0  0  0  0  0  0  0  0  0
   21.1717   -5.7538  -15.3582 C   0  0  0  0  0  0  0  0  0  0  0  0
   22.2960   -5.4183  -14.6127 O   0  0  0  0  0  0  0  0  0  0  0  0
   20.2955   -4.8633  -15.5061 O   0  0  0  0  0  0  0  0  0  0  0  0
  2  1  1  1
  2  3  1  0
  4  5  1  0
  4  3  1  0
  5  6  2  0
  7  2  1  0
  8  7  2  0
  9  5  1  0
 10  7  1  0
 11 10  1  0
 11 12  1  1
 12 13  1  0
 13 17  1  0
 14 13  2  0
 15 16  2  0
 15 11  1  0
 18 15  1  0
 19 18  1  0
 19 20  1  6
 20 21  1  0
 21 22  2  0
 21 25  1  0
 22 23  1  0
 24 23  1  0
 25 24  2  0
 26 19  1  0
 27 26  1  0
 28 26  2  0
M  END
$$$$
