EDH.pdb
     RDKit          3D

 28 28  0  0  1  0  0  0  0  0999 V2000
   21.5288   -5.4698  -16.5794 N   0  0  0  0  0  0  0  0  0  0  0  0
   21.8641   -6.9015  -16.5918 C   0  0  1  0  0  0  0  0  0  0  0  0
   21.1687   -7.4561  -15.3712 C   0  0  0  0  0  0  0  0  0  0  0  0
   21.8093   -7.0709  -14.0839 C   0  0  0  0  0  0  0  0  0  0  0  0
   21.1784   -7.8349  -12.9767 C   0  0  0  0  0  0  0  0  0  0  0  0
   21.7760   -8.7711  -12.4052 O   0  0  0  0  0  0  0  0  0  0  0  0
   21.2587   -7.5372  -17.7934 C   0  0  0  0  0  0  0  0  0  0  0  0
   20.3448   -6.9772  -18.4263 O   0  0  0  0  0  0  0  0  0  0  0  0
   19.8958   -7.4871  -12.5814 O   0  0  0  0  0  0  0  0  0  0  0  0
   21.6930   -8.8207  -18.2838 N   0  0  0  0  0  0  0  0  0  0  0  0
   21.0937   -9.4098  -19.4645 C   0  0  1  0  0  0  0  0  0  0  0  0
   22.1678   -9.7774  -20.4525 C   0  0  0  0  0  0  0  0  0  0  0  0
   21.5370  -10.2994  -21.6862 C   0  0  0  0  0  0  0  0  0  0  0  0
   21.2924  -11.5507  -21.8191 O   0  0  0  0  0  0  0  0  0  0  0  0
   20.4148  -10.6852  -19.0436 C   0  0  0  0  0  0  0  0  0  0  0  0
   21.0207  -11.6209  -18.4707 O   0  0  0  0  0  0  0  0  0  0  0  0
   21.1623   -9.5320  -22.7763 O   0  0  0  0  0  0  0  0  0  0  0  0
   19.0215  -10.8852  -19.2854 N   0  0  0  0  0  0  0  0  0  0  0  0
   18.2246  -11.8498  -18.5515 C   0  0  1  0  0  0  0  0  0  0  0  0
   18.6479  -11.9093  -17.0911 C   0  0  0  0  0  0  0  0  0  0  0  0
   18.8047  -13.3352  -16.7448 C   0  0  0  0  0  0  0  0  0  0  0  0
   19.6661  -14.2119  -17.3619 C   0  0  0  0  0  0  0  0  0  0  0  0
   19.4715  -15.3943  -16.7227 N   0  0  0  0  0  0  0  0  0  0  0  0
   18.5445  -15.2254  -15.7785 C   0  0  0  0  0  0  0  0  0  0  0  0
   18.1239  -13.9678  -15.7774 N   0  0  0  0  0  0  0  0  0  0  0  0
   16.7998  -11.4005  -18.6461 C   0  0  0  0  0  0  0  0  0  0  0  0
   15.7639  -12.2690  -18.3222 O   0  0  0  0  0  0  0  0  0  0  0  0
   16.4811  -10.2409  -19.0153 O   0  0  0  0  0  0  0  0  0  0  0  0
  2  1  1  6
  2  3  1  0
  4  5  1  0
  4  3  1  0
  5  6  2  0
  7  2  1  0
  8  7  2  0
  9  5  1  0
 10  7  1  0
 11 10  1  0
 11 12  1  6
 12 13  1  0
 13 17  1  0
 14 13  2  0
 15 16  2  0
 15 11  1  0
 18 15  1  0
 19 18  1  0
 19 20  1  1
 20 21  1  0
 21 22  2  0
 21 25  1  0
 22 23  1  0
 24 23  1  0
 25 24  2  0
 26 19  1  0
 27 26  1  0
 28 26  2  0
M  END
$$$$
