EDH.pdb
     RDKit          3D

 28 28  0  0  1  0  0  0  0  0999 V2000
   21.0877  -11.8766  -16.6596 N   0  0  0  0  0  0  0  0  0  0  0  0
   21.8171  -10.6310  -16.9403 C   0  0  1  0  0  0  0  0  0  0  0  0
   21.9029  -10.5828  -18.4475 C   0  0  0  0  0  0  0  0  0  0  0  0
   22.7124  -11.6816  -19.0418 C   0  0  0  0  0  0  0  0  0  0  0  0
   22.6630  -11.5782  -20.5232 C   0  0  0  0  0  0  0  0  0  0  0  0
   22.1856  -12.4933  -21.2266 O   0  0  0  0  0  0  0  0  0  0  0  0
   21.0005   -9.4715  -16.4897 C   0  0  0  0  0  0  0  0  0  0  0  0
   19.7567   -9.5188  -16.4970 O   0  0  0  0  0  0  0  0  0  0  0  0
   23.1628  -10.4320  -21.1220 O   0  0  0  0  0  0  0  0  0  0  0  0
   21.5986   -8.2454  -16.0258 N   0  0  0  0  0  0  0  0  0  0  0  0
   20.7798   -7.1547  -15.5359 C   0  0  1  0  0  0  0  0  0  0  0  0
   21.3672   -6.6076  -14.2628 C   0  0  0  0  0  0  0  0  0  0  0  0
   21.0348   -7.5169  -13.1426 C   0  0  0  0  0  0  0  0  0  0  0  0
   21.9588   -8.0251  -12.4137 O   0  0  0  0  0  0  0  0  0  0  0  0
   20.8251   -6.0539  -16.5611 C   0  0  0  0  0  0  0  0  0  0  0  0
   21.8980   -5.5778  -17.0004 O   0  0  0  0  0  0  0  0  0  0  0  0
   19.7545   -7.8993  -12.7789 O   0  0  0  0  0  0  0  0  0  0  0  0
   19.6204   -5.4950  -17.0863 N   0  0  0  0  0  0  0  0  0  0  0  0
   19.6082   -4.3879  -18.0236 C   0  0  1  0  0  0  0  0  0  0  0  0
   18.3017   -4.3468  -18.8027 C   0  0  0  0  0  0  0  0  0  0  0  0
   18.3965   -3.2152  -19.7452 C   0  0  0  0  0  0  0  0  0  0  0  0
   19.3217   -3.0997  -20.7563 C   0  0  0  0  0  0  0  0  0  0  0  0
   19.0328   -1.9152  -21.3547 N   0  0  0  0  0  0  0  0  0  0  0  0
   17.9925   -1.3604  -20.7305 C   0  0  0  0  0  0  0  0  0  0  0  0
   17.5888   -2.1443  -19.7400 N   0  0  0  0  0  0  0  0  0  0  0  0
   19.7561   -3.1340  -17.2196 C   0  0  0  0  0  0  0  0  0  0  0  0
   20.5990   -2.1159  -17.6501 O   0  0  0  0  0  0  0  0  0  0  0  0
   19.1375   -2.9478  -16.1401 O   0  0  0  0  0  0  0  0  0  0  0  0
  2  1  1  6
  2  3  1  0
  4  5  1  0
  4  3  1  0
  5  6  2  0
  7  2  1  0
  8  7  2  0
  9  5  1  0
 10  7  1  0
 11 10  1  0
 11 12  1  1
 12 13  1  0
 13 17  1  0
 14 13  2  0
 15 16  2  0
 15 11  1  0
 18 15  1  0
 19 18  1  0
 19 20  1  1
 20 21  1  0
 21 22  2  0
 21 25  1  0
 22 23  1  0
 24 23  1  0
 25 24  2  0
 26 19  1  0
 27 26  1  0
 28 26  2  0
M  END
$$$$
