EDH.pdb
     RDKit          3D

 28 28  0  0  1  0  0  0  0  0999 V2000
   18.1824  -14.7234  -18.3783 N   0  0  0  0  0  0  0  0  0  0  0  0
   19.1205  -14.0549  -17.4643 C   0  0  1  0  0  0  0  0  0  0  0  0
   20.4428  -14.0981  -18.1929 C   0  0  0  0  0  0  0  0  0  0  0  0
   21.0646  -15.4499  -18.2362 C   0  0  0  0  0  0  0  0  0  0  0  0
   21.8557  -15.6633  -16.9967 C   0  0  0  0  0  0  0  0  0  0  0  0
   22.3730  -16.7695  -16.7339 O   0  0  0  0  0  0  0  0  0  0  0  0
   18.7261  -12.6281  -17.3131 C   0  0  0  0  0  0  0  0  0  0  0  0
   18.4555  -11.9266  -18.3050 O   0  0  0  0  0  0  0  0  0  0  0  0
   22.0133  -14.5988  -16.1225 O   0  0  0  0  0  0  0  0  0  0  0  0
   18.6371  -11.9886  -16.0248 N   0  0  0  0  0  0  0  0  0  0  0  0
   18.2721  -10.5909  -15.9094 C   0  0  1  0  0  0  0  0  0  0  0  0
   17.3090  -10.4076  -14.7676 C   0  0  0  0  0  0  0  0  0  0  0  0
   16.0715  -11.1713  -15.0465 C   0  0  0  0  0  0  0  0  0  0  0  0
   15.2956  -10.8342  -16.0095 O   0  0  0  0  0  0  0  0  0  0  0  0
   19.5199   -9.8198  -15.5731 C   0  0  0  0  0  0  0  0  0  0  0  0
   20.4686  -10.3132  -14.9195 O   0  0  0  0  0  0  0  0  0  0  0  0
   15.6386  -12.2763  -14.3330 O   0  0  0  0  0  0  0  0  0  0  0  0
   19.6766   -8.4642  -15.9945 N   0  0  0  0  0  0  0  0  0  0  0  0
   20.9134   -7.7248  -15.8275 C   0  0  1  0  0  0  0  0  0  0  0  0
   21.1204   -6.7420  -16.9707 C   0  0  0  0  0  0  0  0  0  0  0  0
   21.3334   -7.5405  -18.1933 C   0  0  0  0  0  0  0  0  0  0  0  0
   22.1845   -8.6155  -18.3010 C   0  0  0  0  0  0  0  0  0  0  0  0
   22.0559   -9.0298  -19.5880 N   0  0  0  0  0  0  0  0  0  0  0  0
   21.1759   -8.2418  -20.2077 C   0  0  0  0  0  0  0  0  0  0  0  0
   20.7220   -7.3220  -19.3671 N   0  0  0  0  0  0  0  0  0  0  0  0
   20.8043   -6.9789  -14.5342 C   0  0  0  0  0  0  0  0  0  0  0  0
   19.6400   -7.0462  -13.7777 O   0  0  0  0  0  0  0  0  0  0  0  0
   21.7415   -6.2719  -14.0821 O   0  0  0  0  0  0  0  0  0  0  0  0
  2  1  1  6
  2  3  1  0
  4  5  1  0
  4  3  1  0
  5  6  2  0
  7  2  1  0
  8  7  2  0
  9  5  1  0
 10  7  1  0
 11 10  1  0
 11 12  1  1
 12 13  1  0
 13 17  1  0
 14 13  2  0
 15 16  2  0
 15 11  1  0
 18 15  1  0
 19 18  1  0
 19 20  1  6
 20 21  1  0
 21 22  2  0
 21 25  1  0
 22 23  1  0
 24 23  1  0
 25 24  2  0
 26 19  1  0
 27 26  1  0
 28 26  2  0
M  END
$$$$
