EDH.pdb
     RDKit          3D

 28 28  0  0  1  0  0  0  0  0999 V2000
   41.6979  -10.8588   -4.4708 N   0  0  0  0  0  0  0  0  0  0  0  0
   42.6369  -10.1114   -5.3206 C   0  0  1  0  0  0  0  0  0  0  0  0
   42.0548  -10.2288   -6.7093 C   0  0  0  0  0  0  0  0  0  0  0  0
   40.6652   -9.7082   -6.8276 C   0  0  0  0  0  0  0  0  0  0  0  0
   40.1600   -9.9727   -8.1997 C   0  0  0  0  0  0  0  0  0  0  0  0
   39.4285  -10.9541   -8.4488 O   0  0  0  0  0  0  0  0  0  0  0  0
   42.6133   -8.6749   -4.9328 C   0  0  0  0  0  0  0  0  0  0  0  0
   41.6902   -8.2106   -4.2389 O   0  0  0  0  0  0  0  0  0  0  0  0
   40.5187   -9.0996   -9.2151 O   0  0  0  0  0  0  0  0  0  0  0  0
   43.6462   -7.7543   -5.3352 N   0  0  0  0  0  0  0  0  0  0  0  0
   43.6370   -6.3780   -4.8812 C   0  0  1  0  0  0  0  0  0  0  0  0
   44.9437   -5.7172   -5.2289 C   0  0  0  0  0  0  0  0  0  0  0  0
   44.9922   -4.3752   -4.6050 C   0  0  0  0  0  0  0  0  0  0  0  0
   44.6431   -4.2068   -3.3831 O   0  0  0  0  0  0  0  0  0  0  0  0
   42.5535   -5.6559   -5.6357 C   0  0  0  0  0  0  0  0  0  0  0  0
   42.0162   -6.1231   -6.6672 O   0  0  0  0  0  0  0  0  0  0  0  0
   45.3984   -3.2143   -5.2412 O   0  0  0  0  0  0  0  0  0  0  0  0
   42.0834   -4.3807   -5.1970 N   0  0  0  0  0  0  0  0  0  0  0  0
   40.6958   -4.1254   -4.8599 C   0  0  1  0  0  0  0  0  0  0  0  0
   40.1986   -5.1104   -3.8121 C   0  0  0  0  0  0  0  0  0  0  0  0
   38.7712   -4.8133   -3.5831 C   0  0  0  0  0  0  0  0  0  0  0  0
   38.0329   -3.8832   -4.2767 C   0  0  0  0  0  0  0  0  0  0  0  0
   36.7904   -3.9537   -3.7327 N   0  0  0  0  0  0  0  0  0  0  0  0
   36.7944   -4.8762   -2.7692 C   0  0  0  0  0  0  0  0  0  0  0  0
   38.0018   -5.4143   -2.6633 N   0  0  0  0  0  0  0  0  0  0  0  0
   40.6284   -2.7326   -4.3154 C   0  0  0  0  0  0  0  0  0  0  0  0
   39.6328   -1.8586   -4.7364 O   0  0  0  0  0  0  0  0  0  0  0  0
   41.4523   -2.2982   -3.4697 O   0  0  0  0  0  0  0  0  0  0  0  0
  2  1  1  1
  2  3  1  0
  4  5  1  0
  4  3  1  0
  5  6  2  0
  7  2  1  0
  8  7  2  0
  9  5  1  0
 10  7  1  0
 11 10  1  0
 11 12  1  6
 12 13  1  0
 13 17  1  0
 14 13  2  0
 15 16  2  0
 15 11  1  0
 18 15  1  0
 19 18  1  0
 19 20  1  1
 20 21  1  0
 21 22  2  0
 21 25  1  0
 22 23  1  0
 24 23  1  0
 25 24  2  0
 26 19  1  0
 27 26  1  0
 28 26  2  0
M  END
$$$$
