EDH.pdb
     RDKit          3D

 28 28  0  0  1  0  0  0  0  0999 V2000
   15.4818  -12.1695  -18.5432 N   0  0  0  0  0  0  0  0  0  0  0  0
   16.1609  -11.9120  -17.2646 C   0  0  1  0  0  0  0  0  0  0  0  0
   17.0517  -13.1158  -17.0685 C   0  0  0  0  0  0  0  0  0  0  0  0
   16.3504  -14.3000  -16.5013 C   0  0  0  0  0  0  0  0  0  0  0  0
   17.0580  -14.7442  -15.2725 C   0  0  0  0  0  0  0  0  0  0  0  0
   18.2101  -15.2243  -15.3194 O   0  0  0  0  0  0  0  0  0  0  0  0
   17.0325  -10.7139  -17.4041 C   0  0  0  0  0  0  0  0  0  0  0  0
   17.5537  -10.4208  -18.4957 O   0  0  0  0  0  0  0  0  0  0  0  0
   16.4094  -14.6152  -14.0540 O   0  0  0  0  0  0  0  0  0  0  0  0
   17.3168   -9.8383  -16.2956 N   0  0  0  0  0  0  0  0  0  0  0  0
   18.2088   -8.7065  -16.4487 C   0  0  1  0  0  0  0  0  0  0  0  0
   17.6529   -7.5156  -15.7155 C   0  0  0  0  0  0  0  0  0  0  0  0
   18.5108   -6.3377  -15.9780 C   0  0  0  0  0  0  0  0  0  0  0  0
   18.8419   -5.5427  -15.0285 O   0  0  0  0  0  0  0  0  0  0  0  0
   19.5170   -9.0650  -15.7968 C   0  0  0  0  0  0  0  0  0  0  0  0
   19.5919   -9.5417  -14.6400 O   0  0  0  0  0  0  0  0  0  0  0  0
   19.0224   -5.9836  -17.2151 O   0  0  0  0  0  0  0  0  0  0  0  0
   20.7533   -8.8722  -16.4853 N   0  0  0  0  0  0  0  0  0  0  0  0
   22.0361   -9.2485  -15.9223 C   0  0  1  0  0  0  0  0  0  0  0  0
   23.0582   -9.5092  -17.0191 C   0  0  0  0  0  0  0  0  0  0  0  0
   24.3043   -9.9382  -16.3549 C   0  0  0  0  0  0  0  0  0  0  0  0
   24.3947  -10.9171  -15.3932 C   0  0  0  0  0  0  0  0  0  0  0  0
   25.7145  -10.9693  -15.0770 N   0  0  0  0  0  0  0  0  0  0  0  0
   26.3690  -10.0694  -15.8126 C   0  0  0  0  0  0  0  0  0  0  0  0
   25.5194   -9.4271  -16.6028 N   0  0  0  0  0  0  0  0  0  0  0  0
   22.4908   -8.1049  -15.0702 C   0  0  0  0  0  0  0  0  0  0  0  0
   22.3994   -6.7985  -15.5365 O   0  0  0  0  0  0  0  0  0  0  0  0
   22.9665   -8.2699  -13.9173 O   0  0  0  0  0  0  0  0  0  0  0  0
  2  1  1  6
  2  3  1  0
  4  5  1  0
  4  3  1  0
  5  6  2  0
  7  2  1  0
  8  7  2  0
  9  5  1  0
 10  7  1  0
 11 10  1  0
 11 12  1  1
 12 13  1  0
 13 17  1  0
 14 13  2  0
 15 16  2  0
 15 11  1  0
 18 15  1  0
 19 18  1  0
 19 20  1  6
 20 21  1  0
 21 22  2  0
 21 25  1  0
 22 23  1  0
 24 23  1  0
 25 24  2  0
 26 19  1  0
 27 26  1  0
 28 26  2  0
M  END
$$$$
