EDH.pdb
     RDKit          3D

 28 28  0  0  1  0  0  0  0  0999 V2000
   15.0280  -12.9040  -14.2897 N   0  0  0  0  0  0  0  0  0  0  0  0
   16.3462  -13.1865  -14.8769 C   0  0  1  0  0  0  0  0  0  0  0  0
   16.0420  -14.0670  -16.0657 C   0  0  0  0  0  0  0  0  0  0  0  0
   15.7985  -15.4929  -15.7145 C   0  0  0  0  0  0  0  0  0  0  0  0
   14.4096  -15.6407  -15.2078 C   0  0  0  0  0  0  0  0  0  0  0  0
   13.4504  -15.0515  -15.7490 O   0  0  0  0  0  0  0  0  0  0  0  0
   16.9395  -11.9195  -15.3840 C   0  0  0  0  0  0  0  0  0  0  0  0
   18.0124  -11.9186  -16.0150 O   0  0  0  0  0  0  0  0  0  0  0  0
   14.1914  -16.4555  -14.1075 O   0  0  0  0  0  0  0  0  0  0  0  0
   16.3112  -10.6398  -15.1744 N   0  0  0  0  0  0  0  0  0  0  0  0
   16.9250   -9.4193  -15.6578 C   0  0  1  0  0  0  0  0  0  0  0  0
   15.9783   -8.2641  -15.4732 C   0  0  0  0  0  0  0  0  0  0  0  0
   16.5889   -7.0388  -16.0372 C   0  0  0  0  0  0  0  0  0  0  0  0
   16.5088   -5.9202  -15.4161 O   0  0  0  0  0  0  0  0  0  0  0  0
   18.1355   -9.1488  -14.8055 C   0  0  0  0  0  0  0  0  0  0  0  0
   18.3195   -9.6955  -13.6928 O   0  0  0  0  0  0  0  0  0  0  0  0
   17.2773   -6.9704  -17.2367 O   0  0  0  0  0  0  0  0  0  0  0  0
   19.1459   -8.2377  -15.2399 N   0  0  0  0  0  0  0  0  0  0  0  0
   20.5628   -8.4819  -15.0480 C   0  0  1  0  0  0  0  0  0  0  0  0
   20.9961   -9.7612  -15.7488 C   0  0  0  0  0  0  0  0  0  0  0  0
   22.4224   -9.9662  -15.4302 C   0  0  0  0  0  0  0  0  0  0  0  0
   23.0259   -9.6325  -14.2404 C   0  0  0  0  0  0  0  0  0  0  0  0
   24.3246   -9.9973  -14.3979 N   0  0  0  0  0  0  0  0  0  0  0  0
   24.4802  -10.5187  -15.6158 C   0  0  0  0  0  0  0  0  0  0  0  0
   23.3231  -10.5078  -16.2637 N   0  0  0  0  0  0  0  0  0  0  0  0
   21.2904   -7.3132  -15.6358 C   0  0  0  0  0  0  0  0  0  0  0  0
   22.3252   -6.7028  -14.9366 O   0  0  0  0  0  0  0  0  0  0  0  0
   21.0048   -6.8396  -16.7658 O   0  0  0  0  0  0  0  0  0  0  0  0
  2  1  1  6
  2  3  1  0
  4  5  1  0
  4  3  1  0
  5  6  2  0
  7  2  1  0
  8  7  2  0
  9  5  1  0
 10  7  1  0
 11 10  1  0
 11 12  1  1
 12 13  1  0
 13 17  1  0
 14 13  2  0
 15 16  2  0
 15 11  1  0
 18 15  1  0
 19 18  1  0
 19 20  1  6
 20 21  1  0
 21 22  2  0
 21 25  1  0
 22 23  1  0
 24 23  1  0
 25 24  2  0
 26 19  1  0
 27 26  1  0
 28 26  2  0
M  END
$$$$
