EDH.pdb
     RDKit          3D

 28 28  0  0  1  0  0  0  0  0999 V2000
   18.1982  -12.7677  -17.0417 N   0  0  0  0  0  0  0  0  0  0  0  0
   17.6292  -11.4165  -16.9275 C   0  0  1  0  0  0  0  0  0  0  0  0
   16.9558  -11.4105  -15.5756 C   0  0  0  0  0  0  0  0  0  0  0  0
   15.6817  -12.1791  -15.5321 C   0  0  0  0  0  0  0  0  0  0  0  0
   15.8833  -13.4135  -14.7299 C   0  0  0  0  0  0  0  0  0  0  0  0
   16.9872  -13.6826  -14.2111 O   0  0  0  0  0  0  0  0  0  0  0  0
   18.7336  -10.4198  -16.8947 C   0  0  0  0  0  0  0  0  0  0  0  0
   19.6676  -10.5208  -16.0782 O   0  0  0  0  0  0  0  0  0  0  0  0
   14.8102  -14.2754  -14.5636 O   0  0  0  0  0  0  0  0  0  0  0  0
   18.7809   -9.2966  -17.7961 N   0  0  0  0  0  0  0  0  0  0  0  0
   19.9321   -8.4170  -17.8320 C   0  0  1  0  0  0  0  0  0  0  0  0
   19.9745   -7.6854  -19.1465 C   0  0  0  0  0  0  0  0  0  0  0  0
   21.2026   -6.8603  -19.2056 C   0  0  0  0  0  0  0  0  0  0  0  0
   22.1130   -6.9741  -18.3104 O   0  0  0  0  0  0  0  0  0  0  0  0
   19.7529   -7.3865  -16.7499 C   0  0  0  0  0  0  0  0  0  0  0  0
   18.6631   -6.8045  -16.5392 O   0  0  0  0  0  0  0  0  0  0  0  0
   21.4869   -5.9225  -20.1839 O   0  0  0  0  0  0  0  0  0  0  0  0
   20.8418   -7.0222  -15.9007 N   0  0  0  0  0  0  0  0  0  0  0  0
   20.7336   -6.0043  -14.8730 C   0  0  1  0  0  0  0  0  0  0  0  0
   21.4244   -6.4469  -13.5914 C   0  0  0  0  0  0  0  0  0  0  0  0
   20.5475   -7.4463  -12.9512 C   0  0  0  0  0  0  0  0  0  0  0  0
   19.3668   -7.9182  -13.4754 C   0  0  0  0  0  0  0  0  0  0  0  0
   18.9116   -8.8072  -12.5550 N   0  0  0  0  0  0  0  0  0  0  0  0
   19.7770   -8.8580  -11.5412 C   0  0  0  0  0  0  0  0  0  0  0  0
   20.7874   -8.0292  -11.7671 N   0  0  0  0  0  0  0  0  0  0  0  0
   21.3989   -4.7738  -15.4060 C   0  0  0  0  0  0  0  0  0  0  0  0
   21.3919   -3.5941  -14.6708 O   0  0  0  0  0  0  0  0  0  0  0  0
   21.9827   -4.7513  -16.5201 O   0  0  0  0  0  0  0  0  0  0  0  0
  2  1  1  1
  2  3  1  0
  4  5  1  0
  4  3  1  0
  5  6  2  0
  7  2  1  0
  8  7  2  0
  9  5  1  0
 10  7  1  0
 11 10  1  0
 11 12  1  6
 12 13  1  0
 13 17  1  0
 14 13  2  0
 15 16  2  0
 15 11  1  0
 18 15  1  0
 19 18  1  0
 19 20  1  1
 20 21  1  0
 21 22  2  0
 21 25  1  0
 22 23  1  0
 24 23  1  0
 25 24  2  0
 26 19  1  0
 27 26  1  0
 28 26  2  0
M  END
$$$$
