VIP.pdb
     RDKit          3D

 23 23  0  0  1  0  0  0  0  0999 V2000
    7.6773  -19.7498   23.6109 C   0  0  0  0  0  0  0  0  0  0  0  0
    7.3317  -19.5750   25.0680 C   0  0  2  0  0  0  0  0  0  0  0  0
    7.3017  -20.9293   25.7086 C   0  0  0  0  0  0  0  0  0  0  0  0
    6.0333  -18.8317   25.2352 C   0  0  2  0  0  0  0  0  0  0  0  0
    4.9260  -19.5826   24.7324 N   0  0  0  0  0  0  0  0  0  0  0  0
    6.0844  -17.4664   24.6511 C   0  0  0  0  0  0  0  0  0  0  0  0
    5.4622  -17.2188   23.5889 O   0  0  0  0  0  0  0  0  0  0  0  0
    6.8703  -12.8651   27.7031 C   0  0  0  0  0  0  0  0  0  0  0  0
    6.2682  -13.7189   26.5608 C   0  0  0  0  0  0  0  0  0  0  0  0
    7.3865  -14.1403   25.7009 C   0  0  2  0  0  0  0  0  0  0  0  0
    8.1452  -12.9643   25.1021 C   0  0  0  0  0  0  0  0  0  0  0  0
    7.0550  -15.1207   24.5860 C   0  0  2  0  0  0  0  0  0  0  0  0
    6.8175  -16.4310   25.2599 N   0  0  0  0  0  0  0  0  0  0  0  0
    8.1785  -15.3841   23.6651 C   0  0  0  0  0  0  0  0  0  0  0  0
    9.0690  -16.2354   23.9899 O   0  0  0  0  0  0  0  0  0  0  0  0
    8.3509  -14.7542   22.4067 N   0  0  0  0  0  0  0  0  0  0  0  0
    7.5859  -13.6095   21.9392 C   0  0  0  0  0  0  0  0  0  0  0  0
    7.4396  -13.9128   20.4463 C   0  0  0  0  0  0  0  0  0  0  0  0
    8.8152  -14.4016   20.1170 C   0  0  0  0  0  0  0  0  0  0  0  0
    9.2784  -15.1161   21.3460 C   0  0  1  0  0  0  0  0  0  0  0  0
   10.6512  -14.7089   21.7317 C   0  0  0  0  0  0  0  0  0  0  0  0
   10.8742  -13.9482   22.7034 O   0  0  0  0  0  0  0  0  0  0  0  0
   11.7185  -15.1856   20.9931 O   0  0  0  0  0  0  0  0  0  0  0  0
  2  1  1  6
  2  3  1  0
  4  6  1  0
  4  2  1  0
  4  5  1  6
  6  7  2  0
  9  8  1  0
 10  9  1  0
 10 12  1  0
 10 11  1  6
 12 14  1  0
 13  6  1  0
 12 13  1  1
 14 16  1  0
 14 15  2  0
 16 17  1  0
 18 17  1  0
 19 18  1  0
 20 16  1  0
 20 19  1  0
 20 21  1  1
 22 21  2  0
 23 21  1  0
M  END
$$$$
