VIP.pdb
     RDKit          3D

 23 23  0  0  1  0  0  0  0  0999 V2000
    7.1580  -21.3178   25.6850 C   0  0  0  0  0  0  0  0  0  0  0  0
    7.1716  -19.9932   24.9651 C   0  0  2  0  0  0  0  0  0  0  0  0
    8.5417  -19.4012   25.0980 C   0  0  0  0  0  0  0  0  0  0  0  0
    6.0972  -19.0774   25.4876 C   0  0  2  0  0  0  0  0  0  0  0  0
    4.7971  -19.6550   25.3494 N   0  0  0  0  0  0  0  0  0  0  0  0
    6.1657  -17.7224   24.8819 C   0  0  0  0  0  0  0  0  0  0  0  0
    5.5773  -17.4940   23.7963 O   0  0  0  0  0  0  0  0  0  0  0  0
    6.6271  -12.9308   27.7649 C   0  0  0  0  0  0  0  0  0  0  0  0
    6.1413  -13.8693   26.6337 C   0  0  0  0  0  0  0  0  0  0  0  0
    7.3407  -14.3607   25.9354 C   0  0  2  0  0  0  0  0  0  0  0  0
    8.2154  -13.2347   25.4024 C   0  0  0  0  0  0  0  0  0  0  0  0
    7.1122  -15.3668   24.8174 C   0  0  2  0  0  0  0  0  0  0  0  0
    6.8783  -16.6756   25.4956 N   0  0  0  0  0  0  0  0  0  0  0  0
    8.2988  -15.6030   23.9712 C   0  0  0  0  0  0  0  0  0  0  0  0
    9.2128  -16.3913   24.3792 O   0  0  0  0  0  0  0  0  0  0  0  0
    8.5094  -15.0128   22.6995 N   0  0  0  0  0  0  0  0  0  0  0  0
    7.7701  -13.8737   22.1799 C   0  0  0  0  0  0  0  0  0  0  0  0
    7.6565  -14.2196   20.6934 C   0  0  0  0  0  0  0  0  0  0  0  0
    9.0335  -14.7339   20.4126 C   0  0  0  0  0  0  0  0  0  0  0  0
    9.4579  -15.4168   21.6731 C   0  0  1  0  0  0  0  0  0  0  0  0
   10.8258  -15.0143   22.0804 C   0  0  0  0  0  0  0  0  0  0  0  0
   11.8413  -15.3328   21.4172 O   0  0  0  0  0  0  0  0  0  0  0  0
   10.9831  -14.2627   23.2303 O   0  0  0  0  0  0  0  0  0  0  0  0
  2  1  1  1
  2  3  1  0
  4  6  1  0
  4  2  1  0
  4  5  1  6
  6  7  2  0
  9  8  1  0
 10  9  1  0
 10 12  1  0
 10 11  1  6
 12 14  1  0
 13  6  1  0
 12 13  1  1
 14 16  1  0
 14 15  2  0
 16 17  1  0
 18 17  1  0
 19 18  1  0
 20 16  1  0
 20 19  1  0
 20 21  1  1
 22 21  2  0
 23 21  1  0
M  END
$$$$
