VIP.pdb
     RDKit          3D

 23 23  0  0  1  0  0  0  0  0999 V2000
    8.1468  -19.7952   24.9283 C   0  0  0  0  0  0  0  0  0  0  0  0
    7.4414  -19.3793   26.1943 C   0  0  2  0  0  0  0  0  0  0  0  0
    7.3450  -20.5753   27.0920 C   0  0  0  0  0  0  0  0  0  0  0  0
    6.0952  -18.7756   25.8954 C   0  0  2  0  0  0  0  0  0  0  0  0
    5.2248  -19.7138   25.2590 N   0  0  0  0  0  0  0  0  0  0  0  0
    6.2019  -17.5107   25.1231 C   0  0  0  0  0  0  0  0  0  0  0  0
    5.8372  -17.4807   23.9219 O   0  0  0  0  0  0  0  0  0  0  0  0
    6.4388  -12.4899   27.6840 C   0  0  0  0  0  0  0  0  0  0  0  0
    5.9756  -13.5413   26.6465 C   0  0  0  0  0  0  0  0  0  0  0  0
    7.1751  -13.9871   25.9184 C   0  0  2  0  0  0  0  0  0  0  0  0
    7.9137  -12.8411   25.2415 C   0  0  0  0  0  0  0  0  0  0  0  0
    6.9786  -15.1030   24.9033 C   0  0  2  0  0  0  0  0  0  0  0  0
    6.7051  -16.3322   25.7045 N   0  0  0  0  0  0  0  0  0  0  0  0
    8.1940  -15.4342   24.1333 C   0  0  0  0  0  0  0  0  0  0  0  0
    9.0928  -16.1646   24.6641 O   0  0  0  0  0  0  0  0  0  0  0  0
    8.4493  -14.9994   22.8081 N   0  0  0  0  0  0  0  0  0  0  0  0
    7.7363  -13.9263   22.1344 C   0  0  0  0  0  0  0  0  0  0  0  0
    7.6663  -14.4448   20.6962 C   0  0  0  0  0  0  0  0  0  0  0  0
    9.0470  -14.9952   20.5223 C   0  0  0  0  0  0  0  0  0  0  0  0
    9.4260  -15.5264   21.8675 C   0  0  1  0  0  0  0  0  0  0  0  0
   10.7838  -15.0849   22.2681 C   0  0  0  0  0  0  0  0  0  0  0  0
   10.9694  -14.1963   23.1333 O   0  0  0  0  0  0  0  0  0  0  0  0
   11.8796  -15.6749   21.6655 O   0  0  0  0  0  0  0  0  0  0  0  0
  2  1  1  6
  2  3  1  0
  4  6  1  0
  4  2  1  0
  4  5  1  6
  6  7  2  0
  9  8  1  0
 10  9  1  0
 10 12  1  0
 10 11  1  6
 12 14  1  0
 13  6  1  0
 12 13  1  1
 14 16  1  0
 14 15  2  0
 16 17  1  0
 18 17  1  0
 19 18  1  0
 20 16  1  0
 20 19  1  0
 20 21  1  1
 22 21  2  0
 23 21  1  0
M  END
$$$$
