VIP.pdb
     RDKit          3D

 23 23  0  0  1  0  0  0  0  0999 V2000
    7.7524  -19.9356   24.2230 C   0  0  0  0  0  0  0  0  0  0  0  0
    7.2202  -19.6088   25.5953 C   0  0  2  0  0  0  0  0  0  0  0  0
    7.0845  -20.8887   26.3626 C   0  0  0  0  0  0  0  0  0  0  0  0
    5.9231  -18.8496   25.5107 C   0  0  2  0  0  0  0  0  0  0  0  0
    4.8913  -19.6320   24.9057 N   0  0  0  0  0  0  0  0  0  0  0  0
    6.0815  -17.5330   24.8404 C   0  0  0  0  0  0  0  0  0  0  0  0
    5.6830  -17.3827   23.6591 O   0  0  0  0  0  0  0  0  0  0  0  0
    6.5365  -12.6485   27.6579 C   0  0  0  0  0  0  0  0  0  0  0  0
    6.0512  -13.6524   26.5840 C   0  0  0  0  0  0  0  0  0  0  0  0
    7.2465  -14.1366   25.8739 C   0  0  2  0  0  0  0  0  0  0  0  0
    8.0884  -13.0066   25.2983 C   0  0  0  0  0  0  0  0  0  0  0  0
    7.0167  -15.1727   24.7840 C   0  0  2  0  0  0  0  0  0  0  0  0
    6.6714  -16.4374   25.4975 N   0  0  0  0  0  0  0  0  0  0  0  0
    8.2292  -15.5105   24.0122 C   0  0  0  0  0  0  0  0  0  0  0  0
    9.0741  -16.3304   24.4991 O   0  0  0  0  0  0  0  0  0  0  0  0
    8.5380  -14.9876   22.7310 N   0  0  0  0  0  0  0  0  0  0  0  0
    7.8741  -13.8493   22.1165 C   0  0  0  0  0  0  0  0  0  0  0  0
    7.8378  -14.2598   20.6427 C   0  0  0  0  0  0  0  0  0  0  0  0
    9.2093  -14.8334   20.4710 C   0  0  0  0  0  0  0  0  0  0  0  0
    9.5312  -15.4711   21.7844 C   0  0  1  0  0  0  0  0  0  0  0  0
   10.8859  -15.0969   22.2576 C   0  0  0  0  0  0  0  0  0  0  0  0
   11.0649  -14.2976   23.2071 O   0  0  0  0  0  0  0  0  0  0  0  0
   11.9862  -15.6498   21.6286 O   0  0  0  0  0  0  0  0  0  0  0  0
  2  1  1  6
  2  3  1  0
  4  6  1  0
  4  2  1  0
  4  5  1  6
  6  7  2  0
  9  8  1  0
 10  9  1  0
 10 12  1  0
 10 11  1  6
 12 14  1  0
 13  6  1  0
 12 13  1  1
 14 16  1  0
 14 15  2  0
 16 17  1  0
 18 17  1  0
 19 18  1  0
 20 16  1  0
 20 19  1  0
 20 21  1  1
 22 21  2  0
 23 21  1  0
M  END
$$$$
