VIP.pdb
     RDKit          3D

 23 23  0  0  1  0  0  0  0  0999 V2000
    7.4018  -21.3940   24.2015 C   0  0  0  0  0  0  0  0  0  0  0  0
    7.2413  -19.9862   23.6863 C   0  0  2  0  0  0  0  0  0  0  0  0
    8.5981  -19.3537   23.6195 C   0  0  0  0  0  0  0  0  0  0  0  0
    6.2823  -19.1993   24.5390 C   0  0  2  0  0  0  0  0  0  0  0  0
    4.9886  -19.8058   24.5769 N   0  0  0  0  0  0  0  0  0  0  0  0
    6.2098  -17.7707   24.1370 C   0  0  0  0  0  0  0  0  0  0  0  0
    5.4389  -17.4223   23.2091 O   0  0  0  0  0  0  0  0  0  0  0  0
    7.3299  -12.4336   26.7937 C   0  0  0  0  0  0  0  0  0  0  0  0
    6.9496  -13.0796   25.4393 C   0  0  0  0  0  0  0  0  0  0  0  0
    7.1594  -14.5302   25.5787 C   0  0  2  0  0  0  0  0  0  0  0  0
    8.4955  -14.8735   26.2222 C   0  0  0  0  0  0  0  0  0  0  0  0
    7.0015  -15.3645   24.3165 C   0  0  2  0  0  0  0  0  0  0  0  0
    6.9882  -16.7856   24.7725 N   0  0  0  0  0  0  0  0  0  0  0  0
    8.1555  -15.2881   23.3988 C   0  0  0  0  0  0  0  0  0  0  0  0
    9.1344  -16.0886   23.5546 O   0  0  0  0  0  0  0  0  0  0  0  0
    8.2658  -14.3744   22.3203 N   0  0  0  0  0  0  0  0  0  0  0  0
    7.4323  -13.1965   22.1414 C   0  0  0  0  0  0  0  0  0  0  0  0
    7.2668  -13.1521   20.6206 C   0  0  0  0  0  0  0  0  0  0  0  0
    8.6575  -13.4740   20.1713 C   0  0  0  0  0  0  0  0  0  0  0  0
    9.1855  -14.4279   21.1944 C   0  0  1  0  0  0  0  0  0  0  0  0
   10.5442  -14.0462   21.6496 C   0  0  0  0  0  0  0  0  0  0  0  0
   11.5561  -14.1847   20.9220 O   0  0  0  0  0  0  0  0  0  0  0  0
   10.6969  -13.5203   22.9193 O   0  0  0  0  0  0  0  0  0  0  0  0
  2  1  1  1
  2  3  1  0
  4  6  1  0
  4  2  1  0
  4  5  1  6
  6  7  2  0
  9  8  1  0
 10  9  1  0
 10 12  1  0
 10 11  1  6
 12 14  1  0
 13  6  1  0
 12 13  1  1
 14 16  1  0
 14 15  2  0
 16 17  1  0
 18 17  1  0
 19 18  1  0
 20 16  1  0
 20 19  1  0
 20 21  1  1
 22 21  2  0
 23 21  1  0
M  END
$$$$
