VIP.pdb
     RDKit          3D

 23 23  0  0  1  0  0  0  0  0999 V2000
    7.8360  -21.0010   24.8568 C   0  0  0  0  0  0  0  0  0  0  0  0
    7.5333  -19.6747   24.2068 C   0  0  2  0  0  0  0  0  0  0  0  0
    8.8333  -19.0133   23.8633 C   0  0  0  0  0  0  0  0  0  0  0  0
    6.6695  -18.8176   25.0930 C   0  0  2  0  0  0  0  0  0  0  0  0
    5.4094  -19.4365   25.3611 N   0  0  0  0  0  0  0  0  0  0  0  0
    6.5051  -17.4402   24.5605 C   0  0  0  0  0  0  0  0  0  0  0  0
    5.6422  -17.2118   23.6773 O   0  0  0  0  0  0  0  0  0  0  0  0
    6.9484  -12.9271   27.6238 C   0  0  0  0  0  0  0  0  0  0  0  0
    6.4187  -13.8739   26.5196 C   0  0  0  0  0  0  0  0  0  0  0  0
    7.5001  -14.0347   25.5334 C   0  0  2  0  0  0  0  0  0  0  0  0
    7.9540  -12.7107   24.9351 C   0  0  0  0  0  0  0  0  0  0  0  0
    7.2456  -15.0164   24.3995 C   0  0  2  0  0  0  0  0  0  0  0  0
    7.2965  -16.3720   25.0220 N   0  0  0  0  0  0  0  0  0  0  0  0
    8.3129  -15.0447   23.3797 C   0  0  0  0  0  0  0  0  0  0  0  0
    9.3465  -15.7638   23.5737 O   0  0  0  0  0  0  0  0  0  0  0  0
    8.2793  -14.3210   22.1609 N   0  0  0  0  0  0  0  0  0  0  0  0
    7.3289  -13.2663   21.8473 C   0  0  0  0  0  0  0  0  0  0  0  0
    7.0814  -13.4948   20.3544 C   0  0  0  0  0  0  0  0  0  0  0  0
    8.4714  -13.7681   19.8719 C   0  0  0  0  0  0  0  0  0  0  0  0
    9.1404  -14.4859   21.0001 C   0  0  1  0  0  0  0  0  0  0  0  0
   10.4782  -13.9176   21.2943 C   0  0  0  0  0  0  0  0  0  0  0  0
   10.6766  -13.1401   22.2579 O   0  0  0  0  0  0  0  0  0  0  0  0
   11.5399  -14.2585   20.4767 O   0  0  0  0  0  0  0  0  0  0  0  0
  2  1  1  1
  2  3  1  0
  4  6  1  0
  4  2  1  0
  4  5  1  6
  6  7  2  0
  9  8  1  0
 10  9  1  0
 10 12  1  0
 10 11  1  6
 12 14  1  0
 13  6  1  0
 12 13  1  1
 14 16  1  0
 14 15  2  0
 16 17  1  0
 18 17  1  0
 19 18  1  0
 20 16  1  0
 20 19  1  0
 20 21  1  1
 22 21  2  0
 23 21  1  0
M  END
$$$$
