VIP.pdb
     RDKit          3D

 23 23  0  0  1  0  0  0  0  0999 V2000
    8.4613  -19.7122   25.0347 C   0  0  0  0  0  0  0  0  0  0  0  0
    8.0283  -19.2397   26.3994 C   0  0  2  0  0  0  0  0  0  0  0  0
    8.1692  -20.3828   27.3580 C   0  0  0  0  0  0  0  0  0  0  0  0
    6.6284  -18.6872   26.3664 C   0  0  2  0  0  0  0  0  0  0  0  0
    5.6765  -19.6819   25.9827 N   0  0  0  0  0  0  0  0  0  0  0  0
    6.5218  -17.4678   25.5240 C   0  0  0  0  0  0  0  0  0  0  0  0
    5.9229  -17.5219   24.4216 O   0  0  0  0  0  0  0  0  0  0  0  0
    6.7880  -12.3490   27.7362 C   0  0  0  0  0  0  0  0  0  0  0  0
    6.2600  -13.4590   26.7952 C   0  0  0  0  0  0  0  0  0  0  0  0
    7.3803  -13.8584   25.9274 C   0  0  2  0  0  0  0  0  0  0  0  0
    7.9093  -12.7090   25.0812 C   0  0  0  0  0  0  0  0  0  0  0  0
    7.1446  -15.0578   25.0217 C   0  0  2  0  0  0  0  0  0  0  0  0
    7.0781  -16.2406   25.9295 N   0  0  0  0  0  0  0  0  0  0  0  0
    8.2724  -15.3571   24.1171 C   0  0  0  0  0  0  0  0  0  0  0  0
    9.2860  -15.9855   24.5655 O   0  0  0  0  0  0  0  0  0  0  0  0
    8.3202  -14.9985   22.7462 N   0  0  0  0  0  0  0  0  0  0  0  0
    7.4105  -14.0668   22.0994 C   0  0  0  0  0  0  0  0  0  0  0  0
    7.2396  -14.6980   20.7156 C   0  0  0  0  0  0  0  0  0  0  0  0
    8.6477  -15.1011   20.4086 C   0  0  0  0  0  0  0  0  0  0  0  0
    9.2393  -15.4823   21.7277 C   0  0  1  0  0  0  0  0  0  0  0  0
   10.5708  -14.8617   21.9308 C   0  0  0  0  0  0  0  0  0  0  0  0
   10.7391  -13.8723   22.6825 O   0  0  0  0  0  0  0  0  0  0  0  0
   11.6608  -15.3944   21.2675 O   0  0  0  0  0  0  0  0  0  0  0  0
  2  1  1  6
  2  3  1  0
  4  6  1  0
  4  2  1  0
  4  5  1  6
  6  7  2  0
  9  8  1  0
 10  9  1  0
 10 12  1  0
 10 11  1  6
 12 14  1  0
 13  6  1  0
 12 13  1  1
 14 16  1  0
 14 15  2  0
 16 17  1  0
 18 17  1  0
 19 18  1  0
 20 16  1  0
 20 19  1  0
 20 21  1  1
 22 21  2  0
 23 21  1  0
M  END
$$$$
