VIP.pdb
     RDKit          3D

 23 23  0  0  1  0  0  0  0  0999 V2000
    9.3229  -17.5223   21.7864 C   0  0  0  0  0  0  0  0  0  0  0  0
    7.9484  -16.9090   21.6986 C   0  0  2  0  0  0  0  0  0  0  0  0
    7.2640  -17.4635   20.4863 C   0  0  0  0  0  0  0  0  0  0  0  0
    8.0222  -15.4056   21.6791 C   0  0  2  0  0  0  0  0  0  0  0  0
    8.7292  -14.9260   20.5332 N   0  0  0  0  0  0  0  0  0  0  0  0
    8.5764  -14.8505   22.9410 C   0  0  0  0  0  0  0  0  0  0  0  0
    9.7700  -14.4623   22.9805 O   0  0  0  0  0  0  0  0  0  0  0  0
    5.3089  -11.9636   26.2753 C   0  0  0  0  0  0  0  0  0  0  0  0
    6.5517  -12.3594   25.4416 C   0  0  0  0  0  0  0  0  0  0  0  0
    7.1407  -13.5472   26.0817 C   0  0  2  0  0  0  0  0  0  0  0  0
    7.5093  -13.3095   27.5393 C   0  0  0  0  0  0  0  0  0  0  0  0
    8.3325  -14.1782   25.3777 C   0  0  2  0  0  0  0  0  0  0  0  0
    7.7946  -14.7456   24.1063 N   0  0  0  0  0  0  0  0  0  0  0  0
    8.8987  -15.3440   26.0850 C   0  0  0  0  0  0  0  0  0  0  0  0
    8.3827  -16.4955   25.9086 O   0  0  0  0  0  0  0  0  0  0  0  0
   10.0079  -15.2886   26.9663 N   0  0  0  0  0  0  0  0  0  0  0  0
   10.5962  -14.0642   27.4848 C   0  0  0  0  0  0  0  0  0  0  0  0
   12.0851  -14.4166   27.5194 C   0  0  0  0  0  0  0  0  0  0  0  0
   12.0369  -15.8121   28.0576 C   0  0  0  0  0  0  0  0  0  0  0  0
   10.7786  -16.3993   27.5034 C   0  0  1  0  0  0  0  0  0  0  0  0
    9.9869  -17.0871   28.5518 C   0  0  0  0  0  0  0  0  0  0  0  0
    8.9517  -16.5813   29.0469 O   0  0  0  0  0  0  0  0  0  0  0  0
   10.4070  -18.3273   28.9961 O   0  0  0  0  0  0  0  0  0  0  0  0
  2  1  1  6
  2  3  1  0
  4  6  1  0
  4  2  1  0
  4  5  1  6
  6  7  2  0
  9  8  1  0
 10  9  1  0
 10 12  1  0
 10 11  1  1
 12 14  1  0
 13  6  1  0
 12 13  1  6
 14 16  1  0
 14 15  2  0
 16 17  1  0
 18 17  1  0
 19 18  1  0
 20 16  1  0
 20 19  1  0
 20 21  1  1
 22 21  2  0
 23 21  1  0
M  END
$$$$
