VIP.pdb
     RDKit          3D

 23 23  0  0  1  0  0  0  0  0999 V2000
    7.8049  -20.9495   26.2050 C   0  0  0  0  0  0  0  0  0  0  0  0
    7.6506  -19.7275   25.3355 C   0  0  2  0  0  0  0  0  0  0  0  0
    8.9542  -18.9885   25.3298 C   0  0  0  0  0  0  0  0  0  0  0  0
    6.5054  -18.8683   25.8004 C   0  0  2  0  0  0  0  0  0  0  0  0
    5.2601  -19.5668   25.7352 N   0  0  0  0  0  0  0  0  0  0  0  0
    6.4466  -17.5684   25.0831 C   0  0  0  0  0  0  0  0  0  0  0  0
    5.8565  -17.4924   23.9773 O   0  0  0  0  0  0  0  0  0  0  0  0
    6.6385  -12.6028   27.6906 C   0  0  0  0  0  0  0  0  0  0  0  0
    6.1623  -13.6369   26.6417 C   0  0  0  0  0  0  0  0  0  0  0  0
    7.3455  -14.0385   25.8630 C   0  0  2  0  0  0  0  0  0  0  0  0
    8.0323  -12.8614   25.1849 C   0  0  0  0  0  0  0  0  0  0  0  0
    7.1399  -15.1383   24.8323 C   0  0  2  0  0  0  0  0  0  0  0  0
    7.0392  -16.4069   25.6122 N   0  0  0  0  0  0  0  0  0  0  0  0
    8.2984  -15.3502   23.9419 C   0  0  0  0  0  0  0  0  0  0  0  0
    9.2847  -16.0452   24.3511 O   0  0  0  0  0  0  0  0  0  0  0  0
    8.4053  -14.8345   22.6256 N   0  0  0  0  0  0  0  0  0  0  0  0
    7.5526  -13.7970   22.0683 C   0  0  0  0  0  0  0  0  0  0  0  0
    7.4054  -14.2529   20.6148 C   0  0  0  0  0  0  0  0  0  0  0  0
    8.8073  -14.6734   20.3029 C   0  0  0  0  0  0  0  0  0  0  0  0
    9.3399  -15.2313   21.5838 C   0  0  1  0  0  0  0  0  0  0  0  0
   10.6856  -14.6931   21.8980 C   0  0  0  0  0  0  0  0  0  0  0  0
   10.8655  -13.8124   22.7723 O   0  0  0  0  0  0  0  0  0  0  0  0
   11.7761  -15.1811   21.2018 O   0  0  0  0  0  0  0  0  0  0  0  0
  2  1  1  1
  2  3  1  0
  4  6  1  0
  4  2  1  0
  4  5  1  6
  6  7  2  0
  9  8  1  0
 10  9  1  0
 10 12  1  0
 10 11  1  6
 12 14  1  0
 13  6  1  0
 12 13  1  1
 14 16  1  0
 14 15  2  0
 16 17  1  0
 18 17  1  0
 19 18  1  0
 20 16  1  0
 20 19  1  0
 20 21  1  1
 22 21  2  0
 23 21  1  0
M  END
$$$$
