VIP.pdb
     RDKit          3D

 23 23  0  0  1  0  0  0  0  0999 V2000
    7.9761  -19.9185   24.1933 C   0  0  0  0  0  0  0  0  0  0  0  0
    7.8282  -19.6252   25.6648 C   0  0  2  0  0  0  0  0  0  0  0  0
    8.0065  -20.9078   26.4189 C   0  0  0  0  0  0  0  0  0  0  0  0
    6.5079  -18.9648   25.9592 C   0  0  2  0  0  0  0  0  0  0  0  0
    5.4089  -19.8397   25.6957 N   0  0  0  0  0  0  0  0  0  0  0  0
    6.3577  -17.6639   25.2571 C   0  0  0  0  0  0  0  0  0  0  0  0
    5.6184  -17.5830   24.2453 O   0  0  0  0  0  0  0  0  0  0  0  0
    6.9091  -12.6990   27.7644 C   0  0  0  0  0  0  0  0  0  0  0  0
    6.3094  -13.7312   26.7788 C   0  0  0  0  0  0  0  0  0  0  0  0
    7.3927  -14.1399   25.8694 C   0  0  2  0  0  0  0  0  0  0  0  0
    7.9873  -12.9703   25.0977 C   0  0  0  0  0  0  0  0  0  0  0  0
    7.0704  -15.2549   24.8860 C   0  0  2  0  0  0  0  0  0  0  0  0
    7.0267  -16.5069   25.6974 N   0  0  0  0  0  0  0  0  0  0  0  0
    8.1330  -15.5034   23.8915 C   0  0  0  0  0  0  0  0  0  0  0  0
    9.0826  -16.3039   24.1755 O   0  0  0  0  0  0  0  0  0  0  0  0
    8.1827  -14.9124   22.6038 N   0  0  0  0  0  0  0  0  0  0  0  0
    7.3721  -13.7836   22.1762 C   0  0  0  0  0  0  0  0  0  0  0  0
    7.0864  -14.1330   20.7139 C   0  0  0  0  0  0  0  0  0  0  0  0
    8.4266  -14.6300   20.2707 C   0  0  0  0  0  0  0  0  0  0  0  0
    9.0071  -15.3056   21.4715 C   0  0  1  0  0  0  0  0  0  0  0  0
   10.4086  -14.8849   21.7128 C   0  0  0  0  0  0  0  0  0  0  0  0
   11.3489  -15.2293   20.9580 O   0  0  0  0  0  0  0  0  0  0  0  0
   10.6840  -14.0863   22.8075 O   0  0  0  0  0  0  0  0  0  0  0  0
  2  1  1  6
  2  3  1  0
  4  6  1  0
  4  2  1  0
  4  5  1  6
  6  7  2  0
  9  8  1  0
 10  9  1  0
 10 12  1  0
 10 11  1  6
 12 14  1  0
 13  6  1  0
 12 13  1  1
 14 16  1  0
 14 15  2  0
 16 17  1  0
 18 17  1  0
 19 18  1  0
 20 16  1  0
 20 19  1  0
 20 21  1  1
 22 21  2  0
 23 21  1  0
M  END
$$$$
