VIP.pdb
     RDKit          3D

 23 23  0  0  1  0  0  0  0  0999 V2000
    7.4122  -21.7849   24.9492 C   0  0  0  0  0  0  0  0  0  0  0  0
    7.1845  -20.4318   24.3243 C   0  0  2  0  0  0  0  0  0  0  0  0
    8.5174  -19.7760   24.1271 C   0  0  0  0  0  0  0  0  0  0  0  0
    6.2511  -19.5959   25.1586 C   0  0  2  0  0  0  0  0  0  0  0  0
    4.9593  -20.1973   25.2696 N   0  0  0  0  0  0  0  0  0  0  0  0
    6.1665  -18.1926   24.6776 C   0  0  0  0  0  0  0  0  0  0  0  0
    5.4230  -17.9102   23.7059 O   0  0  0  0  0  0  0  0  0  0  0  0
    7.0599  -12.7339   27.0826 C   0  0  0  0  0  0  0  0  0  0  0  0
    6.5713  -13.5229   25.8436 C   0  0  0  0  0  0  0  0  0  0  0  0
    7.1874  -14.8584   25.9114 C   0  0  2  0  0  0  0  0  0  0  0  0
    8.6826  -14.8042   26.1913 C   0  0  0  0  0  0  0  0  0  0  0  0
    6.9504  -15.7776   24.7227 C   0  0  2  0  0  0  0  0  0  0  0  0
    6.9029  -17.1591   25.2856 N   0  0  0  0  0  0  0  0  0  0  0  0
    8.0701  -15.8154   23.7611 C   0  0  0  0  0  0  0  0  0  0  0  0
    8.9965  -16.6771   23.9112 O   0  0  0  0  0  0  0  0  0  0  0  0
    8.2011  -14.9503   22.6455 N   0  0  0  0  0  0  0  0  0  0  0  0
    7.3957  -13.7614   22.4175 C   0  0  0  0  0  0  0  0  0  0  0  0
    7.2299  -13.7765   20.8962 C   0  0  0  0  0  0  0  0  0  0  0  0
    8.6122  -14.1498   20.4609 C   0  0  0  0  0  0  0  0  0  0  0  0
    9.1183  -15.0725   21.5230 C   0  0  1  0  0  0  0  0  0  0  0  0
   10.4861  -14.7045   21.9620 C   0  0  0  0  0  0  0  0  0  0  0  0
   10.7044  -14.1230   23.0513 O   0  0  0  0  0  0  0  0  0  0  0  0
   11.5541  -15.0146   21.1403 O   0  0  0  0  0  0  0  0  0  0  0  0
  2  1  1  1
  2  3  1  0
  4  6  1  0
  4  2  1  0
  4  5  1  6
  6  7  2  0
  9  8  1  0
 10  9  1  0
 10 12  1  0
 10 11  1  6
 12 14  1  0
 13  6  1  0
 12 13  1  1
 14 16  1  0
 14 15  2  0
 16 17  1  0
 18 17  1  0
 19 18  1  0
 20 16  1  0
 20 19  1  0
 20 21  1  1
 22 21  2  0
 23 21  1  0
M  END
$$$$
