TFY.pdb
     RDKit          3D

 31 32  0  0  1  0  0  0  0  0999 V2000
   22.5738   -9.6804  -22.1002 C   0  0  0  0  0  0  0  0  0  0  0  0
   22.1947   -9.2720  -20.6940 C   0  0  1  0  0  0  0  0  0  0  0  0
   20.9533   -9.8452  -20.3697 O   0  0  0  0  0  0  0  0  0  0  0  0
   23.2654   -9.7560  -19.7090 C   0  0  2  0  0  0  0  0  0  0  0  0
   23.1385  -11.2071  -19.6559 N   0  0  0  0  0  0  0  0  0  0  0  0
   22.8940   -9.2254  -18.3698 C   0  0  0  0  0  0  0  0  0  0  0  0
   22.0869   -9.8670  -17.6421 O   0  0  0  0  0  0  0  0  0  0  0  0
   23.4169   -8.0038  -17.8614 N   0  0  0  0  0  0  0  0  0  0  0  0
   23.0611   -7.4374  -16.5919 C   0  0  1  0  0  0  0  0  0  0  0  0
   24.2485   -7.2120  -15.6947 C   0  0  0  0  0  0  0  0  0  0  0  0
   25.0758   -8.3985  -15.4900 C   0  0  0  0  0  0  0  0  0  0  0  0
   24.7065   -9.3713  -14.5874 C   0  0  0  0  0  0  0  0  0  0  0  0
   25.4888  -10.5099  -14.3827 C   0  0  0  0  0  0  0  0  0  0  0  0
   26.6611  -10.6980  -15.0803 C   0  0  0  0  0  0  0  0  0  0  0  0
   27.0335   -9.7277  -15.9834 C   0  0  0  0  0  0  0  0  0  0  0  0
   26.2489   -8.5992  -16.1798 C   0  0  0  0  0  0  0  0  0  0  0  0
   22.1975   -6.2364  -16.7171 C   0  0  0  0  0  0  0  0  0  0  0  0
   22.7009   -5.2318  -17.2832 O   0  0  0  0  0  0  0  0  0  0  0  0
   21.2940   -4.0813  -22.7625 O   0  0  0  0  0  0  0  0  0  0  0  0
   20.7708   -4.3770  -21.5289 C   0  0  0  0  0  0  0  0  0  0  0  0
   20.6965   -5.6785  -21.1116 C   0  0  0  0  0  0  0  0  0  0  0  0
   20.1664   -5.9586  -19.8654 C   0  0  0  0  0  0  0  0  0  0  0  0
   19.7068   -4.9952  -19.0176 C   0  0  0  0  0  0  0  0  0  0  0  0
   19.1245   -5.2369  -17.6838 C   0  0  0  0  0  0  0  0  0  0  0  0
   20.0546   -4.9773  -16.5420 C   0  0  2  0  0  0  0  0  0  0  0  0
   20.8740   -6.1564  -16.2490 N   0  0  0  0  0  0  0  0  0  0  0  0
   19.3123   -4.6509  -15.3069 C   0  0  0  0  0  0  0  0  0  0  0  0
   19.3737   -5.4226  -14.3269 O   0  0  0  0  0  0  0  0  0  0  0  0
   19.7841   -3.6674  -19.4463 C   0  0  0  0  0  0  0  0  0  0  0  0
   20.3125   -3.3919  -20.6873 C   0  0  0  0  0  0  0  0  0  0  0  0
   18.5462   -3.5158  -15.1922 O   0  0  0  0  0  0  0  0  0  0  0  0
  2  1  1  6
  2  3  1  0
  4  2  1  0
  4  5  1  1
  6  4  1  0
  6  7  2  0
  8  6  1  0
  9  8  1  0
  9 10  1  6
 11 10  1  0
 11 12  2  0
 13 12  1  0
 14 13  2  0
 15 16  2  0
 15 14  1  0
 16 11  1  0
 17  9  1  0
 18 17  2  0
 19 20  1  0
 20 30  2  0
 20 21  1  0
 21 22  2  0
 22 23  1  0
 23 24  1  0
 25 24  1  6
 25 27  1  0
 25 26  1  0
 26 17  1  0
 27 31  1  0
 28 27  2  0
 29 23  2  0
 30 29  1  0
M  END
$$$$
