TFY.pdb
     RDKit          3D

 31 32  0  0  1  0  0  0  0  0999 V2000
   26.9433  -21.8571  -18.8655 C   0  0  0  0  0  0  0  0  0  0  0  0
   28.3329  -22.4520  -18.9215 C   0  0  1  0  0  0  0  0  0  0  0  0
   28.9022  -22.1683  -20.1746 O   0  0  0  0  0  0  0  0  0  0  0  0
   29.1979  -21.8500  -17.8079 C   0  0  2  0  0  0  0  0  0  0  0  0
   30.4520  -22.5928  -17.8248 N   0  0  0  0  0  0  0  0  0  0  0  0
   28.5174  -22.1510  -16.5199 C   0  0  0  0  0  0  0  0  0  0  0  0
   28.6164  -23.3018  -16.0114 O   0  0  0  0  0  0  0  0  0  0  0  0
   27.7445  -21.1823  -15.8207 N   0  0  0  0  0  0  0  0  0  0  0  0
   27.0439  -21.4376  -14.5948 C   0  0  1  0  0  0  0  0  0  0  0  0
   27.0613  -20.2644  -13.6519 C   0  0  0  0  0  0  0  0  0  0  0  0
   26.3400  -20.4922  -12.4022 C   0  0  0  0  0  0  0  0  0  0  0  0
   25.0386  -20.0674  -12.2491 C   0  0  0  0  0  0  0  0  0  0  0  0
   24.3384  -20.2790  -11.0595 C   0  0  0  0  0  0  0  0  0  0  0  0
   24.9294  -20.9227   -9.9952 C   0  0  0  0  0  0  0  0  0  0  0  0
   26.2301  -21.3488  -10.1446 C   0  0  0  0  0  0  0  0  0  0  0  0
   26.9179  -21.1336  -11.3313 C   0  0  0  0  0  0  0  0  0  0  0  0
   25.6798  -21.9819  -14.8119 C   0  0  0  0  0  0  0  0  0  0  0  0
   24.9351  -21.3481  -15.6036 O   0  0  0  0  0  0  0  0  0  0  0  0
   18.6860  -27.2890  -15.5359 O   0  0  0  0  0  0  0  0  0  0  0  0
   19.8945  -26.7476  -15.1763 C   0  0  0  0  0  0  0  0  0  0  0  0
   20.0913  -26.3033  -13.8967 C   0  0  0  0  0  0  0  0  0  0  0  0
   21.3153  -25.7604  -13.5513 C   0  0  0  0  0  0  0  0  0  0  0  0
   22.3519  -25.6416  -14.4286 C   0  0  0  0  0  0  0  0  0  0  0  0
   23.6732  -25.0636  -14.1178 C   0  0  0  0  0  0  0  0  0  0  0  0
   23.8363  -23.6320  -14.5178 C   0  0  2  0  0  0  0  0  0  0  0  0
   25.1798  -23.1429  -14.1961 N   0  0  0  0  0  0  0  0  0  0  0  0
   22.8788  -22.7616  -13.8046 C   0  0  0  0  0  0  0  0  0  0  0  0
   23.1320  -22.3888  -12.6398 O   0  0  0  0  0  0  0  0  0  0  0  0
   22.1481  -26.0962  -15.7342 C   0  0  0  0  0  0  0  0  0  0  0  0
   20.9284  -26.6362  -16.0747 C   0  0  0  0  0  0  0  0  0  0  0  0
   21.7043  -22.3401  -14.3802 O   0  0  0  0  0  0  0  0  0  0  0  0
  2  1  1  6
  2  3  1  0
  4  2  1  0
  4  5  1  1
  6  4  1  0
  6  7  2  0
  8  6  1  0
  9  8  1  0
  9 10  1  6
 11 10  1  0
 11 12  2  0
 13 12  1  0
 14 13  2  0
 15 16  2  0
 15 14  1  0
 16 11  1  0
 17  9  1  0
 18 17  2  0
 19 20  1  0
 20 30  2  0
 20 21  1  0
 21 22  2  0
 22 23  1  0
 23 24  1  0
 25 24  1  1
 25 27  1  0
 25 26  1  0
 26 17  1  0
 27 31  1  0
 28 27  2  0
 29 23  2  0
 30 29  1  0
M  END
$$$$
