TFY.pdb
     RDKit          3D

 31 32  0  0  1  0  0  0  0  0999 V2000
   28.7734  -17.7685  -14.8349 C   0  0  0  0  0  0  0  0  0  0  0  0
   27.6676  -18.6780  -14.3469 C   0  0  1  0  0  0  0  0  0  0  0  0
   26.9515  -19.1631  -15.4544 O   0  0  0  0  0  0  0  0  0  0  0  0
   28.2704  -19.8493  -13.5625 C   0  0  2  0  0  0  0  0  0  0  0  0
   28.8435  -20.7484  -14.5564 N   0  0  0  0  0  0  0  0  0  0  0  0
   27.1390  -20.5639  -12.9129 C   0  0  0  0  0  0  0  0  0  0  0  0
   26.7403  -21.6657  -13.3816 O   0  0  0  0  0  0  0  0  0  0  0  0
   26.4722  -20.0526  -11.7646 N   0  0  0  0  0  0  0  0  0  0  0  0
   25.3694  -20.7001  -11.1139 C   0  0  1  0  0  0  0  0  0  0  0  0
   25.1665  -20.2346   -9.6970 C   0  0  0  0  0  0  0  0  0  0  0  0
   26.3531  -20.3547   -8.8535 C   0  0  0  0  0  0  0  0  0  0  0  0
   27.3247  -21.2916   -9.1287 C   0  0  0  0  0  0  0  0  0  0  0  0
   28.4634  -21.4164   -8.3300 C   0  0  0  0  0  0  0  0  0  0  0  0
   28.6530  -20.6024   -7.2355 C   0  0  0  0  0  0  0  0  0  0  0  0
   27.6840  -19.6647   -6.9573 C   0  0  0  0  0  0  0  0  0  0  0  0
   26.5553  -19.5484   -7.7575 C   0  0  0  0  0  0  0  0  0  0  0  0
   24.1215  -20.6615  -11.9173 C   0  0  0  0  0  0  0  0  0  0  0  0
   23.8354  -19.5676  -12.4692 O   0  0  0  0  0  0  0  0  0  0  0  0
   16.9285  -22.9426  -16.5743 O   0  0  0  0  0  0  0  0  0  0  0  0
   18.1027  -22.9240  -15.8645 C   0  0  0  0  0  0  0  0  0  0  0  0
   19.1879  -22.2493  -16.3552 C   0  0  0  0  0  0  0  0  0  0  0  0
   20.3634  -22.2409  -15.6269 C   0  0  0  0  0  0  0  0  0  0  0  0
   20.5026  -22.8774  -14.4295 C   0  0  0  0  0  0  0  0  0  0  0  0
   21.7328  -22.9091  -13.6158 C   0  0  0  0  0  0  0  0  0  0  0  0
   22.0553  -21.6229  -12.9246 C   0  0  2  0  0  0  0  0  0  0  0  0
   23.2559  -21.7553  -12.0946 N   0  0  0  0  0  0  0  0  0  0  0  0
   20.9572  -21.2030  -12.0296 C   0  0  0  0  0  0  0  0  0  0  0  0
   20.9430  -21.5940  -10.8435 O   0  0  0  0  0  0  0  0  0  0  0  0
   19.3929  -23.5652  -13.9311 C   0  0  0  0  0  0  0  0  0  0  0  0
   18.2242  -23.5715  -14.6585 C   0  0  0  0  0  0  0  0  0  0  0  0
   19.9366  -20.3877  -12.4566 O   0  0  0  0  0  0  0  0  0  0  0  0
  2  1  1  6
  2  3  1  0
  4  2  1  0
  4  5  1  6
  6  4  1  0
  6  7  2  0
  8  6  1  0
  9  8  1  0
  9 10  1  1
 11 10  1  0
 11 12  2  0
 13 12  1  0
 14 13  2  0
 15 16  2  0
 15 14  1  0
 16 11  1  0
 17  9  1  0
 18 17  2  0
 19 20  1  0
 20 30  2  0
 20 21  1  0
 21 22  2  0
 22 23  1  0
 23 24  1  0
 25 24  1  1
 25 27  1  0
 25 26  1  0
 26 17  1  0
 27 31  1  0
 28 27  2  0
 29 23  2  0
 30 29  1  0
M  END
$$$$
