TFY.pdb
     RDKit          3D

 31 32  0  0  1  0  0  0  0  0999 V2000
   21.8109  -22.0122  -14.5884 C   0  0  0  0  0  0  0  0  0  0  0  0
   20.7566  -21.1262  -13.9628 C   0  0  1  0  0  0  0  0  0  0  0  0
   19.4854  -21.5857  -14.3471 O   0  0  0  0  0  0  0  0  0  0  0  0
   20.8862  -21.1682  -12.4356 C   0  0  2  0  0  0  0  0  0  0  0  0
   19.9041  -20.2220  -11.9210 N   0  0  0  0  0  0  0  0  0  0  0  0
   22.2354  -20.6388  -12.1004 C   0  0  0  0  0  0  0  0  0  0  0  0
   22.4834  -19.4108  -12.2520 O   0  0  0  0  0  0  0  0  0  0  0  0
   23.2799  -21.4695  -11.6070 N   0  0  0  0  0  0  0  0  0  0  0  0
   24.6321  -21.0346  -11.4038 C   0  0  1  0  0  0  0  0  0  0  0  0
   25.3747  -21.8722  -10.3977 C   0  0  0  0  0  0  0  0  0  0  0  0
   26.6539  -21.3058   -9.9772 C   0  0  0  0  0  0  0  0  0  0  0  0
   26.7172  -20.3803   -8.9589 C   0  0  0  0  0  0  0  0  0  0  0  0
   27.9337  -19.8314   -8.5479 C   0  0  0  0  0  0  0  0  0  0  0  0
   29.1159  -20.1995   -9.1505 C   0  0  0  0  0  0  0  0  0  0  0  0
   29.0567  -21.1243  -10.1687 C   0  0  0  0  0  0  0  0  0  0  0  0
   27.8422  -21.6643  -10.5702 C   0  0  0  0  0  0  0  0  0  0  0  0
   25.3803  -20.8624  -12.6745 C   0  0  0  0  0  0  0  0  0  0  0  0
   25.2647  -21.7780  -13.5298 O   0  0  0  0  0  0  0  0  0  0  0  0
   29.5146  -17.1474  -19.5868 O   0  0  0  0  0  0  0  0  0  0  0  0
   28.9582  -17.4060  -18.3594 C   0  0  0  0  0  0  0  0  0  0  0  0
   27.5981  -17.4856  -18.2281 C   0  0  0  0  0  0  0  0  0  0  0  0
   27.0541  -17.7469  -16.9839 C   0  0  0  0  0  0  0  0  0  0  0  0
   27.8097  -17.9320  -15.8644 C   0  0  0  0  0  0  0  0  0  0  0  0
   27.2838  -18.2039  -14.5132 C   0  0  0  0  0  0  0  0  0  0  0  0
   26.7500  -19.5873  -14.3196 C   0  0  2  0  0  0  0  0  0  0  0  0
   26.1958  -19.7567  -12.9735 N   0  0  0  0  0  0  0  0  0  0  0  0
   27.8128  -20.6013  -14.4785 C   0  0  0  0  0  0  0  0  0  0  0  0
   28.5961  -20.8288  -13.5327 O   0  0  0  0  0  0  0  0  0  0  0  0
   29.1980  -17.8503  -16.0016 C   0  0  0  0  0  0  0  0  0  0  0  0
   29.7362  -17.5902  -17.2417 C   0  0  0  0  0  0  0  0  0  0  0  0
   27.9759  -21.3140  -15.6421 O   0  0  0  0  0  0  0  0  0  0  0  0
  2  1  1  6
  2  3  1  0
  4  2  1  0
  4  5  1  1
  6  4  1  0
  6  7  2  0
  8  6  1  0
  9  8  1  0
  9 10  1  1
 11 10  1  0
 11 12  2  0
 13 12  1  0
 14 13  2  0
 15 16  2  0
 15 14  1  0
 16 11  1  0
 17  9  1  0
 18 17  2  0
 19 20  1  0
 20 30  2  0
 20 21  1  0
 21 22  2  0
 22 23  1  0
 23 24  1  0
 25 24  1  1
 25 27  1  0
 25 26  1  0
 26 17  1  0
 27 31  1  0
 28 27  2  0
 29 23  2  0
 30 29  1  0
M  END
$$$$
