TFY.pdb
     RDKit          3D

 31 32  0  0  1  0  0  0  0  0999 V2000
   27.1420  -18.8156  -15.6843 C   0  0  0  0  0  0  0  0  0  0  0  0
   27.4178  -20.1482  -16.3446 C   0  0  1  0  0  0  0  0  0  0  0  0
   27.8457  -19.9253  -17.6644 O   0  0  0  0  0  0  0  0  0  0  0  0
   28.5044  -20.8967  -15.5638 C   0  0  2  0  0  0  0  0  0  0  0  0
   28.6415  -22.1969  -16.2083 N   0  0  0  0  0  0  0  0  0  0  0  0
   27.9714  -21.1303  -14.1948 C   0  0  0  0  0  0  0  0  0  0  0  0
   26.9902  -21.9058  -14.0270 O   0  0  0  0  0  0  0  0  0  0  0  0
   28.5278  -20.5073  -13.0429 N   0  0  0  0  0  0  0  0  0  0  0  0
   27.9977  -20.6391  -11.7161 C   0  0  1  0  0  0  0  0  0  0  0  0
   28.8817  -20.0225  -10.6654 C   0  0  0  0  0  0  0  0  0  0  0  0
   28.3228  -20.0630   -9.3163 C   0  0  0  0  0  0  0  0  0  0  0  0
   27.5238  -19.0421   -8.8506 C   0  0  0  0  0  0  0  0  0  0  0  0
   26.9837  -19.0690   -7.5631 C   0  0  0  0  0  0  0  0  0  0  0  0
   27.2337  -20.1228   -6.7126 C   0  0  0  0  0  0  0  0  0  0  0  0
   28.0319  -21.1452   -7.1745 C   0  0  0  0  0  0  0  0  0  0  0  0
   28.5642  -21.1092   -8.4563 C   0  0  0  0  0  0  0  0  0  0  0  0
   26.5845  -20.1960  -11.6124 C   0  0  0  0  0  0  0  0  0  0  0  0
   26.3037  -19.0738  -12.1073 O   0  0  0  0  0  0  0  0  0  0  0  0
   17.9593  -19.9081  -12.6304 O   0  0  0  0  0  0  0  0  0  0  0  0
   19.2959  -20.2018  -12.5302 C   0  0  0  0  0  0  0  0  0  0  0  0
   20.2264  -19.3360  -13.0385 C   0  0  0  0  0  0  0  0  0  0  0  0
   21.5693  -19.6476  -12.9290 C   0  0  0  0  0  0  0  0  0  0  0  0
   22.0236  -20.7868  -12.3339 C   0  0  0  0  0  0  0  0  0  0  0  0
   23.4408  -21.1734  -12.1973 C   0  0  0  0  0  0  0  0  0  0  0  0
   24.1677  -20.4910  -11.0829 C   0  0  2  0  0  0  0  0  0  0  0  0
   25.5597  -20.9428  -11.0048 N   0  0  0  0  0  0  0  0  0  0  0  0
   23.5456  -20.7845   -9.7753 C   0  0  0  0  0  0  0  0  0  0  0  0
   24.0591  -21.6408   -9.0251 O   0  0  0  0  0  0  0  0  0  0  0  0
   21.0714  -21.6686  -11.8157 C   0  0  0  0  0  0  0  0  0  0  0  0
   19.7354  -21.3554  -11.9263 C   0  0  0  0  0  0  0  0  0  0  0  0
   22.4083  -20.1436   -9.3459 O   0  0  0  0  0  0  0  0  0  0  0  0
  2  1  1  1
  2  3  1  0
  4  2  1  0
  4  5  1  6
  6  4  1  0
  6  7  2  0
  8  6  1  0
  9  8  1  0
  9 10  1  1
 11 10  1  0
 11 12  2  0
 13 12  1  0
 14 13  2  0
 15 16  2  0
 15 14  1  0
 16 11  1  0
 17  9  1  0
 18 17  2  0
 19 20  1  0
 20 30  2  0
 20 21  1  0
 21 22  2  0
 22 23  1  0
 23 24  1  0
 25 24  1  6
 25 27  1  0
 25 26  1  0
 26 17  1  0
 27 31  1  0
 28 27  2  0
 29 23  2  0
 30 29  1  0
M  END
$$$$
