TFY.pdb
     RDKit          3D

 31 32  0  0  1  0  0  0  0  0999 V2000
   28.5371  -19.6767  -17.7507 C   0  0  0  0  0  0  0  0  0  0  0  0
   27.9942  -20.0207  -16.3815 C   0  0  1  0  0  0  0  0  0  0  0  0
   26.6711  -20.4749  -16.5144 O   0  0  0  0  0  0  0  0  0  0  0  0
   28.8587  -21.1139  -15.7425 C   0  0  2  0  0  0  0  0  0  0  0  0
   28.6134  -22.3255  -16.5150 N   0  0  0  0  0  0  0  0  0  0  0  0
   28.3264  -21.3419  -14.3723 C   0  0  0  0  0  0  0  0  0  0  0  0
   27.3869  -22.1651  -14.1927 O   0  0  0  0  0  0  0  0  0  0  0  0
   28.8377  -20.6613  -13.2322 N   0  0  0  0  0  0  0  0  0  0  0  0
   28.3031  -20.7885  -11.9067 C   0  0  1  0  0  0  0  0  0  0  0  0
   29.1916  -20.1830  -10.8533 C   0  0  0  0  0  0  0  0  0  0  0  0
   28.6304  -20.2210   -9.5052 C   0  0  0  0  0  0  0  0  0  0  0  0
   28.9553  -21.2357   -8.6320 C   0  0  0  0  0  0  0  0  0  0  0  0
   28.4254  -21.2833   -7.3409 C   0  0  0  0  0  0  0  0  0  0  0  0
   27.5562  -20.3122   -6.8962 C   0  0  0  0  0  0  0  0  0  0  0  0
   27.2291  -19.2963   -7.7661 C   0  0  0  0  0  0  0  0  0  0  0  0
   27.7612  -19.2578   -9.0479 C   0  0  0  0  0  0  0  0  0  0  0  0
   26.8948  -20.3298  -11.8056 C   0  0  0  0  0  0  0  0  0  0  0  0
   26.5964  -19.2734  -12.4204 O   0  0  0  0  0  0  0  0  0  0  0  0
   18.2726  -19.9010  -12.5481 O   0  0  0  0  0  0  0  0  0  0  0  0
   19.6092  -20.2038  -12.4789 C   0  0  0  0  0  0  0  0  0  0  0  0
   20.5272  -19.3897  -13.0857 C   0  0  0  0  0  0  0  0  0  0  0  0
   21.8702  -19.7098  -13.0061 C   0  0  0  0  0  0  0  0  0  0  0  0
   22.3365  -20.8081  -12.3469 C   0  0  0  0  0  0  0  0  0  0  0  0
   23.7540  -21.2021  -12.2379 C   0  0  0  0  0  0  0  0  0  0  0  0
   24.5040  -20.5291  -11.1330 C   0  0  2  0  0  0  0  0  0  0  0  0
   25.8926  -20.9942  -11.0767 N   0  0  0  0  0  0  0  0  0  0  0  0
   23.8987  -20.8198   -9.8168 C   0  0  0  0  0  0  0  0  0  0  0  0
   24.3657  -21.7385   -9.1113 O   0  0  0  0  0  0  0  0  0  0  0  0
   21.3969  -21.6372  -11.7283 C   0  0  0  0  0  0  0  0  0  0  0  0
   20.0608  -21.3157  -11.8093 C   0  0  0  0  0  0  0  0  0  0  0  0
   22.8272  -20.1093   -9.3314 O   0  0  0  0  0  0  0  0  0  0  0  0
  2  1  1  6
  2  3  1  0
  4  2  1  0
  4  5  1  6
  6  4  1  0
  6  7  2  0
  8  6  1  0
  9  8  1  0
  9 10  1  1
 11 10  1  0
 11 12  2  0
 13 12  1  0
 14 13  2  0
 15 16  2  0
 15 14  1  0
 16 11  1  0
 17  9  1  0
 18 17  2  0
 19 20  1  0
 20 30  2  0
 20 21  1  0
 21 22  2  0
 22 23  1  0
 23 24  1  0
 25 24  1  6
 25 27  1  0
 25 26  1  0
 26 17  1  0
 27 31  1  0
 28 27  2  0
 29 23  2  0
 30 29  1  0
M  END
$$$$
