TFY.pdb
     RDKit          3D

 31 32  0  0  1  0  0  0  0  0999 V2000
   28.3169  -20.5568  -19.4831 C   0  0  0  0  0  0  0  0  0  0  0  0
   27.5052  -20.9272  -18.2616 C   0  0  1  0  0  0  0  0  0  0  0  0
   26.4764  -21.8045  -18.6444 O   0  0  0  0  0  0  0  0  0  0  0  0
   28.4101  -21.6054  -17.2262 C   0  0  2  0  0  0  0  0  0  0  0  0
   28.7572  -22.9066  -17.7841 N   0  0  0  0  0  0  0  0  0  0  0  0
   27.5795  -21.8452  -16.0156 C   0  0  0  0  0  0  0  0  0  0  0  0
   27.0287  -22.9676  -15.8444 O   0  0  0  0  0  0  0  0  0  0  0  0
   27.3734  -20.8478  -15.0220 N   0  0  0  0  0  0  0  0  0  0  0  0
   26.5249  -21.0101  -13.8764 C   0  0  1  0  0  0  0  0  0  0  0  0
   27.0184  -20.2610  -12.6677 C   0  0  0  0  0  0  0  0  0  0  0  0
   26.1994  -20.4497  -11.4730 C   0  0  0  0  0  0  0  0  0  0  0  0
   25.0645  -19.6967  -11.2672 C   0  0  0  0  0  0  0  0  0  0  0  0
   24.2733  -19.8674  -10.1292 C   0  0  0  0  0  0  0  0  0  0  0  0
   24.6039  -20.7992   -9.1706 C   0  0  0  0  0  0  0  0  0  0  0  0
   25.7376  -21.5538   -9.3728 C   0  0  0  0  0  0  0  0  0  0  0  0
   26.5177  -21.3765  -10.5076 C   0  0  0  0  0  0  0  0  0  0  0  0
   25.0950  -20.7443  -14.1746 C   0  0  0  0  0  0  0  0  0  0  0  0
   24.8251  -19.6469  -14.7278 O   0  0  0  0  0  0  0  0  0  0  0  0
   16.4415  -21.1656  -15.7356 O   0  0  0  0  0  0  0  0  0  0  0  0
   17.7716  -21.4310  -15.5275 C   0  0  0  0  0  0  0  0  0  0  0  0
   18.7080  -20.9674  -16.4117 C   0  0  0  0  0  0  0  0  0  0  0  0
   20.0441  -21.2441  -16.1867 C   0  0  0  0  0  0  0  0  0  0  0  0
   20.4860  -21.9641  -15.1169 C   0  0  0  0  0  0  0  0  0  0  0  0
   21.8951  -22.2962  -14.8329 C   0  0  0  0  0  0  0  0  0  0  0  0
   22.6521  -21.2298  -14.1077 C   0  0  2  0  0  0  0  0  0  0  0  0
   24.0434  -21.6303  -13.8809 N   0  0  0  0  0  0  0  0  0  0  0  0
   22.0606  -20.9574  -12.7814 C   0  0  0  0  0  0  0  0  0  0  0  0
   22.2822  -21.7399  -11.8335 O   0  0  0  0  0  0  0  0  0  0  0  0
   19.5277  -22.4359  -14.2159 C   0  0  0  0  0  0  0  0  0  0  0  0
   18.1985  -22.1586  -14.4426 C   0  0  0  0  0  0  0  0  0  0  0  0
   21.2653  -19.8617  -12.5461 O   0  0  0  0  0  0  0  0  0  0  0  0
  2  1  1  6
  2  3  1  0
  4  2  1  0
  4  5  1  6
  6  4  1  0
  6  7  2  0
  8  6  1  0
  9  8  1  0
  9 10  1  1
 11 10  1  0
 11 12  2  0
 13 12  1  0
 14 13  2  0
 15 16  2  0
 15 14  1  0
 16 11  1  0
 17  9  1  0
 18 17  2  0
 19 20  1  0
 20 30  2  0
 20 21  1  0
 21 22  2  0
 22 23  1  0
 23 24  1  0
 25 24  1  1
 25 27  1  0
 25 26  1  0
 26 17  1  0
 27 31  1  0
 28 27  2  0
 29 23  2  0
 30 29  1  0
M  END
$$$$
