TFY.pdb
     RDKit          3D

 31 32  0  0  1  0  0  0  0  0999 V2000
   46.3429  -10.9855   -4.9514 C   0  0  0  0  0  0  0  0  0  0  0  0
   45.1777  -10.4010   -5.7187 C   0  0  1  0  0  0  0  0  0  0  0  0
   45.6593   -9.7970   -6.8925 O   0  0  0  0  0  0  0  0  0  0  0  0
   44.1837  -11.5127   -6.0746 C   0  0  2  0  0  0  0  0  0  0  0  0
   44.8652  -12.3711   -7.0355 N   0  0  0  0  0  0  0  0  0  0  0  0
   43.0453  -10.8664   -6.7812 C   0  0  0  0  0  0  0  0  0  0  0  0
   43.0336  -10.8207   -8.0423 O   0  0  0  0  0  0  0  0  0  0  0  0
   41.9472  -10.2858   -6.0872 N   0  0  0  0  0  0  0  0  0  0  0  0
   40.8463   -9.6225   -6.7251 C   0  0  1  0  0  0  0  0  0  0  0  0
   39.6081   -9.5825   -5.8702 C   0  0  0  0  0  0  0  0  0  0  0  0
   38.5069   -8.8175   -6.4499 C   0  0  0  0  0  0  0  0  0  0  0  0
   38.1485   -7.5916   -5.9339 C   0  0  0  0  0  0  0  0  0  0  0  0
   37.0977   -6.8507   -6.4790 C   0  0  0  0  0  0  0  0  0  0  0  0
   36.3819   -7.3242   -7.5559 C   0  0  0  0  0  0  0  0  0  0  0  0
   36.7372   -8.5492   -8.0744 C   0  0  0  0  0  0  0  0  0  0  0  0
   37.7835   -9.2782   -7.5254 C   0  0  0  0  0  0  0  0  0  0  0  0
   41.2124   -8.2914   -7.2715 C   0  0  0  0  0  0  0  0  0  0  0  0
   41.8848   -7.5360   -6.5230 O   0  0  0  0  0  0  0  0  0  0  0  0
   43.5831   -1.5375  -12.3064 O   0  0  0  0  0  0  0  0  0  0  0  0
   43.1136   -2.7464  -11.8579 C   0  0  0  0  0  0  0  0  0  0  0  0
   41.8378   -3.1395  -12.1603 C   0  0  0  0  0  0  0  0  0  0  0  0
   41.3808   -4.3609  -11.7002 C   0  0  0  0  0  0  0  0  0  0  0  0
   42.1426   -5.2071  -10.9506 C   0  0  0  0  0  0  0  0  0  0  0  0
   41.7045   -6.5147  -10.4266 C   0  0  0  0  0  0  0  0  0  0  0  0
   41.2606   -6.4964   -8.9988 C   0  0  2  0  0  0  0  0  0  0  0  0
   40.8584   -7.8332   -8.5529 N   0  0  0  0  0  0  0  0  0  0  0  0
   40.0938   -5.6100   -8.8094 C   0  0  0  0  0  0  0  0  0  0  0  0
   38.9773   -5.9558   -9.2496 O   0  0  0  0  0  0  0  0  0  0  0  0
   43.4446   -4.8031  -10.6435 C   0  0  0  0  0  0  0  0  0  0  0  0
   43.8966   -3.5867  -11.1032 C   0  0  0  0  0  0  0  0  0  0  0  0
   40.1896   -4.4032   -8.1591 O   0  0  0  0  0  0  0  0  0  0  0  0
  2  1  1  6
  2  3  1  0
  4  2  1  0
  4  5  1  6
  6  4  1  0
  6  7  2  0
  8  6  1  0
  9  8  1  0
  9 10  1  1
 11 10  1  0
 11 12  2  0
 13 12  1  0
 14 13  2  0
 15 16  2  0
 15 14  1  0
 16 11  1  0
 17  9  1  0
 18 17  2  0
 19 20  1  0
 20 30  2  0
 20 21  1  0
 21 22  2  0
 22 23  1  0
 23 24  1  0
 25 24  1  6
 25 27  1  0
 25 26  1  0
 26 17  1  0
 27 31  1  0
 28 27  2  0
 29 23  2  0
 30 29  1  0
M  END
$$$$
