TFY.pdb
     RDKit          3D

 31 32  0  0  1  0  0  0  0  0999 V2000
   20.9205  -22.9465  -10.5730 C   0  0  0  0  0  0  0  0  0  0  0  0
   20.6325  -22.2040   -9.2869 C   0  0  1  0  0  0  0  0  0  0  0  0
   19.7266  -22.9542   -8.5182 O   0  0  0  0  0  0  0  0  0  0  0  0
   21.9356  -22.0003   -8.5051 C   0  0  2  0  0  0  0  0  0  0  0  0
   21.5686  -21.2877   -7.2877 N   0  0  0  0  0  0  0  0  0  0  0  0
   22.7895  -21.0908   -9.3153 C   0  0  0  0  0  0  0  0  0  0  0  0
   22.4233  -19.9002   -9.5175 O   0  0  0  0  0  0  0  0  0  0  0  0
   24.0247  -21.5095   -9.8842 N   0  0  0  0  0  0  0  0  0  0  0  0
   24.9042  -20.6540  -10.6281 C   0  0  1  0  0  0  0  0  0  0  0  0
   26.3559  -21.0157  -10.4629 C   0  0  0  0  0  0  0  0  0  0  0  0
   26.9755  -20.4639   -9.2606 C   0  0  0  0  0  0  0  0  0  0  0  0
   28.2040  -20.9125   -8.8283 C   0  0  0  0  0  0  0  0  0  0  0  0
   28.8067  -20.3931   -7.6806 C   0  0  0  0  0  0  0  0  0  0  0  0
   28.1890  -19.4102   -6.9398 C   0  0  0  0  0  0  0  0  0  0  0  0
   26.9609  -18.9593   -7.3688 C   0  0  0  0  0  0  0  0  0  0  0  0
   26.3699  -19.4820   -8.5112 C   0  0  0  0  0  0  0  0  0  0  0  0
   24.5043  -20.5117  -12.0508 C   0  0  0  0  0  0  0  0  0  0  0  0
   24.2507  -21.5726  -12.6779 O   0  0  0  0  0  0  0  0  0  0  0  0
   21.2263  -17.3948  -19.6230 O   0  0  0  0  0  0  0  0  0  0  0  0
   21.7811  -17.4959  -18.3720 C   0  0  0  0  0  0  0  0  0  0  0  0
   23.0904  -17.1491  -18.1744 C   0  0  0  0  0  0  0  0  0  0  0  0
   23.6335  -17.2571  -16.9072 C   0  0  0  0  0  0  0  0  0  0  0  0
   22.9257  -17.6968  -15.8283 C   0  0  0  0  0  0  0  0  0  0  0  0
   23.4554  -17.8402  -14.4589 C   0  0  0  0  0  0  0  0  0  0  0  0
   23.8530  -19.2332  -14.0878 C   0  0  2  0  0  0  0  0  0  0  0  0
   24.3942  -19.2837  -12.7268 N   0  0  0  0  0  0  0  0  0  0  0  0
   24.9035  -19.7509  -14.9885 C   0  0  0  0  0  0  0  0  0  0  0  0
   26.1061  -19.5912  -14.6914 O   0  0  0  0  0  0  0  0  0  0  0  0
   21.5892  -18.0500  -16.0331 C   0  0  0  0  0  0  0  0  0  0  0  0
   21.0516  -17.9412  -17.2958 C   0  0  0  0  0  0  0  0  0  0  0  0
   24.6057  -20.4106  -16.1567 O   0  0  0  0  0  0  0  0  0  0  0  0
  2  1  1  6
  2  3  1  0
  4  2  1  0
  4  5  1  1
  6  4  1  0
  6  7  2  0
  8  6  1  0
  9  8  1  0
  9 10  1  6
 11 10  1  0
 11 12  2  0
 13 12  1  0
 14 13  2  0
 15 16  2  0
 15 14  1  0
 16 11  1  0
 17  9  1  0
 18 17  2  0
 19 20  1  0
 20 30  2  0
 20 21  1  0
 21 22  2  0
 22 23  1  0
 23 24  1  0
 25 24  1  6
 25 27  1  0
 25 26  1  0
 26 17  1  0
 27 31  1  0
 28 27  2  0
 29 23  2  0
 30 29  1  0
M  END
$$$$
