FRR.pdb
     RDKit          3D

 34 34  0  0  1  0  0  0  0  0999 V2000
   28.6203  -20.9040   -8.6108 N   0  0  0  0  0  0  0  0  0  0  0  0
   27.1811  -20.7598   -8.5470 C   0  0  1  0  0  0  0  0  0  0  0  0
   26.8632  -19.6250   -7.6079 C   0  0  0  0  0  0  0  0  0  0  0  0
   27.5804  -19.8748   -6.3410 C   0  0  0  0  0  0  0  0  0  0  0  0
   28.7940  -19.2316   -6.1024 C   0  0  0  0  0  0  0  0  0  0  0  0
   29.4388  -19.4857   -4.9083 C   0  0  0  0  0  0  0  0  0  0  0  0
   28.9148  -20.3419   -3.9756 C   0  0  0  0  0  0  0  0  0  0  0  0
   27.7202  -20.9813   -4.1989 C   0  0  0  0  0  0  0  0  0  0  0  0
   27.0832  -20.7232   -5.3911 C   0  0  0  0  0  0  0  0  0  0  0  0
   26.5914  -20.4870   -9.8936 C   0  0  0  0  0  0  0  0  0  0  0  0
   27.1917  -19.7885  -10.7442 O   0  0  0  0  0  0  0  0  0  0  0  0
   25.8247  -22.3483  -17.5582 N   0  0  0  0  0  0  0  0  0  0  0  0
   27.0364  -21.9993  -16.9034 C   0  0  0  0  0  0  0  0  0  0  0  0
   28.0510  -21.5435  -17.5954 N   0  0  0  0  0  0  0  0  0  0  0  0
   27.2164  -22.1207  -15.5010 N   0  0  0  0  0  0  0  0  0  0  0  0
   26.2920  -22.8924  -14.6722 C   0  0  0  0  0  0  0  0  0  0  0  0
   25.3639  -21.9860  -13.9207 C   0  0  0  0  0  0  0  0  0  0  0  0
   25.7454  -21.9349  -12.4605 C   0  0  0  0  0  0  0  0  0  0  0  0
   24.8500  -21.0298  -11.6500 C   0  0  2  0  0  0  0  0  0  0  0  0
   25.3257  -21.0108  -10.2611 N   0  0  0  0  0  0  0  0  0  0  0  0
   23.5014  -21.6831  -11.6013 C   0  0  0  0  0  0  0  0  0  0  0  0
   23.2509  -22.3920  -10.5959 O   0  0  0  0  0  0  0  0  0  0  0  0
   28.9436  -21.3025  -17.0801 N   0  0  0  0  0  0  0  0  0  0  0  0
   19.4436  -23.6987   -7.2434 C   0  0  0  0  0  0  0  0  0  0  0  0
   18.2816  -23.0066   -7.7307 N   0  0  0  0  0  0  0  0  0  0  0  0
   17.1076  -23.2500   -7.2537 N   0  0  0  0  0  0  0  0  0  0  0  0
   18.4262  -22.0393   -8.7534 C   0  0  0  0  0  0  0  0  0  0  0  0
   19.7242  -21.7658   -9.3022 C   0  0  0  0  0  0  0  0  0  0  0  0
   19.5868  -20.7662  -10.4060 C   0  0  0  0  0  0  0  0  0  0  0  0
   20.8322  -20.5223  -11.1746 C   0  0  2  0  0  0  0  0  0  0  0  0
   21.1276  -21.5335  -12.2472 N   0  0  0  0  0  0  0  0  0  0  0  0
   22.5221  -21.5489  -12.5995 C   0  0  0  0  0  0  0  0  0  0  0  0
   20.3455  -21.3317  -13.4734 O   0  0  0  0  0  0  0  0  0  0  0  0
   19.2167  -22.0867  -13.6966 O   0  0  0  0  0  0  0  0  0  0  0  0
  2  1  1  6
  2 10  1  0
  2  3  1  0
  4  3  1  0
  5  4  2  0
  6  5  1  0
  7  8  1  0
  7  6  2  0
  8  9  2  0
  9  4  1  0
 10 20  1  0
 11 10  2  0
 13 15  1  0
 13 12  1  0
 14 13  2  0
 16 17  1  0
 16 15  1  0
 18 17  1  0
 19 18  1  6
 20 19  1  0
 21 31  1  0
 21 19  1  0
 22 21  2  0
 23 24  1  0
 24 25  2  0
 26 24  1  0
 26 27  1  0
 27 28  1  0
 28 29  1  0
 30 29  1  1
 30 32  1  0
 30 31  1  0
 32 33  1  0
 34 32  2  0
M  END
$$$$
