FRR.pdb
     RDKit          3D

 34 34  0  0  1  0  0  0  0  0999 V2000
   28.0500  -21.1850  -16.0945 N   0  0  0  0  0  0  0  0  0  0  0  0
   27.2191  -20.2437  -15.3735 C   0  0  1  0  0  0  0  0  0  0  0  0
   26.6355  -19.2735  -16.3679 C   0  0  0  0  0  0  0  0  0  0  0  0
   27.7206  -18.3733  -16.8083 C   0  0  0  0  0  0  0  0  0  0  0  0
   28.1317  -17.3359  -15.9727 C   0  0  0  0  0  0  0  0  0  0  0  0
   29.1490  -16.5128  -16.4131 C   0  0  0  0  0  0  0  0  0  0  0  0
   29.7465  -16.6968  -17.6324 C   0  0  0  0  0  0  0  0  0  0  0  0
   29.3505  -17.7150  -18.4644 C   0  0  0  0  0  0  0  0  0  0  0  0
   28.3363  -18.5313  -18.0188 C   0  0  0  0  0  0  0  0  0  0  0  0
   26.1205  -20.9320  -14.6284 C   0  0  0  0  0  0  0  0  0  0  0  0
   25.5284  -21.9292  -15.1046 O   0  0  0  0  0  0  0  0  0  0  0  0
   24.8577  -21.4898   -6.5203 N   0  0  0  0  0  0  0  0  0  0  0  0
   25.4793  -20.5806   -7.4179 C   0  0  0  0  0  0  0  0  0  0  0  0
   26.6491  -20.0666   -7.1291 N   0  0  0  0  0  0  0  0  0  0  0  0
   24.8876  -20.1848   -8.6455 N   0  0  0  0  0  0  0  0  0  0  0  0
   23.5094  -20.5369   -8.9824 C   0  0  0  0  0  0  0  0  0  0  0  0
   23.4155  -21.0401  -10.3915 C   0  0  0  0  0  0  0  0  0  0  0  0
   24.6305  -20.6190  -11.1832 C   0  0  0  0  0  0  0  0  0  0  0  0
   24.5963  -21.1002  -12.6133 C   0  0  2  0  0  0  0  0  0  0  0  0
   25.7056  -20.4810  -13.3495 N   0  0  0  0  0  0  0  0  0  0  0  0
   23.3480  -20.5433  -13.2294 C   0  0  0  0  0  0  0  0  0  0  0  0
   23.3617  -19.3259  -13.5361 O   0  0  0  0  0  0  0  0  0  0  0  0
   27.0730  -19.3703   -7.8042 N   0  0  0  0  0  0  0  0  0  0  0  0
   18.1905  -24.8271  -13.6645 C   0  0  0  0  0  0  0  0  0  0  0  0
   17.6420  -24.6469  -14.9810 N   0  0  0  0  0  0  0  0  0  0  0  0
   16.4475  -25.0411  -15.2691 N   0  0  0  0  0  0  0  0  0  0  0  0
   18.4259  -24.0255  -15.9820 C   0  0  0  0  0  0  0  0  0  0  0  0
   19.6823  -23.4231  -15.6366 C   0  0  0  0  0  0  0  0  0  0  0  0
   19.5347  -21.9352  -15.6656 C   0  0  0  0  0  0  0  0  0  0  0  0
   20.8022  -21.1868  -15.4799 C   0  0  1  0  0  0  0  0  0  0  0  0
   21.0412  -20.6735  -14.0872 N   0  0  0  0  0  0  0  0  0  0  0  0
   22.1866  -21.2937  -13.4768 C   0  0  0  0  0  0  0  0  0  0  0  0
   19.8905  -20.8510  -13.1925 O   0  0  0  0  0  0  0  0  0  0  0  0
   18.7429  -20.1206  -13.4012 O   0  0  0  0  0  0  0  0  0  0  0  0
  2  1  1  6
  2 10  1  0
  2  3  1  0
  4  3  1  0
  5  4  2  0
  6  5  1  0
  7  8  1  0
  7  6  2  0
  8  9  2  0
  9  4  1  0
 10 20  1  0
 11 10  2  0
 13 15  1  0
 13 12  1  0
 14 13  2  0
 16 17  1  0
 16 15  1  0
 18 17  1  0
 19 18  1  1
 20 19  1  0
 21 31  1  0
 21 19  1  0
 22 21  2  0
 23 24  1  0
 24 25  2  0
 26 24  1  0
 26 27  1  0
 27 28  1  0
 28 29  1  0
 30 29  1  6
 30 32  1  0
 30 31  1  0
 32 33  1  0
 34 32  2  0
M  END
$$$$
