FRR.pdb
     RDKit          3D

 34 34  0  0  1  0  0  0  0  0999 V2000
   31.1928  -20.0684  -11.4004 N   0  0  0  0  0  0  0  0  0  0  0  0
   30.6908  -21.3729  -11.7779 C   0  0  1  0  0  0  0  0  0  0  0  0
   29.5228  -21.7039  -10.8850 C   0  0  0  0  0  0  0  0  0  0  0  0
   30.0316  -21.8204   -9.5032 C   0  0  0  0  0  0  0  0  0  0  0  0
   29.1725  -21.5727   -8.4336 C   0  0  0  0  0  0  0  0  0  0  0  0
   29.6786  -21.6912   -7.1545 C   0  0  0  0  0  0  0  0  0  0  0  0
   30.9838  -22.0407   -6.9266 C   0  0  0  0  0  0  0  0  0  0  0  0
   31.8398  -22.2874   -7.9718 C   0  0  0  0  0  0  0  0  0  0  0  0
   31.3284  -22.1674   -9.2437 C   0  0  0  0  0  0  0  0  0  0  0  0
   30.2632  -21.4087  -13.2102 C   0  0  0  0  0  0  0  0  0  0  0  0
   29.6954  -20.4304  -13.7508 O   0  0  0  0  0  0  0  0  0  0  0  0
   28.5976  -26.6638  -16.5517 N   0  0  0  0  0  0  0  0  0  0  0  0
   28.6795  -26.6363  -17.9699 C   0  0  0  0  0  0  0  0  0  0  0  0
   27.6807  -27.0747  -18.6955 N   0  0  0  0  0  0  0  0  0  0  0  0
   29.8153  -26.1477  -18.6664 N   0  0  0  0  0  0  0  0  0  0  0  0
   30.8557  -25.3741  -17.9913 C   0  0  0  0  0  0  0  0  0  0  0  0
   30.3072  -24.0785  -17.4732 C   0  0  0  0  0  0  0  0  0  0  0  0
   30.7225  -23.8676  -16.0368 C   0  0  0  0  0  0  0  0  0  0  0  0
   30.1854  -22.5843  -15.4516 C   0  0  2  0  0  0  0  0  0  0  0  0
   30.4851  -22.5554  -14.0146 N   0  0  0  0  0  0  0  0  0  0  0  0
   28.6907  -22.6556  -15.5465 C   0  0  0  0  0  0  0  0  0  0  0  0
   28.0949  -23.2894  -14.6413 O   0  0  0  0  0  0  0  0  0  0  0  0
   27.8284  -27.1899  -19.7372 N   0  0  0  0  0  0  0  0  0  0  0  0
   21.7185  -19.6775  -14.1247 C   0  0  0  0  0  0  0  0  0  0  0  0
   22.3079  -20.8438  -13.5258 N   0  0  0  0  0  0  0  0  0  0  0  0
   21.5779  -21.7654  -12.9937 N   0  0  0  0  0  0  0  0  0  0  0  0
   23.7159  -20.9858  -13.5184 C   0  0  0  0  0  0  0  0  0  0  0  0
   24.5480  -19.8933  -13.9365 C   0  0  0  0  0  0  0  0  0  0  0  0
   24.9415  -20.0981  -15.3647 C   0  0  0  0  0  0  0  0  0  0  0  0
   26.3529  -20.5111  -15.5614 C   0  0  1  0  0  0  0  0  0  0  0  0
   26.5433  -21.7665  -16.3664 N   0  0  0  0  0  0  0  0  0  0  0  0
   27.9353  -22.0646  -16.5728 C   0  0  0  0  0  0  0  0  0  0  0  0
   25.8819  -21.7277  -17.6767 O   0  0  0  0  0  0  0  0  0  0  0  0
   24.8292  -22.5751  -17.9368 O   0  0  0  0  0  0  0  0  0  0  0  0
  2  1  1  1
  2 10  1  0
  2  3  1  0
  4  3  1  0
  5  4  2  0
  6  5  1  0
  7  8  1  0
  7  6  2  0
  8  9  2  0
  9  4  1  0
 10 20  1  0
 11 10  2  0
 13 15  1  0
 13 12  1  0
 14 13  2  0
 16 17  1  0
 16 15  1  0
 18 17  1  0
 19 18  1  1
 20 19  1  0
 21 31  1  0
 21 19  1  0
 22 21  2  0
 23 24  1  0
 24 25  2  0
 26 24  1  0
 26 27  1  0
 27 28  1  0
 28 29  1  0
 30 29  1  1
 30 32  1  0
 30 31  1  0
 32 33  1  0
 34 32  2  0
M  END
$$$$
