FRR.pdb
     RDKit          3D

 34 34  0  0  1  0  0  0  0  0999 V2000
   28.4648  -21.8626  -10.3015 N   0  0  0  0  0  0  0  0  0  0  0  0
   27.1833  -21.1940  -10.3864 C   0  0  1  0  0  0  0  0  0  0  0  0
   27.3558  -19.7817   -9.8898 C   0  0  0  0  0  0  0  0  0  0  0  0
   27.6495  -19.8459   -8.4436 C   0  0  0  0  0  0  0  0  0  0  0  0
   28.9695  -19.9869   -8.0182 C   0  0  0  0  0  0  0  0  0  0  0  0
   29.2106  -20.0427   -6.6599 C   0  0  0  0  0  0  0  0  0  0  0  0
   28.1938  -19.9634   -5.7448 C   0  0  0  0  0  0  0  0  0  0  0  0
   26.8895  -19.8242   -6.1513 C   0  0  0  0  0  0  0  0  0  0  0  0
   26.6569  -19.7692   -7.5065 C   0  0  0  0  0  0  0  0  0  0  0  0
   26.6568  -21.1812  -11.7857 C   0  0  0  0  0  0  0  0  0  0  0  0
   27.4225  -21.0974  -12.7748 O   0  0  0  0  0  0  0  0  0  0  0  0
   20.0070  -23.7879  -10.6104 N   0  0  0  0  0  0  0  0  0  0  0  0
   19.7987  -23.2827  -11.9220 C   0  0  0  0  0  0  0  0  0  0  0  0
   18.6789  -22.6726  -12.2222 N   0  0  0  0  0  0  0  0  0  0  0  0
   20.7622  -23.4055  -12.9565 N   0  0  0  0  0  0  0  0  0  0  0  0
   22.1225  -23.8683  -12.6879 C   0  0  0  0  0  0  0  0  0  0  0  0
   23.0306  -22.7134  -12.3888 C   0  0  0  0  0  0  0  0  0  0  0  0
   23.7408  -22.2633  -13.6431 C   0  0  0  0  0  0  0  0  0  0  0  0
   24.7049  -21.1283  -13.3980 C   0  0  2  0  0  0  0  0  0  0  0  0
   25.2655  -21.2643  -12.0478 N   0  0  0  0  0  0  0  0  0  0  0  0
   23.8936  -19.8678  -13.3685 C   0  0  0  0  0  0  0  0  0  0  0  0
   22.9424  -19.8249  -12.5502 O   0  0  0  0  0  0  0  0  0  0  0  0
   18.5504  -22.3147  -13.2100 N   0  0  0  0  0  0  0  0  0  0  0  0
   20.5346  -14.9264  -18.6742 C   0  0  0  0  0  0  0  0  0  0  0  0
   21.7519  -14.1896  -18.4701 N   0  0  0  0  0  0  0  0  0  0  0  0
   21.7664  -12.8994  -18.4946 N   0  0  0  0  0  0  0  0  0  0  0  0
   22.9589  -14.8909  -18.2378 C   0  0  0  0  0  0  0  0  0  0  0  0
   22.9858  -16.3227  -18.3379 C   0  0  0  0  0  0  0  0  0  0  0  0
   22.4925  -16.9112  -17.0546 C   0  0  0  0  0  0  0  0  0  0  0  0
   23.5459  -17.5406  -16.2207 C   0  0  1  0  0  0  0  0  0  0  0  0
   23.0587  -18.1652  -14.9429 N   0  0  0  0  0  0  0  0  0  0  0  0
   24.1339  -18.7543  -14.1905 C   0  0  0  0  0  0  0  0  0  0  0  0
   22.0262  -19.1888  -15.1481 O   0  0  0  0  0  0  0  0  0  0  0  0
   22.3621  -20.3936  -15.7224 O   0  0  0  0  0  0  0  0  0  0  0  0
  2  1  1  6
  2 10  1  0
  2  3  1  0
  4  3  1  0
  5  4  2  0
  6  5  1  0
  7  8  1  0
  7  6  2  0
  8  9  2  0
  9  4  1  0
 10 20  1  0
 11 10  2  0
 13 15  1  0
 13 12  1  0
 14 13  2  0
 16 17  1  0
 16 15  1  0
 18 17  1  0
 19 18  1  1
 20 19  1  0
 21 31  1  0
 21 19  1  0
 22 21  2  0
 23 24  1  0
 24 25  2  0
 26 24  1  0
 26 27  1  0
 27 28  1  0
 28 29  1  0
 30 29  1  1
 30 32  1  0
 30 31  1  0
 32 33  1  0
 34 32  2  0
M  END
$$$$
