FRR.pdb
     RDKit          3D

 34 34  0  0  1  0  0  0  0  0999 V2000
   25.9949  -19.4744  -17.1817 N   0  0  0  0  0  0  0  0  0  0  0  0
   24.6634  -19.1634  -17.6576 C   0  0  1  0  0  0  0  0  0  0  0  0
   24.1413  -20.3602  -18.4099 C   0  0  0  0  0  0  0  0  0  0  0  0
   24.7390  -20.3387  -19.7605 C   0  0  0  0  0  0  0  0  0  0  0  0
   24.3022  -19.3942  -20.6881 C   0  0  0  0  0  0  0  0  0  0  0  0
   24.8817  -19.3998  -21.9413 C   0  0  0  0  0  0  0  0  0  0  0  0
   25.8577  -20.3004  -22.2786 C   0  0  0  0  0  0  0  0  0  0  0  0
   26.2966  -21.2355  -21.3737 C   0  0  0  0  0  0  0  0  0  0  0  0
   25.7146  -21.2238  -20.1268 C   0  0  0  0  0  0  0  0  0  0  0  0
   23.7380  -18.8252  -16.5330 C   0  0  0  0  0  0  0  0  0  0  0  0
   23.9266  -19.2623  -15.3732 O   0  0  0  0  0  0  0  0  0  0  0  0
   16.0628  -14.0197  -15.4644 N   0  0  0  0  0  0  0  0  0  0  0  0
   16.7262  -15.1641  -15.9832 C   0  0  0  0  0  0  0  0  0  0  0  0
   16.0934  -16.3075  -16.0729 N   0  0  0  0  0  0  0  0  0  0  0  0
   18.0756  -15.1390  -16.4219 N   0  0  0  0  0  0  0  0  0  0  0  0
   19.1640  -14.7329  -15.5347 C   0  0  0  0  0  0  0  0  0  0  0  0
   19.9246  -15.9268  -15.0408 C   0  0  0  0  0  0  0  0  0  0  0  0
   20.9096  -16.3931  -16.0860 C   0  0  0  0  0  0  0  0  0  0  0  0
   21.7133  -17.5916  -15.6437 C   0  0  2  0  0  0  0  0  0  0  0  0
   22.6075  -17.9935  -16.7367 N   0  0  0  0  0  0  0  0  0  0  0  0
   20.7471  -18.7263  -15.4803 C   0  0  0  0  0  0  0  0  0  0  0  0
   20.3994  -19.3296  -16.5250 O   0  0  0  0  0  0  0  0  0  0  0  0
   15.0433  -16.3129  -15.9400 N   0  0  0  0  0  0  0  0  0  0  0  0
   18.0096  -24.5784   -9.8075 C   0  0  0  0  0  0  0  0  0  0  0  0
   17.2080  -24.7309  -10.9911 N   0  0  0  0  0  0  0  0  0  0  0  0
   16.5453  -25.8150  -11.2165 N   0  0  0  0  0  0  0  0  0  0  0  0
   17.1434  -23.6727  -11.9285 C   0  0  0  0  0  0  0  0  0  0  0  0
   18.0003  -22.5307  -11.7794 C   0  0  0  0  0  0  0  0  0  0  0  0
   18.9142  -22.4486  -12.9604 C   0  0  0  0  0  0  0  0  0  0  0  0
   19.7074  -21.1973  -13.0395 C   0  0  2  0  0  0  0  0  0  0  0  0
   19.3504  -20.2875  -14.1819 N   0  0  0  0  0  0  0  0  0  0  0  0
   20.2193  -19.1430  -14.2470 C   0  0  0  0  0  0  0  0  0  0  0  0
   17.9627  -19.8096  -14.1379 O   0  0  0  0  0  0  0  0  0  0  0  0
   16.9502  -20.6036  -14.6262 O   0  0  0  0  0  0  0  0  0  0  0  0
  2  1  1  1
  2 10  1  0
  2  3  1  0
  4  3  1  0
  5  4  2  0
  6  5  1  0
  7  8  1  0
  7  6  2  0
  8  9  2  0
  9  4  1  0
 10 20  1  0
 11 10  2  0
 13 15  1  0
 13 12  1  0
 14 13  2  0
 16 17  1  0
 16 15  1  0
 18 17  1  0
 19 18  1  6
 20 19  1  0
 21 31  1  0
 21 19  1  0
 22 21  2  0
 23 24  1  0
 24 25  2  0
 26 24  1  0
 26 27  1  0
 27 28  1  0
 28 29  1  0
 30 29  1  6
 30 32  1  0
 30 31  1  0
 32 33  1  0
 34 32  2  0
M  END
$$$$
