FRR.pdb
     RDKit          3D

 34 34  0  0  1  0  0  0  0  0999 V2000
   26.5848  -18.4333   -7.8435 N   0  0  0  0  0  0  0  0  0  0  0  0
   26.6121  -19.8371   -8.1968 C   0  0  1  0  0  0  0  0  0  0  0  0
   26.5227  -20.6436   -6.9269 C   0  0  0  0  0  0  0  0  0  0  0  0
   27.7003  -20.3118   -6.0993 C   0  0  0  0  0  0  0  0  0  0  0  0
   28.9489  -20.8245   -6.4477 C   0  0  0  0  0  0  0  0  0  0  0  0
   30.0297  -20.4948   -5.6542 C   0  0  0  0  0  0  0  0  0  0  0  0
   29.8953  -19.6893   -4.5539 C   0  0  0  0  0  0  0  0  0  0  0  0
   28.6707  -19.1781   -4.2005 C   0  0  0  0  0  0  0  0  0  0  0  0
   27.5983  -19.5108   -4.9959 C   0  0  0  0  0  0  0  0  0  0  0  0
   25.4862  -20.2003   -9.1112 C   0  0  0  0  0  0  0  0  0  0  0  0
   24.3151  -19.8063   -8.8996 O   0  0  0  0  0  0  0  0  0  0  0  0
   28.3189  -22.1027  -15.5049 N   0  0  0  0  0  0  0  0  0  0  0  0
   27.4430  -21.5220  -16.4610 C   0  0  0  0  0  0  0  0  0  0  0  0
   27.3722  -22.0139  -17.6731 N   0  0  0  0  0  0  0  0  0  0  0  0
   26.6165  -20.4057  -16.1701 N   0  0  0  0  0  0  0  0  0  0  0  0
   26.3810  -19.9616  -14.7975 C   0  0  0  0  0  0  0  0  0  0  0  0
   25.5735  -20.9723  -14.0398 C   0  0  0  0  0  0  0  0  0  0  0  0
   26.1161  -21.1380  -12.6404 C   0  0  0  0  0  0  0  0  0  0  0  0
   25.1525  -20.6709  -11.5768 C   0  0  2  0  0  0  0  0  0  0  0  0
   25.7019  -21.0072  -10.2573 N   0  0  0  0  0  0  0  0  0  0  0  0
   23.9134  -21.5031  -11.7174 C   0  0  0  0  0  0  0  0  0  0  0  0
   24.0265  -22.7319  -11.4858 O   0  0  0  0  0  0  0  0  0  0  0  0
   26.7644  -21.5169  -18.3829 N   0  0  0  0  0  0  0  0  0  0  0  0
   19.4496  -24.5972   -7.9274 C   0  0  0  0  0  0  0  0  0  0  0  0
   18.2388  -23.8526   -8.1424 N   0  0  0  0  0  0  0  0  0  0  0  0
   17.3071  -23.8164   -7.2503 N   0  0  0  0  0  0  0  0  0  0  0  0
   18.0635  -23.1452   -9.3554 C   0  0  0  0  0  0  0  0  0  0  0  0
   19.0625  -23.2269  -10.3829 C   0  0  0  0  0  0  0  0  0  0  0  0
   20.0104  -22.0797  -10.2346 C   0  0  0  0  0  0  0  0  0  0  0  0
   20.3224  -21.3709  -11.5001 C   0  0  2  0  0  0  0  0  0  0  0  0
   21.5328  -21.8786  -12.2333 N   0  0  0  0  0  0  0  0  0  0  0  0
   22.6576  -20.9939  -12.0875 C   0  0  0  0  0  0  0  0  0  0  0  0
   21.3007  -22.0953  -13.6669 O   0  0  0  0  0  0  0  0  0  0  0  0
   20.6665  -23.2404  -14.0916 O   0  0  0  0  0  0  0  0  0  0  0  0
  2  1  1  1
  2 10  1  0
  2  3  1  0
  4  3  1  0
  5  4  2  0
  6  5  1  0
  7  8  1  0
  7  6  2  0
  8  9  2  0
  9  4  1  0
 10 20  1  0
 11 10  2  0
 13 15  1  0
 13 12  1  0
 14 13  2  0
 16 17  1  0
 16 15  1  0
 18 17  1  0
 19 18  1  6
 20 19  1  0
 21 31  1  0
 21 19  1  0
 22 21  2  0
 23 24  1  0
 24 25  2  0
 26 24  1  0
 26 27  1  0
 27 28  1  0
 28 29  1  0
 30 29  1  1
 30 32  1  0
 30 31  1  0
 32 33  1  0
 34 32  2  0
M  END
$$$$
