FRR.pdb
     RDKit          3D

 34 34  0  0  1  0  0  0  0  0999 V2000
   28.3234  -20.9187  -16.9910 N   0  0  0  0  0  0  0  0  0  0  0  0
   27.8659  -20.1176  -15.8752 C   0  0  1  0  0  0  0  0  0  0  0  0
   27.2294  -18.8667  -16.4239 C   0  0  0  0  0  0  0  0  0  0  0  0
   28.3017  -18.0342  -17.0060 C   0  0  0  0  0  0  0  0  0  0  0  0
   29.3494  -17.6010  -16.1948 C   0  0  0  0  0  0  0  0  0  0  0  0
   30.3365  -16.8252  -16.7696 C   0  0  0  0  0  0  0  0  0  0  0  0
   30.3014  -16.4827  -18.0958 C   0  0  0  0  0  0  0  0  0  0  0  0
   29.2748  -16.9033  -18.9051 C   0  0  0  0  0  0  0  0  0  0  0  0
   28.2948  -17.6761  -18.3255 C   0  0  0  0  0  0  0  0  0  0  0  0
   26.8832  -20.8592  -15.0268 C   0  0  0  0  0  0  0  0  0  0  0  0
   26.1660  -21.7727  -15.4987 O   0  0  0  0  0  0  0  0  0  0  0  0
   26.3314  -20.1350   -6.3988 N   0  0  0  0  0  0  0  0  0  0  0  0
   27.1728  -20.4401   -7.5023 C   0  0  0  0  0  0  0  0  0  0  0  0
   28.4725  -20.3192   -7.3922 N   0  0  0  0  0  0  0  0  0  0  0  0
   26.6710  -20.8804   -8.7546 N   0  0  0  0  0  0  0  0  0  0  0  0
   25.2362  -20.9918   -9.0107 C   0  0  0  0  0  0  0  0  0  0  0  0
   24.9779  -21.4564  -10.4125 C   0  0  0  0  0  0  0  0  0  0  0  0
   25.9586  -20.8191  -11.3677 C   0  0  0  0  0  0  0  0  0  0  0  0
   25.7232  -21.2167  -12.8045 C   0  0  2  0  0  0  0  0  0  0  0  0
   26.7251  -20.5561  -13.6504 N   0  0  0  0  0  0  0  0  0  0  0  0
   24.4063  -20.6251  -13.2089 C   0  0  0  0  0  0  0  0  0  0  0  0
   24.0444  -19.5837  -12.6083 O   0  0  0  0  0  0  0  0  0  0  0  0
   29.0731  -20.5649   -8.2284 N   0  0  0  0  0  0  0  0  0  0  0  0
   21.1515  -27.8471  -13.0747 C   0  0  0  0  0  0  0  0  0  0  0  0
   20.8049  -26.9045  -12.0462 N   0  0  0  0  0  0  0  0  0  0  0  0
   20.3896  -27.2975  -10.8894 N   0  0  0  0  0  0  0  0  0  0  0  0
   20.9205  -25.5181  -12.3056 C   0  0  0  0  0  0  0  0  0  0  0  0
   20.5125  -24.9910  -13.5770 C   0  0  0  0  0  0  0  0  0  0  0  0
   20.6740  -23.5043  -13.5636 C   0  0  0  0  0  0  0  0  0  0  0  0
   22.0581  -23.0328  -13.8153 C   0  0  2  0  0  0  0  0  0  0  0  0
   22.2200  -21.5398  -13.8853 N   0  0  0  0  0  0  0  0  0  0  0  0
   23.5711  -21.1618  -14.2027 C   0  0  0  0  0  0  0  0  0  0  0  0
   21.8274  -20.8498  -12.6501 O   0  0  0  0  0  0  0  0  0  0  0  0
   20.8431  -19.8887  -12.6868 O   0  0  0  0  0  0  0  0  0  0  0  0
  2  1  1  6
  2 10  1  0
  2  3  1  0
  4  3  1  0
  5  4  2  0
  6  5  1  0
  7  8  1  0
  7  6  2  0
  8  9  2  0
  9  4  1  0
 10 20  1  0
 11 10  2  0
 13 15  1  0
 13 12  1  0
 14 13  2  0
 16 17  1  0
 16 15  1  0
 18 17  1  0
 19 18  1  1
 20 19  1  0
 21 31  1  0
 21 19  1  0
 22 21  2  0
 23 24  1  0
 24 25  2  0
 26 24  1  0
 26 27  1  0
 27 28  1  0
 28 29  1  0
 30 29  1  6
 30 32  1  0
 30 31  1  0
 32 33  1  0
 34 32  2  0
M  END
$$$$
