FRR.pdb
     RDKit          3D

 34 34  0  0  1  0  0  0  0  0999 V2000
   24.5024  -20.2467   -8.6688 N   0  0  0  0  0  0  0  0  0  0  0  0
   25.6453  -20.0775   -9.5413 C   0  0  1  0  0  0  0  0  0  0  0  0
   26.6082  -21.2068   -9.2795 C   0  0  0  0  0  0  0  0  0  0  0  0
   27.6610  -20.7002   -8.3758 C   0  0  0  0  0  0  0  0  0  0  0  0
   28.9801  -20.6456   -8.8235 C   0  0  0  0  0  0  0  0  0  0  0  0
   29.9404  -20.1662   -7.9548 C   0  0  0  0  0  0  0  0  0  0  0  0
   29.6223  -19.7528   -6.6878 C   0  0  0  0  0  0  0  0  0  0  0  0
   28.3266  -19.8016   -6.2353 C   0  0  0  0  0  0  0  0  0  0  0  0
   27.3751  -20.2804   -7.1064 C   0  0  0  0  0  0  0  0  0  0  0  0
   25.2463  -20.0720  -10.9822 C   0  0  0  0  0  0  0  0  0  0  0  0
   24.0534  -20.2302  -11.3340 O   0  0  0  0  0  0  0  0  0  0  0  0
   27.8634  -17.4083  -18.5591 N   0  0  0  0  0  0  0  0  0  0  0  0
   28.8222  -17.4569  -17.5116 C   0  0  0  0  0  0  0  0  0  0  0  0
   29.7648  -16.5500  -17.4395 N   0  0  0  0  0  0  0  0  0  0  0  0
   28.8179  -18.4619  -16.5097 N   0  0  0  0  0  0  0  0  0  0  0  0
   27.9199  -19.6131  -16.5809 C   0  0  0  0  0  0  0  0  0  0  0  0
   26.7055  -19.3972  -15.7287 C   0  0  0  0  0  0  0  0  0  0  0  0
   27.0284  -19.6557  -14.2764 C   0  0  0  0  0  0  0  0  0  0  0  0
   25.8414  -19.4574  -13.3655 C   0  0  2  0  0  0  0  0  0  0  0  0
   26.2062  -19.8864  -12.0096 N   0  0  0  0  0  0  0  0  0  0  0  0
   24.7822  -20.4178  -13.8169 C   0  0  0  0  0  0  0  0  0  0  0  0
   25.0705  -21.6391  -13.7777 O   0  0  0  0  0  0  0  0  0  0  0  0
   30.4786  -16.6274  -16.6619 N   0  0  0  0  0  0  0  0  0  0  0  0
   16.6272  -21.3818  -12.1866 C   0  0  0  0  0  0  0  0  0  0  0  0
   17.7833  -22.1139  -11.7461 N   0  0  0  0  0  0  0  0  0  0  0  0
   17.8134  -22.6866  -10.5901 N   0  0  0  0  0  0  0  0  0  0  0  0
   18.9113  -22.2095  -12.5953 C   0  0  0  0  0  0  0  0  0  0  0  0
   18.8671  -21.6386  -13.9116 C   0  0  0  0  0  0  0  0  0  0  0  0
   20.1989  -21.8197  -14.5673 C   0  0  0  0  0  0  0  0  0  0  0  0
   21.2865  -20.9908  -13.9918 C   0  0  1  0  0  0  0  0  0  0  0  0
   22.5838  -21.0249  -14.7509 N   0  0  0  0  0  0  0  0  0  0  0  0
   23.5103  -20.0338  -14.2731 C   0  0  0  0  0  0  0  0  0  0  0  0
   22.4199  -20.8416  -16.1985 O   0  0  0  0  0  0  0  0  0  0  0  0
   22.3954  -19.5718  -16.7286 O   0  0  0  0  0  0  0  0  0  0  0  0
  2  1  1  1
  2 10  1  0
  2  3  1  0
  4  3  1  0
  5  4  2  0
  6  5  1  0
  7  8  1  0
  7  6  2  0
  8  9  2  0
  9  4  1  0
 10 20  1  0
 11 10  2  0
 13 15  1  0
 13 12  1  0
 14 13  2  0
 16 17  1  0
 16 15  1  0
 18 17  1  0
 19 18  1  6
 20 19  1  0
 21 31  1  0
 21 19  1  0
 22 21  2  0
 23 24  1  0
 24 25  2  0
 26 24  1  0
 26 27  1  0
 27 28  1  0
 28 29  1  0
 30 29  1  1
 30 32  1  0
 30 31  1  0
 32 33  1  0
 34 32  2  0
M  END
$$$$
