FRR.pdb
     RDKit          3D

 34 34  0  0  1  0  0  0  0  0999 V2000
   19.2772  -24.8469   -9.0110 N   0  0  0  0  0  0  0  0  0  0  0  0
   19.0607  -24.3627   -7.6638 C   0  0  1  0  0  0  0  0  0  0  0  0
   18.9351  -22.8620   -7.7178 C   0  0  0  0  0  0  0  0  0  0  0  0
   20.2492  -22.3142   -8.1112 C   0  0  0  0  0  0  0  0  0  0  0  0
   20.4339  -21.8425   -9.4099 C   0  0  0  0  0  0  0  0  0  0  0  0
   21.6736  -21.3358   -9.7457 C   0  0  0  0  0  0  0  0  0  0  0  0
   22.7017  -21.2914   -8.8410 C   0  0  0  0  0  0  0  0  0  0  0  0
   22.5322  -21.7528   -7.5587 C   0  0  0  0  0  0  0  0  0  0  0  0
   21.2941  -22.2562   -7.2313 C   0  0  0  0  0  0  0  0  0  0  0  0
   17.8312  -24.9551   -7.0531 C   0  0  0  0  0  0  0  0  0  0  0  0
   16.8775  -25.3607   -7.7585 O   0  0  0  0  0  0  0  0  0  0  0  0
   18.3596  -31.9074   -3.7457 N   0  0  0  0  0  0  0  0  0  0  0  0
   18.4898  -30.9147   -2.7374 C   0  0  0  0  0  0  0  0  0  0  0  0
   18.7865  -31.2594   -1.5089 N   0  0  0  0  0  0  0  0  0  0  0  0
   18.3107  -29.5302   -2.9922 N   0  0  0  0  0  0  0  0  0  0  0  0
   18.1440  -29.0146   -4.3498 C   0  0  0  0  0  0  0  0  0  0  0  0
   18.0016  -27.5222   -4.3410 C   0  0  0  0  0  0  0  0  0  0  0  0
   16.6450  -27.1195   -4.8680 C   0  0  0  0  0  0  0  0  0  0  0  0
   16.4899  -25.6252   -5.0125 C   0  0  2  0  0  0  0  0  0  0  0  0
   17.6973  -25.0815   -5.6469 N   0  0  0  0  0  0  0  0  0  0  0  0
   16.4753  -25.0538   -3.6263 C   0  0  0  0  0  0  0  0  0  0  0  0
   17.5865  -24.9145   -3.0589 O   0  0  0  0  0  0  0  0  0  0  0  0
   18.8285  -30.5023   -0.7704 N   0  0  0  0  0  0  0  0  0  0  0  0
   13.2458  -18.9244    1.6425 C   0  0  0  0  0  0  0  0  0  0  0  0
   14.1834  -19.8570    2.2061 N   0  0  0  0  0  0  0  0  0  0  0  0
   15.0529  -19.4851    3.0841 N   0  0  0  0  0  0  0  0  0  0  0  0
   14.1540  -21.2096    1.7911 C   0  0  0  0  0  0  0  0  0  0  0  0
   14.2178  -21.5314    0.3936 C   0  0  0  0  0  0  0  0  0  0  0  0
   14.0912  -23.0123    0.2274 C   0  0  0  0  0  0  0  0  0  0  0  0
   14.1205  -23.4787   -1.1807 C   0  0  1  0  0  0  0  0  0  0  0  0
   15.3942  -24.1581   -1.6008 N   0  0  0  0  0  0  0  0  0  0  0  0
   15.3095  -24.6740   -2.9408 C   0  0  0  0  0  0  0  0  0  0  0  0
   15.7940  -25.2547   -0.7099 O   0  0  0  0  0  0  0  0  0  0  0  0
   16.5873  -24.9928    0.3838 O   0  0  0  0  0  0  0  0  0  0  0  0
  2  1  1  6
  2 10  1  0
  2  3  1  0
  4  3  1  0
  5  4  2  0
  6  5  1  0
  7  8  1  0
  7  6  2  0
  8  9  2  0
  9  4  1  0
 10 20  1  0
 11 10  2  0
 13 15  1  0
 13 12  1  0
 14 13  2  0
 16 17  1  0
 16 15  1  0
 18 17  1  0
 19 18  1  1
 20 19  1  0
 21 31  1  0
 21 19  1  0
 22 21  2  0
 23 24  1  0
 24 25  2  0
 26 24  1  0
 26 27  1  0
 27 28  1  0
 28 29  1  0
 30 29  1  6
 30 32  1  0
 30 31  1  0
 32 33  1  0
 34 32  2  0
M  END
$$$$
