FRR.pdb
     RDKit          3D

 34 34  0  0  1  0  0  0  0  0999 V2000
   19.5453  -26.9994   -1.4705 N   0  0  0  0  0  0  0  0  0  0  0  0
   18.9163  -27.5539   -2.6508 C   0  0  1  0  0  0  0  0  0  0  0  0
   17.7232  -28.3631   -2.2118 C   0  0  0  0  0  0  0  0  0  0  0  0
   18.2082  -29.7005   -1.8141 C   0  0  0  0  0  0  0  0  0  0  0  0
   18.3958  -29.9872   -0.4628 C   0  0  0  0  0  0  0  0  0  0  0  0
   18.8491  -31.2467   -0.1241 C   0  0  0  0  0  0  0  0  0  0  0  0
   19.1113  -32.1970   -1.0757 C   0  0  0  0  0  0  0  0  0  0  0  0
   18.9302  -31.9267   -2.4099 C   0  0  0  0  0  0  0  0  0  0  0  0
   18.4782  -30.6696   -2.7399 C   0  0  0  0  0  0  0  0  0  0  0  0
   18.4843  -26.4847   -3.6025 C   0  0  0  0  0  0  0  0  0  0  0  0
   18.3239  -25.2987   -3.2290 O   0  0  0  0  0  0  0  0  0  0  0  0
   18.3317  -23.8045  -11.6014 N   0  0  0  0  0  0  0  0  0  0  0  0
   18.0057  -22.8699  -10.5821 C   0  0  0  0  0  0  0  0  0  0  0  0
   17.2390  -21.8425  -10.8518 N   0  0  0  0  0  0  0  0  0  0  0  0
   18.4778  -22.9884   -9.2491 N   0  0  0  0  0  0  0  0  0  0  0  0
   19.0709  -24.2285   -8.7520 C   0  0  0  0  0  0  0  0  0  0  0  0
   18.0088  -25.2316   -8.4152 C   0  0  0  0  0  0  0  0  0  0  0  0
   18.4704  -26.1309   -7.2934 C   0  0  0  0  0  0  0  0  0  0  0  0
   17.9082  -25.7324   -5.9507 C   0  0  2  0  0  0  0  0  0  0  0  0
   18.2392  -26.7730   -4.9692 N   0  0  0  0  0  0  0  0  0  0  0  0
   16.4146  -25.7643   -6.0782 C   0  0  0  0  0  0  0  0  0  0  0  0
   15.8967  -26.8612   -6.4017 O   0  0  0  0  0  0  0  0  0  0  0  0
   16.9874  -21.1821  -10.0638 N   0  0  0  0  0  0  0  0  0  0  0  0
   13.1612  -21.0383   -1.8093 C   0  0  0  0  0  0  0  0  0  0  0  0
   13.6155  -22.2308   -1.1475 N   0  0  0  0  0  0  0  0  0  0  0  0
   13.3293  -22.4611    0.0895 N   0  0  0  0  0  0  0  0  0  0  0  0
   14.3920  -23.1716   -1.8649 C   0  0  0  0  0  0  0  0  0  0  0  0
   14.5428  -23.0403   -3.2865 C   0  0  0  0  0  0  0  0  0  0  0  0
   13.3550  -23.6485   -3.9616 C   0  0  0  0  0  0  0  0  0  0  0  0
   13.4104  -23.6254   -5.4440 C   0  0  2  0  0  0  0  0  0  0  0  0
   14.1609  -24.7670   -6.0717 N   0  0  0  0  0  0  0  0  0  0  0  0
   15.5794  -24.6559   -5.8609 C   0  0  0  0  0  0  0  0  0  0  0  0
   13.9194  -24.9040   -7.5135 O   0  0  0  0  0  0  0  0  0  0  0  0
   12.8158  -25.5947   -7.9595 O   0  0  0  0  0  0  0  0  0  0  0  0
  2  1  1  1
  2 10  1  0
  2  3  1  0
  4  3  1  0
  5  4  2  0
  6  5  1  0
  7  8  1  0
  7  6  2  0
  8  9  2  0
  9  4  1  0
 10 20  1  0
 11 10  2  0
 13 15  1  0
 13 12  1  0
 14 13  2  0
 16 17  1  0
 16 15  1  0
 18 17  1  0
 19 18  1  6
 20 19  1  0
 21 31  1  0
 21 19  1  0
 22 21  2  0
 23 24  1  0
 24 25  2  0
 26 24  1  0
 26 27  1  0
 27 28  1  0
 28 29  1  0
 30 29  1  1
 30 32  1  0
 30 31  1  0
 32 33  1  0
 34 32  2  0
M  END
$$$$
