FRR.pdb
     RDKit          3D

 34 34  0  0  1  0  0  0  0  0999 V2000
   23.7254  -19.2574  -18.0890 N   0  0  0  0  0  0  0  0  0  0  0  0
   24.1712  -18.4575  -16.9675 C   0  0  1  0  0  0  0  0  0  0  0  0
   22.9541  -17.9209  -16.2592 C   0  0  0  0  0  0  0  0  0  0  0  0
   22.3850  -16.8444  -17.0953 C   0  0  0  0  0  0  0  0  0  0  0  0
   22.9875  -15.5872  -17.0972 C   0  0  0  0  0  0  0  0  0  0  0  0
   22.4318  -14.6030  -17.8902 C   0  0  0  0  0  0  0  0  0  0  0  0
   21.3216  -14.8389  -18.6578 C   0  0  0  0  0  0  0  0  0  0  0  0
   20.7192  -16.0730  -18.6646 C   0  0  0  0  0  0  0  0  0  0  0  0
   21.2785  -17.0489  -17.8720 C   0  0  0  0  0  0  0  0  0  0  0  0
   25.0048  -19.2540  -16.0155 C   0  0  0  0  0  0  0  0  0  0  0  0
   24.6720  -20.4088  -15.6588 O   0  0  0  0  0  0  0  0  0  0  0  0
   31.4778  -20.9200  -10.7905 N   0  0  0  0  0  0  0  0  0  0  0  0
   30.4439  -21.6836  -11.3960 C   0  0  0  0  0  0  0  0  0  0  0  0
   29.9594  -22.7365  -10.7855 N   0  0  0  0  0  0  0  0  0  0  0  0
   29.8901  -21.3623  -12.6624 N   0  0  0  0  0  0  0  0  0  0  0  0
   30.1126  -20.0609  -13.2900 C   0  0  0  0  0  0  0  0  0  0  0  0
   28.9949  -19.1146  -12.9690 C   0  0  0  0  0  0  0  0  0  0  0  0
   28.2855  -18.6895  -14.2324 C   0  0  0  0  0  0  0  0  0  0  0  0
   26.9993  -19.4435  -14.4669 C   0  0  2  0  0  0  0  0  0  0  0  0
   26.2085  -18.7309  -15.4782 N   0  0  0  0  0  0  0  0  0  0  0  0
   26.2038  -19.3503  -13.1994 C   0  0  0  0  0  0  0  0  0  0  0  0
   25.9353  -18.1970  -12.7822 O   0  0  0  0  0  0  0  0  0  0  0  0
   29.2024  -23.2951  -11.2704 N   0  0  0  0  0  0  0  0  0  0  0  0
   18.4446  -19.7958  -10.8219 C   0  0  0  0  0  0  0  0  0  0  0  0
   19.1464  -20.9976  -11.1823 N   0  0  0  0  0  0  0  0  0  0  0  0
   18.5493  -21.9646  -11.7935 N   0  0  0  0  0  0  0  0  0  0  0  0
   20.5187  -21.1246  -10.8610 C   0  0  0  0  0  0  0  0  0  0  0  0
   21.2849  -19.9598  -10.5191 C   0  0  0  0  0  0  0  0  0  0  0  0
   22.6967  -20.3680  -10.2420 C   0  0  0  0  0  0  0  0  0  0  0  0
   23.5373  -20.5390  -11.4525 C   0  0  1  0  0  0  0  0  0  0  0  0
   25.0031  -20.2703  -11.2537 N   0  0  0  0  0  0  0  0  0  0  0  0
   25.7520  -20.4605  -12.4669 C   0  0  0  0  0  0  0  0  0  0  0  0
   25.6122  -21.0955  -10.2029 O   0  0  0  0  0  0  0  0  0  0  0  0
   25.5018  -20.7154   -8.8848 O   0  0  0  0  0  0  0  0  0  0  0  0
  2  1  1  6
  2 10  1  0
  2  3  1  0
  4  3  1  0
  5  4  2  0
  6  5  1  0
  7  8  1  0
  7  6  2  0
  8  9  2  0
  9  4  1  0
 10 20  1  0
 11 10  2  0
 13 15  1  0
 13 12  1  0
 14 13  2  0
 16 17  1  0
 16 15  1  0
 18 17  1  0
 19 18  1  1
 20 19  1  0
 21 31  1  0
 21 19  1  0
 22 21  2  0
 23 24  1  0
 24 25  2  0
 26 24  1  0
 26 27  1  0
 27 28  1  0
 28 29  1  0
 30 29  1  6
 30 32  1  0
 30 31  1  0
 32 33  1  0
 34 32  2  0
M  END
$$$$
