FRR.pdb
     RDKit          3D

 34 34  0  0  1  0  0  0  0  0999 V2000
   25.8101  -17.9458  -19.5737 N   0  0  0  0  0  0  0  0  0  0  0  0
   25.8169  -17.9723  -18.1261 C   0  0  1  0  0  0  0  0  0  0  0  0
   24.9935  -16.8116  -17.6304 C   0  0  0  0  0  0  0  0  0  0  0  0
   25.7397  -15.5717  -17.9262 C   0  0  0  0  0  0  0  0  0  0  0  0
   25.2487  -14.6893  -18.8874 C   0  0  0  0  0  0  0  0  0  0  0  0
   25.9691  -13.5388  -19.1397 C   0  0  0  0  0  0  0  0  0  0  0  0
   27.1334  -13.2584  -18.4740 C   0  0  0  0  0  0  0  0  0  0  0  0
   27.6272  -14.1195  -17.5250 C   0  0  0  0  0  0  0  0  0  0  0  0
   26.9039  -15.2640  -17.2788 C   0  0  0  0  0  0  0  0  0  0  0  0
   25.2628  -19.2545  -17.5928 C   0  0  0  0  0  0  0  0  0  0  0  0
   24.3973  -19.9079  -18.2218 O   0  0  0  0  0  0  0  0  0  0  0  0
   28.5022  -25.5105  -16.5070 N   0  0  0  0  0  0  0  0  0  0  0  0
   29.5688  -24.6028  -16.7464 C   0  0  0  0  0  0  0  0  0  0  0  0
   30.4821  -24.8822  -17.6430 N   0  0  0  0  0  0  0  0  0  0  0  0
   29.7063  -23.3748  -16.0486 N   0  0  0  0  0  0  0  0  0  0  0  0
   28.6469  -22.8614  -15.1820 C   0  0  0  0  0  0  0  0  0  0  0  0
   27.4714  -22.4007  -15.9904 C   0  0  0  0  0  0  0  0  0  0  0  0
   26.4591  -21.7149  -15.1043 C   0  0  0  0  0  0  0  0  0  0  0  0
   25.3093  -21.1172  -15.8780 C   0  0  2  0  0  0  0  0  0  0  0  0
   25.6976  -19.7823  -16.3503 N   0  0  0  0  0  0  0  0  0  0  0  0
   24.1989  -20.8865  -14.8973 C   0  0  0  0  0  0  0  0  0  0  0  0
   24.3599  -19.9590  -14.0666 O   0  0  0  0  0  0  0  0  0  0  0  0
   31.2861  -24.2056  -17.7697 N   0  0  0  0  0  0  0  0  0  0  0  0
   18.2087  -25.7449  -10.8285 C   0  0  0  0  0  0  0  0  0  0  0  0
   17.7383  -24.4020  -10.6243 N   0  0  0  0  0  0  0  0  0  0  0  0
   16.7012  -24.1587   -9.8959 N   0  0  0  0  0  0  0  0  0  0  0  0
   18.4244  -23.3245  -11.2332 C   0  0  0  0  0  0  0  0  0  0  0  0
   19.4692  -23.5857  -12.1824 C   0  0  0  0  0  0  0  0  0  0  0  0
   19.9232  -22.2909  -12.7774 C   0  0  0  0  0  0  0  0  0  0  0  0
   20.9384  -22.4286  -13.8505 C   0  0  1  0  0  0  0  0  0  0  0  0
   22.0628  -21.4321  -13.7959 N   0  0  0  0  0  0  0  0  0  0  0  0
   23.0120  -21.6368  -14.8570 C   0  0  0  0  0  0  0  0  0  0  0  0
   22.7900  -21.4395  -12.5203 O   0  0  0  0  0  0  0  0  0  0  0  0
   23.7255  -22.4179  -12.2720 O   0  0  0  0  0  0  0  0  0  0  0  0
  2  1  1  6
  2 10  1  0
  2  3  1  0
  4  3  1  0
  5  4  2  0
  6  5  1  0
  7  8  1  0
  7  6  2  0
  8  9  2  0
  9  4  1  0
 10 20  1  0
 11 10  2  0
 13 15  1  0
 13 12  1  0
 14 13  2  0
 16 17  1  0
 16 15  1  0
 18 17  1  0
 19 18  1  1
 20 19  1  0
 21 31  1  0
 21 19  1  0
 22 21  2  0
 23 24  1  0
 24 25  2  0
 26 24  1  0
 26 27  1  0
 27 28  1  0
 28 29  1  0
 30 29  1  6
 30 32  1  0
 30 31  1  0
 32 33  1  0
 34 32  2  0
M  END
$$$$
