TPN.pdb
     RDKit          3D

 23 23  0  0  1  0  0  0  0  0999 V2000
    8.7309  -13.8187   17.2588 C   0  0  0  0  0  0  0  0  0  0  0  0
    9.0033  -14.5062   18.5796 C   0  0  1  0  0  0  0  0  0  0  0  0
    9.6386  -15.7109   18.3263 O   0  0  0  0  0  0  0  0  0  0  0  0
    9.8578  -13.5645   19.4073 C   0  0  2  0  0  0  0  0  0  0  0  0
   11.0605  -13.3195   18.6937 N   0  0  0  0  0  0  0  0  0  0  0  0
   10.1097  -14.0855   20.7515 C   0  0  0  0  0  0  0  0  0  0  0  0
   11.2832  -14.5532   21.0146 O   0  0  0  0  0  0  0  0  0  0  0  0
    9.1094  -14.0872   21.7514 N   0  0  0  0  0  0  0  0  0  0  0  0
    7.7860  -13.5448   21.6424 C   0  0  0  0  0  0  0  0  0  0  0  0
    7.0967  -13.7613   22.9808 C   0  0  0  0  0  0  0  0  0  0  0  0
    8.2235  -14.1224   23.8936 C   0  0  0  0  0  0  0  0  0  0  0  0
    9.3281  -14.6711   23.0629 C   0  0  1  0  0  0  0  0  0  0  0  0
    9.4230  -16.1333   23.0163 C   0  0  0  0  0  0  0  0  0  0  0  0
    8.9899  -16.7388   21.9765 O   0  0  0  0  0  0  0  0  0  0  0  0
   11.6486  -20.4843   21.8009 N   0  0  0  0  0  0  0  0  0  0  0  0
   12.3104  -19.4721   22.5561 C   0  0  0  0  0  0  0  0  0  0  0  0
   13.4497  -19.7378   22.9800 O   0  0  0  0  0  0  0  0  0  0  0  0
   11.6176  -18.2112   22.7780 C   0  0  0  0  0  0  0  0  0  0  0  0
   10.5045  -18.2962   23.7854 C   0  0  2  0  0  0  0  0  0  0  0  0
    9.9558  -16.9479   24.0271 N   0  0  0  0  0  0  0  0  0  0  0  0
   10.9501  -18.7507   25.1161 C   0  0  0  0  0  0  0  0  0  0  0  0
   10.6409  -20.0071   25.5670 O   0  0  0  0  0  0  0  0  0  0  0  0
   11.6159  -17.9995   25.8556 O   0  0  0  0  0  0  0  0  0  0  0  0
  2  1  1  6
  2  3  1  0
  4  2  1  0
  4  5  1  6
  6  8  1  0
  6  4  1  0
  7  6  2  0
  8 12  1  0
  9 10  1  0
  9  8  1  0
 10 11  1  0
 11 12  1  0
 12 13  1  6
 13 20  1  0
 14 13  2  0
 16 17  2  0
 16 15  1  0
 18 16  1  0
 19 20  1  0
 19 21  1  0
 19 18  1  6
 21 23  2  0
 21 22  1  0
M  END
$$$$
