TPN.pdb
     RDKit          3D

 23 23  0  0  1  0  0  0  0  0999 V2000
    6.5285  -17.1482   20.9592 C   0  0  0  0  0  0  0  0  0  0  0  0
    7.8400  -17.0477   20.2101 C   0  0  1  0  0  0  0  0  0  0  0  0
    7.5859  -17.1930   18.8560 O   0  0  0  0  0  0  0  0  0  0  0  0
    8.4443  -15.6964   20.5434 C   0  0  2  0  0  0  0  0  0  0  0  0
    9.4093  -15.3885   19.5487 N   0  0  0  0  0  0  0  0  0  0  0  0
    9.0114  -15.6632   21.8921 C   0  0  0  0  0  0  0  0  0  0  0  0
   10.1195  -16.2896   22.1036 O   0  0  0  0  0  0  0  0  0  0  0  0
    8.3799  -14.9702   22.9510 N   0  0  0  0  0  0  0  0  0  0  0  0
    7.2138  -14.1399   22.8586 C   0  0  0  0  0  0  0  0  0  0  0  0
    6.9345  -13.5956   24.2510 C   0  0  0  0  0  0  0  0  0  0  0  0
    8.1948  -13.8945   24.9964 C   0  0  0  0  0  0  0  0  0  0  0  0
    8.8706  -15.0312   24.3163 C   0  0  1  0  0  0  0  0  0  0  0  0
    8.6675  -16.3488   24.9262 C   0  0  0  0  0  0  0  0  0  0  0  0
    7.9315  -17.1965   24.3137 O   0  0  0  0  0  0  0  0  0  0  0  0
   11.9562  -20.0454   24.0338 N   0  0  0  0  0  0  0  0  0  0  0  0
   10.8569  -19.1652   24.2564 C   0  0  0  0  0  0  0  0  0  0  0  0
    9.7955  -19.4256   23.6613 O   0  0  0  0  0  0  0  0  0  0  0  0
   11.0472  -18.0349   25.1537 C   0  0  0  0  0  0  0  0  0  0  0  0
   10.0573  -17.9807   26.2844 C   0  0  2  0  0  0  0  0  0  0  0  0
    9.2167  -16.7761   26.1448 N   0  0  0  0  0  0  0  0  0  0  0  0
   10.6873  -17.8323   27.6099 C   0  0  0  0  0  0  0  0  0  0  0  0
   11.5597  -16.8058   27.8598 O   0  0  0  0  0  0  0  0  0  0  0  0
   10.4379  -18.6389   28.5274 O   0  0  0  0  0  0  0  0  0  0  0  0
  2  1  1  1
  2  3  1  0
  4  2  1  0
  4  5  1  6
  6  8  1  0
  6  4  1  0
  7  6  2  0
  8 12  1  0
  9 10  1  0
  9  8  1  0
 10 11  1  0
 11 12  1  0
 12 13  1  1
 13 20  1  0
 14 13  2  0
 16 17  2  0
 16 15  1  0
 18 16  1  0
 19 20  1  0
 19 21  1  0
 19 18  1  6
 21 23  2  0
 21 22  1  0
M  END
$$$$
