TPN.pdb
     RDKit          3D

 23 23  0  0  1  0  0  0  0  0999 V2000
    6.5141  -18.4962   18.3149 C   0  0  0  0  0  0  0  0  0  0  0  0
    7.6481  -17.5944   18.7529 C   0  0  1  0  0  0  0  0  0  0  0  0
    8.7436  -18.3836   19.0634 O   0  0  0  0  0  0  0  0  0  0  0  0
    7.9293  -16.6392   17.6080 C   0  0  2  0  0  0  0  0  0  0  0  0
    8.1996  -17.4109   16.4474 N   0  0  0  0  0  0  0  0  0  0  0  0
    9.0163  -15.7100   17.9189 C   0  0  0  0  0  0  0  0  0  0  0  0
   10.2185  -16.0463   17.5926 O   0  0  0  0  0  0  0  0  0  0  0  0
    8.7797  -14.4715   18.5596 N   0  0  0  0  0  0  0  0  0  0  0  0
    7.5155  -13.9664   19.0114 C   0  0  0  0  0  0  0  0  0  0  0  0
    7.7653  -12.5901   19.6084 C   0  0  0  0  0  0  0  0  0  0  0  0
    9.1437  -12.2559   19.1375 C   0  0  0  0  0  0  0  0  0  0  0  0
    9.8494  -13.5316   18.8444 C   0  0  1  0  0  0  0  0  0  0  0  0
   10.7541  -14.0133   19.8926 C   0  0  0  0  0  0  0  0  0  0  0  0
   11.7873  -13.3142   20.1740 O   0  0  0  0  0  0  0  0  0  0  0  0
   12.5991  -16.3233   24.1558 N   0  0  0  0  0  0  0  0  0  0  0  0
   11.2558  -15.8582   24.2637 C   0  0  0  0  0  0  0  0  0  0  0  0
   10.7432  -15.8706   25.3976 O   0  0  0  0  0  0  0  0  0  0  0  0
   10.5819  -15.4056   23.0554 C   0  0  0  0  0  0  0  0  0  0  0  0
   11.4094  -15.5441   21.8075 C   0  0  2  0  0  0  0  0  0  0  0  0
   10.5889  -15.1946   20.6319 N   0  0  0  0  0  0  0  0  0  0  0  0
   11.8493  -16.9273   21.5450 C   0  0  0  0  0  0  0  0  0  0  0  0
   13.1245  -17.1874   21.1166 O   0  0  0  0  0  0  0  0  0  0  0  0
   11.0684  -17.8856   21.7074 O   0  0  0  0  0  0  0  0  0  0  0  0
  2  1  1  6
  2  3  1  0
  4  2  1  0
  4  5  1  6
  6  8  1  0
  6  4  1  0
  7  6  2  0
  8 12  1  0
  9 10  1  0
  9  8  1  0
 10 11  1  0
 11 12  1  0
 12 13  1  1
 13 20  1  0
 14 13  2  0
 16 17  2  0
 16 15  1  0
 18 16  1  0
 19 20  1  0
 19 21  1  0
 19 18  1  1
 21 23  2  0
 21 22  1  0
M  END
$$$$
