TPN.pdb
     RDKit          3D

 23 23  0  0  1  0  0  0  0  0999 V2000
    6.2331  -16.1509   23.1720 C   0  0  0  0  0  0  0  0  0  0  0  0
    7.2755  -15.7838   22.1377 C   0  0  1  0  0  0  0  0  0  0  0  0
    6.7276  -15.9621   20.8778 O   0  0  0  0  0  0  0  0  0  0  0  0
    7.6754  -14.3432   22.3959 C   0  0  2  0  0  0  0  0  0  0  0  0
    8.4277  -13.8887   21.2809 N   0  0  0  0  0  0  0  0  0  0  0  0
    8.4065  -14.1906   23.6545 C   0  0  0  0  0  0  0  0  0  0  0  0
    9.6316  -14.5931   23.7011 O   0  0  0  0  0  0  0  0  0  0  0  0
    7.8072  -13.6207   24.8018 N   0  0  0  0  0  0  0  0  0  0  0  0
    6.4798  -13.0863   24.9012 C   0  0  0  0  0  0  0  0  0  0  0  0
    6.3063  -12.5664   26.3199 C   0  0  0  0  0  0  0  0  0  0  0  0
    7.7038  -12.5364   26.8485 C   0  0  0  0  0  0  0  0  0  0  0  0
    8.5098  -13.5125   26.0681 C   0  0  1  0  0  0  0  0  0  0  0  0
    8.7208  -14.8161   26.7047 C   0  0  0  0  0  0  0  0  0  0  0  0
    7.7901  -15.6897   26.6268 O   0  0  0  0  0  0  0  0  0  0  0  0
   11.7846  -19.4445   26.1452 N   0  0  0  0  0  0  0  0  0  0  0  0
   11.6987  -18.4744   27.1865 C   0  0  0  0  0  0  0  0  0  0  0  0
   12.0236  -18.8429   28.3298 O   0  0  0  0  0  0  0  0  0  0  0  0
   11.2424  -17.1345   26.8469 C   0  0  0  0  0  0  0  0  0  0  0  0
   10.1788  -16.6013   27.7664 C   0  0  2  0  0  0  0  0  0  0  0  0
    9.8728  -15.2034   27.4063 N   0  0  0  0  0  0  0  0  0  0  0  0
   10.6044  -16.5280   29.1768 C   0  0  0  0  0  0  0  0  0  0  0  0
   10.4777  -17.6130   30.0040 O   0  0  0  0  0  0  0  0  0  0  0  0
   11.0868  -15.4769   29.6426 O   0  0  0  0  0  0  0  0  0  0  0  0
  2  1  1  1
  2  3  1  0
  4  2  1  0
  4  5  1  6
  6  8  1  0
  6  4  1  0
  7  6  2  0
  8 12  1  0
  9 10  1  0
  9  8  1  0
 10 11  1  0
 11 12  1  0
 12 13  1  1
 13 20  1  0
 14 13  2  0
 16 17  2  0
 16 15  1  0
 18 16  1  0
 19 20  1  0
 19 21  1  0
 19 18  1  6
 21 23  2  0
 21 22  1  0
M  END
$$$$
