TPN.pdb
     RDKit          3D

 23 23  0  0  1  0  0  0  0  0999 V2000
    6.6019  -17.9164   18.1374 C   0  0  0  0  0  0  0  0  0  0  0  0
    7.9136  -18.0244   17.3898 C   0  0  1  0  0  0  0  0  0  0  0  0
    7.6739  -18.6237   16.1640 O   0  0  0  0  0  0  0  0  0  0  0  0
    8.4659  -16.6183   17.2480 C   0  0  2  0  0  0  0  0  0  0  0  0
    9.4158  -16.6229   16.1930 N   0  0  0  0  0  0  0  0  0  0  0  0
    9.0346  -16.1198   18.5010 C   0  0  0  0  0  0  0  0  0  0  0  0
   10.0854  -16.7042   18.9691 O   0  0  0  0  0  0  0  0  0  0  0  0
    8.4649  -15.0289   19.1978 N   0  0  0  0  0  0  0  0  0  0  0  0
    7.3569  -14.2231   18.7727 C   0  0  0  0  0  0  0  0  0  0  0  0
    7.1327  -13.1629   19.8399 C   0  0  0  0  0  0  0  0  0  0  0  0
    8.3791  -13.2329   20.6615 C   0  0  0  0  0  0  0  0  0  0  0  0
    8.9674  -14.5874   20.4867 C   0  0  1  0  0  0  0  0  0  0  0  0
    8.6829  -15.5474   21.5575 C   0  0  0  0  0  0  0  0  0  0  0  0
    7.6062  -15.4051   22.2327 O   0  0  0  0  0  0  0  0  0  0  0  0
   12.9004  -17.4295   21.3401 N   0  0  0  0  0  0  0  0  0  0  0  0
   12.8964  -16.3654   22.2889 C   0  0  0  0  0  0  0  0  0  0  0  0
   13.9771  -16.1023   22.8469 O   0  0  0  0  0  0  0  0  0  0  0  0
   11.6441  -15.6665   22.5384 C   0  0  0  0  0  0  0  0  0  0  0  0
   10.5219  -16.5649   22.9796 C   0  0  2  0  0  0  0  0  0  0  0  0
    9.4985  -16.6308   21.9186 N   0  0  0  0  0  0  0  0  0  0  0  0
    9.7921  -16.0582   24.1571 C   0  0  0  0  0  0  0  0  0  0  0  0
    8.9747  -16.8840   24.8832 O   0  0  0  0  0  0  0  0  0  0  0  0
    9.9052  -14.8687   24.5131 O   0  0  0  0  0  0  0  0  0  0  0  0
  2  1  1  1
  2  3  1  0
  4  2  1  0
  4  5  1  6
  6  8  1  0
  6  4  1  0
  7  6  2  0
  8 12  1  0
  9 10  1  0
  9  8  1  0
 10 11  1  0
 11 12  1  0
 12 13  1  1
 13 20  1  0
 14 13  2  0
 16 17  2  0
 16 15  1  0
 18 16  1  0
 19 20  1  0
 19 21  1  0
 19 18  1  6
 21 23  2  0
 21 22  1  0
M  END
$$$$
