TPN.pdb
     RDKit          3D

 23 23  0  0  1  0  0  0  0  0999 V2000
    7.2959  -17.3278   16.9439 C   0  0  0  0  0  0  0  0  0  0  0  0
    8.4382  -17.0372   15.9941 C   0  0  1  0  0  0  0  0  0  0  0  0
    8.0407  -17.3752   14.7108 O   0  0  0  0  0  0  0  0  0  0  0  0
    8.7682  -15.5623   16.1278 C   0  0  2  0  0  0  0  0  0  0  0  0
    9.5861  -15.1929   15.0278 N   0  0  0  0  0  0  0  0  0  0  0  0
    9.3972  -15.2519   17.4123 C   0  0  0  0  0  0  0  0  0  0  0  0
   10.5853  -15.7033   17.6348 O   0  0  0  0  0  0  0  0  0  0  0  0
    8.7398  -14.4802   18.3985 N   0  0  0  0  0  0  0  0  0  0  0  0
    7.4019  -13.9667   18.3359 C   0  0  0  0  0  0  0  0  0  0  0  0
    7.1585  -13.1809   19.6151 C   0  0  0  0  0  0  0  0  0  0  0  0
    8.5307  -13.0156   20.1836 C   0  0  0  0  0  0  0  0  0  0  0  0
    9.3840  -14.1083   19.6457 C   0  0  1  0  0  0  0  0  0  0  0  0
    9.5848  -15.2554   20.5362 C   0  0  0  0  0  0  0  0  0  0  0  0
    8.7530  -16.2250   20.4774 O   0  0  0  0  0  0  0  0  0  0  0  0
   13.2115  -17.7192   19.7090 N   0  0  0  0  0  0  0  0  0  0  0  0
   12.1755  -17.9630   20.6576 C   0  0  0  0  0  0  0  0  0  0  0  0
   11.3213  -18.8156   20.3544 O   0  0  0  0  0  0  0  0  0  0  0  0
   12.1860  -17.2076   21.9019 C   0  0  0  0  0  0  0  0  0  0  0  0
   10.8538  -16.6122   22.2649 C   0  0  2  0  0  0  0  0  0  0  0  0
   10.6263  -15.3922   21.4667 N   0  0  0  0  0  0  0  0  0  0  0  0
   10.7785  -16.1501   23.6637 C   0  0  0  0  0  0  0  0  0  0  0  0
   10.4707  -17.0229   24.6741 O   0  0  0  0  0  0  0  0  0  0  0  0
   10.9928  -14.9563   23.9524 O   0  0  0  0  0  0  0  0  0  0  0  0
  2  1  1  1
  2  3  1  0
  4  2  1  0
  4  5  1  6
  6  8  1  0
  6  4  1  0
  7  6  2  0
  8 12  1  0
  9 10  1  0
  9  8  1  0
 10 11  1  0
 11 12  1  0
 12 13  1  1
 13 20  1  0
 14 13  2  0
 16 17  2  0
 16 15  1  0
 18 16  1  0
 19 20  1  0
 19 21  1  0
 19 18  1  6
 21 23  2  0
 21 22  1  0
M  END
$$$$
