TPN.pdb
     RDKit          3D

 23 23  0  0  1  0  0  0  0  0999 V2000
    7.6206  -17.1967   16.4981 C   0  0  0  0  0  0  0  0  0  0  0  0
    8.8813  -16.7870   15.7673 C   0  0  1  0  0  0  0  0  0  0  0  0
    8.6878  -16.9857   14.4100 O   0  0  0  0  0  0  0  0  0  0  0  0
    9.1437  -15.3318   16.1072 C   0  0  2  0  0  0  0  0  0  0  0  0
   10.0948  -14.8282   15.1812 N   0  0  0  0  0  0  0  0  0  0  0  0
    9.5780  -15.1587   17.4940 C   0  0  0  0  0  0  0  0  0  0  0  0
   10.7402  -15.6074   17.8300 O   0  0  0  0  0  0  0  0  0  0  0  0
    8.7628  -14.5204   18.4576 N   0  0  0  0  0  0  0  0  0  0  0  0
    7.4180  -14.0569   18.2729 C   0  0  0  0  0  0  0  0  0  0  0  0
    6.9758  -13.4186   19.5806 C   0  0  0  0  0  0  0  0  0  0  0  0
    8.2557  -13.2589   20.3355 C   0  0  0  0  0  0  0  0  0  0  0  0
    9.2258  -14.2549   19.8081 C   0  0  1  0  0  0  0  0  0  0  0  0
    9.3741  -15.4794   20.6004 C   0  0  0  0  0  0  0  0  0  0  0  0
    9.0170  -16.5903   20.0771 O   0  0  0  0  0  0  0  0  0  0  0  0
   12.6104  -18.4250   19.7932 N   0  0  0  0  0  0  0  0  0  0  0  0
   12.1026  -18.2307   21.1112 C   0  0  0  0  0  0  0  0  0  0  0  0
   11.8641  -19.2521   21.7807 O   0  0  0  0  0  0  0  0  0  0  0  0
   11.8997  -16.8675   21.5796 C   0  0  0  0  0  0  0  0  0  0  0  0
   10.6654  -16.6889   22.4196 C   0  0  2  0  0  0  0  0  0  0  0  0
    9.8822  -15.5483   21.9067 N   0  0  0  0  0  0  0  0  0  0  0  0
   10.9552  -16.3296   23.8206 C   0  0  0  0  0  0  0  0  0  0  0  0
   10.9006  -17.2742   24.8116 O   0  0  0  0  0  0  0  0  0  0  0  0
   11.2546  -15.1592   24.1290 O   0  0  0  0  0  0  0  0  0  0  0  0
  2  1  1  1
  2  3  1  0
  4  2  1  0
  4  5  1  6
  6  8  1  0
  6  4  1  0
  7  6  2  0
  8 12  1  0
  9 10  1  0
  9  8  1  0
 10 11  1  0
 11 12  1  0
 12 13  1  1
 13 20  1  0
 14 13  2  0
 16 17  2  0
 16 15  1  0
 18 16  1  0
 19 20  1  0
 19 21  1  0
 19 18  1  6
 21 23  2  0
 21 22  1  0
M  END
$$$$
