TPN.pdb
     RDKit          3D

 23 23  0  0  1  0  0  0  0  0999 V2000
    7.8653  -16.3979   14.2058 C   0  0  0  0  0  0  0  0  0  0  0  0
    8.1268  -16.3090   15.6940 C   0  0  1  0  0  0  0  0  0  0  0  0
    8.5079  -17.5605   16.1497 O   0  0  0  0  0  0  0  0  0  0  0  0
    9.2089  -15.2651   15.8975 C   0  0  2  0  0  0  0  0  0  0  0  0
   10.3237  -15.6247   15.0954 N   0  0  0  0  0  0  0  0  0  0  0  0
    9.5697  -15.1120   17.3076 C   0  0  0  0  0  0  0  0  0  0  0  0
   10.5861  -15.7707   17.7523 O   0  0  0  0  0  0  0  0  0  0  0  0
    8.8386  -14.2708   18.1783 N   0  0  0  0  0  0  0  0  0  0  0  0
    7.6598  -13.5193   17.8569 C   0  0  0  0  0  0  0  0  0  0  0  0
    7.2583  -12.7510   19.1065 C   0  0  0  0  0  0  0  0  0  0  0  0
    8.4655  -12.8609   19.9806 C   0  0  0  0  0  0  0  0  0  0  0  0
    9.2241  -14.0701   19.5639 C   0  0  1  0  0  0  0  0  0  0  0  0
    9.0125  -15.2673   20.3832 C   0  0  0  0  0  0  0  0  0  0  0  0
    8.3230  -16.2265   19.8932 O   0  0  0  0  0  0  0  0  0  0  0  0
   11.5640  -18.9378   22.8748 N   0  0  0  0  0  0  0  0  0  0  0  0
   11.9674  -18.2965   21.6671 C   0  0  0  0  0  0  0  0  0  0  0  0
   12.9267  -18.7990   21.0541 O   0  0  0  0  0  0  0  0  0  0  0  0
   11.2395  -17.1115   21.2372 C   0  0  0  0  0  0  0  0  0  0  0  0
   10.1038  -16.7305   22.1461 C   0  0  2  0  0  0  0  0  0  0  0  0
    9.5061  -15.4636   21.6820 N   0  0  0  0  0  0  0  0  0  0  0  0
   10.5288  -16.4461   23.5296 C   0  0  0  0  0  0  0  0  0  0  0  0
   10.1531  -17.2668   24.5605 O   0  0  0  0  0  0  0  0  0  0  0  0
   11.2374  -15.4529   23.7868 O   0  0  0  0  0  0  0  0  0  0  0  0
  2  1  1  6
  2  3  1  0
  4  2  1  0
  4  5  1  6
  6  8  1  0
  6  4  1  0
  7  6  2  0
  8 12  1  0
  9 10  1  0
  9  8  1  0
 10 11  1  0
 11 12  1  0
 12 13  1  1
 13 20  1  0
 14 13  2  0
 16 17  2  0
 16 15  1  0
 18 16  1  0
 19 20  1  0
 19 21  1  0
 19 18  1  6
 21 23  2  0
 21 22  1  0
M  END
$$$$
