TPN.pdb
     RDKit          3D

 23 23  0  0  1  0  0  0  0  0999 V2000
    7.7828  -14.7075   16.0787 C   0  0  0  0  0  0  0  0  0  0  0  0
    8.4608  -14.9652   17.4072 C   0  0  1  0  0  0  0  0  0  0  0  0
    9.7814  -15.3090   17.1683 O   0  0  0  0  0  0  0  0  0  0  0  0
    8.3330  -13.6964   18.2294 C   0  0  2  0  0  0  0  0  0  0  0  0
    8.8192  -12.6151   17.4484 N   0  0  0  0  0  0  0  0  0  0  0  0
    9.0215  -13.8013   19.5166 C   0  0  0  0  0  0  0  0  0  0  0  0
   10.2720  -13.4871   19.5670 O   0  0  0  0  0  0  0  0  0  0  0  0
    8.3551  -14.2334   20.6868 N   0  0  0  0  0  0  0  0  0  0  0  0
    6.9741  -14.6039   20.8010 C   0  0  0  0  0  0  0  0  0  0  0  0
    6.7221  -14.9679   22.2561 C   0  0  0  0  0  0  0  0  0  0  0  0
    7.9325  -14.4415   22.9569 C   0  0  0  0  0  0  0  0  0  0  0  0
    9.0359  -14.3559   21.9637 C   0  0  1  0  0  0  0  0  0  0  0  0
    9.9960  -15.4636   21.9826 C   0  0  0  0  0  0  0  0  0  0  0  0
    9.6948  -16.5412   21.3634 O   0  0  0  0  0  0  0  0  0  0  0  0
   13.7278  -14.4307   20.4687 N   0  0  0  0  0  0  0  0  0  0  0  0
   13.4342  -15.7985   20.7433 C   0  0  0  0  0  0  0  0  0  0  0  0
   13.1530  -16.5220   19.7707 O   0  0  0  0  0  0  0  0  0  0  0  0
   13.4824  -16.2517   22.1258 C   0  0  0  0  0  0  0  0  0  0  0  0
   12.1398  -16.6205   22.6937 C   0  0  2  0  0  0  0  0  0  0  0  0
   11.2410  -15.4519   22.6300 N   0  0  0  0  0  0  0  0  0  0  0  0
   12.1833  -16.9674   24.1267 C   0  0  0  0  0  0  0  0  0  0  0  0
   11.5166  -16.2077   25.0518 O   0  0  0  0  0  0  0  0  0  0  0  0
   12.8282  -17.9582   24.5228 O   0  0  0  0  0  0  0  0  0  0  0  0
  2  1  1  6
  2  3  1  0
  4  2  1  0
  4  5  1  6
  6  8  1  0
  6  4  1  0
  7  6  2  0
  8 12  1  0
  9 10  1  0
  9  8  1  0
 10 11  1  0
 11 12  1  0
 12 13  1  6
 13 20  1  0
 14 13  2  0
 16 17  2  0
 16 15  1  0
 18 16  1  0
 19 20  1  0
 19 21  1  0
 19 18  1  1
 21 23  2  0
 21 22  1  0
M  END
$$$$
