TPN.pdb
     RDKit          3D

 23 23  0  0  1  0  0  0  0  0999 V2000
    7.8951  -16.8150   14.8886 C   0  0  0  0  0  0  0  0  0  0  0  0
    8.1741  -16.5433   16.3513 C   0  0  1  0  0  0  0  0  0  0  0  0
    8.6154  -17.7168   16.9408 O   0  0  0  0  0  0  0  0  0  0  0  0
    9.2132  -15.4393   16.4121 C   0  0  2  0  0  0  0  0  0  0  0  0
   10.3267  -15.8394   15.6276 N   0  0  0  0  0  0  0  0  0  0  0  0
    9.5944  -15.1155   17.7874 C   0  0  0  0  0  0  0  0  0  0  0  0
   10.6613  -15.6586   18.2688 O   0  0  0  0  0  0  0  0  0  0  0  0
    8.8296  -14.2342   18.5866 N   0  0  0  0  0  0  0  0  0  0  0  0
    7.6662  -13.4991   18.1817 C   0  0  0  0  0  0  0  0  0  0  0  0
    7.2150  -12.6725   19.3759 C   0  0  0  0  0  0  0  0  0  0  0  0
    8.3850  -12.7406   20.3032 C   0  0  0  0  0  0  0  0  0  0  0  0
    9.1581  -13.9680   19.9758 C   0  0  1  0  0  0  0  0  0  0  0  0
    8.9110  -15.1251   20.8414 C   0  0  0  0  0  0  0  0  0  0  0  0
    8.1668  -16.0672   20.4010 O   0  0  0  0  0  0  0  0  0  0  0  0
   10.5208  -19.2420   22.3185 N   0  0  0  0  0  0  0  0  0  0  0  0
   11.3030  -18.3845   21.4906 C   0  0  0  0  0  0  0  0  0  0  0  0
   12.0749  -18.9307   20.6817 O   0  0  0  0  0  0  0  0  0  0  0  0
   11.1484  -16.9453   21.6449 C   0  0  0  0  0  0  0  0  0  0  0  0
   10.0582  -16.5484   22.6015 C   0  0  2  0  0  0  0  0  0  0  0  0
    9.4255  -15.2994   22.1353 N   0  0  0  0  0  0  0  0  0  0  0  0
   10.5523  -16.2227   23.9526 C   0  0  0  0  0  0  0  0  0  0  0  0
   11.5056  -15.2557   24.1357 O   0  0  0  0  0  0  0  0  0  0  0  0
   10.1119  -16.8220   24.9534 O   0  0  0  0  0  0  0  0  0  0  0  0
  2  1  1  6
  2  3  1  0
  4  2  1  0
  4  5  1  6
  6  8  1  0
  6  4  1  0
  7  6  2  0
  8 12  1  0
  9 10  1  0
  9  8  1  0
 10 11  1  0
 11 12  1  0
 12 13  1  1
 13 20  1  0
 14 13  2  0
 16 17  2  0
 16 15  1  0
 18 16  1  0
 19 20  1  0
 19 21  1  0
 19 18  1  6
 21 23  2  0
 21 22  1  0
M  END
$$$$
