GQG.pdb
     RDKit          3D

 18 17  0  0  1  0  0  0  0  0999 V2000
    8.4259  -13.5323   17.7111 N   0  0  0  0  0  0  0  0  0  0  0  0
    7.8671  -14.3227   18.7838 C   0  0  0  0  0  0  0  0  0  0  0  0
    8.7492  -14.4000   19.9550 C   0  0  0  0  0  0  0  0  0  0  0  0
    9.9554  -13.9904   19.9463 O   0  0  0  0  0  0  0  0  0  0  0  0
    7.5241  -14.2306   26.2237 N   0  0  0  0  0  0  0  0  0  0  0  0
    6.9892  -13.5306   25.1211 C   0  0  0  0  0  0  0  0  0  0  0  0
    6.1809  -12.5623   25.3138 O   0  0  0  0  0  0  0  0  0  0  0  0
    7.3523  -13.8932   23.7487 C   0  0  0  0  0  0  0  0  0  0  0  0
    8.2059  -15.0873   23.5748 C   0  0  0  0  0  0  0  0  0  0  0  0
    9.0462  -15.1732   22.3620 C   0  0  2  0  0  0  0  0  0  0  0  0
    8.2384  -14.9551   21.1517 N   0  0  0  0  0  0  0  0  0  0  0  0
    9.9258  -16.2949   22.1462 C   0  0  0  0  0  0  0  0  0  0  0  0
    9.5694  -17.4613   21.7818 O   0  0  0  0  0  0  0  0  0  0  0  0
   11.3462  -16.1275   22.3495 N   0  0  0  0  0  0  0  0  0  0  0  0
   12.2458  -17.2685   22.1730 C   0  0  0  0  0  0  0  0  0  0  0  0
   13.6127  -16.8570   22.5365 C   0  0  0  0  0  0  0  0  0  0  0  0
   13.8376  -15.6526   22.8396 O   0  0  0  0  0  0  0  0  0  0  0  0
   14.6820  -17.7271   22.5657 O   0  0  0  0  0  0  0  0  0  0  0  0
  1  2  1  0
  3  2  1  0
  3  4  2  0
  5  6  1  0
  6  8  1  0
  7  6  2  0
  9  8  1  0
 10  9  1  1
 10 11  1  0
 11  3  1  0
 12 10  1  0
 12 13  2  0
 14 12  1  0
 15 14  1  0
 15 16  1  0
 16 17  2  0
 16 18  1  0
M  END
$$$$
