GQG.pdb
     RDKit          3D

 18 17  0  0  1  0  0  0  0  0999 V2000
    7.7820  -13.4818   18.6384 N   0  0  0  0  0  0  0  0  0  0  0  0
    7.0136  -13.8736   19.7977 C   0  0  0  0  0  0  0  0  0  0  0  0
    7.7755  -13.7708   21.0486 C   0  0  0  0  0  0  0  0  0  0  0  0
    9.0209  -13.5058   21.0854 O   0  0  0  0  0  0  0  0  0  0  0  0
    5.2556  -12.0352   26.5880 N   0  0  0  0  0  0  0  0  0  0  0  0
    6.5830  -12.3862   26.9140 C   0  0  0  0  0  0  0  0  0  0  0  0
    7.0580  -12.0840   28.0591 O   0  0  0  0  0  0  0  0  0  0  0  0
    7.4310  -13.1023   25.9574 C   0  0  0  0  0  0  0  0  0  0  0  0
    6.9095  -13.2543   24.5828 C   0  0  0  0  0  0  0  0  0  0  0  0
    7.7565  -13.9453   23.5880 C   0  0  2  0  0  0  0  0  0  0  0  0
    7.0971  -13.9750   22.2730 N   0  0  0  0  0  0  0  0  0  0  0  0
    8.3165  -15.2446   23.8644 C   0  0  0  0  0  0  0  0  0  0  0  0
    7.6546  -16.3126   24.0686 O   0  0  0  0  0  0  0  0  0  0  0  0
    9.7518  -15.3964   23.9250 N   0  0  0  0  0  0  0  0  0  0  0  0
   10.3326  -16.7030   24.2374 C   0  0  0  0  0  0  0  0  0  0  0  0
   11.8008  -16.5833   24.2363 C   0  0  0  0  0  0  0  0  0  0  0  0
   12.3375  -15.5417   23.7672 O   0  0  0  0  0  0  0  0  0  0  0  0
   12.6398  -17.5613   24.7271 O   0  0  0  0  0  0  0  0  0  0  0  0
  1  2  1  0
  3  2  1  0
  3  4  2  0
  5  6  1  0
  6  8  1  0
  7  6  2  0
  9  8  1  0
 10  9  1  1
 10 11  1  0
 11  3  1  0
 12 10  1  0
 12 13  2  0
 14 12  1  0
 15 14  1  0
 15 16  1  0
 16 17  2  0
 16 18  1  0
M  END
$$$$
