GQG.pdb
     RDKit          3D

 18 17  0  0  1  0  0  0  0  0999 V2000
    6.5454  -19.0903   19.3614 N   0  0  0  0  0  0  0  0  0  0  0  0
    6.2396  -17.8705   20.0730 C   0  0  0  0  0  0  0  0  0  0  0  0
    7.3987  -16.9784   20.2006 C   0  0  0  0  0  0  0  0  0  0  0  0
    8.5704  -17.3004   19.8183 O   0  0  0  0  0  0  0  0  0  0  0  0
    9.6413  -13.3640   18.4255 N   0  0  0  0  0  0  0  0  0  0  0  0
    8.2684  -13.1565   18.1735 C   0  0  0  0  0  0  0  0  0  0  0  0
    7.8551  -13.0212   16.9739 O   0  0  0  0  0  0  0  0  0  0  0  0
    7.2997  -13.0995   19.2715 C   0  0  0  0  0  0  0  0  0  0  0  0
    7.8149  -13.3539   20.6333 C   0  0  0  0  0  0  0  0  0  0  0  0
    8.2881  -14.7163   20.9566 C   0  0  2  0  0  0  0  0  0  0  0  0
    7.2088  -15.6997   20.7750 N   0  0  0  0  0  0  0  0  0  0  0  0
    8.9720  -14.9900   22.1959 C   0  0  0  0  0  0  0  0  0  0  0  0
    8.4678  -14.8966   23.3609 O   0  0  0  0  0  0  0  0  0  0  0  0
   10.3536  -15.4104   22.1618 N   0  0  0  0  0  0  0  0  0  0  0  0
   11.0359  -15.7687   23.4061 C   0  0  0  0  0  0  0  0  0  0  0  0
   12.4580  -16.0178   23.1140 C   0  0  0  0  0  0  0  0  0  0  0  0
   12.8582  -15.9955   21.9171 O   0  0  0  0  0  0  0  0  0  0  0  0
   13.3962  -16.2792   24.0900 O   0  0  0  0  0  0  0  0  0  0  0  0
  1  2  1  0
  3  2  1  0
  3  4  2  0
  5  6  1  0
  6  8  1  0
  7  6  2  0
  9  8  1  0
 10  9  1  1
 10 11  1  0
 11  3  1  0
 12 10  1  0
 12 13  2  0
 14 12  1  0
 15 14  1  0
 15 16  1  0
 16 17  2  0
 16 18  1  0
M  END
$$$$
