GQG.pdb
     RDKit          3D

 18 17  0  0  1  0  0  0  0  0999 V2000
   13.2401  -21.1916   25.3847 N   0  0  0  0  0  0  0  0  0  0  0  0
   13.5919  -21.9316   26.5748 C   0  0  0  0  0  0  0  0  0  0  0  0
   13.2660  -21.2111   27.8119 C   0  0  0  0  0  0  0  0  0  0  0  0
   12.8264  -20.0156   27.8260 O   0  0  0  0  0  0  0  0  0  0  0  0
   10.8737  -22.3155   33.4123 N   0  0  0  0  0  0  0  0  0  0  0  0
   11.0218  -23.3269   32.4393 C   0  0  0  0  0  0  0  0  0  0  0  0
   10.7591  -24.5395   32.7371 O   0  0  0  0  0  0  0  0  0  0  0  0
   11.4688  -23.0076   31.0809 C   0  0  0  0  0  0  0  0  0  0  0  0
   11.7860  -21.5926   30.7952 C   0  0  0  0  0  0  0  0  0  0  0  0
   13.1572  -21.2605   30.3546 C   0  0  2  0  0  0  0  0  0  0  0  0
   13.4477  -21.8731   29.0487 N   0  0  0  0  0  0  0  0  0  0  0  0
   14.2861  -21.4570   31.2294 C   0  0  0  0  0  0  0  0  0  0  0  0
   14.9306  -22.5442   31.3806 O   0  0  0  0  0  0  0  0  0  0  0  0
   14.7638  -20.3499   32.0250 N   0  0  0  0  0  0  0  0  0  0  0  0
   15.9689  -20.5067   32.8406 C   0  0  0  0  0  0  0  0  0  0  0  0
   15.6128  -21.2102   34.0848 C   0  0  0  0  0  0  0  0  0  0  0  0
   16.4981  -21.4018   34.9639 O   0  0  0  0  0  0  0  0  0  0  0  0
   14.3445  -21.6811   34.3512 O   0  0  0  0  0  0  0  0  0  0  0  0
  1  2  1  0
  3  2  1  0
  3  4  2  0
  5  6  1  0
  6  8  1  0
  7  6  2  0
  9  8  1  0
 10  9  1  1
 10 11  1  0
 11  3  1  0
 12 10  1  0
 12 13  2  0
 14 12  1  0
 15 14  1  0
 15 16  1  0
 16 17  2  0
 16 18  1  0
M  END
$$$$
