GQG.pdb
     RDKit          3D

 18 17  0  0  1  0  0  0  0  0999 V2000
    7.8052  -19.0439   18.4833 N   0  0  0  0  0  0  0  0  0  0  0  0
    7.1277  -18.0470   19.2803 C   0  0  0  0  0  0  0  0  0  0  0  0
    8.0434  -17.0448   19.8396 C   0  0  0  0  0  0  0  0  0  0  0  0
    9.3111  -17.1339   19.7513 O   0  0  0  0  0  0  0  0  0  0  0  0
    9.6502  -12.8523   18.9069 N   0  0  0  0  0  0  0  0  0  0  0  0
    8.3080  -12.9946   18.4948 C   0  0  0  0  0  0  0  0  0  0  0  0
    8.0201  -12.9872   17.2517 O   0  0  0  0  0  0  0  0  0  0  0  0
    7.2309  -13.1585   19.4746 C   0  0  0  0  0  0  0  0  0  0  0  0
    7.6270  -13.5265   20.8502 C   0  0  0  0  0  0  0  0  0  0  0  0
    8.3023  -14.8247   21.0577 C   0  0  2  0  0  0  0  0  0  0  0  0
    7.4951  -15.9257   20.5090 N   0  0  0  0  0  0  0  0  0  0  0  0
    8.7971  -15.2047   22.3574 C   0  0  0  0  0  0  0  0  0  0  0  0
    8.1078  -15.2748   23.4253 O   0  0  0  0  0  0  0  0  0  0  0  0
   10.1928  -15.5448   22.5098 N   0  0  0  0  0  0  0  0  0  0  0  0
   10.7133  -15.9081   23.8286 C   0  0  0  0  0  0  0  0  0  0  0  0
   12.1473  -16.2209   23.7042 C   0  0  0  0  0  0  0  0  0  0  0  0
   12.6767  -16.2578   22.5590 O   0  0  0  0  0  0  0  0  0  0  0  0
   12.9614  -16.4811   24.7863 O   0  0  0  0  0  0  0  0  0  0  0  0
  1  2  1  0
  3  2  1  0
  3  4  2  0
  5  6  1  0
  6  8  1  0
  7  6  2  0
  9  8  1  0
 10  9  1  1
 10 11  1  0
 11  3  1  0
 12 10  1  0
 12 13  2  0
 14 12  1  0
 15 14  1  0
 15 16  1  0
 16 17  2  0
 16 18  1  0
M  END
$$$$
