GQG.pdb
     RDKit          3D

 18 17  0  0  1  0  0  0  0  0999 V2000
   10.2512  -18.2596   20.2192 N   0  0  0  0  0  0  0  0  0  0  0  0
   11.5098  -18.3194   20.9264 C   0  0  0  0  0  0  0  0  0  0  0  0
   11.5964  -17.3442   22.0205 C   0  0  0  0  0  0  0  0  0  0  0  0
   10.7219  -16.4390   22.2172 O   0  0  0  0  0  0  0  0  0  0  0  0
   13.0390  -19.0150   27.5949 N   0  0  0  0  0  0  0  0  0  0  0  0
   11.9154  -19.0984   26.7451 C   0  0  0  0  0  0  0  0  0  0  0  0
   10.9817  -19.9284   27.0049 O   0  0  0  0  0  0  0  0  0  0  0  0
   11.7966  -18.2388   25.5644 C   0  0  0  0  0  0  0  0  0  0  0  0
   12.8988  -17.2860   25.3158 C   0  0  0  0  0  0  0  0  0  0  0  0
   12.8837  -16.5159   24.0544 C   0  0  2  0  0  0  0  0  0  0  0  0
   12.7024  -17.4101   22.9000 N   0  0  0  0  0  0  0  0  0  0  0  0
   13.9227  -15.5626   23.7541 C   0  0  0  0  0  0  0  0  0  0  0  0
   14.3241  -14.6317   24.5239 O   0  0  0  0  0  0  0  0  0  0  0  0
   14.5964  -15.6311   22.4780 N   0  0  0  0  0  0  0  0  0  0  0  0
   15.5947  -14.6201   22.1273 C   0  0  0  0  0  0  0  0  0  0  0  0
   16.9330  -15.1375   22.4607 C   0  0  0  0  0  0  0  0  0  0  0  0
   17.0384  -16.1435   23.2156 O   0  0  0  0  0  0  0  0  0  0  0  0
   18.1003  -14.5766   21.9873 O   0  0  0  0  0  0  0  0  0  0  0  0
  1  2  1  0
  3  2  1  0
  3  4  2  0
  5  6  1  0
  6  8  1  0
  7  6  2  0
  9  8  1  0
 10  9  1  1
 10 11  1  0
 11  3  1  0
 12 10  1  0
 12 13  2  0
 14 12  1  0
 15 14  1  0
 15 16  1  0
 16 17  2  0
 16 18  1  0
M  END
$$$$
