GQG.pdb
     RDKit          3D

 18 17  0  0  1  0  0  0  0  0999 V2000
    7.0580  -17.0336   21.2834 N   0  0  0  0  0  0  0  0  0  0  0  0
    6.8147  -16.8523   22.6960 C   0  0  0  0  0  0  0  0  0  0  0  0
    7.7710  -15.9336   23.3264 C   0  0  0  0  0  0  0  0  0  0  0  0
    8.7434  -15.4022   22.6981 O   0  0  0  0  0  0  0  0  0  0  0  0
    5.9910  -12.0888   27.8590 N   0  0  0  0  0  0  0  0  0  0  0  0
    5.9532  -11.9623   26.4539 C   0  0  0  0  0  0  0  0  0  0  0  0
    5.2049  -11.0807   25.9145 O   0  0  0  0  0  0  0  0  0  0  0  0
    6.7681  -12.8266   25.5961 C   0  0  0  0  0  0  0  0  0  0  0  0
    7.6761  -13.7770   26.2720 C   0  0  0  0  0  0  0  0  0  0  0  0
    8.4783  -14.6919   25.4330 C   0  0  2  0  0  0  0  0  0  0  0  0
    7.6077  -15.6218   24.6965 N   0  0  0  0  0  0  0  0  0  0  0  0
    9.5896  -15.4245   25.9866 C   0  0  0  0  0  0  0  0  0  0  0  0
   10.6024  -14.9156   26.5659 O   0  0  0  0  0  0  0  0  0  0  0  0
    9.5984  -16.8665   25.8994 N   0  0  0  0  0  0  0  0  0  0  0  0
   10.6085  -17.6333   26.6299 C   0  0  0  0  0  0  0  0  0  0  0  0
   11.4298  -18.3809   25.6622 C   0  0  0  0  0  0  0  0  0  0  0  0
   11.1045  -18.3811   24.4426 O   0  0  0  0  0  0  0  0  0  0  0  0
   12.5550  -19.0946   26.0169 O   0  0  0  0  0  0  0  0  0  0  0  0
  1  2  1  0
  3  2  1  0
  3  4  2  0
  5  6  1  0
  6  8  1  0
  7  6  2  0
  9  8  1  0
 10  9  1  1
 10 11  1  0
 11  3  1  0
 12 10  1  0
 12 13  2  0
 14 12  1  0
 15 14  1  0
 15 16  1  0
 16 17  2  0
 16 18  1  0
M  END
$$$$
