GQG.pdb
     RDKit          3D

 18 17  0  0  1  0  0  0  0  0999 V2000
    8.3265  -16.2645   16.2439 N   0  0  0  0  0  0  0  0  0  0  0  0
    9.3254  -16.7738   17.1553 C   0  0  0  0  0  0  0  0  0  0  0  0
   10.2323  -15.7301   17.6491 C   0  0  0  0  0  0  0  0  0  0  0  0
   10.2187  -14.5329   17.2139 O   0  0  0  0  0  0  0  0  0  0  0  0
    9.4484  -15.2932   23.5935 N   0  0  0  0  0  0  0  0  0  0  0  0
   10.5917  -15.6810   22.8627 C   0  0  0  0  0  0  0  0  0  0  0  0
   11.6027  -16.1648   23.4726 O   0  0  0  0  0  0  0  0  0  0  0  0
   10.6380  -15.5436   21.4046 C   0  0  0  0  0  0  0  0  0  0  0  0
   11.9544  -15.2481   20.8010 C   0  0  0  0  0  0  0  0  0  0  0  0
   12.0280  -15.0845   19.3339 C   0  0  2  0  0  0  0  0  0  0  0  0
   11.1671  -16.0665   18.6562 N   0  0  0  0  0  0  0  0  0  0  0  0
   13.2992  -15.0247   18.6565 C   0  0  0  0  0  0  0  0  0  0  0  0
   13.8584  -15.9854   18.0364 O   0  0  0  0  0  0  0  0  0  0  0  0
   14.0406  -13.7848   18.6548 N   0  0  0  0  0  0  0  0  0  0  0  0
   15.2237  -13.6458   17.8045 C   0  0  0  0  0  0  0  0  0  0  0  0
   16.3939  -14.1715   18.5283 C   0  0  0  0  0  0  0  0  0  0  0  0
   16.2427  -14.6513   19.6860 O   0  0  0  0  0  0  0  0  0  0  0  0
   17.6699  -14.1705   18.0056 O   0  0  0  0  0  0  0  0  0  0  0  0
  1  2  1  0
  3  2  1  0
  3  4  2  0
  5  6  1  0
  6  8  1  0
  7  6  2  0
  9  8  1  0
 10  9  1  1
 10 11  1  0
 11  3  1  0
 12 10  1  0
 12 13  2  0
 14 12  1  0
 15 14  1  0
 15 16  1  0
 16 17  2  0
 16 18  1  0
M  END
$$$$
