GQG.pdb
     RDKit          3D

 18 17  0  0  1  0  0  0  0  0999 V2000
   11.0593  -24.6308   25.7001 N   0  0  0  0  0  0  0  0  0  0  0  0
   10.1702  -24.2053   26.7567 C   0  0  0  0  0  0  0  0  0  0  0  0
   10.0856  -22.7445   26.8775 C   0  0  0  0  0  0  0  0  0  0  0  0
   10.8705  -21.9487   26.2665 O   0  0  0  0  0  0  0  0  0  0  0  0
    6.6066  -19.1823   25.0913 N   0  0  0  0  0  0  0  0  0  0  0  0
    6.7305  -18.3660   26.2358 C   0  0  0  0  0  0  0  0  0  0  0  0
    6.4684  -17.1196   26.1595 O   0  0  0  0  0  0  0  0  0  0  0  0
    7.1516  -18.9281   27.5218 C   0  0  0  0  0  0  0  0  0  0  0  0
    7.4957  -20.3653   27.5442 C   0  0  0  0  0  0  0  0  0  0  0  0
    8.8807  -20.7455   27.8933 C   0  0  2  0  0  0  0  0  0  0  0  0
    9.0859  -22.1911   27.7115 N   0  0  0  0  0  0  0  0  0  0  0  0
    9.4688  -20.3393   29.1453 C   0  0  0  0  0  0  0  0  0  0  0  0
    9.5183  -19.1488   29.5932 O   0  0  0  0  0  0  0  0  0  0  0  0
   10.0673  -21.3376   30.0010 N   0  0  0  0  0  0  0  0  0  0  0  0
   10.5507  -20.9611   31.3301 C   0  0  0  0  0  0  0  0  0  0  0  0
   12.0103  -20.7718   31.2693 C   0  0  0  0  0  0  0  0  0  0  0  0
   12.6122  -20.9411   30.1728 O   0  0  0  0  0  0  0  0  0  0  0  0
   12.7727  -20.4136   32.3609 O   0  0  0  0  0  0  0  0  0  0  0  0
  1  2  1  0
  3  2  1  0
  3  4  2  0
  5  6  1  0
  6  8  1  0
  7  6  2  0
  9  8  1  0
 10  9  1  1
 10 11  1  0
 11  3  1  0
 12 10  1  0
 12 13  2  0
 14 12  1  0
 15 14  1  0
 15 16  1  0
 16 17  2  0
 16 18  1  0
M  END
$$$$
