GQG.pdb
     RDKit          3D

 18 17  0  0  1  0  0  0  0  0999 V2000
    4.8430  -19.4900   22.3587 N   0  0  0  0  0  0  0  0  0  0  0  0
    4.8695  -18.0652   22.5973 C   0  0  0  0  0  0  0  0  0  0  0  0
    6.2243  -17.5021   22.5400 C   0  0  0  0  0  0  0  0  0  0  0  0
    7.2778  -18.2118   22.6365 O   0  0  0  0  0  0  0  0  0  0  0  0
    7.8903  -12.0729   19.5900 N   0  0  0  0  0  0  0  0  0  0  0  0
    7.7464  -13.3779   19.0725 C   0  0  0  0  0  0  0  0  0  0  0  0
    7.7179  -13.5620   17.8101 O   0  0  0  0  0  0  0  0  0  0  0  0
    7.6347  -14.5354   19.9640 C   0  0  0  0  0  0  0  0  0  0  0  0
    7.6317  -14.2640   21.4169 C   0  0  0  0  0  0  0  0  0  0  0  0
    7.6699  -15.4164   22.3416 C   0  0  2  0  0  0  0  0  0  0  0  0
    6.3702  -16.1054   22.3697 N   0  0  0  0  0  0  0  0  0  0  0  0
    8.1552  -15.2695   23.6912 C   0  0  0  0  0  0  0  0  0  0  0  0
    7.4578  -14.9301   24.7005 O   0  0  0  0  0  0  0  0  0  0  0  0
    9.5504  -15.5191   23.9708 N   0  0  0  0  0  0  0  0  0  0  0  0
   10.0578  -15.3650   25.3350 C   0  0  0  0  0  0  0  0  0  0  0  0
   10.4912  -16.6819   25.8328 C   0  0  0  0  0  0  0  0  0  0  0  0
   10.0672  -17.7282   25.2683 O   0  0  0  0  0  0  0  0  0  0  0  0
   11.3495  -16.8422   26.8999 O   0  0  0  0  0  0  0  0  0  0  0  0
  1  2  1  0
  3  2  1  0
  3  4  2  0
  5  6  1  0
  6  8  1  0
  7  6  2  0
  9  8  1  0
 10  9  1  1
 10 11  1  0
 11  3  1  0
 12 10  1  0
 12 13  2  0
 14 12  1  0
 15 14  1  0
 15 16  1  0
 16 17  2  0
 16 18  1  0
M  END
$$$$
