GQG.pdb
     RDKit          3D

 18 17  0  0  1  0  0  0  0  0999 V2000
    5.9150  -19.4398   20.0127 N   0  0  0  0  0  0  0  0  0  0  0  0
    5.8305  -18.3203   20.9223 C   0  0  0  0  0  0  0  0  0  0  0  0
    7.0239  -17.4657   20.8877 C   0  0  0  0  0  0  0  0  0  0  0  0
    8.0777  -17.7673   20.2386 O   0  0  0  0  0  0  0  0  0  0  0  0
    7.4237  -12.7268   17.7157 N   0  0  0  0  0  0  0  0  0  0  0  0
    7.9423  -12.9891   19.0017 C   0  0  0  0  0  0  0  0  0  0  0  0
    9.0823  -12.5228   19.3351 O   0  0  0  0  0  0  0  0  0  0  0  0
    7.1879  -13.7876   19.9714 C   0  0  0  0  0  0  0  0  0  0  0  0
    7.7983  -13.9748   21.3044 C   0  0  0  0  0  0  0  0  0  0  0  0
    8.1628  -15.3461   21.7182 C   0  0  2  0  0  0  0  0  0  0  0  0
    7.0059  -16.2485   21.6083 N   0  0  0  0  0  0  0  0  0  0  0  0
    8.8340  -15.5898   22.9706 C   0  0  0  0  0  0  0  0  0  0  0  0
    8.2816  -15.6248   24.1169 O   0  0  0  0  0  0  0  0  0  0  0  0
   10.2601  -15.8201   22.9742 N   0  0  0  0  0  0  0  0  0  0  0  0
   10.9389  -16.1602   24.2255 C   0  0  0  0  0  0  0  0  0  0  0  0
   12.3569  -16.4362   23.9375 C   0  0  0  0  0  0  0  0  0  0  0  0
   12.7771  -16.3477   22.7505 O   0  0  0  0  0  0  0  0  0  0  0  0
   13.2703  -16.7924   24.9070 O   0  0  0  0  0  0  0  0  0  0  0  0
  1  2  1  0
  3  2  1  0
  3  4  2  0
  5  6  1  0
  6  8  1  0
  7  6  2  0
  9  8  1  0
 10  9  1  1
 10 11  1  0
 11  3  1  0
 12 10  1  0
 12 13  2  0
 14 12  1  0
 15 14  1  0
 15 16  1  0
 16 17  2  0
 16 18  1  0
M  END
$$$$
