GQG.pdb
     RDKit          3D

 18 17  0  0  1  0  0  0  0  0999 V2000
    7.7993  -16.1996   19.3410 N   0  0  0  0  0  0  0  0  0  0  0  0
    7.0548  -16.0204   20.5664 C   0  0  0  0  0  0  0  0  0  0  0  0
    7.8429  -15.3750   21.6237 C   0  0  0  0  0  0  0  0  0  0  0  0
    9.0641  -15.0433   21.4777 O   0  0  0  0  0  0  0  0  0  0  0  0
    5.0957  -12.3392   26.5570 N   0  0  0  0  0  0  0  0  0  0  0  0
    6.4738  -12.0544   26.6635 C   0  0  0  0  0  0  0  0  0  0  0  0
    6.8800  -11.1803   27.4996 O   0  0  0  0  0  0  0  0  0  0  0  0
    7.4556  -12.7535   25.8302 C   0  0  0  0  0  0  0  0  0  0  0  0
    6.9269  -13.6725   24.8004 C   0  0  0  0  0  0  0  0  0  0  0  0
    7.8938  -14.4456   23.9930 C   0  0  2  0  0  0  0  0  0  0  0  0
    7.2194  -15.1073   22.8650 N   0  0  0  0  0  0  0  0  0  0  0  0
    8.8007  -15.3788   24.6136 C   0  0  0  0  0  0  0  0  0  0  0  0
    8.5381  -16.1173   25.6166 O   0  0  0  0  0  0  0  0  0  0  0  0
   10.1372  -15.5225   24.0844 N   0  0  0  0  0  0  0  0  0  0  0  0
   11.2619  -15.7346   24.9966 C   0  0  0  0  0  0  0  0  0  0  0  0
   11.3746  -17.1745   25.2859 C   0  0  0  0  0  0  0  0  0  0  0  0
   10.3525  -17.9086   25.1870 O   0  0  0  0  0  0  0  0  0  0  0  0
   12.5538  -17.7797   25.6659 O   0  0  0  0  0  0  0  0  0  0  0  0
  1  2  1  0
  3  2  1  0
  3  4  2  0
  5  6  1  0
  6  8  1  0
  7  6  2  0
  9  8  1  0
 10  9  1  1
 10 11  1  0
 11  3  1  0
 12 10  1  0
 12 13  2  0
 14 12  1  0
 15 14  1  0
 15 16  1  0
 16 17  2  0
 16 18  1  0
M  END
$$$$
