GQG.pdb
     RDKit          3D

 18 17  0  0  1  0  0  0  0  0999 V2000
    4.4772  -19.2594   20.0716 N   0  0  0  0  0  0  0  0  0  0  0  0
    4.4810  -18.3495   21.1941 C   0  0  0  0  0  0  0  0  0  0  0  0
    5.8046  -17.7698   21.4541 C   0  0  0  0  0  0  0  0  0  0  0  0
    6.8918  -18.4098   21.2779 O   0  0  0  0  0  0  0  0  0  0  0  0
    7.4644  -12.0592   19.8417 N   0  0  0  0  0  0  0  0  0  0  0  0
    8.0065  -13.2522   19.3178 C   0  0  0  0  0  0  0  0  0  0  0  0
    8.5801  -13.2434   18.1780 O   0  0  0  0  0  0  0  0  0  0  0  0
    7.9284  -14.5093   20.0664 C   0  0  0  0  0  0  0  0  0  0  0  0
    7.1959  -14.4803   21.3498 C   0  0  0  0  0  0  0  0  0  0  0  0
    7.1444  -15.7208   22.1516 C   0  0  2  0  0  0  0  0  0  0  0  0
    5.8797  -16.4371   21.9227 N   0  0  0  0  0  0  0  0  0  0  0  0
    7.4275  -15.7035   23.5651 C   0  0  0  0  0  0  0  0  0  0  0  0
    6.5637  -15.6239   24.4966 O   0  0  0  0  0  0  0  0  0  0  0  0
    8.7993  -15.7811   24.0113 N   0  0  0  0  0  0  0  0  0  0  0  0
    9.8323  -16.2823   23.1037 C   0  0  0  0  0  0  0  0  0  0  0  0
   11.1479  -16.1254   23.7475 C   0  0  0  0  0  0  0  0  0  0  0  0
   11.2092  -15.7274   24.9437 O   0  0  0  0  0  0  0  0  0  0  0  0
   12.3398  -16.3930   23.1078 O   0  0  0  0  0  0  0  0  0  0  0  0
  1  2  1  0
  3  2  1  0
  3  4  2  0
  5  6  1  0
  6  8  1  0
  7  6  2  0
  9  8  1  0
 10  9  1  1
 10 11  1  0
 11  3  1  0
 12 10  1  0
 12 13  2  0
 14 12  1  0
 15 14  1  0
 15 16  1  0
 16 17  2  0
 16 18  1  0
M  END
$$$$
