CVD.pdb
     RDKit          3D

 22 21  0  0  1  0  0  0  0  0999 V2000
   18.8664  -13.3963  -15.7768 N   0  0  0  0  0  0  0  0  0  0  0  0
   18.9892  -12.0899  -16.3802 C   0  0  1  0  0  0  0  0  0  0  0  0
   17.5761  -11.5449  -16.5095 C   0  0  0  0  0  0  0  0  0  0  0  0
   16.6213  -12.4816  -17.7043 S   0  0  0  0  0  0  0  0  0  0  0  0
   19.7673  -11.1863  -15.4683 C   0  0  0  0  0  0  0  0  0  0  0  0
   19.4792  -11.1704  -14.2561 O   0  0  0  0  0  0  0  0  0  0  0  0
   23.3857  -11.2035  -14.7402 C   0  0  0  0  0  0  0  0  0  0  0  0
   23.0161   -9.8467  -15.2564 C   0  0  1  0  0  0  0  0  0  0  0  0
   23.4072   -9.7153  -16.7309 C   0  0  0  0  0  0  0  0  0  0  0  0
   21.5738   -9.5171  -15.1175 C   0  0  2  0  0  0  0  0  0  0  0  0
   20.8027  -10.3776  -15.9944 N   0  0  0  0  0  0  0  0  0  0  0  0
   21.3213   -8.0849  -15.4354 C   0  0  0  0  0  0  0  0  0  0  0  0
   21.1439   -7.6593  -16.6008 O   0  0  0  0  0  0  0  0  0  0  0  0
   21.2669   -7.0918  -14.3862 N   0  0  0  0  0  0  0  0  0  0  0  0
   21.0646   -5.6779  -14.7395 C   0  0  1  0  0  0  0  0  0  0  0  0
   19.9329   -5.0720  -13.9694 C   0  0  0  0  0  0  0  0  0  0  0  0
   19.7263   -3.6481  -14.2298 C   0  0  0  0  0  0  0  0  0  0  0  0
   19.1635   -3.2861  -15.2901 O   0  0  0  0  0  0  0  0  0  0  0  0
   22.3383   -4.9296  -14.6119 C   0  0  0  0  0  0  0  0  0  0  0  0
   23.2957   -5.2135  -13.8768 O   0  0  0  0  0  0  0  0  0  0  0  0
   20.1382   -2.6888  -13.3313 O   0  0  0  0  0  0  0  0  0  0  0  0
   22.5073   -3.7627  -15.4051 O   0  0  0  0  0  0  0  0  0  0  0  0
  2  1  1  1
  3  2  1  0
  4  3  1  0
  5  2  1  0
  5  6  2  0
  8  7  1  6
  8 10  1  0
  9  8  1  0
 10 11  1  6
 10 12  1  0
 11  5  1  0
 12 14  1  0
 12 13  2  0
 14 15  1  0
 15 16  1  1
 17 16  1  0
 17 21  1  0
 18 17  2  0
 19 15  1  0
 20 19  2  0
 22 19  1  0
M  END
$$$$
