CVD.pdb
     RDKit          3D

 22 21  0  0  1  0  0  0  0  0999 V2000
   14.2353  -12.8926  -13.1762 N   0  0  0  0  0  0  0  0  0  0  0  0
   14.5890  -11.6521  -13.8257 C   0  0  1  0  0  0  0  0  0  0  0  0
   13.9360  -10.5445  -13.0151 C   0  0  0  0  0  0  0  0  0  0  0  0
   12.1639  -10.4938  -13.2868 S   0  0  0  0  0  0  0  0  0  0  0  0
   16.0777  -11.4654  -13.7760 C   0  0  0  0  0  0  0  0  0  0  0  0
   16.6917  -11.8360  -12.7571 O   0  0  0  0  0  0  0  0  0  0  0  0
   18.0501  -11.0426  -17.3920 C   0  0  0  0  0  0  0  0  0  0  0  0
   18.6870  -11.5224  -16.1239 C   0  0  1  0  0  0  0  0  0  0  0  0
   20.2079  -11.3644  -16.2009 C   0  0  0  0  0  0  0  0  0  0  0  0
   18.2001  -10.8318  -14.9015 C   0  0  2  0  0  0  0  0  0  0  0  0
   16.7506  -10.8788  -14.8742 N   0  0  0  0  0  0  0  0  0  0  0  0
   18.6788   -9.4229  -14.8588 C   0  0  0  0  0  0  0  0  0  0  0  0
   18.1458   -8.4946  -15.5107 O   0  0  0  0  0  0  0  0  0  0  0  0
   19.8109   -9.0498  -14.0408 N   0  0  0  0  0  0  0  0  0  0  0  0
   20.3279   -7.6738  -14.1070 C   0  0  1  0  0  0  0  0  0  0  0  0
   21.1861   -7.3482  -12.9245 C   0  0  0  0  0  0  0  0  0  0  0  0
   21.7459   -5.9975  -12.9450 C   0  0  0  0  0  0  0  0  0  0  0  0
   21.0249   -5.0318  -13.2905 O   0  0  0  0  0  0  0  0  0  0  0  0
   20.9966   -7.4388  -15.4094 C   0  0  0  0  0  0  0  0  0  0  0  0
   20.8099   -6.4839  -16.1782 O   0  0  0  0  0  0  0  0  0  0  0  0
   23.0557   -5.7599  -12.5910 O   0  0  0  0  0  0  0  0  0  0  0  0
   21.9581   -8.3900  -15.8454 O   0  0  0  0  0  0  0  0  0  0  0  0
  2  1  1  1
  3  2  1  0
  4  3  1  0
  5  2  1  0
  5  6  2  0
  8  7  1  6
  8 10  1  0
  9  8  1  0
 10 11  1  6
 10 12  1  0
 11  5  1  0
 12 14  1  0
 12 13  2  0
 14 15  1  0
 15 16  1  1
 17 16  1  0
 17 21  1  0
 18 17  2  0
 19 15  1  0
 20 19  2  0
 22 19  1  0
M  END
$$$$
