CVD.pdb
     RDKit          3D

 22 21  0  0  1  0  0  0  0  0999 V2000
   18.6635  -16.9353  -15.6286 N   0  0  0  0  0  0  0  0  0  0  0  0
   17.9516  -15.7060  -15.8896 C   0  0  1  0  0  0  0  0  0  0  0  0
   17.2379  -15.3435  -14.5975 C   0  0  0  0  0  0  0  0  0  0  0  0
   15.8521  -16.4389  -14.2870 S   0  0  0  0  0  0  0  0  0  0  0  0
   18.9321  -14.6168  -16.2146 C   0  0  0  0  0  0  0  0  0  0  0  0
   19.9882  -14.5490  -15.5569 O   0  0  0  0  0  0  0  0  0  0  0  0
   20.7826  -13.7800  -19.3635 C   0  0  0  0  0  0  0  0  0  0  0  0
   19.9172  -12.6228  -18.9685 C   0  0  1  0  0  0  0  0  0  0  0  0
   18.6297  -12.6157  -19.7970 C   0  0  0  0  0  0  0  0  0  0  0  0
   19.5537  -12.6013  -17.5277 C   0  0  2  0  0  0  0  0  0  0  0  0
   18.6440  -13.6965  -17.2505 N   0  0  0  0  0  0  0  0  0  0  0  0
   18.9355  -11.2999  -17.1533 C   0  0  0  0  0  0  0  0  0  0  0  0
   17.7448  -11.1856  -16.7793 O   0  0  0  0  0  0  0  0  0  0  0  0
   19.7009  -10.0745  -17.2045 N   0  0  0  0  0  0  0  0  0  0  0  0
   19.0628   -8.8073  -16.8145 C   0  0  1  0  0  0  0  0  0  0  0  0
   18.4990   -8.8754  -15.4295 C   0  0  0  0  0  0  0  0  0  0  0  0
   17.9767   -7.6033  -14.9325 C   0  0  0  0  0  0  0  0  0  0  0  0
   17.1442   -6.9637  -15.6179 O   0  0  0  0  0  0  0  0  0  0  0  0
   19.9994   -7.6763  -17.0201 C   0  0  0  0  0  0  0  0  0  0  0  0
   19.7752   -6.4771  -16.7986 O   0  0  0  0  0  0  0  0  0  0  0  0
   18.3807   -7.0878  -13.7209 O   0  0  0  0  0  0  0  0  0  0  0  0
   21.2971   -7.9690  -17.5198 O   0  0  0  0  0  0  0  0  0  0  0  0
  2  1  1  1
  3  2  1  0
  4  3  1  0
  5  2  1  0
  5  6  2  0
  8  7  1  1
  8 10  1  0
  9  8  1  0
 10 11  1  6
 10 12  1  0
 11  5  1  0
 12 14  1  0
 12 13  2  0
 14 15  1  0
 15 16  1  1
 17 16  1  0
 17 21  1  0
 18 17  2  0
 19 15  1  0
 20 19  2  0
 22 19  1  0
M  END
$$$$
