CVD.pdb
     RDKit          3D

 22 21  0  0  1  0  0  0  0  0999 V2000
   23.7801  -35.1617  -12.3327 N   0  0  0  0  0  0  0  0  0  0  0  0
   23.3094  -35.3430  -10.9794 C   0  0  1  0  0  0  0  0  0  0  0  0
   22.9707  -36.8181  -10.8393 C   0  0  0  0  0  0  0  0  0  0  0  0
   21.4269  -37.2150  -11.6615 S   0  0  0  0  0  0  0  0  0  0  0  0
   24.4118  -35.0131  -10.0154 C   0  0  0  0  0  0  0  0  0  0  0  0
   25.5781  -35.3393  -10.3086 O   0  0  0  0  0  0  0  0  0  0  0  0
   25.4780  -31.7262   -9.0522 C   0  0  0  0  0  0  0  0  0  0  0  0
   25.1647  -32.4554   -7.7817 C   0  0  1  0  0  0  0  0  0  0  0  0
   23.7957  -32.0262   -7.2470 C   0  0  0  0  0  0  0  0  0  0  0  0
   25.1795  -33.9356   -7.9124 C   0  0  2  0  0  0  0  0  0  0  0  0
   24.1115  -34.3449   -8.8045 N   0  0  0  0  0  0  0  0  0  0  0  0
   25.0308  -34.5897   -6.5835 C   0  0  0  0  0  0  0  0  0  0  0  0
   23.9261  -34.9471   -6.1118 O   0  0  0  0  0  0  0  0  0  0  0  0
   26.1851  -34.8505   -5.7531 N   0  0  0  0  0  0  0  0  0  0  0  0
   25.9970  -35.4455   -4.4206 C   0  0  1  0  0  0  0  0  0  0  0  0
   26.7799  -36.7119   -4.2650 C   0  0  0  0  0  0  0  0  0  0  0  0
   26.6126  -37.3634   -2.9667 C   0  0  0  0  0  0  0  0  0  0  0  0
   25.4652  -37.6839   -2.5762 O   0  0  0  0  0  0  0  0  0  0  0  0
   26.2755  -34.4411   -3.3660 C   0  0  0  0  0  0  0  0  0  0  0  0
   26.1155  -34.5832   -2.1446 O   0  0  0  0  0  0  0  0  0  0  0  0
   27.6935  -37.6351   -2.1574 O   0  0  0  0  0  0  0  0  0  0  0  0
   26.7818  -33.1759   -3.7686 O   0  0  0  0  0  0  0  0  0  0  0  0
  2  1  1  6
  3  2  1  0
  4  3  1  0
  5  2  1  0
  5  6  2  0
  8  7  1  6
  8 10  1  0
  9  8  1  0
 10 11  1  6
 10 12  1  0
 11  5  1  0
 12 14  1  0
 12 13  2  0
 14 15  1  0
 15 16  1  1
 17 16  1  0
 17 21  1  0
 18 17  2  0
 19 15  1  0
 20 19  2  0
 22 19  1  0
M  END
$$$$
