CVD.pdb
     RDKit          3D

 22 21  0  0  1  0  0  0  0  0999 V2000
   17.3370  -13.6237  -17.4901 N   0  0  0  0  0  0  0  0  0  0  0  0
   17.6310  -12.7300  -16.3943 C   0  0  1  0  0  0  0  0  0  0  0  0
   18.6218  -13.4599  -15.5022 C   0  0  0  0  0  0  0  0  0  0  0  0
   17.7867  -14.5796  -14.3773 S   0  0  0  0  0  0  0  0  0  0  0  0
   18.2888  -11.4879  -16.9214 C   0  0  0  0  0  0  0  0  0  0  0  0
   19.1726  -11.6044  -17.7920 O   0  0  0  0  0  0  0  0  0  0  0  0
   17.1612   -9.0651  -19.0368 C   0  0  0  0  0  0  0  0  0  0  0  0
   17.5587   -8.2994  -17.8121 C   0  0  1  0  0  0  0  0  0  0  0  0
   16.3209   -7.9408  -16.9853 C   0  0  0  0  0  0  0  0  0  0  0  0
   18.5229   -9.0145  -16.9361 C   0  0  2  0  0  0  0  0  0  0  0  0
   17.8986  -10.2206  -16.4268 N   0  0  0  0  0  0  0  0  0  0  0  0
   18.9714   -8.1439  -15.8149 C   0  0  0  0  0  0  0  0  0  0  0  0
   18.3921   -8.0983  -14.7045 O   0  0  0  0  0  0  0  0  0  0  0  0
   20.1276   -7.2881  -15.9587 N   0  0  0  0  0  0  0  0  0  0  0  0
   20.5548   -6.4542  -14.8241 C   0  0  1  0  0  0  0  0  0  0  0  0
   22.0248   -6.1747  -14.8660 C   0  0  0  0  0  0  0  0  0  0  0  0
   22.5113   -5.3608  -13.7529 C   0  0  0  0  0  0  0  0  0  0  0  0
   23.1252   -4.2929  -13.9865 O   0  0  0  0  0  0  0  0  0  0  0  0
   19.7194   -5.2319  -14.7422 C   0  0  0  0  0  0  0  0  0  0  0  0
   19.3861   -4.6282  -13.7117 O   0  0  0  0  0  0  0  0  0  0  0  0
   22.3095   -5.7427  -12.4450 O   0  0  0  0  0  0  0  0  0  0  0  0
   19.2394   -4.6710  -15.9564 O   0  0  0  0  0  0  0  0  0  0  0  0
  2  1  1  6
  3  2  1  0
  4  3  1  0
  5  2  1  0
  5  6  2  0
  8  7  1  6
  8 10  1  0
  9  8  1  0
 10 11  1  1
 10 12  1  0
 11  5  1  0
 12 14  1  0
 12 13  2  0
 14 15  1  0
 15 16  1  6
 17 16  1  0
 17 21  1  0
 18 17  2  0
 19 15  1  0
 20 19  2  0
 22 19  1  0
M  END
$$$$
