CVD.pdb
     RDKit          3D

 22 21  0  0  1  0  0  0  0  0999 V2000
   28.4013  -19.2371  -16.4688 N   0  0  0  0  0  0  0  0  0  0  0  0
   27.7726  -18.7074  -15.2813 C   0  0  1  0  0  0  0  0  0  0  0  0
   26.9699  -17.4962  -15.7275 C   0  0  0  0  0  0  0  0  0  0  0  0
   28.0139  -16.0483  -15.9014 S   0  0  0  0  0  0  0  0  0  0  0  0
   26.8252  -19.7261  -14.7173 C   0  0  0  0  0  0  0  0  0  0  0  0
   26.2991  -20.5460  -15.4942 O   0  0  0  0  0  0  0  0  0  0  0  0
   26.0539  -19.8296  -10.4745 C   0  0  0  0  0  0  0  0  0  0  0  0
   25.9865  -21.0162  -11.3863 C   0  0  1  0  0  0  0  0  0  0  0  0
   25.0021  -22.0524  -10.8370 C   0  0  0  0  0  0  0  0  0  0  0  0
   25.5982  -20.6871  -12.7824 C   0  0  2  0  0  0  0  0  0  0  0  0
   26.5491  -19.7381  -13.3293 N   0  0  0  0  0  0  0  0  0  0  0  0
   24.2173  -20.1338  -12.8353 C   0  0  0  0  0  0  0  0  0  0  0  0
   23.9680  -18.9058  -12.8575 O   0  0  0  0  0  0  0  0  0  0  0  0
   23.0686  -21.0111  -12.8651 N   0  0  0  0  0  0  0  0  0  0  0  0
   21.8057  -20.5285  -13.4458 C   0  0  1  0  0  0  0  0  0  0  0  0
   21.9650  -20.1619  -14.8884 C   0  0  0  0  0  0  0  0  0  0  0  0
   20.7299  -19.7182  -15.5332 C   0  0  0  0  0  0  0  0  0  0  0  0
   19.8162  -19.2101  -14.8413 O   0  0  0  0  0  0  0  0  0  0  0  0
   20.7195  -21.5069  -13.1976 C   0  0  0  0  0  0  0  0  0  0  0  0
   19.5400  -21.2505  -12.9139 O   0  0  0  0  0  0  0  0  0  0  0  0
   20.5458  -19.8463  -16.8922 O   0  0  0  0  0  0  0  0  0  0  0  0
   21.0348  -22.8894  -13.2905 O   0  0  0  0  0  0  0  0  0  0  0  0
  2  1  1  6
  3  2  1  0
  4  3  1  0
  5  2  1  0
  5  6  2  0
  8  7  1  1
  8 10  1  0
  9  8  1  0
 10 11  1  1
 10 12  1  0
 11  5  1  0
 12 14  1  0
 12 13  2  0
 14 15  1  0
 15 16  1  6
 17 16  1  0
 17 21  1  0
 18 17  2  0
 19 15  1  0
 20 19  2  0
 22 19  1  0
M  END
$$$$
