CVD.pdb
     RDKit          3D

 22 21  0  0  1  0  0  0  0  0999 V2000
   16.6372  -11.0971  -12.0530 N   0  0  0  0  0  0  0  0  0  0  0  0
   17.1669   -9.8650  -11.5172 C   0  0  1  0  0  0  0  0  0  0  0  0
   18.0997   -9.3042  -12.5782 C   0  0  0  0  0  0  0  0  0  0  0  0
   19.5992  -10.2791  -12.7112 S   0  0  0  0  0  0  0  0  0  0  0  0
   16.0475   -8.8883  -11.3018 C   0  0  0  0  0  0  0  0  0  0  0  0
   15.1434   -8.8192  -12.1564 O   0  0  0  0  0  0  0  0  0  0  0  0
   13.5214   -8.7082   -8.7324 C   0  0  0  0  0  0  0  0  0  0  0  0
   14.2511   -7.4002   -8.7029 C   0  0  1  0  0  0  0  0  0  0  0  0
   15.2388   -7.3698   -7.5335 C   0  0  0  0  0  0  0  0  0  0  0  0
   14.9889   -7.0890   -9.9547 C   0  0  2  0  0  0  0  0  0  0  0  0
   16.0379   -8.0724  -10.1454 N   0  0  0  0  0  0  0  0  0  0  0  0
   15.5613   -5.7155   -9.9086 C   0  0  0  0  0  0  0  0  0  0  0  0
   16.6640   -5.4467   -9.3770 O   0  0  0  0  0  0  0  0  0  0  0  0
   14.8529   -4.5980  -10.4912 N   0  0  0  0  0  0  0  0  0  0  0  0
   15.4526   -3.2555  -10.4379 C   0  0  1  0  0  0  0  0  0  0  0  0
   15.3593   -2.5554  -11.7577 C   0  0  0  0  0  0  0  0  0  0  0  0
   15.8042   -1.1628  -11.7294 C   0  0  0  0  0  0  0  0  0  0  0  0
   14.9649   -0.2401  -11.8567 O   0  0  0  0  0  0  0  0  0  0  0  0
   14.8773   -2.4807   -9.3120 C   0  0  0  0  0  0  0  0  0  0  0  0
   13.8335   -2.7347   -8.6928 O   0  0  0  0  0  0  0  0  0  0  0  0
   17.1328   -0.8389  -11.5651 O   0  0  0  0  0  0  0  0  0  0  0  0
   15.5759   -1.3230   -8.8750 O   0  0  0  0  0  0  0  0  0  0  0  0
  2  1  1  6
  3  2  1  0
  4  3  1  0
  5  2  1  0
  5  6  2  0
  8  7  1  6
  8 10  1  0
  9  8  1  0
 10 11  1  1
 10 12  1  0
 11  5  1  0
 12 14  1  0
 12 13  2  0
 14 15  1  0
 15 16  1  6
 17 16  1  0
 17 21  1  0
 18 17  2  0
 19 15  1  0
 20 19  2  0
 22 19  1  0
M  END
$$$$
