CVD.pdb
     RDKit          3D

 22 21  0  0  1  0  0  0  0  0999 V2000
   28.4385  -21.7503  -16.0583 N   0  0  0  0  0  0  0  0  0  0  0  0
   27.9826  -20.7415  -15.1307 C   0  0  1  0  0  0  0  0  0  0  0  0
   27.4965  -19.5743  -15.9743 C   0  0  0  0  0  0  0  0  0  0  0  0
   28.8628  -18.7344  -16.7770 S   0  0  0  0  0  0  0  0  0  0  0  0
   26.8233  -21.2736  -14.3393 C   0  0  0  0  0  0  0  0  0  0  0  0
   26.0203  -22.0428  -14.9014 O   0  0  0  0  0  0  0  0  0  0  0  0
   26.0041  -19.6352  -10.4490 C   0  0  0  0  0  0  0  0  0  0  0  0
   25.6958  -21.0580  -10.8021 C   0  0  1  0  0  0  0  0  0  0  0  0
   24.4600  -21.5390  -10.0367 C   0  0  0  0  0  0  0  0  0  0  0  0
   25.4738  -21.2884  -12.2533 C   0  0  2  0  0  0  0  0  0  0  0  0
   26.6640  -20.8973  -12.9843 N   0  0  0  0  0  0  0  0  0  0  0  0
   24.2887  -20.5293  -12.7384 C   0  0  0  0  0  0  0  0  0  0  0  0
   24.3566  -19.3628  -13.1916 O   0  0  0  0  0  0  0  0  0  0  0  0
   22.9689  -21.1187  -12.7090 N   0  0  0  0  0  0  0  0  0  0  0  0
   21.8433  -20.4011  -13.3278 C   0  0  1  0  0  0  0  0  0  0  0  0
   21.8842  -20.4912  -14.8214 C   0  0  0  0  0  0  0  0  0  0  0  0
   20.7252  -19.8999  -15.4888 C   0  0  0  0  0  0  0  0  0  0  0  0
   20.1347  -18.9274  -14.9619 O   0  0  0  0  0  0  0  0  0  0  0  0
   20.5598  -20.8548  -12.7398 C   0  0  0  0  0  0  0  0  0  0  0  0
   20.3163  -21.9728  -12.2619 O   0  0  0  0  0  0  0  0  0  0  0  0
   20.2641  -20.3897  -16.6907 O   0  0  0  0  0  0  0  0  0  0  0  0
   19.4802  -19.9316  -12.7052 O   0  0  0  0  0  0  0  0  0  0  0  0
  2  1  1  6
  3  2  1  0
  4  3  1  0
  5  2  1  0
  5  6  2  0
  8  7  1  6
  8 10  1  0
  9  8  1  0
 10 11  1  6
 10 12  1  0
 11  5  1  0
 12 14  1  0
 12 13  2  0
 14 15  1  0
 15 16  1  6
 17 16  1  0
 17 21  1  0
 18 17  2  0
 19 15  1  0
 20 19  2  0
 22 19  1  0
M  END
$$$$
