CVD.pdb
     RDKit          3D

 22 21  0  0  1  0  0  0  0  0999 V2000
   18.0353  -14.0505  -17.5052 N   0  0  0  0  0  0  0  0  0  0  0  0
   18.5115  -13.8607  -16.1550 C   0  0  1  0  0  0  0  0  0  0  0  0
   19.1562  -15.1735  -15.7412 C   0  0  0  0  0  0  0  0  0  0  0  0
   17.9373  -16.4803  -15.5881 S   0  0  0  0  0  0  0  0  0  0  0  0
   19.5613  -12.7878  -16.1386 C   0  0  0  0  0  0  0  0  0  0  0  0
   20.2617  -12.6540  -15.1167 O   0  0  0  0  0  0  0  0  0  0  0  0
   22.3213  -12.2186  -18.6245 C   0  0  0  0  0  0  0  0  0  0  0  0
   21.5393  -10.9493  -18.4784 C   0  0  1  0  0  0  0  0  0  0  0  0
   20.6253  -10.7466  -19.6899 C   0  0  0  0  0  0  0  0  0  0  0  0
   20.7128  -10.8845  -17.2451 C   0  0  2  0  0  0  0  0  0  0  0  0
   19.7359  -11.9565  -17.2705 N   0  0  0  0  0  0  0  0  0  0  0  0
   20.0370   -9.5635  -17.1251 C   0  0  0  0  0  0  0  0  0  0  0  0
   19.0655   -9.2199  -17.8383 O   0  0  0  0  0  0  0  0  0  0  0  0
   20.4817   -8.5898  -16.1535 N   0  0  0  0  0  0  0  0  0  0  0  0
   19.8282   -7.2726  -16.0994 C   0  0  1  0  0  0  0  0  0  0  0  0
   18.6002   -7.2994  -15.2438 C   0  0  0  0  0  0  0  0  0  0  0  0
   17.9591   -5.9960  -15.0758 C   0  0  0  0  0  0  0  0  0  0  0  0
   17.8371   -5.2323  -16.0627 O   0  0  0  0  0  0  0  0  0  0  0  0
   20.8058   -6.2303  -15.7035 C   0  0  0  0  0  0  0  0  0  0  0  0
   20.5905   -5.0142  -15.5929 O   0  0  0  0  0  0  0  0  0  0  0  0
   17.4829   -5.5849  -13.8505 O   0  0  0  0  0  0  0  0  0  0  0  0
   22.1348   -6.6405  -15.4123 O   0  0  0  0  0  0  0  0  0  0  0  0
  2  1  1  6
  3  2  1  0
  4  3  1  0
  5  2  1  0
  5  6  2  0
  8  7  1  6
  8 10  1  0
  9  8  1  0
 10 11  1  6
 10 12  1  0
 11  5  1  0
 12 14  1  0
 12 13  2  0
 14 15  1  0
 15 16  1  1
 17 16  1  0
 17 21  1  0
 18 17  2  0
 19 15  1  0
 20 19  2  0
 22 19  1  0
M  END
$$$$
