CVD.pdb
     RDKit          3D

 22 21  0  0  1  0  0  0  0  0999 V2000
   18.0765  -12.4483  -15.5499 N   0  0  0  0  0  0  0  0  0  0  0  0
   18.3447  -11.1739  -16.1741 C   0  0  1  0  0  0  0  0  0  0  0  0
   17.0009  -10.4787  -16.3199 C   0  0  0  0  0  0  0  0  0  0  0  0
   16.0476  -11.1759  -17.6697 S   0  0  0  0  0  0  0  0  0  0  0  0
   19.2146  -10.3462  -15.2732 C   0  0  0  0  0  0  0  0  0  0  0  0
   18.8667  -10.1898  -14.0870 O   0  0  0  0  0  0  0  0  0  0  0  0
   22.8728  -10.9018  -14.5107 C   0  0  0  0  0  0  0  0  0  0  0  0
   22.6665   -9.5195  -15.0500 C   0  0  1  0  0  0  0  0  0  0  0  0
   23.0524   -9.4645  -16.5306 C   0  0  0  0  0  0  0  0  0  0  0  0
   21.2776   -9.0121  -14.9031 C   0  0  2  0  0  0  0  0  0  0  0  0
   20.4011   -9.7647  -15.7801 N   0  0  0  0  0  0  0  0  0  0  0  0
   21.2057   -7.5580  -15.2137 C   0  0  0  0  0  0  0  0  0  0  0  0
   20.8004   -7.1075  -16.3107 O   0  0  0  0  0  0  0  0  0  0  0  0
   21.6104   -6.5713  -14.2376 N   0  0  0  0  0  0  0  0  0  0  0  0
   21.5073   -5.1417  -14.5698 C   0  0  1  0  0  0  0  0  0  0  0  0
   20.1014   -4.7520  -14.9053 C   0  0  0  0  0  0  0  0  0  0  0  0
   19.9096   -3.3162  -15.1048 C   0  0  0  0  0  0  0  0  0  0  0  0
   20.5784   -2.7161  -15.9792 O   0  0  0  0  0  0  0  0  0  0  0  0
   22.1112   -4.3196  -13.4936 C   0  0  0  0  0  0  0  0  0  0  0  0
   22.2192   -3.0845  -13.4747 O   0  0  0  0  0  0  0  0  0  0  0  0
   19.0052   -2.6029  -14.3496 O   0  0  0  0  0  0  0  0  0  0  0  0
   22.6254   -4.9914  -12.3519 O   0  0  0  0  0  0  0  0  0  0  0  0
  2  1  1  1
  3  2  1  0
  4  3  1  0
  5  2  1  0
  5  6  2  0
  8  7  1  6
  8 10  1  0
  9  8  1  0
 10 11  1  6
 10 12  1  0
 11  5  1  0
 12 14  1  0
 12 13  2  0
 14 15  1  0
 15 16  1  1
 17 16  1  0
 17 21  1  0
 18 17  2  0
 19 15  1  0
 20 19  2  0
 22 19  1  0
M  END
$$$$
