CVD.pdb
     RDKit          3D

 22 21  0  0  1  0  0  0  0  0999 V2000
   28.8023  -18.8348  -18.4974 N   0  0  0  0  0  0  0  0  0  0  0  0
   27.8079  -18.4192  -17.5359 C   0  0  1  0  0  0  0  0  0  0  0  0
   27.2673  -17.0871  -18.0297 C   0  0  0  0  0  0  0  0  0  0  0  0
   28.4282  -16.2791  -19.1324 S   0  0  0  0  0  0  0  0  0  0  0  0
   26.6827  -19.4125  -17.5154 C   0  0  0  0  0  0  0  0  0  0  0  0
   26.2189  -19.8112  -18.6010 O   0  0  0  0  0  0  0  0  0  0  0  0
   26.9684  -22.3294  -15.6913 C   0  0  0  0  0  0  0  0  0  0  0  0
   25.4977  -22.0637  -15.5895 C   0  0  1  0  0  0  0  0  0  0  0  0
   25.0665  -22.0213  -14.1210 C   0  0  0  0  0  0  0  0  0  0  0  0
   25.0617  -20.8049  -16.2479 C   0  0  2  0  0  0  0  0  0  0  0  0
   26.1737  -19.8741  -16.2781 N   0  0  0  0  0  0  0  0  0  0  0  0
   23.8981  -20.2071  -15.5375 C   0  0  0  0  0  0  0  0  0  0  0  0
   24.0036  -19.5473  -14.4772 O   0  0  0  0  0  0  0  0  0  0  0  0
   22.5561  -20.3635  -16.0521 N   0  0  0  0  0  0  0  0  0  0  0  0
   21.4322  -19.7322  -15.3427 C   0  0  1  0  0  0  0  0  0  0  0  0
   20.5400  -18.9792  -16.2795 C   0  0  0  0  0  0  0  0  0  0  0  0
   19.3958  -18.3392  -15.6319 C   0  0  0  0  0  0  0  0  0  0  0  0
   18.2598  -18.4214  -16.1559 O   0  0  0  0  0  0  0  0  0  0  0  0
   20.7168  -20.7359  -14.5183 C   0  0  0  0  0  0  0  0  0  0  0  0
   20.6940  -21.9628  -14.6964 O   0  0  0  0  0  0  0  0  0  0  0  0
   19.5380  -17.6435  -14.4516 O   0  0  0  0  0  0  0  0  0  0  0  0
   19.9740  -20.2711  -13.3996 O   0  0  0  0  0  0  0  0  0  0  0  0
  2  1  1  6
  3  2  1  0
  4  3  1  0
  5  2  1  0
  5  6  2  0
  8  7  1  1
  8 10  1  0
  9  8  1  0
 10 11  1  1
 10 12  1  0
 11  5  1  0
 12 14  1  0
 12 13  2  0
 14 15  1  0
 15 16  1  6
 17 16  1  0
 17 21  1  0
 18 17  2  0
 19 15  1  0
 20 19  2  0
 22 19  1  0
M  END
$$$$
