CVD.pdb
     RDKit          3D

 22 21  0  0  1  0  0  0  0  0999 V2000
   18.7072  -13.5394  -16.7497 N   0  0  0  0  0  0  0  0  0  0  0  0
   19.1146  -12.2249  -17.1877 C   0  0  1  0  0  0  0  0  0  0  0  0
   17.8480  -11.5110  -17.6308 C   0  0  0  0  0  0  0  0  0  0  0  0
   17.3006  -12.0884  -19.2381 S   0  0  0  0  0  0  0  0  0  0  0  0
   19.7075  -11.4716  -16.0326 C   0  0  0  0  0  0  0  0  0  0  0  0
   19.1204  -11.5051  -14.9341 O   0  0  0  0  0  0  0  0  0  0  0  0
   23.1831  -11.7820  -15.5858 C   0  0  0  0  0  0  0  0  0  0  0  0
   22.8257  -10.5662  -14.7870 C   0  0  1  0  0  0  0  0  0  0  0  0
   23.8728   -9.4685  -14.9937 C   0  0  0  0  0  0  0  0  0  0  0  0
   21.4849  -10.0071  -15.1003 C   0  0  2  0  0  0  0  0  0  0  0  0
   20.9092  -10.7449  -16.2085 N   0  0  0  0  0  0  0  0  0  0  0  0
   21.5749   -8.5576  -15.4272 C   0  0  0  0  0  0  0  0  0  0  0  0
   21.9664   -8.1250  -16.5363 O   0  0  0  0  0  0  0  0  0  0  0  0
   21.2041   -7.5546  -14.4543 N   0  0  0  0  0  0  0  0  0  0  0  0
   21.3313   -6.1303  -14.8006 C   0  0  1  0  0  0  0  0  0  0  0  0
   20.0008   -5.5133  -15.1006 C   0  0  0  0  0  0  0  0  0  0  0  0
   20.0642   -4.0955  -15.4525 C   0  0  0  0  0  0  0  0  0  0  0  0
   20.9253   -3.6971  -16.2720 O   0  0  0  0  0  0  0  0  0  0  0  0
   22.0961   -5.4133  -13.7519 C   0  0  0  0  0  0  0  0  0  0  0  0
   22.3925   -5.8406  -12.6263 O   0  0  0  0  0  0  0  0  0  0  0  0
   19.1939   -3.1813  -14.9010 O   0  0  0  0  0  0  0  0  0  0  0  0
   22.5513   -4.0987  -14.0414 O   0  0  0  0  0  0  0  0  0  0  0  0
  2  1  1  1
  3  2  1  0
  4  3  1  0
  5  2  1  0
  5  6  2  0
  8  7  1  6
  8 10  1  0
  9  8  1  0
 10 11  1  6
 10 12  1  0
 11  5  1  0
 12 14  1  0
 12 13  2  0
 14 15  1  0
 15 16  1  1
 17 16  1  0
 17 21  1  0
 18 17  2  0
 19 15  1  0
 20 19  2  0
 22 19  1  0
M  END
$$$$
