CVD.pdb
     RDKit          3D

 22 21  0  0  1  0  0  0  0  0999 V2000
   21.1630  -32.9181  -10.7294 N   0  0  0  0  0  0  0  0  0  0  0  0
   21.9483  -32.2675   -9.7067 C   0  0  1  0  0  0  0  0  0  0  0  0
   20.9698  -31.8378   -8.6259 C   0  0  0  0  0  0  0  0  0  0  0  0
   20.1359  -30.3128   -9.0682 S   0  0  0  0  0  0  0  0  0  0  0  0
   22.9137  -33.2514   -9.1123 C   0  0  0  0  0  0  0  0  0  0  0  0
   22.5475  -34.4336   -8.9678 O   0  0  0  0  0  0  0  0  0  0  0  0
   26.3901  -33.8500  -10.4123 C   0  0  0  0  0  0  0  0  0  0  0  0
   26.4636  -33.5968   -8.9377 C   0  0  1  0  0  0  0  0  0  0  0  0
   26.9703  -32.1774   -8.6676 C   0  0  0  0  0  0  0  0  0  0  0  0
   25.1728  -33.7828   -8.2252 C   0  0  2  0  0  0  0  0  0  0  0  0
   24.2082  -32.8249   -8.7309 N   0  0  0  0  0  0  0  0  0  0  0  0
   25.3474  -33.6234   -6.7555 C   0  0  0  0  0  0  0  0  0  0  0  0
   25.2704  -32.5186   -6.1688 O   0  0  0  0  0  0  0  0  0  0  0  0
   25.6207  -34.7666   -5.9138 N   0  0  0  0  0  0  0  0  0  0  0  0
   25.7612  -34.5774   -4.4614 C   0  0  1  0  0  0  0  0  0  0  0  0
   25.0507  -35.6478   -3.6932 C   0  0  0  0  0  0  0  0  0  0  0  0
   25.1743  -35.5250   -2.2414 C   0  0  0  0  0  0  0  0  0  0  0  0
   26.3097  -35.4075   -1.7227 O   0  0  0  0  0  0  0  0  0  0  0  0
   27.1918  -34.4351   -4.0983 C   0  0  0  0  0  0  0  0  0  0  0  0
   27.6524  -33.8313   -3.1180 O   0  0  0  0  0  0  0  0  0  0  0  0
   24.0651  -35.5353   -1.4249 O   0  0  0  0  0  0  0  0  0  0  0  0
   28.1570  -35.0468   -4.9429 O   0  0  0  0  0  0  0  0  0  0  0  0
  2  1  1  6
  3  2  1  0
  4  3  1  0
  5  2  1  0
  5  6  2  0
  8  7  1  6
  8 10  1  0
  9  8  1  0
 10 11  1  6
 10 12  1  0
 11  5  1  0
 12 14  1  0
 12 13  2  0
 14 15  1  0
 15 16  1  1
 17 16  1  0
 17 21  1  0
 18 17  2  0
 19 15  1  0
 20 19  2  0
 22 19  1  0
M  END
$$$$
