CVD.pdb
     RDKit          3D

 22 21  0  0  1  0  0  0  0  0999 V2000
   12.1753  -11.5765   -9.6226 N   0  0  0  0  0  0  0  0  0  0  0  0
   12.3768  -10.2466  -10.1485 C   0  0  1  0  0  0  0  0  0  0  0  0
   11.2656   -9.3859   -9.5700 C   0  0  0  0  0  0  0  0  0  0  0  0
    9.7108   -9.6694  -10.4179 S   0  0  0  0  0  0  0  0  0  0  0  0
   13.6943   -9.7106   -9.6685 C   0  0  0  0  0  0  0  0  0  0  0  0
   13.9979   -9.8601   -8.4693 O   0  0  0  0  0  0  0  0  0  0  0  0
   17.2471  -10.3408  -10.4905 C   0  0  0  0  0  0  0  0  0  0  0  0
   16.9366   -8.9092  -10.8041 C   0  0  1  0  0  0  0  0  0  0  0  0
   16.7237   -8.7299  -12.3097 C   0  0  0  0  0  0  0  0  0  0  0  0
   15.7471   -8.3762  -10.0905 C   0  0  2  0  0  0  0  0  0  0  0  0
   14.5591   -9.0526  -10.5752 N   0  0  0  0  0  0  0  0  0  0  0  0
   15.6260   -6.9048  -10.2814 C   0  0  0  0  0  0  0  0  0  0  0  0
   14.9794   -6.3832  -11.2197 O   0  0  0  0  0  0  0  0  0  0  0  0
   16.2656   -5.9844   -9.3682 N   0  0  0  0  0  0  0  0  0  0  0  0
   16.1145   -4.5360   -9.5784 C   0  0  1  0  0  0  0  0  0  0  0  0
   16.1954   -3.7788   -8.2896 C   0  0  0  0  0  0  0  0  0  0  0  0
   16.1099   -2.3270   -8.4419 C   0  0  0  0  0  0  0  0  0  0  0  0
   15.3888   -1.8388   -9.3439 O   0  0  0  0  0  0  0  0  0  0  0  0
   17.0732   -4.0638  -10.6064 C   0  0  0  0  0  0  0  0  0  0  0  0
   16.9793   -3.0350  -11.2922 O   0  0  0  0  0  0  0  0  0  0  0  0
   16.8079   -1.4778   -7.6120 O   0  0  0  0  0  0  0  0  0  0  0  0
   18.2303   -4.8519  -10.8496 O   0  0  0  0  0  0  0  0  0  0  0  0
  2  1  1  1
  3  2  1  0
  4  3  1  0
  5  2  1  0
  5  6  2  0
  8  7  1  6
  8 10  1  0
  9  8  1  0
 10 11  1  6
 10 12  1  0
 11  5  1  0
 12 14  1  0
 12 13  2  0
 14 15  1  0
 15 16  1  1
 17 16  1  0
 17 21  1  0
 18 17  2  0
 19 15  1  0
 20 19  2  0
 22 19  1  0
M  END
$$$$
