CVD.pdb
     RDKit          3D

 22 21  0  0  1  0  0  0  0  0999 V2000
   18.0012  -12.7555  -15.9414 N   0  0  0  0  0  0  0  0  0  0  0  0
   18.5254  -11.6302  -16.6795 C   0  0  1  0  0  0  0  0  0  0  0  0
   17.3256  -10.7905  -17.0865 C   0  0  0  0  0  0  0  0  0  0  0  0
   16.2879  -11.6604  -18.2626 S   0  0  0  0  0  0  0  0  0  0  0  0
   19.4024  -10.8056  -15.7827 C   0  0  0  0  0  0  0  0  0  0  0  0
   19.0200  -10.5787  -14.6187 O   0  0  0  0  0  0  0  0  0  0  0  0
   23.9232   -9.2363  -14.8134 C   0  0  0  0  0  0  0  0  0  0  0  0
   22.8942  -10.0641  -15.5204 C   0  0  1  0  0  0  0  0  0  0  0  0
   22.9236  -11.5043  -15.0015 C   0  0  0  0  0  0  0  0  0  0  0  0
   21.5077   -9.5440  -15.3966 C   0  0  2  0  0  0  0  0  0  0  0  0
   20.6343  -10.3060  -16.2685 N   0  0  0  0  0  0  0  0  0  0  0  0
   21.4497   -8.0953  -15.7341 C   0  0  0  0  0  0  0  0  0  0  0  0
   21.7288   -7.6410  -16.8684 O   0  0  0  0  0  0  0  0  0  0  0  0
   21.0576   -7.1189  -14.7427 N   0  0  0  0  0  0  0  0  0  0  0  0
   21.0315   -5.6928  -15.1039 C   0  0  1  0  0  0  0  0  0  0  0  0
   19.6539   -5.1185  -14.9891 C   0  0  0  0  0  0  0  0  0  0  0  0
   19.5787   -3.6840  -15.2623 C   0  0  0  0  0  0  0  0  0  0  0  0
   19.3412   -2.8853  -14.3256 O   0  0  0  0  0  0  0  0  0  0  0  0
   22.0525   -4.9480  -14.3283 C   0  0  0  0  0  0  0  0  0  0  0  0
   22.4298   -3.7833  -14.5242 O   0  0  0  0  0  0  0  0  0  0  0  0
   19.7640   -3.1865  -16.5332 O   0  0  0  0  0  0  0  0  0  0  0  0
   22.6778   -5.6137  -13.2397 O   0  0  0  0  0  0  0  0  0  0  0  0
  2  1  1  1
  3  2  1  0
  4  3  1  0
  5  2  1  0
  5  6  2  0
  8  7  1  1
  8 10  1  0
  9  8  1  0
 10 11  1  6
 10 12  1  0
 11  5  1  0
 12 14  1  0
 12 13  2  0
 14 15  1  0
 15 16  1  1
 17 16  1  0
 17 21  1  0
 18 17  2  0
 19 15  1  0
 20 19  2  0
 22 19  1  0
M  END
$$$$
