CVD.pdb
     RDKit          3D

 22 21  0  0  1  0  0  0  0  0999 V2000
   19.1600  -13.0850  -18.1368 N   0  0  0  0  0  0  0  0  0  0  0  0
   19.9418  -11.8949  -18.3780 C   0  0  1  0  0  0  0  0  0  0  0  0
   19.1169  -11.0242  -19.3116 C   0  0  0  0  0  0  0  0  0  0  0  0
   19.0328  -11.7292  -20.9586 S   0  0  0  0  0  0  0  0  0  0  0  0
   20.1414  -11.1546  -17.0874 C   0  0  0  0  0  0  0  0  0  0  0  0
   19.1986  -11.1085  -16.2741 O   0  0  0  0  0  0  0  0  0  0  0  0
   22.6745  -11.8274  -14.5518 C   0  0  0  0  0  0  0  0  0  0  0  0
   22.7811  -10.3706  -14.8844 C   0  0  1  0  0  0  0  0  0  0  0  0
   24.0110  -10.1148  -15.7597 C   0  0  0  0  0  0  0  0  0  0  0  0
   21.5862   -9.8165  -15.5725 C   0  0  2  0  0  0  0  0  0  0  0  0
   21.3823  -10.5291  -16.8193 N   0  0  0  0  0  0  0  0  0  0  0  0
   21.7443   -8.3577  -15.8234 C   0  0  0  0  0  0  0  0  0  0  0  0
   22.4860   -7.8895  -16.7186 O   0  0  0  0  0  0  0  0  0  0  0  0
   21.0297   -7.3872  -15.0250 N   0  0  0  0  0  0  0  0  0  0  0  0
   21.2490   -5.9522  -15.2648 C   0  0  1  0  0  0  0  0  0  0  0  0
   19.9785   -5.2531  -15.6361 C   0  0  0  0  0  0  0  0  0  0  0  0
   20.1340   -3.8205  -15.8843 C   0  0  0  0  0  0  0  0  0  0  0  0
   19.6297   -2.9941  -15.0877 O   0  0  0  0  0  0  0  0  0  0  0  0
   21.9487   -5.3398  -14.1097 C   0  0  0  0  0  0  0  0  0  0  0  0
   22.3727   -4.1773  -14.0298 O   0  0  0  0  0  0  0  0  0  0  0  0
   20.8263   -3.3548  -16.9802 O   0  0  0  0  0  0  0  0  0  0  0  0
   22.1673   -6.1459  -12.9601 O   0  0  0  0  0  0  0  0  0  0  0  0
  2  1  1  1
  3  2  1  0
  4  3  1  0
  5  2  1  0
  5  6  2  0
  8  7  1  6
  8 10  1  0
  9  8  1  0
 10 11  1  6
 10 12  1  0
 11  5  1  0
 12 14  1  0
 12 13  2  0
 14 15  1  0
 15 16  1  1
 17 16  1  0
 17 21  1  0
 18 17  2  0
 19 15  1  0
 20 19  2  0
 22 19  1  0
M  END
$$$$
