MQD.pdb
     RDKit          3D

 26 25  0  0  1  0  0  0  0  0999 V2000
   28.2801  -17.9826   -7.1541 C   0  0  0  0  0  0  0  0  0  0  0  0
   28.2912  -19.7498   -6.8279 S   0  0  0  0  0  0  0  0  0  0  0  0
   26.9091  -20.6156   -7.5741 C   0  0  0  0  0  0  0  0  0  0  0  0
   26.6216  -20.1546   -8.9932 C   0  0  0  0  0  0  0  0  0  0  0  0
   25.4253  -20.9285   -9.5585 C   0  0  2  0  0  0  0  0  0  0  0  0
   25.7868  -22.3341   -9.5632 N   0  0  0  0  0  0  0  0  0  0  0  0
   25.2041  -20.4959  -10.9416 C   0  0  0  0  0  0  0  0  0  0  0  0
   24.8462  -19.2911  -11.1212 O   0  0  0  0  0  0  0  0  0  0  0  0
   27.9319  -22.3455  -16.0332 N   0  0  0  0  0  0  0  0  0  0  0  0
   28.2723  -21.1641  -15.3308 C   0  0  0  0  0  0  0  0  0  0  0  0
   29.3935  -20.6472  -15.5249 O   0  0  0  0  0  0  0  0  0  0  0  0
   27.2836  -20.5890  -14.3933 C   0  0  0  0  0  0  0  0  0  0  0  0
   25.9802  -21.2853  -14.3790 C   0  0  0  0  0  0  0  0  0  0  0  0
   24.9364  -20.7997  -13.4338 C   0  0  2  0  0  0  0  0  0  0  0  0
   25.3540  -21.3024  -12.0937 N   0  0  0  0  0  0  0  0  0  0  0  0
   23.5650  -21.2697  -13.7139 C   0  0  0  0  0  0  0  0  0  0  0  0
   23.1451  -22.3185  -13.1238 O   0  0  0  0  0  0  0  0  0  0  0  0
   22.6329  -20.6690  -14.5881 N   0  0  0  0  0  0  0  0  0  0  0  0
   21.2406  -21.0679  -14.6111 C   0  0  1  0  0  0  0  0  0  0  0  0
   20.5830  -20.9963  -13.2617 C   0  0  0  0  0  0  0  0  0  0  0  0
   19.1625  -21.3756  -13.2849 C   0  0  0  0  0  0  0  0  0  0  0  0
   18.6664  -22.1930  -14.1108 O   0  0  0  0  0  0  0  0  0  0  0  0
   20.4972  -20.1750  -15.5195 C   0  0  0  0  0  0  0  0  0  0  0  0
   19.3235  -20.4318  -15.8429 O   0  0  0  0  0  0  0  0  0  0  0  0
   18.2995  -20.8146  -12.3542 O   0  0  0  0  0  0  0  0  0  0  0  0
   21.1099  -19.0461  -16.0137 O   0  0  0  0  0  0  0  0  0  0  0  0
  2  1  1  0
  3  2  1  0
  4  3  1  0
  4  5  1  0
  5  6  1  6
  5  7  1  0
  7  8  2  0
  9 10  1  0
 10 11  2  0
 10 12  1  0
 12 13  1  0
 14 13  1  6
 15  7  1  0
 15 14  1  0
 16 14  1  0
 16 17  2  0
 18 16  1  0
 19 18  1  0
 20 21  1  0
 19 20  1  1
 21 25  1  0
 22 21  2  0
 23 19  1  0
 23 26  1  0
 24 23  2  0
M  END
$$$$
