MQD.pdb
     RDKit          3D

 26 25  0  0  1  0  0  0  0  0999 V2000
   18.9281  -12.6116  -18.1104 C   0  0  0  0  0  0  0  0  0  0  0  0
   18.3681  -12.8061  -16.4138 S   0  0  0  0  0  0  0  0  0  0  0  0
   16.6312  -12.4176  -16.1932 C   0  0  0  0  0  0  0  0  0  0  0  0
   16.4023  -10.9965  -15.7062 C   0  0  0  0  0  0  0  0  0  0  0  0
   17.0342  -10.8136  -14.3217 C   0  0  2  0  0  0  0  0  0  0  0  0
   16.2940  -11.6532  -13.3977 N   0  0  0  0  0  0  0  0  0  0  0  0
   16.8713   -9.4138  -13.9180 C   0  0  0  0  0  0  0  0  0  0  0  0
   16.6383   -8.5696  -14.8372 O   0  0  0  0  0  0  0  0  0  0  0  0
   15.4922   -7.1460   -8.2697 N   0  0  0  0  0  0  0  0  0  0  0  0
   14.6335   -7.8556   -9.1437 C   0  0  0  0  0  0  0  0  0  0  0  0
   13.5994   -8.3821   -8.6795 O   0  0  0  0  0  0  0  0  0  0  0  0
   14.9972   -7.9448  -10.5743 C   0  0  0  0  0  0  0  0  0  0  0  0
   16.3252   -7.3853  -10.9018 C   0  0  0  0  0  0  0  0  0  0  0  0
   16.7906   -7.4651  -12.3146 C   0  0  2  0  0  0  0  0  0  0  0  0
   16.9507   -8.9207  -12.5948 N   0  0  0  0  0  0  0  0  0  0  0  0
   18.0683   -6.7812  -12.5966 C   0  0  0  0  0  0  0  0  0  0  0  0
   19.1335   -7.2278  -12.0576 O   0  0  0  0  0  0  0  0  0  0  0  0
   18.2525   -5.6525  -13.4249 N   0  0  0  0  0  0  0  0  0  0  0  0
   19.5526   -5.0386  -13.6011 C   0  0  1  0  0  0  0  0  0  0  0  0
   20.2978   -5.5650  -14.7951 C   0  0  0  0  0  0  0  0  0  0  0  0
   21.5817   -4.8864  -15.0264 C   0  0  0  0  0  0  0  0  0  0  0  0
   21.7609   -4.0039  -15.9128 O   0  0  0  0  0  0  0  0  0  0  0  0
   19.3797   -3.5856  -13.7859 C   0  0  0  0  0  0  0  0  0  0  0  0
   18.2670   -3.1099  -14.0750 O   0  0  0  0  0  0  0  0  0  0  0  0
   22.6726   -5.2197  -14.2362 O   0  0  0  0  0  0  0  0  0  0  0  0
   20.4619   -2.7486  -13.6367 O   0  0  0  0  0  0  0  0  0  0  0  0
  2  1  1  0
  3  2  1  0
  4  3  1  0
  4  5  1  0
  5  6  1  1
  5  7  1  0
  7  8  2  0
  9 10  1  0
 10 11  2  0
 10 12  1  0
 12 13  1  0
 14 13  1  1
 15  7  1  0
 15 14  1  0
 16 14  1  0
 16 17  2  0
 18 16  1  0
 19 18  1  0
 20 21  1  0
 19 20  1  6
 21 25  1  0
 22 21  2  0
 23 19  1  0
 23 26  1  0
 24 23  2  0
M  END
$$$$
