MQD.pdb
     RDKit          3D

 26 25  0  0  1  0  0  0  0  0999 V2000
   32.6856  -17.8344    7.3440 C   0  0  0  0  0  0  0  0  0  0  0  0
   32.9798  -19.0239    6.0295 S   0  0  0  0  0  0  0  0  0  0  0  0
   33.2693  -20.6879    6.6328 C   0  0  0  0  0  0  0  0  0  0  0  0
   32.1813  -21.1699    7.5777 C   0  0  0  0  0  0  0  0  0  0  0  0
   32.6227  -22.4708    8.2579 C   0  0  2  0  0  0  0  0  0  0  0  0
   32.8587  -23.4452    7.2084 N   0  0  0  0  0  0  0  0  0  0  0  0
   31.5248  -22.9483    9.1038 C   0  0  0  0  0  0  0  0  0  0  0  0
   30.4710  -23.3436    8.5164 O   0  0  0  0  0  0  0  0  0  0  0  0
   31.2330  -26.8594   13.4331 N   0  0  0  0  0  0  0  0  0  0  0  0
   29.9751  -26.2767   13.7212 C   0  0  0  0  0  0  0  0  0  0  0  0
   29.2451  -26.8102   14.5842 O   0  0  0  0  0  0  0  0  0  0  0  0
   29.5757  -25.0571   12.9864 C   0  0  0  0  0  0  0  0  0  0  0  0
   30.5796  -24.5741   12.0154 C   0  0  0  0  0  0  0  0  0  0  0  0
   30.2895  -23.3145   11.2752 C   0  0  2  0  0  0  0  0  0  0  0  0
   31.5359  -23.0073   10.5168 N   0  0  0  0  0  0  0  0  0  0  0  0
   29.9455  -22.1527   12.1190 C   0  0  0  0  0  0  0  0  0  0  0  0
   28.8665  -22.1867   12.7966 O   0  0  0  0  0  0  0  0  0  0  0  0
   30.7013  -20.9694   12.2685 N   0  0  0  0  0  0  0  0  0  0  0  0
   30.2326  -19.8607   13.0742 C   0  0  1  0  0  0  0  0  0  0  0  0
   31.3189  -18.8821   13.4218 C   0  0  0  0  0  0  0  0  0  0  0  0
   30.8692  -17.8064   14.3179 C   0  0  0  0  0  0  0  0  0  0  0  0
   31.5547  -16.7782   14.5815 O   0  0  0  0  0  0  0  0  0  0  0  0
   29.1915  -19.1283   12.3294 C   0  0  0  0  0  0  0  0  0  0  0  0
   29.4296  -18.6556   11.2034 O   0  0  0  0  0  0  0  0  0  0  0  0
   29.6226  -17.9067   14.9193 O   0  0  0  0  0  0  0  0  0  0  0  0
   27.9438  -18.9670   12.8875 O   0  0  0  0  0  0  0  0  0  0  0  0
  2  1  1  0
  3  2  1  0
  4  3  1  0
  4  5  1  0
  5  6  1  6
  5  7  1  0
  7  8  2  0
  9 10  1  0
 10 11  2  0
 10 12  1  0
 12 13  1  0
 14 13  1  1
 15  7  1  0
 15 14  1  0
 16 14  1  0
 16 17  2  0
 18 16  1  0
 19 18  1  0
 20 21  1  0
 19 20  1  6
 21 25  1  0
 22 21  2  0
 23 19  1  0
 23 26  1  0
 24 23  2  0
M  END
$$$$
