MQD.pdb
     RDKit          3D

 26 25  0  0  1  0  0  0  0  0999 V2000
   29.2379  -10.6804  -16.6331 C   0  0  0  0  0  0  0  0  0  0  0  0
   29.3478  -12.3528  -15.9847 S   0  0  0  0  0  0  0  0  0  0  0  0
   27.7462  -13.1137  -15.7151 C   0  0  0  0  0  0  0  0  0  0  0  0
   26.5964  -12.2667  -16.2342 C   0  0  0  0  0  0  0  0  0  0  0  0
   25.2610  -12.9346  -15.8869 C   0  0  2  0  0  0  0  0  0  0  0  0
   25.2482  -14.2321  -16.5371 N   0  0  0  0  0  0  0  0  0  0  0  0
   24.1761  -12.1201  -16.4424 C   0  0  0  0  0  0  0  0  0  0  0  0
   23.5289  -12.6071  -17.4201 O   0  0  0  0  0  0  0  0  0  0  0  0
   19.3780  -12.8357  -15.8235 N   0  0  0  0  0  0  0  0  0  0  0  0
   19.0359  -11.6231  -16.4696 C   0  0  0  0  0  0  0  0  0  0  0  0
   17.8439  -11.4231  -16.7878 O   0  0  0  0  0  0  0  0  0  0  0  0
   20.1068  -10.6404  -16.7422 C   0  0  0  0  0  0  0  0  0  0  0  0
   21.4609  -11.0929  -16.3609 C   0  0  0  0  0  0  0  0  0  0  0  0
   22.5981  -10.1531  -16.5672 C   0  0  2  0  0  0  0  0  0  0  0  0
   23.7869  -10.8395  -15.9854 N   0  0  0  0  0  0  0  0  0  0  0  0
   22.4480   -8.8319  -15.9253 C   0  0  0  0  0  0  0  0  0  0  0  0
   22.4714   -8.7636  -14.6528 O   0  0  0  0  0  0  0  0  0  0  0  0
   22.2783   -7.5932  -16.5815 N   0  0  0  0  0  0  0  0  0  0  0  0
   22.2307   -6.3428  -15.8519 C   0  0  1  0  0  0  0  0  0  0  0  0
   22.3172   -5.1353  -16.7424 C   0  0  0  0  0  0  0  0  0  0  0  0
   21.4285   -5.2087  -17.9116 C   0  0  0  0  0  0  0  0  0  0  0  0
   21.4464   -6.1536  -18.7502 O   0  0  0  0  0  0  0  0  0  0  0  0
   20.9574   -6.2633  -15.1121 C   0  0  0  0  0  0  0  0  0  0  0  0
   20.0589   -7.1027  -15.3019 O   0  0  0  0  0  0  0  0  0  0  0  0
   20.5093   -4.1912  -18.1248 O   0  0  0  0  0  0  0  0  0  0  0  0
   20.7628   -5.2491  -14.2023 O   0  0  0  0  0  0  0  0  0  0  0  0
  2  1  1  0
  3  2  1  0
  4  3  1  0
  4  5  1  0
  5  6  1  6
  5  7  1  0
  7  8  2  0
  9 10  1  0
 10 11  2  0
 10 12  1  0
 12 13  1  0
 14 13  1  1
 15  7  1  0
 15 14  1  0
 16 14  1  0
 16 17  2  0
 18 16  1  0
 19 18  1  0
 20 21  1  0
 19 20  1  6
 21 25  1  0
 22 21  2  0
 23 19  1  0
 23 26  1  0
 24 23  2  0
M  END
$$$$
