MQD.pdb
     RDKit          3D

 26 25  0  0  1  0  0  0  0  0999 V2000
   21.8506  -16.6216  -19.9661 C   0  0  0  0  0  0  0  0  0  0  0  0
   20.1807  -16.7615  -19.3169 S   0  0  0  0  0  0  0  0  0  0  0  0
   19.8081  -15.5432  -18.0546 C   0  0  0  0  0  0  0  0  0  0  0  0
   20.6939  -14.3117  -18.1442 C   0  0  0  0  0  0  0  0  0  0  0  0
   20.4264  -13.3912  -16.9480 C   0  0  2  0  0  0  0  0  0  0  0  0
   18.9874  -13.2378  -16.8378 N   0  0  0  0  0  0  0  0  0  0  0  0
   21.0182  -12.0799  -17.2297 C   0  0  0  0  0  0  0  0  0  0  0  0
   22.2800  -12.0305  -17.3614 O   0  0  0  0  0  0  0  0  0  0  0  0
   21.5240   -7.5096  -20.9023 N   0  0  0  0  0  0  0  0  0  0  0  0
   21.3780   -8.8748  -21.2484 C   0  0  0  0  0  0  0  0  0  0  0  0
   21.7774   -9.2606  -22.3681 O   0  0  0  0  0  0  0  0  0  0  0  0
   20.7565   -9.7905  -20.2676 C   0  0  0  0  0  0  0  0  0  0  0  0
   20.3599   -9.1463  -18.9981 C   0  0  0  0  0  0  0  0  0  0  0  0
   21.0158   -9.6078  -17.7429 C   0  0  2  0  0  0  0  0  0  0  0  0
   20.3076  -10.8649  -17.3676 N   0  0  0  0  0  0  0  0  0  0  0  0
   20.9441   -8.6631  -16.6104 C   0  0  0  0  0  0  0  0  0  0  0  0
   20.1442   -8.9172  -15.6513 O   0  0  0  0  0  0  0  0  0  0  0  0
   21.6869   -7.4715  -16.4617 N   0  0  0  0  0  0  0  0  0  0  0  0
   21.5453   -6.6239  -15.2957 C   0  0  1  0  0  0  0  0  0  0  0  0
   22.6417   -5.6039  -15.1698 C   0  0  0  0  0  0  0  0  0  0  0  0
   22.4389   -4.6647  -14.0566 C   0  0  0  0  0  0  0  0  0  0  0  0
   22.6295   -4.9610  -12.8432 O   0  0  0  0  0  0  0  0  0  0  0  0
   20.2648   -5.8969  -15.3794 C   0  0  0  0  0  0  0  0  0  0  0  0
   19.6354   -5.5980  -14.3487 O   0  0  0  0  0  0  0  0  0  0  0  0
   22.0136   -3.3731  -14.3330 O   0  0  0  0  0  0  0  0  0  0  0  0
   19.7624   -5.5463  -16.6119 O   0  0  0  0  0  0  0  0  0  0  0  0
  2  1  1  0
  3  2  1  0
  4  3  1  0
  4  5  1  0
  5  6  1  6
  5  7  1  0
  7  8  2  0
  9 10  1  0
 10 11  2  0
 10 12  1  0
 12 13  1  0
 14 13  1  6
 15  7  1  0
 15 14  1  0
 16 14  1  0
 16 17  2  0
 18 16  1  0
 19 18  1  0
 20 21  1  0
 19 20  1  6
 21 25  1  0
 22 21  2  0
 23 19  1  0
 23 26  1  0
 24 23  2  0
M  END
$$$$
