MQD.pdb
     RDKit          3D

 26 25  0  0  1  0  0  0  0  0999 V2000
   28.0222  -11.4528  -15.0063 C   0  0  0  0  0  0  0  0  0  0  0  0
   27.9741  -13.1679  -15.5406 S   0  0  0  0  0  0  0  0  0  0  0  0
   26.3110  -13.7700  -15.8376 C   0  0  0  0  0  0  0  0  0  0  0  0
   25.3512  -12.6684  -16.2555 C   0  0  0  0  0  0  0  0  0  0  0  0
   23.9473  -13.2507  -16.4548 C   0  0  2  0  0  0  0  0  0  0  0  0
   23.9923  -14.0822  -17.6435 N   0  0  0  0  0  0  0  0  0  0  0  0
   23.0149  -12.1443  -16.6906 C   0  0  0  0  0  0  0  0  0  0  0  0
   22.9934  -11.6439  -17.8573 O   0  0  0  0  0  0  0  0  0  0  0  0
   17.3545  -12.0250  -15.0203 N   0  0  0  0  0  0  0  0  0  0  0  0
   17.4008  -10.6556  -15.3773 C   0  0  0  0  0  0  0  0  0  0  0  0
   16.3345  -10.0048  -15.4171 O   0  0  0  0  0  0  0  0  0  0  0  0
   18.7134  -10.0500  -15.6893 C   0  0  0  0  0  0  0  0  0  0  0  0
   19.8394  -11.0071  -15.6995 C   0  0  0  0  0  0  0  0  0  0  0  0
   21.1796  -10.5083  -16.1161 C   0  0  2  0  0  0  0  0  0  0  0  0
   22.1372  -11.5849  -15.7331 N   0  0  0  0  0  0  0  0  0  0  0  0
   21.6056   -9.2435  -15.4844 C   0  0  0  0  0  0  0  0  0  0  0  0
   22.1021   -9.2824  -14.3112 O   0  0  0  0  0  0  0  0  0  0  0  0
   21.5255   -7.9525  -16.0507 N   0  0  0  0  0  0  0  0  0  0  0  0
   21.8999   -6.7676  -15.3065 C   0  0  1  0  0  0  0  0  0  0  0  0
   21.9318   -5.5249  -16.1509 C   0  0  0  0  0  0  0  0  0  0  0  0
   22.2963   -4.3167  -15.3960 C   0  0  0  0  0  0  0  0  0  0  0  0
   21.5243   -3.3298  -15.2330 O   0  0  0  0  0  0  0  0  0  0  0  0
   20.9229   -6.5484  -14.2237 C   0  0  0  0  0  0  0  0  0  0  0  0
   21.2545   -5.9617  -13.1778 O   0  0  0  0  0  0  0  0  0  0  0  0
   23.5568   -4.2353  -14.8214 O   0  0  0  0  0  0  0  0  0  0  0  0
   19.6309   -6.9984  -14.3736 O   0  0  0  0  0  0  0  0  0  0  0  0
  2  1  1  0
  3  2  1  0
  4  3  1  0
  4  5  1  0
  5  6  1  6
  5  7  1  0
  7  8  2  0
  9 10  1  0
 10 11  2  0
 10 12  1  0
 12 13  1  0
 14 13  1  1
 15  7  1  0
 15 14  1  0
 16 14  1  0
 16 17  2  0
 18 16  1  0
 19 18  1  0
 20 21  1  0
 19 20  1  6
 21 25  1  0
 22 21  2  0
 23 19  1  0
 23 26  1  0
 24 23  2  0
M  END
$$$$
