MQD.pdb
     RDKit          3D

 26 25  0  0  1  0  0  0  0  0999 V2000
   28.7987  -11.7163  -16.3976 C   0  0  0  0  0  0  0  0  0  0  0  0
   28.3983  -13.4319  -16.0428 S   0  0  0  0  0  0  0  0  0  0  0  0
   26.6818  -13.8391  -16.3657 C   0  0  0  0  0  0  0  0  0  0  0  0
   25.9059  -12.6825  -16.9736 C   0  0  0  0  0  0  0  0  0  0  0  0
   25.3041  -11.8182  -15.8597 C   0  0  2  0  0  0  0  0  0  0  0  0
   24.4735  -12.6856  -15.0447 N   0  0  0  0  0  0  0  0  0  0  0  0
   24.4531  -10.7950  -16.4744 C   0  0  0  0  0  0  0  0  0  0  0  0
   25.0050  -10.0004  -17.2966 O   0  0  0  0  0  0  0  0  0  0  0  0
   18.5562  -11.3299  -17.8379 N   0  0  0  0  0  0  0  0  0  0  0  0
   18.6668   -9.9473  -18.1226 C   0  0  0  0  0  0  0  0  0  0  0  0
   17.6800   -9.3477  -18.6007 O   0  0  0  0  0  0  0  0  0  0  0  0
   19.9499   -9.2679  -17.8416 C   0  0  0  0  0  0  0  0  0  0  0  0
   20.9882  -10.1429  -17.2582 C   0  0  0  0  0  0  0  0  0  0  0  0
   22.3104   -9.5400  -16.9313 C   0  0  2  0  0  0  0  0  0  0  0  0
   23.0714  -10.6148  -16.2323 N   0  0  0  0  0  0  0  0  0  0  0  0
   22.2615   -8.3472  -16.0623 C   0  0  0  0  0  0  0  0  0  0  0  0
   22.2091   -8.5118  -14.7995 O   0  0  0  0  0  0  0  0  0  0  0  0
   22.2687   -6.9996  -16.4838 N   0  0  0  0  0  0  0  0  0  0  0  0
   22.2235   -5.9034  -15.5380 C   0  0  1  0  0  0  0  0  0  0  0  0
   22.6544   -4.5921  -16.1321 C   0  0  0  0  0  0  0  0  0  0  0  0
   22.5718   -3.4689  -15.1866 C   0  0  0  0  0  0  0  0  0  0  0  0
   22.2691   -3.5976  -13.9666 O   0  0  0  0  0  0  0  0  0  0  0  0
   20.8406   -5.7419  -15.0515 C   0  0  0  0  0  0  0  0  0  0  0  0
   19.8779   -5.8210  -15.8356 O   0  0  0  0  0  0  0  0  0  0  0  0
   22.8378   -2.1847  -15.6401 O   0  0  0  0  0  0  0  0  0  0  0  0
   20.6147   -5.5011  -13.7154 O   0  0  0  0  0  0  0  0  0  0  0  0
  2  1  1  0
  3  2  1  0
  4  3  1  0
  4  5  1  0
  5  6  1  1
  5  7  1  0
  7  8  2  0
  9 10  1  0
 10 11  2  0
 10 12  1  0
 12 13  1  0
 14 13  1  1
 15  7  1  0
 15 14  1  0
 16 14  1  0
 16 17  2  0
 18 16  1  0
 19 18  1  0
 20 21  1  0
 19 20  1  6
 21 25  1  0
 22 21  2  0
 23 19  1  0
 23 26  1  0
 24 23  2  0
M  END
$$$$
