MQD.pdb
     RDKit          3D

 26 25  0  0  1  0  0  0  0  0999 V2000
   21.3326  -11.7753    7.3227 C   0  0  0  0  0  0  0  0  0  0  0  0
   20.8798  -11.4018    5.6242 S   0  0  0  0  0  0  0  0  0  0  0  0
   19.2445  -11.9908    5.1822 C   0  0  0  0  0  0  0  0  0  0  0  0
   18.9022  -13.3218    5.8305 C   0  0  0  0  0  0  0  0  0  0  0  0
   17.5273  -13.7968    5.3471 C   0  0  2  0  0  0  0  0  0  0  0  0
   16.5325  -12.9615    5.9945 N   0  0  0  0  0  0  0  0  0  0  0  0
   17.3342  -15.1824    5.7853 C   0  0  0  0  0  0  0  0  0  0  0  0
   16.8384  -15.3606    6.9404 O   0  0  0  0  0  0  0  0  0  0  0  0
   16.8920  -19.9319    2.0540 N   0  0  0  0  0  0  0  0  0  0  0  0
   15.7303  -19.3299    2.5952 C   0  0  0  0  0  0  0  0  0  0  0  0
   14.6463  -19.4512    1.9850 O   0  0  0  0  0  0  0  0  0  0  0  0
   15.8483  -18.5797    3.8641 C   0  0  0  0  0  0  0  0  0  0  0  0
   17.2023  -18.5918    4.4559 C   0  0  0  0  0  0  0  0  0  0  0  0
   17.4677  -17.6981    5.6177 C   0  0  2  0  0  0  0  0  0  0  0  0
   17.6516  -16.3383    5.0347 N   0  0  0  0  0  0  0  0  0  0  0  0
   18.6614  -18.0406    6.4164 C   0  0  0  0  0  0  0  0  0  0  0  0
   19.8124  -17.7527    5.9508 O   0  0  0  0  0  0  0  0  0  0  0  0
   18.6746  -18.6696    7.6805 N   0  0  0  0  0  0  0  0  0  0  0  0
   19.9116  -18.9605    8.3758 C   0  0  1  0  0  0  0  0  0  0  0  0
   20.2289  -17.9674    9.4581 C   0  0  0  0  0  0  0  0  0  0  0  0
   21.4035  -18.3368   10.2618 C   0  0  0  0  0  0  0  0  0  0  0  0
   22.5092  -18.6963    9.7671 O   0  0  0  0  0  0  0  0  0  0  0  0
   19.8112  -20.2909    9.0042 C   0  0  0  0  0  0  0  0  0  0  0  0
   18.7057  -20.7549    9.3364 O   0  0  0  0  0  0  0  0  0  0  0  0
   21.3137  -18.2952   11.6459 O   0  0  0  0  0  0  0  0  0  0  0  0
   20.9539  -21.0257    9.2246 O   0  0  0  0  0  0  0  0  0  0  0  0
  2  1  1  0
  3  2  1  0
  4  3  1  0
  4  5  1  0
  5  6  1  1
  5  7  1  0
  7  8  2  0
  9 10  1  0
 10 11  2  0
 10 12  1  0
 12 13  1  0
 14 13  1  6
 15  7  1  0
 15 14  1  0
 16 14  1  0
 16 17  2  0
 18 16  1  0
 19 18  1  0
 20 21  1  0
 19 20  1  1
 21 25  1  0
 22 21  2  0
 23 19  1  0
 23 26  1  0
 24 23  2  0
M  END
$$$$
