MQD.pdb
     RDKit          3D

 26 25  0  0  1  0  0  0  0  0999 V2000
   30.2519  -12.9058  -16.2784 C   0  0  0  0  0  0  0  0  0  0  0  0
   28.7345  -12.1304  -16.8491 S   0  0  0  0  0  0  0  0  0  0  0  0
   27.2941  -12.6048  -15.8917 C   0  0  0  0  0  0  0  0  0  0  0  0
   26.0060  -12.0011  -16.4261 C   0  0  0  0  0  0  0  0  0  0  0  0
   26.1476  -10.4778  -16.5237 C   0  0  2  0  0  0  0  0  0  0  0  0
   26.3557   -9.9789  -15.1768 N   0  0  0  0  0  0  0  0  0  0  0  0
   24.8910   -9.9268  -17.0398 C   0  0  0  0  0  0  0  0  0  0  0  0
   24.5549  -10.2570  -18.2187 O   0  0  0  0  0  0  0  0  0  0  0  0
   19.5343   -9.6996  -14.4976 N   0  0  0  0  0  0  0  0  0  0  0  0
   19.9407  -10.6485  -15.4668 C   0  0  0  0  0  0  0  0  0  0  0  0
   19.3235  -11.7323  -15.5476 O   0  0  0  0  0  0  0  0  0  0  0  0
   21.0825  -10.3167  -16.3461 C   0  0  0  0  0  0  0  0  0  0  0  0
   21.6628   -8.9778  -16.1128 C   0  0  0  0  0  0  0  0  0  0  0  0
   22.7836   -8.5371  -16.9892 C   0  0  2  0  0  0  0  0  0  0  0  0
   24.0200   -9.0595  -16.3402 N   0  0  0  0  0  0  0  0  0  0  0  0
   22.9141   -7.0761  -17.1586 C   0  0  0  0  0  0  0  0  0  0  0  0
   23.7072   -6.4395  -16.3905 O   0  0  0  0  0  0  0  0  0  0  0  0
   22.2401   -6.2766  -18.1076 N   0  0  0  0  0  0  0  0  0  0  0  0
   22.4901   -4.8546  -18.2233 C   0  0  1  0  0  0  0  0  0  0  0  0
   22.2270   -4.3185  -19.6023 C   0  0  0  0  0  0  0  0  0  0  0  0
   22.5773   -2.8983  -19.7521 C   0  0  0  0  0  0  0  0  0  0  0  0
   23.0843   -2.1982  -18.8304 O   0  0  0  0  0  0  0  0  0  0  0  0
   21.6101   -4.1316  -17.2863 C   0  0  0  0  0  0  0  0  0  0  0  0
   20.4359   -4.5007  -17.1042 O   0  0  0  0  0  0  0  0  0  0  0  0
   22.3456   -2.2711  -20.9680 O   0  0  0  0  0  0  0  0  0  0  0  0
   22.0947   -3.0372  -16.6069 O   0  0  0  0  0  0  0  0  0  0  0  0
  2  1  1  0
  3  2  1  0
  4  3  1  0
  4  5  1  0
  5  6  1  1
  5  7  1  0
  7  8  2  0
  9 10  1  0
 10 11  2  0
 10 12  1  0
 12 13  1  0
 14 13  1  1
 15  7  1  0
 15 14  1  0
 16 14  1  0
 16 17  2  0
 18 16  1  0
 19 18  1  0
 20 21  1  0
 19 20  1  6
 21 25  1  0
 22 21  2  0
 23 19  1  0
 23 26  1  0
 24 23  2  0
M  END
$$$$
