MQD.pdb
     RDKit          3D

 26 25  0  0  1  0  0  0  0  0999 V2000
   23.3056  -20.5213   -8.0344 C   0  0  0  0  0  0  0  0  0  0  0  0
   24.9163  -21.3165   -7.9819 S   0  0  0  0  0  0  0  0  0  0  0  0
   25.5805  -21.6775   -9.6083 C   0  0  0  0  0  0  0  0  0  0  0  0
   25.0716  -20.7251  -10.6774 C   0  0  0  0  0  0  0  0  0  0  0  0
   25.6447  -21.1224  -12.0425 C   0  0  2  0  0  0  0  0  0  0  0  0
   27.0878  -20.9932  -11.9562 N   0  0  0  0  0  0  0  0  0  0  0  0
   25.1479  -20.1777  -13.0475 C   0  0  0  0  0  0  0  0  0  0  0  0
   25.6165  -18.9983  -13.0151 O   0  0  0  0  0  0  0  0  0  0  0  0
   25.6445  -21.2723  -18.5637 N   0  0  0  0  0  0  0  0  0  0  0  0
   26.5522  -20.8241  -17.5738 C   0  0  0  0  0  0  0  0  0  0  0  0
   27.7769  -20.9965  -17.7541 O   0  0  0  0  0  0  0  0  0  0  0  0
   26.0117  -20.1684  -16.3635 C   0  0  0  0  0  0  0  0  0  0  0  0
   24.5409  -20.0260  -16.3525 C   0  0  0  0  0  0  0  0  0  0  0  0
   23.8990  -19.4753  -15.1263 C   0  0  2  0  0  0  0  0  0  0  0  0
   24.1924  -20.4644  -14.0501 N   0  0  0  0  0  0  0  0  0  0  0  0
   22.4376  -19.2829  -15.2124 C   0  0  0  0  0  0  0  0  0  0  0  0
   21.6746  -20.2757  -14.9743 O   0  0  0  0  0  0  0  0  0  0  0  0
   21.7655  -18.0842  -15.5368 N   0  0  0  0  0  0  0  0  0  0  0  0
   20.3222  -17.9774  -15.4756 C   0  0  1  0  0  0  0  0  0  0  0  0
   19.8343  -16.5560  -15.4738 C   0  0  0  0  0  0  0  0  0  0  0  0
   18.6613  -16.3437  -14.6128 C   0  0  0  0  0  0  0  0  0  0  0  0
   18.1449  -17.2449  -13.8933 O   0  0  0  0  0  0  0  0  0  0  0  0
   19.7378  -18.6500  -16.6509 C   0  0  0  0  0  0  0  0  0  0  0  0
   20.3461  -18.6759  -17.7358 O   0  0  0  0  0  0  0  0  0  0  0  0
   18.0721  -15.0879  -14.5734 O   0  0  0  0  0  0  0  0  0  0  0  0
   18.5062  -19.2549  -16.5443 O   0  0  0  0  0  0  0  0  0  0  0  0
  2  1  1  0
  3  2  1  0
  4  3  1  0
  4  5  1  0
  5  6  1  1
  5  7  1  0
  7  8  2  0
  9 10  1  0
 10 11  2  0
 10 12  1  0
 12 13  1  0
 14 13  1  6
 15  7  1  0
 15 14  1  0
 16 14  1  0
 16 17  2  0
 18 16  1  0
 19 18  1  0
 20 21  1  0
 19 20  1  6
 21 25  1  0
 22 21  2  0
 23 19  1  0
 23 26  1  0
 24 23  2  0
M  END
$$$$
