MQD.pdb
     RDKit          3D

 26 25  0  0  1  0  0  0  0  0999 V2000
   25.8452  -16.5648  -19.3130 C   0  0  0  0  0  0  0  0  0  0  0  0
   24.8377  -15.0780  -19.3744 S   0  0  0  0  0  0  0  0  0  0  0  0
   23.4832  -15.0922  -18.1990 C   0  0  0  0  0  0  0  0  0  0  0  0
   22.5978  -13.8618  -18.3051 C   0  0  0  0  0  0  0  0  0  0  0  0
   23.0054  -12.8350  -17.2424 C   0  0  2  0  0  0  0  0  0  0  0  0
   22.9183  -13.4947  -15.9526 N   0  0  0  0  0  0  0  0  0  0  0  0
   22.0425  -11.7300  -17.2709 C   0  0  0  0  0  0  0  0  0  0  0  0
   22.0133  -11.0144  -18.3191 O   0  0  0  0  0  0  0  0  0  0  0  0
   16.3732  -11.5560  -15.3636 N   0  0  0  0  0  0  0  0  0  0  0  0
   16.5256  -10.1520  -15.4653 C   0  0  0  0  0  0  0  0  0  0  0  0
   15.5270   -9.4212  -15.2895 O   0  0  0  0  0  0  0  0  0  0  0  0
   17.8645   -9.6066  -15.7766 C   0  0  0  0  0  0  0  0  0  0  0  0
   18.9207  -10.6298  -15.9228 C   0  0  0  0  0  0  0  0  0  0  0  0
   20.2779  -10.1815  -16.3419 C   0  0  2  0  0  0  0  0  0  0  0  0
   21.1432  -11.3907  -16.2334 N   0  0  0  0  0  0  0  0  0  0  0  0
   20.8642   -9.1000  -15.5255 C   0  0  0  0  0  0  0  0  0  0  0  0
   21.3615   -9.3922  -14.3889 O   0  0  0  0  0  0  0  0  0  0  0  0
   20.9423   -7.7333  -15.8721 N   0  0  0  0  0  0  0  0  0  0  0  0
   21.4736   -6.7430  -14.9583 C   0  0  1  0  0  0  0  0  0  0  0  0
   21.7579   -5.4228  -15.6175 C   0  0  0  0  0  0  0  0  0  0  0  0
   22.2875   -4.4109  -14.6912 C   0  0  0  0  0  0  0  0  0  0  0  0
   23.1463   -4.6567  -13.7976 O   0  0  0  0  0  0  0  0  0  0  0  0
   20.4943   -6.5043  -13.8817 C   0  0  0  0  0  0  0  0  0  0  0  0
   19.2792   -6.4198  -14.1354 O   0  0  0  0  0  0  0  0  0  0  0  0
   21.8307   -3.1041  -14.7870 O   0  0  0  0  0  0  0  0  0  0  0  0
   20.9311   -6.3740  -12.5831 O   0  0  0  0  0  0  0  0  0  0  0  0
  2  1  1  0
  3  2  1  0
  4  3  1  0
  4  5  1  0
  5  6  1  1
  5  7  1  0
  7  8  2  0
  9 10  1  0
 10 11  2  0
 10 12  1  0
 12 13  1  0
 14 13  1  1
 15  7  1  0
 15 14  1  0
 16 14  1  0
 16 17  2  0
 18 16  1  0
 19 18  1  0
 20 21  1  0
 19 20  1  6
 21 25  1  0
 22 21  2  0
 23 19  1  0
 23 26  1  0
 24 23  2  0
M  END
$$$$
