MQD.pdb
     RDKit          3D

 26 25  0  0  1  0  0  0  0  0999 V2000
   23.3024  -20.3222  -14.7244 C   0  0  0  0  0  0  0  0  0  0  0  0
   22.0077  -20.4255  -15.9665 S   0  0  0  0  0  0  0  0  0  0  0  0
   21.3132  -18.8295  -16.3989 C   0  0  0  0  0  0  0  0  0  0  0  0
   21.7552  -17.7202  -15.4591 C   0  0  0  0  0  0  0  0  0  0  0  0
   21.1558  -16.3846  -15.9138 C   0  0  2  0  0  0  0  0  0  0  0  0
   21.0541  -16.4302  -17.3609 N   0  0  0  0  0  0  0  0  0  0  0  0
   22.0808  -15.3099  -15.5417 C   0  0  0  0  0  0  0  0  0  0  0  0
   22.2457  -15.0913  -14.3020 O   0  0  0  0  0  0  0  0  0  0  0  0
   27.3071  -14.1475  -15.5576 N   0  0  0  0  0  0  0  0  0  0  0  0
   27.1589  -12.7925  -15.9410 C   0  0  0  0  0  0  0  0  0  0  0  0
   28.0844  -11.9897  -15.6942 O   0  0  0  0  0  0  0  0  0  0  0  0
   25.9107  -12.3821  -16.6197 C   0  0  0  0  0  0  0  0  0  0  0  0
   24.9137  -13.4627  -16.7681 C   0  0  0  0  0  0  0  0  0  0  0  0
   23.6780  -13.3952  -15.9391 C   0  0  2  0  0  0  0  0  0  0  0  0
   22.8058  -14.4949  -16.4419 N   0  0  0  0  0  0  0  0  0  0  0  0
   22.9347  -12.1219  -16.0187 C   0  0  0  0  0  0  0  0  0  0  0  0
   22.2223  -11.8927  -17.0505 O   0  0  0  0  0  0  0  0  0  0  0  0
   22.9199  -11.0954  -15.0492 N   0  0  0  0  0  0  0  0  0  0  0  0
   22.1414   -9.8871  -15.2283 C   0  0  1  0  0  0  0  0  0  0  0  0
   21.9732   -9.0990  -13.9599 C   0  0  0  0  0  0  0  0  0  0  0  0
   21.1962   -7.8637  -14.1401 C   0  0  0  0  0  0  0  0  0  0  0  0
   19.9849   -7.8410  -14.4990 O   0  0  0  0  0  0  0  0  0  0  0  0
   22.8174   -9.0178  -16.2094 C   0  0  0  0  0  0  0  0  0  0  0  0
   22.1685   -8.2028  -16.8894 O   0  0  0  0  0  0  0  0  0  0  0  0
   21.8100   -6.6410  -13.9078 O   0  0  0  0  0  0  0  0  0  0  0  0
   24.1808   -9.1106  -16.3729 O   0  0  0  0  0  0  0  0  0  0  0  0
  2  1  1  0
  3  2  1  0
  4  3  1  0
  4  5  1  0
  5  6  1  6
  5  7  1  0
  7  8  2  0
  9 10  1  0
 10 11  2  0
 10 12  1  0
 12 13  1  0
 14 13  1  6
 15  7  1  0
 15 14  1  0
 16 14  1  0
 16 17  2  0
 18 16  1  0
 19 18  1  0
 20 21  1  0
 19 20  1  1
 21 25  1  0
 22 21  2  0
 23 19  1  0
 23 26  1  0
 24 23  2  0
M  END
$$$$
