MQD.pdb
     RDKit          3D

 26 25  0  0  1  0  0  0  0  0999 V2000
   28.3377  -18.3278   -6.4005 C   0  0  0  0  0  0  0  0  0  0  0  0
   28.3568  -19.9103   -7.2518 S   0  0  0  0  0  0  0  0  0  0  0  0
   27.7070  -19.8234   -8.9212 C   0  0  0  0  0  0  0  0  0  0  0  0
   27.7060  -21.1706   -9.6242 C   0  0  0  0  0  0  0  0  0  0  0  0
   27.2609  -20.9963  -11.0807 C   0  0  2  0  0  0  0  0  0  0  0  0
   27.4187  -19.5922  -11.4126 N   0  0  0  0  0  0  0  0  0  0  0  0
   25.8403  -21.3449  -11.1770 C   0  0  0  0  0  0  0  0  0  0  0  0
   25.5516  -22.5779  -11.2671 O   0  0  0  0  0  0  0  0  0  0  0  0
   20.7785  -19.8308   -8.4768 N   0  0  0  0  0  0  0  0  0  0  0  0
   20.1654  -20.3026   -9.6628 C   0  0  0  0  0  0  0  0  0  0  0  0
   18.9246  -20.4510   -9.6840 O   0  0  0  0  0  0  0  0  0  0  0  0
   21.0215  -20.6014  -10.8310 C   0  0  0  0  0  0  0  0  0  0  0  0
   22.4696  -20.4428  -10.5821 C   0  0  0  0  0  0  0  0  0  0  0  0
   23.4143  -20.8411  -11.6626 C   0  0  2  0  0  0  0  0  0  0  0  0
   24.7628  -20.4288  -11.1785 N   0  0  0  0  0  0  0  0  0  0  0  0
   23.1674  -20.2164  -12.9774 C   0  0  0  0  0  0  0  0  0  0  0  0
   23.4811  -18.9920  -13.1417 O   0  0  0  0  0  0  0  0  0  0  0  0
   22.6070  -20.8413  -14.1129 N   0  0  0  0  0  0  0  0  0  0  0  0
   22.4300  -20.1340  -15.3645 C   0  0  1  0  0  0  0  0  0  0  0  0
   23.0847  -20.8215  -16.5295 C   0  0  0  0  0  0  0  0  0  0  0  0
   22.8393  -20.1507  -17.8148 C   0  0  0  0  0  0  0  0  0  0  0  0
   22.1856  -19.0758  -17.9335 O   0  0  0  0  0  0  0  0  0  0  0  0
   20.9890  -20.0272  -15.6595 C   0  0  0  0  0  0  0  0  0  0  0  0
   20.2162  -20.9675  -15.4014 O   0  0  0  0  0  0  0  0  0  0  0  0
   23.3462  -20.7142  -18.9772 O   0  0  0  0  0  0  0  0  0  0  0  0
   20.4956  -18.8743  -16.2264 O   0  0  0  0  0  0  0  0  0  0  0  0
  2  1  1  0
  3  2  1  0
  4  3  1  0
  4  5  1  0
  5  6  1  1
  5  7  1  0
  7  8  2  0
  9 10  1  0
 10 11  2  0
 10 12  1  0
 12 13  1  0
 14 13  1  1
 15  7  1  0
 15 14  1  0
 16 14  1  0
 16 17  2  0
 18 16  1  0
 19 18  1  0
 20 21  1  0
 19 20  1  6
 21 25  1  0
 22 21  2  0
 23 19  1  0
 23 26  1  0
 24 23  2  0
M  END
$$$$
