MQD.pdb
     RDKit          3D

 26 25  0  0  1  0  0  0  0  0999 V2000
   29.1953  -13.3667  -15.0959 C   0  0  0  0  0  0  0  0  0  0  0  0
   27.6382  -12.5926  -15.5493 S   0  0  0  0  0  0  0  0  0  0  0  0
   27.8479  -11.0576  -16.4529 C   0  0  0  0  0  0  0  0  0  0  0  0
   26.5372  -10.3223  -16.6777 C   0  0  0  0  0  0  0  0  0  0  0  0
   25.4747  -11.2999  -17.1926 C   0  0  2  0  0  0  0  0  0  0  0  0
   25.8536  -11.6735  -18.5430 N   0  0  0  0  0  0  0  0  0  0  0  0
   24.1866  -10.6018  -17.2424 C   0  0  0  0  0  0  0  0  0  0  0  0
   23.9451   -9.9052  -18.2759 O   0  0  0  0  0  0  0  0  0  0  0  0
   18.8879  -12.8657  -16.0038 N   0  0  0  0  0  0  0  0  0  0  0  0
   18.4323  -11.5266  -16.0675 C   0  0  0  0  0  0  0  0  0  0  0  0
   17.2028  -11.3042  -16.0358 O   0  0  0  0  0  0  0  0  0  0  0  0
   19.4335  -10.4430  -16.1693 C   0  0  0  0  0  0  0  0  0  0  0  0
   20.8355  -10.9091  -16.1986 C   0  0  0  0  0  0  0  0  0  0  0  0
   21.9062   -9.8972  -16.4186 C   0  0  2  0  0  0  0  0  0  0  0  0
   23.1890  -10.6359  -16.2404 N   0  0  0  0  0  0  0  0  0  0  0  0
   21.8854   -8.7465  -15.4936 C   0  0  0  0  0  0  0  0  0  0  0  0
   22.4976   -8.8454  -14.3801 O   0  0  0  0  0  0  0  0  0  0  0  0
   21.2456   -7.5064  -15.7093 N   0  0  0  0  0  0  0  0  0  0  0  0
   21.2700   -6.4517  -14.7167 C   0  0  1  0  0  0  0  0  0  0  0  0
   22.4563   -5.5393  -14.8529 C   0  0  0  0  0  0  0  0  0  0  0  0
   22.4353   -4.4115  -13.9096 C   0  0  0  0  0  0  0  0  0  0  0  0
   22.9321   -3.2768  -14.1590 O   0  0  0  0  0  0  0  0  0  0  0  0
   20.0539   -5.6291  -14.8559 C   0  0  0  0  0  0  0  0  0  0  0  0
   19.3260   -5.7358  -15.8592 O   0  0  0  0  0  0  0  0  0  0  0  0
   21.8401   -4.5821  -12.6677 O   0  0  0  0  0  0  0  0  0  0  0  0
   19.7223   -4.7343  -13.8641 O   0  0  0  0  0  0  0  0  0  0  0  0
  2  1  1  0
  3  2  1  0
  4  3  1  0
  4  5  1  0
  5  6  1  6
  5  7  1  0
  7  8  2  0
  9 10  1  0
 10 11  2  0
 10 12  1  0
 12 13  1  0
 14 13  1  1
 15  7  1  0
 15 14  1  0
 16 14  1  0
 16 17  2  0
 18 16  1  0
 19 18  1  0
 20 21  1  0
 19 20  1  6
 21 25  1  0
 22 21  2  0
 23 19  1  0
 23 26  1  0
 24 23  2  0
M  END
$$$$
