MQD.pdb
     RDKit          3D

 26 25  0  0  1  0  0  0  0  0999 V2000
   29.0789  -12.8969  -16.8654 C   0  0  0  0  0  0  0  0  0  0  0  0
   28.4424  -13.8222  -15.4625 S   0  0  0  0  0  0  0  0  0  0  0  0
   26.7124  -14.2634  -15.6323 C   0  0  0  0  0  0  0  0  0  0  0  0
   25.8629  -13.1226  -16.1672 C   0  0  0  0  0  0  0  0  0  0  0  0
   24.3865  -13.5350  -16.1780 C   0  0  2  0  0  0  0  0  0  0  0  0
   24.2635  -14.6663  -17.0789 N   0  0  0  0  0  0  0  0  0  0  0  0
   23.5972  -12.4212  -16.7122 C   0  0  0  0  0  0  0  0  0  0  0  0
   23.2104  -12.5116  -17.9180 O   0  0  0  0  0  0  0  0  0  0  0  0
   18.5516  -11.8500  -17.5018 N   0  0  0  0  0  0  0  0  0  0  0  0
   19.0771  -12.1271  -16.2165 C   0  0  0  0  0  0  0  0  0  0  0  0
   18.3546  -12.7126  -15.3814 O   0  0  0  0  0  0  0  0  0  0  0  0
   20.4635  -11.7107  -15.9144 C   0  0  0  0  0  0  0  0  0  0  0  0
   21.0949  -10.8853  -16.9652 C   0  0  0  0  0  0  0  0  0  0  0  0
   22.3828  -10.2086  -16.6457 C   0  0  2  0  0  0  0  0  0  0  0  0
   23.2285  -11.2546  -16.0027 N   0  0  0  0  0  0  0  0  0  0  0  0
   22.2776   -9.0523  -15.7334 C   0  0  0  0  0  0  0  0  0  0  0  0
   22.2655   -9.2636  -14.4766 O   0  0  0  0  0  0  0  0  0  0  0  0
   22.1883   -7.6933  -16.1061 N   0  0  0  0  0  0  0  0  0  0  0  0
   22.0330   -6.6406  -15.1233 C   0  0  1  0  0  0  0  0  0  0  0  0
   22.1060   -5.2621  -15.7172 C   0  0  0  0  0  0  0  0  0  0  0  0
   21.9449   -4.1903  -14.7235 C   0  0  0  0  0  0  0  0  0  0  0  0
   22.7430   -3.9957  -13.7634 O   0  0  0  0  0  0  0  0  0  0  0  0
   20.7171   -6.7784  -14.4717 C   0  0  0  0  0  0  0  0  0  0  0  0
   19.7238   -7.1552  -15.1192 O   0  0  0  0  0  0  0  0  0  0  0  0
   20.8599   -3.3315  -14.8279 O   0  0  0  0  0  0  0  0  0  0  0  0
   20.5885   -6.4866  -13.1328 O   0  0  0  0  0  0  0  0  0  0  0  0
  2  1  1  0
  3  2  1  0
  4  3  1  0
  4  5  1  0
  5  6  1  6
  5  7  1  0
  7  8  2  0
  9 10  1  0
 10 11  2  0
 10 12  1  0
 12 13  1  0
 14 13  1  1
 15  7  1  0
 15 14  1  0
 16 14  1  0
 16 17  2  0
 18 16  1  0
 19 18  1  0
 20 21  1  0
 19 20  1  6
 21 25  1  0
 22 21  2  0
 23 19  1  0
 23 26  1  0
 24 23  2  0
M  END
$$$$
