MQD.pdb
     RDKit          3D

 26 25  0  0  1  0  0  0  0  0999 V2000
   26.3737  -16.7917  -18.1290 C   0  0  0  0  0  0  0  0  0  0  0  0
   27.8302  -17.7149  -18.6347 S   0  0  0  0  0  0  0  0  0  0  0  0
   27.5029  -19.4563  -18.9125 C   0  0  0  0  0  0  0  0  0  0  0  0
   26.7979  -20.1178  -17.7401 C   0  0  0  0  0  0  0  0  0  0  0  0
   27.6821  -20.0389  -16.4904 C   0  0  2  0  0  0  0  0  0  0  0  0
   28.8565  -20.8532  -16.7434 N   0  0  0  0  0  0  0  0  0  0  0  0
   26.9445  -20.6159  -15.3625 C   0  0  0  0  0  0  0  0  0  0  0  0
   26.0288  -21.4515  -15.6363 O   0  0  0  0  0  0  0  0  0  0  0  0
   24.3815  -19.9476  -10.6465 N   0  0  0  0  0  0  0  0  0  0  0  0
   25.1445  -20.8986   -9.9264 C   0  0  0  0  0  0  0  0  0  0  0  0
   24.6769  -21.3732   -8.8690 O   0  0  0  0  0  0  0  0  0  0  0  0
   26.4676  -21.2919  -10.4571 C   0  0  0  0  0  0  0  0  0  0  0  0
   26.8957  -20.5334  -11.6510 C   0  0  0  0  0  0  0  0  0  0  0  0
   26.2339  -20.8387  -12.9500 C   0  0  2  0  0  0  0  0  0  0  0  0
   27.1630  -20.3237  -13.9961 N   0  0  0  0  0  0  0  0  0  0  0  0
   24.9076  -20.2189  -13.1424 C   0  0  0  0  0  0  0  0  0  0  0  0
   24.8409  -18.9580  -13.3167 O   0  0  0  0  0  0  0  0  0  0  0  0
   23.6629  -20.8853  -13.1585 N   0  0  0  0  0  0  0  0  0  0  0  0
   22.4238  -20.1825  -13.4209 C   0  0  1  0  0  0  0  0  0  0  0  0
   22.3565  -19.5996  -14.8044 C   0  0  0  0  0  0  0  0  0  0  0  0
   21.0675  -18.9588  -15.1046 C   0  0  0  0  0  0  0  0  0  0  0  0
   20.4170  -18.2643  -14.2732 O   0  0  0  0  0  0  0  0  0  0  0  0
   21.2957  -21.1213  -13.2750 C   0  0  0  0  0  0  0  0  0  0  0  0
   21.4943  -22.3477  -13.2082 O   0  0  0  0  0  0  0  0  0  0  0  0
   20.5157  -19.1132  -16.3684 O   0  0  0  0  0  0  0  0  0  0  0  0
   20.0102  -20.6336  -13.2123 O   0  0  0  0  0  0  0  0  0  0  0  0
  2  1  1  0
  3  2  1  0
  4  3  1  0
  4  5  1  0
  5  6  1  6
  5  7  1  0
  7  8  2  0
  9 10  1  0
 10 11  2  0
 10 12  1  0
 12 13  1  0
 14 13  1  1
 15  7  1  0
 15 14  1  0
 16 14  1  0
 16 17  2  0
 18 16  1  0
 19 18  1  0
 20 21  1  0
 19 20  1  6
 21 25  1  0
 22 21  2  0
 23 19  1  0
 23 26  1  0
 24 23  2  0
M  END
$$$$
