IAF.pdb
     RDKit          3D

 25 25  0  0  1  0  0  0  0  0999 V2000
   27.8610  -17.4460  -16.6066 C   0  0  0  0  0  0  0  0  0  0  0  0
   26.8337  -16.5601  -15.9725 C   0  0  0  0  0  0  0  0  0  0  0  0
   26.4414  -17.2021  -14.6410 C   0  0  2  0  0  0  0  0  0  0  0  0
   27.6704  -17.3922  -13.8199 C   0  0  0  0  0  0  0  0  0  0  0  0
   25.7843  -18.5489  -14.8921 C   0  0  2  0  0  0  0  0  0  0  0  0
   24.5492  -18.3202  -15.6782 N   0  0  0  0  0  0  0  0  0  0  0  0
   25.3412  -19.0922  -13.5959 C   0  0  0  0  0  0  0  0  0  0  0  0
   24.7095  -18.3438  -12.7973 O   0  0  0  0  0  0  0  0  0  0  0  0
   25.1290  -22.4348  -11.9891 C   0  0  0  0  0  0  0  0  0  0  0  0
   25.1947  -20.9145  -11.8671 C   0  0  2  0  0  0  0  0  0  0  0  0
   25.5755  -20.4146  -13.1783 N   0  0  0  0  0  0  0  0  0  0  0  0
   26.2077  -20.6057  -10.8420 C   0  0  0  0  0  0  0  0  0  0  0  0
   27.4499  -20.5265  -11.1360 O   0  0  0  0  0  0  0  0  0  0  0  0
   25.8986  -20.3759   -9.4769 N   0  0  0  0  0  0  0  0  0  0  0  0
   26.8981  -20.3050   -8.4290 C   0  0  1  0  0  0  0  0  0  0  0  0
   26.5394  -19.1289   -7.5458 C   0  0  0  0  0  0  0  0  0  0  0  0
   27.3406  -19.0723   -6.3091 C   0  0  0  0  0  0  0  0  0  0  0  0
   28.3212  -18.1162   -6.1579 C   0  0  0  0  0  0  0  0  0  0  0  0
   29.0938  -18.0344   -5.0071 C   0  0  0  0  0  0  0  0  0  0  0  0
   28.8855  -18.9234   -3.9855 C   0  0  0  0  0  0  0  0  0  0  0  0
   27.8994  -19.9042   -4.1077 C   0  0  0  0  0  0  0  0  0  0  0  0
   27.1472  -19.9567   -5.2700 C   0  0  0  0  0  0  0  0  0  0  0  0
   27.0354  -21.5557   -7.6831 C   0  0  0  0  0  0  0  0  0  0  0  0
   28.2263  -22.0022   -7.1257 O   0  0  0  0  0  0  0  0  0  0  0  0
   26.0231  -22.2858   -7.5262 O   0  0  0  0  0  0  0  0  0  0  0  0
  1  2  1  0
  2  3  1  0
  3  4  1  1
  3  5  1  0
  5  6  1  6
  5  7  1  0
  7  8  2  0
 10  9  1  6
 11  7  1  0
 11 10  1  0
 12 10  1  0
 12 13  2  0
 14 12  1  0
 15 14  1  0
 15 16  1  1
 17 18  2  0
 17 16  1  0
 19 18  1  0
 20 19  2  0
 21 20  1  0
 21 22  2  0
 22 17  1  0
 23 15  1  0
 24 23  1  0
 25 23  2  0
M  END
$$$$
