IAF.pdb
     RDKit          3D

 25 25  0  0  1  0  0  0  0  0999 V2000
   18.8985  -12.8984  -22.9827 C   0  0  0  0  0  0  0  0  0  0  0  0
   20.1328  -13.6134  -22.5273 C   0  0  0  0  0  0  0  0  0  0  0  0
   20.2909  -13.3367  -21.0315 C   0  0  2  0  0  0  0  0  0  0  0  0
   18.9724  -13.5334  -20.3655 C   0  0  0  0  0  0  0  0  0  0  0  0
   20.7599  -11.9072  -20.8187 C   0  0  2  0  0  0  0  0  0  0  0  0
   22.1307  -11.7848  -21.3677 N   0  0  0  0  0  0  0  0  0  0  0  0
   20.8852  -11.6763  -19.3687 C   0  0  0  0  0  0  0  0  0  0  0  0
   19.8968  -11.9158  -18.6186 O   0  0  0  0  0  0  0  0  0  0  0  0
   23.5979  -10.9599  -16.9445 C   0  0  0  0  0  0  0  0  0  0  0  0
   22.1253  -10.8648  -17.3353 C   0  0  2  0  0  0  0  0  0  0  0  0
   22.0542  -11.2003  -18.7482 N   0  0  0  0  0  0  0  0  0  0  0  0
   21.6963   -9.4792  -17.0736 C   0  0  0  0  0  0  0  0  0  0  0  0
   21.9952   -8.5273  -17.8737 O   0  0  0  0  0  0  0  0  0  0  0  0
   20.9348   -9.0937  -15.9408 N   0  0  0  0  0  0  0  0  0  0  0  0
   20.5059   -7.7320  -15.6880 C   0  0  1  0  0  0  0  0  0  0  0  0
   18.9937   -7.7435  -15.6188 C   0  0  0  0  0  0  0  0  0  0  0  0
   18.3597   -8.0105  -16.9231 C   0  0  0  0  0  0  0  0  0  0  0  0
   18.1327   -6.9813  -17.8107 C   0  0  0  0  0  0  0  0  0  0  0  0
   17.5382   -7.1972  -19.0467 C   0  0  0  0  0  0  0  0  0  0  0  0
   17.1618   -8.4646  -19.4065 C   0  0  0  0  0  0  0  0  0  0  0  0
   17.3781   -9.5293  -18.5295 C   0  0  0  0  0  0  0  0  0  0  0  0
   17.9738   -9.2774  -17.3042 C   0  0  0  0  0  0  0  0  0  0  0  0
   21.1255   -7.1480  -14.4987 C   0  0  0  0  0  0  0  0  0  0  0  0
   20.8775   -5.8589  -14.0459 O   0  0  0  0  0  0  0  0  0  0  0  0
   21.9361   -7.8409  -13.8314 O   0  0  0  0  0  0  0  0  0  0  0  0
  1  2  1  0
  2  3  1  0
  3  4  1  1
  3  5  1  0
  5  6  1  6
  5  7  1  0
  7  8  2  0
 10  9  1  6
 11  7  1  0
 11 10  1  0
 12 10  1  0
 12 13  2  0
 14 12  1  0
 15 14  1  0
 15 16  1  1
 17 18  2  0
 17 16  1  0
 19 18  1  0
 20 19  2  0
 21 20  1  0
 21 22  2  0
 22 17  1  0
 23 15  1  0
 24 23  1  0
 25 23  2  0
M  END
$$$$
