IAF.pdb
     RDKit          3D

 25 25  0  0  1  0  0  0  0  0999 V2000
   27.8914  -20.8618  -10.1586 C   0  0  0  0  0  0  0  0  0  0  0  0
   28.2956  -20.7367  -11.5950 C   0  0  0  0  0  0  0  0  0  0  0  0
   27.0119  -20.6997  -12.4254 C   0  0  2  0  0  0  0  0  0  0  0  0
   26.2717  -21.9769  -12.2210 C   0  0  0  0  0  0  0  0  0  0  0  0
   27.3545  -20.5405  -13.8971 C   0  0  2  0  0  0  0  0  0  0  0  0
   28.1581  -19.3054  -14.0526 N   0  0  0  0  0  0  0  0  0  0  0  0
   26.1024  -20.3015  -14.6366 C   0  0  0  0  0  0  0  0  0  0  0  0
   25.4238  -19.2664  -14.3815 O   0  0  0  0  0  0  0  0  0  0  0  0
   24.2506  -21.9542  -17.4304 C   0  0  0  0  0  0  0  0  0  0  0  0
   24.2966  -20.9897  -16.2479 C   0  0  2  0  0  0  0  0  0  0  0  0
   25.6011  -21.1624  -15.6293 N   0  0  0  0  0  0  0  0  0  0  0  0
   23.1993  -21.3664  -15.3388 C   0  0  0  0  0  0  0  0  0  0  0  0
   23.3882  -22.1755  -14.3665 O   0  0  0  0  0  0  0  0  0  0  0  0
   21.8742  -20.8759  -15.4621 N   0  0  0  0  0  0  0  0  0  0  0  0
   20.8642  -21.0260  -14.4328 C   0  0  1  0  0  0  0  0  0  0  0  0
   21.1383  -19.9748  -13.3786 C   0  0  0  0  0  0  0  0  0  0  0  0
   21.1120  -18.6013  -13.9146 C   0  0  0  0  0  0  0  0  0  0  0  0
   19.9110  -17.9640  -14.1384 C   0  0  0  0  0  0  0  0  0  0  0  0
   19.8499  -16.6716  -14.6421 C   0  0  0  0  0  0  0  0  0  0  0  0
   21.0090  -15.9995  -14.9288 C   0  0  0  0  0  0  0  0  0  0  0  0
   22.2423  -16.6175  -14.7132 C   0  0  0  0  0  0  0  0  0  0  0  0
   22.2660  -17.9080  -14.2096 C   0  0  0  0  0  0  0  0  0  0  0  0
   19.4997  -20.9646  -14.9563 C   0  0  0  0  0  0  0  0  0  0  0  0
   18.3716  -21.3251  -14.2314 O   0  0  0  0  0  0  0  0  0  0  0  0
   19.3166  -20.5628  -16.1342 O   0  0  0  0  0  0  0  0  0  0  0  0
  1  2  1  0
  2  3  1  0
  3  4  1  6
  3  5  1  0
  5  6  1  1
  5  7  1  0
  7  8  2  0
 10  9  1  6
 11  7  1  0
 11 10  1  0
 12 10  1  0
 12 13  2  0
 14 12  1  0
 15 14  1  0
 15 16  1  1
 17 18  2  0
 17 16  1  0
 19 18  1  0
 20 19  2  0
 21 20  1  0
 21 22  2  0
 22 17  1  0
 23 15  1  0
 24 23  1  0
 25 23  2  0
M  END
$$$$
