IAF.pdb
     RDKit          3D

 25 25  0  0  1  0  0  0  0  0999 V2000
   35.5116  -30.7073    6.0813 C   0  0  0  0  0  0  0  0  0  0  0  0
   34.0832  -30.5725    6.5103 C   0  0  0  0  0  0  0  0  0  0  0  0
   33.9525  -29.2323    7.2353 C   0  0  2  0  0  0  0  0  0  0  0  0
   34.6144  -28.1776    6.4166 C   0  0  0  0  0  0  0  0  0  0  0  0
   34.6230  -29.3150    8.5963 C   0  0  2  0  0  0  0  0  0  0  0  0
   33.8390  -30.2464    9.4409 N   0  0  0  0  0  0  0  0  0  0  0  0
   34.5127  -27.9957    9.2433 C   0  0  0  0  0  0  0  0  0  0  0  0
   33.3682  -27.5444    9.5320 O   0  0  0  0  0  0  0  0  0  0  0  0
   36.8832  -25.5310   10.7306 C   0  0  0  0  0  0  0  0  0  0  0  0
   35.4904  -25.8937   10.2216 C   0  0  2  0  0  0  0  0  0  0  0  0
   35.6165  -27.1879    9.5710 N   0  0  0  0  0  0  0  0  0  0  0  0
   35.0858  -24.8370    9.2770 C   0  0  0  0  0  0  0  0  0  0  0  0
   35.0299  -25.0550    8.0180 O   0  0  0  0  0  0  0  0  0  0  0  0
   34.7329  -23.5219    9.6743 N   0  0  0  0  0  0  0  0  0  0  0  0
   34.2665  -22.5037    8.7535 C   0  0  1  0  0  0  0  0  0  0  0  0
   32.9645  -22.9980    8.1600 C   0  0  0  0  0  0  0  0  0  0  0  0
   32.3327  -22.0157    7.2597 C   0  0  0  0  0  0  0  0  0  0  0  0
   31.3093  -21.2125    7.7135 C   0  0  0  0  0  0  0  0  0  0  0  0
   30.6925  -20.2776    6.8930 C   0  0  0  0  0  0  0  0  0  0  0  0
   31.1033  -20.1397    5.5932 C   0  0  0  0  0  0  0  0  0  0  0  0
   32.1379  -20.9387    5.1027 C   0  0  0  0  0  0  0  0  0  0  0  0
   32.7309  -21.8612    5.9493 C   0  0  0  0  0  0  0  0  0  0  0  0
   34.1448  -21.1841    9.3728 C   0  0  0  0  0  0  0  0  0  0  0  0
   34.3505  -19.9871    8.6998 O   0  0  0  0  0  0  0  0  0  0  0  0
   33.8355  -21.1085   10.5898 O   0  0  0  0  0  0  0  0  0  0  0  0
  1  2  1  0
  2  3  1  0
  3  4  1  6
  3  5  1  0
  5  6  1  1
  5  7  1  0
  7  8  2  0
 10  9  1  6
 11  7  1  0
 11 10  1  0
 12 10  1  0
 12 13  2  0
 14 12  1  0
 15 14  1  0
 15 16  1  1
 17 18  2  0
 17 16  1  0
 19 18  1  0
 20 19  2  0
 21 20  1  0
 21 22  2  0
 22 17  1  0
 23 15  1  0
 24 23  1  0
 25 23  2  0
M  END
$$$$
