IAF.pdb
     RDKit          3D

 25 25  0  0  1  0  0  0  0  0999 V2000
   19.5988  -11.2780    4.7876 C   0  0  0  0  0  0  0  0  0  0  0  0
   19.8568  -10.5022    6.0421 C   0  0  0  0  0  0  0  0  0  0  0  0
   20.3551  -11.4943    7.0940 C   0  0  2  0  0  0  0  0  0  0  0  0
   21.6749  -12.0321    6.6585 C   0  0  0  0  0  0  0  0  0  0  0  0
   19.3627  -12.6360    7.2366 C   0  0  2  0  0  0  0  0  0  0  0  0
   18.1402  -12.1062    7.8850 N   0  0  0  0  0  0  0  0  0  0  0  0
   19.9253  -13.6179    8.1805 C   0  0  0  0  0  0  0  0  0  0  0  0
   20.8950  -14.3403    7.8134 O   0  0  0  0  0  0  0  0  0  0  0  0
   19.3329  -14.5920   11.7413 C   0  0  0  0  0  0  0  0  0  0  0  0
   19.9217  -14.8732   10.3611 C   0  0  2  0  0  0  0  0  0  0  0  0
   19.4493  -13.8092    9.4900 N   0  0  0  0  0  0  0  0  0  0  0  0
   19.4244  -16.1950    9.9392 C   0  0  0  0  0  0  0  0  0  0  0  0
   18.2309  -16.3504    9.5067 O   0  0  0  0  0  0  0  0  0  0  0  0
   20.2077  -17.3769    9.9763 N   0  0  0  0  0  0  0  0  0  0  0  0
   19.8955  -18.5703    9.2144 C   0  0  1  0  0  0  0  0  0  0  0  0
   19.6131  -18.1338    7.7926 C   0  0  0  0  0  0  0  0  0  0  0  0
   19.0013  -19.1974    6.9747 C   0  0  0  0  0  0  0  0  0  0  0  0
   17.8204  -18.9672    6.3031 C   0  0  0  0  0  0  0  0  0  0  0  0
   17.2174  -19.9459    5.5245 C   0  0  0  0  0  0  0  0  0  0  0  0
   17.8025  -21.1798    5.4122 C   0  0  0  0  0  0  0  0  0  0  0  0
   18.9995  -21.4448    6.0803 C   0  0  0  0  0  0  0  0  0  0  0  0
   19.5735  -20.4449    6.8486 C   0  0  0  0  0  0  0  0  0  0  0  0
   20.9382  -19.5927    9.2992 C   0  0  0  0  0  0  0  0  0  0  0  0
   20.7016  -20.9188    9.6365 O   0  0  0  0  0  0  0  0  0  0  0  0
   22.1292  -19.2700    9.0549 O   0  0  0  0  0  0  0  0  0  0  0  0
  1  2  1  0
  2  3  1  0
  3  4  1  6
  3  5  1  0
  5  6  1  1
  5  7  1  0
  7  8  2  0
 10  9  1  1
 11  7  1  0
 11 10  1  0
 12 10  1  0
 12 13  2  0
 14 12  1  0
 15 14  1  0
 15 16  1  6
 17 18  2  0
 17 16  1  0
 19 18  1  0
 20 19  2  0
 21 20  1  0
 21 22  2  0
 22 17  1  0
 23 15  1  0
 24 23  1  0
 25 23  2  0
M  END
$$$$
