IAF.pdb
     RDKit          3D

 25 25  0  0  1  0  0  0  0  0999 V2000
   25.5425  -18.2623  -17.7209 C   0  0  0  0  0  0  0  0  0  0  0  0
   24.2234  -18.8322  -17.2996 C   0  0  0  0  0  0  0  0  0  0  0  0
   24.0546  -18.5306  -15.8098 C   0  0  2  0  0  0  0  0  0  0  0  0
   24.1305  -17.0562  -15.6074 C   0  0  0  0  0  0  0  0  0  0  0  0
   25.1593  -19.2101  -15.0181 C   0  0  2  0  0  0  0  0  0  0  0  0
   25.1856  -20.6419  -15.3984 N   0  0  0  0  0  0  0  0  0  0  0  0
   24.7877  -19.1793  -13.5924 C   0  0  0  0  0  0  0  0  0  0  0  0
   24.6547  -18.0637  -13.0139 O   0  0  0  0  0  0  0  0  0  0  0  0
   23.2270  -21.4558  -11.1903 C   0  0  0  0  0  0  0  0  0  0  0  0
   24.1759  -20.2812  -11.4146 C   0  0  2  0  0  0  0  0  0  0  0  0
   24.5638  -20.3298  -12.8151 N   0  0  0  0  0  0  0  0  0  0  0  0
   25.3270  -20.4765  -10.5149 C   0  0  0  0  0  0  0  0  0  0  0  0
   26.2491  -21.3200  -10.7869 O   0  0  0  0  0  0  0  0  0  0  0  0
   25.5052  -19.7633   -9.3019 N   0  0  0  0  0  0  0  0  0  0  0  0
   26.5956  -20.0104   -8.3788 C   0  0  1  0  0  0  0  0  0  0  0  0
   26.5516  -18.9195   -7.3302 C   0  0  0  0  0  0  0  0  0  0  0  0
   27.6268  -19.0404   -6.3283 C   0  0  0  0  0  0  0  0  0  0  0  0
   27.4014  -19.7027   -5.1413 C   0  0  0  0  0  0  0  0  0  0  0  0
   28.3910  -19.8349   -4.1764 C   0  0  0  0  0  0  0  0  0  0  0  0
   29.6312  -19.2963   -4.3982 C   0  0  0  0  0  0  0  0  0  0  0  0
   29.8917  -18.6190   -5.5911 C   0  0  0  0  0  0  0  0  0  0  0  0
   28.8808  -18.5060   -6.5317 C   0  0  0  0  0  0  0  0  0  0  0  0
   26.5649  -21.3547   -7.8031 C   0  0  0  0  0  0  0  0  0  0  0  0
   27.6953  -22.1261   -7.5680 O   0  0  0  0  0  0  0  0  0  0  0  0
   25.4550  -21.8605   -7.4954 O   0  0  0  0  0  0  0  0  0  0  0  0
  1  2  1  0
  2  3  1  0
  3  4  1  6
  3  5  1  0
  5  6  1  6
  5  7  1  0
  7  8  2  0
 10  9  1  6
 11  7  1  0
 11 10  1  0
 12 10  1  0
 12 13  2  0
 14 12  1  0
 15 14  1  0
 15 16  1  1
 17 18  2  0
 17 16  1  0
 19 18  1  0
 20 19  2  0
 21 20  1  0
 21 22  2  0
 22 17  1  0
 23 15  1  0
 24 23  1  0
 25 23  2  0
M  END
$$$$
