IAF.pdb
     RDKit          3D

 25 25  0  0  1  0  0  0  0  0999 V2000
   26.8110  -21.6636  -16.6080 C   0  0  0  0  0  0  0  0  0  0  0  0
   25.4591  -21.2347  -16.1278 C   0  0  0  0  0  0  0  0  0  0  0  0
   25.6226  -20.7516  -14.6860 C   0  0  2  0  0  0  0  0  0  0  0  0
   26.1273  -21.8817  -13.8560 C   0  0  0  0  0  0  0  0  0  0  0  0
   24.2829  -20.2818  -14.1447 C   0  0  2  0  0  0  0  0  0  0  0  0
   23.8823  -19.0681  -14.8946 N   0  0  0  0  0  0  0  0  0  0  0  0
   24.4781  -19.8469  -12.7503 C   0  0  0  0  0  0  0  0  0  0  0  0
   25.3725  -18.9928  -12.4905 O   0  0  0  0  0  0  0  0  0  0  0  0
   22.6963  -20.2607   -9.5117 C   0  0  0  0  0  0  0  0  0  0  0  0
   23.9702  -19.9358  -10.2876 C   0  0  2  0  0  0  0  0  0  0  0  0
   23.7204  -20.3248  -11.6661 N   0  0  0  0  0  0  0  0  0  0  0  0
   25.0595  -20.7212   -9.6801 C   0  0  0  0  0  0  0  0  0  0  0  0
   25.2477  -21.9481   -9.9884 O   0  0  0  0  0  0  0  0  0  0  0  0
   25.9684  -20.1962   -8.7262 N   0  0  0  0  0  0  0  0  0  0  0  0
   26.9563  -20.9994   -8.0326 C   0  0  1  0  0  0  0  0  0  0  0  0
   28.2065  -20.1563   -7.8991 C   0  0  0  0  0  0  0  0  0  0  0  0
   28.3464  -19.5410   -6.5663 C   0  0  0  0  0  0  0  0  0  0  0  0
   29.0621  -20.1788   -5.5765 C   0  0  0  0  0  0  0  0  0  0  0  0
   29.2136  -19.6281   -4.3110 C   0  0  0  0  0  0  0  0  0  0  0  0
   28.6404  -18.4169   -4.0250 C   0  0  0  0  0  0  0  0  0  0  0  0
   27.9088  -17.7451   -5.0062 C   0  0  0  0  0  0  0  0  0  0  0  0
   27.7779  -18.3239   -6.2582 C   0  0  0  0  0  0  0  0  0  0  0  0
   26.4774  -21.5141   -6.7498 C   0  0  0  0  0  0  0  0  0  0  0  0
   27.0630  -22.5735   -6.0694 O   0  0  0  0  0  0  0  0  0  0  0  0
   25.4741  -20.9767   -6.2140 O   0  0  0  0  0  0  0  0  0  0  0  0
  1  2  1  0
  2  3  1  0
  3  4  1  1
  3  5  1  0
  5  6  1  6
  5  7  1  0
  7  8  2  0
 10  9  1  1
 11  7  1  0
 11 10  1  0
 12 10  1  0
 12 13  2  0
 14 12  1  0
 15 14  1  0
 15 16  1  1
 17 18  2  0
 17 16  1  0
 19 18  1  0
 20 19  2  0
 21 20  1  0
 21 22  2  0
 22 17  1  0
 23 15  1  0
 24 23  1  0
 25 23  2  0
M  END
$$$$
