IAF.pdb
     RDKit          3D

 25 25  0  0  1  0  0  0  0  0999 V2000
   28.4818  -20.5742   -4.0687 C   0  0  0  0  0  0  0  0  0  0  0  0
   27.3597  -20.1111   -4.9454 C   0  0  0  0  0  0  0  0  0  0  0  0
   27.9271  -19.9406   -6.3554 C   0  0  2  0  0  0  0  0  0  0  0  0
   28.6034  -18.6156   -6.4431 C   0  0  0  0  0  0  0  0  0  0  0  0
   26.8023  -20.0059   -7.3749 C   0  0  2  0  0  0  0  0  0  0  0  0
   26.1944  -21.3554   -7.3053 N   0  0  0  0  0  0  0  0  0  0  0  0
   27.3953  -19.9008   -8.7198 C   0  0  0  0  0  0  0  0  0  0  0  0
   27.4037  -18.7802   -9.3040 O   0  0  0  0  0  0  0  0  0  0  0  0
   29.5636  -22.0151  -10.8544 C   0  0  0  0  0  0  0  0  0  0  0  0
   28.5802  -20.8548  -10.7240 C   0  0  2  0  0  0  0  0  0  0  0  0
   27.9667  -20.9835   -9.4121 N   0  0  0  0  0  0  0  0  0  0  0  0
   27.5954  -20.9975  -11.8114 C   0  0  0  0  0  0  0  0  0  0  0  0
   27.9614  -21.0903  -13.0333 O   0  0  0  0  0  0  0  0  0  0  0  0
   26.1936  -21.0429  -11.6000 N   0  0  0  0  0  0  0  0  0  0  0  0
   25.2341  -21.3433  -12.6447 C   0  0  1  0  0  0  0  0  0  0  0  0
   24.0889  -22.0943  -11.9996 C   0  0  0  0  0  0  0  0  0  0  0  0
   23.1557  -21.2106  -11.2766 C   0  0  0  0  0  0  0  0  0  0  0  0
   21.9514  -20.8558  -11.8442 C   0  0  0  0  0  0  0  0  0  0  0  0
   21.0497  -20.0259  -11.1915 C   0  0  0  0  0  0  0  0  0  0  0  0
   21.3536  -19.5390   -9.9474 C   0  0  0  0  0  0  0  0  0  0  0  0
   22.5661  -19.8798   -9.3447 C   0  0  0  0  0  0  0  0  0  0  0  0
   23.4422  -20.7102  -10.0248 C   0  0  0  0  0  0  0  0  0  0  0  0
   24.7950  -20.1559  -13.3774 C   0  0  0  0  0  0  0  0  0  0  0  0
   25.1567  -18.8576  -13.0430 O   0  0  0  0  0  0  0  0  0  0  0  0
   24.0426  -20.2994  -14.3753 O   0  0  0  0  0  0  0  0  0  0  0  0
  1  2  1  0
  2  3  1  0
  3  4  1  1
  3  5  1  0
  5  6  1  6
  5  7  1  0
  7  8  2  0
 10  9  1  6
 11  7  1  0
 11 10  1  0
 12 10  1  0
 12 13  2  0
 14 12  1  0
 15 14  1  0
 15 16  1  1
 17 18  2  0
 17 16  1  0
 19 18  1  0
 20 19  2  0
 21 20  1  0
 21 22  2  0
 22 17  1  0
 23 15  1  0
 24 23  1  0
 25 23  2  0
M  END
$$$$
