IAF.pdb
     RDKit          3D

 25 25  0  0  1  0  0  0  0  0999 V2000
   17.7749   -7.8327  -25.4077 C   0  0  0  0  0  0  0  0  0  0  0  0
   17.3195   -8.4286  -24.1117 C   0  0  0  0  0  0  0  0  0  0  0  0
   18.1138   -7.7478  -22.9961 C   0  0  2  0  0  0  0  0  0  0  0  0
   19.5396   -8.1694  -23.0968 C   0  0  0  0  0  0  0  0  0  0  0  0
   17.5568   -8.1573  -21.6430 C   0  0  2  0  0  0  0  0  0  0  0  0
   16.1333   -7.7496  -21.5876 N   0  0  0  0  0  0  0  0  0  0  0  0
   18.2424   -7.3663  -20.6059 C   0  0  0  0  0  0  0  0  0  0  0  0
   19.4858   -7.5166  -20.4374 O   0  0  0  0  0  0  0  0  0  0  0  0
   17.2486   -4.7555  -18.1145 C   0  0  0  0  0  0  0  0  0  0  0  0
   18.2611   -5.7493  -18.6782 C   0  0  2  0  0  0  0  0  0  0  0  0
   17.5957   -6.4341  -19.7747 N   0  0  0  0  0  0  0  0  0  0  0  0
   18.6175   -6.6716  -17.5851 C   0  0  0  0  0  0  0  0  0  0  0  0
   17.8817   -7.6769  -17.2956 O   0  0  0  0  0  0  0  0  0  0  0  0
   19.7775   -6.5262  -16.7819 N   0  0  0  0  0  0  0  0  0  0  0  0
   20.0944   -7.3953  -15.6656 C   0  0  1  0  0  0  0  0  0  0  0  0
   21.6027   -7.5027  -15.5947 C   0  0  0  0  0  0  0  0  0  0  0  0
   22.0642   -8.4641  -14.5762 C   0  0  0  0  0  0  0  0  0  0  0  0
   22.8168   -9.5586  -14.9421 C   0  0  0  0  0  0  0  0  0  0  0  0
   23.2675  -10.4831  -14.0094 C   0  0  0  0  0  0  0  0  0  0  0  0
   22.9624  -10.3141  -12.6844 C   0  0  0  0  0  0  0  0  0  0  0  0
   22.2014   -9.2151  -12.2810 C   0  0  0  0  0  0  0  0  0  0  0  0
   21.7683   -8.3125  -13.2387 C   0  0  0  0  0  0  0  0  0  0  0  0
   19.4957   -6.9519  -14.4068 C   0  0  0  0  0  0  0  0  0  0  0  0
   18.9495   -7.8092  -13.4608 O   0  0  0  0  0  0  0  0  0  0  0  0
   19.4644   -5.7214  -14.1472 O   0  0  0  0  0  0  0  0  0  0  0  0
  1  2  1  0
  2  3  1  0
  3  4  1  1
  3  5  1  0
  5  6  1  6
  5  7  1  0
  7  8  2  0
 10  9  1  1
 11  7  1  0
 11 10  1  0
 12 10  1  0
 12 13  2  0
 14 12  1  0
 15 14  1  0
 15 16  1  1
 17 18  2  0
 17 16  1  0
 19 18  1  0
 20 19  2  0
 21 20  1  0
 21 22  2  0
 22 17  1  0
 23 15  1  0
 24 23  1  0
 25 23  2  0
M  END
$$$$
