IAF.pdb
     RDKit          3D

 25 25  0  0  1  0  0  0  0  0999 V2000
   29.0077  -17.2749  -16.5934 C   0  0  0  0  0  0  0  0  0  0  0  0
   27.5929  -17.7169  -16.8063 C   0  0  0  0  0  0  0  0  0  0  0  0
   26.9347  -17.8084  -15.4289 C   0  0  2  0  0  0  0  0  0  0  0  0
   27.0735  -16.4928  -14.7428 C   0  0  0  0  0  0  0  0  0  0  0  0
   27.6154  -18.8870  -14.6030 C   0  0  2  0  0  0  0  0  0  0  0  0
   27.5992  -20.1456  -15.3848 N   0  0  0  0  0  0  0  0  0  0  0  0
   26.7877  -19.1432  -13.4110 C   0  0  0  0  0  0  0  0  0  0  0  0
   26.6327  -18.2231  -12.5588 O   0  0  0  0  0  0  0  0  0  0  0  0
   24.5087  -21.8691  -12.2774 C   0  0  0  0  0  0  0  0  0  0  0  0
   25.2846  -20.5843  -11.9986 C   0  0  2  0  0  0  0  0  0  0  0  0
   26.1428  -20.3659  -13.1518 N   0  0  0  0  0  0  0  0  0  0  0  0
   26.0611  -20.8061  -10.7656 C   0  0  0  0  0  0  0  0  0  0  0  0
   27.0549  -21.6107  -10.7402 O   0  0  0  0  0  0  0  0  0  0  0  0
   25.7790  -20.1623   -9.5336 N   0  0  0  0  0  0  0  0  0  0  0  0
   26.4457  -20.4868   -8.2878 C   0  0  1  0  0  0  0  0  0  0  0  0
   27.2268  -19.2611   -7.8644 C   0  0  0  0  0  0  0  0  0  0  0  0
   27.8925  -19.4253   -6.5588 C   0  0  0  0  0  0  0  0  0  0  0  0
   27.2178  -19.1385   -5.3922 C   0  0  0  0  0  0  0  0  0  0  0  0
   27.8141  -19.2819   -4.1465 C   0  0  0  0  0  0  0  0  0  0  0  0
   29.1095  -19.7201   -4.0608 C   0  0  0  0  0  0  0  0  0  0  0  0
   29.8206  -20.0192   -5.2245 C   0  0  0  0  0  0  0  0  0  0  0  0
   29.1943  -19.8646   -6.4506 C   0  0  0  0  0  0  0  0  0  0  0  0
   25.5268  -20.9613   -7.2533 C   0  0  0  0  0  0  0  0  0  0  0  0
   25.9023  -21.7768   -6.1940 O   0  0  0  0  0  0  0  0  0  0  0  0
   24.3173  -20.6202   -7.3098 O   0  0  0  0  0  0  0  0  0  0  0  0
  1  2  1  0
  2  3  1  0
  3  4  1  1
  3  5  1  0
  5  6  1  6
  5  7  1  0
  7  8  2  0
 10  9  1  6
 11  7  1  0
 11 10  1  0
 12 10  1  0
 12 13  2  0
 14 12  1  0
 15 14  1  0
 15 16  1  1
 17 18  2  0
 17 16  1  0
 19 18  1  0
 20 19  2  0
 21 20  1  0
 21 22  2  0
 22 17  1  0
 23 15  1  0
 24 23  1  0
 25 23  2  0
M  END
$$$$
