IAF.pdb
     RDKit          3D

 25 25  0  0  1  0  0  0  0  0999 V2000
   17.8979  -14.2794  -16.6381 C   0  0  0  0  0  0  0  0  0  0  0  0
   17.9260  -12.9501  -17.3269 C   0  0  0  0  0  0  0  0  0  0  0  0
   18.8908  -12.0559  -16.5469 C   0  0  2  0  0  0  0  0  0  0  0  0
   18.3627  -11.8707  -15.1657 C   0  0  0  0  0  0  0  0  0  0  0  0
   19.0090  -10.7046  -17.2316 C   0  0  2  0  0  0  0  0  0  0  0  0
   19.6038  -10.9171  -18.5720 N   0  0  0  0  0  0  0  0  0  0  0  0
   19.9852   -9.8941  -16.4822 C   0  0  0  0  0  0  0  0  0  0  0  0
   19.7533   -9.6127  -15.2723 O   0  0  0  0  0  0  0  0  0  0  0  0
   23.2919   -8.3027  -17.2250 C   0  0  0  0  0  0  0  0  0  0  0  0
   22.1071   -8.5547  -16.2960 C   0  0  2  0  0  0  0  0  0  0  0  0
   21.1837   -9.4038  -17.0311 N   0  0  0  0  0  0  0  0  0  0  0  0
   21.5180   -7.2412  -15.9794 C   0  0  0  0  0  0  0  0  0  0  0  0
   20.7178   -6.6578  -16.7888 O   0  0  0  0  0  0  0  0  0  0  0  0
   21.7819   -6.5308  -14.7804 N   0  0  0  0  0  0  0  0  0  0  0  0
   21.1991   -5.2407  -14.4675 C   0  0  1  0  0  0  0  0  0  0  0  0
   19.7262   -5.4666  -14.2006 C   0  0  0  0  0  0  0  0  0  0  0  0
   19.4742   -6.1977  -12.9450 C   0  0  0  0  0  0  0  0  0  0  0  0
   19.1172   -7.5282  -12.9736 C   0  0  0  0  0  0  0  0  0  0  0  0
   18.8727   -8.2465  -11.8108 C   0  0  0  0  0  0  0  0  0  0  0  0
   18.9861   -7.6269  -10.5940 C   0  0  0  0  0  0  0  0  0  0  0  0
   19.3462   -6.2794  -10.5310 C   0  0  0  0  0  0  0  0  0  0  0  0
   19.5827   -5.5933  -11.7112 C   0  0  0  0  0  0  0  0  0  0  0  0
   21.8785   -4.5572  -13.3672 C   0  0  0  0  0  0  0  0  0  0  0  0
   22.8709   -5.1354  -12.5868 O   0  0  0  0  0  0  0  0  0  0  0  0
   21.5577   -3.3715  -13.0957 O   0  0  0  0  0  0  0  0  0  0  0  0
  1  2  1  0
  2  3  1  0
  3  4  1  1
  3  5  1  0
  5  6  1  6
  5  7  1  0
  7  8  2  0
 10  9  1  6
 11  7  1  0
 11 10  1  0
 12 10  1  0
 12 13  2  0
 14 12  1  0
 15 14  1  0
 15 16  1  1
 17 18  2  0
 17 16  1  0
 19 18  1  0
 20 19  2  0
 21 20  1  0
 21 22  2  0
 22 17  1  0
 23 15  1  0
 24 23  1  0
 25 23  2  0
M  END
$$$$
