CIG.pdb
     RDKit          3D

 19 18  0  0  1  0  0  0  0  0999 V2000
   20.2044  -19.6635  -12.7071 N   0  0  0  0  0  0  0  0  0  0  0  0
   21.0049  -20.8237  -12.9287 C   0  0  1  0  0  0  0  0  0  0  0  0
   20.6933  -21.5706  -14.1849 C   0  0  0  0  0  0  0  0  0  0  0  0
   19.2120  -22.5801  -13.9002 S   0  0  0  0  0  0  0  0  0  0  0  0
   22.4763  -20.4833  -12.9438 C   0  0  0  0  0  0  0  0  0  0  0  0
   22.7765  -19.4217  -13.5069 O   0  0  0  0  0  0  0  0  0  0  0  0
   25.1490  -20.6502   -8.5730 C   0  0  0  0  0  0  0  0  0  0  0  0
   24.6125  -20.4084   -9.9897 C   0  0  0  0  0  0  0  0  0  0  0  0
   25.4864  -21.0929  -11.0129 C   0  0  2  0  0  0  0  0  0  0  0  0
   26.8812  -20.5176  -10.9708 C   0  0  0  0  0  0  0  0  0  0  0  0
   24.8390  -20.9473  -12.3648 C   0  0  2  0  0  0  0  0  0  0  0  0
   23.4524  -21.2895  -12.3713 N   0  0  0  0  0  0  0  0  0  0  0  0
   25.6120  -21.4744  -13.4785 C   0  0  0  0  0  0  0  0  0  0  0  0
   26.1717  -22.6173  -13.4320 O   0  0  0  0  0  0  0  0  0  0  0  0
   25.8037  -20.7638  -14.6973 N   0  0  0  0  0  0  0  0  0  0  0  0
   26.5589  -21.3287  -15.7936 C   0  0  0  0  0  0  0  0  0  0  0  0
   27.5054  -20.3102  -16.3345 C   0  0  0  0  0  0  0  0  0  0  0  0
   27.1875  -18.9619  -16.3157 O   0  0  0  0  0  0  0  0  0  0  0  0
   28.6163  -20.6296  -16.8234 O   0  0  0  0  0  0  0  0  0  0  0  0
  2  1  1  6
  3  2  1  0
  4  3  1  0
  5  6  2  0
  5  2  1  0
  8  7  1  0
  8  9  1  0
  9 11  1  0
  9 10  1  6
 11 13  1  0
 11 12  1  1
 12  5  1  0
 13 15  1  0
 14 13  2  0
 15 16  1  0
 16 17  1  0
 17 19  2  0
 17 18  1  0
M  END
$$$$
