CIG.pdb
     RDKit          3D

 19 18  0  0  1  0  0  0  0  0999 V2000
   26.0239  -20.1872   -7.3049 N   0  0  0  0  0  0  0  0  0  0  0  0
   25.5031  -21.0685   -8.2987 C   0  0  1  0  0  0  0  0  0  0  0  0
   24.0365  -21.3359   -8.1941 C   0  0  0  0  0  0  0  0  0  0  0  0
   23.6894  -21.9921   -6.5379 S   0  0  0  0  0  0  0  0  0  0  0  0
   25.7833  -20.5559   -9.6915 C   0  0  0  0  0  0  0  0  0  0  0  0
   25.6586  -19.3337   -9.8494 O   0  0  0  0  0  0  0  0  0  0  0  0
   29.4918  -21.6749  -10.6880 C   0  0  0  0  0  0  0  0  0  0  0  0
   28.8442  -20.6067  -11.5784 C   0  0  0  0  0  0  0  0  0  0  0  0
   27.8466  -21.2345  -12.5216 C   0  0  2  0  0  0  0  0  0  0  0  0
   28.1143  -20.7805  -13.9360 C   0  0  0  0  0  0  0  0  0  0  0  0
   26.4601  -20.8815  -12.0513 C   0  0  2  0  0  0  0  0  0  0  0  0
   26.1583  -21.3782  -10.7467 N   0  0  0  0  0  0  0  0  0  0  0  0
   25.4091  -21.0611  -13.0407 C   0  0  0  0  0  0  0  0  0  0  0  0
   25.5208  -20.6258  -14.2322 O   0  0  0  0  0  0  0  0  0  0  0  0
   24.1841  -21.7303  -12.7609 N   0  0  0  0  0  0  0  0  0  0  0  0
   23.1717  -21.9152  -13.7771 C   0  0  0  0  0  0  0  0  0  0  0  0
   22.3778  -20.6620  -13.9349 C   0  0  0  0  0  0  0  0  0  0  0  0
   22.1551  -20.1132  -15.1873 O   0  0  0  0  0  0  0  0  0  0  0  0
   21.8846  -20.0601  -12.9502 O   0  0  0  0  0  0  0  0  0  0  0  0
  2  1  1  1
  3  2  1  0
  4  3  1  0
  5  6  2  0
  5  2  1  0
  8  7  1  0
  8  9  1  0
  9 11  1  0
  9 10  1  6
 11 13  1  0
 11 12  1  1
 12  5  1  0
 13 15  1  0
 14 13  2  0
 15 16  1  0
 16 17  1  0
 17 19  2  0
 17 18  1  0
M  END
$$$$
