CIG.pdb
     RDKit          3D

 19 18  0  0  1  0  0  0  0  0999 V2000
   19.1365  -10.7256  -18.9063 N   0  0  0  0  0  0  0  0  0  0  0  0
   19.8166   -9.5141  -18.5814 C   0  0  1  0  0  0  0  0  0  0  0  0
   19.0230   -8.2685  -18.8092 C   0  0  0  0  0  0  0  0  0  0  0  0
   18.4812   -8.2416  -20.5412 S   0  0  0  0  0  0  0  0  0  0  0  0
   20.2822   -9.5117  -17.1446 C   0  0  0  0  0  0  0  0  0  0  0  0
   19.4705   -9.9462  -16.3160 O   0  0  0  0  0  0  0  0  0  0  0  0
   24.3966  -12.1248  -15.6817 C   0  0  0  0  0  0  0  0  0  0  0  0
   23.0922  -11.3213  -15.7611 C   0  0  0  0  0  0  0  0  0  0  0  0
   23.3099   -9.9060  -15.2828 C   0  0  2  0  0  0  0  0  0  0  0  0
   23.8468   -9.9127  -13.8722 C   0  0  0  0  0  0  0  0  0  0  0  0
   22.0089   -9.1573  -15.4052 C   0  0  2  0  0  0  0  0  0  0  0  0
   21.5341   -9.0577  -16.7485 N   0  0  0  0  0  0  0  0  0  0  0  0
   21.9278   -7.9309  -14.6273 C   0  0  0  0  0  0  0  0  0  0  0  0
   22.1868   -7.9027  -13.3808 O   0  0  0  0  0  0  0  0  0  0  0  0
   21.5567   -6.6767  -15.1895 N   0  0  0  0  0  0  0  0  0  0  0  0
   21.5875   -5.4580  -14.4113 C   0  0  0  0  0  0  0  0  0  0  0  0
   21.1590   -4.3062  -15.2571 C   0  0  0  0  0  0  0  0  0  0  0  0
   20.7483   -4.4980  -16.5662 O   0  0  0  0  0  0  0  0  0  0  0  0
   21.1532   -3.1290  -14.8219 O   0  0  0  0  0  0  0  0  0  0  0  0
  2  1  1  1
  3  2  1  0
  4  3  1  0
  5  6  2  0
  5  2  1  0
  8  7  1  0
  8  9  1  0
  9 11  1  0
  9 10  1  1
 11 13  1  0
 11 12  1  6
 12  5  1  0
 13 15  1  0
 14 13  2  0
 15 16  1  0
 16 17  1  0
 17 19  2  0
 17 18  1  0
M  END
$$$$
