CIG.pdb
     RDKit          3D

 19 18  0  0  1  0  0  0  0  0999 V2000
   28.6193  -11.1560  -19.3942 N   0  0  0  0  0  0  0  0  0  0  0  0
   28.4535  -10.5233  -18.1261 C   0  0  1  0  0  0  0  0  0  0  0  0
   29.1605   -9.2149  -17.9803 C   0  0  0  0  0  0  0  0  0  0  0  0
   30.9455   -9.5332  -17.8962 S   0  0  0  0  0  0  0  0  0  0  0  0
   26.9939  -10.3002  -17.8083 C   0  0  0  0  0  0  0  0  0  0  0  0
   26.2732  -10.0049  -18.7714 O   0  0  0  0  0  0  0  0  0  0  0  0
   25.0332  -13.8292  -15.3298 C   0  0  0  0  0  0  0  0  0  0  0  0
   24.7714  -12.6596  -16.2873 C   0  0  0  0  0  0  0  0  0  0  0  0
   24.4608  -11.4000  -15.5152 C   0  0  2  0  0  0  0  0  0  0  0  0
   22.9686  -11.2535  -15.3415 C   0  0  0  0  0  0  0  0  0  0  0  0
   25.0780  -10.2334  -16.2405 C   0  0  2  0  0  0  0  0  0  0  0  0
   26.4655  -10.4119  -16.5281 N   0  0  0  0  0  0  0  0  0  0  0  0
   24.7169   -8.9236  -15.7211 C   0  0  0  0  0  0  0  0  0  0  0  0
   25.1537   -8.4955  -14.6041 O   0  0  0  0  0  0  0  0  0  0  0  0
   23.8559   -8.0238  -16.4110 N   0  0  0  0  0  0  0  0  0  0  0  0
   23.5155   -6.7294  -15.8630 C   0  0  0  0  0  0  0  0  0  0  0  0
   22.2424   -6.8252  -15.0912 C   0  0  0  0  0  0  0  0  0  0  0  0
   21.7476   -5.7340  -14.3957 O   0  0  0  0  0  0  0  0  0  0  0  0
   21.5747   -7.8868  -15.0410 O   0  0  0  0  0  0  0  0  0  0  0  0
  2  1  1  6
  3  2  1  0
  4  3  1  0
  5  6  2  0
  5  2  1  0
  8  7  1  0
  8  9  1  0
  9 11  1  0
  9 10  1  6
 11 13  1  0
 11 12  1  1
 12  5  1  0
 13 15  1  0
 14 13  2  0
 15 16  1  0
 16 17  1  0
 17 19  2  0
 17 18  1  0
M  END
$$$$
