CIG.pdb
     RDKit          3D

 19 18  0  0  1  0  0  0  0  0999 V2000
   24.0400  -11.6973  -17.9128 N   0  0  0  0  0  0  0  0  0  0  0  0
   23.6763  -11.5593  -16.5401 C   0  0  1  0  0  0  0  0  0  0  0  0
   24.8159  -11.6445  -15.5772 C   0  0  0  0  0  0  0  0  0  0  0  0
   25.4992  -13.3247  -15.6437 S   0  0  0  0  0  0  0  0  0  0  0  0
   22.9534  -10.2570  -16.2897 C   0  0  0  0  0  0  0  0  0  0  0  0
   23.4554   -9.2542  -16.8154 O   0  0  0  0  0  0  0  0  0  0  0  0
   17.9967  -10.9670  -16.0712 C   0  0  0  0  0  0  0  0  0  0  0  0
   19.1220  -10.0059  -16.4753 C   0  0  0  0  0  0  0  0  0  0  0  0
   19.5622   -9.1761  -15.2934 C   0  0  2  0  0  0  0  0  0  0  0  0
   18.7806   -7.8858  -15.2464 C   0  0  0  0  0  0  0  0  0  0  0  0
   21.0478   -8.9515  -15.3970 C   0  0  2  0  0  0  0  0  0  0  0  0
   21.7984  -10.1600  -15.5237 N   0  0  0  0  0  0  0  0  0  0  0  0
   21.5912   -7.9804  -14.4603 C   0  0  0  0  0  0  0  0  0  0  0  0
   21.7623   -8.2522  -13.2280 O   0  0  0  0  0  0  0  0  0  0  0  0
   21.9719   -6.6622  -14.8403 N   0  0  0  0  0  0  0  0  0  0  0  0
   22.4967   -5.7176  -13.8791 C   0  0  0  0  0  0  0  0  0  0  0  0
   21.7107   -4.4508  -13.9329 C   0  0  0  0  0  0  0  0  0  0  0  0
   22.0618   -3.3613  -13.1525 O   0  0  0  0  0  0  0  0  0  0  0  0
   20.7100   -4.3216  -14.6794 O   0  0  0  0  0  0  0  0  0  0  0  0
  2  1  1  6
  3  2  1  0
  4  3  1  0
  5  6  2  0
  5  2  1  0
  8  7  1  0
  8  9  1  0
  9 11  1  0
  9 10  1  6
 11 13  1  0
 11 12  1  1
 12  5  1  0
 13 15  1  0
 14 13  2  0
 15 16  1  0
 16 17  1  0
 17 19  2  0
 17 18  1  0
M  END
$$$$
