CIG.pdb
     RDKit          3D

 19 18  0  0  1  0  0  0  0  0999 V2000
   28.4684  -20.6196  -15.1128 N   0  0  0  0  0  0  0  0  0  0  0  0
   27.7151  -19.6917  -14.3335 C   0  0  1  0  0  0  0  0  0  0  0  0
   27.0925  -18.5783  -15.1120 C   0  0  0  0  0  0  0  0  0  0  0  0
   28.3866  -17.3762  -15.5297 S   0  0  0  0  0  0  0  0  0  0  0  0
   26.6200  -20.3847  -13.5578 C   0  0  0  0  0  0  0  0  0  0  0  0
   26.0855  -21.3469  -14.1258 O   0  0  0  0  0  0  0  0  0  0  0  0
   26.7162  -20.4735   -8.1957 C   0  0  0  0  0  0  0  0  0  0  0  0
   26.5075  -20.8320   -9.6726 C   0  0  0  0  0  0  0  0  0  0  0  0
   25.1295  -20.4188  -10.1302 C   0  0  2  0  0  0  0  0  0  0  0  0
   24.0813  -21.2581   -9.4410 C   0  0  0  0  0  0  0  0  0  0  0  0
   25.0720  -20.5351  -11.6307 C   0  0  2  0  0  0  0  0  0  0  0  0
   26.2173  -19.9907  -12.2878 N   0  0  0  0  0  0  0  0  0  0  0  0
   23.7920  -20.1870  -12.2274 C   0  0  0  0  0  0  0  0  0  0  0  0
   23.4040  -18.9791  -12.3381 O   0  0  0  0  0  0  0  0  0  0  0  0
   22.8792  -21.1567  -12.7307 N   0  0  0  0  0  0  0  0  0  0  0  0
   21.6049  -20.7758  -13.2985 C   0  0  0  0  0  0  0  0  0  0  0  0
   20.8954  -21.9855  -13.8075 C   0  0  0  0  0  0  0  0  0  0  0  0
   21.5389  -23.2101  -13.8810 O   0  0  0  0  0  0  0  0  0  0  0  0
   19.6994  -21.9436  -14.1858 O   0  0  0  0  0  0  0  0  0  0  0  0
  2  1  1  6
  3  2  1  0
  4  3  1  0
  5  6  2  0
  5  2  1  0
  8  7  1  0
  8  9  1  0
  9 11  1  0
  9 10  1  1
 11 13  1  0
 11 12  1  6
 12  5  1  0
 13 15  1  0
 14 13  2  0
 15 16  1  0
 16 17  1  0
 17 19  2  0
 17 18  1  0
M  END
$$$$
