CIG.pdb
     RDKit          3D

 19 18  0  0  1  0  0  0  0  0999 V2000
   21.7060  -11.5596  -20.5849 N   0  0  0  0  0  0  0  0  0  0  0  0
   22.3005  -10.3271  -20.1807 C   0  0  1  0  0  0  0  0  0  0  0  0
   22.2252   -9.2317  -21.1945 C   0  0  0  0  0  0  0  0  0  0  0  0
   23.3742   -9.6192  -22.5449 S   0  0  0  0  0  0  0  0  0  0  0  0
   21.6897   -9.8151  -18.8977 C   0  0  0  0  0  0  0  0  0  0  0  0
   20.4606   -9.9352  -18.8025 O   0  0  0  0  0  0  0  0  0  0  0  0
   24.0414  -11.0175  -14.5936 C   0  0  0  0  0  0  0  0  0  0  0  0
   22.8821  -10.6389  -15.5242 C   0  0  0  0  0  0  0  0  0  0  0  0
   22.5816   -9.1628  -15.4255 C   0  0  2  0  0  0  0  0  0  0  0  0
   21.8021   -8.8759  -14.1652 C   0  0  0  0  0  0  0  0  0  0  0  0
   21.8464   -8.7428  -16.6710 C   0  0  2  0  0  0  0  0  0  0  0  0
   22.4333   -9.2420  -17.8736 N   0  0  0  0  0  0  0  0  0  0  0  0
   21.4488   -7.3442  -16.7102 C   0  0  0  0  0  0  0  0  0  0  0  0
   22.2954   -6.3979  -16.6128 O   0  0  0  0  0  0  0  0  0  0  0  0
   20.0967   -6.9241  -16.8590 N   0  0  0  0  0  0  0  0  0  0  0  0
   19.7426   -5.5245  -16.9450 C   0  0  0  0  0  0  0  0  0  0  0  0
   19.2751   -5.0377  -15.6145 C   0  0  0  0  0  0  0  0  0  0  0  0
   20.0059   -5.2937  -14.4657 O   0  0  0  0  0  0  0  0  0  0  0  0
   18.2122   -4.3835  -15.4829 O   0  0  0  0  0  0  0  0  0  0  0  0
  2  1  1  6
  3  2  1  0
  4  3  1  0
  5  6  2  0
  5  2  1  0
  8  7  1  0
  8  9  1  0
  9 11  1  0
  9 10  1  1
 11 13  1  0
 11 12  1  6
 12  5  1  0
 13 15  1  0
 14 13  2  0
 15 16  1  0
 16 17  1  0
 17 19  2  0
 17 18  1  0
M  END
$$$$
