CIG.pdb
     RDKit          3D

 19 18  0  0  1  0  0  0  0  0999 V2000
   21.6506  -20.3022   -8.4155 N   0  0  0  0  0  0  0  0  0  0  0  0
   22.6473  -20.7653   -7.5056 C   0  0  1  0  0  0  0  0  0  0  0  0
   22.6808  -22.2467   -7.3121 C   0  0  0  0  0  0  0  0  0  0  0  0
   21.2413  -22.7285   -6.3172 S   0  0  0  0  0  0  0  0  0  0  0  0
   24.0278  -20.3208   -7.9274 C   0  0  0  0  0  0  0  0  0  0  0  0
   24.1067  -19.8072   -9.0517 O   0  0  0  0  0  0  0  0  0  0  0  0
   27.6973  -19.3006   -4.0207 C   0  0  0  0  0  0  0  0  0  0  0  0
   26.8093  -19.2430   -5.2703 C   0  0  0  0  0  0  0  0  0  0  0  0
   27.4532  -19.9878   -6.4147 C   0  0  2  0  0  0  0  0  0  0  0  0
   28.7389  -19.3074   -6.8175 C   0  0  0  0  0  0  0  0  0  0  0  0
   26.4618  -20.0715   -7.5453 C   0  0  2  0  0  0  0  0  0  0  0  0
   25.1543  -20.4659   -7.1273 N   0  0  0  0  0  0  0  0  0  0  0  0
   26.9517  -20.7276   -8.7475 C   0  0  0  0  0  0  0  0  0  0  0  0
   27.0947  -21.9911   -8.8175 O   0  0  0  0  0  0  0  0  0  0  0  0
   27.3071  -20.0191   -9.9301 N   0  0  0  0  0  0  0  0  0  0  0  0
   27.9095  -20.6874  -11.0624 C   0  0  0  0  0  0  0  0  0  0  0  0
   26.9985  -20.6073  -12.2411 C   0  0  0  0  0  0  0  0  0  0  0  0
   27.3919  -21.0890  -13.4790 O   0  0  0  0  0  0  0  0  0  0  0  0
   25.8509  -20.1056  -12.1603 O   0  0  0  0  0  0  0  0  0  0  0  0
  2  1  1  6
  3  2  1  0
  4  3  1  0
  5  6  2  0
  5  2  1  0
  8  7  1  0
  8  9  1  0
  9 11  1  0
  9 10  1  6
 11 13  1  0
 11 12  1  1
 12  5  1  0
 13 15  1  0
 14 13  2  0
 15 16  1  0
 16 17  1  0
 17 19  2  0
 17 18  1  0
M  END
$$$$
