CIG.pdb
     RDKit          3D

 19 18  0  0  1  0  0  0  0  0999 V2000
   21.4366  -13.1932  -18.2248 N   0  0  0  0  0  0  0  0  0  0  0  0
   22.0960  -12.0047  -18.6588 C   0  0  1  0  0  0  0  0  0  0  0  0
   21.2258  -11.0364  -19.3925 C   0  0  0  0  0  0  0  0  0  0  0  0
   20.7481  -11.7807  -20.9775 S   0  0  0  0  0  0  0  0  0  0  0  0
   22.7313  -11.2726  -17.5005 C   0  0  0  0  0  0  0  0  0  0  0  0
   22.0787  -11.2634  -16.4478 O   0  0  0  0  0  0  0  0  0  0  0  0
   27.6941  -12.2047  -16.3345 C   0  0  0  0  0  0  0  0  0  0  0  0
   26.2090  -11.8203  -16.3461 C   0  0  0  0  0  0  0  0  0  0  0  0
   26.0484  -10.3194  -16.3233 C   0  0  2  0  0  0  0  0  0  0  0  0
   26.6476   -9.7533  -15.0589 C   0  0  0  0  0  0  0  0  0  0  0  0
   24.5846   -9.9956  -16.4675 C   0  0  2  0  0  0  0  0  0  0  0  0
   23.9662  -10.6412  -17.5813 N   0  0  0  0  0  0  0  0  0  0  0  0
   24.2442   -8.5916  -16.2984 C   0  0  0  0  0  0  0  0  0  0  0  0
   24.9273   -7.6609  -16.8361 O   0  0  0  0  0  0  0  0  0  0  0  0
   23.1327   -8.1484  -15.5271 N   0  0  0  0  0  0  0  0  0  0  0  0
   22.7974   -6.7459  -15.4165 C   0  0  0  0  0  0  0  0  0  0  0  0
   21.7256   -6.4027  -16.3959 C   0  0  0  0  0  0  0  0  0  0  0  0
   21.0904   -5.1723  -16.3542 O   0  0  0  0  0  0  0  0  0  0  0  0
   21.3596   -7.2060  -17.2881 O   0  0  0  0  0  0  0  0  0  0  0  0
  2  1  1  1
  3  2  1  0
  4  3  1  0
  5  6  2  0
  5  2  1  0
  8  7  1  0
  8  9  1  0
  9 11  1  0
  9 10  1  1
 11 13  1  0
 11 12  1  6
 12  5  1  0
 13 15  1  0
 14 13  2  0
 15 16  1  0
 16 17  1  0
 17 19  2  0
 17 18  1  0
M  END
$$$$
