CIG.pdb
     RDKit          3D

 19 18  0  0  1  0  0  0  0  0999 V2000
   29.8231  -12.1178  -18.4838 N   0  0  0  0  0  0  0  0  0  0  0  0
   29.4067  -11.3297  -17.3697 C   0  0  1  0  0  0  0  0  0  0  0  0
   29.8965   -9.9179  -17.3816 C   0  0  0  0  0  0  0  0  0  0  0  0
   31.6960   -9.9326  -17.1456 S   0  0  0  0  0  0  0  0  0  0  0  0
   27.9015  -11.2978  -17.2490 C   0  0  0  0  0  0  0  0  0  0  0  0
   27.2804  -11.1496  -18.3103 O   0  0  0  0  0  0  0  0  0  0  0  0
   25.2810  -15.1394  -15.4059 C   0  0  0  0  0  0  0  0  0  0  0  0
   25.7368  -13.8369  -16.0758 C   0  0  0  0  0  0  0  0  0  0  0  0
   25.2257  -12.6392  -15.3120 C   0  0  2  0  0  0  0  0  0  0  0  0
   23.7164  -12.6356  -15.3037 C   0  0  0  0  0  0  0  0  0  0  0  0
   25.8057  -11.3960  -15.9334 C   0  0  2  0  0  0  0  0  0  0  0  0
   27.2297  -11.4242  -16.0394 N   0  0  0  0  0  0  0  0  0  0  0  0
   25.2458  -10.1448  -15.4469 C   0  0  0  0  0  0  0  0  0  0  0  0
   25.5165   -9.6879  -14.2895 O   0  0  0  0  0  0  0  0  0  0  0  0
   24.3598   -9.3383  -16.2160 N   0  0  0  0  0  0  0  0  0  0  0  0
   23.9093   -8.0467  -15.7464 C   0  0  0  0  0  0  0  0  0  0  0  0
   22.5384   -8.1673  -15.1703 C   0  0  0  0  0  0  0  0  0  0  0  0
   21.8656   -9.3783  -15.1811 O   0  0  0  0  0  0  0  0  0  0  0  0
   21.9451   -7.1873  -14.6578 O   0  0  0  0  0  0  0  0  0  0  0  0
  2  1  1  6
  3  2  1  0
  4  3  1  0
  5  6  2  0
  5  2  1  0
  8  7  1  0
  8  9  1  0
  9 11  1  0
  9 10  1  6
 11 13  1  0
 11 12  1  1
 12  5  1  0
 13 15  1  0
 14 13  2  0
 15 16  1  0
 16 17  1  0
 17 19  2  0
 17 18  1  0
M  END
$$$$
