CIG.pdb
     RDKit          3D

 19 18  0  0  1  0  0  0  0  0999 V2000
   24.0393  -13.1988  -16.8630 N   0  0  0  0  0  0  0  0  0  0  0  0
   22.9835  -12.6564  -16.0712 C   0  0  1  0  0  0  0  0  0  0  0  0
   23.1247  -12.8780  -14.6001 C   0  0  0  0  0  0  0  0  0  0  0  0
   22.6457  -14.5888  -14.2287 S   0  0  0  0  0  0  0  0  0  0  0  0
   22.8265  -11.1723  -16.3041 C   0  0  0  0  0  0  0  0  0  0  0  0
   23.8803  -10.5331  -16.4262 O   0  0  0  0  0  0  0  0  0  0  0  0
   18.8966  -10.1632  -19.1650 C   0  0  0  0  0  0  0  0  0  0  0  0
   20.3102   -9.7309  -18.7551 C   0  0  0  0  0  0  0  0  0  0  0  0
   20.2609   -8.8346  -17.5413 C   0  0  2  0  0  0  0  0  0  0  0  0
   20.2159   -7.3874  -17.9674 C   0  0  0  0  0  0  0  0  0  0  0  0
   21.4498   -9.1468  -16.6711 C   0  0  2  0  0  0  0  0  0  0  0  0
   21.5928  -10.5379  -16.3811 N   0  0  0  0  0  0  0  0  0  0  0  0
   21.6343   -8.2556  -15.5364 C   0  0  0  0  0  0  0  0  0  0  0  0
   20.8906   -8.3127  -14.5042 O   0  0  0  0  0  0  0  0  0  0  0  0
   22.6493   -7.2585  -15.4878 N   0  0  0  0  0  0  0  0  0  0  0  0
   22.8695   -6.4576  -14.3039 C   0  0  0  0  0  0  0  0  0  0  0  0
   21.9995   -5.2463  -14.3430 C   0  0  0  0  0  0  0  0  0  0  0  0
   22.0550   -4.2970  -13.3355 O   0  0  0  0  0  0  0  0  0  0  0  0
   21.1905   -5.0399  -15.2801 O   0  0  0  0  0  0  0  0  0  0  0  0
  2  1  1  6
  3  2  1  0
  4  3  1  0
  5  6  2  0
  5  2  1  0
  8  7  1  0
  8  9  1  0
  9 11  1  0
  9 10  1  6
 11 13  1  0
 11 12  1  1
 12  5  1  0
 13 15  1  0
 14 13  2  0
 15 16  1  0
 16 17  1  0
 17 19  2  0
 17 18  1  0
M  END
$$$$
