CIG.pdb
     RDKit          3D

 19 18  0  0  1  0  0  0  0  0999 V2000
   28.7389  -20.7970  -14.8297 N   0  0  0  0  0  0  0  0  0  0  0  0
   27.8017  -19.8364  -14.3451 C   0  0  1  0  0  0  0  0  0  0  0  0
   27.3258  -18.8537  -15.3654 C   0  0  0  0  0  0  0  0  0  0  0  0
   28.6339  -17.6240  -15.6318 S   0  0  0  0  0  0  0  0  0  0  0  0
   26.5884  -20.5051  -13.7434 C   0  0  0  0  0  0  0  0  0  0  0  0
   26.2078  -21.5384  -14.3105 O   0  0  0  0  0  0  0  0  0  0  0  0
   26.3227  -20.3383   -8.6998 C   0  0  0  0  0  0  0  0  0  0  0  0
   25.9674  -21.0782   -9.9958 C   0  0  0  0  0  0  0  0  0  0  0  0
   24.6806  -20.5439  -10.5770 C   0  0  2  0  0  0  0  0  0  0  0  0
   23.5030  -21.2972  -10.0079 C   0  0  0  0  0  0  0  0  0  0  0  0
   24.7607  -20.6401  -12.0779 C   0  0  2  0  0  0  0  0  0  0  0  0
   25.9222  -20.0158  -12.6267 N   0  0  0  0  0  0  0  0  0  0  0  0
   23.5179  -20.3621  -12.7807 C   0  0  0  0  0  0  0  0  0  0  0  0
   23.0412  -19.1847  -12.8709 O   0  0  0  0  0  0  0  0  0  0  0  0
   22.7422  -21.3718  -13.4175 N   0  0  0  0  0  0  0  0  0  0  0  0
   21.4935  -21.0643  -14.0793 C   0  0  0  0  0  0  0  0  0  0  0  0
   20.3609  -21.2187  -13.1207 C   0  0  0  0  0  0  0  0  0  0  0  0
   19.2436  -20.4037  -13.2015 O   0  0  0  0  0  0  0  0  0  0  0  0
   20.3738  -22.0840  -12.2116 O   0  0  0  0  0  0  0  0  0  0  0  0
  2  1  1  6
  3  2  1  0
  4  3  1  0
  5  6  2  0
  5  2  1  0
  8  7  1  0
  8  9  1  0
  9 11  1  0
  9 10  1  1
 11 13  1  0
 11 12  1  6
 12  5  1  0
 13 15  1  0
 14 13  2  0
 15 16  1  0
 16 17  1  0
 17 19  2  0
 17 18  1  0
M  END
$$$$
