CIG.pdb
     RDKit          3D

 19 18  0  0  1  0  0  0  0  0999 V2000
   28.1584  -20.7436  -16.2851 N   0  0  0  0  0  0  0  0  0  0  0  0
   27.7760  -19.8736  -15.2209 C   0  0  1  0  0  0  0  0  0  0  0  0
   27.1743  -18.5767  -15.6559 C   0  0  0  0  0  0  0  0  0  0  0  0
   28.4834  -17.5520  -16.3842 S   0  0  0  0  0  0  0  0  0  0  0  0
   26.8020  -20.5457  -14.2824 C   0  0  0  0  0  0  0  0  0  0  0  0
   26.0940  -21.4289  -14.7851 O   0  0  0  0  0  0  0  0  0  0  0  0
   25.2064  -21.2398   -8.3281 C   0  0  0  0  0  0  0  0  0  0  0  0
   24.9708  -21.4028   -9.8352 C   0  0  0  0  0  0  0  0  0  0  0  0
   25.9696  -20.5874  -10.6205 C   0  0  2  0  0  0  0  0  0  0  0  0
   25.9187  -19.1439  -10.1824 C   0  0  0  0  0  0  0  0  0  0  0  0
   25.6754  -20.7595  -12.0875 C   0  0  2  0  0  0  0  0  0  0  0  0
   26.6857  -20.2155  -12.9379 N   0  0  0  0  0  0  0  0  0  0  0  0
   24.3075  -20.4602  -12.4812 C   0  0  0  0  0  0  0  0  0  0  0  0
   23.9682  -19.3183  -12.9314 O   0  0  0  0  0  0  0  0  0  0  0  0
   23.2488  -21.4083  -12.3964 N   0  0  0  0  0  0  0  0  0  0  0  0
   21.8857  -21.0543  -12.7252 C   0  0  0  0  0  0  0  0  0  0  0  0
   21.7173  -21.0100  -14.2069 C   0  0  0  0  0  0  0  0  0  0  0  0
   22.0375  -22.1050  -14.9929 O   0  0  0  0  0  0  0  0  0  0  0  0
   21.2834  -19.9900  -14.7956 O   0  0  0  0  0  0  0  0  0  0  0  0
  2  1  1  6
  3  2  1  0
  4  3  1  0
  5  6  2  0
  5  2  1  0
  8  7  1  0
  8  9  1  0
  9 11  1  0
  9 10  1  1
 11 13  1  0
 11 12  1  6
 12  5  1  0
 13 15  1  0
 14 13  2  0
 15 16  1  0
 16 17  1  0
 17 19  2  0
 17 18  1  0
M  END
$$$$
