CIG.pdb
     RDKit          3D

 19 18  0  0  1  0  0  0  0  0999 V2000
   30.2844  -11.1134  -19.2386 N   0  0  0  0  0  0  0  0  0  0  0  0
   29.8014  -10.2171  -18.2390 C   0  0  1  0  0  0  0  0  0  0  0  0
   29.9591   -8.7676  -18.5665 C   0  0  0  0  0  0  0  0  0  0  0  0
   31.7318   -8.3850  -18.6392 S   0  0  0  0  0  0  0  0  0  0  0  0
   28.3440  -10.4678  -17.9318 C   0  0  0  0  0  0  0  0  0  0  0  0
   27.6179  -10.6841  -18.9116 O   0  0  0  0  0  0  0  0  0  0  0  0
   26.7648  -14.3161  -15.2645 C   0  0  0  0  0  0  0  0  0  0  0  0
   26.8593  -13.0782  -16.1657 C   0  0  0  0  0  0  0  0  0  0  0  0
   26.1808  -11.8957  -15.5172 C   0  0  2  0  0  0  0  0  0  0  0  0
   24.7089  -12.1775  -15.3374 C   0  0  0  0  0  0  0  0  0  0  0  0
   26.4394  -10.6766  -16.3628 C   0  0  2  0  0  0  0  0  0  0  0  0
   27.8233  -10.4622  -16.6437 N   0  0  0  0  0  0  0  0  0  0  0  0
   25.6950   -9.4885  -15.9755 C   0  0  0  0  0  0  0  0  0  0  0  0
   25.9784   -8.8256  -14.9258 O   0  0  0  0  0  0  0  0  0  0  0  0
   24.6017   -8.9758  -16.7296 N   0  0  0  0  0  0  0  0  0  0  0  0
   23.8968   -7.7793  -16.3257 C   0  0  0  0  0  0  0  0  0  0  0  0
   22.7860   -8.1355  -15.3957 C   0  0  0  0  0  0  0  0  0  0  0  0
   22.0014   -7.1528  -14.8144 O   0  0  0  0  0  0  0  0  0  0  0  0
   22.5198   -9.3271  -15.1051 O   0  0  0  0  0  0  0  0  0  0  0  0
  2  1  1  6
  3  2  1  0
  4  3  1  0
  5  6  2  0
  5  2  1  0
  8  7  1  0
  8  9  1  0
  9 11  1  0
  9 10  1  6
 11 13  1  0
 11 12  1  1
 12  5  1  0
 13 15  1  0
 14 13  2  0
 15 16  1  0
 16 17  1  0
 17 19  2  0
 17 18  1  0
M  END
$$$$
