HFY.pdb
     RDKit          3D

 34 36  0  0  1  0  0  0  0  0999 V2000
   19.4347  -13.3735  -17.0093 N   0  0  0  0  0  0  0  0  0  0  0  0
   19.8111  -12.0535  -17.4704 C   0  0  1  0  0  0  0  0  0  0  0  0
   18.7187  -11.0937  -17.1324 C   0  0  0  0  0  0  0  0  0  0  0  0
   17.5302  -11.4733  -17.9544 C   0  0  0  0  0  0  0  0  0  0  0  0
   17.4093  -11.3145  -19.3240 C   0  0  0  0  0  0  0  0  0  0  0  0
   16.1879  -11.7754  -19.7138 N   0  0  0  0  0  0  0  0  0  0  0  0
   15.5569  -12.2143  -18.6075 C   0  0  0  0  0  0  0  0  0  0  0  0
   16.3716  -12.0271  -17.5650 N   0  0  0  0  0  0  0  0  0  0  0  0
   21.1394  -11.6691  -16.9343 C   0  0  0  0  0  0  0  0  0  0  0  0
   21.3172  -11.7110  -15.6985 O   0  0  0  0  0  0  0  0  0  0  0  0
   22.2120  -11.2577  -17.7591 N   0  0  0  0  0  0  0  0  0  0  0  0
   23.4554  -10.8613  -17.1458 C   0  0  1  0  0  0  0  0  0  0  0  0
   24.6101  -11.4167  -17.9649 C   0  0  0  0  0  0  0  0  0  0  0  0
   25.9294  -11.0669  -17.4197 C   0  0  0  0  0  0  0  0  0  0  0  0
   26.7444  -10.1368  -18.0211 C   0  0  0  0  0  0  0  0  0  0  0  0
   27.9669   -9.8510  -17.4648 C   0  0  0  0  0  0  0  0  0  0  0  0
   28.4184  -10.4600  -16.3201 C   0  0  0  0  0  0  0  0  0  0  0  0
   27.5889  -11.3937  -15.7251 C   0  0  0  0  0  0  0  0  0  0  0  0
   26.3687  -11.6828  -16.2753 C   0  0  0  0  0  0  0  0  0  0  0  0
   23.5446   -9.3765  -17.2724 C   0  0  0  0  0  0  0  0  0  0  0  0
   23.0816   -8.8390  -18.3124 O   0  0  0  0  0  0  0  0  0  0  0  0
   18.0523   -7.5030  -14.0908 O   0  0  0  0  0  0  0  0  0  0  0  0
   19.4117   -7.2523  -14.3527 C   0  0  0  0  0  0  0  0  0  0  0  0
   20.3933   -8.0710  -13.8362 C   0  0  0  0  0  0  0  0  0  0  0  0
   21.7277   -7.8201  -14.0967 C   0  0  0  0  0  0  0  0  0  0  0  0
   22.1547   -6.7564  -14.8738 C   0  0  0  0  0  0  0  0  0  0  0  0
   23.5743   -6.4668  -15.1544 C   0  0  0  0  0  0  0  0  0  0  0  0
   24.0327   -7.1138  -16.4143 C   0  0  2  0  0  0  0  0  0  0  0  0
   24.1213   -8.5548  -16.2843 N   0  0  0  0  0  0  0  0  0  0  0  0
   25.3703   -6.6227  -16.7834 C   0  0  0  0  0  0  0  0  0  0  0  0
   25.5637   -5.4033  -17.0475 O   0  0  0  0  0  0  0  0  0  0  0  0
   21.1360   -5.9410  -15.3860 C   0  0  0  0  0  0  0  0  0  0  0  0
   19.8082   -6.1887  -15.1283 C   0  0  0  0  0  0  0  0  0  0  0  0
   26.4805   -7.4444  -16.8607 O   0  0  0  0  0  0  0  0  0  0  0  0
  2  9  1  0
  2  1  1  1
  3  2  1  0
  4  8  1  0
  4  3  1  0
  5  4  2  0
  6  5  1  0
  6  7  1  0
  7  8  2  0
  9 10  2  0
 11  9  1  0
 11 12  1  0
 12 13  1  6
 13 14  1  0
 14 19  1  0
 15 14  2  0
 15 16  1  0
 16 17  2  0
 17 18  1  0
 19 18  2  0
 20 21  2  0
 20 12  1  0
 22 23  1  0
 23 24  2  0
 24 25  1  0
 26 25  2  0
 26 27  1  0
 28 27  1  1
 28 29  1  0
 29 20  1  0
 30 28  1  0
 31 30  2  0
 32 26  1  0
 33 23  1  0
 33 32  2  0
 34 30  1  0
M  END
$$$$
