HFY.pdb
     RDKit          3D

 34 36  0  0  1  0  0  0  0  0999 V2000
   27.5824  -31.5054  -15.6144 N   0  0  0  0  0  0  0  0  0  0  0  0
   26.7602  -30.8894  -16.6349 C   0  0  1  0  0  0  0  0  0  0  0  0
   25.6019  -31.7846  -16.9277 C   0  0  0  0  0  0  0  0  0  0  0  0
   26.1479  -33.0072  -17.5907 C   0  0  0  0  0  0  0  0  0  0  0  0
   26.1694  -34.2806  -17.0489 C   0  0  0  0  0  0  0  0  0  0  0  0
   26.7420  -35.1306  -17.9465 N   0  0  0  0  0  0  0  0  0  0  0  0
   27.0724  -34.4014  -19.0299 C   0  0  0  0  0  0  0  0  0  0  0  0
   26.7111  -33.1352  -18.8020 N   0  0  0  0  0  0  0  0  0  0  0  0
   26.3742  -29.5134  -16.2384 C   0  0  0  0  0  0  0  0  0  0  0  0
   25.8297  -29.3450  -15.1268 O   0  0  0  0  0  0  0  0  0  0  0  0
   26.5952  -28.3853  -17.0621 N   0  0  0  0  0  0  0  0  0  0  0  0
   26.1780  -27.0857  -16.5968 C   0  0  1  0  0  0  0  0  0  0  0  0
   27.1589  -26.0403  -17.1045 C   0  0  0  0  0  0  0  0  0  0  0  0
   26.6701  -24.6627  -16.9509 C   0  0  0  0  0  0  0  0  0  0  0  0
   26.2825  -23.9014  -18.0283 C   0  0  0  0  0  0  0  0  0  0  0  0
   25.8337  -22.6200  -17.8223 C   0  0  0  0  0  0  0  0  0  0  0  0
   25.7536  -22.0571  -16.5726 C   0  0  0  0  0  0  0  0  0  0  0  0
   26.1466  -22.8337  -15.4973 C   0  0  0  0  0  0  0  0  0  0  0  0
   26.5949  -24.1122  -15.6965 C   0  0  0  0  0  0  0  0  0  0  0  0
   24.8791  -26.7838  -17.2678 C   0  0  0  0  0  0  0  0  0  0  0  0
   24.7799  -27.0109  -18.5021 O   0  0  0  0  0  0  0  0  0  0  0  0
   20.2854  -26.9749  -11.4202 O   0  0  0  0  0  0  0  0  0  0  0  0
   20.5710  -26.9520  -12.7977 C   0  0  0  0  0  0  0  0  0  0  0  0
   21.4233  -27.8794  -13.3580 C   0  0  0  0  0  0  0  0  0  0  0  0
   21.7005  -27.8524  -14.7121 C   0  0  0  0  0  0  0  0  0  0  0  0
   21.1539  -26.9151  -15.5726 C   0  0  0  0  0  0  0  0  0  0  0  0
   21.4457  -26.8642  -17.0184 C   0  0  0  0  0  0  0  0  0  0  0  0
   22.5635  -25.9300  -17.3248 C   0  0  2  0  0  0  0  0  0  0  0  0
   23.7652  -26.2588  -16.5839 N   0  0  0  0  0  0  0  0  0  0  0  0
   22.1899  -24.5519  -16.9672 C   0  0  0  0  0  0  0  0  0  0  0  0
   22.8138  -23.9232  -16.0674 O   0  0  0  0  0  0  0  0  0  0  0  0
   20.2912  -25.9849  -14.9764 C   0  0  0  0  0  0  0  0  0  0  0  0
   20.0140  -26.0100  -13.6298 C   0  0  0  0  0  0  0  0  0  0  0  0
   21.1562  -23.8674  -17.5810 O   0  0  0  0  0  0  0  0  0  0  0  0
  2  9  1  0
  2  1  1  1
  3  2  1  0
  4  8  1  0
  4  3  1  0
  5  4  2  0
  6  5  1  0
  6  7  1  0
  7  8  2  0
  9 10  2  0
 11  9  1  0
 11 12  1  0
 12 13  1  6
 13 14  1  0
 14 19  1  0
 15 14  2  0
 15 16  1  0
 16 17  2  0
 17 18  1  0
 19 18  2  0
 20 21  2  0
 20 12  1  0
 22 23  1  0
 23 24  2  0
 24 25  1  0
 26 25  2  0
 26 27  1  0
 28 27  1  1
 28 29  1  0
 29 20  1  0
 30 28  1  0
 31 30  2  0
 32 26  1  0
 33 23  1  0
 33 32  2  0
 34 30  1  0
M  END
$$$$
