HFY.pdb
     RDKit          3D

 34 36  0  0  1  0  0  0  0  0999 V2000
   28.3634  -21.6556  -16.7868 N   0  0  0  0  0  0  0  0  0  0  0  0
   27.3504  -20.6895  -16.4164 C   0  0  1  0  0  0  0  0  0  0  0  0
   26.5377  -20.3547  -17.6231 C   0  0  0  0  0  0  0  0  0  0  0  0
   27.2864  -19.3065  -18.3802 C   0  0  0  0  0  0  0  0  0  0  0  0
   26.9887  -17.9550  -18.4006 C   0  0  0  0  0  0  0  0  0  0  0  0
   27.8912  -17.3181  -19.1982 N   0  0  0  0  0  0  0  0  0  0  0  0
   28.7376  -18.2550  -19.6678 C   0  0  0  0  0  0  0  0  0  0  0  0
   28.3632  -19.4372  -19.1702 N   0  0  0  0  0  0  0  0  0  0  0  0
   26.5510  -21.1811  -15.2680 C   0  0  0  0  0  0  0  0  0  0  0  0
   26.2759  -22.3984  -15.2120 O   0  0  0  0  0  0  0  0  0  0  0  0
   26.0872  -20.3339  -14.2350 N   0  0  0  0  0  0  0  0  0  0  0  0
   25.3606  -20.9092  -13.1303 C   0  0  1  0  0  0  0  0  0  0  0  0
   25.8523  -20.2824  -11.8348 C   0  0  0  0  0  0  0  0  0  0  0  0
   27.2174  -20.6906  -11.4741 C   0  0  0  0  0  0  0  0  0  0  0  0
   28.3188  -20.2496  -12.1692 C   0  0  0  0  0  0  0  0  0  0  0  0
   29.5699  -20.6652  -11.7848 C   0  0  0  0  0  0  0  0  0  0  0  0
   29.7735  -21.5123  -10.7237 C   0  0  0  0  0  0  0  0  0  0  0  0
   28.6572  -21.9485  -10.0329 C   0  0  0  0  0  0  0  0  0  0  0  0
   27.4070  -21.5375  -10.4116 C   0  0  0  0  0  0  0  0  0  0  0  0
   23.9393  -20.4768  -13.2769 C   0  0  0  0  0  0  0  0  0  0  0  0
   23.7110  -19.3344  -13.7542 O   0  0  0  0  0  0  0  0  0  0  0  0
   15.4576  -19.4776  -14.8071 O   0  0  0  0  0  0  0  0  0  0  0  0
   16.8103  -19.8518  -14.7088 C   0  0  0  0  0  0  0  0  0  0  0  0
   17.8076  -19.0284  -15.1863 C   0  0  0  0  0  0  0  0  0  0  0  0
   19.1352  -19.4010  -15.0872 C   0  0  0  0  0  0  0  0  0  0  0  0
   19.5399  -20.5961  -14.5163 C   0  0  0  0  0  0  0  0  0  0  0  0
   20.9509  -21.0155  -14.4108 C   0  0  0  0  0  0  0  0  0  0  0  0
   21.4994  -20.7747  -13.0481 C   0  0  2  0  0  0  0  0  0  0  0  0
   22.8481  -21.2869  -12.9067 N   0  0  0  0  0  0  0  0  0  0  0  0
   20.6664  -21.4450  -12.0364 C   0  0  0  0  0  0  0  0  0  0  0  0
   19.7685  -20.8131  -11.4130 O   0  0  0  0  0  0  0  0  0  0  0  0
   18.5056  -21.4133  -14.0393 C   0  0  0  0  0  0  0  0  0  0  0  0
   17.1844  -21.0446  -14.1367 C   0  0  0  0  0  0  0  0  0  0  0  0
   20.8057  -22.7822  -11.7105 O   0  0  0  0  0  0  0  0  0  0  0  0
  2  9  1  0
  2  1  1  6
  3  2  1  0
  4  8  1  0
  4  3  1  0
  5  4  2  0
  6  5  1  0
  6  7  1  0
  7  8  2  0
  9 10  2  0
 11  9  1  0
 11 12  1  0
 12 13  1  1
 13 14  1  0
 14 19  1  0
 15 14  2  0
 15 16  1  0
 16 17  2  0
 17 18  1  0
 19 18  2  0
 20 21  2  0
 20 12  1  0
 22 23  1  0
 23 24  2  0
 24 25  1  0
 26 25  2  0
 26 27  1  0
 28 27  1  6
 28 29  1  0
 29 20  1  0
 30 28  1  0
 31 30  2  0
 32 26  1  0
 33 23  1  0
 33 32  2  0
 34 30  1  0
M  END
$$$$
