HFY.pdb
     RDKit          3D

 34 36  0  0  1  0  0  0  0  0999 V2000
   20.1092  -10.8076  -20.3905 N   0  0  0  0  0  0  0  0  0  0  0  0
   20.7978   -9.5404  -20.2615 C   0  0  1  0  0  0  0  0  0  0  0  0
   20.3933   -8.6534  -21.3921 C   0  0  0  0  0  0  0  0  0  0  0  0
   20.9340   -9.2633  -22.6443 C   0  0  0  0  0  0  0  0  0  0  0  0
   22.2730   -9.4488  -22.9415 C   0  0  0  0  0  0  0  0  0  0  0  0
   22.3742  -10.0327  -24.1682 N   0  0  0  0  0  0  0  0  0  0  0  0
   21.1209  -10.2089  -24.6294 C   0  0  0  0  0  0  0  0  0  0  0  0
   20.2721   -9.7444  -23.7078 N   0  0  0  0  0  0  0  0  0  0  0  0
   20.5668   -8.9515  -18.9201 C   0  0  0  0  0  0  0  0  0  0  0  0
   19.4212   -9.0246  -18.4273 O   0  0  0  0  0  0  0  0  0  0  0  0
   21.5847   -8.3119  -18.1754 N   0  0  0  0  0  0  0  0  0  0  0  0
   21.2572   -7.7295  -16.8975 C   0  0  1  0  0  0  0  0  0  0  0  0
   22.3017   -8.1555  -15.8775 C   0  0  0  0  0  0  0  0  0  0  0  0
   22.0610   -7.6054  -14.5360 C   0  0  0  0  0  0  0  0  0  0  0  0
   22.5794   -6.3950  -14.1397 C   0  0  0  0  0  0  0  0  0  0  0  0
   22.3198   -5.9322  -12.8731 C   0  0  0  0  0  0  0  0  0  0  0  0
   21.5560   -6.6328  -11.9726 C   0  0  0  0  0  0  0  0  0  0  0  0
   21.0406   -7.8489  -12.3838 C   0  0  0  0  0  0  0  0  0  0  0  0
   21.2961   -8.3155  -13.6456 C   0  0  0  0  0  0  0  0  0  0  0  0
   21.4118   -6.2520  -17.0445 C   0  0  0  0  0  0  0  0  0  0  0  0
   22.3991   -5.8186  -17.6944 O   0  0  0  0  0  0  0  0  0  0  0  0
   20.0897   -3.9938  -23.0000 O   0  0  0  0  0  0  0  0  0  0  0  0
   19.9881   -3.7949  -21.6108 C   0  0  0  0  0  0  0  0  0  0  0  0
   20.5539   -2.6895  -21.0121 C   0  0  0  0  0  0  0  0  0  0  0  0
   20.4510   -2.4989  -19.6468 C   0  0  0  0  0  0  0  0  0  0  0  0
   19.7895   -3.3840  -18.8120 C   0  0  0  0  0  0  0  0  0  0  0  0
   19.6780   -3.2028  -17.3517 C   0  0  0  0  0  0  0  0  0  0  0  0
   20.7680   -3.9065  -16.6218 C   0  0  2  0  0  0  0  0  0  0  0  0
   20.5060   -5.3262  -16.4909 N   0  0  0  0  0  0  0  0  0  0  0  0
   20.9095   -3.3586  -15.2630 C   0  0  0  0  0  0  0  0  0  0  0  0
   20.5396   -4.0217  -14.2543 O   0  0  0  0  0  0  0  0  0  0  0  0
   19.2239   -4.4983  -19.4471 C   0  0  0  0  0  0  0  0  0  0  0  0
   19.3249   -4.6898  -20.8051 C   0  0  0  0  0  0  0  0  0  0  0  0
   21.4477   -2.1105  -15.0055 O   0  0  0  0  0  0  0  0  0  0  0  0
  2  9  1  0
  2  1  1  1
  3  2  1  0
  4  8  1  0
  4  3  1  0
  5  4  2  0
  6  5  1  0
  6  7  1  0
  7  8  2  0
  9 10  2  0
 11  9  1  0
 11 12  1  0
 12 13  1  1
 13 14  1  0
 14 19  1  0
 15 14  2  0
 15 16  1  0
 16 17  2  0
 17 18  1  0
 19 18  2  0
 20 21  2  0
 20 12  1  0
 22 23  1  0
 23 24  2  0
 24 25  1  0
 26 25  2  0
 26 27  1  0
 28 27  1  1
 28 29  1  0
 29 20  1  0
 30 28  1  0
 31 30  2  0
 32 26  1  0
 33 23  1  0
 33 32  2  0
 34 30  1  0
M  END
$$$$
