HFY.pdb
     RDKit          3D

 34 36  0  0  1  0  0  0  0  0999 V2000
   25.2829  -21.0969  -15.1835 N   0  0  0  0  0  0  0  0  0  0  0  0
   24.4669  -20.4160  -14.2000 C   0  0  1  0  0  0  0  0  0  0  0  0
   23.0278  -20.6557  -14.5165 C   0  0  0  0  0  0  0  0  0  0  0  0
   22.6951  -19.8198  -15.7094 C   0  0  0  0  0  0  0  0  0  0  0  0
   23.3795  -18.6900  -16.1223 C   0  0  0  0  0  0  0  0  0  0  0  0
   22.7836  -18.2011  -17.2458 N   0  0  0  0  0  0  0  0  0  0  0  0
   21.7453  -19.0110  -17.5297 C   0  0  0  0  0  0  0  0  0  0  0  0
   21.7057  -19.9729  -16.6030 N   0  0  0  0  0  0  0  0  0  0  0  0
   24.8573  -20.8158  -12.8262 C   0  0  0  0  0  0  0  0  0  0  0  0
   24.8376  -22.0295  -12.5314 O   0  0  0  0  0  0  0  0  0  0  0  0
   25.2504  -19.8849  -11.8368 N   0  0  0  0  0  0  0  0  0  0  0  0
   25.6193  -20.3668  -10.5287 C   0  0  1  0  0  0  0  0  0  0  0  0
   26.4744  -19.3161   -9.8375 C   0  0  0  0  0  0  0  0  0  0  0  0
   26.9414  -19.7312   -8.5072 C   0  0  0  0  0  0  0  0  0  0  0  0
   27.7437  -20.8332   -8.3263 C   0  0  0  0  0  0  0  0  0  0  0  0
   28.1490  -21.1717   -7.0587 C   0  0  0  0  0  0  0  0  0  0  0  0
   27.7845  -20.4501   -5.9490 C   0  0  0  0  0  0  0  0  0  0  0  0
   26.9773  -19.3438   -6.1448 C   0  0  0  0  0  0  0  0  0  0  0  0
   26.5700  -19.0013   -7.4065 C   0  0  0  0  0  0  0  0  0  0  0  0
   24.3606  -20.4553   -9.7309 C   0  0  0  0  0  0  0  0  0  0  0  0
   23.4527  -19.6126   -9.9561 O   0  0  0  0  0  0  0  0  0  0  0  0
   16.9656  -22.7918   -5.8815 O   0  0  0  0  0  0  0  0  0  0  0  0
   18.1739  -22.6730   -6.5926 C   0  0  0  0  0  0  0  0  0  0  0  0
   18.3245  -21.7176   -7.5749 C   0  0  0  0  0  0  0  0  0  0  0  0
   19.5139  -21.6052   -8.2705 C   0  0  0  0  0  0  0  0  0  0  0  0
   20.6044  -22.4248   -8.0322 C   0  0  0  0  0  0  0  0  0  0  0  0
   21.8781  -22.3267   -8.7710 C   0  0  0  0  0  0  0  0  0  0  0  0
   22.8718  -21.4836   -8.0515 C   0  0  2  0  0  0  0  0  0  0  0  0
   24.1453  -21.4353   -8.7423 N   0  0  0  0  0  0  0  0  0  0  0  0
   23.1221  -22.0252   -6.7058 C   0  0  0  0  0  0  0  0  0  0  0  0
   22.6103  -21.4876   -5.6845 O   0  0  0  0  0  0  0  0  0  0  0  0
   20.4236  -23.3866   -7.0285 C   0  0  0  0  0  0  0  0  0  0  0  0
   19.2415  -23.5001   -6.3352 C   0  0  0  0  0  0  0  0  0  0  0  0
   23.9138  -23.1360   -6.4752 O   0  0  0  0  0  0  0  0  0  0  0  0
  2  9  1  0
  2  1  1  6
  3  2  1  0
  4  8  1  0
  4  3  1  0
  5  4  2  0
  6  5  1  0
  6  7  1  0
  7  8  2  0
  9 10  2  0
 11  9  1  0
 11 12  1  0
 12 13  1  1
 13 14  1  0
 14 19  1  0
 15 14  2  0
 15 16  1  0
 16 17  2  0
 17 18  1  0
 19 18  2  0
 20 21  2  0
 20 12  1  0
 22 23  1  0
 23 24  2  0
 24 25  1  0
 26 25  2  0
 26 27  1  0
 28 27  1  6
 28 29  1  0
 29 20  1  0
 30 28  1  0
 31 30  2  0
 32 26  1  0
 33 23  1  0
 33 32  2  0
 34 30  1  0
M  END
$$$$
