HFY.pdb
     RDKit          3D

 34 36  0  0  1  0  0  0  0  0999 V2000
   26.6529  -21.4804  -18.5548 N   0  0  0  0  0  0  0  0  0  0  0  0
   26.5129  -20.3899  -17.6126 C   0  0  1  0  0  0  0  0  0  0  0  0
   25.6339  -19.3428  -18.2125 C   0  0  0  0  0  0  0  0  0  0  0  0
   26.4773  -18.5490  -19.1563 C   0  0  0  0  0  0  0  0  0  0  0  0
   27.0985  -17.3457  -18.8703 C   0  0  0  0  0  0  0  0  0  0  0  0
   27.7766  -16.9274  -19.9755 N   0  0  0  0  0  0  0  0  0  0  0  0
   27.5826  -17.8529  -20.9349 C   0  0  0  0  0  0  0  0  0  0  0  0
   26.8046  -18.8149  -20.4302 N   0  0  0  0  0  0  0  0  0  0  0  0
   26.0447  -20.8895  -16.2971 C   0  0  0  0  0  0  0  0  0  0  0  0
   25.1155  -21.7241  -16.2738 O   0  0  0  0  0  0  0  0  0  0  0  0
   26.6030  -20.4634  -15.0696 N   0  0  0  0  0  0  0  0  0  0  0  0
   26.0186  -20.9272  -13.8356 C   0  0  1  0  0  0  0  0  0  0  0  0
   26.9308  -20.5427  -12.6811 C   0  0  0  0  0  0  0  0  0  0  0  0
   26.2949  -20.6917  -11.3645 C   0  0  0  0  0  0  0  0  0  0  0  0
   25.9499  -21.9217  -10.8555 C   0  0  0  0  0  0  0  0  0  0  0  0
   25.3583  -21.9981   -9.6186 C   0  0  0  0  0  0  0  0  0  0  0  0
   25.0922  -20.8872   -8.8570 C   0  0  0  0  0  0  0  0  0  0  0  0
   25.4442  -19.6560   -9.3805 C   0  0  0  0  0  0  0  0  0  0  0  0
   26.0344  -19.5736  -10.6134 C   0  0  0  0  0  0  0  0  0  0  0  0
   24.7601  -20.1496  -13.6353 C   0  0  0  0  0  0  0  0  0  0  0  0
   24.8163  -18.8947  -13.7183 O   0  0  0  0  0  0  0  0  0  0  0  0
   19.6091  -22.8607  -17.9300 O   0  0  0  0  0  0  0  0  0  0  0  0
   20.1466  -21.9613  -16.9909 C   0  0  0  0  0  0  0  0  0  0  0  0
   21.4478  -21.5192  -17.1005 C   0  0  0  0  0  0  0  0  0  0  0  0
   21.9709  -20.6355  -16.1750 C   0  0  0  0  0  0  0  0  0  0  0  0
   21.2403  -20.1490  -15.1039 C   0  0  0  0  0  0  0  0  0  0  0  0
   21.7843  -19.2135  -14.1005 C   0  0  0  0  0  0  0  0  0  0  0  0
   22.3985  -19.9315  -12.9501 C   0  0  2  0  0  0  0  0  0  0  0  0
   23.5188  -20.7554  -13.3591 N   0  0  0  0  0  0  0  0  0  0  0  0
   21.4100  -20.8179  -12.3146 C   0  0  0  0  0  0  0  0  0  0  0  0
   21.6005  -22.0645  -12.2543 O   0  0  0  0  0  0  0  0  0  0  0  0
   19.9210  -20.6147  -15.0170 C   0  0  0  0  0  0  0  0  0  0  0  0
   19.3986  -21.4936  -15.9365 C   0  0  0  0  0  0  0  0  0  0  0  0
   20.2345  -20.3550  -11.7508 O   0  0  0  0  0  0  0  0  0  0  0  0
  2  9  1  0
  2  1  1  6
  3  2  1  0
  4  8  1  0
  4  3  1  0
  5  4  2  0
  6  5  1  0
  6  7  1  0
  7  8  2  0
  9 10  2  0
 11  9  1  0
 11 12  1  0
 12 13  1  1
 13 14  1  0
 14 19  1  0
 15 14  2  0
 15 16  1  0
 16 17  2  0
 17 18  1  0
 19 18  2  0
 20 21  2  0
 20 12  1  0
 22 23  1  0
 23 24  2  0
 24 25  1  0
 26 25  2  0
 26 27  1  0
 28 27  1  6
 28 29  1  0
 29 20  1  0
 30 28  1  0
 31 30  2  0
 32 26  1  0
 33 23  1  0
 33 32  2  0
 34 30  1  0
M  END
$$$$
