HFY.pdb
     RDKit          3D

 34 36  0  0  1  0  0  0  0  0999 V2000
   39.0422  -37.7872   -1.1290 N   0  0  0  0  0  0  0  0  0  0  0  0
   37.6398  -37.4835   -0.9347 C   0  0  1  0  0  0  0  0  0  0  0  0
   36.9379  -38.7171   -0.4717 C   0  0  0  0  0  0  0  0  0  0  0  0
   36.7314  -39.5821   -1.6723 C   0  0  0  0  0  0  0  0  0  0  0  0
   36.3295  -39.1476   -2.9234 C   0  0  0  0  0  0  0  0  0  0  0  0
   36.2528  -40.2217   -3.7580 N   0  0  0  0  0  0  0  0  0  0  0  0
   36.6006  -41.3079   -3.0412 C   0  0  0  0  0  0  0  0  0  0  0  0
   36.8835  -40.9094   -1.7976 N   0  0  0  0  0  0  0  0  0  0  0  0
   37.4750  -36.3199   -0.0301 C   0  0  0  0  0  0  0  0  0  0  0  0
   38.1273  -36.2970    1.0350 O   0  0  0  0  0  0  0  0  0  0  0  0
   36.6132  -35.2367   -0.3198 N   0  0  0  0  0  0  0  0  0  0  0  0
   36.4919  -34.1632    0.6354 C   0  0  1  0  0  0  0  0  0  0  0  0
   36.0368  -32.9058   -0.0889 C   0  0  0  0  0  0  0  0  0  0  0  0
   35.9061  -31.7406    0.7973 C   0  0  0  0  0  0  0  0  0  0  0  0
   34.6962  -31.3591    1.3278 C   0  0  0  0  0  0  0  0  0  0  0  0
   34.6365  -30.2611    2.1504 C   0  0  0  0  0  0  0  0  0  0  0  0
   35.7449  -29.5171    2.4713 C   0  0  0  0  0  0  0  0  0  0  0  0
   36.9558  -29.9116    1.9310 C   0  0  0  0  0  0  0  0  0  0  0  0
   37.0215  -31.0056    1.1102 C   0  0  0  0  0  0  0  0  0  0  0  0
   35.3748  -34.5288    1.5556 C   0  0  0  0  0  0  0  0  0  0  0  0
   34.4783  -35.3012    1.1260 O   0  0  0  0  0  0  0  0  0  0  0  0
   32.8162  -40.4293    1.6489 O   0  0  0  0  0  0  0  0  0  0  0  0
   33.2484  -39.2801    2.3361 C   0  0  0  0  0  0  0  0  0  0  0  0
   34.5858  -38.9500    2.3894 C   0  0  0  0  0  0  0  0  0  0  0  0
   35.0050  -37.8196    3.0660 C   0  0  0  0  0  0  0  0  0  0  0  0
   34.1307  -36.9666    3.7184 C   0  0  0  0  0  0  0  0  0  0  0  0
   34.5602  -35.7616    4.4541 C   0  0  0  0  0  0  0  0  0  0  0  0
   34.2018  -34.5126    3.7277 C   0  0  2  0  0  0  0  0  0  0  0  0
   35.2804  -34.0500    2.8770 N   0  0  0  0  0  0  0  0  0  0  0  0
   33.9023  -33.4339    4.6835 C   0  0  0  0  0  0  0  0  0  0  0  0
   34.8308  -32.7980    5.2559 O   0  0  0  0  0  0  0  0  0  0  0  0
   32.7776  -37.3261    3.6479 C   0  0  0  0  0  0  0  0  0  0  0  0
   32.3584  -38.4499    2.9753 C   0  0  0  0  0  0  0  0  0  0  0  0
   32.6135  -33.0510    5.0090 O   0  0  0  0  0  0  0  0  0  0  0  0
  2  9  1  0
  2  1  1  1
  3  2  1  0
  4  8  1  0
  4  3  1  0
  5  4  2  0
  6  5  1  0
  6  7  1  0
  7  8  2  0
  9 10  2  0
 11  9  1  0
 11 12  1  0
 12 13  1  6
 13 14  1  0
 14 19  1  0
 15 14  2  0
 15 16  1  0
 16 17  2  0
 17 18  1  0
 19 18  2  0
 20 21  2  0
 20 12  1  0
 22 23  1  0
 23 24  2  0
 24 25  1  0
 26 25  2  0
 26 27  1  0
 28 27  1  1
 28 29  1  0
 29 20  1  0
 30 28  1  0
 31 30  2  0
 32 26  1  0
 33 23  1  0
 33 32  2  0
 34 30  1  0
M  END
$$$$
