HFY.pdb
     RDKit          3D

 34 36  0  0  1  0  0  0  0  0999 V2000
   25.3095  -20.8457  -19.5749 N   0  0  0  0  0  0  0  0  0  0  0  0
   24.8143  -19.8738  -18.6226 C   0  0  1  0  0  0  0  0  0  0  0  0
   23.5548  -19.2742  -19.1546 C   0  0  0  0  0  0  0  0  0  0  0  0
   23.9276  -18.4548  -20.3470 C   0  0  0  0  0  0  0  0  0  0  0  0
   23.3032  -18.4917  -21.5817 C   0  0  0  0  0  0  0  0  0  0  0  0
   23.9204  -17.6063  -22.4130 N   0  0  0  0  0  0  0  0  0  0  0  0
   24.9127  -17.0264  -21.7104 C   0  0  0  0  0  0  0  0  0  0  0  0
   24.9040  -17.5438  -20.4784 N   0  0  0  0  0  0  0  0  0  0  0  0
   24.6718  -20.4820  -17.2775 C   0  0  0  0  0  0  0  0  0  0  0  0
   24.1010  -21.5891  -17.1824 O   0  0  0  0  0  0  0  0  0  0  0  0
   25.1530  -19.8649  -16.0995 N   0  0  0  0  0  0  0  0  0  0  0  0
   24.8876  -20.4851  -14.8251 C   0  0  1  0  0  0  0  0  0  0  0  0
   25.8155  -19.8851  -13.7802 C   0  0  0  0  0  0  0  0  0  0  0  0
   25.6184  -20.4483  -12.4370 C   0  0  0  0  0  0  0  0  0  0  0  0
   24.8270  -19.8323  -11.4962 C   0  0  0  0  0  0  0  0  0  0  0  0
   24.6803  -20.4067  -10.2575 C   0  0  0  0  0  0  0  0  0  0  0  0
   25.2962  -21.5839   -9.9114 C   0  0  0  0  0  0  0  0  0  0  0  0
   26.0896  -22.1933  -10.8669 C   0  0  0  0  0  0  0  0  0  0  0  0
   26.2396  -21.6252  -12.1038 C   0  0  0  0  0  0  0  0  0  0  0  0
   23.5082  -20.0772  -14.4258 C   0  0  0  0  0  0  0  0  0  0  0  0
   23.2043  -18.8576  -14.4968 O   0  0  0  0  0  0  0  0  0  0  0  0
   19.0189  -24.2025  -18.2397 O   0  0  0  0  0  0  0  0  0  0  0  0
   19.3616  -23.1656  -17.3526 C   0  0  0  0  0  0  0  0  0  0  0  0
   20.4127  -22.3176  -17.6293 C   0  0  0  0  0  0  0  0  0  0  0  0
   20.7452  -21.3004  -16.7542 C   0  0  0  0  0  0  0  0  0  0  0  0
   20.0614  -21.0727  -15.5716 C   0  0  0  0  0  0  0  0  0  0  0  0
   20.4079  -19.9990  -14.6204 C   0  0  0  0  0  0  0  0  0  0  0  0
   21.2570  -20.5002  -13.5052 C   0  0  2  0  0  0  0  0  0  0  0  0
   22.5368  -20.9924  -13.9754 N   0  0  0  0  0  0  0  0  0  0  0  0
   20.5861  -21.6122  -12.8124 C   0  0  0  0  0  0  0  0  0  0  0  0
   19.4349  -21.4664  -12.3147 O   0  0  0  0  0  0  0  0  0  0  0  0
   18.9978  -21.9493  -15.3157 C   0  0  0  0  0  0  0  0  0  0  0  0
   18.6652  -22.9616  -16.1849 C   0  0  0  0  0  0  0  0  0  0  0  0
   21.1570  -22.8638  -12.6661 O   0  0  0  0  0  0  0  0  0  0  0  0
  2  9  1  0
  2  1  1  6
  3  2  1  0
  4  8  1  0
  4  3  1  0
  5  4  2  0
  6  5  1  0
  6  7  1  0
  7  8  2  0
  9 10  2  0
 11  9  1  0
 11 12  1  0
 12 13  1  1
 13 14  1  0
 14 19  1  0
 15 14  2  0
 15 16  1  0
 16 17  2  0
 17 18  1  0
 19 18  2  0
 20 21  2  0
 20 12  1  0
 22 23  1  0
 23 24  2  0
 24 25  1  0
 26 25  2  0
 26 27  1  0
 28 27  1  6
 28 29  1  0
 29 20  1  0
 30 28  1  0
 31 30  2  0
 32 26  1  0
 33 23  1  0
 33 32  2  0
 34 30  1  0
M  END
$$$$
