HFY.pdb
     RDKit          3D

 34 36  0  0  1  0  0  0  0  0999 V2000
   36.1057  -25.4231  -17.3258 N   0  0  0  0  0  0  0  0  0  0  0  0
   34.8677  -24.9032  -17.8678 C   0  0  1  0  0  0  0  0  0  0  0  0
   34.7466  -25.3312  -19.2929 C   0  0  0  0  0  0  0  0  0  0  0  0
   35.6847  -24.4824  -20.0879 C   0  0  0  0  0  0  0  0  0  0  0  0
   36.7980  -24.9325  -20.7760 C   0  0  0  0  0  0  0  0  0  0  0  0
   37.4014  -23.8702  -21.3789 N   0  0  0  0  0  0  0  0  0  0  0  0
   36.6780  -22.7758  -21.0730 C   0  0  0  0  0  0  0  0  0  0  0  0
   35.6561  -23.1579  -20.3014 N   0  0  0  0  0  0  0  0  0  0  0  0
   33.7168  -25.2972  -17.0196 C   0  0  0  0  0  0  0  0  0  0  0  0
   33.6552  -26.4758  -16.6101 O   0  0  0  0  0  0  0  0  0  0  0  0
   32.6875  -24.3988  -16.6543 N   0  0  0  0  0  0  0  0  0  0  0  0
   31.6779  -24.8324  -15.7204 C   0  0  1  0  0  0  0  0  0  0  0  0
   31.2993  -23.6641  -14.8235 C   0  0  0  0  0  0  0  0  0  0  0  0
   32.1676  -23.5320  -13.6450 C   0  0  0  0  0  0  0  0  0  0  0  0
   33.2180  -24.3885  -13.4126 C   0  0  0  0  0  0  0  0  0  0  0  0
   33.9951  -24.2149  -12.2938 C   0  0  0  0  0  0  0  0  0  0  0  0
   33.7677  -23.2114  -11.3847 C   0  0  0  0  0  0  0  0  0  0  0  0
   32.7080  -22.3567  -11.6303 C   0  0  0  0  0  0  0  0  0  0  0  0
   31.9296  -22.5249  -12.7443 C   0  0  0  0  0  0  0  0  0  0  0  0
   30.4560  -25.1434  -16.5197 C   0  0  0  0  0  0  0  0  0  0  0  0
   30.2474  -24.4814  -17.5700 O   0  0  0  0  0  0  0  0  0  0  0  0
   22.7671  -28.2946  -19.5000 O   0  0  0  0  0  0  0  0  0  0  0  0
   23.9729  -28.1295  -18.7939 C   0  0  0  0  0  0  0  0  0  0  0  0
   25.1856  -28.3862  -19.3971 C   0  0  0  0  0  0  0  0  0  0  0  0
   26.3674  -28.2224  -18.6987 C   0  0  0  0  0  0  0  0  0  0  0  0
   26.4090  -27.8004  -17.3803 C   0  0  0  0  0  0  0  0  0  0  0  0
   27.6595  -27.6296  -16.6156 C   0  0  0  0  0  0  0  0  0  0  0  0
   28.3632  -26.3693  -16.9798 C   0  0  2  0  0  0  0  0  0  0  0  0
   29.5311  -26.1402  -16.1523 N   0  0  0  0  0  0  0  0  0  0  0  0
   27.4670  -25.2149  -16.8043 C   0  0  0  0  0  0  0  0  0  0  0  0
   27.3093  -24.6823  -15.6705 O   0  0  0  0  0  0  0  0  0  0  0  0
   25.1621  -27.5466  -16.7923 C   0  0  0  0  0  0  0  0  0  0  0  0
   23.9854  -27.7088  -17.4852 C   0  0  0  0  0  0  0  0  0  0  0  0
   26.7561  -24.6470  -17.8464 O   0  0  0  0  0  0  0  0  0  0  0  0
  2  9  1  0
  2  1  1  1
  3  2  1  0
  4  8  1  0
  4  3  1  0
  5  4  2  0
  6  5  1  0
  6  7  1  0
  7  8  2  0
  9 10  2  0
 11  9  1  0
 11 12  1  0
 12 13  1  1
 13 14  1  0
 14 19  1  0
 15 14  2  0
 15 16  1  0
 16 17  2  0
 17 18  1  0
 19 18  2  0
 20 21  2  0
 20 12  1  0
 22 23  1  0
 23 24  2  0
 24 25  1  0
 26 25  2  0
 26 27  1  0
 28 27  1  1
 28 29  1  0
 29 20  1  0
 30 28  1  0
 31 30  2  0
 32 26  1  0
 33 23  1  0
 33 32  2  0
 34 30  1  0
M  END
$$$$
