HFY.pdb
     RDKit          3D

 34 36  0  0  1  0  0  0  0  0999 V2000
   21.9548  -11.0948  -20.8380 N   0  0  0  0  0  0  0  0  0  0  0  0
   22.6821   -9.8923  -20.4892 C   0  0  1  0  0  0  0  0  0  0  0  0
   22.7456   -9.0017  -21.6857 C   0  0  0  0  0  0  0  0  0  0  0  0
   23.5658   -9.7075  -22.7159 C   0  0  0  0  0  0  0  0  0  0  0  0
   24.9430   -9.6435  -22.8371 C   0  0  0  0  0  0  0  0  0  0  0  0
   25.3281  -10.4178  -23.8899 N   0  0  0  0  0  0  0  0  0  0  0  0
   24.2114  -10.9559  -24.4172 C   0  0  0  0  0  0  0  0  0  0  0  0
   23.1673  -10.5221  -23.7050 N   0  0  0  0  0  0  0  0  0  0  0  0
   22.0911   -9.2505  -19.2899 C   0  0  0  0  0  0  0  0  0  0  0  0
   20.8477   -9.2438  -19.1703 O   0  0  0  0  0  0  0  0  0  0  0  0
   22.8721   -8.6467  -18.2772 N   0  0  0  0  0  0  0  0  0  0  0  0
   22.2138   -8.1054  -17.1140 C   0  0  1  0  0  0  0  0  0  0  0  0
   23.0955   -8.3330  -15.8960 C   0  0  0  0  0  0  0  0  0  0  0  0
   22.4905   -7.8563  -14.6442 C   0  0  0  0  0  0  0  0  0  0  0  0
   21.7907   -8.6929  -13.8069 C   0  0  0  0  0  0  0  0  0  0  0  0
   21.2480   -8.1898  -12.6500 C   0  0  0  0  0  0  0  0  0  0  0  0
   21.3743   -6.8718  -12.2869 C   0  0  0  0  0  0  0  0  0  0  0  0
   22.0806   -6.0408  -13.1380 C   0  0  0  0  0  0  0  0  0  0  0  0
   22.6240   -6.5368  -14.2930 C   0  0  0  0  0  0  0  0  0  0  0  0
   22.1541   -6.6256  -17.3016 C   0  0  0  0  0  0  0  0  0  0  0  0
   23.1586   -6.0470  -17.7926 O   0  0  0  0  0  0  0  0  0  0  0  0
   14.9112   -5.1480  -18.8541 O   0  0  0  0  0  0  0  0  0  0  0  0
   16.2867   -4.8678  -18.7576 C   0  0  0  0  0  0  0  0  0  0  0  0
   16.7325   -3.5794  -18.5527 C   0  0  0  0  0  0  0  0  0  0  0  0
   18.0851   -3.3096  -18.4586 C   0  0  0  0  0  0  0  0  0  0  0  0
   19.0563   -4.2914  -18.5619 C   0  0  0  0  0  0  0  0  0  0  0  0
   20.5045   -4.0213  -18.4743 C   0  0  0  0  0  0  0  0  0  0  0  0
   21.0623   -4.4166  -17.1520 C   0  0  2  0  0  0  0  0  0  0  0  0
   21.0289   -5.8524  -16.9552 N   0  0  0  0  0  0  0  0  0  0  0  0
   20.2805   -3.8057  -16.0647 C   0  0  0  0  0  0  0  0  0  0  0  0
   20.2315   -2.5517  -15.9262 O   0  0  0  0  0  0  0  0  0  0  0  0
   18.5750   -5.5914  -18.7697 C   0  0  0  0  0  0  0  0  0  0  0  0
   17.2301   -5.8621  -18.8634 C   0  0  0  0  0  0  0  0  0  0  0  0
   19.5609   -4.5470  -15.1447 O   0  0  0  0  0  0  0  0  0  0  0  0
  2  9  1  0
  2  1  1  6
  3  2  1  0
  4  8  1  0
  4  3  1  0
  5  4  2  0
  6  5  1  0
  6  7  1  0
  7  8  2  0
  9 10  2  0
 11  9  1  0
 11 12  1  0
 12 13  1  1
 13 14  1  0
 14 19  1  0
 15 14  2  0
 15 16  1  0
 16 17  2  0
 17 18  1  0
 19 18  2  0
 20 21  2  0
 20 12  1  0
 22 23  1  0
 23 24  2  0
 24 25  1  0
 26 25  2  0
 26 27  1  0
 28 27  1  6
 28 29  1  0
 29 20  1  0
 30 28  1  0
 31 30  2  0
 32 26  1  0
 33 23  1  0
 33 32  2  0
 34 30  1  0
M  END
$$$$
