HFY.pdb
     RDKit          3D

 34 36  0  0  1  0  0  0  0  0999 V2000
   28.4546  -21.4213  -13.3662 N   0  0  0  0  0  0  0  0  0  0  0  0
   27.6592  -20.3176  -12.8702 C   0  0  1  0  0  0  0  0  0  0  0  0
   26.8066  -19.7990  -13.9806 C   0  0  0  0  0  0  0  0  0  0  0  0
   27.6697  -18.9157  -14.8216 C   0  0  0  0  0  0  0  0  0  0  0  0
   28.0508  -17.6222  -14.5098 C   0  0  0  0  0  0  0  0  0  0  0  0
   28.8347  -17.1407  -15.5147 N   0  0  0  0  0  0  0  0  0  0  0  0
   28.9415  -18.1159  -16.4378 C   0  0  0  0  0  0  0  0  0  0  0  0
   28.2402  -19.1695  -16.0094 N   0  0  0  0  0  0  0  0  0  0  0  0
   26.8983  -20.7199  -11.6625 C   0  0  0  0  0  0  0  0  0  0  0  0
   26.2403  -21.7811  -11.6997 O   0  0  0  0  0  0  0  0  0  0  0  0
   26.8848  -19.9562  -10.4723 N   0  0  0  0  0  0  0  0  0  0  0  0
   25.9039  -20.2559   -9.4587 C   0  0  1  0  0  0  0  0  0  0  0  0
   25.9975  -19.2128   -8.3560 C   0  0  0  0  0  0  0  0  0  0  0  0
   26.8766  -19.6157   -7.2491 C   0  0  0  0  0  0  0  0  0  0  0  0
   27.8372  -18.7756   -6.7370 C   0  0  0  0  0  0  0  0  0  0  0  0
   28.6289  -19.2078   -5.7016 C   0  0  0  0  0  0  0  0  0  0  0  0
   28.5030  -20.4576   -5.1471 C   0  0  0  0  0  0  0  0  0  0  0  0
   27.5329  -21.2928   -5.6715 C   0  0  0  0  0  0  0  0  0  0  0  0
   26.7404  -20.8673   -6.7040 C   0  0  0  0  0  0  0  0  0  0  0  0
   24.5629  -20.0644  -10.0862 C   0  0  0  0  0  0  0  0  0  0  0  0
   24.4672  -19.2642  -11.0533 O   0  0  0  0  0  0  0  0  0  0  0  0
   17.7277  -21.7447  -14.9756 O   0  0  0  0  0  0  0  0  0  0  0  0
   18.8792  -21.7038  -14.1682 C   0  0  0  0  0  0  0  0  0  0  0  0
   19.7269  -20.6171  -14.2010 C   0  0  0  0  0  0  0  0  0  0  0  0
   20.8570  -20.5821  -13.4055 C   0  0  0  0  0  0  0  0  0  0  0  0
   21.2029  -21.6108  -12.5454 C   0  0  0  0  0  0  0  0  0  0  0  0
   22.4099  -21.5959  -11.6965 C   0  0  0  0  0  0  0  0  0  0  0  0
   22.2250  -20.7488  -10.4864 C   0  0  2  0  0  0  0  0  0  0  0  0
   23.4060  -20.7366   -9.6459 N   0  0  0  0  0  0  0  0  0  0  0  0
   21.1107  -21.2590   -9.6712 C   0  0  0  0  0  0  0  0  0  0  0  0
   19.9401  -20.8093   -9.8183 O   0  0  0  0  0  0  0  0  0  0  0  0
   20.3236  -22.7025  -12.5321 C   0  0  0  0  0  0  0  0  0  0  0  0
   19.1989  -22.7394  -13.3224 C   0  0  0  0  0  0  0  0  0  0  0  0
   21.2666  -22.2451   -8.7135 O   0  0  0  0  0  0  0  0  0  0  0  0
  2  9  1  0
  2  1  1  6
  3  2  1  0
  4  8  1  0
  4  3  1  0
  5  4  2  0
  6  5  1  0
  6  7  1  0
  7  8  2  0
  9 10  2  0
 11  9  1  0
 11 12  1  0
 12 13  1  1
 13 14  1  0
 14 19  1  0
 15 14  2  0
 15 16  1  0
 16 17  2  0
 17 18  1  0
 19 18  2  0
 20 21  2  0
 20 12  1  0
 22 23  1  0
 23 24  2  0
 24 25  1  0
 26 25  2  0
 26 27  1  0
 28 27  1  6
 28 29  1  0
 29 20  1  0
 30 28  1  0
 31 30  2  0
 32 26  1  0
 33 23  1  0
 33 32  2  0
 34 30  1  0
M  END
$$$$
