FMF.pdb
     RDKit          3D

 31 32  0  0  1  0  0  0  0  0999 V2000
   10.2544  -19.6230   20.1657 N   0  0  0  0  0  0  0  0  0  0  0  0
    9.6043  -19.2766   21.4315 C   0  0  1  0  0  0  0  0  0  0  0  0
   10.2986  -19.9916   22.5725 C   0  0  0  0  0  0  0  0  0  0  0  0
    9.7295  -21.3538   22.6669 C   0  0  0  0  0  0  0  0  0  0  0  0
    8.8263  -21.7218   23.6397 C   0  0  0  0  0  0  0  0  0  0  0  0
    8.3165  -23.0088   23.6940 C   0  0  0  0  0  0  0  0  0  0  0  0
    8.7217  -23.9468   22.7522 C   0  0  0  0  0  0  0  0  0  0  0  0
    9.6193  -23.5956   21.7789 C   0  0  0  0  0  0  0  0  0  0  0  0
   10.1121  -22.3216   21.7400 C   0  0  0  0  0  0  0  0  0  0  0  0
    9.6364  -17.8079   21.5973 C   0  0  0  0  0  0  0  0  0  0  0  0
   10.7257  -17.2080   21.4670 O   0  0  0  0  0  0  0  0  0  0  0  0
    7.6086  -11.2270   19.7779 C   0  0  0  0  0  0  0  0  0  0  0  0
    7.7015  -13.0473   19.8193 S   0  0  0  0  0  0  0  0  0  0  0  0
    7.0584  -13.6227   21.4287 C   0  0  0  0  0  0  0  0  0  0  0  0
    7.2277  -15.1040   21.4973 C   0  0  0  0  0  0  0  0  0  0  0  0
    8.5558  -15.5811   22.0130 C   0  0  2  0  0  0  0  0  0  0  0  0
    8.4798  -17.0562   21.8981 N   0  0  0  0  0  0  0  0  0  0  0  0
    8.8187  -15.2947   23.4257 C   0  0  0  0  0  0  0  0  0  0  0  0
    8.4417  -14.1834   23.9511 O   0  0  0  0  0  0  0  0  0  0  0  0
    9.4815  -16.1520   24.3483 N   0  0  0  0  0  0  0  0  0  0  0  0
    9.5354  -15.8734   25.7848 C   0  0  1  0  0  0  0  0  0  0  0  0
    8.1784  -15.7978   26.3796 C   0  0  0  0  0  0  0  0  0  0  0  0
    7.6863  -14.4119   26.3966 C   0  0  0  0  0  0  0  0  0  0  0  0
    8.5034  -13.3447   26.6938 C   0  0  0  0  0  0  0  0  0  0  0  0
    8.0404  -12.0404   26.7023 C   0  0  0  0  0  0  0  0  0  0  0  0
    6.7136  -11.7558   26.4069 C   0  0  0  0  0  0  0  0  0  0  0  0
    5.8933  -12.8104   26.1103 C   0  0  0  0  0  0  0  0  0  0  0  0
    6.3550  -14.0991   26.1028 C   0  0  0  0  0  0  0  0  0  0  0  0
   10.3241  -16.9402   26.3989 C   0  0  0  0  0  0  0  0  0  0  0  0
   10.8199  -17.9637   25.6239 O   0  0  0  0  0  0  0  0  0  0  0  0
   10.5606  -16.9493   27.6267 O   0  0  0  0  0  0  0  0  0  0  0  0
  2  1  1  6
  3  4  1  0
  3  2  1  0
  4  5  2  0
  5  6  1  0
  7  6  2  0
  8  7  1  0
  9  8  2  0
  9  4  1  0
 10  2  1  0
 10 11  2  0
 12 13  1  0
 13 14  1  0
 16 15  1  1
 15 14  1  0
 16 17  1  0
 17 10  1  0
 18 16  1  0
 19 18  2  0
 20 18  1  0
 21 22  1  1
 21 20  1  0
 22 23  1  0
 23 28  1  0
 24 23  2  0
 24 25  1  0
 25 26  2  0
 26 27  1  0
 28 27  2  0
 29 30  1  0
 29 21  1  0
 31 29  2  0
M  END
$$$$
