FMF.pdb
     RDKit          3D

 31 32  0  0  1  0  0  0  0  0999 V2000
    5.8630  -18.8896   24.2060 N   0  0  0  0  0  0  0  0  0  0  0  0
    6.6430  -19.5570   23.1615 C   0  0  1  0  0  0  0  0  0  0  0  0
    5.7072  -20.1495   22.1278 C   0  0  0  0  0  0  0  0  0  0  0  0
    4.7666  -19.0882   21.7067 C   0  0  0  0  0  0  0  0  0  0  0  0
    4.9555  -18.3269   20.5743 C   0  0  0  0  0  0  0  0  0  0  0  0
    4.0507  -17.3417   20.2142 C   0  0  0  0  0  0  0  0  0  0  0  0
    2.9323  -17.1153   21.0073 C   0  0  0  0  0  0  0  0  0  0  0  0
    2.7310  -17.8643   22.1364 C   0  0  0  0  0  0  0  0  0  0  0  0
    3.6337  -18.8322   22.4768 C   0  0  0  0  0  0  0  0  0  0  0  0
    7.5775  -18.5784   22.5659 C   0  0  0  0  0  0  0  0  0  0  0  0
    8.5066  -18.9938   21.8394 O   0  0  0  0  0  0  0  0  0  0  0  0
    7.9428  -12.7668   18.6921 C   0  0  0  0  0  0  0  0  0  0  0  0
    7.6527  -12.7332   20.4917 S   0  0  0  0  0  0  0  0  0  0  0  0
    8.7109  -14.0007   21.2718 C   0  0  0  0  0  0  0  0  0  0  0  0
    7.8389  -15.1255   21.7215 C   0  0  0  0  0  0  0  0  0  0  0  0
    8.5498  -16.2719   22.3831 C   0  0  2  0  0  0  0  0  0  0  0  0
    7.4590  -17.1892   22.7875 N   0  0  0  0  0  0  0  0  0  0  0  0
    9.2755  -15.9344   23.6104 C   0  0  0  0  0  0  0  0  0  0  0  0
   10.2197  -15.0617   23.5955 O   0  0  0  0  0  0  0  0  0  0  0  0
    9.0477  -16.4885   24.9014 N   0  0  0  0  0  0  0  0  0  0  0  0
    9.6538  -15.9365   26.1145 C   0  0  1  0  0  0  0  0  0  0  0  0
    8.6440  -15.7107   27.1776 C   0  0  0  0  0  0  0  0  0  0  0  0
    7.6190  -14.7527   26.7366 C   0  0  0  0  0  0  0  0  0  0  0  0
    6.3975  -15.1560   26.2463 C   0  0  0  0  0  0  0  0  0  0  0  0
    5.4311  -14.2530   25.8384 C   0  0  0  0  0  0  0  0  0  0  0  0
    5.6619  -12.8853   25.9096 C   0  0  0  0  0  0  0  0  0  0  0  0
    6.8735  -12.4746   26.3956 C   0  0  0  0  0  0  0  0  0  0  0  0
    7.8268  -13.3709   26.7982 C   0  0  0  0  0  0  0  0  0  0  0  0
   10.6789  -16.8833   26.5504 C   0  0  0  0  0  0  0  0  0  0  0  0
   10.8200  -18.0910   25.9057 O   0  0  0  0  0  0  0  0  0  0  0  0
   11.4391  -16.6229   27.5084 O   0  0  0  0  0  0  0  0  0  0  0  0
  2  1  1  1
  3  4  1  0
  3  2  1  0
  4  5  2  0
  5  6  1  0
  7  6  2  0
  8  7  1  0
  9  8  2  0
  9  4  1  0
 10  2  1  0
 10 11  2  0
 12 13  1  0
 13 14  1  0
 16 15  1  1
 15 14  1  0
 16 17  1  0
 17 10  1  0
 18 16  1  0
 19 18  2  0
 20 18  1  0
 21 22  1  1
 21 20  1  0
 22 23  1  0
 23 28  1  0
 24 23  2  0
 24 25  1  0
 25 26  2  0
 26 27  1  0
 28 27  2  0
 29 30  1  0
 29 21  1  0
 31 29  2  0
M  END
$$$$
