FMF.pdb
     RDKit          3D

 31 32  0  0  1  0  0  0  0  0999 V2000
    5.4308  -18.8379   24.0228 N   0  0  0  0  0  0  0  0  0  0  0  0
    6.1124  -17.6288   24.4900 C   0  0  1  0  0  0  0  0  0  0  0  0
    6.4792  -17.7839   25.9517 C   0  0  0  0  0  0  0  0  0  0  0  0
    7.1951  -16.5594   26.3718 C   0  0  0  0  0  0  0  0  0  0  0  0
    8.5071  -16.5661   26.7914 C   0  0  0  0  0  0  0  0  0  0  0  0
    9.1419  -15.3968   27.1772 C   0  0  0  0  0  0  0  0  0  0  0  0
    8.4455  -14.1948   27.1412 C   0  0  0  0  0  0  0  0  0  0  0  0
    7.1403  -14.1724   26.7262 C   0  0  0  0  0  0  0  0  0  0  0  0
    6.5294  -15.3352   26.3492 C   0  0  0  0  0  0  0  0  0  0  0  0
    7.3011  -17.3944   23.6428 C   0  0  0  0  0  0  0  0  0  0  0  0
    8.0022  -18.3714   23.3005 O   0  0  0  0  0  0  0  0  0  0  0  0
    6.9157  -12.4098   20.0453 C   0  0  0  0  0  0  0  0  0  0  0  0
    8.7274  -12.5140   19.8697 S   0  0  0  0  0  0  0  0  0  0  0  0
    9.2679  -14.1680   20.4237 C   0  0  0  0  0  0  0  0  0  0  0  0
    8.3383  -14.6286   21.4967 C   0  0  0  0  0  0  0  0  0  0  0  0
    8.6873  -15.9426   22.1363 C   0  0  2  0  0  0  0  0  0  0  0  0
    7.6744  -16.1051   23.2051 N   0  0  0  0  0  0  0  0  0  0  0  0
    9.9925  -15.9888   22.8003 C   0  0  0  0  0  0  0  0  0  0  0  0
   11.0790  -15.9864   22.1127 O   0  0  0  0  0  0  0  0  0  0  0  0
   10.2205  -16.0371   24.2043 N   0  0  0  0  0  0  0  0  0  0  0  0
   11.5547  -16.2144   24.7809 C   0  0  1  0  0  0  0  0  0  0  0  0
   12.0754  -14.9501   25.3564 C   0  0  0  0  0  0  0  0  0  0  0  0
   11.1290  -14.3843   26.3296 C   0  0  0  0  0  0  0  0  0  0  0  0
   11.1438  -14.7363   27.6603 C   0  0  0  0  0  0  0  0  0  0  0  0
   10.2570  -14.1975   28.5764 C   0  0  0  0  0  0  0  0  0  0  0  0
    9.3046  -13.2676   28.1805 C   0  0  0  0  0  0  0  0  0  0  0  0
    9.2818  -12.9115   26.8593 C   0  0  0  0  0  0  0  0  0  0  0  0
   10.1607  -13.4465   25.9563 C   0  0  0  0  0  0  0  0  0  0  0  0
   11.4455  -17.2554   25.8016 C   0  0  0  0  0  0  0  0  0  0  0  0
   10.2403  -17.8835   26.0187 O   0  0  0  0  0  0  0  0  0  0  0  0
   12.4305  -17.5925   26.4941 O   0  0  0  0  0  0  0  0  0  0  0  0
  2  1  1  6
  3  4  1  0
  3  2  1  0
  4  5  2  0
  5  6  1  0
  7  6  2  0
  8  7  1  0
  9  8  2  0
  9  4  1  0
 10  2  1  0
 10 11  2  0
 12 13  1  0
 13 14  1  0
 16 15  1  1
 15 14  1  0
 16 17  1  0
 17 10  1  0
 18 16  1  0
 19 18  2  0
 20 18  1  0
 21 22  1  1
 21 20  1  0
 22 23  1  0
 23 28  1  0
 24 23  2  0
 24 25  1  0
 25 26  2  0
 26 27  1  0
 28 27  2  0
 29 30  1  0
 29 21  1  0
 31 29  2  0
M  END
$$$$
