FMF.pdb
     RDKit          3D

 31 32  0  0  1  0  0  0  0  0999 V2000
    6.8307  -18.3325   20.9892 N   0  0  0  0  0  0  0  0  0  0  0  0
    7.3569  -16.9977   21.2827 C   0  0  1  0  0  0  0  0  0  0  0  0
    6.2206  -16.0800   21.6852 C   0  0  0  0  0  0  0  0  0  0  0  0
    6.7396  -14.6947   21.6981 C   0  0  0  0  0  0  0  0  0  0  0  0
    7.1153  -14.0256   20.5541 C   0  0  0  0  0  0  0  0  0  0  0  0
    7.5971  -12.7279   20.6087 C   0  0  0  0  0  0  0  0  0  0  0  0
    7.7045  -12.0878   21.8374 C   0  0  0  0  0  0  0  0  0  0  0  0
    7.3348  -12.7404   22.9836 C   0  0  0  0  0  0  0  0  0  0  0  0
    6.8615  -14.0203   22.9115 C   0  0  0  0  0  0  0  0  0  0  0  0
    8.3793  -17.1113   22.3444 C   0  0  0  0  0  0  0  0  0  0  0  0
    8.1563  -17.8589   23.3216 O   0  0  0  0  0  0  0  0  0  0  0  0
   16.1300  -15.9398   23.1785 C   0  0  0  0  0  0  0  0  0  0  0  0
   14.5295  -15.4793   22.4368 S   0  0  0  0  0  0  0  0  0  0  0  0
   13.2053  -16.3818   23.3124 C   0  0  0  0  0  0  0  0  0  0  0  0
   11.9143  -16.1114   22.6139 C   0  0  0  0  0  0  0  0  0  0  0  0
   10.6994  -16.7459   23.2293 C   0  0  2  0  0  0  0  0  0  0  0  0
    9.6009  -16.4052   22.2953 N   0  0  0  0  0  0  0  0  0  0  0  0
   10.3062  -16.2099   24.5349 C   0  0  0  0  0  0  0  0  0  0  0  0
    9.8634  -15.0078   24.6444 O   0  0  0  0  0  0  0  0  0  0  0  0
   10.3554  -16.9021   25.7776 N   0  0  0  0  0  0  0  0  0  0  0  0
   10.0507  -16.2531   27.0542 C   0  0  1  0  0  0  0  0  0  0  0  0
    8.5900  -16.0774   27.2447 C   0  0  0  0  0  0  0  0  0  0  0  0
    8.1687  -14.7192   26.8695 C   0  0  0  0  0  0  0  0  0  0  0  0
    7.0768  -14.4836   26.0649 C   0  0  0  0  0  0  0  0  0  0  0  0
    6.6774  -13.2044   25.7186 C   0  0  0  0  0  0  0  0  0  0  0  0
    7.3745  -12.0942   26.1769 C   0  0  0  0  0  0  0  0  0  0  0  0
    8.4617  -12.3183   26.9773 C   0  0  0  0  0  0  0  0  0  0  0  0
    8.8536  -13.5850   27.3178 C   0  0  0  0  0  0  0  0  0  0  0  0
   10.6254  -17.0884   28.1075 C   0  0  0  0  0  0  0  0  0  0  0  0
   10.7038  -16.6141   29.3970 O   0  0  0  0  0  0  0  0  0  0  0  0
   11.0564  -18.2366   27.8639 O   0  0  0  0  0  0  0  0  0  0  0  0
  2  1  1  1
  3  4  1  0
  3  2  1  0
  4  5  2  0
  5  6  1  0
  7  6  2  0
  8  7  1  0
  9  8  2  0
  9  4  1  0
 10  2  1  0
 10 11  2  0
 12 13  1  0
 13 14  1  0
 16 15  1  6
 15 14  1  0
 16 17  1  0
 17 10  1  0
 18 16  1  0
 19 18  2  0
 20 18  1  0
 21 22  1  1
 21 20  1  0
 22 23  1  0
 23 28  1  0
 24 23  2  0
 24 25  1  0
 25 26  2  0
 26 27  1  0
 28 27  2  0
 29 30  1  0
 29 21  1  0
 31 29  2  0
M  END
$$$$
