FMF.pdb
     RDKit          3D

 31 32  0  0  1  0  0  0  0  0999 V2000
    6.3796  -19.5922   22.0824 N   0  0  0  0  0  0  0  0  0  0  0  0
    6.4075  -18.1668   22.4173 C   0  0  1  0  0  0  0  0  0  0  0  0
    5.8812  -17.9640   23.8234 C   0  0  0  0  0  0  0  0  0  0  0  0
    5.6001  -16.5222   23.9986 C   0  0  0  0  0  0  0  0  0  0  0  0
    5.5286  -15.6400   22.9432 C   0  0  0  0  0  0  0  0  0  0  0  0
    5.2632  -14.2961   23.1495 C   0  0  0  0  0  0  0  0  0  0  0  0
    5.0651  -13.8272   24.4425 C   0  0  0  0  0  0  0  0  0  0  0  0
    5.1331  -14.6926   25.5022 C   0  0  0  0  0  0  0  0  0  0  0  0
    5.3960  -16.0152   25.2806 C   0  0  0  0  0  0  0  0  0  0  0  0
    7.7914  -17.6690   22.2671 C   0  0  0  0  0  0  0  0  0  0  0  0
    8.7390  -18.3932   22.6426 O   0  0  0  0  0  0  0  0  0  0  0  0
    8.3778  -11.7565   20.1162 C   0  0  0  0  0  0  0  0  0  0  0  0
    8.3738  -13.0224   18.8042 S   0  0  0  0  0  0  0  0  0  0  0  0
    8.3021  -14.6693   19.5898 C   0  0  0  0  0  0  0  0  0  0  0  0
    9.3484  -14.7264   20.6526 C   0  0  0  0  0  0  0  0  0  0  0  0
    9.4770  -16.0428   21.3653 C   0  0  2  0  0  0  0  0  0  0  0  0
    8.0829  -16.4032   21.7140 N   0  0  0  0  0  0  0  0  0  0  0  0
   10.2163  -16.0011   22.6295 C   0  0  0  0  0  0  0  0  0  0  0  0
   11.4939  -15.8562   22.6381 O   0  0  0  0  0  0  0  0  0  0  0  0
    9.6576  -16.1060   23.9343 N   0  0  0  0  0  0  0  0  0  0  0  0
   10.4230  -15.8069   25.1462 C   0  0  1  0  0  0  0  0  0  0  0  0
    9.5503  -15.3035   26.2351 C   0  0  0  0  0  0  0  0  0  0  0  0
   10.3305  -15.0252   27.4504 C   0  0  0  0  0  0  0  0  0  0  0  0
   10.7673  -16.0254   28.2893 C   0  0  0  0  0  0  0  0  0  0  0  0
   11.5076  -15.7623   29.4288 C   0  0  0  0  0  0  0  0  0  0  0  0
   11.8421  -14.4592   29.7733 C   0  0  0  0  0  0  0  0  0  0  0  0
   11.4121  -13.4578   28.9455 C   0  0  0  0  0  0  0  0  0  0  0  0
   10.6801  -13.7220   27.8192 C   0  0  0  0  0  0  0  0  0  0  0  0
   11.1023  -17.0403   25.5393 C   0  0  0  0  0  0  0  0  0  0  0  0
   12.3894  -16.9933   26.0245 O   0  0  0  0  0  0  0  0  0  0  0  0
   10.5385  -18.1522   25.4421 O   0  0  0  0  0  0  0  0  0  0  0  0
  2  1  1  1
  3  4  1  0
  3  2  1  0
  4  5  2  0
  5  6  1  0
  7  6  2  0
  8  7  1  0
  9  8  2  0
  9  4  1  0
 10  2  1  0
 10 11  2  0
 12 13  1  0
 13 14  1  0
 16 15  1  1
 15 14  1  0
 16 17  1  0
 17 10  1  0
 18 16  1  0
 19 18  2  0
 20 18  1  0
 21 22  1  1
 21 20  1  0
 22 23  1  0
 23 28  1  0
 24 23  2  0
 24 25  1  0
 25 26  2  0
 26 27  1  0
 28 27  2  0
 29 30  1  0
 29 21  1  0
 31 29  2  0
M  END
$$$$
