FMF.pdb
     RDKit          3D

 31 32  0  0  1  0  0  0  0  0999 V2000
    5.7034  -20.3025   21.3711 N   0  0  0  0  0  0  0  0  0  0  0  0
    5.6220  -18.8541   21.1701 C   0  0  1  0  0  0  0  0  0  0  0  0
    4.6659  -18.2532   22.1802 C   0  0  0  0  0  0  0  0  0  0  0  0
    3.3151  -18.7863   21.8985 C   0  0  0  0  0  0  0  0  0  0  0  0
    2.5871  -19.5056   22.8206 C   0  0  0  0  0  0  0  0  0  0  0  0
    1.3244  -19.9882   22.5176 C   0  0  0  0  0  0  0  0  0  0  0  0
    0.7803  -19.7440   21.2624 C   0  0  0  0  0  0  0  0  0  0  0  0
    1.4923  -19.0302   20.3350 C   0  0  0  0  0  0  0  0  0  0  0  0
    2.7366  -18.5615   20.6507 C   0  0  0  0  0  0  0  0  0  0  0  0
    6.9797  -18.2802   21.2835 C   0  0  0  0  0  0  0  0  0  0  0  0
    7.8868  -18.9696   21.7986 O   0  0  0  0  0  0  0  0  0  0  0  0
    9.2363  -11.7478   19.7674 C   0  0  0  0  0  0  0  0  0  0  0  0
    7.7969  -12.7794   19.3340 S   0  0  0  0  0  0  0  0  0  0  0  0
    7.7051  -14.1694   20.5148 C   0  0  0  0  0  0  0  0  0  0  0  0
    8.6621  -15.2248   20.0700 C   0  0  0  0  0  0  0  0  0  0  0  0
    8.6812  -16.4749   20.9033 C   0  0  2  0  0  0  0  0  0  0  0  0
    7.2903  -16.9797   20.8304 N   0  0  0  0  0  0  0  0  0  0  0  0
    8.9689  -16.2750   22.3260 C   0  0  0  0  0  0  0  0  0  0  0  0
   10.0332  -15.6578   22.6998 O   0  0  0  0  0  0  0  0  0  0  0  0
    8.1617  -16.7062   23.4159 N   0  0  0  0  0  0  0  0  0  0  0  0
    7.9943  -15.9133   24.6353 C   0  0  1  0  0  0  0  0  0  0  0  0
    7.4310  -14.5721   24.3438 C   0  0  0  0  0  0  0  0  0  0  0  0
    7.1973  -13.8172   25.5841 C   0  0  0  0  0  0  0  0  0  0  0  0
    8.1933  -13.5925   26.5074 C   0  0  0  0  0  0  0  0  0  0  0  0
    7.9735  -12.8756   27.6708 C   0  0  0  0  0  0  0  0  0  0  0  0
    6.7203  -12.3485   27.9541 C   0  0  0  0  0  0  0  0  0  0  0  0
    5.7234  -12.5668   27.0422 C   0  0  0  0  0  0  0  0  0  0  0  0
    5.9448  -13.2763   25.8926 C   0  0  0  0  0  0  0  0  0  0  0  0
    7.1177  -16.6740   25.5242 C   0  0  0  0  0  0  0  0  0  0  0  0
    6.4156  -17.7543   25.0402 O   0  0  0  0  0  0  0  0  0  0  0  0
    6.9846  -16.3631   26.7280 O   0  0  0  0  0  0  0  0  0  0  0  0
  2  1  1  1
  3  4  1  0
  3  2  1  0
  4  5  2  0
  5  6  1  0
  7  6  2  0
  8  7  1  0
  9  8  2  0
  9  4  1  0
 10  2  1  0
 10 11  2  0
 12 13  1  0
 13 14  1  0
 16 15  1  6
 15 14  1  0
 16 17  1  0
 17 10  1  0
 18 16  1  0
 19 18  2  0
 20 18  1  0
 21 22  1  6
 21 20  1  0
 22 23  1  0
 23 28  1  0
 24 23  2  0
 24 25  1  0
 25 26  2  0
 26 27  1  0
 28 27  2  0
 29 30  1  0
 29 21  1  0
 31 29  2  0
M  END
$$$$
