FMF.pdb
     RDKit          3D

 31 32  0  0  1  0  0  0  0  0999 V2000
    7.1315  -20.2564   20.6901 N   0  0  0  0  0  0  0  0  0  0  0  0
    7.0379  -19.3770   21.8575 C   0  0  1  0  0  0  0  0  0  0  0  0
    7.1983  -20.1932   23.1237 C   0  0  0  0  0  0  0  0  0  0  0  0
    7.2411  -19.2541   24.2659 C   0  0  0  0  0  0  0  0  0  0  0  0
    8.2873  -19.2114   25.1609 C   0  0  0  0  0  0  0  0  0  0  0  0
    8.2893  -18.3166   26.2185 C   0  0  0  0  0  0  0  0  0  0  0  0
    7.2186  -17.4459   26.3817 C   0  0  0  0  0  0  0  0  0  0  0  0
    6.1710  -17.4768   25.4997 C   0  0  0  0  0  0  0  0  0  0  0  0
    6.1853  -18.3659   24.4620 C   0  0  0  0  0  0  0  0  0  0  0  0
    8.0685  -18.3231   21.7440 C   0  0  0  0  0  0  0  0  0  0  0  0
    9.2485  -18.6549   21.4969 O   0  0  0  0  0  0  0  0  0  0  0  0
    6.7490  -12.8855   19.0460 C   0  0  0  0  0  0  0  0  0  0  0  0
    7.7711  -12.1743   20.3776 S   0  0  0  0  0  0  0  0  0  0  0  0
    8.8693  -13.4819   21.0249 C   0  0  0  0  0  0  0  0  0  0  0  0
    8.0487  -14.7054   21.2644 C   0  0  0  0  0  0  0  0  0  0  0  0
    8.8151  -15.9277   21.6839 C   0  0  2  0  0  0  0  0  0  0  0  0
    7.7686  -16.9529   21.9046 N   0  0  0  0  0  0  0  0  0  0  0  0
    9.5420  -15.8071   22.9503 C   0  0  0  0  0  0  0  0  0  0  0  0
   10.6151  -15.1029   23.0265 O   0  0  0  0  0  0  0  0  0  0  0  0
    9.1817  -16.4114   24.1876 N   0  0  0  0  0  0  0  0  0  0  0  0
    9.7607  -15.9952   25.4664 C   0  0  1  0  0  0  0  0  0  0  0  0
    8.7165  -15.7931   26.5007 C   0  0  0  0  0  0  0  0  0  0  0  0
    8.0394  -14.5000   26.3211 C   0  0  0  0  0  0  0  0  0  0  0  0
    8.5961  -13.3133   26.7414 C   0  0  0  0  0  0  0  0  0  0  0  0
    7.9607  -12.0964   26.5651 C   0  0  0  0  0  0  0  0  0  0  0  0
    6.7185  -12.0267   25.9482 C   0  0  0  0  0  0  0  0  0  0  0  0
    6.1566  -13.2014   25.5270 C   0  0  0  0  0  0  0  0  0  0  0  0
    6.7883  -14.4031   25.7031 C   0  0  0  0  0  0  0  0  0  0  0  0
   10.7080  -17.0344   25.8663 C   0  0  0  0  0  0  0  0  0  0  0  0
   10.8940  -18.1407   25.0690 O   0  0  0  0  0  0  0  0  0  0  0  0
   11.3602  -16.9453   26.9294 O   0  0  0  0  0  0  0  0  0  0  0  0
  2  1  1  6
  3  4  1  0
  3  2  1  0
  4  5  2  0
  5  6  1  0
  7  6  2  0
  8  7  1  0
  9  8  2  0
  9  4  1  0
 10  2  1  0
 10 11  2  0
 12 13  1  0
 13 14  1  0
 16 15  1  1
 15 14  1  0
 16 17  1  0
 17 10  1  0
 18 16  1  0
 19 18  2  0
 20 18  1  0
 21 22  1  1
 21 20  1  0
 22 23  1  0
 23 28  1  0
 24 23  2  0
 24 25  1  0
 25 26  2  0
 26 27  1  0
 28 27  2  0
 29 30  1  0
 29 21  1  0
 31 29  2  0
M  END
$$$$
