FMF.pdb
     RDKit          3D

 31 32  0  0  1  0  0  0  0  0999 V2000
    7.0238  -20.6686   21.0754 N   0  0  0  0  0  0  0  0  0  0  0  0
    6.9398  -19.5643   22.0336 C   0  0  1  0  0  0  0  0  0  0  0  0
    7.0072  -20.1094   23.4455 C   0  0  0  0  0  0  0  0  0  0  0  0
    6.9265  -18.9637   24.3780 C   0  0  0  0  0  0  0  0  0  0  0  0
    7.8663  -18.7279   25.3571 C   0  0  0  0  0  0  0  0  0  0  0  0
    7.7543  -17.6431   26.2113 C   0  0  0  0  0  0  0  0  0  0  0  0
    6.6762  -16.7761   26.0804 C   0  0  0  0  0  0  0  0  0  0  0  0
    5.7337  -16.9976   25.1114 C   0  0  0  0  0  0  0  0  0  0  0  0
    5.8596  -18.0727   24.2773 C   0  0  0  0  0  0  0  0  0  0  0  0
    8.0331  -18.6086   21.7563 C   0  0  0  0  0  0  0  0  0  0  0  0
    9.1818  -19.0507   21.5362 O   0  0  0  0  0  0  0  0  0  0  0  0
    6.5250  -12.5777   20.6188 C   0  0  0  0  0  0  0  0  0  0  0  0
    8.0310  -12.6785   19.5962 S   0  0  0  0  0  0  0  0  0  0  0  0
    9.0930  -14.0075   20.2601 C   0  0  0  0  0  0  0  0  0  0  0  0
    8.2118  -15.0877   20.7933 C   0  0  0  0  0  0  0  0  0  0  0  0
    8.9221  -16.3024   21.3199 C   0  0  2  0  0  0  0  0  0  0  0  0
    7.8273  -17.2121   21.7308 N   0  0  0  0  0  0  0  0  0  0  0  0
    9.7393  -16.0809   22.5157 C   0  0  0  0  0  0  0  0  0  0  0  0
   10.7493  -15.2859   22.4822 O   0  0  0  0  0  0  0  0  0  0  0  0
    9.5384  -16.6747   23.7934 N   0  0  0  0  0  0  0  0  0  0  0  0
   10.0021  -16.0512   25.0344 C   0  0  1  0  0  0  0  0  0  0  0  0
    8.9090  -15.9341   26.0305 C   0  0  0  0  0  0  0  0  0  0  0  0
    8.2463  -14.6246   25.9349 C   0  0  0  0  0  0  0  0  0  0  0  0
    7.5106  -14.2511   24.8330 C   0  0  0  0  0  0  0  0  0  0  0  0
    6.8815  -13.0212   24.7477 C   0  0  0  0  0  0  0  0  0  0  0  0
    6.9709  -12.1041   25.7867 C   0  0  0  0  0  0  0  0  0  0  0  0
    7.7005  -12.4663   26.8866 C   0  0  0  0  0  0  0  0  0  0  0  0
    8.3211  -13.6839   26.9673 C   0  0  0  0  0  0  0  0  0  0  0  0
   11.0973  -16.8745   25.5443 C   0  0  0  0  0  0  0  0  0  0  0  0
   11.4805  -18.0086   24.8652 O   0  0  0  0  0  0  0  0  0  0  0  0
   11.7011  -16.5734   26.5971 O   0  0  0  0  0  0  0  0  0  0  0  0
  2  1  1  6
  3  4  1  0
  3  2  1  0
  4  5  2  0
  5  6  1  0
  7  6  2  0
  8  7  1  0
  9  8  2  0
  9  4  1  0
 10  2  1  0
 10 11  2  0
 12 13  1  0
 13 14  1  0
 16 15  1  1
 15 14  1  0
 16 17  1  0
 17 10  1  0
 18 16  1  0
 19 18  2  0
 20 18  1  0
 21 22  1  1
 21 20  1  0
 22 23  1  0
 23 28  1  0
 24 23  2  0
 24 25  1  0
 25 26  2  0
 26 27  1  0
 28 27  2  0
 29 30  1  0
 29 21  1  0
 31 29  2  0
M  END
$$$$
