FMF.pdb
     RDKit          3D

 31 32  0  0  1  0  0  0  0  0999 V2000
    7.8918  -17.5900   18.1934 N   0  0  0  0  0  0  0  0  0  0  0  0
    8.2025  -16.4880   19.1066 C   0  0  1  0  0  0  0  0  0  0  0  0
    7.0901  -15.4604   19.0610 C   0  0  0  0  0  0  0  0  0  0  0  0
    7.4139  -14.3983   20.0385 C   0  0  0  0  0  0  0  0  0  0  0  0
    8.1498  -13.2804   19.7127 C   0  0  0  0  0  0  0  0  0  0  0  0
    8.4320  -12.3078   20.6580 C   0  0  0  0  0  0  0  0  0  0  0  0
    7.9659  -12.4601   21.9583 C   0  0  0  0  0  0  0  0  0  0  0  0
    7.2328  -13.5665   22.2972 C   0  0  0  0  0  0  0  0  0  0  0  0
    6.9637  -14.5162   21.3522 C   0  0  0  0  0  0  0  0  0  0  0  0
    8.3949  -17.0355   20.4662 C   0  0  0  0  0  0  0  0  0  0  0  0
    7.7875  -18.0796   20.7895 O   0  0  0  0  0  0  0  0  0  0  0  0
   12.8409  -21.4833   23.6252 C   0  0  0  0  0  0  0  0  0  0  0  0
   11.9314  -20.5397   22.3578 S   0  0  0  0  0  0  0  0  0  0  0  0
   10.9776  -19.2236   23.1903 C   0  0  0  0  0  0  0  0  0  0  0  0
   10.3511  -18.3658   22.1419 C   0  0  0  0  0  0  0  0  0  0  0  0
    9.6333  -17.1461   22.6464 C   0  0  2  0  0  0  0  0  0  0  0  0
    9.2412  -16.4217   21.4150 N   0  0  0  0  0  0  0  0  0  0  0  0
   10.4530  -16.2141   23.4249 C   0  0  0  0  0  0  0  0  0  0  0  0
   11.7352  -16.3109   23.4256 O   0  0  0  0  0  0  0  0  0  0  0  0
    9.9735  -15.1439   24.2313 N   0  0  0  0  0  0  0  0  0  0  0  0
    9.6041  -15.3202   25.6372 C   0  0  1  0  0  0  0  0  0  0  0  0
    8.1320  -15.3649   25.8155 C   0  0  0  0  0  0  0  0  0  0  0  0
    7.5892  -14.0200   26.0599 C   0  0  0  0  0  0  0  0  0  0  0  0
    8.3929  -12.9051   26.1372 C   0  0  0  0  0  0  0  0  0  0  0  0
    7.8798  -11.6392   26.3601 C   0  0  0  0  0  0  0  0  0  0  0  0
    6.5137  -11.4440   26.5168 C   0  0  0  0  0  0  0  0  0  0  0  0
    5.7064  -12.5466   26.4418 C   0  0  0  0  0  0  0  0  0  0  0  0
    6.2178  -13.7971   26.2210 C   0  0  0  0  0  0  0  0  0  0  0  0
   10.2305  -16.5601   26.0926 C   0  0  0  0  0  0  0  0  0  0  0  0
   11.0164  -17.2916   25.2314 O   0  0  0  0  0  0  0  0  0  0  0  0
   10.0664  -16.9812   27.2584 O   0  0  0  0  0  0  0  0  0  0  0  0
  2  1  1  6
  3  4  1  0
  3  2  1  0
  4  5  2  0
  5  6  1  0
  7  6  2  0
  8  7  1  0
  9  8  2  0
  9  4  1  0
 10  2  1  0
 10 11  2  0
 12 13  1  0
 13 14  1  0
 16 15  1  6
 15 14  1  0
 16 17  1  0
 17 10  1  0
 18 16  1  0
 19 18  2  0
 20 18  1  0
 21 22  1  6
 21 20  1  0
 22 23  1  0
 23 28  1  0
 24 23  2  0
 24 25  1  0
 25 26  2  0
 26 27  1  0
 28 27  2  0
 29 30  1  0
 29 21  1  0
 31 29  2  0
M  END
$$$$
