FMF.pdb
     RDKit          3D

 31 32  0  0  1  0  0  0  0  0999 V2000
    9.9218  -16.3378   19.8797 N   0  0  0  0  0  0  0  0  0  0  0  0
    9.1368  -16.8417   21.0087 C   0  0  1  0  0  0  0  0  0  0  0  0
    9.4556  -18.3051   21.2372 C   0  0  0  0  0  0  0  0  0  0  0  0
    8.5694  -19.1040   20.3626 C   0  0  0  0  0  0  0  0  0  0  0  0
    8.8977  -19.4349   19.0663 C   0  0  0  0  0  0  0  0  0  0  0  0
    8.0395  -20.1851   18.2791 C   0  0  0  0  0  0  0  0  0  0  0  0
    6.8257  -20.6126   18.8037 C   0  0  0  0  0  0  0  0  0  0  0  0
    6.4855  -20.2913   20.0911 C   0  0  0  0  0  0  0  0  0  0  0  0
    7.3440  -19.5504   20.8536 C   0  0  0  0  0  0  0  0  0  0  0  0
    9.4326  -16.0181   22.2001 C   0  0  0  0  0  0  0  0  0  0  0  0
   10.5971  -15.5950   22.3691 O   0  0  0  0  0  0  0  0  0  0  0  0
    5.8948  -11.6107   27.6840 C   0  0  0  0  0  0  0  0  0  0  0  0
    5.8671  -12.6203   26.1662 S   0  0  0  0  0  0  0  0  0  0  0  0
    7.5126  -13.3817   25.9479 C   0  0  0  0  0  0  0  0  0  0  0  0
    7.5014  -14.1628   24.6762 C   0  0  0  0  0  0  0  0  0  0  0  0
    8.7903  -14.8516   24.3275 C   0  0  2  0  0  0  0  0  0  0  0  0
    8.4466  -15.6910   23.1561 N   0  0  0  0  0  0  0  0  0  0  0  0
    9.3074  -15.7668   25.3480 C   0  0  0  0  0  0  0  0  0  0  0  0
    8.7256  -16.8903   25.5773 O   0  0  0  0  0  0  0  0  0  0  0  0
   10.4501  -15.5521   26.1689 N   0  0  0  0  0  0  0  0  0  0  0  0
   10.9054  -16.5308   27.1582 C   0  0  1  0  0  0  0  0  0  0  0  0
   12.3452  -16.8478   26.9930 C   0  0  0  0  0  0  0  0  0  0  0  0
   12.6072  -17.4379   25.6716 C   0  0  0  0  0  0  0  0  0  0  0  0
   12.3203  -18.7529   25.3831 C   0  0  0  0  0  0  0  0  0  0  0  0
   12.5608  -19.3048   24.1368 C   0  0  0  0  0  0  0  0  0  0  0  0
   13.1094  -18.5403   23.1154 C   0  0  0  0  0  0  0  0  0  0  0  0
   13.3984  -17.2316   23.3927 C   0  0  0  0  0  0  0  0  0  0  0  0
   13.1588  -16.6893   24.6266 C   0  0  0  0  0  0  0  0  0  0  0  0
   10.6363  -15.9629   28.4781 C   0  0  0  0  0  0  0  0  0  0  0  0
   10.0145  -14.7399   28.5881 O   0  0  0  0  0  0  0  0  0  0  0  0
   10.9633  -16.5652   29.5239 O   0  0  0  0  0  0  0  0  0  0  0  0
  2  1  1  6
  3  4  1  0
  3  2  1  0
  4  5  2  0
  5  6  1  0
  7  6  2  0
  8  7  1  0
  9  8  2  0
  9  4  1  0
 10  2  1  0
 10 11  2  0
 12 13  1  0
 13 14  1  0
 16 15  1  1
 15 14  1  0
 16 17  1  0
 17 10  1  0
 18 16  1  0
 19 18  2  0
 20 18  1  0
 21 22  1  1
 21 20  1  0
 22 23  1  0
 23 28  1  0
 24 23  2  0
 24 25  1  0
 25 26  2  0
 26 27  1  0
 28 27  2  0
 29 30  1  0
 29 21  1  0
 31 29  2  0
M  END
$$$$
