FMF.pdb
     RDKit          3D

 31 32  0  0  1  0  0  0  0  0999 V2000
    8.9150  -18.6936   19.6992 N   0  0  0  0  0  0  0  0  0  0  0  0
    8.1864  -18.3570   20.9242 C   0  0  1  0  0  0  0  0  0  0  0  0
    8.1086  -19.5756   21.8211 C   0  0  0  0  0  0  0  0  0  0  0  0
    9.4084  -20.2780   21.7450 C   0  0  0  0  0  0  0  0  0  0  0  0
    9.9600  -20.7049   20.5572 C   0  0  0  0  0  0  0  0  0  0  0  0
   11.1803  -21.3599   20.5285 C   0  0  0  0  0  0  0  0  0  0  0  0
   11.8619  -21.5917   21.7171 C   0  0  0  0  0  0  0  0  0  0  0  0
   11.3259  -21.1730   22.9062 C   0  0  0  0  0  0  0  0  0  0  0  0
   10.1210  -20.5283   22.9162 C   0  0  0  0  0  0  0  0  0  0  0  0
    8.8667  -17.2242   21.5872 C   0  0  0  0  0  0  0  0  0  0  0  0
   10.0340  -16.9351   21.2446 O   0  0  0  0  0  0  0  0  0  0  0  0
    6.6554  -12.5086   26.6988 C   0  0  0  0  0  0  0  0  0  0  0  0
    6.7057  -12.2696   24.8922 S   0  0  0  0  0  0  0  0  0  0  0  0
    8.2017  -13.0904   24.2417 C   0  0  0  0  0  0  0  0  0  0  0  0
    7.7974  -14.4007   23.6525 C   0  0  0  0  0  0  0  0  0  0  0  0
    8.9225  -15.2584   23.1466 C   0  0  2  0  0  0  0  0  0  0  0  0
    8.2454  -16.4552   22.5951 N   0  0  0  0  0  0  0  0  0  0  0  0
    9.8466  -15.7486   24.1725 C   0  0  0  0  0  0  0  0  0  0  0  0
   10.8321  -15.0238   24.5682 O   0  0  0  0  0  0  0  0  0  0  0  0
    9.7820  -17.0096   24.8291 N   0  0  0  0  0  0  0  0  0  0  0  0
   10.6161  -17.3397   25.9863 C   0  0  1  0  0  0  0  0  0  0  0  0
    9.8388  -17.3061   27.2495 C   0  0  0  0  0  0  0  0  0  0  0  0
    9.7109  -15.9305   27.7538 C   0  0  0  0  0  0  0  0  0  0  0  0
   10.7654  -15.2560   28.3268 C   0  0  0  0  0  0  0  0  0  0  0  0
   10.6453  -13.9588   28.7943 C   0  0  0  0  0  0  0  0  0  0  0  0
    9.4377  -13.2793   28.7014 C   0  0  0  0  0  0  0  0  0  0  0  0
    8.3833  -13.9417   28.1334 C   0  0  0  0  0  0  0  0  0  0  0  0
    8.5061  -15.2247   27.6720 C   0  0  0  0  0  0  0  0  0  0  0  0
   11.1774  -18.6679   25.7451 C   0  0  0  0  0  0  0  0  0  0  0  0
   12.0402  -19.2276   26.6597 O   0  0  0  0  0  0  0  0  0  0  0  0
   10.8932  -19.3163   24.7145 O   0  0  0  0  0  0  0  0  0  0  0  0
  2  1  1  6
  3  4  1  0
  3  2  1  0
  4  5  2  0
  5  6  1  0
  7  6  2  0
  8  7  1  0
  9  8  2  0
  9  4  1  0
 10  2  1  0
 10 11  2  0
 12 13  1  0
 13 14  1  0
 16 15  1  1
 15 14  1  0
 16 17  1  0
 17 10  1  0
 18 16  1  0
 19 18  2  0
 20 18  1  0
 21 22  1  1
 21 20  1  0
 22 23  1  0
 23 28  1  0
 24 23  2  0
 24 25  1  0
 25 26  2  0
 26 27  1  0
 28 27  2  0
 29 30  1  0
 29 21  1  0
 31 29  2  0
M  END
$$$$
