FMF.pdb
     RDKit          3D

 31 32  0  0  1  0  0  0  0  0999 V2000
    6.2056  -19.8543   21.1048 N   0  0  0  0  0  0  0  0  0  0  0  0
    5.8147  -18.4625   21.3388 C   0  0  1  0  0  0  0  0  0  0  0  0
    5.1402  -18.3437   22.6902 C   0  0  0  0  0  0  0  0  0  0  0  0
    3.7699  -18.8862   22.5620 C   0  0  0  0  0  0  0  0  0  0  0  0
    2.8541  -18.3998   21.6552 C   0  0  0  0  0  0  0  0  0  0  0  0
    1.5797  -18.9355   21.5665 C   0  0  0  0  0  0  0  0  0  0  0  0
    1.2161  -19.9818   22.4056 C   0  0  0  0  0  0  0  0  0  0  0  0
    2.1159  -20.4761   23.3125 C   0  0  0  0  0  0  0  0  0  0  0  0
    3.3689  -19.9358   23.3866 C   0  0  0  0  0  0  0  0  0  0  0  0
    7.0168  -17.6073   21.2431 C   0  0  0  0  0  0  0  0  0  0  0  0
    8.1286  -18.1460   21.0501 O   0  0  0  0  0  0  0  0  0  0  0  0
    8.9108  -11.3877   19.6330 C   0  0  0  0  0  0  0  0  0  0  0  0
    8.3345  -12.7999   18.6343 S   0  0  0  0  0  0  0  0  0  0  0  0
    7.0871  -13.7201   19.5997 C   0  0  0  0  0  0  0  0  0  0  0  0
    7.6509  -13.9905   20.9549 C   0  0  0  0  0  0  0  0  0  0  0  0
    8.1747  -15.3817   21.1731 C   0  0  2  0  0  0  0  0  0  0  0  0
    6.9554  -16.2019   21.3618 N   0  0  0  0  0  0  0  0  0  0  0  0
    8.9811  -15.5649   22.3825 C   0  0  0  0  0  0  0  0  0  0  0  0
   10.2291  -15.2554   22.3922 O   0  0  0  0  0  0  0  0  0  0  0  0
    8.5227  -16.0746   23.6297 N   0  0  0  0  0  0  0  0  0  0  0  0
    9.1775  -15.7565   24.9002 C   0  0  1  0  0  0  0  0  0  0  0  0
    8.1895  -15.5014   25.9770 C   0  0  0  0  0  0  0  0  0  0  0  0
    8.8621  -15.1738   27.2433 C   0  0  0  0  0  0  0  0  0  0  0  0
    9.1117  -13.8763   27.6295 C   0  0  0  0  0  0  0  0  0  0  0  0
    9.7383  -13.5695   28.8248 C   0  0  0  0  0  0  0  0  0  0  0  0
   10.1450  -14.5750   29.6921 C   0  0  0  0  0  0  0  0  0  0  0  0
    9.9014  -15.8684   29.3167 C   0  0  0  0  0  0  0  0  0  0  0  0
    9.2811  -16.1679   28.1336 C   0  0  0  0  0  0  0  0  0  0  0  0
   10.0419  -16.8879   25.2318 C   0  0  0  0  0  0  0  0  0  0  0  0
   10.0420  -18.0111   24.4364 O   0  0  0  0  0  0  0  0  0  0  0  0
   10.7889  -16.8632   26.2342 O   0  0  0  0  0  0  0  0  0  0  0  0
  2  1  1  1
  3  4  1  0
  3  2  1  0
  4  5  2  0
  5  6  1  0
  7  6  2  0
  8  7  1  0
  9  8  2  0
  9  4  1  0
 10  2  1  0
 10 11  2  0
 12 13  1  0
 13 14  1  0
 16 15  1  1
 15 14  1  0
 16 17  1  0
 17 10  1  0
 18 16  1  0
 19 18  2  0
 20 18  1  0
 21 22  1  1
 21 20  1  0
 22 23  1  0
 23 28  1  0
 24 23  2  0
 24 25  1  0
 25 26  2  0
 26 27  1  0
 28 27  2  0
 29 30  1  0
 29 21  1  0
 31 29  2  0
M  END
$$$$
