FMF.pdb
     RDKit          3D

 31 32  0  0  1  0  0  0  0  0999 V2000
    6.0025  -17.8344   24.6715 N   0  0  0  0  0  0  0  0  0  0  0  0
    6.7169  -16.5639   24.5288 C   0  0  1  0  0  0  0  0  0  0  0  0
    7.0045  -15.9851   25.8991 C   0  0  0  0  0  0  0  0  0  0  0  0
    6.6872  -14.5408   25.8567 C   0  0  0  0  0  0  0  0  0  0  0  0
    5.5113  -14.0181   26.3483 C   0  0  0  0  0  0  0  0  0  0  0  0
    5.2518  -12.6586   26.2895 C   0  0  0  0  0  0  0  0  0  0  0  0
    6.1921  -11.8051   25.7253 C   0  0  0  0  0  0  0  0  0  0  0  0
    7.3661  -12.3103   25.2323 C   0  0  0  0  0  0  0  0  0  0  0  0
    7.6058  -13.6540   25.2984 C   0  0  0  0  0  0  0  0  0  0  0  0
    7.9551  -16.7977   23.7557 C   0  0  0  0  0  0  0  0  0  0  0  0
    8.4245  -17.9554   23.7007 O   0  0  0  0  0  0  0  0  0  0  0  0
    7.0107  -12.4289   20.6707 C   0  0  0  0  0  0  0  0  0  0  0  0
    8.4636  -13.0805   19.7828 S   0  0  0  0  0  0  0  0  0  0  0  0
    8.6932  -14.8296   20.2548 C   0  0  0  0  0  0  0  0  0  0  0  0
    9.8180  -14.9062   21.2328 C   0  0  0  0  0  0  0  0  0  0  0  0
    9.7711  -16.0679   22.1845 C   0  0  2  0  0  0  0  0  0  0  0  0
    8.6283  -15.7597   23.0756 N   0  0  0  0  0  0  0  0  0  0  0  0
   10.9406  -16.2118   23.0553 C   0  0  0  0  0  0  0  0  0  0  0  0
   12.1272  -16.0256   22.5965 O   0  0  0  0  0  0  0  0  0  0  0  0
   10.9234  -16.5526   24.4371 N   0  0  0  0  0  0  0  0  0  0  0  0
   12.1457  -16.8107   25.2008 C   0  0  1  0  0  0  0  0  0  0  0  0
   12.5802  -15.6129   25.9607 C   0  0  0  0  0  0  0  0  0  0  0  0
   11.5261  -15.1615   26.8817 C   0  0  0  0  0  0  0  0  0  0  0  0
   10.5854  -14.2237   26.5203 C   0  0  0  0  0  0  0  0  0  0  0  0
    9.5898  -13.8053   27.3859 C   0  0  0  0  0  0  0  0  0  0  0  0
    9.5018  -14.3240   28.6711 C   0  0  0  0  0  0  0  0  0  0  0  0
   10.4328  -15.2569   29.0398 C   0  0  0  0  0  0  0  0  0  0  0  0
   11.4161  -15.6683   28.1808 C   0  0  0  0  0  0  0  0  0  0  0  0
   11.8631  -17.9318   26.0956 C   0  0  0  0  0  0  0  0  0  0  0  0
   12.8650  -18.4566   26.8798 O   0  0  0  0  0  0  0  0  0  0  0  0
   10.7208  -18.4355   26.1658 O   0  0  0  0  0  0  0  0  0  0  0  0
  2  1  1  1
  3  4  1  0
  3  2  1  0
  4  5  2  0
  5  6  1  0
  7  6  2  0
  8  7  1  0
  9  8  2  0
  9  4  1  0
 10  2  1  0
 10 11  2  0
 12 13  1  0
 13 14  1  0
 16 15  1  6
 15 14  1  0
 16 17  1  0
 17 10  1  0
 18 16  1  0
 19 18  2  0
 20 18  1  0
 21 22  1  1
 21 20  1  0
 22 23  1  0
 23 28  1  0
 24 23  2  0
 24 25  1  0
 25 26  2  0
 26 27  1  0
 28 27  2  0
 29 30  1  0
 29 21  1  0
 31 29  2  0
M  END
$$$$
