FMF.pdb
     RDKit          3D

 31 32  0  0  1  0  0  0  0  0999 V2000
    5.5812  -18.1245   20.6487 N   0  0  0  0  0  0  0  0  0  0  0  0
    6.9189  -18.3354   21.2061 C   0  0  1  0  0  0  0  0  0  0  0  0
    7.8460  -18.8493   20.1237 C   0  0  0  0  0  0  0  0  0  0  0  0
    7.4296  -20.2285   19.7875 C   0  0  0  0  0  0  0  0  0  0  0  0
    6.8850  -20.5698   18.5692 C   0  0  0  0  0  0  0  0  0  0  0  0
    6.5073  -21.8738   18.2933 C   0  0  0  0  0  0  0  0  0  0  0  0
    6.6796  -22.8565   19.2606 C   0  0  0  0  0  0  0  0  0  0  0  0
    7.2198  -22.5322   20.4769 C   0  0  0  0  0  0  0  0  0  0  0  0
    7.5869  -21.2409   20.7322 C   0  0  0  0  0  0  0  0  0  0  0  0
    7.3986  -17.0638   21.7880 C   0  0  0  0  0  0  0  0  0  0  0  0
    7.9216  -16.2133   21.0352 O   0  0  0  0  0  0  0  0  0  0  0  0
    7.4238  -12.3839   25.8714 C   0  0  0  0  0  0  0  0  0  0  0  0
    5.8742  -13.3430   25.9235 S   0  0  0  0  0  0  0  0  0  0  0  0
    6.0610  -14.8028   24.8424 C   0  0  0  0  0  0  0  0  0  0  0  0
    7.4315  -15.3595   25.0410 C   0  0  0  0  0  0  0  0  0  0  0  0
    8.1601  -15.7504   23.7865 C   0  0  2  0  0  0  0  0  0  0  0  0
    7.2875  -16.7738   23.1652 N   0  0  0  0  0  0  0  0  0  0  0  0
    9.4607  -16.3930   23.9919 C   0  0  0  0  0  0  0  0  0  0  0  0
   10.3234  -16.4474   23.0401 O   0  0  0  0  0  0  0  0  0  0  0  0
    9.9170  -17.0024   25.1945 N   0  0  0  0  0  0  0  0  0  0  0  0
   11.3264  -17.0056   25.5913 C   0  0  1  0  0  0  0  0  0  0  0  0
   11.8086  -15.6396   25.9115 C   0  0  0  0  0  0  0  0  0  0  0  0
   11.2203  -15.1538   27.1689 C   0  0  0  0  0  0  0  0  0  0  0  0
   10.7270  -13.8759   27.3048 C   0  0  0  0  0  0  0  0  0  0  0  0
   10.1671  -13.4225   28.4867 C   0  0  0  0  0  0  0  0  0  0  0  0
   10.0814  -14.2531   29.5964 C   0  0  0  0  0  0  0  0  0  0  0  0
   10.5694  -15.5255   29.4710 C   0  0  0  0  0  0  0  0  0  0  0  0
   11.1224  -15.9703   28.3003 C   0  0  0  0  0  0  0  0  0  0  0  0
   11.4442  -17.8932   26.7469 C   0  0  0  0  0  0  0  0  0  0  0  0
   12.6864  -18.2155   27.2441 O   0  0  0  0  0  0  0  0  0  0  0  0
   10.4328  -18.3765   27.3010 O   0  0  0  0  0  0  0  0  0  0  0  0
  2  1  1  6
  3  4  1  0
  3  2  1  0
  4  5  2  0
  5  6  1  0
  7  6  2  0
  8  7  1  0
  9  8  2  0
  9  4  1  0
 10  2  1  0
 10 11  2  0
 12 13  1  0
 13 14  1  0
 16 15  1  1
 15 14  1  0
 16 17  1  0
 17 10  1  0
 18 16  1  0
 19 18  2  0
 20 18  1  0
 21 22  1  1
 21 20  1  0
 22 23  1  0
 23 28  1  0
 24 23  2  0
 24 25  1  0
 25 26  2  0
 26 27  1  0
 28 27  2  0
 29 30  1  0
 29 21  1  0
 31 29  2  0
M  END
$$$$
