FMF.pdb
     RDKit          3D

 31 32  0  0  1  0  0  0  0  0999 V2000
    7.1383  -20.1513   22.1213 N   0  0  0  0  0  0  0  0  0  0  0  0
    6.5273  -18.8211   22.0752 C   0  0  1  0  0  0  0  0  0  0  0  0
    5.5821  -18.6544   23.2474 C   0  0  0  0  0  0  0  0  0  0  0  0
    6.3519  -18.8933   24.4879 C   0  0  0  0  0  0  0  0  0  0  0  0
    5.9294  -18.4615   25.7259 C   0  0  0  0  0  0  0  0  0  0  0  0
    6.6801  -18.7053   26.8643 C   0  0  0  0  0  0  0  0  0  0  0  0
    7.8805  -19.3972   26.7586 C   0  0  0  0  0  0  0  0  0  0  0  0
    8.3137  -19.8329   25.5343 C   0  0  0  0  0  0  0  0  0  0  0  0
    7.5607  -19.5837   24.4215 C   0  0  0  0  0  0  0  0  0  0  0  0
    7.5999  -17.8036   22.0800 C   0  0  0  0  0  0  0  0  0  0  0  0
    8.7467  -18.1318   21.7050 O   0  0  0  0  0  0  0  0  0  0  0  0
    8.1242  -11.6526   20.0961 C   0  0  0  0  0  0  0  0  0  0  0  0
    7.6475  -13.2938   19.4613 S   0  0  0  0  0  0  0  0  0  0  0  0
    6.7560  -14.1876   20.7809 C   0  0  0  0  0  0  0  0  0  0  0  0
    7.6067  -14.1809   22.0072 C   0  0  0  0  0  0  0  0  0  0  0  0
    8.4027  -15.4318   22.2504 C   0  0  2  0  0  0  0  0  0  0  0  0
    7.3763  -16.4723   22.4932 N   0  0  0  0  0  0  0  0  0  0  0  0
    9.2531  -15.4111   23.4433 C   0  0  0  0  0  0  0  0  0  0  0  0
   10.3362  -14.7185   23.4651 O   0  0  0  0  0  0  0  0  0  0  0  0
    9.0109  -16.1070   24.6610 N   0  0  0  0  0  0  0  0  0  0  0  0
    9.7126  -15.7864   25.9054 C   0  0  1  0  0  0  0  0  0  0  0  0
    8.7694  -15.6135   27.0374 C   0  0  0  0  0  0  0  0  0  0  0  0
    7.8883  -14.4566   26.8179 C   0  0  0  0  0  0  0  0  0  0  0  0
    8.3586  -13.1629   26.8191 C   0  0  0  0  0  0  0  0  0  0  0  0
    7.5293  -12.0756   26.6052 C   0  0  0  0  0  0  0  0  0  0  0  0
    6.1707  -12.2525   26.3781 C   0  0  0  0  0  0  0  0  0  0  0  0
    5.6935  -13.5353   26.3752 C   0  0  0  0  0  0  0  0  0  0  0  0
    6.5171  -14.6081   26.5870 C   0  0  0  0  0  0  0  0  0  0  0  0
   10.6520  -16.8770   26.1608 C   0  0  0  0  0  0  0  0  0  0  0  0
   10.8226  -17.8724   25.2258 O   0  0  0  0  0  0  0  0  0  0  0  0
   11.3112  -16.9320   27.2219 O   0  0  0  0  0  0  0  0  0  0  0  0
  2  1  1  1
  3  4  1  0
  3  2  1  0
  4  5  2  0
  5  6  1  0
  7  6  2  0
  8  7  1  0
  9  8  2  0
  9  4  1  0
 10  2  1  0
 10 11  2  0
 12 13  1  0
 13 14  1  0
 16 15  1  1
 15 14  1  0
 16 17  1  0
 17 10  1  0
 18 16  1  0
 19 18  2  0
 20 18  1  0
 21 22  1  1
 21 20  1  0
 22 23  1  0
 23 28  1  0
 24 23  2  0
 24 25  1  0
 25 26  2  0
 26 27  1  0
 28 27  2  0
 29 30  1  0
 29 21  1  0
 31 29  2  0
M  END
$$$$
