FHY.pdb
     RDKit          3D

 34 36  0  0  1  0  0  0  0  0999 V2000
    5.5374  -17.4826   24.1732 N   0  0  0  0  0  0  0  0  0  0  0  0
    6.4923  -16.4023   24.1998 C   0  0  1  0  0  0  0  0  0  0  0  0
    6.9299  -16.2316   25.6581 C   0  0  0  0  0  0  0  0  0  0  0  0
    7.2913  -14.8459   25.9718 C   0  0  0  0  0  0  0  0  0  0  0  0
    8.4145  -14.2760   25.3948 C   0  0  0  0  0  0  0  0  0  0  0  0
    8.7179  -12.9761   25.7149 C   0  0  0  0  0  0  0  0  0  0  0  0
    7.9471  -12.2359   26.5807 C   0  0  0  0  0  0  0  0  0  0  0  0
    6.8357  -12.8237   27.1417 C   0  0  0  0  0  0  0  0  0  0  0  0
    6.5104  -14.1156   26.8408 C   0  0  0  0  0  0  0  0  0  0  0  0
    7.7214  -16.7110   23.4340 C   0  0  0  0  0  0  0  0  0  0  0  0
    8.1255  -17.8972   23.4194 O   0  0  0  0  0  0  0  0  0  0  0  0
    8.4874  -15.7498   22.7045 N   0  0  0  0  0  0  0  0  0  0  0  0
    9.7257  -16.0838   22.0484 C   0  0  1  0  0  0  0  0  0  0  0  0
   10.0747  -15.0321   21.0592 C   0  0  0  0  0  0  0  0  0  0  0  0
    8.9594  -14.4746   20.2856 C   0  0  0  0  0  0  0  0  0  0  0  0
    7.6389  -14.8015   20.1893 C   0  0  0  0  0  0  0  0  0  0  0  0
    7.0708  -13.9018   19.3269 N   0  0  0  0  0  0  0  0  0  0  0  0
    7.9817  -13.0466   18.8973 C   0  0  0  0  0  0  0  0  0  0  0  0
    9.1340  -13.3795   19.4692 N   0  0  0  0  0  0  0  0  0  0  0  0
   10.8528  -16.2946   22.9835 C   0  0  0  0  0  0  0  0  0  0  0  0
   11.9191  -15.6329   22.9944 O   0  0  0  0  0  0  0  0  0  0  0  0
    9.1507  -13.1259   28.8949 O   0  0  0  0  0  0  0  0  0  0  0  0
    9.6131  -14.2690   28.2617 C   0  0  0  0  0  0  0  0  0  0  0  0
   10.7112  -14.1554   27.4347 C   0  0  0  0  0  0  0  0  0  0  0  0
   11.2100  -15.2866   26.7761 C   0  0  0  0  0  0  0  0  0  0  0  0
   10.5913  -16.5018   26.9662 C   0  0  0  0  0  0  0  0  0  0  0  0
   11.0593  -17.7094   26.2999 C   0  0  0  0  0  0  0  0  0  0  0  0
   11.7629  -17.4817   24.9829 C   0  0  2  0  0  0  0  0  0  0  0  0
   10.7235  -17.3271   23.9501 N   0  0  0  0  0  0  0  0  0  0  0  0
   12.5556  -18.6841   24.6625 C   0  0  0  0  0  0  0  0  0  0  0  0
   13.6116  -18.9028   25.3082 O   0  0  0  0  0  0  0  0  0  0  0  0
    9.4875  -16.5983   27.8019 C   0  0  0  0  0  0  0  0  0  0  0  0
    8.9824  -15.4780   28.4631 C   0  0  0  0  0  0  0  0  0  0  0  0
   12.1840  -19.5903   23.6749 O   0  0  0  0  0  0  0  0  0  0  0  0
  2  1  1  1
  3  2  1  0
  4  5  2  0
  4  3  1  0
  6  5  1  0
  7  6  2  0
  8  7  1  0
  8  9  2  0
  9  4  1  0
 10 11  2  0
 10  2  1  0
 12 10  1  0
 13 14  1  6
 13 12  1  0
 14 15  1  0
 15 16  2  0
 15 19  1  0
 16 17  1  0
 17 18  1  0
 19 18  2  0
 20 13  1  0
 21 20  2  0
 23 22  1  0
 23 24  2  0
 25 24  1  0
 26 25  2  0
 27 26  1  0
 28 27  1  1
 28 29  1  0
 29 20  1  0
 30 28  1  0
 30 34  1  0
 31 30  2  0
 32 33  2  0
 32 26  1  0
 33 23  1  0
M  END
$$$$
