FHY.pdb
     RDKit          3D

 34 36  0  0  1  0  0  0  0  0999 V2000
    5.8872  -17.8425   24.6248 N   0  0  0  0  0  0  0  0  0  0  0  0
    6.5700  -16.5724   24.6382 C   0  0  1  0  0  0  0  0  0  0  0  0
    6.8497  -16.2335   26.1059 C   0  0  0  0  0  0  0  0  0  0  0  0
    7.2477  -14.8344   26.2875 C   0  0  0  0  0  0  0  0  0  0  0  0
    6.3033  -13.8265   26.1805 C   0  0  0  0  0  0  0  0  0  0  0  0
    6.7173  -12.5297   26.3575 C   0  0  0  0  0  0  0  0  0  0  0  0
    8.0260  -12.2100   26.6342 C   0  0  0  0  0  0  0  0  0  0  0  0
    8.9467  -13.2286   26.7358 C   0  0  0  0  0  0  0  0  0  0  0  0
    8.5622  -14.5279   26.5644 C   0  0  0  0  0  0  0  0  0  0  0  0
    7.8899  -16.6295   23.9695 C   0  0  0  0  0  0  0  0  0  0  0  0
    8.5655  -17.6786   24.0855 O   0  0  0  0  0  0  0  0  0  0  0  0
    8.4554  -15.5693   23.1955 N   0  0  0  0  0  0  0  0  0  0  0  0
    9.7307  -15.6877   22.5361 C   0  0  1  0  0  0  0  0  0  0  0  0
    9.7277  -14.8933   21.2809 C   0  0  0  0  0  0  0  0  0  0  0  0
    8.5899  -15.1099   20.3799 C   0  0  0  0  0  0  0  0  0  0  0  0
    8.3221  -16.0501   19.4290 C   0  0  0  0  0  0  0  0  0  0  0  0
    7.0804  -15.7628   18.9276 N   0  0  0  0  0  0  0  0  0  0  0  0
    6.5835  -14.6959   19.5282 C   0  0  0  0  0  0  0  0  0  0  0  0
    7.4866  -14.2867   20.4129 N   0  0  0  0  0  0  0  0  0  0  0  0
   10.8752  -15.2898   23.3852 C   0  0  0  0  0  0  0  0  0  0  0  0
   11.3428  -14.1286   23.4740 O   0  0  0  0  0  0  0  0  0  0  0  0
    9.3262  -17.8609   30.2864 O   0  0  0  0  0  0  0  0  0  0  0  0
    9.9553  -17.1703   29.2623 C   0  0  0  0  0  0  0  0  0  0  0  0
   11.2965  -16.8799   29.4017 C   0  0  0  0  0  0  0  0  0  0  0  0
   11.9696  -16.1835   28.3895 C   0  0  0  0  0  0  0  0  0  0  0  0
   11.2763  -15.7976   27.2645 C   0  0  0  0  0  0  0  0  0  0  0  0
   11.9210  -15.0627   26.1848 C   0  0  0  0  0  0  0  0  0  0  0  0
   12.5585  -15.9213   25.1181 C   0  0  2  0  0  0  0  0  0  0  0  0
   11.4990  -16.2988   24.1662 N   0  0  0  0  0  0  0  0  0  0  0  0
   13.0683  -17.1523   25.7519 C   0  0  0  0  0  0  0  0  0  0  0  0
   12.5382  -18.2517   25.4520 O   0  0  0  0  0  0  0  0  0  0  0  0
    9.9271  -16.0982   27.1403 C   0  0  0  0  0  0  0  0  0  0  0  0
    9.2467  -16.7915   28.1423 C   0  0  0  0  0  0  0  0  0  0  0  0
   14.1143  -17.1500   26.6687 O   0  0  0  0  0  0  0  0  0  0  0  0
  2  1  1  1
  3  2  1  0
  4  5  2  0
  4  3  1  0
  6  5  1  0
  7  6  2  0
  8  7  1  0
  8  9  2  0
  9  4  1  0
 10 11  2  0
 10  2  1  0
 12 10  1  0
 13 14  1  6
 13 12  1  0
 14 15  1  0
 15 16  2  0
 15 19  1  0
 16 17  1  0
 17 18  1  0
 19 18  2  0
 20 13  1  0
 21 20  2  0
 23 22  1  0
 23 24  2  0
 25 24  1  0
 26 25  2  0
 27 26  1  0
 28 27  1  1
 28 29  1  0
 29 20  1  0
 30 28  1  0
 30 34  1  0
 31 30  2  0
 32 33  2  0
 32 26  1  0
 33 23  1  0
M  END
$$$$
