FHY.pdb
     RDKit          3D

 34 36  0  0  1  0  0  0  0  0999 V2000
    6.8602  -17.6943   19.9616 N   0  0  0  0  0  0  0  0  0  0  0  0
    7.8074  -16.9049   20.7095 C   0  0  1  0  0  0  0  0  0  0  0  0
    6.9949  -15.9191   21.5552 C   0  0  0  0  0  0  0  0  0  0  0  0
    7.2883  -14.5231   21.2173 C   0  0  0  0  0  0  0  0  0  0  0  0
    7.0408  -14.0539   19.9375 C   0  0  0  0  0  0  0  0  0  0  0  0
    7.3296  -12.7405   19.6623 C   0  0  0  0  0  0  0  0  0  0  0  0
    7.8506  -11.8910   20.6101 C   0  0  0  0  0  0  0  0  0  0  0  0
    8.0882  -12.3799   21.8750 C   0  0  0  0  0  0  0  0  0  0  0  0
    7.8101  -13.6827   22.1764 C   0  0  0  0  0  0  0  0  0  0  0  0
    8.5947  -17.7167   21.6654 C   0  0  0  0  0  0  0  0  0  0  0  0
    8.7294  -18.9402   21.4297 O   0  0  0  0  0  0  0  0  0  0  0  0
    9.2173  -17.2054   22.8459 N   0  0  0  0  0  0  0  0  0  0  0  0
   10.5723  -17.5324   23.2098 C   0  0  1  0  0  0  0  0  0  0  0  0
   11.4936  -17.1844   22.0978 C   0  0  0  0  0  0  0  0  0  0  0  0
   11.5477  -18.1337   20.9801 C   0  0  0  0  0  0  0  0  0  0  0  0
   10.8591  -19.2759   20.6955 C   0  0  0  0  0  0  0  0  0  0  0  0
   11.3208  -19.7251   19.4869 N   0  0  0  0  0  0  0  0  0  0  0  0
   12.2540  -18.9114   19.0259 C   0  0  0  0  0  0  0  0  0  0  0  0
   12.4044  -17.9396   19.9197 N   0  0  0  0  0  0  0  0  0  0  0  0
   11.0214  -16.8848   24.4620 C   0  0  0  0  0  0  0  0  0  0  0  0
   12.1427  -17.0489   25.0013 O   0  0  0  0  0  0  0  0  0  0  0  0
    6.3516  -10.8588   25.9132 O   0  0  0  0  0  0  0  0  0  0  0  0
    6.9178  -12.0982   26.1677 C   0  0  0  0  0  0  0  0  0  0  0  0
    6.0738  -13.1585   26.4245 C   0  0  0  0  0  0  0  0  0  0  0  0
    6.6059  -14.4276   26.6865 C   0  0  0  0  0  0  0  0  0  0  0  0
    7.9722  -14.5967   26.6837 C   0  0  0  0  0  0  0  0  0  0  0  0
    8.5822  -15.8903   26.9593 C   0  0  0  0  0  0  0  0  0  0  0  0
   10.0405  -16.0032   26.5823 C   0  0  2  0  0  0  0  0  0  0  0  0
   10.1154  -16.0042   25.1108 N   0  0  0  0  0  0  0  0  0  0  0  0
   10.5504  -17.2988   27.0705 C   0  0  0  0  0  0  0  0  0  0  0  0
   10.7778  -18.2124   26.2378 O   0  0  0  0  0  0  0  0  0  0  0  0
    8.8070  -13.5190   26.4232 C   0  0  0  0  0  0  0  0  0  0  0  0
    8.2878  -12.2505   26.1607 C   0  0  0  0  0  0  0  0  0  0  0  0
   10.7930  -17.5543   28.4160 O   0  0  0  0  0  0  0  0  0  0  0  0
  2  1  1  1
  3  2  1  0
  4  5  2  0
  4  3  1  0
  6  5  1  0
  7  6  2  0
  8  7  1  0
  8  9  2  0
  9  4  1  0
 10 11  2  0
 10  2  1  0
 12 10  1  0
 13 14  1  6
 13 12  1  0
 14 15  1  0
 15 16  2  0
 15 19  1  0
 16 17  1  0
 17 18  1  0
 19 18  2  0
 20 13  1  0
 21 20  2  0
 23 22  1  0
 23 24  2  0
 25 24  1  0
 26 25  2  0
 27 26  1  0
 28 27  1  6
 28 29  1  0
 29 20  1  0
 30 28  1  0
 30 34  1  0
 31 30  2  0
 32 33  2  0
 32 26  1  0
 33 23  1  0
M  END
$$$$
