FHY.pdb
     RDKit          3D

 34 36  0  0  1  0  0  0  0  0999 V2000
    6.2153  -15.9494   21.9440 N   0  0  0  0  0  0  0  0  0  0  0  0
    7.2577  -15.7000   22.9086 C   0  0  1  0  0  0  0  0  0  0  0  0
    6.6080  -15.7727   24.2942 C   0  0  0  0  0  0  0  0  0  0  0  0
    6.8450  -14.5605   25.0838 C   0  0  0  0  0  0  0  0  0  0  0  0
    6.1537  -14.3593   26.2675 C   0  0  0  0  0  0  0  0  0  0  0  0
    6.4048  -13.2112   26.9768 C   0  0  0  0  0  0  0  0  0  0  0  0
    7.3114  -12.2696   26.5491 C   0  0  0  0  0  0  0  0  0  0  0  0
    7.9864  -12.4914   25.3698 C   0  0  0  0  0  0  0  0  0  0  0  0
    7.7560  -13.6252   24.6439 C   0  0  0  0  0  0  0  0  0  0  0  0
    8.3095  -16.7421   22.8913 C   0  0  0  0  0  0  0  0  0  0  0  0
    8.2448  -17.6315   22.0107 O   0  0  0  0  0  0  0  0  0  0  0  0
    9.4016  -16.8101   23.8109 N   0  0  0  0  0  0  0  0  0  0  0  0
   10.7443  -17.1269   23.3958 C   0  0  1  0  0  0  0  0  0  0  0  0
   11.1452  -16.2502   22.2656 C   0  0  0  0  0  0  0  0  0  0  0  0
   12.4749  -16.4955   21.6955 C   0  0  0  0  0  0  0  0  0  0  0  0
   13.7337  -16.1470   22.0875 C   0  0  0  0  0  0  0  0  0  0  0  0
   14.5966  -16.6855   21.1703 N   0  0  0  0  0  0  0  0  0  0  0  0
   13.9225  -17.3428   20.2434 C   0  0  0  0  0  0  0  0  0  0  0  0
   12.6331  -17.2380   20.5467 N   0  0  0  0  0  0  0  0  0  0  0  0
   11.7386  -17.0336   24.4874 C   0  0  0  0  0  0  0  0  0  0  0  0
   12.2254  -15.9670   24.9355 O   0  0  0  0  0  0  0  0  0  0  0  0
   10.6551  -13.0962   29.5600 O   0  0  0  0  0  0  0  0  0  0  0  0
   10.6140  -14.2936   28.8631 C   0  0  0  0  0  0  0  0  0  0  0  0
    9.8452  -14.3546   27.7195 C   0  0  0  0  0  0  0  0  0  0  0  0
    9.7768  -15.5462   26.9861 C   0  0  0  0  0  0  0  0  0  0  0  0
   10.4829  -16.6447   27.4222 C   0  0  0  0  0  0  0  0  0  0  0  0
   10.4416  -17.9124   26.7064 C   0  0  0  0  0  0  0  0  0  0  0  0
   11.7870  -18.5556   26.4664 C   0  0  2  0  0  0  0  0  0  0  0  0
   12.1818  -18.2453   25.0811 N   0  0  0  0  0  0  0  0  0  0  0  0
   11.6338  -20.0182   26.5851 C   0  0  0  0  0  0  0  0  0  0  0  0
   11.4965  -20.5216   27.7286 O   0  0  0  0  0  0  0  0  0  0  0  0
   11.2517  -16.5659   28.5750 C   0  0  0  0  0  0  0  0  0  0  0  0
   11.3272  -15.3840   29.3131 C   0  0  0  0  0  0  0  0  0  0  0  0
   11.6329  -20.8675   25.4836 O   0  0  0  0  0  0  0  0  0  0  0  0
  2  1  1  6
  3  2  1  0
  4  5  2  0
  4  3  1  0
  6  5  1  0
  7  6  2  0
  8  7  1  0
  8  9  2  0
  9  4  1  0
 10 11  2  0
 10  2  1  0
 12 10  1  0
 13 14  1  6
 13 12  1  0
 14 15  1  0
 15 16  2  0
 15 19  1  0
 16 17  1  0
 17 18  1  0
 19 18  2  0
 20 13  1  0
 21 20  2  0
 23 22  1  0
 23 24  2  0
 25 24  1  0
 26 25  2  0
 27 26  1  0
 28 27  1  6
 28 29  1  0
 29 20  1  0
 30 28  1  0
 30 34  1  0
 31 30  2  0
 32 33  2  0
 32 26  1  0
 33 23  1  0
M  END
$$$$
