FHY.pdb
     RDKit          3D

 34 36  0  0  1  0  0  0  0  0999 V2000
    5.9471  -16.2180   21.2949 N   0  0  0  0  0  0  0  0  0  0  0  0
    6.8032  -15.4380   22.1540 C   0  0  1  0  0  0  0  0  0  0  0  0
    6.0318  -15.2043   23.4569 C   0  0  0  0  0  0  0  0  0  0  0  0
    6.7906  -14.3947   24.4149 C   0  0  0  0  0  0  0  0  0  0  0  0
    7.2933  -14.9763   25.5675 C   0  0  0  0  0  0  0  0  0  0  0  0
    7.9981  -14.1832   26.4385 C   0  0  0  0  0  0  0  0  0  0  0  0
    8.2148  -12.8462   26.2001 C   0  0  0  0  0  0  0  0  0  0  0  0
    7.7055  -12.2904   25.0480 C   0  0  0  0  0  0  0  0  0  0  0  0
    7.0004  -13.0563   24.1639 C   0  0  0  0  0  0  0  0  0  0  0  0
    8.0400  -16.1597   22.5310 C   0  0  0  0  0  0  0  0  0  0  0  0
    7.9394  -17.1367   23.3094 O   0  0  0  0  0  0  0  0  0  0  0  0
    9.3503  -15.8228   22.0698 N   0  0  0  0  0  0  0  0  0  0  0  0
   10.5372  -16.4637   22.5755 C   0  0  1  0  0  0  0  0  0  0  0  0
   11.4638  -16.7702   21.4556 C   0  0  0  0  0  0  0  0  0  0  0  0
   10.9860  -17.7440   20.4675 C   0  0  0  0  0  0  0  0  0  0  0  0
    9.8896  -18.5532   20.4138 C   0  0  0  0  0  0  0  0  0  0  0  0
    9.9546  -19.2286   19.2240 N   0  0  0  0  0  0  0  0  0  0  0  0
   11.0354  -18.8679   18.5551 C   0  0  0  0  0  0  0  0  0  0  0  0
   11.6731  -17.9672   19.2952 N   0  0  0  0  0  0  0  0  0  0  0  0
   11.2387  -15.6759   23.6130 C   0  0  0  0  0  0  0  0  0  0  0  0
   11.3868  -14.4297   23.6004 O   0  0  0  0  0  0  0  0  0  0  0  0
   10.2509  -17.7383   31.4076 O   0  0  0  0  0  0  0  0  0  0  0  0
   10.5222  -17.0754   30.2209 C   0  0  0  0  0  0  0  0  0  0  0  0
   11.2723  -15.9192   30.2785 C   0  0  0  0  0  0  0  0  0  0  0  0
   11.5687  -15.2192   29.1019 C   0  0  0  0  0  0  0  0  0  0  0  0
   11.1029  -15.7000   27.8988 C   0  0  0  0  0  0  0  0  0  0  0  0
   11.3710  -15.0092   26.6450 C   0  0  0  0  0  0  0  0  0  0  0  0
   12.4548  -15.6269   25.7934 C   0  0  2  0  0  0  0  0  0  0  0  0
   11.7909  -16.3808   24.7155 N   0  0  0  0  0  0  0  0  0  0  0  0
   13.2140  -16.5818   26.6233 C   0  0  0  0  0  0  0  0  0  0  0  0
   13.0371  -17.8132   26.4444 O   0  0  0  0  0  0  0  0  0  0  0  0
   10.3496  -16.8650   27.8589 C   0  0  0  0  0  0  0  0  0  0  0  0
   10.0486  -17.5704   29.0248 C   0  0  0  0  0  0  0  0  0  0  0  0
   14.1212  -16.1781   27.5973 O   0  0  0  0  0  0  0  0  0  0  0  0
  2  1  1  6
  3  2  1  0
  4  5  2  0
  4  3  1  0
  6  5  1  0
  7  6  2  0
  8  7  1  0
  8  9  2  0
  9  4  1  0
 10 11  2  0
 10  2  1  0
 12 10  1  0
 13 14  1  6
 13 12  1  0
 14 15  1  0
 15 16  2  0
 15 19  1  0
 16 17  1  0
 17 18  1  0
 19 18  2  0
 20 13  1  0
 21 20  2  0
 23 22  1  0
 23 24  2  0
 25 24  1  0
 26 25  2  0
 27 26  1  0
 28 27  1  1
 28 29  1  0
 29 20  1  0
 30 28  1  0
 30 34  1  0
 31 30  2  0
 32 33  2  0
 32 26  1  0
 33 23  1  0
M  END
$$$$
