FHY.pdb
     RDKit          3D

 34 36  0  0  1  0  0  0  0  0999 V2000
    5.2912  -17.8595   24.7133 N   0  0  0  0  0  0  0  0  0  0  0  0
    5.9934  -16.6109   24.5477 C   0  0  1  0  0  0  0  0  0  0  0  0
    6.1460  -15.9981   25.9435 C   0  0  0  0  0  0  0  0  0  0  0  0
    6.5768  -14.5978   25.8921 C   0  0  0  0  0  0  0  0  0  0  0  0
    6.3912  -13.7756   26.9915 C   0  0  0  0  0  0  0  0  0  0  0  0
    6.8086  -12.4710   26.9022 C   0  0  0  0  0  0  0  0  0  0  0  0
    7.3976  -11.9666   25.7663 C   0  0  0  0  0  0  0  0  0  0  0  0
    7.5716  -12.8026   24.6864 C   0  0  0  0  0  0  0  0  0  0  0  0
    7.1656  -14.1052   24.7479 C   0  0  0  0  0  0  0  0  0  0  0  0
    7.3668  -16.7960   24.0262 C   0  0  0  0  0  0  0  0  0  0  0  0
    8.1218  -17.5984   24.6234 O   0  0  0  0  0  0  0  0  0  0  0  0
    7.9001  -16.1226   22.8838 N   0  0  0  0  0  0  0  0  0  0  0  0
    9.2308  -16.3703   22.3908 C   0  0  1  0  0  0  0  0  0  0  0  0
    9.2480  -16.2742   20.9085 C   0  0  0  0  0  0  0  0  0  0  0  0
    8.5648  -15.1133   20.3266 C   0  0  0  0  0  0  0  0  0  0  0  0
    7.5503  -14.3145   20.7655 C   0  0  0  0  0  0  0  0  0  0  0  0
    7.3528  -13.3611   19.8023 N   0  0  0  0  0  0  0  0  0  0  0  0
    8.1976  -13.5430   18.8028 C   0  0  0  0  0  0  0  0  0  0  0  0
    8.9409  -14.6023   19.1045 N   0  0  0  0  0  0  0  0  0  0  0  0
   10.2531  -15.4706   22.9692 C   0  0  0  0  0  0  0  0  0  0  0  0
   10.2428  -14.2179   22.8934 O   0  0  0  0  0  0  0  0  0  0  0  0
   10.2199  -17.4388   29.9229 O   0  0  0  0  0  0  0  0  0  0  0  0
   10.5577  -16.6981   28.8010 C   0  0  0  0  0  0  0  0  0  0  0  0
   11.8881  -16.3969   28.5968 C   0  0  0  0  0  0  0  0  0  0  0  0
   12.2715  -15.6504   27.4751 C   0  0  0  0  0  0  0  0  0  0  0  0
   11.3069  -15.2264   26.5889 C   0  0  0  0  0  0  0  0  0  0  0  0
   11.6451  -14.4389   25.4112 C   0  0  0  0  0  0  0  0  0  0  0  0
   12.3425  -15.2020   24.3100 C   0  0  2  0  0  0  0  0  0  0  0  0
   11.3361  -16.0664   23.6687 N   0  0  0  0  0  0  0  0  0  0  0  0
   13.3711  -16.0665   24.9195 C   0  0  0  0  0  0  0  0  0  0  0  0
   13.2032  -17.3120   24.9016 O   0  0  0  0  0  0  0  0  0  0  0  0
    9.9727  -15.5384   26.8095 C   0  0  0  0  0  0  0  0  0  0  0  0
    9.5797  -16.2816   27.9234 C   0  0  0  0  0  0  0  0  0  0  0  0
   14.5232  -15.5625   25.5137 O   0  0  0  0  0  0  0  0  0  0  0  0
  2  1  1  1
  3  2  1  0
  4  5  2  0
  4  3  1  0
  6  5  1  0
  7  6  2  0
  8  7  1  0
  8  9  2  0
  9  4  1  0
 10 11  2  0
 10  2  1  0
 12 10  1  0
 13 14  1  6
 13 12  1  0
 14 15  1  0
 15 16  2  0
 15 19  1  0
 16 17  1  0
 17 18  1  0
 19 18  2  0
 20 13  1  0
 21 20  2  0
 23 22  1  0
 23 24  2  0
 25 24  1  0
 26 25  2  0
 27 26  1  0
 28 27  1  1
 28 29  1  0
 29 20  1  0
 30 28  1  0
 30 34  1  0
 31 30  2  0
 32 33  2  0
 32 26  1  0
 33 23  1  0
M  END
$$$$
