FHY.pdb
     RDKit          3D

 34 36  0  0  1  0  0  0  0  0999 V2000
    6.4399  -17.5090   20.9516 N   0  0  0  0  0  0  0  0  0  0  0  0
    7.4716  -16.5543   21.2736 C   0  0  1  0  0  0  0  0  0  0  0  0
    6.7787  -15.3544   21.9273 C   0  0  0  0  0  0  0  0  0  0  0  0
    7.1500  -14.0852   21.2946 C   0  0  0  0  0  0  0  0  0  0  0  0
    7.6956  -14.0800   20.0212 C   0  0  0  0  0  0  0  0  0  0  0  0
    8.0296  -12.8704   19.4649 C   0  0  0  0  0  0  0  0  0  0  0  0
    7.8394  -11.6812   20.1291 C   0  0  0  0  0  0  0  0  0  0  0  0
    7.2957  -11.7114   21.3935 C   0  0  0  0  0  0  0  0  0  0  0  0
    6.9541  -12.9010   21.9712 C   0  0  0  0  0  0  0  0  0  0  0  0
    8.4323  -17.0714   22.2747 C   0  0  0  0  0  0  0  0  0  0  0  0
    7.9896  -17.7890   23.2019 O   0  0  0  0  0  0  0  0  0  0  0  0
    9.8377  -16.8113   22.2627 N   0  0  0  0  0  0  0  0  0  0  0  0
   10.7393  -17.3859   23.2283 C   0  0  1  0  0  0  0  0  0  0  0  0
   12.1185  -17.4171   22.6776 C   0  0  0  0  0  0  0  0  0  0  0  0
   12.3121  -18.2125   21.4598 C   0  0  0  0  0  0  0  0  0  0  0  0
   11.5733  -19.1888   20.8592 C   0  0  0  0  0  0  0  0  0  0  0  0
   12.2424  -19.5456   19.7186 N   0  0  0  0  0  0  0  0  0  0  0  0
   13.3488  -18.8334   19.5991 C   0  0  0  0  0  0  0  0  0  0  0  0
   13.4069  -18.0189   20.6474 N   0  0  0  0  0  0  0  0  0  0  0  0
   10.7301  -16.6898   24.5338 C   0  0  0  0  0  0  0  0  0  0  0  0
   11.1636  -15.5302   24.7402 O   0  0  0  0  0  0  0  0  0  0  0  0
    6.9164  -11.5097   26.2028 O   0  0  0  0  0  0  0  0  0  0  0  0
    7.4412  -12.7461   26.5453 C   0  0  0  0  0  0  0  0  0  0  0  0
    6.9430  -13.8632   25.9080 C   0  0  0  0  0  0  0  0  0  0  0  0
    7.4463  -15.1315   26.2252 C   0  0  0  0  0  0  0  0  0  0  0  0
    8.4369  -15.2426   27.1749 C   0  0  0  0  0  0  0  0  0  0  0  0
    8.9910  -16.5355   27.5526 C   0  0  0  0  0  0  0  0  0  0  0  0
   10.3661  -16.8281   27.0003 C   0  0  2  0  0  0  0  0  0  0  0  0
   10.1874  -17.3842   25.6476 N   0  0  0  0  0  0  0  0  0  0  0  0
   10.9983  -17.8610   27.8432 C   0  0  0  0  0  0  0  0  0  0  0  0
   11.1035  -19.0294   27.3920 O   0  0  0  0  0  0  0  0  0  0  0  0
    8.9270  -14.1081   27.8064 C   0  0  0  0  0  0  0  0  0  0  0  0
    8.4330  -12.8399   27.4980 C   0  0  0  0  0  0  0  0  0  0  0  0
   11.4859  -17.5977   29.1189 O   0  0  0  0  0  0  0  0  0  0  0  0
  2  1  1  1
  3  2  1  0
  4  5  2  0
  4  3  1  0
  6  5  1  0
  7  6  2  0
  8  7  1  0
  8  9  2  0
  9  4  1  0
 10 11  2  0
 10  2  1  0
 12 10  1  0
 13 14  1  6
 13 12  1  0
 14 15  1  0
 15 16  2  0
 15 19  1  0
 16 17  1  0
 17 18  1  0
 19 18  2  0
 20 13  1  0
 21 20  2  0
 23 22  1  0
 23 24  2  0
 25 24  1  0
 26 25  2  0
 27 26  1  0
 28 27  1  1
 28 29  1  0
 29 20  1  0
 30 28  1  0
 30 34  1  0
 31 30  2  0
 32 33  2  0
 32 26  1  0
 33 23  1  0
M  END
$$$$
