FHY.pdb
     RDKit          3D

 34 36  0  0  1  0  0  0  0  0999 V2000
    7.3760  -16.3415   20.1290 N   0  0  0  0  0  0  0  0  0  0  0  0
    8.0136  -15.6019   21.1901 C   0  0  1  0  0  0  0  0  0  0  0  0
    6.9036  -14.8698   21.9511 C   0  0  0  0  0  0  0  0  0  0  0  0
    7.4337  -13.8626   22.8750 C   0  0  0  0  0  0  0  0  0  0  0  0
    6.7641  -13.5858   24.0558 C   0  0  0  0  0  0  0  0  0  0  0  0
    7.2938  -12.6358   24.8932 C   0  0  0  0  0  0  0  0  0  0  0  0
    8.4549  -11.9618   24.5946 C   0  0  0  0  0  0  0  0  0  0  0  0
    9.1027  -12.2538   23.4154 C   0  0  0  0  0  0  0  0  0  0  0  0
    8.5979  -13.1946   22.5637 C   0  0  0  0  0  0  0  0  0  0  0  0
    8.6784  -16.4829   22.1772 C   0  0  0  0  0  0  0  0  0  0  0  0
    7.9962  -17.3851   22.7169 O   0  0  0  0  0  0  0  0  0  0  0  0
   10.0507  -16.3806   22.5636 N   0  0  0  0  0  0  0  0  0  0  0  0
   10.6840  -17.3406   23.4311 C   0  0  1  0  0  0  0  0  0  0  0  0
   11.8092  -18.0006   22.7205 C   0  0  0  0  0  0  0  0  0  0  0  0
   11.4566  -18.7676   21.5203 C   0  0  0  0  0  0  0  0  0  0  0  0
   10.3195  -19.4099   21.1275 C   0  0  0  0  0  0  0  0  0  0  0  0
   10.5683  -19.9301   19.8852 N   0  0  0  0  0  0  0  0  0  0  0  0
   11.7990  -19.6340   19.5067 C   0  0  0  0  0  0  0  0  0  0  0  0
   12.3526  -18.9285   20.4872 N   0  0  0  0  0  0  0  0  0  0  0  0
   11.1598  -16.7617   24.7069 C   0  0  0  0  0  0  0  0  0  0  0  0
   11.9657  -15.8055   24.8132 O   0  0  0  0  0  0  0  0  0  0  0  0
    7.4672  -11.7674   26.8704 O   0  0  0  0  0  0  0  0  0  0  0  0
    8.1335  -12.9416   27.1844 C   0  0  0  0  0  0  0  0  0  0  0  0
    7.6041  -14.1313   26.7296 C   0  0  0  0  0  0  0  0  0  0  0  0
    8.2469  -15.3405   27.0251 C   0  0  0  0  0  0  0  0  0  0  0  0
    9.4045  -15.3211   27.7702 C   0  0  0  0  0  0  0  0  0  0  0  0
   10.1102  -16.5472   28.1167 C   0  0  0  0  0  0  0  0  0  0  0  0
   11.2532  -16.9088   27.1979 C   0  0  2  0  0  0  0  0  0  0  0  0
   10.6680  -17.3290   25.9125 N   0  0  0  0  0  0  0  0  0  0  0  0
   11.9709  -18.0611   27.7759 C   0  0  0  0  0  0  0  0  0  0  0  0
   12.6017  -17.9036   28.8515 O   0  0  0  0  0  0  0  0  0  0  0  0
    9.9235  -14.1150   28.2197 C   0  0  0  0  0  0  0  0  0  0  0  0
    9.2916  -12.9047   27.9311 C   0  0  0  0  0  0  0  0  0  0  0  0
   11.9791  -19.3186   27.1818 O   0  0  0  0  0  0  0  0  0  0  0  0
  2  1  1  6
  3  2  1  0
  4  5  2  0
  4  3  1  0
  6  5  1  0
  7  6  2  0
  8  7  1  0
  8  9  2  0
  9  4  1  0
 10 11  2  0
 10  2  1  0
 12 10  1  0
 13 14  1  6
 13 12  1  0
 14 15  1  0
 15 16  2  0
 15 19  1  0
 16 17  1  0
 17 18  1  0
 19 18  2  0
 20 13  1  0
 21 20  2  0
 23 22  1  0
 23 24  2  0
 25 24  1  0
 26 25  2  0
 27 26  1  0
 28 27  1  1
 28 29  1  0
 29 20  1  0
 30 28  1  0
 30 34  1  0
 31 30  2  0
 32 33  2  0
 32 26  1  0
 33 23  1  0
M  END
$$$$
