DLH.pdb
     RDKit          3D

 27 27  0  0  1  0  0  0  0  0999 V2000
   23.9822  -13.9220  -19.2966 N   0  0  0  0  0  0  0  0  0  0  0  0
   23.2043  -12.7692  -19.6641 C   0  0  1  0  0  0  0  0  0  0  0  0
   21.9323  -13.2557  -20.3334 C   0  0  0  0  0  0  0  0  0  0  0  0
   22.2264  -13.7737  -21.6977 C   0  0  0  0  0  0  0  0  0  0  0  0
   23.3914  -13.7422  -22.1951 O   0  0  0  0  0  0  0  0  0  0  0  0
   22.8872  -11.9225  -18.4676 C   0  0  0  0  0  0  0  0  0  0  0  0
   21.7983  -12.0450  -17.8612 O   0  0  0  0  0  0  0  0  0  0  0  0
   21.2271  -14.3262  -22.5114 O   0  0  0  0  0  0  0  0  0  0  0  0
   27.3299  -10.2856  -15.5143 C   0  0  0  0  0  0  0  0  0  0  0  0
   25.9490  -10.7237  -15.8993 C   0  0  1  0  0  0  0  0  0  0  0  0
   25.3318  -11.3103  -14.6209 C   0  0  0  0  0  0  0  0  0  0  0  0
   25.0295   -9.6646  -16.3693 C   0  0  0  0  0  0  0  0  0  0  0  0
   23.7327  -10.0517  -16.9524 C   0  0  2  0  0  0  0  0  0  0  0  0
   23.8175  -10.9778  -18.0164 N   0  0  0  0  0  0  0  0  0  0  0  0
   22.7951   -8.9231  -17.0968 C   0  0  0  0  0  0  0  0  0  0  0  0
   23.0348   -8.0746  -18.0032 O   0  0  0  0  0  0  0  0  0  0  0  0
   21.6480   -8.6872  -16.3124 N   0  0  0  0  0  0  0  0  0  0  0  0
   20.7366   -7.5450  -16.5628 C   0  0  1  0  0  0  0  0  0  0  0  0
   19.4163   -7.7970  -15.9242 C   0  0  0  0  0  0  0  0  0  0  0  0
   18.4702   -6.7016  -16.2382 C   0  0  0  0  0  0  0  0  0  0  0  0
   18.6322   -5.8393  -17.3343 C   0  0  0  0  0  0  0  0  0  0  0  0
   17.6064   -4.9773  -17.3194 N   0  0  0  0  0  0  0  0  0  0  0  0
   16.7899   -5.2421  -16.2652 C   0  0  0  0  0  0  0  0  0  0  0  0
   17.3477   -6.2878  -15.6429 N   0  0  0  0  0  0  0  0  0  0  0  0
   21.4547   -6.3423  -16.0967 C   0  0  0  0  0  0  0  0  0  0  0  0
   22.1241   -6.2391  -15.0468 O   0  0  0  0  0  0  0  0  0  0  0  0
   21.3928   -5.1844  -16.8973 O   0  0  0  0  0  0  0  0  0  0  0  0
  2  1  1  1
  3  4  1  0
  3  2  1  0
  4  5  2  0
  6  2  1  0
  6  7  2  0
  8  4  1  0
 10  9  1  1
 10 12  1  0
 11 10  1  0
 13 12  1  6
 13 14  1  0
 14  6  1  0
 15 13  1  0
 16 15  2  0
 17 15  1  0
 18 25  1  0
 18 17  1  0
 19 20  1  0
 18 19  1  1
 20 24  1  0
 20 21  2  0
 21 22  1  0
 23 22  1  0
 24 23  2  0
 25 27  1  0
 26 25  2  0
M  END
$$$$
