DLH.pdb
     RDKit          3D

 27 27  0  0  1  0  0  0  0  0999 V2000
   22.4900  -14.5817  -17.3569 N   0  0  0  0  0  0  0  0  0  0  0  0
   22.1778  -13.3176  -17.9684 C   0  0  1  0  0  0  0  0  0  0  0  0
   20.7369  -13.3687  -18.4415 C   0  0  0  0  0  0  0  0  0  0  0  0
   20.5837  -14.3622  -19.5396 C   0  0  0  0  0  0  0  0  0  0  0  0
   19.4487  -14.7027  -19.9883 O   0  0  0  0  0  0  0  0  0  0  0  0
   22.3845  -12.1833  -17.0096 C   0  0  0  0  0  0  0  0  0  0  0  0
   21.6718  -12.0656  -15.9865 O   0  0  0  0  0  0  0  0  0  0  0  0
   21.6906  -14.9793  -20.1397 O   0  0  0  0  0  0  0  0  0  0  0  0
   27.5770  -10.1747  -16.6631 C   0  0  0  0  0  0  0  0  0  0  0  0
   26.1734  -10.5842  -16.3324 C   0  0  1  0  0  0  0  0  0  0  0  0
   26.1413  -10.7484  -14.8055 C   0  0  0  0  0  0  0  0  0  0  0  0
   25.1072   -9.6196  -16.6798 C   0  0  0  0  0  0  0  0  0  0  0  0
   23.6994  -10.0411  -16.5706 C   0  0  2  0  0  0  0  0  0  0  0  0
   23.3870  -11.2368  -17.2558 N   0  0  0  0  0  0  0  0  0  0  0  0
   22.7437   -8.9228  -16.6693 C   0  0  0  0  0  0  0  0  0  0  0  0
   22.4991   -8.4610  -17.8207 O   0  0  0  0  0  0  0  0  0  0  0  0
   22.0719   -8.3037  -15.5959 N   0  0  0  0  0  0  0  0  0  0  0  0
   21.1033   -7.1994  -15.7970 C   0  0  1  0  0  0  0  0  0  0  0  0
   19.8928   -7.4247  -14.9613 C   0  0  0  0  0  0  0  0  0  0  0  0
   18.9985   -8.4179  -15.5998 C   0  0  0  0  0  0  0  0  0  0  0  0
   19.2959   -9.0439  -16.8208 C   0  0  0  0  0  0  0  0  0  0  0  0
   18.2825   -9.8747  -17.1010 N   0  0  0  0  0  0  0  0  0  0  0  0
   17.3448   -9.8143  -16.1186 C   0  0  0  0  0  0  0  0  0  0  0  0
   17.8175   -8.9261  -15.2358 N   0  0  0  0  0  0  0  0  0  0  0  0
   21.8461   -5.9528  -15.5260 C   0  0  0  0  0  0  0  0  0  0  0  0
   22.9741   -5.8623  -14.9966 O   0  0  0  0  0  0  0  0  0  0  0  0
   21.2434   -4.7324  -15.8906 O   0  0  0  0  0  0  0  0  0  0  0  0
  2  1  1  1
  3  4  1  0
  3  2  1  0
  4  5  2  0
  6  2  1  0
  6  7  2  0
  8  4  1  0
 10  9  1  1
 10 12  1  0
 11 10  1  0
 13 12  1  6
 13 14  1  0
 14  6  1  0
 15 13  1  0
 16 15  2  0
 17 15  1  0
 18 25  1  0
 18 17  1  0
 19 20  1  0
 18 19  1  1
 20 24  1  0
 20 21  2  0
 21 22  1  0
 23 22  1  0
 24 23  2  0
 25 27  1  0
 26 25  2  0
M  END
$$$$
