DLH.pdb
     RDKit          3D

 27 27  0  0  1  0  0  0  0  0999 V2000
   22.3551  -19.8413  -15.5452 N   0  0  0  0  0  0  0  0  0  0  0  0
   21.9952  -18.9062  -16.5773 C   0  0  1  0  0  0  0  0  0  0  0  0
   20.5598  -19.1846  -16.9827 C   0  0  0  0  0  0  0  0  0  0  0  0
   20.4323  -20.5602  -17.5375 C   0  0  0  0  0  0  0  0  0  0  0  0
   19.4021  -21.2726  -17.3458 O   0  0  0  0  0  0  0  0  0  0  0  0
   22.1520  -17.4905  -16.1080 C   0  0  0  0  0  0  0  0  0  0  0  0
   21.4038  -17.0184  -15.2214 O   0  0  0  0  0  0  0  0  0  0  0  0
   21.4490  -21.1464  -18.3048 O   0  0  0  0  0  0  0  0  0  0  0  0
   27.3864  -15.5810  -16.3262 C   0  0  0  0  0  0  0  0  0  0  0  0
   25.9646  -15.8632  -15.9441 C   0  0  1  0  0  0  0  0  0  0  0  0
   25.8795  -15.5804  -14.4367 C   0  0  0  0  0  0  0  0  0  0  0  0
   24.9304  -15.0284  -16.5933 C   0  0  0  0  0  0  0  0  0  0  0  0
   23.5096  -15.3454  -16.3650 C   0  0  2  0  0  0  0  0  0  0  0  0
   23.1471  -16.6778  -16.6653 N   0  0  0  0  0  0  0  0  0  0  0  0
   22.5939  -14.2714  -16.7911 C   0  0  0  0  0  0  0  0  0  0  0  0
   22.4606  -14.0735  -18.0329 O   0  0  0  0  0  0  0  0  0  0  0  0
   21.8479  -13.4274  -15.9439 N   0  0  0  0  0  0  0  0  0  0  0  0
   20.9237  -12.3932  -16.4677 C   0  0  1  0  0  0  0  0  0  0  0  0
   19.8054  -12.1769  -15.5100 C   0  0  0  0  0  0  0  0  0  0  0  0
   18.8776  -11.1413  -16.0205 C   0  0  0  0  0  0  0  0  0  0  0  0
   18.6601  -10.9144  -17.3889 C   0  0  0  0  0  0  0  0  0  0  0  0
   17.7704   -9.9177  -17.4919 N   0  0  0  0  0  0  0  0  0  0  0  0
   17.4036   -9.4902  -16.2546 C   0  0  0  0  0  0  0  0  0  0  0  0
   18.0937  -10.2550  -15.3998 N   0  0  0  0  0  0  0  0  0  0  0  0
   21.7586  -11.2103  -16.7556 C   0  0  0  0  0  0  0  0  0  0  0  0
   22.8774  -10.9548  -16.2617 O   0  0  0  0  0  0  0  0  0  0  0  0
   21.2658  -10.2618  -17.6737 O   0  0  0  0  0  0  0  0  0  0  0  0
  2  1  1  1
  3  4  1  0
  3  2  1  0
  4  5  2  0
  6  2  1  0
  6  7  2  0
  8  4  1  0
 10  9  1  6
 10 12  1  0
 11 10  1  0
 13 12  1  6
 13 14  1  0
 14  6  1  0
 15 13  1  0
 16 15  2  0
 17 15  1  0
 18 25  1  0
 18 17  1  0
 19 20  1  0
 18 19  1  1
 20 24  1  0
 20 21  2  0
 21 22  1  0
 23 22  1  0
 24 23  2  0
 25 27  1  0
 26 25  2  0
M  END
$$$$
