DLH.pdb
     RDKit          3D

 27 27  0  0  1  0  0  0  0  0999 V2000
   25.1319  -18.0121  -18.1563 N   0  0  0  0  0  0  0  0  0  0  0  0
   24.6659  -17.7473  -16.8214 C   0  0  1  0  0  0  0  0  0  0  0  0
   23.3602  -16.9811  -16.9238 C   0  0  0  0  0  0  0  0  0  0  0  0
   23.5704  -15.6840  -17.6236 C   0  0  0  0  0  0  0  0  0  0  0  0
   24.5153  -14.8972  -17.3175 O   0  0  0  0  0  0  0  0  0  0  0  0
   24.4792  -19.0184  -16.0478 C   0  0  0  0  0  0  0  0  0  0  0  0
   24.2894  -20.1085  -16.6346 O   0  0  0  0  0  0  0  0  0  0  0  0
   22.7310  -15.2589  -18.6632 O   0  0  0  0  0  0  0  0  0  0  0  0
   25.2819  -22.2595  -11.6768 C   0  0  0  0  0  0  0  0  0  0  0  0
   24.6740  -20.9201  -11.3872 C   0  0  1  0  0  0  0  0  0  0  0  0
   25.3599  -20.4253  -10.1050 C   0  0  0  0  0  0  0  0  0  0  0  0
   24.8753  -19.8709  -12.4102 C   0  0  0  0  0  0  0  0  0  0  0  0
   24.1938  -20.0009  -13.7103 C   0  0  2  0  0  0  0  0  0  0  0  0
   24.5155  -18.9939  -14.6480 N   0  0  0  0  0  0  0  0  0  0  0  0
   22.7808  -20.4048  -13.5933 C   0  0  0  0  0  0  0  0  0  0  0  0
   22.0320  -19.7080  -12.8498 O   0  0  0  0  0  0  0  0  0  0  0  0
   22.1738  -21.5069  -14.2285 N   0  0  0  0  0  0  0  0  0  0  0  0
   20.7230  -21.7897  -14.1125 C   0  0  1  0  0  0  0  0  0  0  0  0
   20.2591  -22.5666  -15.2939 C   0  0  0  0  0  0  0  0  0  0  0  0
   19.9905  -21.6632  -16.4364 C   0  0  0  0  0  0  0  0  0  0  0  0
   20.1102  -20.2668  -16.3542 C   0  0  0  0  0  0  0  0  0  0  0  0
   19.7970  -19.7675  -17.5576 N   0  0  0  0  0  0  0  0  0  0  0  0
   19.4805  -20.7757  -18.4128 C   0  0  0  0  0  0  0  0  0  0  0  0
   19.6112  -21.8985  -17.6959 N   0  0  0  0  0  0  0  0  0  0  0  0
   20.5403  -22.4453  -12.8025 C   0  0  0  0  0  0  0  0  0  0  0  0
   21.3164  -23.2672  -12.2703 O   0  0  0  0  0  0  0  0  0  0  0  0
   19.3840  -22.1297  -12.0616 O   0  0  0  0  0  0  0  0  0  0  0  0
  2  1  1  6
  3  4  1  0
  3  2  1  0
  4  5  2  0
  6  2  1  0
  6  7  2  0
  8  4  1  0
 10  9  1  6
 10 12  1  0
 11 10  1  0
 13 12  1  1
 13 14  1  0
 14  6  1  0
 15 13  1  0
 16 15  2  0
 17 15  1  0
 18 25  1  0
 18 17  1  0
 19 20  1  0
 18 19  1  6
 20 24  1  0
 20 21  2  0
 21 22  1  0
 23 22  1  0
 24 23  2  0
 25 27  1  0
 26 25  2  0
M  END
$$$$
