DLH.pdb
     RDKit          3D

 27 27  0  0  1  0  0  0  0  0999 V2000
   19.0521  -15.7012  -16.3902 N   0  0  0  0  0  0  0  0  0  0  0  0
   19.1517  -14.4574  -17.1058 C   0  0  1  0  0  0  0  0  0  0  0  0
   17.7529  -14.0435  -17.5237 C   0  0  0  0  0  0  0  0  0  0  0  0
   17.1675  -15.0487  -18.4527 C   0  0  0  0  0  0  0  0  0  0  0  0
   16.1232  -15.7061  -18.1651 O   0  0  0  0  0  0  0  0  0  0  0  0
   19.7933  -13.3949  -16.2642 C   0  0  0  0  0  0  0  0  0  0  0  0
   19.2832  -13.0373  -15.1776 O   0  0  0  0  0  0  0  0  0  0  0  0
   17.7417  -15.3257  -19.7016 O   0  0  0  0  0  0  0  0  0  0  0  0
   25.2326  -13.4934  -15.7038 C   0  0  0  0  0  0  0  0  0  0  0  0
   23.7542  -13.2832  -15.5723 C   0  0  1  0  0  0  0  0  0  0  0  0
   23.4751  -13.2552  -14.0621 C   0  0  0  0  0  0  0  0  0  0  0  0
   23.2165  -12.0225  -16.1285 C   0  0  0  0  0  0  0  0  0  0  0  0
   21.7632  -11.7835  -16.0815 C   0  0  2  0  0  0  0  0  0  0  0  0
   20.9803  -12.7882  -16.6934 N   0  0  0  0  0  0  0  0  0  0  0  0
   21.3924  -10.3781  -16.3277 C   0  0  0  0  0  0  0  0  0  0  0  0
   21.5750   -9.9192  -17.4918 O   0  0  0  0  0  0  0  0  0  0  0  0
   20.8546   -9.4804  -15.3834 N   0  0  0  0  0  0  0  0  0  0  0  0
   20.4510   -8.0995  -15.7414 C   0  0  1  0  0  0  0  0  0  0  0  0
   19.1197   -7.7890  -15.1534 C   0  0  0  0  0  0  0  0  0  0  0  0
   18.0530   -8.5340  -15.8610 C   0  0  0  0  0  0  0  0  0  0  0  0
   17.9886   -8.6371  -17.2598 C   0  0  0  0  0  0  0  0  0  0  0  0
   16.9093   -9.3738  -17.5566 N   0  0  0  0  0  0  0  0  0  0  0  0
   16.2737   -9.7508  -16.4155 C   0  0  0  0  0  0  0  0  0  0  0  0
   16.9971   -9.2240  -15.4201 N   0  0  0  0  0  0  0  0  0  0  0  0
   21.5610   -7.2270  -15.3105 C   0  0  0  0  0  0  0  0  0  0  0  0
   22.6408   -7.5975  -14.8027 O   0  0  0  0  0  0  0  0  0  0  0  0
   21.4107   -5.8359  -15.4773 O   0  0  0  0  0  0  0  0  0  0  0  0
  2  1  1  1
  3  4  1  0
  3  2  1  0
  4  5  2  0
  6  2  1  0
  6  7  2  0
  8  4  1  0
 10  9  1  1
 10 12  1  0
 11 10  1  0
 13 12  1  6
 13 14  1  0
 14  6  1  0
 15 13  1  0
 16 15  2  0
 17 15  1  0
 18 25  1  0
 18 17  1  0
 19 20  1  0
 18 19  1  1
 20 24  1  0
 20 21  2  0
 21 22  1  0
 23 22  1  0
 24 23  2  0
 25 27  1  0
 26 25  2  0
M  END
$$$$
