DLH.pdb
     RDKit          3D

 27 27  0  0  1  0  0  0  0  0999 V2000
   13.4042  -22.7405   -1.8089 N   0  0  0  0  0  0  0  0  0  0  0  0
   14.5366  -23.0005   -0.9608 C   0  0  1  0  0  0  0  0  0  0  0  0
   15.7955  -22.7251   -1.7619 C   0  0  0  0  0  0  0  0  0  0  0  0
   15.9158  -23.6878   -2.8911 C   0  0  0  0  0  0  0  0  0  0  0  0
   16.1012  -24.9273   -2.7046 O   0  0  0  0  0  0  0  0  0  0  0  0
   14.4958  -22.1541    0.2765 C   0  0  0  0  0  0  0  0  0  0  0  0
   13.7382  -21.1597    0.3529 O   0  0  0  0  0  0  0  0  0  0  0  0
   15.8316  -23.2748   -4.2284 O   0  0  0  0  0  0  0  0  0  0  0  0
   14.9528  -24.8850    5.0696 C   0  0  0  0  0  0  0  0  0  0  0  0
   14.6205  -23.8892    3.9995 C   0  0  1  0  0  0  0  0  0  0  0  0
   13.3423  -23.1834    4.4766 C   0  0  0  0  0  0  0  0  0  0  0  0
   15.6238  -22.8312    3.7505 C   0  0  0  0  0  0  0  0  0  0  0  0
   15.4007  -21.8809    2.6466 C   0  0  2  0  0  0  0  0  0  0  0  0
   15.3150  -22.4736    1.3666 N   0  0  0  0  0  0  0  0  0  0  0  0
   16.1818  -20.6374    2.7771 C   0  0  0  0  0  0  0  0  0  0  0  0
   17.3846  -20.6575    2.3874 O   0  0  0  0  0  0  0  0  0  0  0  0
   15.7202  -19.4150    3.3055 N   0  0  0  0  0  0  0  0  0  0  0  0
   16.5669  -18.1987    3.3484 C   0  0  1  0  0  0  0  0  0  0  0  0
   15.7677  -17.0071    2.9536 C   0  0  0  0  0  0  0  0  0  0  0  0
   16.6146  -15.7920    2.9494 C   0  0  0  0  0  0  0  0  0  0  0  0
   18.0165  -15.8346    3.0133 C   0  0  0  0  0  0  0  0  0  0  0  0
   18.4560  -14.5689    2.9884 N   0  0  0  0  0  0  0  0  0  0  0  0
   17.4040  -13.7113    2.9117 C   0  0  0  0  0  0  0  0  0  0  0  0
   16.3161  -14.4909    2.8897 N   0  0  0  0  0  0  0  0  0  0  0  0
   17.1515  -18.1580    4.7033 C   0  0  0  0  0  0  0  0  0  0  0  0
   17.8481  -17.2381    5.1826 O   0  0  0  0  0  0  0  0  0  0  0  0
   16.9152  -19.2533    5.5577 O   0  0  0  0  0  0  0  0  0  0  0  0
  2  1  1  6
  3  4  1  0
  3  2  1  0
  4  5  2  0
  6  2  1  0
  6  7  2  0
  8  4  1  0
 10  9  1  1
 10 12  1  0
 11 10  1  0
 13 12  1  1
 13 14  1  0
 14  6  1  0
 15 13  1  0
 16 15  2  0
 17 15  1  0
 18 25  1  0
 18 17  1  0
 19 20  1  0
 18 19  1  1
 20 24  1  0
 20 21  2  0
 21 22  1  0
 23 22  1  0
 24 23  2  0
 25 27  1  0
 26 25  2  0
M  END
$$$$
