DLH.pdb
     RDKit          3D

 27 27  0  0  1  0  0  0  0  0999 V2000
   25.1947  -18.4931  -15.4735 N   0  0  0  0  0  0  0  0  0  0  0  0
   24.8163  -19.6923  -16.1722 C   0  0  1  0  0  0  0  0  0  0  0  0
   26.0758  -20.3244  -16.7350 C   0  0  0  0  0  0  0  0  0  0  0  0
   26.6692  -19.4556  -17.7883 C   0  0  0  0  0  0  0  0  0  0  0  0
   26.1284  -18.3683  -18.1502 O   0  0  0  0  0  0  0  0  0  0  0  0
   24.0995  -20.6476  -15.2652 C   0  0  0  0  0  0  0  0  0  0  0  0
   23.7209  -21.7678  -15.6780 O   0  0  0  0  0  0  0  0  0  0  0  0
   27.8630  -19.7938  -18.4414 O   0  0  0  0  0  0  0  0  0  0  0  0
   25.7122  -20.6691  -10.0145 C   0  0  0  0  0  0  0  0  0  0  0  0
   25.1849  -20.9436  -11.3907 C   0  0  1  0  0  0  0  0  0  0  0  0
   25.5545  -22.4044  -11.6892 C   0  0  0  0  0  0  0  0  0  0  0  0
   23.7211  -20.8293  -11.5696 C   0  0  0  0  0  0  0  0  0  0  0  0
   23.1523  -20.9848  -12.9201 C   0  0  2  0  0  0  0  0  0  0  0  0
   23.8454  -20.2883  -13.9356 N   0  0  0  0  0  0  0  0  0  0  0  0
   21.6787  -20.9462  -12.9431 C   0  0  0  0  0  0  0  0  0  0  0  0
   21.1131  -19.9026  -12.5074 O   0  0  0  0  0  0  0  0  0  0  0  0
   20.8253  -21.9705  -13.4009 N   0  0  0  0  0  0  0  0  0  0  0  0
   19.3718  -21.7607  -13.6042 C   0  0  1  0  0  0  0  0  0  0  0  0
   19.0779  -21.6002  -15.0541 C   0  0  0  0  0  0  0  0  0  0  0  0
   19.1640  -20.1746  -15.4467 C   0  0  0  0  0  0  0  0  0  0  0  0
   19.3579  -19.1355  -14.5227 C   0  0  0  0  0  0  0  0  0  0  0  0
   19.3873  -17.9874  -15.2132 N   0  0  0  0  0  0  0  0  0  0  0  0
   19.2213  -18.2364  -16.5393 C   0  0  0  0  0  0  0  0  0  0  0  0
   19.0916  -19.5653  -16.6337 N   0  0  0  0  0  0  0  0  0  0  0  0
   18.7003  -22.8928  -12.9358 C   0  0  0  0  0  0  0  0  0  0  0  0
   18.4459  -22.9884  -11.7163 O   0  0  0  0  0  0  0  0  0  0  0  0
   18.2986  -23.9848  -13.7304 O   0  0  0  0  0  0  0  0  0  0  0  0
  2  1  1  1
  3  4  1  0
  3  2  1  0
  4  5  2  0
  6  2  1  0
  6  7  2  0
  8  4  1  0
 10  9  1  1
 10 12  1  0
 11 10  1  0
 13 12  1  1
 13 14  1  0
 14  6  1  0
 15 13  1  0
 16 15  2  0
 17 15  1  0
 18 25  1  0
 18 17  1  0
 19 20  1  0
 18 19  1  6
 20 24  1  0
 20 21  2  0
 21 22  1  0
 23 22  1  0
 24 23  2  0
 25 27  1  0
 26 25  2  0
M  END
$$$$
