DLH.pdb
     RDKit          3D

 27 27  0  0  1  0  0  0  0  0999 V2000
   17.3312  -12.0079  -14.6633 N   0  0  0  0  0  0  0  0  0  0  0  0
   17.1328  -10.6003  -14.8834 C   0  0  1  0  0  0  0  0  0  0  0  0
   15.6462  -10.3596  -15.0694 C   0  0  0  0  0  0  0  0  0  0  0  0
   15.1711  -10.9852  -16.3340 C   0  0  0  0  0  0  0  0  0  0  0  0
   14.3243  -11.9277  -16.3443 O   0  0  0  0  0  0  0  0  0  0  0  0
   17.6653   -9.7901  -13.7393 C   0  0  0  0  0  0  0  0  0  0  0  0
   17.4242  -10.1126  -12.5533 O   0  0  0  0  0  0  0  0  0  0  0  0
   15.6366  -10.5655  -17.5883 O   0  0  0  0  0  0  0  0  0  0  0  0
   22.6079   -7.3744  -14.4916 C   0  0  0  0  0  0  0  0  0  0  0  0
   21.3818   -8.0269  -13.9276 C   0  0  1  0  0  0  0  0  0  0  0  0
   21.8458   -8.7387  -12.6480 C   0  0  0  0  0  0  0  0  0  0  0  0
   20.2767   -7.1247  -13.5366 C   0  0  0  0  0  0  0  0  0  0  0  0
   18.9975   -7.7104  -13.0985 C   0  0  2  0  0  0  0  0  0  0  0  0
   18.4439   -8.6539  -13.9929 N   0  0  0  0  0  0  0  0  0  0  0  0
   18.0850   -6.7301  -12.4821 C   0  0  0  0  0  0  0  0  0  0  0  0
   17.3285   -6.0699  -13.2507 O   0  0  0  0  0  0  0  0  0  0  0  0
   17.9739   -6.4455  -11.1061 N   0  0  0  0  0  0  0  0  0  0  0  0
   17.1343   -5.3380  -10.5900 C   0  0  1  0  0  0  0  0  0  0  0  0
   16.7105   -5.6277   -9.1933 C   0  0  0  0  0  0  0  0  0  0  0  0
   15.6025   -6.6105   -9.1801 C   0  0  0  0  0  0  0  0  0  0  0  0
   14.9900   -7.0908  -10.3486 C   0  0  0  0  0  0  0  0  0  0  0  0
   14.0378   -7.9559   -9.9737 N   0  0  0  0  0  0  0  0  0  0  0  0
   14.0064   -8.0564   -8.6183 C   0  0  0  0  0  0  0  0  0  0  0  0
   14.9653   -7.2304   -8.1825 N   0  0  0  0  0  0  0  0  0  0  0  0
   17.9264   -4.1063  -10.7769 C   0  0  0  0  0  0  0  0  0  0  0  0
   19.1047   -4.0379  -11.1864 O   0  0  0  0  0  0  0  0  0  0  0  0
   17.3149   -2.8748  -10.4687 O   0  0  0  0  0  0  0  0  0  0  0  0
  2  1  1  1
  3  4  1  0
  3  2  1  0
  4  5  2  0
  6  2  1  0
  6  7  2  0
  8  4  1  0
 10  9  1  1
 10 12  1  0
 11 10  1  0
 13 12  1  6
 13 14  1  0
 14  6  1  0
 15 13  1  0
 16 15  2  0
 17 15  1  0
 18 25  1  0
 18 17  1  0
 19 20  1  0
 18 19  1  1
 20 24  1  0
 20 21  2  0
 21 22  1  0
 23 22  1  0
 24 23  2  0
 25 27  1  0
 26 25  2  0
M  END
$$$$
