DLH.pdb
     RDKit          3D

 27 27  0  0  1  0  0  0  0  0999 V2000
   26.8359  -35.7171   -6.5467 N   0  0  0  0  0  0  0  0  0  0  0  0
   27.4784  -34.7365   -5.7131 C   0  0  1  0  0  0  0  0  0  0  0  0
   26.4633  -34.2474   -4.6968 C   0  0  0  0  0  0  0  0  0  0  0  0
   25.4042  -33.4416   -5.3641 C   0  0  0  0  0  0  0  0  0  0  0  0
   25.3552  -33.3009   -6.6224 O   0  0  0  0  0  0  0  0  0  0  0  0
   28.6843  -35.3090   -5.0297 C   0  0  0  0  0  0  0  0  0  0  0  0
   28.6625  -36.4625   -4.5424 O   0  0  0  0  0  0  0  0  0  0  0  0
   24.3992  -32.7904   -4.6347 O   0  0  0  0  0  0  0  0  0  0  0  0
   33.6017  -32.8595   -6.2807 C   0  0  0  0  0  0  0  0  0  0  0  0
   32.6347  -33.9342   -5.8841 C   0  0  1  0  0  0  0  0  0  0  0  0
   33.3928  -35.2577   -6.0663 C   0  0  0  0  0  0  0  0  0  0  0  0
   32.1569  -33.9060   -4.4845 C   0  0  0  0  0  0  0  0  0  0  0  0
   30.9927  -34.7282   -4.1106 C   0  0  2  0  0  0  0  0  0  0  0  0
   29.8557  -34.5479   -4.9301 N   0  0  0  0  0  0  0  0  0  0  0  0
   30.7826  -34.8183   -2.6541 C   0  0  0  0  0  0  0  0  0  0  0  0
   29.9646  -34.0094   -2.1290 O   0  0  0  0  0  0  0  0  0  0  0  0
   31.4144  -35.7212   -1.7753 N   0  0  0  0  0  0  0  0  0  0  0  0
   31.1064  -35.7646   -0.3257 C   0  0  1  0  0  0  0  0  0  0  0  0
   29.8098  -36.4593   -0.1006 C   0  0  0  0  0  0  0  0  0  0  0  0
   29.5043  -36.5324    1.3468 C   0  0  0  0  0  0  0  0  0  0  0  0
   30.2693  -35.8783    2.3257 C   0  0  0  0  0  0  0  0  0  0  0  0
   29.7174  -36.1553    3.5149 N   0  0  0  0  0  0  0  0  0  0  0  0
   28.6324  -36.9575    3.3500 C   0  0  0  0  0  0  0  0  0  0  0  0
   28.5412  -37.1581    2.0297 N   0  0  0  0  0  0  0  0  0  0  0  0
   32.2829  -36.3781    0.3215 C   0  0  0  0  0  0  0  0  0  0  0  0
   33.1133  -37.1393   -0.2189 O   0  0  0  0  0  0  0  0  0  0  0  0
   32.5118  -36.0927    1.6823 O   0  0  0  0  0  0  0  0  0  0  0  0
  2  1  1  1
  3  4  1  0
  3  2  1  0
  4  5  2  0
  6  2  1  0
  6  7  2  0
  8  4  1  0
 10  9  1  1
 10 12  1  0
 11 10  1  0
 13 12  1  1
 13 14  1  0
 14  6  1  0
 15 13  1  0
 16 15  2  0
 17 15  1  0
 18 25  1  0
 18 17  1  0
 19 20  1  0
 18 19  1  6
 20 24  1  0
 20 21  2  0
 21 22  1  0
 23 22  1  0
 24 23  2  0
 25 27  1  0
 26 25  2  0
M  END
$$$$
