MPE.pdb
     RDKit          3D

 25 25  0  0  1  0  0  0  0  0999 V2000
    8.3436  -12.7586   28.3780 C   0  0  0  0  0  0  0  0  0  0  0  0
    7.6188  -13.0464   26.7326 S   0  0  0  0  0  0  0  0  0  0  0  0
    6.9216  -14.7045   26.6665 C   0  0  0  0  0  0  0  0  0  0  0  0
    6.2900  -15.0457   25.3501 C   0  0  0  0  0  0  0  0  0  0  0  0
    6.3464  -16.5395   25.0324 C   0  0  2  0  0  0  0  0  0  0  0  0
    6.5739  -17.2790   26.2151 N   0  0  0  0  0  0  0  0  0  0  0  0
    7.2896  -16.7480   23.9217 C   0  0  0  0  0  0  0  0  0  0  0  0
    7.8379  -17.8793   23.8791 O   0  0  0  0  0  0  0  0  0  0  0  0
    7.5957  -15.7939   22.9523 N   0  0  0  0  0  0  0  0  0  0  0  0
    6.9248  -14.4811   22.8673 C   0  0  0  0  0  0  0  0  0  0  0  0
    7.0406  -14.0412   21.4433 C   0  0  0  0  0  0  0  0  0  0  0  0
    7.9706  -14.9917   20.7627 C   0  0  0  0  0  0  0  0  0  0  0  0
    8.5450  -15.8634   21.8972 C   0  0  1  0  0  0  0  0  0  0  0  0
    9.9008  -15.3815   22.2715 C   0  0  0  0  0  0  0  0  0  0  0  0
   10.0786  -14.3253   22.9345 O   0  0  0  0  0  0  0  0  0  0  0  0
   11.0472  -16.1125   21.8839 N   0  0  0  0  0  0  0  0  0  0  0  0
   12.1402  -16.4483   22.7448 C   0  0  1  0  0  0  0  0  0  0  0  0
   11.7185  -17.3967   23.8591 C   0  0  0  0  0  0  0  0  0  0  0  0
   12.8447  -17.6876   24.8003 C   0  0  0  0  0  0  0  0  0  0  0  0
   12.3614  -18.5498   25.9200 C   0  0  0  0  0  0  0  0  0  0  0  0
   11.1450  -18.8880   25.9626 O   0  0  0  0  0  0  0  0  0  0  0  0
   13.1727  -17.1492   21.9554 C   0  0  0  0  0  0  0  0  0  0  0  0
   14.4995  -16.8326   22.1466 O   0  0  0  0  0  0  0  0  0  0  0  0
   13.2061  -18.9974   26.9242 O   0  0  0  0  0  0  0  0  0  0  0  0
   12.8856  -18.0278   21.1116 O   0  0  0  0  0  0  0  0  0  0  0  0
  2  1  1  0
  3  2  1  0
  4  3  1  0
  5  4  1  0
  5  6  1  1
  7  8  2  0
  7  5  1  0
  9  7  1  0
 10  9  1  0
 11 10  1  0
 12 11  1  0
 12 13  1  0
 13  9  1  0
 13 14  1  1
 15 14  2  0
 16 14  1  0
 17 16  1  0
 17 18  1  1
 19 18  1  0
 20 19  1  0
 20 21  2  0
 22 17  1  0
 23 22  1  0
 24 20  1  0
 25 22  2  0
M  END
$$$$
