MPE.pdb
     RDKit          3D

 25 25  0  0  1  0  0  0  0  0999 V2000
    6.1997  -10.8937   27.9650 C   0  0  0  0  0  0  0  0  0  0  0  0
    7.3384  -11.9605   27.0264 S   0  0  0  0  0  0  0  0  0  0  0  0
    6.4100  -13.2955   26.2548 C   0  0  0  0  0  0  0  0  0  0  0  0
    7.2583  -14.2502   25.4693 C   0  0  0  0  0  0  0  0  0  0  0  0
    6.4546  -15.3997   24.8624 C   0  0  2  0  0  0  0  0  0  0  0  0
    5.7911  -16.1194   25.8818 N   0  0  0  0  0  0  0  0  0  0  0  0
    7.3356  -16.1672   23.9672 C   0  0  0  0  0  0  0  0  0  0  0  0
    7.5604  -17.3555   24.3131 O   0  0  0  0  0  0  0  0  0  0  0  0
    7.9121  -15.6654   22.8012 N   0  0  0  0  0  0  0  0  0  0  0  0
    7.6372  -14.3116   22.2792 C   0  0  0  0  0  0  0  0  0  0  0  0
    7.8944  -14.3682   20.8077 C   0  0  0  0  0  0  0  0  0  0  0  0
    8.5318  -15.6886   20.5221 C   0  0  0  0  0  0  0  0  0  0  0  0
    8.8208  -16.2963   21.9093 C   0  0  1  0  0  0  0  0  0  0  0  0
   10.2511  -16.0974   22.2631 C   0  0  0  0  0  0  0  0  0  0  0  0
   10.7390  -14.9547   22.4701 O   0  0  0  0  0  0  0  0  0  0  0  0
   11.1163  -17.2097   22.3780 N   0  0  0  0  0  0  0  0  0  0  0  0
   12.3547  -17.2194   23.0954 C   0  0  1  0  0  0  0  0  0  0  0  0
   12.3969  -18.3208   24.1463 C   0  0  0  0  0  0  0  0  0  0  0  0
   11.4040  -18.0862   25.2407 C   0  0  0  0  0  0  0  0  0  0  0  0
   11.4969  -19.1793   26.2541 C   0  0  0  0  0  0  0  0  0  0  0  0
   12.4026  -20.0530   26.1435 O   0  0  0  0  0  0  0  0  0  0  0  0
   13.4542  -17.4910   22.1478 C   0  0  0  0  0  0  0  0  0  0  0  0
   14.7574  -17.3149   22.5570 O   0  0  0  0  0  0  0  0  0  0  0  0
   10.6179  -19.2721   27.3223 O   0  0  0  0  0  0  0  0  0  0  0  0
   13.2449  -17.8787   20.9763 O   0  0  0  0  0  0  0  0  0  0  0  0
  2  1  1  0
  3  2  1  0
  4  3  1  0
  5  4  1  0
  5  6  1  1
  7  8  2  0
  7  5  1  0
  9  7  1  0
 10  9  1  0
 11 10  1  0
 12 11  1  0
 12 13  1  0
 13  9  1  0
 13 14  1  1
 15 14  2  0
 16 14  1  0
 17 16  1  0
 17 18  1  1
 19 18  1  0
 20 19  1  0
 20 21  2  0
 22 17  1  0
 23 22  1  0
 24 20  1  0
 25 22  2  0
M  END
$$$$
