MPE.pdb
     RDKit          3D

 25 25  0  0  1  0  0  0  0  0999 V2000
    6.3975  -12.0703   26.1831 C   0  0  0  0  0  0  0  0  0  0  0  0
    7.0446  -13.2912   27.3689 S   0  0  0  0  0  0  0  0  0  0  0  0
    7.1902  -14.8928   26.5607 C   0  0  0  0  0  0  0  0  0  0  0  0
    6.2763  -15.0648   25.3846 C   0  0  0  0  0  0  0  0  0  0  0  0
    6.2832  -16.4885   24.8288 C   0  0  2  0  0  0  0  0  0  0  0  0
    6.2834  -17.4233   25.8887 N   0  0  0  0  0  0  0  0  0  0  0  0
    7.3662  -16.6005   23.8382 C   0  0  0  0  0  0  0  0  0  0  0  0
    7.9810  -17.6978   23.8266 O   0  0  0  0  0  0  0  0  0  0  0  0
    7.7324  -15.5929   22.9470 N   0  0  0  0  0  0  0  0  0  0  0  0
    7.0684  -14.2747   22.8970 C   0  0  0  0  0  0  0  0  0  0  0  0
    7.2730  -13.7533   21.5111 C   0  0  0  0  0  0  0  0  0  0  0  0
    8.2435  -14.6660   20.8355 C   0  0  0  0  0  0  0  0  0  0  0  0
    8.7457  -15.6045   21.9509 C   0  0  1  0  0  0  0  0  0  0  0  0
   10.0756  -15.1504   22.4364 C   0  0  0  0  0  0  0  0  0  0  0  0
   10.2613  -13.9955   22.9038 O   0  0  0  0  0  0  0  0  0  0  0  0
   11.1872  -16.0224   22.3839 N   0  0  0  0  0  0  0  0  0  0  0  0
   12.1709  -16.1661   23.4136 C   0  0  1  0  0  0  0  0  0  0  0  0
   11.6816  -17.0531   24.5506 C   0  0  0  0  0  0  0  0  0  0  0  0
   12.7063  -17.1898   25.6324 C   0  0  0  0  0  0  0  0  0  0  0  0
   12.2091  -18.1214   26.6885 C   0  0  0  0  0  0  0  0  0  0  0  0
   11.0808  -18.6720   26.5495 O   0  0  0  0  0  0  0  0  0  0  0  0
   13.3661  -16.8210   22.8450 C   0  0  0  0  0  0  0  0  0  0  0  0
   14.5971  -16.5973   23.4210 O   0  0  0  0  0  0  0  0  0  0  0  0
   12.9468  -18.4073   27.8271 O   0  0  0  0  0  0  0  0  0  0  0  0
   13.3026  -17.5785   21.8507 O   0  0  0  0  0  0  0  0  0  0  0  0
  2  1  1  0
  3  2  1  0
  4  3  1  0
  5  4  1  0
  5  6  1  1
  7  8  2  0
  7  5  1  0
  9  7  1  0
 10  9  1  0
 11 10  1  0
 12 11  1  0
 12 13  1  0
 13  9  1  0
 13 14  1  1
 15 14  2  0
 16 14  1  0
 17 16  1  0
 17 18  1  1
 19 18  1  0
 20 19  1  0
 20 21  2  0
 22 17  1  0
 23 22  1  0
 24 20  1  0
 25 22  2  0
M  END
$$$$
