MPE.pdb
     RDKit          3D

 25 25  0  0  1  0  0  0  0  0999 V2000
    6.9802  -11.8695   27.4384 C   0  0  0  0  0  0  0  0  0  0  0  0
    7.9530  -13.4084   27.4051 S   0  0  0  0  0  0  0  0  0  0  0  0
    6.8873  -14.7811   26.9364 C   0  0  0  0  0  0  0  0  0  0  0  0
    6.6205  -14.8672   25.4635 C   0  0  0  0  0  0  0  0  0  0  0  0
    6.3312  -16.2923   24.9933 C   0  0  2  0  0  0  0  0  0  0  0  0
    6.3068  -17.1725   26.0988 N   0  0  0  0  0  0  0  0  0  0  0  0
    7.2561  -16.6217   23.8967 C   0  0  0  0  0  0  0  0  0  0  0  0
    7.5929  -17.8309   23.8142 O   0  0  0  0  0  0  0  0  0  0  0  0
    7.7594  -15.6994   22.9804 N   0  0  0  0  0  0  0  0  0  0  0  0
    7.2709  -14.3095   22.8784 C   0  0  0  0  0  0  0  0  0  0  0  0
    7.5574  -13.8647   21.4804 C   0  0  0  0  0  0  0  0  0  0  0  0
    8.4107  -14.9161   20.8494 C   0  0  0  0  0  0  0  0  0  0  0  0
    8.7748  -15.8736   22.0016 C   0  0  1  0  0  0  0  0  0  0  0  0
   10.1460  -15.5776   22.4942 C   0  0  0  0  0  0  0  0  0  0  0  0
   10.4208  -14.5196   23.1201 O   0  0  0  0  0  0  0  0  0  0  0  0
   11.1967  -16.4958   22.2666 N   0  0  0  0  0  0  0  0  0  0  0  0
   12.4725  -16.4649   22.9146 C   0  0  1  0  0  0  0  0  0  0  0  0
   12.6203  -17.5831   23.9377 C   0  0  0  0  0  0  0  0  0  0  0  0
   11.5599  -17.5193   24.9914 C   0  0  0  0  0  0  0  0  0  0  0  0
   11.7076  -18.6705   25.9313 C   0  0  0  0  0  0  0  0  0  0  0  0
   12.5530  -19.5743   25.6779 O   0  0  0  0  0  0  0  0  0  0  0  0
   13.5279  -16.6699   21.9023 C   0  0  0  0  0  0  0  0  0  0  0  0
   13.1763  -17.0650   20.6307 O   0  0  0  0  0  0  0  0  0  0  0  0
   10.9440  -18.7856   27.0828 O   0  0  0  0  0  0  0  0  0  0  0  0
   14.7408  -16.4967   22.1583 O   0  0  0  0  0  0  0  0  0  0  0  0
  2  1  1  0
  3  2  1  0
  4  3  1  0
  5  4  1  0
  5  6  1  1
  7  8  2  0
  7  5  1  0
  9  7  1  0
 10  9  1  0
 11 10  1  0
 12 11  1  0
 12 13  1  0
 13  9  1  0
 13 14  1  1
 15 14  2  0
 16 14  1  0
 17 16  1  0
 17 18  1  1
 19 18  1  0
 20 19  1  0
 20 21  2  0
 22 17  1  0
 23 22  1  0
 24 20  1  0
 25 22  2  0
M  END
$$$$
