MPE.pdb
     RDKit          3D

 25 25  0  0  1  0  0  0  0  0999 V2000
    7.8221  -19.3439   22.8757 C   0  0  0  0  0  0  0  0  0  0  0  0
    6.5139  -18.1001   22.6358 S   0  0  0  0  0  0  0  0  0  0  0  0
    7.2617  -16.4760   22.4297 C   0  0  0  0  0  0  0  0  0  0  0  0
    6.2732  -15.3487   22.4229 C   0  0  0  0  0  0  0  0  0  0  0  0
    6.9371  -13.9754   22.3279 C   0  0  2  0  0  0  0  0  0  0  0  0
    7.4450  -13.7710   21.0249 N   0  0  0  0  0  0  0  0  0  0  0  0
    7.8853  -13.8341   23.4448 C   0  0  0  0  0  0  0  0  0  0  0  0
    9.1024  -13.9222   23.1393 O   0  0  0  0  0  0  0  0  0  0  0  0
    7.5194  -13.6167   24.7724 N   0  0  0  0  0  0  0  0  0  0  0  0
    6.1154  -13.5570   25.2264 C   0  0  0  0  0  0  0  0  0  0  0  0
    6.1113  -12.7317   26.4728 C   0  0  0  0  0  0  0  0  0  0  0  0
    7.5372  -12.5075   26.8576 C   0  0  0  0  0  0  0  0  0  0  0  0
    8.3497  -13.4090   25.9067 C   0  0  1  0  0  0  0  0  0  0  0  0
    8.7423  -14.6611   26.6056 C   0  0  0  0  0  0  0  0  0  0  0  0
    7.9351  -15.6112   26.7854 O   0  0  0  0  0  0  0  0  0  0  0  0
   10.0591  -14.8187   27.0957 N   0  0  0  0  0  0  0  0  0  0  0  0
   10.8486  -16.0059   26.9691 C   0  0  1  0  0  0  0  0  0  0  0  0
   12.2057  -15.7242   26.3383 C   0  0  0  0  0  0  0  0  0  0  0  0
   13.0309  -16.9659   26.2118 C   0  0  0  0  0  0  0  0  0  0  0  0
   14.3427  -16.6417   25.5756 C   0  0  0  0  0  0  0  0  0  0  0  0
   14.6170  -15.4408   25.2958 O   0  0  0  0  0  0  0  0  0  0  0  0
   11.1090  -16.5527   28.3159 C   0  0  0  0  0  0  0  0  0  0  0  0
   11.6743  -17.8026   28.4395 O   0  0  0  0  0  0  0  0  0  0  0  0
   15.2799  -17.6191   25.2777 O   0  0  0  0  0  0  0  0  0  0  0  0
   10.8330  -15.9180   29.3587 O   0  0  0  0  0  0  0  0  0  0  0  0
  2  1  1  0
  3  2  1  0
  4  3  1  0
  5  4  1  0
  5  6  1  6
  7  8  2  0
  7  5  1  0
  9  7  1  0
 10  9  1  0
 11 10  1  0
 12 11  1  0
 12 13  1  0
 13  9  1  0
 13 14  1  1
 15 14  2  0
 16 14  1  0
 17 16  1  0
 17 18  1  1
 19 18  1  0
 20 19  1  0
 20 21  2  0
 22 17  1  0
 23 22  1  0
 24 20  1  0
 25 22  2  0
M  END
$$$$
