MPE.pdb
     RDKit          3D

 25 25  0  0  1  0  0  0  0  0999 V2000
    8.0298  -12.2525   27.9211 C   0  0  0  0  0  0  0  0  0  0  0  0
    6.5735  -11.9664   26.8661 S   0  0  0  0  0  0  0  0  0  0  0  0
    5.9330  -13.5458   26.2876 C   0  0  0  0  0  0  0  0  0  0  0  0
    6.8376  -14.2510   25.3219 C   0  0  0  0  0  0  0  0  0  0  0  0
    6.2761  -15.5923   24.8514 C   0  0  2  0  0  0  0  0  0  0  0  0
    5.9305  -16.3912   25.9647 N   0  0  0  0  0  0  0  0  0  0  0  0
    7.2099  -16.1753   23.8742 C   0  0  0  0  0  0  0  0  0  0  0  0
    7.5901  -17.3491   24.1189 O   0  0  0  0  0  0  0  0  0  0  0  0
    7.6773  -15.5198   22.7360 N   0  0  0  0  0  0  0  0  0  0  0  0
    7.2227  -14.1741   22.3318 C   0  0  0  0  0  0  0  0  0  0  0  0
    7.4285  -14.0872   20.8538 C   0  0  0  0  0  0  0  0  0  0  0  0
    8.2080  -15.2943   20.4456 C   0  0  0  0  0  0  0  0  0  0  0  0
    8.6203  -15.9655   21.7709 C   0  0  1  0  0  0  0  0  0  0  0  0
   10.0290  -15.6206   22.0984 C   0  0  0  0  0  0  0  0  0  0  0  0
   10.3999  -14.4342   22.3019 O   0  0  0  0  0  0  0  0  0  0  0  0
   11.0067  -16.6376   22.1907 N   0  0  0  0  0  0  0  0  0  0  0  0
   11.9800  -16.7524   23.2339 C   0  0  1  0  0  0  0  0  0  0  0  0
   11.5217  -17.6921   24.3412 C   0  0  0  0  0  0  0  0  0  0  0  0
   12.5760  -17.8791   25.3863 C   0  0  0  0  0  0  0  0  0  0  0  0
   12.0691  -18.7805   26.4639 C   0  0  0  0  0  0  0  0  0  0  0  0
   11.3576  -19.7776   26.1555 O   0  0  0  0  0  0  0  0  0  0  0  0
   13.2184  -17.3273   22.6713 C   0  0  0  0  0  0  0  0  0  0  0  0
   14.4316  -17.0000   23.2350 O   0  0  0  0  0  0  0  0  0  0  0  0
   12.3531  -18.5617   27.8032 O   0  0  0  0  0  0  0  0  0  0  0  0
   13.2073  -18.1077   21.6929 O   0  0  0  0  0  0  0  0  0  0  0  0
  2  1  1  0
  3  2  1  0
  4  3  1  0
  5  4  1  0
  5  6  1  1
  7  8  2  0
  7  5  1  0
  9  7  1  0
 10  9  1  0
 11 10  1  0
 12 11  1  0
 12 13  1  0
 13  9  1  0
 13 14  1  1
 15 14  2  0
 16 14  1  0
 17 16  1  0
 17 18  1  1
 19 18  1  0
 20 19  1  0
 20 21  2  0
 22 17  1  0
 23 22  1  0
 24 20  1  0
 25 22  2  0
M  END
$$$$
