MPE.pdb
     RDKit          3D

 25 25  0  0  1  0  0  0  0  0999 V2000
    5.7972  -11.3944   26.8913 C   0  0  0  0  0  0  0  0  0  0  0  0
    7.1776  -12.5333   27.2279 S   0  0  0  0  0  0  0  0  0  0  0  0
    6.6613  -14.2212   26.8758 C   0  0  0  0  0  0  0  0  0  0  0  0
    6.6233  -14.5522   25.4139 C   0  0  0  0  0  0  0  0  0  0  0  0
    6.3376  -16.0294   25.1454 C   0  0  2  0  0  0  0  0  0  0  0  0
    6.3016  -16.7459   26.3630 N   0  0  0  0  0  0  0  0  0  0  0  0
    7.2731  -16.5087   24.1150 C   0  0  0  0  0  0  0  0  0  0  0  0
    7.4263  -17.7559   24.0576 O   0  0  0  0  0  0  0  0  0  0  0  0
    7.9716  -15.6847   23.2337 N   0  0  0  0  0  0  0  0  0  0  0  0
    7.8645  -14.2118   23.2444 C   0  0  0  0  0  0  0  0  0  0  0  0
    8.2120  -13.7551   21.8641 C   0  0  0  0  0  0  0  0  0  0  0  0
    8.7356  -14.9431   21.1254 C   0  0  0  0  0  0  0  0  0  0  0  0
    8.8717  -16.0452   22.1950 C   0  0  1  0  0  0  0  0  0  0  0  0
   10.2880  -16.1551   22.6339 C   0  0  0  0  0  0  0  0  0  0  0  0
   10.8357  -15.2832   23.3594 O   0  0  0  0  0  0  0  0  0  0  0  0
   11.0706  -17.2642   22.2388 N   0  0  0  0  0  0  0  0  0  0  0  0
   12.3911  -17.5508   22.7109 C   0  0  1  0  0  0  0  0  0  0  0  0
   13.4103  -16.5389   22.2045 C   0  0  0  0  0  0  0  0  0  0  0  0
   14.7999  -16.8797   22.6424 C   0  0  0  0  0  0  0  0  0  0  0  0
   15.7651  -15.8812   22.0931 C   0  0  0  0  0  0  0  0  0  0  0  0
   16.4935  -15.2205   22.8860 O   0  0  0  0  0  0  0  0  0  0  0  0
   12.4007  -17.4655   24.1851 C   0  0  0  0  0  0  0  0  0  0  0  0
   13.2502  -18.2779   24.9030 O   0  0  0  0  0  0  0  0  0  0  0  0
   15.8929  -15.6497   20.7321 O   0  0  0  0  0  0  0  0  0  0  0  0
   11.6597  -16.6759   24.8127 O   0  0  0  0  0  0  0  0  0  0  0  0
  2  1  1  0
  3  2  1  0
  4  3  1  0
  5  4  1  0
  5  6  1  1
  7  8  2  0
  7  5  1  0
  9  7  1  0
 10  9  1  0
 11 10  1  0
 12 11  1  0
 12 13  1  0
 13  9  1  0
 13 14  1  1
 15 14  2  0
 16 14  1  0
 17 16  1  0
 17 18  1  6
 19 18  1  0
 20 19  1  0
 20 21  2  0
 22 17  1  0
 23 22  1  0
 24 20  1  0
 25 22  2  0
M  END
$$$$
