MPE.pdb
     RDKit          3D

 25 25  0  0  1  0  0  0  0  0999 V2000
    8.3996  -12.5627   28.5401 C   0  0  0  0  0  0  0  0  0  0  0  0
    7.3958  -12.7154   27.0286 S   0  0  0  0  0  0  0  0  0  0  0  0
    7.1281  -14.4567   26.6603 C   0  0  0  0  0  0  0  0  0  0  0  0
    6.3991  -14.7001   25.3729 C   0  0  0  0  0  0  0  0  0  0  0  0
    6.1918  -16.1852   25.0779 C   0  0  2  0  0  0  0  0  0  0  0  0
    6.1902  -16.9238   26.2828 N   0  0  0  0  0  0  0  0  0  0  0  0
    7.1537  -16.5970   24.0426 C   0  0  0  0  0  0  0  0  0  0  0  0
    7.3291  -17.8371   23.9258 O   0  0  0  0  0  0  0  0  0  0  0  0
    7.8539  -15.7184   23.2170 N   0  0  0  0  0  0  0  0  0  0  0  0
    7.6672  -14.2539   23.2491 C   0  0  0  0  0  0  0  0  0  0  0  0
    8.0644  -13.7498   21.8990 C   0  0  0  0  0  0  0  0  0  0  0  0
    8.6909  -14.8925   21.1687 C   0  0  0  0  0  0  0  0  0  0  0  0
    8.8276  -16.0085   22.2236 C   0  0  1  0  0  0  0  0  0  0  0  0
   10.2216  -16.0529   22.7386 C   0  0  0  0  0  0  0  0  0  0  0  0
   10.6970  -15.1432   23.4685 O   0  0  0  0  0  0  0  0  0  0  0  0
   11.0649  -17.1403   22.4141 N   0  0  0  0  0  0  0  0  0  0  0  0
   12.4201  -17.2903   22.8496 C   0  0  1  0  0  0  0  0  0  0  0  0
   13.2581  -16.0563   22.5429 C   0  0  0  0  0  0  0  0  0  0  0  0
   14.6742  -16.2159   22.9988 C   0  0  0  0  0  0  0  0  0  0  0  0
   15.5973  -15.5478   22.0333 C   0  0  0  0  0  0  0  0  0  0  0  0
   15.1592  -14.6203   21.2960 O   0  0  0  0  0  0  0  0  0  0  0  0
   12.4347  -17.4627   24.3162 C   0  0  0  0  0  0  0  0  0  0  0  0
   11.4233  -16.9112   25.0710 O   0  0  0  0  0  0  0  0  0  0  0  0
   16.9300  -15.9112   21.9145 O   0  0  0  0  0  0  0  0  0  0  0  0
   13.3394  -18.0965   24.9046 O   0  0  0  0  0  0  0  0  0  0  0  0
  2  1  1  0
  3  2  1  0
  4  3  1  0
  5  4  1  0
  5  6  1  1
  7  8  2  0
  7  5  1  0
  9  7  1  0
 10  9  1  0
 11 10  1  0
 12 11  1  0
 12 13  1  0
 13  9  1  0
 13 14  1  1
 15 14  2  0
 16 14  1  0
 17 16  1  0
 17 18  1  1
 19 18  1  0
 20 19  1  0
 20 21  2  0
 22 17  1  0
 23 22  1  0
 24 20  1  0
 25 22  2  0
M  END
$$$$
