MPE.pdb
     RDKit          3D

 25 25  0  0  1  0  0  0  0  0999 V2000
    7.9842  -12.3209   27.6191 C   0  0  0  0  0  0  0  0  0  0  0  0
    6.6713  -12.9395   26.5194 S   0  0  0  0  0  0  0  0  0  0  0  0
    6.9333  -14.6912   26.1997 C   0  0  0  0  0  0  0  0  0  0  0  0
    6.0432  -15.2535   25.1321 C   0  0  0  0  0  0  0  0  0  0  0  0
    6.3138  -16.7307   24.8485 C   0  0  2  0  0  0  0  0  0  0  0  0
    6.5084  -17.4299   26.0612 N   0  0  0  0  0  0  0  0  0  0  0  0
    7.3836  -16.8272   23.8421 C   0  0  0  0  0  0  0  0  0  0  0  0
    7.9805  -17.9331   23.7874 O   0  0  0  0  0  0  0  0  0  0  0  0
    7.7559  -15.7968   22.9799 N   0  0  0  0  0  0  0  0  0  0  0  0
    7.0317  -14.5129   22.8915 C   0  0  0  0  0  0  0  0  0  0  0  0
    7.2991  -13.9727   21.5236 C   0  0  0  0  0  0  0  0  0  0  0  0
    8.3554  -14.8318   20.9091 C   0  0  0  0  0  0  0  0  0  0  0  0
    8.8308  -15.7517   22.0515 C   0  0  1  0  0  0  0  0  0  0  0  0
   10.1022  -15.2355   22.6238 C   0  0  0  0  0  0  0  0  0  0  0  0
   10.1339  -14.2536   23.4121 O   0  0  0  0  0  0  0  0  0  0  0  0
   11.3322  -15.8472   22.2895 N   0  0  0  0  0  0  0  0  0  0  0  0
   12.3422  -16.2330   23.2274 C   0  0  1  0  0  0  0  0  0  0  0  0
   11.8441  -17.2959   24.1975 C   0  0  0  0  0  0  0  0  0  0  0  0
   12.9105  -17.7181   25.1584 C   0  0  0  0  0  0  0  0  0  0  0  0
   12.3509  -18.6920   26.1428 C   0  0  0  0  0  0  0  0  0  0  0  0
   12.3490  -18.4006   27.3719 O   0  0  0  0  0  0  0  0  0  0  0  0
   13.4773  -16.8248   22.4913 C   0  0  0  0  0  0  0  0  0  0  0  0
   14.7580  -16.6401   22.9630 O   0  0  0  0  0  0  0  0  0  0  0  0
   11.8284  -19.9161   25.7543 O   0  0  0  0  0  0  0  0  0  0  0  0
   13.3184  -17.4940   21.4456 O   0  0  0  0  0  0  0  0  0  0  0  0
  2  1  1  0
  3  2  1  0
  4  3  1  0
  5  4  1  0
  5  6  1  1
  7  8  2  0
  7  5  1  0
  9  7  1  0
 10  9  1  0
 11 10  1  0
 12 11  1  0
 12 13  1  0
 13  9  1  0
 13 14  1  1
 15 14  2  0
 16 14  1  0
 17 16  1  0
 17 18  1  1
 19 18  1  0
 20 19  1  0
 20 21  2  0
 22 17  1  0
 23 22  1  0
 24 20  1  0
 25 22  2  0
M  END
$$$$
