MPE.pdb
     RDKit          3D

 25 25  0  0  1  0  0  0  0  0999 V2000
    8.5098  -12.2497   27.7964 C   0  0  0  0  0  0  0  0  0  0  0  0
    6.9045  -11.9493   26.9911 S   0  0  0  0  0  0  0  0  0  0  0  0
    6.2028  -13.5161   26.4503 C   0  0  0  0  0  0  0  0  0  0  0  0
    7.1169  -14.3213   25.5760 C   0  0  0  0  0  0  0  0  0  0  0  0
    6.5028  -15.6503   25.1373 C   0  0  2  0  0  0  0  0  0  0  0  0
    6.1773  -16.4316   26.2690 N   0  0  0  0  0  0  0  0  0  0  0  0
    7.3841  -16.2652   24.1313 C   0  0  0  0  0  0  0  0  0  0  0  0
    7.6172  -17.4911   24.2895 O   0  0  0  0  0  0  0  0  0  0  0  0
    7.9523  -15.5863   23.0544 N   0  0  0  0  0  0  0  0  0  0  0  0
    7.7031  -14.1578   22.7747 C   0  0  0  0  0  0  0  0  0  0  0  0
    7.9322  -13.9702   21.3095 C   0  0  0  0  0  0  0  0  0  0  0  0
    8.5300  -15.2372   20.7910 C   0  0  0  0  0  0  0  0  0  0  0  0
    8.8281  -16.0773   22.0489 C   0  0  1  0  0  0  0  0  0  0  0  0
   10.2692  -15.9733   22.3995 C   0  0  0  0  0  0  0  0  0  0  0  0
   10.7986  -14.8849   22.7483 O   0  0  0  0  0  0  0  0  0  0  0  0
   11.0976  -17.1179   22.3484 N   0  0  0  0  0  0  0  0  0  0  0  0
   12.4695  -17.1607   22.7542 C   0  0  1  0  0  0  0  0  0  0  0  0
   13.2518  -15.9554   22.2499 C   0  0  0  0  0  0  0  0  0  0  0  0
   14.2286  -16.3317   21.1808 C   0  0  0  0  0  0  0  0  0  0  0  0
   15.4555  -15.4876   21.2935 C   0  0  0  0  0  0  0  0  0  0  0  0
   15.6612  -14.8296   22.3521 O   0  0  0  0  0  0  0  0  0  0  0  0
   12.5331  -17.1244   24.2291 C   0  0  0  0  0  0  0  0  0  0  0  0
   13.5568  -17.7795   24.8772 O   0  0  0  0  0  0  0  0  0  0  0  0
   16.3863  -15.3980   20.2698 O   0  0  0  0  0  0  0  0  0  0  0  0
   11.6846  -16.5156   24.9189 O   0  0  0  0  0  0  0  0  0  0  0  0
  2  1  1  0
  3  2  1  0
  4  3  1  0
  5  4  1  0
  5  6  1  1
  7  8  2  0
  7  5  1  0
  9  7  1  0
 10  9  1  0
 11 10  1  0
 12 11  1  0
 12 13  1  0
 13  9  1  0
 13 14  1  1
 15 14  2  0
 16 14  1  0
 17 16  1  0
 17 18  1  6
 19 18  1  0
 20 19  1  0
 20 21  2  0
 22 17  1  0
 23 22  1  0
 24 20  1  0
 25 22  2  0
M  END
$$$$
