MPE.pdb
     RDKit          3D

 25 25  0  0  1  0  0  0  0  0999 V2000
    8.7456  -12.5604   27.0910 C   0  0  0  0  0  0  0  0  0  0  0  0
    8.0644  -14.2311   27.3371 S   0  0  0  0  0  0  0  0  0  0  0  0
    7.3819  -14.8347   25.7849 C   0  0  0  0  0  0  0  0  0  0  0  0
    6.4681  -16.0132   25.9408 C   0  0  0  0  0  0  0  0  0  0  0  0
    5.8339  -16.4532   24.6218 C   0  0  2  0  0  0  0  0  0  0  0  0
    4.9370  -17.5219   24.8472 N   0  0  0  0  0  0  0  0  0  0  0  0
    6.9051  -16.6758   23.6371 C   0  0  0  0  0  0  0  0  0  0  0  0
    7.2109  -17.8780   23.4288 O   0  0  0  0  0  0  0  0  0  0  0  0
    7.5730  -15.6631   22.9501 N   0  0  0  0  0  0  0  0  0  0  0  0
    7.3334  -14.2260   23.1914 C   0  0  0  0  0  0  0  0  0  0  0  0
    7.7122  -13.5191   21.9299 C   0  0  0  0  0  0  0  0  0  0  0  0
    8.3798  -14.5215   21.0462 C   0  0  0  0  0  0  0  0  0  0  0  0
    8.5567  -15.7721   21.9304 C   0  0  1  0  0  0  0  0  0  0  0  0
    9.9514  -15.8401   22.4411 C   0  0  0  0  0  0  0  0  0  0  0  0
   10.3200  -15.2176   23.4722 O   0  0  0  0  0  0  0  0  0  0  0  0
   10.9178  -16.6215   21.7671 N   0  0  0  0  0  0  0  0  0  0  0  0
   12.1072  -17.1526   22.3603 C   0  0  1  0  0  0  0  0  0  0  0  0
   12.7316  -18.2474   21.5055 C   0  0  0  0  0  0  0  0  0  0  0  0
   11.8150  -19.4187   21.3420 C   0  0  0  0  0  0  0  0  0  0  0  0
   12.4484  -20.4398   20.4551 C   0  0  0  0  0  0  0  0  0  0  0  0
   13.5777  -20.9147   20.7632 O   0  0  0  0  0  0  0  0  0  0  0  0
   13.1093  -16.0735   22.4709 C   0  0  0  0  0  0  0  0  0  0  0  0
   14.2354  -16.2737   23.2382 O   0  0  0  0  0  0  0  0  0  0  0  0
   11.8375  -20.8903   19.2949 O   0  0  0  0  0  0  0  0  0  0  0  0
   12.9730  -14.9740   21.8886 O   0  0  0  0  0  0  0  0  0  0  0  0
  2  1  1  0
  3  2  1  0
  4  3  1  0
  5  4  1  0
  5  6  1  1
  7  8  2  0
  7  5  1  0
  9  7  1  0
 10  9  1  0
 11 10  1  0
 12 11  1  0
 12 13  1  0
 13  9  1  0
 13 14  1  1
 15 14  2  0
 16 14  1  0
 17 16  1  0
 17 18  1  6
 19 18  1  0
 20 19  1  0
 20 21  2  0
 22 17  1  0
 23 22  1  0
 24 20  1  0
 25 22  2  0
M  END
$$$$
