MPE.pdb
     RDKit          3D

 25 25  0  0  1  0  0  0  0  0999 V2000
    5.8817  -11.8265   26.6793 C   0  0  0  0  0  0  0  0  0  0  0  0
    7.2973  -12.9262   26.9993 S   0  0  0  0  0  0  0  0  0  0  0  0
    6.8059  -14.6340   26.7141 C   0  0  0  0  0  0  0  0  0  0  0  0
    6.2759  -14.8913   25.3353 C   0  0  0  0  0  0  0  0  0  0  0  0
    6.2466  -16.3766   24.9765 C   0  0  2  0  0  0  0  0  0  0  0  0
    6.2346  -17.1599   26.1528 N   0  0  0  0  0  0  0  0  0  0  0  0
    7.3189  -16.6460   24.0048 C   0  0  0  0  0  0  0  0  0  0  0  0
    7.7822  -17.8154   24.0167 O   0  0  0  0  0  0  0  0  0  0  0  0
    7.8286  -15.7091   23.1070 N   0  0  0  0  0  0  0  0  0  0  0  0
    7.3199  -14.3267   23.0027 C   0  0  0  0  0  0  0  0  0  0  0  0
    7.6321  -13.8673   21.6149 C   0  0  0  0  0  0  0  0  0  0  0  0
    8.5171  -14.9002   20.9974 C   0  0  0  0  0  0  0  0  0  0  0  0
    8.8695  -15.8599   22.1515 C   0  0  1  0  0  0  0  0  0  0  0  0
   10.2237  -15.5452   22.6784 C   0  0  0  0  0  0  0  0  0  0  0  0
   10.4375  -14.5619   23.4361 O   0  0  0  0  0  0  0  0  0  0  0  0
   11.3272  -16.3591   22.3342 N   0  0  0  0  0  0  0  0  0  0  0  0
   12.4767  -16.5799   23.1580 C   0  0  1  0  0  0  0  0  0  0  0  0
   12.5328  -18.0060   23.6892 C   0  0  0  0  0  0  0  0  0  0  0  0
   13.6888  -18.2110   24.6168 C   0  0  0  0  0  0  0  0  0  0  0  0
   13.4486  -19.4127   25.4704 C   0  0  0  0  0  0  0  0  0  0  0  0
   12.3541  -20.0357   25.3715 O   0  0  0  0  0  0  0  0  0  0  0  0
   13.6931  -16.3789   22.3452 C   0  0  0  0  0  0  0  0  0  0  0  0
   14.8258  -15.8684   22.9397 O   0  0  0  0  0  0  0  0  0  0  0  0
   14.3911  -19.8748   26.3762 O   0  0  0  0  0  0  0  0  0  0  0  0
   13.7344  -16.6572   21.1256 O   0  0  0  0  0  0  0  0  0  0  0  0
  2  1  1  0
  3  2  1  0
  4  3  1  0
  5  4  1  0
  5  6  1  1
  7  8  2  0
  7  5  1  0
  9  7  1  0
 10  9  1  0
 11 10  1  0
 12 11  1  0
 12 13  1  0
 13  9  1  0
 13 14  1  1
 15 14  2  0
 16 14  1  0
 17 16  1  0
 17 18  1  6
 19 18  1  0
 20 19  1  0
 20 21  2  0
 22 17  1  0
 23 22  1  0
 24 20  1  0
 25 22  2  0
M  END
$$$$
