MPE.pdb
     RDKit          3D

 25 25  0  0  1  0  0  0  0  0999 V2000
    4.7815  -19.0356   22.8047 C   0  0  0  0  0  0  0  0  0  0  0  0
    5.9468  -18.5966   24.1333 S   0  0  0  0  0  0  0  0  0  0  0  0
    6.4334  -16.8726   23.9582 C   0  0  0  0  0  0  0  0  0  0  0  0
    6.7567  -16.4729   22.5497 C   0  0  0  0  0  0  0  0  0  0  0  0
    7.0733  -14.9841   22.4113 C   0  0  2  0  0  0  0  0  0  0  0  0
    7.4932  -14.6978   21.0926 N   0  0  0  0  0  0  0  0  0  0  0  0
    7.9817  -14.5940   23.5018 C   0  0  0  0  0  0  0  0  0  0  0  0
    9.2077  -14.7572   23.2727 O   0  0  0  0  0  0  0  0  0  0  0  0
    7.5704  -14.0736   24.7281 N   0  0  0  0  0  0  0  0  0  0  0  0
    6.1516  -13.9236   25.1096 C   0  0  0  0  0  0  0  0  0  0  0  0
    6.1031  -12.8278   26.1252 C   0  0  0  0  0  0  0  0  0  0  0  0
    7.5144  -12.5038   26.4919 C   0  0  0  0  0  0  0  0  0  0  0  0
    8.3612  -13.5953   25.8074 C   0  0  1  0  0  0  0  0  0  0  0  0
    8.7335  -14.6431   26.7944 C   0  0  0  0  0  0  0  0  0  0  0  0
    7.9164  -15.5186   27.1847 O   0  0  0  0  0  0  0  0  0  0  0  0
   10.0414  -14.6825   27.3300 N   0  0  0  0  0  0  0  0  0  0  0  0
   10.6833  -15.8509   27.8510 C   0  0  1  0  0  0  0  0  0  0  0  0
   12.1592  -15.9048   27.4798 C   0  0  0  0  0  0  0  0  0  0  0  0
   12.3596  -15.9904   25.9995 C   0  0  0  0  0  0  0  0  0  0  0  0
   13.8190  -16.0369   25.6861 C   0  0  0  0  0  0  0  0  0  0  0  0
   14.5216  -14.9993   25.8456 O   0  0  0  0  0  0  0  0  0  0  0  0
   10.6149  -15.8165   29.3258 C   0  0  0  0  0  0  0  0  0  0  0  0
   11.0352  -16.9120   30.0470 O   0  0  0  0  0  0  0  0  0  0  0  0
   14.4378  -17.1876   25.2219 O   0  0  0  0  0  0  0  0  0  0  0  0
   10.1857  -14.8208   29.9509 O   0  0  0  0  0  0  0  0  0  0  0  0
  2  1  1  0
  3  2  1  0
  4  3  1  0
  5  4  1  0
  5  6  1  6
  7  8  2  0
  7  5  1  0
  9  7  1  0
 10  9  1  0
 11 10  1  0
 12 11  1  0
 12 13  1  0
 13  9  1  0
 13 14  1  1
 15 14  2  0
 16 14  1  0
 17 16  1  0
 17 18  1  1
 19 18  1  0
 20 19  1  0
 20 21  2  0
 22 17  1  0
 23 22  1  0
 24 20  1  0
 25 22  2  0
M  END
$$$$
