LDS.pdb
     RDKit          3D

 23 22  0  0  1  0  0  0  0  0999 V2000
    8.0881  -12.9840   18.6683 C   0  0  0  0  0  0  0  0  0  0  0  0
    7.7214  -13.4486   20.0552 C   0  0  2  0  0  0  0  0  0  0  0  0
    7.5144  -12.2756   20.9929 C   0  0  0  0  0  0  0  0  0  0  0  0
    8.5706  -14.5145   20.6193 C   0  0  0  0  0  0  0  0  0  0  0  0
    8.7972  -15.7426   19.8263 C   0  0  2  0  0  0  0  0  0  0  0  0
    7.6336  -16.5109   19.4984 N   0  0  0  0  0  0  0  0  0  0  0  0
    9.7045  -16.6420   20.6341 C   0  0  0  0  0  0  0  0  0  0  0  0
    9.2508  -17.5446   21.3829 O   0  0  0  0  0  0  0  0  0  0  0  0
   11.1233  -16.5170   20.5919 N   0  0  0  0  0  0  0  0  0  0  0  0
   12.0149  -17.2712   21.4188 C   0  0  1  0  0  0  0  0  0  0  0  0
   13.4035  -17.2580   20.8271 C   0  0  0  0  0  0  0  0  0  0  0  0
   13.5406  -17.9795   19.5645 C   0  0  0  0  0  0  0  0  0  0  0  0
   14.0965  -17.4712   18.5655 O   0  0  0  0  0  0  0  0  0  0  0  0
   12.0293  -16.8180   22.8300 C   0  0  0  0  0  0  0  0  0  0  0  0
   12.7149  -15.8109   23.1432 O   0  0  0  0  0  0  0  0  0  0  0  0
   13.0477  -19.2669   19.4464 O   0  0  0  0  0  0  0  0  0  0  0  0
    8.8779  -17.2921   25.3497 O   0  0  0  0  0  0  0  0  0  0  0  0
    9.9343  -16.4512   25.6462 C   0  0  0  0  0  0  0  0  0  0  0  0
   11.2644  -17.0338   25.2292 C   0  0  2  0  0  0  0  0  0  0  0  0
   11.3056  -17.4581   23.8736 N   0  0  0  0  0  0  0  0  0  0  0  0
   11.6282  -18.0692   26.2024 C   0  0  0  0  0  0  0  0  0  0  0  0
   11.8188  -19.2402   25.7911 O   0  0  0  0  0  0  0  0  0  0  0  0
   11.7766  -17.8373   27.5589 O   0  0  0  0  0  0  0  0  0  0  0  0
  2  1  1  6
  2  3  1  0
  4  2  1  0
  4  5  1  0
  5  6  1  1
  5  7  1  0
  7  9  1  0
  8  7  2  0
  9 10  1  0
 10 14  1  0
 10 11  1  6
 12 13  2  0
 12 11  1  0
 14 15  2  0
 16 12  1  0
 17 18  1  0
 19 18  1  1
 19 21  1  0
 20 19  1  0
 20 14  1  0
 21 23  1  0
 22 21  2  0
M  END
$$$$
