LDS.pdb
     RDKit          3D

 23 22  0  0  1  0  0  0  0  0999 V2000
    7.6657  -11.1766   25.0386 C   0  0  0  0  0  0  0  0  0  0  0  0
    6.6431  -12.1878   25.4919 C   0  0  2  0  0  0  0  0  0  0  0  0
    6.1981  -11.9214   26.9164 C   0  0  0  0  0  0  0  0  0  0  0  0
    6.9792  -13.6001   25.2311 C   0  0  0  0  0  0  0  0  0  0  0  0
    7.5907  -13.9614   23.9335 C   0  0  2  0  0  0  0  0  0  0  0  0
    6.6911  -14.1245   22.8307 N   0  0  0  0  0  0  0  0  0  0  0  0
    8.3013  -15.2823   24.1201 C   0  0  0  0  0  0  0  0  0  0  0  0
    7.8357  -16.1899   24.8554 O   0  0  0  0  0  0  0  0  0  0  0  0
    9.5377  -15.5721   23.4736 N   0  0  0  0  0  0  0  0  0  0  0  0
   10.2307  -16.8175   23.6003 C   0  0  1  0  0  0  0  0  0  0  0  0
   11.2383  -16.9634   22.4859 C   0  0  0  0  0  0  0  0  0  0  0  0
   11.8841  -18.2713   22.4084 C   0  0  0  0  0  0  0  0  0  0  0  0
   12.8169  -18.5985   23.1752 O   0  0  0  0  0  0  0  0  0  0  0  0
   10.8676  -17.0010   24.9262 C   0  0  0  0  0  0  0  0  0  0  0  0
   11.8247  -16.2537   25.2549 O   0  0  0  0  0  0  0  0  0  0  0  0
   11.4676  -19.1935   21.4648 O   0  0  0  0  0  0  0  0  0  0  0  0
    9.4039  -19.8715   27.6261 O   0  0  0  0  0  0  0  0  0  0  0  0
   10.2130  -18.8779   28.1448 C   0  0  0  0  0  0  0  0  0  0  0  0
   11.1165  -18.2702   27.0976 C   0  0  2  0  0  0  0  0  0  0  0  0
   10.4609  -17.9843   25.8697 N   0  0  0  0  0  0  0  0  0  0  0  0
   12.2999  -19.1274   26.9706 C   0  0  0  0  0  0  0  0  0  0  0  0
   12.5310  -19.6728   25.8634 O   0  0  0  0  0  0  0  0  0  0  0  0
   13.1880  -19.3772   28.0025 O   0  0  0  0  0  0  0  0  0  0  0  0
  2  1  1  1
  2  3  1  0
  4  2  1  0
  4  5  1  0
  5  6  1  6
  5  7  1  0
  7  9  1  0
  8  7  2  0
  9 10  1  0
 10 14  1  0
 10 11  1  6
 12 13  2  0
 12 11  1  0
 14 15  2  0
 16 12  1  0
 17 18  1  0
 19 18  1  1
 19 21  1  0
 20 19  1  0
 20 14  1  0
 21 23  1  0
 22 21  2  0
M  END
$$$$
