LDS.pdb
     RDKit          3D

 23 22  0  0  1  0  0  0  0  0999 V2000
    9.2421  -12.6769   19.0821 C   0  0  0  0  0  0  0  0  0  0  0  0
    8.1192  -13.5795   19.5277 C   0  0  2  0  0  0  0  0  0  0  0  0
    6.7839  -12.8636   19.4784 C   0  0  0  0  0  0  0  0  0  0  0  0
    8.3497  -14.3163   20.7845 C   0  0  0  0  0  0  0  0  0  0  0  0
    9.7023  -14.8457   21.0648 C   0  0  2  0  0  0  0  0  0  0  0  0
   10.1673  -15.8900   20.2016 N   0  0  0  0  0  0  0  0  0  0  0  0
    9.6862  -15.4093   22.4672 C   0  0  0  0  0  0  0  0  0  0  0  0
    8.8397  -15.0423   23.3216 O   0  0  0  0  0  0  0  0  0  0  0  0
   10.6288  -16.3870   22.8986 N   0  0  0  0  0  0  0  0  0  0  0  0
   10.6755  -16.9178   24.2266 C   0  0  1  0  0  0  0  0  0  0  0  0
   11.6913  -18.0317   24.3019 C   0  0  0  0  0  0  0  0  0  0  0  0
   11.3240  -19.2484   23.5820 C   0  0  0  0  0  0  0  0  0  0  0  0
   11.9500  -20.3218   23.7280 O   0  0  0  0  0  0  0  0  0  0  0  0
   10.9325  -15.8871   25.2604 C   0  0  0  0  0  0  0  0  0  0  0  0
   11.9923  -15.2120   25.2025 O   0  0  0  0  0  0  0  0  0  0  0  0
   10.2533  -19.2371   22.7057 O   0  0  0  0  0  0  0  0  0  0  0  0
    7.9113  -14.0917   27.3408 O   0  0  0  0  0  0  0  0  0  0  0  0
    9.1864  -13.5603   27.3925 C   0  0  0  0  0  0  0  0  0  0  0  0
   10.2541  -14.6280   27.3442 C   0  0  2  0  0  0  0  0  0  0  0  0
   10.0435  -15.6051   26.3341 N   0  0  0  0  0  0  0  0  0  0  0  0
   10.4072  -15.1741   28.6969 C   0  0  0  0  0  0  0  0  0  0  0  0
   10.3170  -16.4162   28.8574 O   0  0  0  0  0  0  0  0  0  0  0  0
   10.6472  -14.4015   29.8201 O   0  0  0  0  0  0  0  0  0  0  0  0
  2  1  1  1
  2  3  1  0
  4  2  1  0
  4  5  1  0
  5  6  1  6
  5  7  1  0
  7  9  1  0
  8  7  2  0
  9 10  1  0
 10 14  1  0
 10 11  1  6
 12 13  2  0
 12 11  1  0
 14 15  2  0
 16 12  1  0
 17 18  1  0
 19 18  1  1
 19 21  1  0
 20 19  1  0
 20 14  1  0
 21 23  1  0
 22 21  2  0
M  END
$$$$
