LDS.pdb
     RDKit          3D

 23 22  0  0  1  0  0  0  0  0999 V2000
    8.0600  -13.1017   17.8626 C   0  0  0  0  0  0  0  0  0  0  0  0
    7.5871  -13.2993   19.2808 C   0  0  2  0  0  0  0  0  0  0  0  0
    7.5074  -11.9805   20.0241 C   0  0  0  0  0  0  0  0  0  0  0  0
    8.2658  -14.3665   20.0398 C   0  0  0  0  0  0  0  0  0  0  0  0
    8.3740  -15.7134   19.4379 C   0  0  2  0  0  0  0  0  0  0  0  0
    7.1401  -16.3782   19.1420 N   0  0  0  0  0  0  0  0  0  0  0  0
    9.1207  -16.5886   20.4183 C   0  0  0  0  0  0  0  0  0  0  0  0
    8.5217  -17.3009   21.2638 O   0  0  0  0  0  0  0  0  0  0  0  0
   10.5439  -16.6550   20.4387 N   0  0  0  0  0  0  0  0  0  0  0  0
   11.2955  -17.3430   21.4432 C   0  0  1  0  0  0  0  0  0  0  0  0
   12.6862  -17.6381   20.9361 C   0  0  0  0  0  0  0  0  0  0  0  0
   12.7377  -18.3452   19.6590 C   0  0  0  0  0  0  0  0  0  0  0  0
   12.5142  -19.5730   19.5696 O   0  0  0  0  0  0  0  0  0  0  0  0
   11.3387  -16.6230   22.7382 C   0  0  0  0  0  0  0  0  0  0  0  0
   12.1719  -15.6936   22.8950 O   0  0  0  0  0  0  0  0  0  0  0  0
   13.0413  -17.6559   18.4984 O   0  0  0  0  0  0  0  0  0  0  0  0
    8.1122  -16.2623   24.8466 O   0  0  0  0  0  0  0  0  0  0  0  0
    9.1756  -15.6528   25.4858 C   0  0  0  0  0  0  0  0  0  0  0  0
   10.5026  -16.2604   25.0955 C   0  0  2  0  0  0  0  0  0  0  0  0
   10.4846  -16.9184   23.8362 N   0  0  0  0  0  0  0  0  0  0  0  0
   10.9625  -17.0939   26.2114 C   0  0  0  0  0  0  0  0  0  0  0  0
   11.2158  -18.3043   25.9930 O   0  0  0  0  0  0  0  0  0  0  0  0
   11.1374  -16.6286   27.5033 O   0  0  0  0  0  0  0  0  0  0  0  0
  2  1  1  6
  2  3  1  0
  4  2  1  0
  4  5  1  0
  5  6  1  1
  5  7  1  0
  7  9  1  0
  8  7  2  0
  9 10  1  0
 10 14  1  0
 10 11  1  6
 12 13  2  0
 12 11  1  0
 14 15  2  0
 16 12  1  0
 17 18  1  0
 19 18  1  1
 19 21  1  0
 20 19  1  0
 20 14  1  0
 21 23  1  0
 22 21  2  0
M  END
$$$$
