LDS.pdb
     RDKit          3D

 23 22  0  0  1  0  0  0  0  0999 V2000
    8.6441  -12.7947   18.6301 C   0  0  0  0  0  0  0  0  0  0  0  0
    7.7881  -13.3900   19.7195 C   0  0  2  0  0  0  0  0  0  0  0  0
    7.1320  -12.3102   20.5572 C   0  0  0  0  0  0  0  0  0  0  0  0
    8.4186  -14.4576   20.5185 C   0  0  0  0  0  0  0  0  0  0  0  0
    9.0680  -15.5865   19.8169 C   0  0  2  0  0  0  0  0  0  0  0  0
    8.2140  -16.4141   19.0183 N   0  0  0  0  0  0  0  0  0  0  0  0
    9.6855  -16.4785   20.8693 C   0  0  0  0  0  0  0  0  0  0  0  0
    9.0427  -17.4158   21.4071 O   0  0  0  0  0  0  0  0  0  0  0  0
   11.0297  -16.3067   21.3101 N   0  0  0  0  0  0  0  0  0  0  0  0
   11.6354  -17.0883   22.3444 C   0  0  1  0  0  0  0  0  0  0  0  0
   13.1360  -17.0868   22.1810 C   0  0  0  0  0  0  0  0  0  0  0  0
   13.6310  -17.8536   21.0406 C   0  0  0  0  0  0  0  0  0  0  0  0
   12.9363  -18.7270   20.4750 O   0  0  0  0  0  0  0  0  0  0  0  0
   11.2443  -16.6590   23.7082 C   0  0  0  0  0  0  0  0  0  0  0  0
   11.8613  -15.7067   24.2513 O   0  0  0  0  0  0  0  0  0  0  0  0
   14.9054  -17.6239   20.5532 O   0  0  0  0  0  0  0  0  0  0  0  0
    7.6643  -17.6007   24.9997 O   0  0  0  0  0  0  0  0  0  0  0  0
    8.3503  -17.0430   26.0623 C   0  0  0  0  0  0  0  0  0  0  0  0
    9.8306  -16.9196   25.7868 C   0  0  2  0  0  0  0  0  0  0  0  0
   10.1978  -17.2634   24.4578 N   0  0  0  0  0  0  0  0  0  0  0  0
   10.5466  -17.6643   26.8282 C   0  0  0  0  0  0  0  0  0  0  0  0
   11.2759  -18.6271   26.4847 O   0  0  0  0  0  0  0  0  0  0  0  0
   10.4700  -17.3721   28.1789 O   0  0  0  0  0  0  0  0  0  0  0  0
  2  1  1  1
  2  3  1  0
  4  2  1  0
  4  5  1  0
  5  6  1  1
  5  7  1  0
  7  9  1  0
  8  7  2  0
  9 10  1  0
 10 14  1  0
 10 11  1  1
 12 13  2  0
 12 11  1  0
 14 15  2  0
 16 12  1  0
 17 18  1  0
 19 18  1  6
 19 21  1  0
 20 19  1  0
 20 14  1  0
 21 23  1  0
 22 21  2  0
M  END
$$$$
