LDS.pdb
     RDKit          3D

 23 22  0  0  1  0  0  0  0  0999 V2000
    8.1596  -11.7512   19.7983 C   0  0  0  0  0  0  0  0  0  0  0  0
    8.2280  -13.0659   19.0628 C   0  0  2  0  0  0  0  0  0  0  0  0
    6.9378  -13.3494   18.3192 C   0  0  0  0  0  0  0  0  0  0  0  0
    8.7242  -14.2131   19.8459 C   0  0  0  0  0  0  0  0  0  0  0  0
    8.9091  -15.5148   19.1678 C   0  0  2  0  0  0  0  0  0  0  0  0
    7.7167  -16.1833   18.7399 N   0  0  0  0  0  0  0  0  0  0  0  0
    9.6051  -16.4377   20.1417 C   0  0  0  0  0  0  0  0  0  0  0  0
    8.9639  -17.1757   20.9326 O   0  0  0  0  0  0  0  0  0  0  0  0
   11.0255  -16.5225   20.2176 N   0  0  0  0  0  0  0  0  0  0  0  0
   11.7259  -17.3395   21.1607 C   0  0  1  0  0  0  0  0  0  0  0  0
   13.1115  -17.6481   20.6476 C   0  0  0  0  0  0  0  0  0  0  0  0
   13.1511  -18.4654   19.4377 C   0  0  0  0  0  0  0  0  0  0  0  0
   12.3526  -19.4095   19.2469 O   0  0  0  0  0  0  0  0  0  0  0  0
   11.7764  -16.7520   22.5207 C   0  0  0  0  0  0  0  0  0  0  0  0
   12.6010  -15.8328   22.7609 O   0  0  0  0  0  0  0  0  0  0  0  0
   14.0929  -18.2056   18.4580 O   0  0  0  0  0  0  0  0  0  0  0  0
    8.6949  -17.3540   25.3235 O   0  0  0  0  0  0  0  0  0  0  0  0
    9.5668  -16.2867   25.4314 C   0  0  0  0  0  0  0  0  0  0  0  0
   10.9432  -16.6160   24.9029 C   0  0  2  0  0  0  0  0  0  0  0  0
   10.9386  -17.1660   23.5927 N   0  0  0  0  0  0  0  0  0  0  0  0
   11.6265  -17.4392   25.9063 C   0  0  0  0  0  0  0  0  0  0  0  0
   12.0018  -18.5930   25.5827 O   0  0  0  0  0  0  0  0  0  0  0  0
   11.8873  -17.0230   27.2004 O   0  0  0  0  0  0  0  0  0  0  0  0
  2  1  1  1
  2  3  1  0
  4  2  1  0
  4  5  1  0
  5  6  1  1
  5  7  1  0
  7  9  1  0
  8  7  2  0
  9 10  1  0
 10 14  1  0
 10 11  1  6
 12 13  2  0
 12 11  1  0
 14 15  2  0
 16 12  1  0
 17 18  1  0
 19 18  1  1
 19 21  1  0
 20 19  1  0
 20 14  1  0
 21 23  1  0
 22 21  2  0
M  END
$$$$
