LDS.pdb
     RDKit          3D

 23 22  0  0  1  0  0  0  0  0999 V2000
    6.5492  -11.9119   25.0258 C   0  0  0  0  0  0  0  0  0  0  0  0
    6.4830  -12.8027   26.2408 C   0  0  2  0  0  0  0  0  0  0  0  0
    6.8823  -12.0530   27.4964 C   0  0  0  0  0  0  0  0  0  0  0  0
    7.1331  -14.1198   26.1058 C   0  0  0  0  0  0  0  0  0  0  0  0
    6.6280  -15.0649   25.0860 C   0  0  2  0  0  0  0  0  0  0  0  0
    5.5405  -15.9079   25.4842 N   0  0  0  0  0  0  0  0  0  0  0  0
    7.7733  -15.9751   24.7058 C   0  0  0  0  0  0  0  0  0  0  0  0
    7.9916  -17.0566   25.3089 O   0  0  0  0  0  0  0  0  0  0  0  0
    8.6685  -15.6581   23.6434 N   0  0  0  0  0  0  0  0  0  0  0  0
    9.7813  -16.4757   23.2680 C   0  0  1  0  0  0  0  0  0  0  0  0
   10.4425  -15.9125   22.0335 C   0  0  0  0  0  0  0  0  0  0  0  0
   11.4196  -16.7958   21.4022 C   0  0  0  0  0  0  0  0  0  0  0  0
   12.3286  -17.3556   22.0546 O   0  0  0  0  0  0  0  0  0  0  0  0
   10.7630  -16.6668   24.3621 C   0  0  0  0  0  0  0  0  0  0  0  0
   11.3941  -15.6706   24.7999 O   0  0  0  0  0  0  0  0  0  0  0  0
   11.3573  -17.0357   20.0410 O   0  0  0  0  0  0  0  0  0  0  0  0
   12.0708  -18.8154   28.3689 O   0  0  0  0  0  0  0  0  0  0  0  0
   11.2018  -18.6289   27.3101 C   0  0  0  0  0  0  0  0  0  0  0  0
   11.9089  -18.1367   26.0690 C   0  0  2  0  0  0  0  0  0  0  0  0
   11.0442  -17.9255   24.9614 N   0  0  0  0  0  0  0  0  0  0  0  0
   13.0316  -19.0417   25.8009 C   0  0  0  0  0  0  0  0  0  0  0  0
   13.0623  -19.6529   24.7044 O   0  0  0  0  0  0  0  0  0  0  0  0
   14.0706  -19.2684   26.6869 O   0  0  0  0  0  0  0  0  0  0  0  0
  2  1  1  6
  2  3  1  0
  4  2  1  0
  4  5  1  0
  5  6  1  1
  5  7  1  0
  7  9  1  0
  8  7  2  0
  9 10  1  0
 10 14  1  0
 10 11  1  6
 12 13  2  0
 12 11  1  0
 14 15  2  0
 16 12  1  0
 17 18  1  0
 19 18  1  1
 19 21  1  0
 20 19  1  0
 20 14  1  0
 21 23  1  0
 22 21  2  0
M  END
$$$$
