LDS.pdb
     RDKit          3D

 23 22  0  0  1  0  0  0  0  0999 V2000
    8.1452  -12.9087   18.2759 C   0  0  0  0  0  0  0  0  0  0  0  0
    7.6751  -13.4787   19.5905 C   0  0  2  0  0  0  0  0  0  0  0  0
    7.3464  -12.3798   20.5818 C   0  0  0  0  0  0  0  0  0  0  0  0
    8.5082  -14.5563   20.1562 C   0  0  0  0  0  0  0  0  0  0  0  0
    8.9050  -15.6847   19.2858 C   0  0  2  0  0  0  0  0  0  0  0  0
    7.8424  -16.5022   18.7813 N   0  0  0  0  0  0  0  0  0  0  0  0
    9.8065  -16.5868   20.0969 C   0  0  0  0  0  0  0  0  0  0  0  0
    9.3479  -17.4151   20.9245 O   0  0  0  0  0  0  0  0  0  0  0  0
   11.2252  -16.5488   19.9689 N   0  0  0  0  0  0  0  0  0  0  0  0
   12.1207  -17.2959   20.7980 C   0  0  1  0  0  0  0  0  0  0  0  0
   13.4755  -17.3916   20.1395 C   0  0  0  0  0  0  0  0  0  0  0  0
   13.5013  -18.1546   18.8943 C   0  0  0  0  0  0  0  0  0  0  0  0
   13.8876  -17.6530   17.8152 O   0  0  0  0  0  0  0  0  0  0  0  0
   12.2306  -16.7578   22.1748 C   0  0  0  0  0  0  0  0  0  0  0  0
   12.9713  -15.7633   22.3866 O   0  0  0  0  0  0  0  0  0  0  0  0
   13.0900  -19.4757   18.8838 O   0  0  0  0  0  0  0  0  0  0  0  0
    9.3203  -17.3384   25.0735 O   0  0  0  0  0  0  0  0  0  0  0  0
   10.2986  -16.3697   25.1975 C   0  0  0  0  0  0  0  0  0  0  0  0
   11.6239  -16.8182   24.6275 C   0  0  2  0  0  0  0  0  0  0  0  0
   11.5412  -17.3012   23.2937 N   0  0  0  0  0  0  0  0  0  0  0  0
   12.2293  -17.7567   25.5784 C   0  0  0  0  0  0  0  0  0  0  0  0
   12.4060  -17.3811   26.7636 O   0  0  0  0  0  0  0  0  0  0  0  0
   12.6228  -19.0428   25.2513 O   0  0  0  0  0  0  0  0  0  0  0  0
  2  1  1  6
  2  3  1  0
  4  2  1  0
  4  5  1  0
  5  6  1  1
  5  7  1  0
  7  9  1  0
  8  7  2  0
  9 10  1  0
 10 14  1  0
 10 11  1  6
 12 13  2  0
 12 11  1  0
 14 15  2  0
 16 12  1  0
 17 18  1  0
 19 18  1  1
 19 21  1  0
 20 19  1  0
 20 14  1  0
 21 23  1  0
 22 21  2  0
M  END
$$$$
