LDS.pdb
     RDKit          3D

 23 22  0  0  1  0  0  0  0  0999 V2000
    8.4420  -11.7864   19.2584 C   0  0  0  0  0  0  0  0  0  0  0  0
    7.9416  -13.1643   18.9047 C   0  0  2  0  0  0  0  0  0  0  0  0
    6.4662  -13.3127   19.2196 C   0  0  0  0  0  0  0  0  0  0  0  0
    8.7657  -14.2886   19.3868 C   0  0  0  0  0  0  0  0  0  0  0  0
   10.2340  -14.1213   19.4534 C   0  0  2  0  0  0  0  0  0  0  0  0
   10.9218  -14.0406   18.1995 N   0  0  0  0  0  0  0  0  0  0  0  0
   10.7934  -15.3197   20.1852 C   0  0  0  0  0  0  0  0  0  0  0  0
   10.2314  -15.7995   21.2026 O   0  0  0  0  0  0  0  0  0  0  0  0
   11.9879  -15.9719   19.7630 N   0  0  0  0  0  0  0  0  0  0  0  0
   12.5525  -17.1080   20.4249 C   0  0  1  0  0  0  0  0  0  0  0  0
   13.6454  -17.7100   19.5755 C   0  0  0  0  0  0  0  0  0  0  0  0
   13.2034  -18.2343   18.2858 C   0  0  0  0  0  0  0  0  0  0  0  0
   13.5831  -17.7390   17.2014 O   0  0  0  0  0  0  0  0  0  0  0  0
   13.0404  -16.8068   21.7918 C   0  0  0  0  0  0  0  0  0  0  0  0
   13.9830  -15.9868   21.9391 O   0  0  0  0  0  0  0  0  0  0  0  0
   12.3374  -19.3123   18.2375 O   0  0  0  0  0  0  0  0  0  0  0  0
   10.8861  -18.0764   25.1408 O   0  0  0  0  0  0  0  0  0  0  0  0
   11.7766  -17.0295   25.2888 C   0  0  0  0  0  0  0  0  0  0  0  0
   12.9154  -17.1020   24.2987 C   0  0  2  0  0  0  0  0  0  0  0  0
   12.5035  -17.3942   22.9704 N   0  0  0  0  0  0  0  0  0  0  0  0
   13.9246  -18.0193   24.8387 C   0  0  0  0  0  0  0  0  0  0  0  0
   14.2256  -19.0409   24.1735 O   0  0  0  0  0  0  0  0  0  0  0  0
   14.5738  -17.8303   26.0465 O   0  0  0  0  0  0  0  0  0  0  0  0
  2  1  1  1
  2  3  1  0
  4  2  1  0
  4  5  1  0
  5  6  1  6
  5  7  1  0
  7  9  1  0
  8  7  2  0
  9 10  1  0
 10 14  1  0
 10 11  1  6
 12 13  2  0
 12 11  1  0
 14 15  2  0
 16 12  1  0
 17 18  1  0
 19 18  1  1
 19 21  1  0
 20 19  1  0
 20 14  1  0
 21 23  1  0
 22 21  2  0
M  END
$$$$
