SDP.pdb
     RDKit          3D

 22 22  0  0  1  0  0  0  0  0999 V2000
    9.3278  -12.5196   18.8899 O   0  0  0  0  0  0  0  0  0  0  0  0
    8.5043  -12.7857   19.9680 C   0  0  0  0  0  0  0  0  0  0  0  0
    8.0010  -14.2124   19.9018 C   0  0  2  0  0  0  0  0  0  0  0  0
    7.0819  -14.3688   18.7915 N   0  0  0  0  0  0  0  0  0  0  0  0
    7.3324  -14.5600   21.2011 C   0  0  0  0  0  0  0  0  0  0  0  0
    6.0834  -14.5457   21.1806 O   0  0  0  0  0  0  0  0  0  0  0  0
    8.1262  -14.8703   22.3255 N   0  0  0  0  0  0  0  0  0  0  0  0
    7.5097  -15.2856   23.5878 C   0  0  1  0  0  0  0  0  0  0  0  0
    7.4192  -16.7955   23.5175 C   0  0  0  0  0  0  0  0  0  0  0  0
    6.9789  -17.3401   24.8296 C   0  0  0  0  0  0  0  0  0  0  0  0
    5.8013  -17.1388   25.1893 O   0  0  0  0  0  0  0  0  0  0  0  0
    8.2608  -14.7429   24.7058 C   0  0  0  0  0  0  0  0  0  0  0  0
    9.5222  -15.0125   24.7400 O   0  0  0  0  0  0  0  0  0  0  0  0
    7.8241  -18.0533   25.6518 O   0  0  0  0  0  0  0  0  0  0  0  0
    7.7851  -13.9410   25.7781 N   0  0  0  0  0  0  0  0  0  0  0  0
    6.3712  -13.5366   25.8597 C   0  0  0  0  0  0  0  0  0  0  0  0
    6.3917  -12.2211   26.6092 C   0  0  0  0  0  0  0  0  0  0  0  0
    7.5614  -12.3211   27.5404 C   0  0  0  0  0  0  0  0  0  0  0  0
    8.4323  -13.3904   26.9214 C   0  0  1  0  0  0  0  0  0  0  0  0
    8.8372  -14.4043   27.9134 C   0  0  0  0  0  0  0  0  0  0  0  0
    8.3237  -15.5339   27.8972 O   0  0  0  0  0  0  0  0  0  0  0  0
    9.7848  -14.0995   28.8578 O   0  0  0  0  0  0  0  0  0  0  0  0
  1  2  1  0
  3  5  1  0
  3  2  1  0
  3  4  1  6
  5  7  1  0
  6  5  2  0
  7  8  1  0
  8 12  1  0
  9 10  1  0
  8  9  1  1
 10 14  1  0
 11 10  2  0
 12 13  2  0
 12 15  1  0
 15 19  1  0
 16 15  1  0
 16 17  1  0
 17 18  1  0
 19 18  1  0
 19 20  1  1
 20 22  1  0
 21 20  2  0
M  END
$$$$
