SDP.pdb
     RDKit          3D

 22 22  0  0  1  0  0  0  0  0999 V2000
    9.7913  -14.0772   20.6288 O   0  0  0  0  0  0  0  0  0  0  0  0
    8.8921  -14.5979   19.7170 C   0  0  0  0  0  0  0  0  0  0  0  0
    8.2773  -15.8717   20.2579 C   0  0  2  0  0  0  0  0  0  0  0  0
    7.3889  -16.4573   19.2730 N   0  0  0  0  0  0  0  0  0  0  0  0
    7.5366  -15.5612   21.5272 C   0  0  0  0  0  0  0  0  0  0  0  0
    6.4219  -15.0177   21.3766 O   0  0  0  0  0  0  0  0  0  0  0  0
    8.1229  -15.8901   22.7677 N   0  0  0  0  0  0  0  0  0  0  0  0
    7.3830  -15.7088   24.0189 C   0  0  1  0  0  0  0  0  0  0  0  0
    7.1006  -17.1062   24.5293 C   0  0  0  0  0  0  0  0  0  0  0  0
    6.1154  -17.7817   23.6432 C   0  0  0  0  0  0  0  0  0  0  0  0
    4.9022  -17.5536   23.8242 O   0  0  0  0  0  0  0  0  0  0  0  0
    8.1302  -14.8420   24.9128 C   0  0  0  0  0  0  0  0  0  0  0  0
    9.4164  -14.8826   24.8160 O   0  0  0  0  0  0  0  0  0  0  0  0
    6.4985  -18.6433   22.6383 O   0  0  0  0  0  0  0  0  0  0  0  0
    7.6260  -13.9412   25.8891 N   0  0  0  0  0  0  0  0  0  0  0  0
    6.1865  -13.6438   25.9819 C   0  0  0  0  0  0  0  0  0  0  0  0
    6.1208  -12.2405   26.5467 C   0  0  0  0  0  0  0  0  0  0  0  0
    7.3271  -12.1178   27.4273 C   0  0  0  0  0  0  0  0  0  0  0  0
    8.2638  -13.1888   26.9169 C   0  0  1  0  0  0  0  0  0  0  0  0
    8.7890  -14.0213   28.0156 C   0  0  0  0  0  0  0  0  0  0  0  0
    8.4019  -15.1924   28.1519 O   0  0  0  0  0  0  0  0  0  0  0  0
    9.7087  -13.5009   28.8909 O   0  0  0  0  0  0  0  0  0  0  0  0
  1  2  1  0
  3  5  1  0
  3  2  1  0
  3  4  1  6
  5  7  1  0
  6  5  2  0
  7  8  1  0
  8 12  1  0
  9 10  1  0
  8  9  1  1
 10 14  1  0
 11 10  2  0
 12 13  2  0
 12 15  1  0
 15 19  1  0
 16 15  1  0
 16 17  1  0
 17 18  1  0
 19 18  1  0
 19 20  1  1
 20 22  1  0
 21 20  2  0
M  END
$$$$
