SDP.pdb
     RDKit          3D

 22 22  0  0  1  0  0  0  0  0999 V2000
   11.6435  -16.1741   16.0963 O   0  0  0  0  0  0  0  0  0  0  0  0
   11.3763  -16.4912   14.7775 C   0  0  0  0  0  0  0  0  0  0  0  0
    9.8811  -16.5706   14.5514 C   0  0  2  0  0  0  0  0  0  0  0  0
    9.4958  -15.7195   13.4427 N   0  0  0  0  0  0  0  0  0  0  0  0
    9.1699  -16.1625   15.8098 C   0  0  0  0  0  0  0  0  0  0  0  0
    8.8208  -14.9642   15.8623 O   0  0  0  0  0  0  0  0  0  0  0  0
    8.9470  -17.1220   16.8199 N   0  0  0  0  0  0  0  0  0  0  0  0
    8.1553  -16.7916   18.0073 C   0  0  1  0  0  0  0  0  0  0  0  0
    7.6719  -18.1181   18.5546 C   0  0  0  0  0  0  0  0  0  0  0  0
    6.6943  -18.7298   17.6154 C   0  0  0  0  0  0  0  0  0  0  0  0
    5.4952  -18.3984   17.7099 O   0  0  0  0  0  0  0  0  0  0  0  0
    8.9431  -15.9761   18.9144 C   0  0  0  0  0  0  0  0  0  0  0  0
   10.1992  -16.2584   19.0024 O   0  0  0  0  0  0  0  0  0  0  0  0
    7.0694  -19.6425   16.6535 O   0  0  0  0  0  0  0  0  0  0  0  0
    8.5092  -14.8926   19.7249 N   0  0  0  0  0  0  0  0  0  0  0  0
    7.1377  -14.3653   19.6234 C   0  0  0  0  0  0  0  0  0  0  0  0
    7.2567  -12.9094   20.0219 C   0  0  0  0  0  0  0  0  0  0  0  0
    8.3797  -12.8669   21.0131 C   0  0  0  0  0  0  0  0  0  0  0  0
    9.1664  -14.1262   20.7297 C   0  0  1  0  0  0  0  0  0  0  0  0
    9.4404  -14.8862   21.9640 C   0  0  0  0  0  0  0  0  0  0  0  0
    8.7911  -15.9113   22.2234 O   0  0  0  0  0  0  0  0  0  0  0  0
   10.4160  -14.4598   22.8295 O   0  0  0  0  0  0  0  0  0  0  0  0
  1  2  1  0
  3  5  1  0
  3  2  1  0
  3  4  1  6
  5  7  1  0
  6  5  2  0
  7  8  1  0
  8 12  1  0
  9 10  1  0
  8  9  1  1
 10 14  1  0
 11 10  2  0
 12 13  2  0
 12 15  1  0
 15 19  1  0
 16 15  1  0
 16 17  1  0
 17 18  1  0
 19 18  1  0
 19 20  1  1
 20 22  1  0
 21 20  2  0
M  END
$$$$
