SDP.pdb
     RDKit          3D

 22 22  0  0  1  0  0  0  0  0999 V2000
   10.5069  -15.4137   14.4230 O   0  0  0  0  0  0  0  0  0  0  0  0
   10.1351  -15.0324   15.6988 C   0  0  0  0  0  0  0  0  0  0  0  0
    8.6406  -15.1970   15.8790 C   0  0  2  0  0  0  0  0  0  0  0  0
    7.9453  -14.0166   15.4045 N   0  0  0  0  0  0  0  0  0  0  0  0
    8.3434  -15.4442   17.3305 C   0  0  0  0  0  0  0  0  0  0  0  0
    7.8912  -14.4634   17.9583 O   0  0  0  0  0  0  0  0  0  0  0  0
    8.5841  -16.7223   17.8773 N   0  0  0  0  0  0  0  0  0  0  0  0
    8.1772  -17.0409   19.2480 C   0  0  1  0  0  0  0  0  0  0  0  0
    8.1889  -18.5526   19.3337 C   0  0  0  0  0  0  0  0  0  0  0  0
    7.1104  -19.1186   18.4802 C   0  0  0  0  0  0  0  0  0  0  0  0
    5.9324  -19.0379   18.8831 O   0  0  0  0  0  0  0  0  0  0  0  0
    9.0316  -16.3418   20.1914 C   0  0  0  0  0  0  0  0  0  0  0  0
   10.2913  -16.3064   19.9140 O   0  0  0  0  0  0  0  0  0  0  0  0
    7.3706  -19.7235   17.2696 O   0  0  0  0  0  0  0  0  0  0  0  0
    8.6586  -15.6800   21.3922 N   0  0  0  0  0  0  0  0  0  0  0  0
    7.2445  -15.5433   21.7806 C   0  0  0  0  0  0  0  0  0  0  0  0
    7.1947  -14.2746   22.6056 C   0  0  0  0  0  0  0  0  0  0  0  0
    8.5315  -14.1939   23.2778 C   0  0  0  0  0  0  0  0  0  0  0  0
    9.4249  -15.0631   22.4225 C   0  0  1  0  0  0  0  0  0  0  0  0
   10.1938  -16.0220   23.2381 C   0  0  0  0  0  0  0  0  0  0  0  0
    9.8537  -17.2144   23.2863 O   0  0  0  0  0  0  0  0  0  0  0  0
   11.2891  -15.5961   23.9464 O   0  0  0  0  0  0  0  0  0  0  0  0
  1  2  1  0
  3  5  1  0
  3  2  1  0
  3  4  1  1
  5  7  1  0
  6  5  2  0
  7  8  1  0
  8 12  1  0
  9 10  1  0
  8  9  1  1
 10 14  1  0
 11 10  2  0
 12 13  2  0
 12 15  1  0
 15 19  1  0
 16 15  1  0
 16 17  1  0
 17 18  1  0
 19 18  1  0
 19 20  1  1
 20 22  1  0
 21 20  2  0
M  END
$$$$
