SDP.pdb
     RDKit          3D

 22 22  0  0  1  0  0  0  0  0999 V2000
   10.7652  -12.9318   20.3942 O   0  0  0  0  0  0  0  0  0  0  0  0
   10.1455  -14.1229   20.0650 C   0  0  0  0  0  0  0  0  0  0  0  0
    8.6670  -13.8954   19.8292 C   0  0  2  0  0  0  0  0  0  0  0  0
    8.4458  -12.5769   19.2682 N   0  0  0  0  0  0  0  0  0  0  0  0
    7.9306  -14.0530   21.1288 C   0  0  0  0  0  0  0  0  0  0  0  0
    7.3581  -13.0245   21.5472 O   0  0  0  0  0  0  0  0  0  0  0  0
    7.9298  -15.3072   21.7751 N   0  0  0  0  0  0  0  0  0  0  0  0
    7.2442  -15.4906   23.0565 C   0  0  1  0  0  0  0  0  0  0  0  0
    6.9689  -16.9759   23.1604 C   0  0  0  0  0  0  0  0  0  0  0  0
    6.4126  -17.2974   24.5017 C   0  0  0  0  0  0  0  0  0  0  0  0
    7.1608  -17.1902   25.4944 O   0  0  0  0  0  0  0  0  0  0  0  0
    8.0365  -14.9122   24.1272 C   0  0  0  0  0  0  0  0  0  0  0  0
    9.3070  -15.1356   24.0916 O   0  0  0  0  0  0  0  0  0  0  0  0
    5.1086  -17.7060   24.6794 O   0  0  0  0  0  0  0  0  0  0  0  0
    7.5929  -14.1199   25.2201 N   0  0  0  0  0  0  0  0  0  0  0  0
    6.1711  -13.7713   25.3823 C   0  0  0  0  0  0  0  0  0  0  0  0
    6.1826  -12.4491   26.1201 C   0  0  0  0  0  0  0  0  0  0  0  0
    7.4082  -12.4937   26.9812 C   0  0  0  0  0  0  0  0  0  0  0  0
    8.2835  -13.5332   26.3192 C   0  0  1  0  0  0  0  0  0  0  0  0
    8.7866  -14.5209   27.2926 C   0  0  0  0  0  0  0  0  0  0  0  0
    8.3463  -15.6810   27.2895 O   0  0  0  0  0  0  0  0  0  0  0  0
    9.7447  -14.1576   28.2052 O   0  0  0  0  0  0  0  0  0  0  0  0
  1  2  1  0
  3  5  1  0
  3  2  1  0
  3  4  1  1
  5  7  1  0
  6  5  2  0
  7  8  1  0
  8 12  1  0
  9 10  1  0
  8  9  1  1
 10 14  1  0
 11 10  2  0
 12 13  2  0
 12 15  1  0
 15 19  1  0
 16 15  1  0
 16 17  1  0
 17 18  1  0
 19 18  1  0
 19 20  1  1
 20 22  1  0
 21 20  2  0
M  END
$$$$
