SDP.pdb
     RDKit          3D

 22 22  0  0  1  0  0  0  0  0999 V2000
    9.7672  -14.2207   20.9321 O   0  0  0  0  0  0  0  0  0  0  0  0
    8.7638  -14.5605   20.0439 C   0  0  0  0  0  0  0  0  0  0  0  0
    8.1058  -15.8564   20.4692 C   0  0  2  0  0  0  0  0  0  0  0  0
    7.1318  -16.2725   19.4791 N   0  0  0  0  0  0  0  0  0  0  0  0
    7.4555  -15.6624   21.8091 C   0  0  0  0  0  0  0  0  0  0  0  0
    6.3556  -15.0705   21.7891 O   0  0  0  0  0  0  0  0  0  0  0  0
    8.1023  -16.1429   22.9673 N   0  0  0  0  0  0  0  0  0  0  0  0
    7.4872  -15.9908   24.2880 C   0  0  1  0  0  0  0  0  0  0  0  0
    7.4805  -17.3782   24.8946 C   0  0  0  0  0  0  0  0  0  0  0  0
    6.4012  -18.1964   24.2803 C   0  0  0  0  0  0  0  0  0  0  0  0
    5.3195  -17.6392   24.0047 O   0  0  0  0  0  0  0  0  0  0  0  0
    8.1877  -14.9675   25.0436 C   0  0  0  0  0  0  0  0  0  0  0  0
    9.4607  -14.8778   24.8528 O   0  0  0  0  0  0  0  0  0  0  0  0
    6.5583  -19.5384   24.0092 O   0  0  0  0  0  0  0  0  0  0  0  0
    7.6493  -14.0379   25.9737 N   0  0  0  0  0  0  0  0  0  0  0  0
    6.1961  -13.8263   26.0868 C   0  0  0  0  0  0  0  0  0  0  0  0
    6.0530  -12.3959   26.5621 C   0  0  0  0  0  0  0  0  0  0  0  0
    7.2692  -12.1397   27.3993 C   0  0  0  0  0  0  0  0  0  0  0  0
    8.2610  -13.1808   26.9331 C   0  0  1  0  0  0  0  0  0  0  0  0
    8.8645  -13.9045   28.0681 C   0  0  0  0  0  0  0  0  0  0  0  0
    8.5680  -15.0904   28.2814 O   0  0  0  0  0  0  0  0  0  0  0  0
    9.7569  -13.2660   28.8919 O   0  0  0  0  0  0  0  0  0  0  0  0
  1  2  1  0
  3  5  1  0
  3  2  1  0
  3  4  1  6
  5  7  1  0
  6  5  2  0
  7  8  1  0
  8 12  1  0
  9 10  1  0
  8  9  1  1
 10 14  1  0
 11 10  2  0
 12 13  2  0
 12 15  1  0
 15 19  1  0
 16 15  1  0
 16 17  1  0
 17 18  1  0
 19 18  1  0
 19 20  1  1
 20 22  1  0
 21 20  2  0
M  END
$$$$
