SDP.pdb
     RDKit          3D

 22 22  0  0  1  0  0  0  0  0999 V2000
    9.9788  -12.7956   19.6343 O   0  0  0  0  0  0  0  0  0  0  0  0
    9.6052  -13.9878   20.2261 C   0  0  0  0  0  0  0  0  0  0  0  0
    8.1050  -14.1714   20.1305 C   0  0  2  0  0  0  0  0  0  0  0  0
    7.5034  -13.0385   19.4548 N   0  0  0  0  0  0  0  0  0  0  0  0
    7.5389  -14.3308   21.5126 C   0  0  0  0  0  0  0  0  0  0  0  0
    6.9216  -13.3391   21.9553 O   0  0  0  0  0  0  0  0  0  0  0  0
    7.7314  -15.5464   22.2024 N   0  0  0  0  0  0  0  0  0  0  0  0
    7.1831  -15.7415   23.5466 C   0  0  1  0  0  0  0  0  0  0  0  0
    7.0356  -17.2395   23.7111 C   0  0  0  0  0  0  0  0  0  0  0  0
    6.6595  -17.5624   25.1133 C   0  0  0  0  0  0  0  0  0  0  0  0
    5.7151  -16.9341   25.6329 O   0  0  0  0  0  0  0  0  0  0  0  0
    8.0227  -15.0719   24.5240 C   0  0  0  0  0  0  0  0  0  0  0  0
    9.2955  -15.2529   24.4132 O   0  0  0  0  0  0  0  0  0  0  0  0
    7.3162  -18.5252   25.8487 O   0  0  0  0  0  0  0  0  0  0  0  0
    7.6233  -14.2302   25.5969 N   0  0  0  0  0  0  0  0  0  0  0  0
    6.2138  -13.8439   25.7797 C   0  0  0  0  0  0  0  0  0  0  0  0
    6.2721  -12.4962   26.4673 C   0  0  0  0  0  0  0  0  0  0  0  0
    7.5171  -12.5369   27.3002 C   0  0  0  0  0  0  0  0  0  0  0  0
    8.3532  -13.6195   26.6568 C   0  0  1  0  0  0  0  0  0  0  0  0
    8.8584  -14.5821   27.6540 C   0  0  0  0  0  0  0  0  0  0  0  0
    8.4285  -15.7460   27.6722 O   0  0  0  0  0  0  0  0  0  0  0  0
    9.8069  -14.1911   28.5652 O   0  0  0  0  0  0  0  0  0  0  0  0
  1  2  1  0
  3  5  1  0
  3  2  1  0
  3  4  1  1
  5  7  1  0
  6  5  2  0
  7  8  1  0
  8 12  1  0
  9 10  1  0
  8  9  1  1
 10 14  1  0
 11 10  2  0
 12 13  2  0
 12 15  1  0
 15 19  1  0
 16 15  1  0
 16 17  1  0
 17 18  1  0
 19 18  1  0
 19 20  1  1
 20 22  1  0
 21 20  2  0
M  END
$$$$
