SDP.pdb
     RDKit          3D

 22 22  0  0  1  0  0  0  0  0999 V2000
   10.1674  -12.6299   20.4483 O   0  0  0  0  0  0  0  0  0  0  0  0
    9.8375  -13.9271   20.1026 C   0  0  0  0  0  0  0  0  0  0  0  0
    8.3381  -14.0584   19.9353 C   0  0  2  0  0  0  0  0  0  0  0  0
    7.8044  -12.8898   19.2633 N   0  0  0  0  0  0  0  0  0  0  0  0
    7.7049  -14.2332   21.2860 C   0  0  0  0  0  0  0  0  0  0  0  0
    6.9446  -13.3089   21.6439 O   0  0  0  0  0  0  0  0  0  0  0  0
    7.9961  -15.3887   22.0416 N   0  0  0  0  0  0  0  0  0  0  0  0
    7.3652  -15.6119   23.3446 C   0  0  1  0  0  0  0  0  0  0  0  0
    7.2396  -17.1146   23.4824 C   0  0  0  0  0  0  0  0  0  0  0  0
    6.8256  -17.4654   24.8671 C   0  0  0  0  0  0  0  0  0  0  0  0
    5.6116  -17.4213   25.1514 O   0  0  0  0  0  0  0  0  0  0  0  0
    8.1245  -14.9374   24.3825 C   0  0  0  0  0  0  0  0  0  0  0  0
    9.4053  -15.0919   24.3545 O   0  0  0  0  0  0  0  0  0  0  0  0
    7.7336  -17.8340   25.8360 O   0  0  0  0  0  0  0  0  0  0  0  0
    7.6379  -14.1164   25.4352 N   0  0  0  0  0  0  0  0  0  0  0  0
    6.2252  -13.7032   25.4900 C   0  0  0  0  0  0  0  0  0  0  0  0
    6.2421  -12.3764   26.2192 C   0  0  0  0  0  0  0  0  0  0  0  0
    7.3977  -12.4681   27.1688 C   0  0  0  0  0  0  0  0  0  0  0  0
    8.2715  -13.5515   26.5791 C   0  0  1  0  0  0  0  0  0  0  0  0
    8.6565  -14.5521   27.5924 C   0  0  0  0  0  0  0  0  0  0  0  0
    8.1326  -15.6770   27.5900 O   0  0  0  0  0  0  0  0  0  0  0  0
    9.5967  -14.2399   28.5417 O   0  0  0  0  0  0  0  0  0  0  0  0
  1  2  1  0
  3  5  1  0
  3  2  1  0
  3  4  1  1
  5  7  1  0
  6  5  2  0
  7  8  1  0
  8 12  1  0
  9 10  1  0
  8  9  1  1
 10 14  1  0
 11 10  2  0
 12 13  2  0
 12 15  1  0
 15 19  1  0
 16 15  1  0
 16 17  1  0
 17 18  1  0
 19 18  1  0
 19 20  1  1
 20 22  1  0
 21 20  2  0
M  END
$$$$
