SDP.pdb
     RDKit          3D

 22 22  0  0  1  0  0  0  0  0999 V2000
   11.2584  -13.3907   19.0818 O   0  0  0  0  0  0  0  0  0  0  0  0
   10.8398  -14.3268   18.1547 C   0  0  0  0  0  0  0  0  0  0  0  0
    9.3313  -14.2963   18.0254 C   0  0  2  0  0  0  0  0  0  0  0  0
    8.8932  -12.9907   17.5721 N   0  0  0  0  0  0  0  0  0  0  0  0
    8.7158  -14.6346   19.3531 C   0  0  0  0  0  0  0  0  0  0  0  0
    8.1563  -13.6849   19.9408 O   0  0  0  0  0  0  0  0  0  0  0  0
    8.8035  -15.9564   19.8388 N   0  0  0  0  0  0  0  0  0  0  0  0
    8.1442  -16.3418   21.0888 C   0  0  1  0  0  0  0  0  0  0  0  0
    7.9679  -17.8436   21.0082 C   0  0  0  0  0  0  0  0  0  0  0  0
    6.9607  -18.1822   19.9675 C   0  0  0  0  0  0  0  0  0  0  0  0
    5.7640  -17.9087   20.1904 O   0  0  0  0  0  0  0  0  0  0  0  0
    8.9074  -15.8490   22.2216 C   0  0  0  0  0  0  0  0  0  0  0  0
   10.1890  -15.9860   22.1586 O   0  0  0  0  0  0  0  0  0  0  0  0
    7.3062  -18.7829   18.7764 O   0  0  0  0  0  0  0  0  0  0  0  0
    8.4240  -15.2245   23.4028 N   0  0  0  0  0  0  0  0  0  0  0  0
    7.0283  -14.7657   23.5070 C   0  0  0  0  0  0  0  0  0  0  0  0
    7.0778  -13.6061   24.4793 C   0  0  0  0  0  0  0  0  0  0  0  0
    8.2005  -13.9313   25.4172 C   0  0  0  0  0  0  0  0  0  0  0  0
    9.0464  -14.9197   24.6474 C   0  0  1  0  0  0  0  0  0  0  0  0
    9.3605  -16.1129   25.4558 C   0  0  0  0  0  0  0  0  0  0  0  0
    8.7747  -17.1854   25.2401 O   0  0  0  0  0  0  0  0  0  0  0  0
   10.3032  -16.0389   26.4500 O   0  0  0  0  0  0  0  0  0  0  0  0
  1  2  1  0
  3  5  1  0
  3  2  1  0
  3  4  1  1
  5  7  1  0
  6  5  2  0
  7  8  1  0
  8 12  1  0
  9 10  1  0
  8  9  1  1
 10 14  1  0
 11 10  2  0
 12 13  2  0
 12 15  1  0
 15 19  1  0
 16 15  1  0
 16 17  1  0
 17 18  1  0
 19 18  1  0
 19 20  1  1
 20 22  1  0
 21 20  2  0
M  END
$$$$
