SDP.pdb
     RDKit          3D

 22 22  0  0  1  0  0  0  0  0999 V2000
    9.3688  -12.5579   20.1265 O   0  0  0  0  0  0  0  0  0  0  0  0
    9.2796  -13.9339   20.0274 C   0  0  0  0  0  0  0  0  0  0  0  0
    7.8327  -14.3720   20.1168 C   0  0  2  0  0  0  0  0  0  0  0  0
    6.9792  -13.4275   19.4229 N   0  0  0  0  0  0  0  0  0  0  0  0
    7.4402  -14.4841   21.5623 C   0  0  0  0  0  0  0  0  0  0  0  0
    6.7229  -13.5575   21.9952 O   0  0  0  0  0  0  0  0  0  0  0  0
    7.8888  -15.5890   22.3165 N   0  0  0  0  0  0  0  0  0  0  0  0
    7.3737  -15.8355   23.6655 C   0  0  1  0  0  0  0  0  0  0  0  0
    7.3360  -17.3417   23.8163 C   0  0  0  0  0  0  0  0  0  0  0  0
    6.9602  -17.7040   25.2090 C   0  0  0  0  0  0  0  0  0  0  0  0
    7.8682  -18.0176   26.0050 O   0  0  0  0  0  0  0  0  0  0  0  0
    8.1761  -15.1167   24.6391 C   0  0  0  0  0  0  0  0  0  0  0  0
    9.4571  -15.2091   24.5136 O   0  0  0  0  0  0  0  0  0  0  0  0
    5.6520  -17.7038   25.6422 O   0  0  0  0  0  0  0  0  0  0  0  0
    7.7319  -14.3120   25.7227 N   0  0  0  0  0  0  0  0  0  0  0  0
    6.2989  -14.0520   25.9427 C   0  0  0  0  0  0  0  0  0  0  0  0
    6.2553  -12.7032   26.6293 C   0  0  0  0  0  0  0  0  0  0  0  0
    7.5205  -12.6317   27.4292 C   0  0  0  0  0  0  0  0  0  0  0  0
    8.4322  -13.6369   26.7633 C   0  0  1  0  0  0  0  0  0  0  0  0
    9.0470  -14.5490   27.7463 C   0  0  0  0  0  0  0  0  0  0  0  0
    8.6951  -15.7377   27.8007 O   0  0  0  0  0  0  0  0  0  0  0  0
   10.0113  -14.0834   28.6042 O   0  0  0  0  0  0  0  0  0  0  0  0
  1  2  1  0
  3  5  1  0
  3  2  1  0
  3  4  1  6
  5  7  1  0
  6  5  2  0
  7  8  1  0
  8 12  1  0
  9 10  1  0
  8  9  1  1
 10 14  1  0
 11 10  2  0
 12 13  2  0
 12 15  1  0
 15 19  1  0
 16 15  1  0
 16 17  1  0
 17 18  1  0
 19 18  1  0
 19 20  1  1
 20 22  1  0
 21 20  2  0
M  END
$$$$
