SDP.pdb
     RDKit          3D

 22 22  0  0  1  0  0  0  0  0999 V2000
    9.2865  -13.3497   13.2572 O   0  0  0  0  0  0  0  0  0  0  0  0
    8.7948  -13.7486   14.4861 C   0  0  0  0  0  0  0  0  0  0  0  0
    8.8661  -15.2559   14.6137 C   0  0  2  0  0  0  0  0  0  0  0  0
    8.2601  -15.8861   13.4571 N   0  0  0  0  0  0  0  0  0  0  0  0
    8.1707  -15.6771   15.8766 C   0  0  0  0  0  0  0  0  0  0  0  0
    7.0464  -16.1985   15.7198 O   0  0  0  0  0  0  0  0  0  0  0  0
    8.8060  -15.4663   17.1187 N   0  0  0  0  0  0  0  0  0  0  0  0
    8.5638  -16.3672   18.2480 C   0  0  1  0  0  0  0  0  0  0  0  0
    8.9947  -17.7387   17.7724 C   0  0  0  0  0  0  0  0  0  0  0  0
    8.1821  -18.7881   18.4436 C   0  0  0  0  0  0  0  0  0  0  0  0
    8.5504  -19.1965   19.5635 O   0  0  0  0  0  0  0  0  0  0  0  0
    9.2338  -15.8635   19.4337 C   0  0  0  0  0  0  0  0  0  0  0  0
   10.5219  -15.8016   19.3873 O   0  0  0  0  0  0  0  0  0  0  0  0
    7.0459  -19.3178   17.8713 O   0  0  0  0  0  0  0  0  0  0  0  0
    8.6512  -15.4205   20.6516 N   0  0  0  0  0  0  0  0  0  0  0  0
    7.1999  -15.5184   20.8833 C   0  0  0  0  0  0  0  0  0  0  0  0
    6.8877  -14.3876   21.8406 C   0  0  0  0  0  0  0  0  0  0  0  0
    8.1246  -14.2272   22.6712 C   0  0  0  0  0  0  0  0  0  0  0  0
    9.2140  -14.8535   21.8310 C   0  0  1  0  0  0  0  0  0  0  0  0
   10.0244  -15.8065   22.6128 C   0  0  0  0  0  0  0  0  0  0  0  0
    9.7919  -17.0237   22.5486 O   0  0  0  0  0  0  0  0  0  0  0  0
   11.0391  -15.3474   23.4143 O   0  0  0  0  0  0  0  0  0  0  0  0
  1  2  1  0
  3  5  1  0
  3  2  1  0
  3  4  1  6
  5  7  1  0
  6  5  2  0
  7  8  1  0
  8 12  1  0
  9 10  1  0
  8  9  1  6
 10 14  1  0
 11 10  2  0
 12 13  2  0
 12 15  1  0
 15 19  1  0
 16 15  1  0
 16 17  1  0
 17 18  1  0
 19 18  1  0
 19 20  1  1
 20 22  1  0
 21 20  2  0
M  END
$$$$
