SDP.pdb
     RDKit          3D

 22 22  0  0  1  0  0  0  0  0999 V2000
    7.7102  -14.7562   18.5002 O   0  0  0  0  0  0  0  0  0  0  0  0
    7.8504  -13.4007   18.7329 C   0  0  0  0  0  0  0  0  0  0  0  0
    8.6315  -13.1673   20.0091 C   0  0  2  0  0  0  0  0  0  0  0  0
    9.9107  -13.8467   19.9453 N   0  0  0  0  0  0  0  0  0  0  0  0
    7.8245  -13.6573   21.1774 C   0  0  0  0  0  0  0  0  0  0  0  0
    6.7212  -13.0941   21.3391 O   0  0  0  0  0  0  0  0  0  0  0  0
    8.3423  -14.6863   21.9920 N   0  0  0  0  0  0  0  0  0  0  0  0
    7.6056  -15.1547   23.1683 C   0  0  1  0  0  0  0  0  0  0  0  0
    7.5946  -16.6653   23.0651 C   0  0  0  0  0  0  0  0  0  0  0  0
    6.9635  -17.2532   24.2768 C   0  0  0  0  0  0  0  0  0  0  0  0
    7.7034  -17.6116   25.2152 O   0  0  0  0  0  0  0  0  0  0  0  0
    8.1975  -14.6019   24.3736 C   0  0  0  0  0  0  0  0  0  0  0  0
    9.4636  -14.7915   24.5351 O   0  0  0  0  0  0  0  0  0  0  0  0
    5.5996  -17.4123   24.3930 O   0  0  0  0  0  0  0  0  0  0  0  0
    7.5596  -13.8674   25.4093 N   0  0  0  0  0  0  0  0  0  0  0  0
    6.1294  -13.5241   25.3320 C   0  0  0  0  0  0  0  0  0  0  0  0
    5.9993  -12.2429   26.1283 C   0  0  0  0  0  0  0  0  0  0  0  0
    7.0510  -12.3363   27.1917 C   0  0  0  0  0  0  0  0  0  0  0  0
    8.0380  -13.3416   26.6438 C   0  0  1  0  0  0  0  0  0  0  0  0
    8.3653  -14.3807   27.6383 C   0  0  0  0  0  0  0  0  0  0  0  0
    7.9088  -15.5281   27.5161 O   0  0  0  0  0  0  0  0  0  0  0  0
    9.1771  -14.0797   28.7027 O   0  0  0  0  0  0  0  0  0  0  0  0
  1  2  1  0
  3  5  1  0
  3  2  1  0
  3  4  1  6
  5  7  1  0
  6  5  2  0
  7  8  1  0
  8 12  1  0
  9 10  1  0
  8  9  1  1
 10 14  1  0
 11 10  2  0
 12 13  2  0
 12 15  1  0
 15 19  1  0
 16 15  1  0
 16 17  1  0
 17 18  1  0
 19 18  1  0
 19 20  1  1
 20 22  1  0
 21 20  2  0
M  END
$$$$
