SDP.pdb
     RDKit          3D

 22 22  0  0  1  0  0  0  0  0999 V2000
   10.1687  -12.8799   20.3437 O   0  0  0  0  0  0  0  0  0  0  0  0
    9.7054  -14.1213   19.9497 C   0  0  0  0  0  0  0  0  0  0  0  0
    8.1913  -14.1307   19.9252 C   0  0  2  0  0  0  0  0  0  0  0  0
    7.6925  -12.9234   19.2962 N   0  0  0  0  0  0  0  0  0  0  0  0
    7.6764  -14.2521   21.3310 C   0  0  0  0  0  0  0  0  0  0  0  0
    7.1794  -13.2111   21.8103 O   0  0  0  0  0  0  0  0  0  0  0  0
    7.7812  -15.4894   22.0010 N   0  0  0  0  0  0  0  0  0  0  0  0
    7.2046  -15.6714   23.3352 C   0  0  1  0  0  0  0  0  0  0  0  0
    7.0440  -17.1673   23.5071 C   0  0  0  0  0  0  0  0  0  0  0  0
    6.7095  -17.4836   24.9213 C   0  0  0  0  0  0  0  0  0  0  0  0
    5.5227  -17.3701   25.2889 O   0  0  0  0  0  0  0  0  0  0  0  0
    8.0289  -15.0005   24.3247 C   0  0  0  0  0  0  0  0  0  0  0  0
    9.3040  -15.1733   24.2278 O   0  0  0  0  0  0  0  0  0  0  0  0
    7.6617  -17.8942   25.8289 O   0  0  0  0  0  0  0  0  0  0  0  0
    7.6121  -14.1654   25.3961 N   0  0  0  0  0  0  0  0  0  0  0  0
    6.2005  -13.7764   25.5558 C   0  0  0  0  0  0  0  0  0  0  0  0
    6.2498  -12.4338   26.2540 C   0  0  0  0  0  0  0  0  0  0  0  0
    7.4792  -12.4840   27.1093 C   0  0  0  0  0  0  0  0  0  0  0  0
    8.3240  -13.5643   26.4736 C   0  0  1  0  0  0  0  0  0  0  0  0
    8.8083  -14.5353   27.4729 C   0  0  0  0  0  0  0  0  0  0  0  0
    9.6385  -14.1900   28.3282 O   0  0  0  0  0  0  0  0  0  0  0  0
    8.3405  -15.8251   27.4585 O   0  0  0  0  0  0  0  0  0  0  0  0
  1  2  1  0
  3  5  1  0
  3  2  1  0
  3  4  1  1
  5  7  1  0
  6  5  2  0
  7  8  1  0
  8 12  1  0
  9 10  1  0
  8  9  1  1
 10 14  1  0
 11 10  2  0
 12 13  2  0
 12 15  1  0
 15 19  1  0
 16 15  1  0
 16 17  1  0
 17 18  1  0
 19 18  1  0
 19 20  1  1
 20 22  1  0
 21 20  2  0
M  END
$$$$
