SDP.pdb
     RDKit          3D

 22 22  0  0  1  0  0  0  0  0999 V2000
    8.1367  -13.7822   18.5770 O   0  0  0  0  0  0  0  0  0  0  0  0
    8.9097  -14.2122   19.6394 C   0  0  0  0  0  0  0  0  0  0  0  0
    8.4462  -15.5767   20.1048 C   0  0  2  0  0  0  0  0  0  0  0  0
    7.7514  -16.2627   19.0330 N   0  0  0  0  0  0  0  0  0  0  0  0
    7.5528  -15.4124   21.3009 C   0  0  0  0  0  0  0  0  0  0  0  0
    6.3831  -15.0530   21.0494 O   0  0  0  0  0  0  0  0  0  0  0  0
    8.0695  -15.6645   22.5894 N   0  0  0  0  0  0  0  0  0  0  0  0
    7.2325  -15.4963   23.7797 C   0  0  1  0  0  0  0  0  0  0  0  0
    6.5800  -16.8431   24.0104 C   0  0  0  0  0  0  0  0  0  0  0  0
    7.1087  -17.4572   25.2575 C   0  0  0  0  0  0  0  0  0  0  0  0
    6.6623  -17.0554   26.3510 O   0  0  0  0  0  0  0  0  0  0  0  0
    8.0318  -14.9784   24.8759 C   0  0  0  0  0  0  0  0  0  0  0  0
    9.2403  -15.4212   24.9694 O   0  0  0  0  0  0  0  0  0  0  0  0
    8.0675  -18.4470   25.2416 O   0  0  0  0  0  0  0  0  0  0  0  0
    7.6558  -14.0342   25.8689 N   0  0  0  0  0  0  0  0  0  0  0  0
    6.2860  -13.4963   25.9306 C   0  0  0  0  0  0  0  0  0  0  0  0
    6.4420  -12.1205   26.5432 C   0  0  0  0  0  0  0  0  0  0  0  0
    7.6204  -12.2340   27.4619 C   0  0  0  0  0  0  0  0  0  0  0  0
    8.3770  -13.4343   26.9408 C   0  0  1  0  0  0  0  0  0  0  0  0
    8.7138  -14.3777   28.0238 C   0  0  0  0  0  0  0  0  0  0  0  0
    8.1512  -15.4819   28.0876 O   0  0  0  0  0  0  0  0  0  0  0  0
    9.6518  -14.0349   28.9646 O   0  0  0  0  0  0  0  0  0  0  0  0
  1  2  1  0
  3  5  1  0
  3  2  1  0
  3  4  1  6
  5  7  1  0
  6  5  2  0
  7  8  1  0
  8 12  1  0
  9 10  1  0
  8  9  1  1
 10 14  1  0
 11 10  2  0
 12 13  2  0
 12 15  1  0
 15 19  1  0
 16 15  1  0
 16 17  1  0
 17 18  1  0
 19 18  1  0
 19 20  1  1
 20 22  1  0
 21 20  2  0
M  END
$$$$
