SDP.pdb
     RDKit          3D

 22 22  0  0  1  0  0  0  0  0999 V2000
    8.1108  -12.3333   19.7675 O   0  0  0  0  0  0  0  0  0  0  0  0
    9.0756  -13.3223   19.8167 C   0  0  0  0  0  0  0  0  0  0  0  0
    8.4248  -14.6894   19.7888 C   0  0  2  0  0  0  0  0  0  0  0  0
    7.6527  -14.8524   18.5725 N   0  0  0  0  0  0  0  0  0  0  0  0
    7.5509  -14.8442   21.0005 C   0  0  0  0  0  0  0  0  0  0  0  0
    6.3624  -15.1500   20.7673 O   0  0  0  0  0  0  0  0  0  0  0  0
    8.1047  -14.6421   22.2824 N   0  0  0  0  0  0  0  0  0  0  0  0
    7.4241  -15.1387   23.4807 C   0  0  1  0  0  0  0  0  0  0  0  0
    7.3060  -16.6361   23.2890 C   0  0  0  0  0  0  0  0  0  0  0  0
    6.7084  -17.2582   24.5006 C   0  0  0  0  0  0  0  0  0  0  0  0
    7.4679  -17.8289   25.3093 O   0  0  0  0  0  0  0  0  0  0  0  0
    8.1352  -14.7017   24.6689 C   0  0  0  0  0  0  0  0  0  0  0  0
    9.3655  -15.0757   24.7765 O   0  0  0  0  0  0  0  0  0  0  0  0
    5.3543  -17.2235   24.7543 O   0  0  0  0  0  0  0  0  0  0  0  0
    7.6506  -13.9036   25.7400 N   0  0  0  0  0  0  0  0  0  0  0  0
    6.2449  -13.4668   25.7909 C   0  0  0  0  0  0  0  0  0  0  0  0
    6.2766  -12.1626   26.5595 C   0  0  0  0  0  0  0  0  0  0  0  0
    7.4189  -12.3032   27.5191 C   0  0  0  0  0  0  0  0  0  0  0  0
    8.2804  -13.3843   26.9074 C   0  0  1  0  0  0  0  0  0  0  0  0
    8.6354  -14.4211   27.8948 C   0  0  0  0  0  0  0  0  0  0  0  0
    8.1053  -15.5419   27.8417 O   0  0  0  0  0  0  0  0  0  0  0  0
    9.5547  -14.1475   28.8761 O   0  0  0  0  0  0  0  0  0  0  0  0
  1  2  1  0
  3  5  1  0
  3  2  1  0
  3  4  1  6
  5  7  1  0
  6  5  2  0
  7  8  1  0
  8 12  1  0
  9 10  1  0
  8  9  1  6
 10 14  1  0
 11 10  2  0
 12 13  2  0
 12 15  1  0
 15 19  1  0
 16 15  1  0
 16 17  1  0
 17 18  1  0
 19 18  1  0
 19 20  1  1
 20 22  1  0
 21 20  2  0
M  END
$$$$
