KRP.pdb
     RDKit          3D

 28 28  0  0  1  0  0  0  0  0999 V2000
   12.8623  -17.2257   21.3099 N   0  0  0  0  0  0  0  0  0  0  0  0
   11.7265  -17.7080   22.0343 C   0  0  1  0  0  0  0  0  0  0  0  0
   11.9395  -19.0037   22.7632 C   0  0  0  0  0  0  0  0  0  0  0  0
   13.2830  -19.1896   23.3526 C   0  0  0  0  0  0  0  0  0  0  0  0
   13.5483  -20.4726   24.0535 C   0  0  0  0  0  0  0  0  0  0  0  0
   14.9012  -20.5117   24.7305 C   0  0  0  0  0  0  0  0  0  0  0  0
   15.0953  -21.7407   25.4854 N   0  0  0  0  0  0  0  0  0  0  0  0
   11.0854  -16.6845   22.8941 C   0  0  0  0  0  0  0  0  0  0  0  0
   11.8061  -15.7478   23.3559 O   0  0  0  0  0  0  0  0  0  0  0  0
    8.1372  -14.4296   18.2305 N   0  0  0  0  0  0  0  0  0  0  0  0
    7.8442  -13.3165   19.0714 C   0  0  0  0  0  0  0  0  0  0  0  0
    8.0437  -12.0965   18.6846 N   0  0  0  0  0  0  0  0  0  0  0  0
    7.3190  -13.5030   20.3774 N   0  0  0  0  0  0  0  0  0  0  0  0
    7.8431  -14.6017   21.2286 C   0  0  0  0  0  0  0  0  0  0  0  0
    7.1793  -14.5926   22.5552 C   0  0  0  0  0  0  0  0  0  0  0  0
    7.7330  -15.4977   23.5457 C   0  0  0  0  0  0  0  0  0  0  0  0
    9.1554  -15.4455   23.9937 C   0  0  2  0  0  0  0  0  0  0  0  0
    9.7371  -16.6711   23.2404 N   0  0  0  0  0  0  0  0  0  0  0  0
    9.3748  -15.8157   25.3733 C   0  0  0  0  0  0  0  0  0  0  0  0
    9.1130  -17.1067   25.5539 O   0  0  0  0  0  0  0  0  0  0  0  0
    7.8724  -11.3439   19.3798 N   0  0  0  0  0  0  0  0  0  0  0  0
    9.8044  -15.0961   26.4989 C   0  0  0  0  0  0  0  0  0  0  0  0
   10.3614  -13.7105   26.2926 C   0  0  0  0  0  0  0  0  0  0  0  0
    9.4299  -12.9692   27.2430 C   0  0  0  0  0  0  0  0  0  0  0  0
    8.9538  -13.9955   28.2623 C   0  0  2  0  0  0  0  0  0  0  0  0
    9.9090  -15.1469   27.8972 C   0  0  0  0  0  0  0  0  0  0  0  0
    9.7053  -16.3146   28.6836 O   0  0  0  0  0  0  0  0  0  0  0  0
    8.8158  -17.1748   28.3212 O   0  0  0  0  0  0  0  0  0  0  0  0
  2  1  1  1
  3  2  1  0
  4  3  1  0
  5  4  1  0
  5  6  1  0
  7  6  1  0
  8  2  1  0
  9  8  2  0
 10 11  1  0
 11 12  2  0
 13 11  1  0
 13 14  1  0
 14 15  1  0
 16 15  1  0
 17 16  1  1
 17 18  1  0
 18  8  1  0
 19 21  1  0
 19 17  1  0
 20 19  2  0
 21 22  1  0
 23 22  1  0
 24 23  1  0
 25 26  1  1
 25 21  1  0
 25 24  1  0
 26 28  1  0
 27 26  2  0
M  END
$$$$
