KRP.pdb
     RDKit          3D

 28 28  0  0  1  0  0  0  0  0999 V2000
    7.2570  -16.4707   19.3950 N   0  0  0  0  0  0  0  0  0  0  0  0
    7.7880  -15.4784   20.2787 C   0  0  1  0  0  0  0  0  0  0  0  0
    7.9356  -14.1080   19.6820 C   0  0  0  0  0  0  0  0  0  0  0  0
    8.8115  -14.0217   18.4936 C   0  0  0  0  0  0  0  0  0  0  0  0
    8.1526  -13.8639   17.1712 C   0  0  0  0  0  0  0  0  0  0  0  0
    9.1348  -13.7895   16.0224 C   0  0  0  0  0  0  0  0  0  0  0  0
    8.4613  -13.6441   14.7405 N   0  0  0  0  0  0  0  0  0  0  0  0
    7.1250  -15.4399   21.6041 C   0  0  0  0  0  0  0  0  0  0  0  0
    5.8909  -15.7277   21.6695 O   0  0  0  0  0  0  0  0  0  0  0  0
    9.1236  -19.1837   26.8706 N   0  0  0  0  0  0  0  0  0  0  0  0
    7.9197  -19.7666   27.3631 C   0  0  0  0  0  0  0  0  0  0  0  0
    7.8921  -20.4537   28.4607 N   0  0  0  0  0  0  0  0  0  0  0  0
    6.6933  -19.6166   26.6632 N   0  0  0  0  0  0  0  0  0  0  0  0
    6.6873  -18.9762   25.3230 C   0  0  0  0  0  0  0  0  0  0  0  0
    6.8494  -17.5070   25.4488 C   0  0  0  0  0  0  0  0  0  0  0  0
    6.8821  -16.7652   24.2015 C   0  0  0  0  0  0  0  0  0  0  0  0
    6.9963  -15.2787   24.1392 C   0  0  2  0  0  0  0  0  0  0  0  0
    7.7582  -15.1069   22.7983 N   0  0  0  0  0  0  0  0  0  0  0  0
    7.9243  -14.6979   25.0824 C   0  0  0  0  0  0  0  0  0  0  0  0
    8.9722  -15.4979   25.2542 O   0  0  0  0  0  0  0  0  0  0  0  0
    6.9835  -20.8767   28.7335 N   0  0  0  0  0  0  0  0  0  0  0  0
    7.9242  -13.4950   25.8055 C   0  0  0  0  0  0  0  0  0  0  0  0
    7.4303  -12.2473   25.1187 C   0  0  0  0  0  0  0  0  0  0  0  0
    6.3652  -11.8587   26.1359 C   0  0  0  0  0  0  0  0  0  0  0  0
    6.7885  -12.4838   27.4584 C   0  0  2  0  0  0  0  0  0  0  0  0
    8.2064  -12.9337   27.0601 C   0  0  0  0  0  0  0  0  0  0  0  0
    8.8983  -13.5998   28.1093 O   0  0  0  0  0  0  0  0  0  0  0  0
    9.7271  -12.9372   28.8418 O   0  0  0  0  0  0  0  0  0  0  0  0
  2  1  1  6
  3  2  1  0
  4  3  1  0
  5  4  1  0
  5  6  1  0
  7  6  1  0
  8  2  1  0
  9  8  2  0
 10 11  1  0
 11 12  2  0
 13 11  1  0
 13 14  1  0
 14 15  1  0
 16 15  1  0
 17 16  1  1
 17 18  1  0
 18  8  1  0
 19 21  1  0
 19 17  1  0
 20 19  2  0
 21 22  1  0
 23 22  1  0
 24 23  1  0
 25 26  1  1
 25 21  1  0
 25 24  1  0
 26 28  1  0
 27 26  2  0
M  END
$$$$
