KRP.pdb
     RDKit          3D

 28 28  0  0  1  0  0  0  0  0999 V2000
    7.5293  -16.7734   19.5940 N   0  0  0  0  0  0  0  0  0  0  0  0
    8.0645  -15.7969   20.4926 C   0  0  1  0  0  0  0  0  0  0  0  0
    8.3249  -14.4480   19.8855 C   0  0  0  0  0  0  0  0  0  0  0  0
    8.8993  -14.4630   18.5229 C   0  0  0  0  0  0  0  0  0  0  0  0
    8.2189  -13.6429   17.4873 C   0  0  0  0  0  0  0  0  0  0  0  0
    8.9089  -13.6925   16.1414 C   0  0  0  0  0  0  0  0  0  0  0  0
    8.1454  -13.0001   15.1139 N   0  0  0  0  0  0  0  0  0  0  0  0
    7.3294  -15.6970   21.7761 C   0  0  0  0  0  0  0  0  0  0  0  0
    6.1310  -16.1121   21.8183 O   0  0  0  0  0  0  0  0  0  0  0  0
    8.8815  -20.6060   26.8332 N   0  0  0  0  0  0  0  0  0  0  0  0
    7.5409  -20.5851   27.3172 C   0  0  0  0  0  0  0  0  0  0  0  0
    7.1950  -21.2079   28.3990 N   0  0  0  0  0  0  0  0  0  0  0  0
    6.5233  -19.8758   26.6260 N   0  0  0  0  0  0  0  0  0  0  0  0
    6.8397  -19.2108   25.3361 C   0  0  0  0  0  0  0  0  0  0  0  0
    7.1564  -17.7781   25.5544 C   0  0  0  0  0  0  0  0  0  0  0  0
    7.3709  -16.9879   24.3559 C   0  0  0  0  0  0  0  0  0  0  0  0
    7.1766  -15.5092   24.3080 C   0  0  2  0  0  0  0  0  0  0  0  0
    7.8572  -15.1755   22.9540 N   0  0  0  0  0  0  0  0  0  0  0  0
    7.9865  -14.7568   25.2387 C   0  0  0  0  0  0  0  0  0  0  0  0
    9.1647  -15.3480   25.4111 O   0  0  0  0  0  0  0  0  0  0  0  0
    6.2293  -21.0520   28.7486 N   0  0  0  0  0  0  0  0  0  0  0  0
    7.7684  -13.5665   25.9496 C   0  0  0  0  0  0  0  0  0  0  0  0
    6.9647  -12.4756   25.2891 C   0  0  0  0  0  0  0  0  0  0  0  0
    5.9111  -12.3073   26.3764 C   0  0  0  0  0  0  0  0  0  0  0  0
    6.5511  -12.7914   27.6706 C   0  0  2  0  0  0  0  0  0  0  0  0
    8.0032  -12.9266   27.1760 C   0  0  0  0  0  0  0  0  0  0  0  0
    8.8950  -13.3981   28.1789 O   0  0  0  0  0  0  0  0  0  0  0  0
    9.5653  -12.5487   28.8802 O   0  0  0  0  0  0  0  0  0  0  0  0
  2  1  1  6
  3  2  1  0
  4  3  1  0
  5  4  1  0
  5  6  1  0
  7  6  1  0
  8  2  1  0
  9  8  2  0
 10 11  1  0
 11 12  2  0
 13 11  1  0
 13 14  1  0
 14 15  1  0
 16 15  1  0
 17 16  1  1
 17 18  1  0
 18  8  1  0
 19 21  1  0
 19 17  1  0
 20 19  2  0
 21 22  1  0
 23 22  1  0
 24 23  1  0
 25 26  1  1
 25 21  1  0
 25 24  1  0
 26 28  1  0
 27 26  2  0
M  END
$$$$
