KRP.pdb
     RDKit          3D

 28 28  0  0  1  0  0  0  0  0999 V2000
    8.8233  -16.9772   20.3984 N   0  0  0  0  0  0  0  0  0  0  0  0
   10.0444  -16.9365   21.1432 C   0  0  1  0  0  0  0  0  0  0  0  0
   11.2943  -16.8684   20.3134 C   0  0  0  0  0  0  0  0  0  0  0  0
   11.1456  -17.2857   18.9024 C   0  0  0  0  0  0  0  0  0  0  0  0
   12.3832  -17.3807   18.0856 C   0  0  0  0  0  0  0  0  0  0  0  0
   12.1240  -17.8265   16.6630 C   0  0  0  0  0  0  0  0  0  0  0  0
   13.3127  -17.7083   15.8317 N   0  0  0  0  0  0  0  0  0  0  0  0
   10.0466  -15.9348   22.2361 C   0  0  0  0  0  0  0  0  0  0  0  0
    9.8133  -14.7224   21.9430 O   0  0  0  0  0  0  0  0  0  0  0  0
    4.7443  -12.7501   26.4333 N   0  0  0  0  0  0  0  0  0  0  0  0
    6.0555  -12.5228   25.9225 C   0  0  0  0  0  0  0  0  0  0  0  0
    6.7632  -11.5009   26.2866 N   0  0  0  0  0  0  0  0  0  0  0  0
    6.6417  -13.4146   24.9858 N   0  0  0  0  0  0  0  0  0  0  0  0
    5.9969  -14.7258   24.7189 C   0  0  0  0  0  0  0  0  0  0  0  0
    6.8927  -15.8369   25.1234 C   0  0  0  0  0  0  0  0  0  0  0  0
    8.0674  -16.0360   24.2944 C   0  0  0  0  0  0  0  0  0  0  0  0
    9.4248  -15.5438   24.6712 C   0  0  2  0  0  0  0  0  0  0  0  0
   10.2890  -16.2235   23.5762 N   0  0  0  0  0  0  0  0  0  0  0  0
    9.9701  -16.1214   25.8783 C   0  0  0  0  0  0  0  0  0  0  0  0
    9.8234  -17.4428   25.8672 O   0  0  0  0  0  0  0  0  0  0  0  0
    7.6957  -11.3868   25.8433 N   0  0  0  0  0  0  0  0  0  0  0  0
   10.6060  -15.5671   27.0000 C   0  0  0  0  0  0  0  0  0  0  0  0
   11.0902  -14.1420   26.9166 C   0  0  0  0  0  0  0  0  0  0  0  0
   10.3571  -13.6024   28.1380 C   0  0  0  0  0  0  0  0  0  0  0  0
   10.1097  -14.7962   29.0503 C   0  0  2  0  0  0  0  0  0  0  0  0
   10.9890  -15.8308   28.3238 C   0  0  0  0  0  0  0  0  0  0  0  0
   10.9639  -17.1151   28.9347 O   0  0  0  0  0  0  0  0  0  0  0  0
    9.9778  -17.9108   28.6956 O   0  0  0  0  0  0  0  0  0  0  0  0
  2  1  1  6
  3  2  1  0
  4  3  1  0
  5  4  1  0
  5  6  1  0
  7  6  1  0
  8  2  1  0
  9  8  2  0
 10 11  1  0
 11 12  2  0
 13 11  1  0
 13 14  1  0
 14 15  1  0
 16 15  1  0
 17 16  1  6
 17 18  1  0
 18  8  1  0
 19 21  1  0
 19 17  1  0
 20 19  2  0
 21 22  1  0
 23 22  1  0
 24 23  1  0
 25 26  1  1
 25 21  1  0
 25 24  1  0
 26 28  1  0
 27 26  2  0
M  END
$$$$
