KRP.pdb
     RDKit          3D

 28 28  0  0  1  0  0  0  0  0999 V2000
   12.1957  -17.2926   22.2328 N   0  0  0  0  0  0  0  0  0  0  0  0
   10.7906  -17.3946   22.4835 C   0  0  1  0  0  0  0  0  0  0  0  0
   10.3794  -18.5581   23.3395 C   0  0  0  0  0  0  0  0  0  0  0  0
   11.3863  -19.6320   23.4811 C   0  0  0  0  0  0  0  0  0  0  0  0
   10.9795  -20.8546   24.2209 C   0  0  0  0  0  0  0  0  0  0  0  0
   12.0491  -21.9250   24.2345 C   0  0  0  0  0  0  0  0  0  0  0  0
   11.6696  -23.0615   25.0605 N   0  0  0  0  0  0  0  0  0  0  0  0
   10.1684  -16.1261   22.9323 C   0  0  0  0  0  0  0  0  0  0  0  0
   10.8147  -15.3898   23.7387 O   0  0  0  0  0  0  0  0  0  0  0  0
    8.5496  -12.3964   17.8626 N   0  0  0  0  0  0  0  0  0  0  0  0
    8.3833  -13.8111   17.8129 C   0  0  0  0  0  0  0  0  0  0  0  0
    9.0480  -14.5488   16.9812 N   0  0  0  0  0  0  0  0  0  0  0  0
    7.4739  -14.4729   18.6798 N   0  0  0  0  0  0  0  0  0  0  0  0
    6.7206  -13.6872   19.6905 C   0  0  0  0  0  0  0  0  0  0  0  0
    7.5991  -13.3307   20.8314 C   0  0  0  0  0  0  0  0  0  0  0  0
    7.3224  -14.0156   22.0809 C   0  0  0  0  0  0  0  0  0  0  0  0
    8.3758  -14.3285   23.0904 C   0  0  2  0  0  0  0  0  0  0  0  0
    8.9133  -15.6739   22.5343 N   0  0  0  0  0  0  0  0  0  0  0  0
    7.8790  -14.7233   24.3887 C   0  0  0  0  0  0  0  0  0  0  0  0
    7.4073  -15.9656   24.3463 O   0  0  0  0  0  0  0  0  0  0  0  0
    8.8685  -15.5716   17.0052 N   0  0  0  0  0  0  0  0  0  0  0  0
    7.8183  -14.0678   25.6281 C   0  0  0  0  0  0  0  0  0  0  0  0
    8.5620  -12.7661   25.7864 C   0  0  0  0  0  0  0  0  0  0  0  0
    7.3882  -11.9117   26.2477 C   0  0  0  0  0  0  0  0  0  0  0  0
    6.3806  -12.8693   26.8695 C   0  0  2  0  0  0  0  0  0  0  0  0
    7.2574  -14.1345   26.9125 C   0  0  0  0  0  0  0  0  0  0  0  0
    6.5808  -15.2672   27.4440 O   0  0  0  0  0  0  0  0  0  0  0  0
    5.6827  -15.8594   26.7332 O   0  0  0  0  0  0  0  0  0  0  0  0
  2  1  1  1
  3  2  1  0
  4  3  1  0
  5  4  1  0
  5  6  1  0
  7  6  1  0
  8  2  1  0
  9  8  2  0
 10 11  1  0
 11 12  2  0
 13 11  1  0
 13 14  1  0
 14 15  1  0
 16 15  1  0
 17 16  1  6
 17 18  1  0
 18  8  1  0
 19 21  1  0
 19 17  1  0
 20 19  2  0
 21 22  1  0
 23 22  1  0
 24 23  1  0
 25 26  1  6
 25 21  1  0
 25 24  1  0
 26 28  1  0
 27 26  2  0
M  END
$$$$
