KRP.pdb
     RDKit          3D

 28 28  0  0  1  0  0  0  0  0999 V2000
    8.8097  -20.7431   22.1127 N   0  0  0  0  0  0  0  0  0  0  0  0
    7.7478  -20.0067   22.7273 C   0  0  1  0  0  0  0  0  0  0  0  0
    7.1065  -20.6791   23.9072 C   0  0  0  0  0  0  0  0  0  0  0  0
    7.9303  -21.7064   24.5803 C   0  0  0  0  0  0  0  0  0  0  0  0
    8.2377  -21.4986   26.0191 C   0  0  0  0  0  0  0  0  0  0  0  0
    7.9942  -22.7307   26.8632 C   0  0  0  0  0  0  0  0  0  0  0  0
    7.0430  -22.4756   27.9348 N   0  0  0  0  0  0  0  0  0  0  0  0
    8.0851  -18.5909   23.0089 C   0  0  0  0  0  0  0  0  0  0  0  0
    9.2608  -18.3177   23.4004 O   0  0  0  0  0  0  0  0  0  0  0  0
    7.6576  -12.3409   17.5216 N   0  0  0  0  0  0  0  0  0  0  0  0
    8.3403  -13.4238   18.1484 C   0  0  0  0  0  0  0  0  0  0  0  0
    9.0658  -14.2572   17.4726 N   0  0  0  0  0  0  0  0  0  0  0  0
    8.2502  -13.6339   19.5499 N   0  0  0  0  0  0  0  0  0  0  0  0
    6.9161  -13.7932   20.1832 C   0  0  0  0  0  0  0  0  0  0  0  0
    7.0566  -13.9957   21.6460 C   0  0  0  0  0  0  0  0  0  0  0  0
    6.8005  -15.3415   22.1257 C   0  0  0  0  0  0  0  0  0  0  0  0
    7.7279  -16.0728   23.0377 C   0  0  2  0  0  0  0  0  0  0  0  0
    7.2012  -17.5236   22.8771 N   0  0  0  0  0  0  0  0  0  0  0  0
    7.5121  -15.8348   24.4466 C   0  0  0  0  0  0  0  0  0  0  0  0
    6.4544  -16.5169   24.8752 O   0  0  0  0  0  0  0  0  0  0  0  0
    9.5352  -15.0170   18.0031 N   0  0  0  0  0  0  0  0  0  0  0  0
    8.1915  -15.0604   25.3998 C   0  0  0  0  0  0  0  0  0  0  0  0
    9.3357  -14.1959   24.9354 C   0  0  0  0  0  0  0  0  0  0  0  0
    8.8269  -12.8679   25.4815 C   0  0  0  0  0  0  0  0  0  0  0  0
    7.8956  -13.2094   26.6369 C   0  0  2  0  0  0  0  0  0  0  0  0
    8.2159  -14.7107   26.7584 C   0  0  0  0  0  0  0  0  0  0  0  0
    7.4671  -15.3627   27.7770 O   0  0  0  0  0  0  0  0  0  0  0  0
    6.2789  -15.7892   27.5147 O   0  0  0  0  0  0  0  0  0  0  0  0
  2  1  1  1
  3  2  1  0
  4  3  1  0
  5  4  1  0
  5  6  1  0
  7  6  1  0
  8  2  1  0
  9  8  2  0
 10 11  1  0
 11 12  2  0
 13 11  1  0
 13 14  1  0
 14 15  1  0
 16 15  1  0
 17 16  1  6
 17 18  1  0
 18  8  1  0
 19 21  1  0
 19 17  1  0
 20 19  2  0
 21 22  1  0
 23 22  1  0
 24 23  1  0
 25 26  1  6
 25 21  1  0
 25 24  1  0
 26 28  1  0
 27 26  2  0
M  END
$$$$
