KRP.pdb
     RDKit          3D

 28 28  0  0  1  0  0  0  0  0999 V2000
    6.6628  -16.0216   19.5074 N   0  0  0  0  0  0  0  0  0  0  0  0
    7.3417  -15.1232   20.3903 C   0  0  1  0  0  0  0  0  0  0  0  0
    7.3694  -13.6899   19.9423 C   0  0  0  0  0  0  0  0  0  0  0  0
    8.5182  -13.3105   19.0918 C   0  0  0  0  0  0  0  0  0  0  0  0
    8.5702  -13.8827   17.7215 C   0  0  0  0  0  0  0  0  0  0  0  0
    9.7564  -13.3954   16.9181 C   0  0  0  0  0  0  0  0  0  0  0  0
    9.7307  -13.8977   15.5525 N   0  0  0  0  0  0  0  0  0  0  0  0
    6.9336  -15.2550   21.8094 C   0  0  0  0  0  0  0  0  0  0  0  0
    5.7037  -15.1329   22.0968 O   0  0  0  0  0  0  0  0  0  0  0  0
    7.5506  -19.9889   28.5742 N   0  0  0  0  0  0  0  0  0  0  0  0
    8.6427  -19.6168   27.7373 C   0  0  0  0  0  0  0  0  0  0  0  0
    9.7981  -19.2929   28.2249 N   0  0  0  0  0  0  0  0  0  0  0  0
    8.5054  -19.5852   26.3243 N   0  0  0  0  0  0  0  0  0  0  0  0
    7.1810  -19.2846   25.7227 C   0  0  0  0  0  0  0  0  0  0  0  0
    6.9430  -17.8206   25.6961 C   0  0  0  0  0  0  0  0  0  0  0  0
    7.3326  -17.1386   24.4754 C   0  0  0  0  0  0  0  0  0  0  0  0
    7.2389  -15.6594   24.3018 C   0  0  2  0  0  0  0  0  0  0  0  0
    7.8055  -15.5041   22.8656 N   0  0  0  0  0  0  0  0  0  0  0  0
    8.1869  -14.8927   25.0776 C   0  0  0  0  0  0  0  0  0  0  0  0
    9.3941  -15.4457   25.0123 O   0  0  0  0  0  0  0  0  0  0  0  0
   10.5673  -19.1193   27.5487 N   0  0  0  0  0  0  0  0  0  0  0  0
    8.0708  -13.7204   25.8405 C   0  0  0  0  0  0  0  0  0  0  0  0
    7.4280  -12.5139   25.2052 C   0  0  0  0  0  0  0  0  0  0  0  0
    6.3493  -12.2773   26.2544 C   0  0  0  0  0  0  0  0  0  0  0  0
    6.8678  -12.8930   27.5471 C   0  0  2  0  0  0  0  0  0  0  0  0
    8.3173  -13.1710   27.1078 C   0  0  0  0  0  0  0  0  0  0  0  0
    9.1011  -13.7893   28.1211 O   0  0  0  0  0  0  0  0  0  0  0  0
    8.9404  -15.0444   28.3684 O   0  0  0  0  0  0  0  0  0  0  0  0
  2  1  1  6
  3  2  1  0
  4  3  1  0
  5  4  1  0
  5  6  1  0
  7  6  1  0
  8  2  1  0
  9  8  2  0
 10 11  1  0
 11 12  2  0
 13 11  1  0
 13 14  1  0
 14 15  1  0
 16 15  1  0
 17 16  1  1
 17 18  1  0
 18  8  1  0
 19 21  1  0
 19 17  1  0
 20 19  2  0
 21 22  1  0
 23 22  1  0
 24 23  1  0
 25 26  1  1
 25 21  1  0
 25 24  1  0
 26 28  1  0
 27 26  2  0
M  END
$$$$
