KRP.pdb
     RDKit          3D

 28 28  0  0  1  0  0  0  0  0999 V2000
    6.1339  -15.5807   19.9269 N   0  0  0  0  0  0  0  0  0  0  0  0
    7.1648  -15.0873   20.7878 C   0  0  1  0  0  0  0  0  0  0  0  0
    7.5567  -13.6560   20.5564 C   0  0  0  0  0  0  0  0  0  0  0  0
    7.8544  -13.2960   19.1533 C   0  0  0  0  0  0  0  0  0  0  0  0
    9.1500  -13.7576   18.5913 C   0  0  0  0  0  0  0  0  0  0  0  0
    9.3924  -13.2719   17.1787 C   0  0  0  0  0  0  0  0  0  0  0  0
   10.5670  -13.8929   16.5849 N   0  0  0  0  0  0  0  0  0  0  0  0
    6.9358  -15.3765   22.2236 C   0  0  0  0  0  0  0  0  0  0  0  0
    5.7433  -15.3706   22.6571 O   0  0  0  0  0  0  0  0  0  0  0  0
    4.0910  -22.5836   24.0985 N   0  0  0  0  0  0  0  0  0  0  0  0
    5.2484  -21.8446   24.4804 C   0  0  0  0  0  0  0  0  0  0  0  0
    5.9443  -22.1570   25.5273 N   0  0  0  0  0  0  0  0  0  0  0  0
    5.6871  -20.7267   23.7225 N   0  0  0  0  0  0  0  0  0  0  0  0
    6.9095  -19.9927   24.1388 C   0  0  0  0  0  0  0  0  0  0  0  0
    6.5896  -18.5736   24.4289 C   0  0  0  0  0  0  0  0  0  0  0  0
    7.7045  -17.6467   24.3587 C   0  0  0  0  0  0  0  0  0  0  0  0
    7.5559  -16.1753   24.5574 C   0  0  2  0  0  0  0  0  0  0  0  0
    7.9400  -15.6565   23.1463 N   0  0  0  0  0  0  0  0  0  0  0  0
    8.5730  -15.5652   25.3831 C   0  0  0  0  0  0  0  0  0  0  0  0
    9.7027  -16.2631   25.3183 O   0  0  0  0  0  0  0  0  0  0  0  0
    6.8015  -21.5999   25.7114 N   0  0  0  0  0  0  0  0  0  0  0  0
    8.5858  -14.4184   26.1920 C   0  0  0  0  0  0  0  0  0  0  0  0
    7.9057  -13.1742   25.6804 C   0  0  0  0  0  0  0  0  0  0  0  0
    6.9712  -12.9481   26.8619 C   0  0  0  0  0  0  0  0  0  0  0  0
    7.6259  -13.6225   28.0600 C   0  0  2  0  0  0  0  0  0  0  0  0
    9.0018  -13.9210   27.4362 C   0  0  0  0  0  0  0  0  0  0  0  0
    9.8854  -14.5946   28.3244 O   0  0  0  0  0  0  0  0  0  0  0  0
   10.6110  -13.9066   29.1385 O   0  0  0  0  0  0  0  0  0  0  0  0
  2  1  1  6
  3  2  1  0
  4  3  1  0
  5  4  1  0
  5  6  1  0
  7  6  1  0
  8  2  1  0
  9  8  2  0
 10 11  1  0
 11 12  2  0
 13 11  1  0
 13 14  1  0
 14 15  1  0
 16 15  1  0
 17 16  1  6
 17 18  1  0
 18  8  1  0
 19 21  1  0
 19 17  1  0
 20 19  2  0
 21 22  1  0
 23 22  1  0
 24 23  1  0
 25 26  1  1
 25 21  1  0
 25 24  1  0
 26 28  1  0
 27 26  2  0
M  END
$$$$
