KRP.pdb
     RDKit          3D

 28 28  0  0  1  0  0  0  0  0999 V2000
    6.7198  -15.7369   19.4595 N   0  0  0  0  0  0  0  0  0  0  0  0
    7.4541  -14.8955   20.3541 C   0  0  1  0  0  0  0  0  0  0  0  0
    7.5915  -13.4658   19.9150 C   0  0  0  0  0  0  0  0  0  0  0  0
    7.8423  -13.2642   18.4716 C   0  0  0  0  0  0  0  0  0  0  0  0
    9.1193  -13.7884   17.9218 C   0  0  0  0  0  0  0  0  0  0  0  0
    9.3214  -13.4497   16.4609 C   0  0  0  0  0  0  0  0  0  0  0  0
   10.5524  -14.0218   15.9360 N   0  0  0  0  0  0  0  0  0  0  0  0
    7.0233  -15.0044   21.7685 C   0  0  0  0  0  0  0  0  0  0  0  0
    5.8942  -14.5252   22.0934 O   0  0  0  0  0  0  0  0  0  0  0  0
    6.6926  -21.5588   28.8182 N   0  0  0  0  0  0  0  0  0  0  0  0
    7.0883  -21.0287   27.5556 C   0  0  0  0  0  0  0  0  0  0  0  0
    7.7740  -21.7259   26.7062 N   0  0  0  0  0  0  0  0  0  0  0  0
    6.7444  -19.7042   27.1767 N   0  0  0  0  0  0  0  0  0  0  0  0
    7.0987  -19.2141   25.8200 C   0  0  0  0  0  0  0  0  0  0  0  0
    6.8386  -17.7579   25.7094 C   0  0  0  0  0  0  0  0  0  0  0  0
    7.1943  -17.1462   24.4420 C   0  0  0  0  0  0  0  0  0  0  0  0
    7.1867  -15.6710   24.2176 C   0  0  2  0  0  0  0  0  0  0  0  0
    7.7710  -15.5978   22.7818 N   0  0  0  0  0  0  0  0  0  0  0  0
    8.1719  -14.9334   24.9750 C   0  0  0  0  0  0  0  0  0  0  0  0
    9.3519  -15.5433   24.9185 O   0  0  0  0  0  0  0  0  0  0  0  0
    8.0726  -21.2501   25.8324 N   0  0  0  0  0  0  0  0  0  0  0  0
    8.1129  -13.7415   25.7137 C   0  0  0  0  0  0  0  0  0  0  0  0
    7.4818  -12.5324   25.0718 C   0  0  0  0  0  0  0  0  0  0  0  0
    6.4457  -12.2426   26.1503 C   0  0  0  0  0  0  0  0  0  0  0  0
    6.9905  -12.8430   27.4392 C   0  0  2  0  0  0  0  0  0  0  0  0
    8.4165  -13.1707   26.9589 C   0  0  0  0  0  0  0  0  0  0  0  0
    9.2170  -13.7874   27.9601 O   0  0  0  0  0  0  0  0  0  0  0  0
    9.0397  -15.0350   28.2330 O   0  0  0  0  0  0  0  0  0  0  0  0
  2  1  1  6
  3  2  1  0
  4  3  1  0
  5  4  1  0
  5  6  1  0
  7  6  1  0
  8  2  1  0
  9  8  2  0
 10 11  1  0
 11 12  2  0
 13 11  1  0
 13 14  1  0
 14 15  1  0
 16 15  1  0
 17 16  1  1
 17 18  1  0
 18  8  1  0
 19 21  1  0
 19 17  1  0
 20 19  2  0
 21 22  1  0
 23 22  1  0
 24 23  1  0
 25 26  1  1
 25 21  1  0
 25 24  1  0
 26 28  1  0
 27 26  2  0
M  END
$$$$
