KRP.pdb
     RDKit          3D

 28 28  0  0  1  0  0  0  0  0999 V2000
   12.6115  -18.3806   21.4849 N   0  0  0  0  0  0  0  0  0  0  0  0
   11.9343  -18.5277   22.7368 C   0  0  1  0  0  0  0  0  0  0  0  0
   12.7262  -19.2150   23.8121 C   0  0  0  0  0  0  0  0  0  0  0  0
   12.5036  -20.6720   23.9343 C   0  0  0  0  0  0  0  0  0  0  0  0
   11.2492  -21.1169   24.5947 C   0  0  0  0  0  0  0  0  0  0  0  0
   11.1776  -22.6162   24.7867 C   0  0  0  0  0  0  0  0  0  0  0  0
    9.9171  -23.0273   25.3869 N   0  0  0  0  0  0  0  0  0  0  0  0
   11.2991  -17.2802   23.2247 C   0  0  0  0  0  0  0  0  0  0  0  0
   12.0204  -16.2431   23.3440 O   0  0  0  0  0  0  0  0  0  0  0  0
    8.0545  -13.7082   18.6010 N   0  0  0  0  0  0  0  0  0  0  0  0
    7.8530  -13.2314   19.9291 C   0  0  0  0  0  0  0  0  0  0  0  0
    7.9258  -11.9717   20.2215 N   0  0  0  0  0  0  0  0  0  0  0  0
    7.5632  -14.1263   20.9928 N   0  0  0  0  0  0  0  0  0  0  0  0
    7.3054  -13.5891   22.3534 C   0  0  0  0  0  0  0  0  0  0  0  0
    7.1253  -14.6968   23.3236 C   0  0  0  0  0  0  0  0  0  0  0  0
    8.0919  -15.7763   23.2375 C   0  0  0  0  0  0  0  0  0  0  0  0
    9.3953  -15.7641   23.9639 C   0  0  2  0  0  0  0  0  0  0  0  0
    9.9557  -17.1560   23.5681 N   0  0  0  0  0  0  0  0  0  0  0  0
    9.2945  -15.8843   25.4005 C   0  0  0  0  0  0  0  0  0  0  0  0
    8.6076  -16.9748   25.7273 O   0  0  0  0  0  0  0  0  0  0  0  0
    7.7587  -11.7034   21.2110 N   0  0  0  0  0  0  0  0  0  0  0  0
    9.7773  -15.1020   26.4609 C   0  0  0  0  0  0  0  0  0  0  0  0
   10.3444  -13.7413   26.1458 C   0  0  0  0  0  0  0  0  0  0  0  0
    9.4607  -12.9267   27.0817 C   0  0  0  0  0  0  0  0  0  0  0  0
    9.0108  -13.8788   28.1816 C   0  0  2  0  0  0  0  0  0  0  0  0
    9.9354  -15.0661   27.8546 C   0  0  0  0  0  0  0  0  0  0  0  0
    9.7467  -16.1784   28.7209 O   0  0  0  0  0  0  0  0  0  0  0  0
   10.2295  -16.1393   29.9159 O   0  0  0  0  0  0  0  0  0  0  0  0
  2  1  1  6
  3  2  1  0
  4  3  1  0
  5  4  1  0
  5  6  1  0
  7  6  1  0
  8  2  1  0
  9  8  2  0
 10 11  1  0
 11 12  2  0
 13 11  1  0
 13 14  1  0
 14 15  1  0
 16 15  1  0
 17 16  1  6
 17 18  1  0
 18  8  1  0
 19 21  1  0
 19 17  1  0
 20 19  2  0
 21 22  1  0
 23 22  1  0
 24 23  1  0
 25 26  1  1
 25 21  1  0
 25 24  1  0
 26 28  1  0
 27 26  2  0
M  END
$$$$
