KRP.pdb
     RDKit          3D

 28 28  0  0  1  0  0  0  0  0999 V2000
    8.4066  -13.0327   19.2204 N   0  0  0  0  0  0  0  0  0  0  0  0
    8.5127  -14.2887   19.8978 C   0  0  1  0  0  0  0  0  0  0  0  0
    9.8955  -14.8731   19.9426 C   0  0  0  0  0  0  0  0  0  0  0  0
   11.0002  -13.8917   20.0001 C   0  0  0  0  0  0  0  0  0  0  0  0
   12.2580  -14.2386   19.2892 C   0  0  0  0  0  0  0  0  0  0  0  0
   13.2953  -13.1383   19.3445 C   0  0  0  0  0  0  0  0  0  0  0  0
   14.5252  -13.5167   18.6647 N   0  0  0  0  0  0  0  0  0  0  0  0
    7.8560  -14.3101   21.2267 C   0  0  0  0  0  0  0  0  0  0  0  0
    7.4196  -13.2172   21.7012 O   0  0  0  0  0  0  0  0  0  0  0  0
    8.6165  -19.3663   26.6365 N   0  0  0  0  0  0  0  0  0  0  0  0
    7.3075  -19.6036   27.1481 C   0  0  0  0  0  0  0  0  0  0  0  0
    7.1150  -20.1467   28.3081 N   0  0  0  0  0  0  0  0  0  0  0  0
    6.1533  -19.2522   26.3993 N   0  0  0  0  0  0  0  0  0  0  0  0
    6.3011  -18.8051   24.9905 C   0  0  0  0  0  0  0  0  0  0  0  0
    6.3569  -17.3245   24.9188 C   0  0  0  0  0  0  0  0  0  0  0  0
    6.5702  -16.7629   23.5974 C   0  0  0  0  0  0  0  0  0  0  0  0
    6.9445  -15.3367   23.3679 C   0  0  2  0  0  0  0  0  0  0  0  0
    7.6795  -15.4502   22.0059 N   0  0  0  0  0  0  0  0  0  0  0  0
    7.9920  -14.8347   24.2275 C   0  0  0  0  0  0  0  0  0  0  0  0
    9.0694  -15.6094   24.1462 O   0  0  0  0  0  0  0  0  0  0  0  0
    6.1326  -20.2362   28.6336 N   0  0  0  0  0  0  0  0  0  0  0  0
    8.0768  -13.7246   25.0820 C   0  0  0  0  0  0  0  0  0  0  0  0
    7.5506  -12.4006   24.5894 C   0  0  0  0  0  0  0  0  0  0  0  0
    6.5836  -12.1235   25.7332 C   0  0  0  0  0  0  0  0  0  0  0  0
    7.1056  -12.9028   26.9328 C   0  0  2  0  0  0  0  0  0  0  0  0
    8.4755  -13.3163   26.3638 C   0  0  0  0  0  0  0  0  0  0  0  0
    9.2410  -14.1070   27.2650 O   0  0  0  0  0  0  0  0  0  0  0  0
    9.0004  -15.3701   27.3606 O   0  0  0  0  0  0  0  0  0  0  0  0
  2  1  1  1
  3  2  1  0
  4  3  1  0
  5  4  1  0
  5  6  1  0
  7  6  1  0
  8  2  1  0
  9  8  2  0
 10 11  1  0
 11 12  2  0
 13 11  1  0
 13 14  1  0
 14 15  1  0
 16 15  1  0
 17 16  1  1
 17 18  1  0
 18  8  1  0
 19 21  1  0
 19 17  1  0
 20 19  2  0
 21 22  1  0
 23 22  1  0
 24 23  1  0
 25 26  1  1
 25 21  1  0
 25 24  1  0
 26 28  1  0
 27 26  2  0
M  END
$$$$
