GIL.pdb
     RDKit          3D

 21 20  0  0  1  0  0  0  0  0999 V2000
   12.1825  -13.3045  -11.5378 N   0  0  0  0  0  0  0  0  0  0  0  0
   12.4611  -12.1346  -12.3069 C   0  0  0  0  0  0  0  0  0  0  0  0
   13.8409  -11.6204  -12.0970 C   0  0  0  0  0  0  0  0  0  0  0  0
   14.5375  -12.0440  -11.1350 O   0  0  0  0  0  0  0  0  0  0  0  0
   17.5706  -12.4807  -13.9432 C   0  0  0  0  0  0  0  0  0  0  0  0
   16.5535  -11.6072  -14.5991 C   0  0  0  0  0  0  0  0  0  0  0  0
   16.5621  -10.1930  -14.0616 C   0  0  2  0  0  0  0  0  0  0  0  0
   17.9499   -9.6462  -13.9109 C   0  0  0  0  0  0  0  0  0  0  0  0
   15.7749  -10.1505  -12.7567 C   0  0  2  0  0  0  0  0  0  0  0  0
   14.4210  -10.6479  -12.9564 N   0  0  0  0  0  0  0  0  0  0  0  0
   15.6506   -8.7140  -12.3697 C   0  0  0  0  0  0  0  0  0  0  0  0
   14.8913   -8.0112  -13.1036 O   0  0  0  0  0  0  0  0  0  0  0  0
   15.2340   -6.7822   -7.3152 C   0  0  0  0  0  0  0  0  0  0  0  0
   15.0970   -7.0093   -8.8105 C   0  0  1  0  0  0  0  0  0  0  0  0
   13.7589   -6.4092   -9.2540 C   0  0  0  0  0  0  0  0  0  0  0  0
   16.2326   -6.4040   -9.5763 C   0  0  0  0  0  0  0  0  0  0  0  0
   16.1195   -6.7007  -11.0325 C   0  0  2  0  0  0  0  0  0  0  0  0
   16.3069   -8.1367  -11.2811 N   0  0  0  0  0  0  0  0  0  0  0  0
   17.0680   -6.0075  -11.9117 C   0  0  0  0  0  0  0  0  0  0  0  0
   18.1085   -6.5775  -12.2993 O   0  0  0  0  0  0  0  0  0  0  0  0
   16.8176   -4.7125  -12.3207 O   0  0  0  0  0  0  0  0  0  0  0  0
  1  2  1  0
  2  3  1  0
  3  4  2  0
  3 10  1  0
  6  5  1  0
  7  6  1  0
  7  8  1  1
  9  7  1  0
  9 10  1  6
 11  9  1  0
 11 18  1  0
 12 11  2  0
 14 15  1  6
 14 16  1  0
 14 13  1  0
 17 16  1  1
 17 18  1  0
 19 17  1  0
 20 19  2  0
 21 19  1  0
M  END
$$$$
