GIL.pdb
     RDKit          3D

 21 20  0  0  1  0  0  0  0  0999 V2000
   27.4978  -21.0211  -15.9447 N   0  0  0  0  0  0  0  0  0  0  0  0
   27.9756  -20.2406  -14.8491 C   0  0  0  0  0  0  0  0  0  0  0  0
   27.8841  -20.9548  -13.5477 C   0  0  0  0  0  0  0  0  0  0  0  0
   26.9403  -21.7625  -13.3310 O   0  0  0  0  0  0  0  0  0  0  0  0
   32.3437  -22.4889  -10.6881 C   0  0  0  0  0  0  0  0  0  0  0  0
   30.9937  -22.3574  -11.3109 C   0  0  0  0  0  0  0  0  0  0  0  0
   30.0636  -21.4718  -10.5113 C   0  0  2  0  0  0  0  0  0  0  0  0
   29.9449  -21.9089   -9.0821 C   0  0  0  0  0  0  0  0  0  0  0  0
   28.7121  -21.4047  -11.2136 C   0  0  2  0  0  0  0  0  0  0  0  0
   28.8393  -20.7601  -12.5131 N   0  0  0  0  0  0  0  0  0  0  0  0
   27.8336  -20.5276  -10.3845 C   0  0  0  0  0  0  0  0  0  0  0  0
   28.0172  -19.2799  -10.5209 O   0  0  0  0  0  0  0  0  0  0  0  0
   22.5694  -21.1718   -9.6946 C   0  0  0  0  0  0  0  0  0  0  0  0
   23.9867  -20.6515   -9.8580 C   0  0  1  0  0  0  0  0  0  0  0  0
   23.9105  -19.3090  -10.5924 C   0  0  0  0  0  0  0  0  0  0  0  0
   24.6841  -20.5001   -8.5414 C   0  0  0  0  0  0  0  0  0  0  0  0
   26.0853  -20.0266   -8.7250 C   0  0  2  0  0  0  0  0  0  0  0  0
   26.8604  -21.0025   -9.5033 N   0  0  0  0  0  0  0  0  0  0  0  0
   26.8532  -19.7806   -7.4990 C   0  0  0  0  0  0  0  0  0  0  0  0
   27.6856  -20.6167   -7.0919 O   0  0  0  0  0  0  0  0  0  0  0  0
   26.6616  -18.6168   -6.7807 O   0  0  0  0  0  0  0  0  0  0  0  0
  1  2  1  0
  2  3  1  0
  3  4  2  0
  3 10  1  0
  6  5  1  0
  7  6  1  0
  7  8  1  1
  9  7  1  0
  9 10  1  6
 11  9  1  0
 11 18  1  0
 12 11  2  0
 14 15  1  1
 14 16  1  0
 14 13  1  0
 17 16  1  1
 17 18  1  0
 19 17  1  0
 20 19  2  0
 21 19  1  0
M  END
$$$$
