GIL.pdb
     RDKit          3D

 21 20  0  0  1  0  0  0  0  0999 V2000
   29.9789  -22.9872  -17.5104 N   0  0  0  0  0  0  0  0  0  0  0  0
   28.7304  -22.5126  -18.0144 C   0  0  0  0  0  0  0  0  0  0  0  0
   28.0946  -21.5038  -17.1255 C   0  0  0  0  0  0  0  0  0  0  0  0
   28.7634  -20.5261  -16.6933 O   0  0  0  0  0  0  0  0  0  0  0  0
   24.1238  -19.2214  -19.1455 C   0  0  0  0  0  0  0  0  0  0  0  0
   25.2596  -19.4948  -18.2166 C   0  0  0  0  0  0  0  0  0  0  0  0
   24.8090  -20.0850  -16.8985 C   0  0  2  0  0  0  0  0  0  0  0  0
   23.9027  -19.1636  -16.1386 C   0  0  0  0  0  0  0  0  0  0  0  0
   26.0351  -20.4933  -16.0896 C   0  0  2  0  0  0  0  0  0  0  0  0
   26.7314  -21.5981  -16.7335 N   0  0  0  0  0  0  0  0  0  0  0  0
   25.5403  -21.0054  -14.7775 C   0  0  0  0  0  0  0  0  0  0  0  0
   24.9319  -22.1178  -14.8161 O   0  0  0  0  0  0  0  0  0  0  0  0
   26.4765  -20.8776   -8.7201 C   0  0  0  0  0  0  0  0  0  0  0  0
   25.5714  -21.1872   -9.8996 C   0  0  1  0  0  0  0  0  0  0  0  0
   24.1913  -20.5938   -9.5986 C   0  0  0  0  0  0  0  0  0  0  0  0
   26.1171  -20.6433  -11.1836 C   0  0  0  0  0  0  0  0  0  0  0  0
   25.2366  -20.9923  -12.3343 C   0  0  2  0  0  0  0  0  0  0  0  0
   25.7117  -20.3399  -13.5622 N   0  0  0  0  0  0  0  0  0  0  0  0
   23.8209  -20.6298  -12.2016 C   0  0  0  0  0  0  0  0  0  0  0  0
   23.4403  -19.4620  -12.4235 O   0  0  0  0  0  0  0  0  0  0  0  0
   22.8919  -21.5811  -11.8286 O   0  0  0  0  0  0  0  0  0  0  0  0
  1  2  1  0
  2  3  1  0
  3  4  2  0
  3 10  1  0
  6  5  1  0
  7  6  1  0
  7  8  1  1
  9  7  1  0
  9 10  1  6
 11  9  1  0
 11 18  1  0
 12 11  2  0
 14 15  1  1
 14 16  1  0
 14 13  1  0
 17 16  1  1
 17 18  1  0
 19 17  1  0
 20 19  2  0
 21 19  1  0
M  END
$$$$
