GIL.pdb
     RDKit          3D

 21 20  0  0  1  0  0  0  0  0999 V2000
   22.4909  -14.0100  -19.7101 N   0  0  0  0  0  0  0  0  0  0  0  0
   21.4986  -14.0614  -18.6851 C   0  0  0  0  0  0  0  0  0  0  0  0
   21.8902  -13.3085  -17.4637 C   0  0  0  0  0  0  0  0  0  0  0  0
   21.0944  -13.2191  -16.4897 O   0  0  0  0  0  0  0  0  0  0  0  0
   26.7718  -13.9558  -15.5110 C   0  0  0  0  0  0  0  0  0  0  0  0
   25.3171  -13.6480  -15.6400 C   0  0  0  0  0  0  0  0  0  0  0  0
   25.0476  -12.1767  -15.8670 C   0  0  2  0  0  0  0  0  0  0  0  0
   25.5493  -11.3225  -14.7416 C   0  0  0  0  0  0  0  0  0  0  0  0
   23.5594  -11.9769  -16.1308 C   0  0  2  0  0  0  0  0  0  0  0  0
   23.1549  -12.6701  -17.3457 N   0  0  0  0  0  0  0  0  0  0  0  0
   23.3533  -10.5196  -16.3803 C   0  0  0  0  0  0  0  0  0  0  0  0
   24.0797  -10.0093  -17.2864 O   0  0  0  0  0  0  0  0  0  0  0  0
   19.0775   -7.9190  -16.2528 C   0  0  0  0  0  0  0  0  0  0  0  0
   20.0797   -8.8299  -16.9400 C   0  0  1  0  0  0  0  0  0  0  0  0
   19.4508   -9.3128  -18.2509 C   0  0  0  0  0  0  0  0  0  0  0  0
   21.3826   -8.1378  -17.1969 C   0  0  0  0  0  0  0  0  0  0  0  0
   22.3194   -8.3097  -16.0506 C   0  0  2  0  0  0  0  0  0  0  0  0
   22.4341   -9.7290  -15.6881 N   0  0  0  0  0  0  0  0  0  0  0  0
   21.9698   -7.6001  -14.8146 C   0  0  0  0  0  0  0  0  0  0  0  0
   21.9296   -6.3530  -14.7873 O   0  0  0  0  0  0  0  0  0  0  0  0
   21.6805   -8.3083  -13.6648 O   0  0  0  0  0  0  0  0  0  0  0  0
  1  2  1  0
  2  3  1  0
  3  4  2  0
  3 10  1  0
  6  5  1  0
  7  6  1  0
  7  8  1  1
  9  7  1  0
  9 10  1  6
 11  9  1  0
 11 18  1  0
 12 11  2  0
 14 15  1  6
 14 16  1  0
 14 13  1  0
 17 16  1  6
 17 18  1  0
 19 17  1  0
 20 19  2  0
 21 19  1  0
M  END
$$$$
